data_functionalizedCrystal
_audit_creation_method	'MofGen! by Chris Wilmer'
_symmetry_space_group_name_H-M	'P1'
_symmetry_Int_Tables_number	1
_symmetry_cell_setting	triclinic
loop_
_symmetry_equiv_pos_as_xyz
  x,y,z
_cell_length_a	16.120530
_cell_length_b	16.120297
_cell_length_c	19.077068
_cell_angle_alpha	84.954538
_cell_angle_beta	90.462149
_cell_angle_gamma	90.128140
loop_
_atom_site_label
_atom_site_type_symbol
_atom_site_fract_x
_atom_site_fract_y
_atom_site_fract_z
Zn1	Zn	1.229633	-0.550594	0.356500
Zn2	Zn	1.562966	-0.217261	0.689834
Zn3	Zn	1.896299	0.116072	1.023167
Zn4	Zn	1.230988	-0.416574	0.468520
Zn5	Zn	1.564321	-0.083240	0.801853
Zn6	Zn	1.897655	0.250093	1.135187
Zn7	Zn	1.098217	-0.403978	0.344610
Zn8	Zn	1.431550	-0.070644	0.677943
Zn9	Zn	1.764884	0.262689	1.011276
Zn10	Zn	1.084977	-0.548514	0.467872
Zn11	Zn	1.418310	-0.215180	0.801205
Zn12	Zn	1.751643	0.118153	1.134539
O13	O	1.160954	-0.479915	0.409375
O14	O	1.494287	-0.146582	0.742709
O15	O	1.827620	0.186752	1.076042
O16	O	1.345917	-0.538958	0.376608
O17	O	1.679250	-0.205625	0.709941
O18	O	2.012583	0.127708	1.043274
O19	O	1.219484	-0.298326	0.447378
O20	O	1.552817	0.035008	0.780711
O21	O	1.886150	0.368341	1.114045
O22	O	1.120623	-0.419026	0.247720
O23	O	1.453957	-0.085693	0.581054
O24	O	1.787290	0.247641	0.914387
O25	O	1.346912	-0.440494	0.458908
O26	O	1.680246	-0.107161	0.792241
O27	O	2.013579	0.226173	1.125575
O28	O	1.217174	-0.526745	0.256457
O29	O	1.550507	-0.193411	0.589790
O30	O	1.883841	0.139922	0.923123
O31	O	1.121938	-0.289072	0.356341
O32	O	1.455271	0.044262	0.689675
O33	O	1.788604	0.377595	1.023008
O34	O	0.980356	-0.417009	0.355713
O35	O	1.313690	-0.083675	0.689046
O36	O	1.647023	0.249658	1.022380
O37	O	1.098057	-0.665367	0.457803
O38	O	1.431391	-0.332033	0.791137
O39	O	1.764724	0.001300	1.124470
O40	O	0.970629	-0.523199	0.446273
O41	O	1.303962	-0.189865	0.779607
O42	O	1.637295	0.143468	1.112940
O43	O	1.204335	-0.666895	0.375979
O44	O	1.537669	-0.333562	0.709312
O45	O	1.871002	-0.000229	1.042646
O46	O	1.206645	-0.438476	0.566900
O47	O	1.539979	-0.105143	0.900234
O48	O	1.873312	0.228190	1.233567
O49	O	1.099371	-0.535412	0.566424
O50	O	1.432705	-0.202079	0.899758
O51	O	1.766038	0.131254	1.233091
C52	C	0.945388	-0.468511	0.399633
C53	C	1.278721	-0.135178	0.732966
C54	C	1.612055	0.198155	1.066300
C55	C	0.853166	-0.463654	0.395483
C56	C	1.186500	-0.130320	0.728816
C57	C	1.519833	0.203013	1.062150
C58	C	0.684316	-0.454791	0.387890
C59	C	1.017649	-0.121457	0.721223
C60	C	1.350983	0.211876	1.054557
C61	C	0.638426	-0.505102	0.430915
C62	C	0.971759	-0.171769	0.764249
C63	C	1.305092	0.161565	1.097582
C64	C	0.544472	-0.500171	0.426690
C65	C	0.877805	-0.166837	0.760024
C66	C	1.211138	0.166496	1.093357
C67	C	0.778279	-0.459721	0.392114
C68	C	1.111612	-0.126388	0.725447
C69	C	1.444945	0.206946	1.058780
C70	C	1.149568	-0.697203	0.418145
C71	C	1.482902	-0.363870	0.751479
C72	C	1.816235	-0.030537	1.084812
C73	C	1.144717	-0.789799	0.421883
C74	C	1.478050	-0.456465	0.755216
C75	C	1.811383	-0.123132	1.088549
C76	C	1.135829	-0.959329	0.428689
C77	C	1.469162	-0.625996	0.762022
C78	C	1.802496	-0.292663	1.095355
C79	C	1.186252	-1.001351	0.389859
C80	C	1.519585	-0.668018	0.723192
C81	C	1.852919	-0.334685	1.056525
C82	C	1.181307	-1.095684	0.393646
C83	C	1.514640	-0.762351	0.726979
C84	C	1.847974	-0.429017	1.060312
C85	C	1.140773	-0.864988	0.424903
C86	C	1.474106	-0.531655	0.758236
C87	C	1.807440	-0.198322	1.091569
C88	C	1.377361	-0.491363	0.419156
C89	C	1.710694	-0.158030	0.752490
C90	C	2.044027	0.175303	1.085823
C91	C	1.469580	-0.496242	0.423324
C92	C	1.802914	-0.162909	0.756658
C93	C	2.136247	0.170425	1.089991
C94	C	1.151740	-0.488105	0.592195
C95	C	1.485073	-0.154771	0.925529
C96	C	1.818407	0.178562	1.258862
C97	C	1.147873	-0.491640	0.670411
C98	C	1.481206	-0.158307	1.003744
C99	C	1.814540	0.175026	1.337078
C100	C	1.172345	-0.263472	0.400591
C101	C	1.505678	0.069861	0.733924
C102	C	1.839011	0.403195	1.067258
C103	C	1.177367	-0.170877	0.396663
C104	C	1.510700	0.162457	0.729996
C105	C	1.844034	0.495790	1.063330
C106	C	1.170224	-0.471712	0.225843
C107	C	1.503558	-0.138379	0.559177
C108	C	1.836891	0.194954	0.892510
C109	C	1.174175	-0.468217	0.147633
C110	C	1.507509	-0.134884	0.480966
C111	C	1.840842	0.198450	0.814300
C112	C	1.201947	-0.442878	0.707385
C113	C	1.535280	-0.109545	1.040718
C114	C	1.868614	0.223788	1.374052
C115	C	1.198314	-0.446209	0.780877
C116	C	1.531648	-0.112876	1.114211
C117	C	1.864981	0.220458	1.447544
C118	C	1.140603	-0.498297	0.817394
C119	C	1.473937	-0.164964	1.150727
C120	C	1.807270	0.168369	1.484061
C121	C	1.086527	-0.547065	0.780415
C122	C	1.419861	-0.213732	1.113748
C123	C	1.753194	0.119602	1.447082
C124	C	1.090164	-0.543738	0.706924
C125	C	1.423498	-0.210405	1.040258
C126	C	1.756831	0.122928	1.373591
C127	C	1.123736	-0.513658	1.037163
C128	C	1.457069	-0.180324	1.370497
C129	C	1.790403	0.153009	1.703830
C130	C	1.120101	-0.516979	1.110659
C131	C	1.453435	-0.183646	1.443992
C132	C	1.786768	0.149688	1.777326
C133	C	1.231890	-0.416124	1.111117
C134	C	1.565223	-0.082790	1.444450
C135	C	1.898557	0.250543	1.777783
C136	C	1.235519	-0.412798	1.037624
C137	C	1.568852	-0.079465	1.370957
C138	C	1.902185	0.253869	1.704291
C139	C	1.181445	-0.461569	1.000652
C140	C	1.514779	-0.128235	1.333985
C141	C	1.848112	0.205098	1.667318
N142	N	1.136887	-0.501701	0.892515
N143	N	1.470221	-0.168368	1.225848
N144	N	1.803554	0.164966	1.559181
N145	N	1.185166	-0.458169	0.925533
N146	N	1.518499	-0.124835	1.258866
N147	N	1.851833	0.208498	1.592199
H148	H	0.669699	-0.551880	0.470922
H149	H	1.003033	-0.218546	0.804256
H150	H	1.336366	0.114787	1.137589
H151	H	0.653044	-0.408018	0.347886
H152	H	0.986377	-0.074684	0.681219
H153	H	1.319711	0.258649	1.014552
H154	H	1.233134	-0.966481	0.353770
H155	H	1.566467	-0.633148	0.687104
H156	H	1.899801	-0.299814	1.020437
H157	H	1.088951	-0.994197	0.464774
H158	H	1.422284	-0.660864	0.798107
H159	H	1.755617	-0.327531	1.131441
H160	H	1.248938	-0.400458	0.677658
H161	H	1.582271	-0.067125	1.010991
H162	H	1.915605	0.266208	1.344324
Cl163	Cl	1.266299	-0.384908	0.827356
Cl164	Cl	1.599632	-0.051574	1.160690
Cl165	Cl	1.932966	0.281759	1.494023
Cl166	Cl	1.047535	-0.582455	1.156564
Cl167	Cl	1.380868	-0.249122	1.489897
Cl168	Cl	1.714202	0.084211	1.823230
Cl169	Cl	1.308084	-0.347325	0.991724
Cl170	Cl	1.641417	-0.013991	1.325057
Cl171	Cl	1.974750	0.319342	1.658391
Cl172	Cl	1.022185	-0.605045	0.660443
Cl173	Cl	1.355519	-0.271711	0.993776
Cl174	Cl	1.688852	0.061622	1.327109
H175	H	1.275915	-0.376419	1.141227
H176	H	1.609248	-0.043085	1.474561
H177	H	1.942581	0.290248	1.807894
Cl178	Cl	1.055756	-0.574968	0.990693
Cl179	Cl	1.389089	-0.241635	1.324026
Cl180	Cl	1.722423	0.091698	1.657360
Cl181	Cl	1.013980	-0.612553	0.826322
Cl182	Cl	1.347314	-0.279220	1.159655
Cl183	Cl	1.680647	0.054113	1.492989
