data_functionalizedCrystal
_audit_creation_method	'MofGen! by Chris Wilmer'
_symmetry_space_group_name_H-M	'P1'
_symmetry_Int_Tables_number	1
_symmetry_cell_setting	triclinic
loop_
_symmetry_equiv_pos_as_xyz
  x,y,z
_cell_length_a	21.295418
_cell_length_b	15.297327
_cell_length_c	15.296720
_cell_angle_alpha	107.319222
_cell_angle_beta	80.360333
_cell_angle_gamma	80.274214
loop_
_atom_site_label
_atom_site_type_symbol
_atom_site_fract_x
_atom_site_fract_y
_atom_site_fract_z
Zn1	Zn	0.835360	0.460955	0.590189
Zn2	Zn	0.835288	0.589577	0.461583
Zn3	Zn	0.752127	0.434110	0.434671
Zn4	Zn	0.708045	0.616460	0.616973
O5	O	0.782705	0.525276	0.525854
O6	O	0.923435	0.478001	0.573183
O7	O	0.842675	0.546468	0.327897
O8	O	0.781646	0.307528	0.432829
O9	O	0.923383	0.572499	0.478696
O10	O	0.842797	0.327252	0.547087
O11	O	0.781577	0.432248	0.308125
O12	O	0.658195	0.458315	0.458800
O13	O	0.706515	0.618318	0.743536
O14	O	0.625808	0.592287	0.592737
O15	O	0.800053	0.504069	0.723858
O16	O	0.799931	0.723286	0.504668
O17	O	0.706446	0.743037	0.618833
C18	C	0.748411	0.766910	0.567597
C19	C	0.733793	0.870287	0.585486
C20	C	0.619162	0.525306	0.525756
C21	C	0.549191	0.525345	0.525739
C22	C	0.748375	0.567187	0.768378
C23	C	0.733745	0.585047	0.871728
C24	C	0.499478	0.595168	0.595405
C25	C	0.433733	0.595152	0.595443
C26	C	0.417704	0.525321	0.525800
C27	C	0.467426	0.455486	0.456128
C28	C	0.533170	0.455498	0.456098
N29	N	0.326989	0.503981	0.443215
N30	N	0.264534	0.503975	0.443247
C31	C	0.219624	0.525279	0.525888
N32	N	0.239524	0.546607	0.608501
N33	N	0.301984	0.546617	0.608468
C34	C	0.346418	0.525300	0.525825
C35	C	0.098621	0.595088	0.595600
C36	C	0.032876	0.595066	0.595639
C37	C	0.066571	0.455404	0.456317
C38	C	0.132315	0.455422	0.456286
C39	C	0.148336	0.525269	0.525927
C40	C	0.946887	0.525246	0.525954
C41	C	1.016851	0.525233	0.525996
C42	C	0.817147	0.282702	0.483968
C43	C	0.831824	0.179331	0.466119
C44	C	0.887395	1.120460	0.398316
C45	C	0.901130	1.023331	0.381504
C46	C	0.859297	0.985065	0.432498
C47	C	0.803727	1.043938	0.500307
C48	C	0.789988	1.141075	0.517116
C49	C	0.761890	1.005681	0.551298
C50	C	0.706320	1.064553	0.619108
C51	C	0.692584	1.161681	0.635914
C52	C	0.734417	1.199947	0.584919
C53	C	0.775629	0.908543	0.534489
C54	C	0.678222	0.929159	0.653290
C55	C	0.664487	1.026288	0.670102
C56	C	0.816947	0.483461	0.284262
C57	C	0.831736	0.465339	0.180868
C58	C	0.887311	0.397465	1.122072
C59	C	0.901060	0.380686	1.024970
C60	C	0.859232	0.431774	0.986655
C61	C	0.803654	0.499645	1.045450
C62	C	0.789906	0.516431	1.142562
C63	C	0.761827	0.550740	1.007145
C64	C	0.706249	0.618611	1.065941
C65	C	0.692503	0.635393	1.163043
C66	C	0.734331	0.584305	1.201359
C67	C	0.775575	0.533955	0.910033
C68	C	0.678170	0.652921	0.930524
C69	C	0.664421	0.669699	1.027625
H70	H	0.393249	0.652010	0.652176
H71	H	0.723140	0.597962	1.280426
N72	N	0.114994	0.666435	0.666727
N73	N	0.096334	0.751151	0.675246
H74	H	0.107896	0.801541	0.725479
N75	N	0.930117	1.159534	0.346211
N76	N	0.939653	1.133895	0.258536
H77	H	0.969826	1.161491	0.221729
N78	N	0.720378	1.299169	0.602114
N79	N	0.717098	1.355006	0.682167
H80	H	0.707182	1.425083	0.694313
H81	H	0.647252	0.690665	1.210914
H82	H	0.454371	0.398628	0.399426
H83	H	0.870483	0.905977	0.418804
N84	N	-0.017900	0.666392	0.666819
N85	N	-0.003582	0.728743	0.728990
H86	H	-0.039442	0.779119	0.779263
N87	N	0.873285	0.414627	0.887467
N88	N	0.922909	0.354027	0.834982
H89	H	0.932835	0.341911	0.764925
H90	H	0.573648	0.398638	0.399367
H91	H	0.053521	0.398542	0.399616
H92	H	0.619168	0.724960	1.075510
H93	H	0.647330	1.209612	0.691118
N94	N	0.930030	0.345305	1.161227
N95	N	0.917750	0.360308	1.247932
H96	H	0.947924	0.323469	1.275588
H97	H	0.172793	0.398569	0.399553
H98	H	0.946314	0.325428	0.977106
H99	H	0.820874	0.860617	0.479278
N100	N	0.957889	0.963210	0.312237
N101	N	0.995235	0.997383	0.266712
H102	H	1.035325	0.954923	0.217788
H103	H	0.619242	1.074235	0.725313
N104	N	0.635493	0.890067	0.705375
N105	N	0.647767	0.803342	0.690362
H106	H	0.617593	0.775726	0.727143
H107	H	0.820827	0.478693	0.862171
N108	N	0.635440	0.705093	0.891381
N109	N	0.607648	0.663005	0.831522
H110	H	0.577473	0.699848	0.803871
N111	N	0.515831	0.666519	0.666547
N112	N	0.471432	0.728856	0.728746
H113	H	0.482982	0.779248	0.778992
