data_functionalizedCrystal
_audit_creation_method	'MofGen! by Chris Wilmer'
_symmetry_space_group_name_H-M	'P1'
_symmetry_Int_Tables_number	1
_symmetry_cell_setting	triclinic
loop_
_symmetry_equiv_pos_as_xyz
  x,y,z
_cell_length_a	6.817900
_cell_length_b	11.102244
_cell_length_c	16.305550
_cell_angle_alpha	93.871173
_cell_angle_beta	103.455250
_cell_angle_gamma	108.604870
loop_
_atom_site_label
_atom_site_type_symbol
_atom_site_fract_x
_atom_site_fract_y
_atom_site_fract_z
V1	V	-4.052579	-0.176911	-0.263029
O2	O	-4.012740	0.007398	-0.258024
O3	O	-4.029754	-0.349723	-0.261228
O4	O	-4.003652	-0.174674	-0.377746
O5	O	-4.039022	-0.168863	-0.140700
V6	V	-4.532962	-0.154808	-0.248398
O7	O	-4.320727	-0.225395	-0.295124
O8	O	-4.715011	-0.106324	-0.216303
O9	O	-4.332581	0.018004	-0.250199
O10	O	-4.690198	-0.339117	-0.253403
O11	O	-4.663916	-0.162856	-0.370727
O12	O	-4.358682	-0.157045	-0.133681
C13	C	-3.880993	-0.391836	-0.257078
C14	C	-3.943614	-0.533115	-0.256370
C15	C	-3.930174	-0.581034	-0.178786
C16	C	-3.989025	-0.713783	-0.178131
C17	C	-4.074747	-0.750686	-0.332650
C18	C	-4.015911	-0.617939	-0.333305
C19	C	-3.857877	-0.496210	-0.101851
C20	C	-3.844431	-0.544127	-0.024261
C21	C	-3.903283	-0.676877	-0.023605
C22	C	-3.975580	-0.761709	-0.100540
C23	C	-3.847697	-0.168542	-0.405708
C24	C	-3.889147	-0.167856	-0.499489
C25	C	-4.039838	-0.165200	-0.840235
C26	C	-3.802616	-0.157314	-0.799306
C27	C	-3.759607	-0.158553	-0.701811
C28	C	-3.965077	-0.166517	-0.671187
C29	C	-4.150793	-0.292032	-0.721812
C30	C	-4.192551	-0.291322	-0.819361
C31	C	-4.077233	-0.048574	-0.794393
C32	C	-4.029156	-0.047580	-0.696550
C33	C	-3.922838	-0.167266	-0.575649
C34	C	-4.082087	-0.164460	-0.935774
C35	C	-4.144684	0.060110	-0.254347
C36	C	-4.061302	0.201388	-0.255060
C37	C	-4.177980	-0.163182	-0.105715
C38	C	-4.115768	-0.163861	-0.011932
H39	H	-4.026887	-0.578925	-0.396482
H40	H	-3.809940	-0.388117	-0.102376
H41	H	-4.023512	-0.869802	-0.100001
F42	F	-3.767529	-0.453844	0.057613
F43	F	-3.759977	-0.266837	-0.840489
F44	F	-3.689288	-0.269343	-0.680510
F45	F	-3.852872	0.073769	-0.651623
H46	H	-4.249992	-0.053235	-0.821209
H47	H	-3.971676	0.046528	-0.807762
H48	H	-3.892351	-0.715887	0.039572
F49	F	-4.151683	-0.840973	-0.414524
F50	F	-3.576668	-0.040614	-0.656033
H51	H	-4.305492	-0.302399	-0.702899
F52	F	-3.646236	-0.038701	-0.815355
F53	F	-4.162487	-0.406722	-0.859073
F54	F	-4.421896	-0.305687	-0.855949
F55	F	-4.095528	-0.407467	-0.699836
F56	F	-4.221358	-0.045529	-0.668641
