data_functionalizedCrystal
_audit_creation_method	'MofGen! by Chris Wilmer'
_symmetry_space_group_name_H-M	'P1'
_symmetry_Int_Tables_number	1
_symmetry_cell_setting	triclinic
loop_
_symmetry_equiv_pos_as_xyz
  x,y,z
_cell_length_a	15.944499
_cell_length_b	17.699083
_cell_length_c	16.776229
_cell_angle_alpha	90.001114
_cell_angle_beta	89.996595
_cell_angle_gamma	96.619688
loop_
_atom_site_label
_atom_site_type_symbol
_atom_site_fract_x
_atom_site_fract_y
_atom_site_fract_z
O1	O	0.106224	-1.004242	-0.066171
O2	O	0.120044	-0.783885	-0.066196
O3	O	-0.009156	-0.900101	-0.066184
O4	O	0.235425	-0.888026	-0.066183
O5	O	-0.009164	-0.900086	0.066392
O6	O	0.120037	-0.783870	0.066380
O7	O	0.106217	-1.004227	0.066406
Zn8	Zn	0.113125	-0.894046	0.087442
Zn9	Zn	0.113136	-0.894066	-0.087233
O10	O	0.235417	-0.888010	0.066394
C11	C	0.119545	-0.755680	0.000089
C12	C	0.118060	-0.671659	0.000079
C13	C	-0.040454	-0.899599	0.000102
C14	C	-0.133699	-0.898117	0.000096
C15	C	0.106716	-1.032432	0.000119
C16	C	0.108201	-1.116453	0.000124
C17	C	-0.425377	-0.965636	0.000108
C18	C	-0.364282	-0.930530	0.065474
C19	C	-0.469324	-0.892732	0.000105
C20	C	-0.364280	-0.930526	-0.065236
C21	C	-0.304421	-0.895382	0.000099
C22	C	-0.409457	-0.857606	0.065524
C23	C	-0.409462	-0.857612	-0.065244
C24	C	-0.348384	-0.822454	0.000138
C25	C	-0.564321	-0.891208	0.000109
C26	C	-0.209425	-0.896901	0.000101
C27	C	0.266715	-0.888512	0.000106
C28	C	0.359960	-0.889995	0.000107
N29	N	0.113118	-0.894037	0.206654
C30	C	0.193898	-0.623155	0.000080
C31	C	0.192497	-0.544210	0.000090
C32	C	0.115257	-0.513770	0.000094
C33	C	0.039413	-0.562280	0.000096
C34	C	0.040815	-0.641224	0.000091
C35	C	0.033758	-0.243908	0.000115
C36	C	0.032362	-0.164958	0.000117
C37	C	0.185440	-0.146894	0.000114
C38	C	0.186842	-0.225838	0.000109
C39	C	0.110999	-0.274341	0.000115
C40	C	0.112519	-0.359943	0.000106
C41	C	0.113736	-0.428170	0.000098
N42	N	0.113137	-0.894080	-0.206444
C43	C	0.055931	-0.945514	0.248376
C44	C	0.055930	-0.945518	0.331828
C45	C	0.113121	-0.894049	0.373557
C46	C	0.170310	-0.842567	0.331828
C47	C	0.170306	-0.842560	0.248378
C48	C	0.170327	-0.842594	0.668375
C49	C	0.170328	-0.842607	0.751832
C50	C	0.055951	-0.945552	0.751826
C51	C	0.055947	-0.945545	0.668376
C52	C	0.113133	-0.894061	0.626655
C53	C	0.113132	-0.894056	0.536166
C54	C	0.113127	-0.894057	0.464043
H55	H	-0.344259	-0.961360	0.120741
H56	H	-0.315074	-0.761898	0.000169
H57	H	-0.023477	-0.537490	0.000110
H58	H	0.216872	-0.800642	0.214408
C59	C	0.275918	-0.490851	0.000086
C60	C	0.296006	-0.434099	0.068933
C61	C	0.379430	-0.380739	0.068930
C62	C	0.442765	-0.384131	0.000079
C63	C	0.422678	-0.440886	-0.068774
C64	C	0.339254	-0.494246	-0.068770
H65	H	0.249121	-0.431586	0.119905
H66	H	0.394299	-0.338725	0.119899
H67	H	0.504520	-0.344631	0.000076
H68	H	0.469564	-0.443399	-0.119746
H69	H	0.324385	-0.536260	-0.119740
H70	H	-0.027998	-0.283391	0.000121
H71	H	0.249738	-0.250617	0.000103
H72	H	0.009364	-0.987429	0.214406
H73	H	-0.429377	-0.826789	0.120844
C74	C	-0.436550	-0.815997	-0.139908
C75	C	-0.419039	-0.846609	-0.223467
C76	C	-0.446130	-0.805001	-0.298139
C77	C	-0.490733	-0.732781	-0.289250
C78	C	-0.508246	-0.702166	-0.205687
C79	C	-0.481155	-0.743774	-0.131016
H80	H	-0.386019	-0.900073	-0.230051
H81	H	-0.433165	-0.827664	-0.359998
H82	H	-0.510787	-0.701981	-0.344526
H83	H	-0.541266	-0.648702	-0.199104
H84	H	-0.494120	-0.721111	-0.069157
C85	C	-0.337274	-0.972189	-0.139911
C86	C	-0.371721	-1.055984	-0.154261
C87	C	-0.344737	-1.097647	-0.228943
C88	C	-0.283306	-1.055515	-0.289274
C89	C	-0.248855	-0.971715	-0.274926
C90	C	-0.275839	-0.930052	-0.200244
H91	H	-0.417199	-1.087177	-0.109599
H92	H	-0.370240	-1.159681	-0.239564
H93	H	-0.263331	-1.086356	-0.344558
H94	H	-0.203377	-0.940522	-0.319588
H95	H	-0.250336	-0.868018	-0.189623
H96	H	0.009384	-0.987472	0.785804
H97	H	0.247195	-0.107392	0.000114
C98	C	0.233237	-0.785983	0.797735
C99	C	0.233241	-0.785997	0.889528
C100	C	0.296146	-0.729378	0.935432
C101	C	0.359047	-0.672744	0.889543
C102	C	0.359045	-0.672728	0.797746
C103	C	0.296139	-0.729347	0.751842
H104	H	0.186676	-0.827923	0.923502
H105	H	0.296148	-0.729390	1.003387
H106	H	0.405613	-0.630830	0.923524
H107	H	0.405609	-0.630802	0.763772
H108	H	0.296138	-0.729335	0.683887
C109	C	0.233222	-0.785949	0.377725
C110	C	0.233274	-0.785989	0.469517
C111	C	0.296190	-0.729371	0.515411
C112	C	0.359055	-0.672713	0.469513
C113	C	0.359006	-0.672671	0.377715
C114	C	0.296089	-0.729289	0.331821
H115	H	0.186735	-0.827932	0.503499
H116	H	0.296226	-0.729402	0.583366
H117	H	0.405629	-0.630801	0.503486
H118	H	0.405544	-0.630728	0.343734
H119	H	0.296053	-0.729258	0.263866
H120	H	-0.020940	-0.680716	0.000090
H121	H	-0.030539	-0.140178	0.000122
H122	H	0.009364	-0.987433	0.365798
C123	C	-0.006964	-1.002160	0.622474
C124	C	-0.102617	-1.000905	0.633955
C125	C	-0.165531	-1.057518	0.588055
C126	C	-0.132794	-1.115387	0.530672
C127	C	-0.037137	-1.116645	0.519189
C128	C	0.025778	-1.060032	0.565089
H129	H	-0.126855	-0.958064	0.676435
H130	H	-0.236343	-1.056587	0.596556
H131	H	-0.179367	-1.157296	0.496694
H132	H	-0.012898	-1.159486	0.476709
H133	H	0.096590	-1.060963	0.556588
C134	C	-0.470584	-1.047367	0.000198
C135	C	-0.456487	-1.101592	0.069455
C136	C	-0.501695	-1.183320	0.069550
C137	C	-0.561001	-1.210823	0.000387
C138	C	-0.575102	-1.156597	-0.068875
C139	C	-0.529894	-1.074869	-0.068970
H140	H	-0.412582	-1.081234	0.120658
H141	H	-0.491256	-1.223462	0.120823
H142	H	-0.594467	-1.271323	0.000457
H143	H	-0.619007	-1.176955	-0.120079
H144	H	-0.540332	-1.034727	-0.120243
H145	H	0.256795	-0.647932	0.000076
H146	H	0.216891	-0.800676	0.634413
