data_functionalizedCrystal
_audit_creation_method	'MofGen! by Chris Wilmer'
_symmetry_space_group_name_H-M	'P1'
_symmetry_Int_Tables_number	1
_symmetry_cell_setting	triclinic
loop_
_symmetry_equiv_pos_as_xyz
  x,y,z
_cell_length_a	16.992694
_cell_length_b	10.723024
_cell_length_c	16.053802
_cell_angle_alpha	92.591250
_cell_angle_beta	87.249047
_cell_angle_gamma	87.568046
loop_
_atom_site_label
_atom_site_type_symbol
_atom_site_fract_x
_atom_site_fract_y
_atom_site_fract_z
O1	O	1.045092	0.259813	-0.069321
O2	O	1.545092	0.759813	0.430679
O3	O	0.816792	0.256907	-0.069346
O4	O	1.316792	0.756907	0.430654
O5	O	0.936208	0.077238	-0.069330
O6	O	1.436208	0.577238	0.430670
O7	O	0.925676	0.439483	-0.069337
O8	O	1.425676	0.939483	0.430663
O9	O	0.929634	0.087084	0.069528
O10	O	1.429634	0.587084	0.569528
O11	O	0.810219	0.266753	0.069512
O12	O	1.310219	0.766753	0.569512
O13	O	1.038518	0.269659	0.069537
O14	O	1.538518	0.769659	0.569537
Zn15	Zn	0.923325	0.269769	0.091572
Zn16	Zn	1.423325	0.769769	0.591572
Zn17	Zn	0.931985	0.256797	-0.091380
Zn18	Zn	1.431985	0.756797	0.408620
O19	O	0.919103	0.449329	0.069521
O20	O	1.419103	0.949329	0.569521
C21	C	0.784273	0.258094	0.000080
C22	C	1.284273	0.758094	0.500080
C23	C	0.697169	0.246945	0.000071
C24	C	1.197169	0.746945	0.500071
C25	C	0.647507	0.354505	0.000069
C26	C	1.147507	0.854505	0.500069
C27	C	0.565664	0.344024	0.000081
C28	C	1.065664	0.844024	0.500081
C29	C	0.533484	0.225982	0.000088
C30	C	1.033484	0.725982	0.500088
C31	C	0.583152	0.118414	0.000092
C32	C	1.083152	0.618414	0.500092
C33	C	0.664994	0.128896	0.000087
C34	C	1.164994	0.628896	0.500087
C35	C	0.289651	0.182535	0.000112
C36	C	0.789651	0.682535	0.500112
C37	C	0.207803	0.172060	0.000115
C38	C	0.707803	0.672060	0.500115
C39	C	0.190321	0.397672	0.000105
C40	C	0.690321	0.897672	0.500105
C41	C	0.272165	0.408144	0.000094
C42	C	0.772165	0.908144	0.500094
C43	C	0.321826	0.300577	0.000103
C44	C	0.821826	0.800577	0.500103
N45	N	0.449827	0.215265	0.000098
N46	N	0.949827	0.715265	0.500098
N47	N	0.405481	0.311294	0.000099
N48	N	0.905481	0.811294	0.500099
C49	C	0.932155	0.035595	0.000098
C50	C	1.432155	0.535595	0.500098
C51	C	0.929862	-0.103157	0.000095
C52	C	1.429862	0.396843	0.500095
C53	C	0.996681	-0.172386	0.000101
C54	C	1.496681	0.327614	0.500101
C55	C	0.994312	-0.315793	0.000098
C56	C	1.494312	0.184207	0.500098
C57	C	1.071038	0.268472	0.000109
C58	C	1.571038	0.768472	0.500109
C59	C	1.158141	0.279620	0.000113
C60	C	1.658141	0.779620	0.500113
C61	C	0.923156	0.490971	0.000091
C62	C	1.423156	0.990971	0.500091
C63	C	0.925449	0.629723	0.000089
C64	C	1.425449	1.129723	0.500089
N65	N	0.917420	0.278623	0.216431
N66	N	1.417420	0.778623	0.716431
N67	N	0.937896	0.247934	-0.216239
N68	N	1.437896	0.747934	0.283761
C69	C	0.968250	0.202204	0.260132
C70	C	1.468250	0.702204	0.760132
C71	C	0.964127	0.208409	0.347538
C72	C	1.464127	0.708409	0.847538
C73	C	0.909177	0.291041	0.391242
C74	C	1.409177	0.791041	0.891242
C75	C	0.858341	0.367463	0.347535
C76	C	1.358341	0.867463	0.847535
C77	C	0.862461	0.361250	0.260130
C78	C	1.362461	0.861250	0.760130
C79	C	0.891180	0.318143	0.652649
C80	C	1.391180	0.818143	1.152649
C81	C	0.887066	0.324353	0.740060
C82	C	1.387066	0.824353	1.240060
C83	C	0.992852	0.165297	0.740057
C84	C	1.492852	0.665297	1.240057
C85	C	0.996970	0.159097	0.652650
C86	C	1.496970	0.659097	1.152650
C87	C	0.946131	0.235514	0.608951
C88	C	1.446131	0.735514	1.108951
N89	N	0.904963	0.297389	0.480585
N90	N	1.404963	0.797389	0.980585
N91	N	0.950342	0.229159	0.519610
N92	N	1.450342	0.729159	1.019610
H93	H	0.298360	0.504266	0.000079
H94	H	0.798360	1.004266	0.500079
C95	C	0.547760	-0.011434	0.000100
C96	C	1.047760	0.488566	0.500100
H97	H	0.589061	-0.073991	0.000107
H98	H	1.089061	0.426009	0.500107
H99	H	0.518483	-0.023648	-0.048322
H100	H	1.018483	0.476352	0.451678
H101	H	0.513912	-0.016777	0.048530
H102	H	1.013912	0.483223	0.548530
C103	C	1.028701	0.111320	0.212061
C104	C	1.528701	0.611320	0.712061
H105	H	1.023883	0.118573	0.153747
H106	H	1.523883	0.618573	0.653747
H107	H	1.019067	0.028153	0.226392
H108	H	1.519067	0.528153	0.726392
H109	H	1.080455	0.131185	0.226382
H110	H	1.580455	0.631185	0.726382
C111	C	0.682902	0.484350	0.000059
C112	C	1.182902	0.984350	0.500059
H113	H	0.738757	0.475192	0.000047
H114	H	1.238757	0.975192	0.500047
H115	H	0.663612	0.532418	0.048480
H116	H	1.163612	1.032418	0.548480
H117	H	0.668180	0.525541	-0.048371
H118	H	1.168180	1.025541	0.451629
H119	H	0.705428	0.041309	0.000087
H120	H	1.205428	0.541309	0.500087
H121	H	0.842316	0.391646	0.775640
H122	H	1.342316	0.891646	1.275640
C123	C	0.797898	0.458358	0.395607
C124	C	1.297898	0.958358	0.895607
H125	H	0.802730	0.451124	0.453921
H126	H	1.302730	0.951124	0.953921
H127	H	0.746144	0.438515	0.381293
H128	H	1.246144	0.938515	0.881293
H129	H	0.807545	0.541525	0.381270
H130	H	1.307545	1.041525	0.881270
H131	H	1.041715	0.091812	0.617068
H132	H	1.541715	0.591812	1.117068
H133	H	0.868243	-0.310778	0.000090
H134	H	1.368243	0.189222	0.500090
H135	H	0.330076	0.094945	0.000119
H136	H	0.830076	0.594945	0.500119
H137	H	1.005517	0.146182	0.383119
H138	H	1.505517	0.646182	0.883119
C139	C	1.076333	-0.109041	0.000113
C140	C	1.576333	0.390959	0.500113
H141	H	1.067475	-0.020964	0.000120
H142	H	1.567475	0.479036	0.500120
H143	H	1.107625	-0.136964	-0.048305
H144	H	1.607625	0.363036	0.451695
H145	H	1.103034	-0.130103	0.048546
H146	H	1.603034	0.369897	0.548546
H147	H	0.870902	-0.150057	0.000083
H148	H	1.370902	0.349943	0.500083
C149	C	0.511039	0.462341	0.000077
C150	C	1.011039	0.962341	0.500077
H151	H	0.541926	0.534142	0.000061
H152	H	1.041926	1.034142	0.500061
H153	H	0.476465	0.466383	0.048502
H154	H	0.976465	0.966383	0.548502
H155	H	0.481034	0.459501	-0.048349
H156	H	0.981034	0.959501	0.451651
C157	C	1.071591	-0.396173	0.000100
C158	C	1.571591	0.103827	0.500100
H159	H	1.059862	-0.482014	0.000090
H160	H	1.559862	0.017986	0.500090
H161	H	1.099005	-0.374626	0.048524
H162	H	1.599005	0.125374	0.548524
H163	H	1.103580	-0.381482	-0.048328
H164	H	1.603580	0.118518	0.451672
C165	C	0.172407	0.042208	0.000125
C166	C	0.672407	0.542208	0.500125
H167	H	0.213704	-0.020355	0.000135
H168	H	0.713704	0.479645	0.500135
H169	H	0.143131	0.029995	-0.048298
H170	H	0.643131	0.529995	0.451702
H171	H	0.138556	0.036873	0.048554
H172	H	0.638556	0.536873	0.548554
C173	C	1.048761	0.081235	0.788127
C174	C	1.548761	0.581235	1.288127
H175	H	1.038435	0.096758	0.846442
H176	H	1.538435	0.596758	1.346442
H177	H	1.101866	0.099038	0.773795
H178	H	1.601866	0.599038	1.273795
H179	H	1.040462	-0.003968	0.773810
H180	H	1.540462	0.496032	1.273810
H181	H	0.849787	0.380368	0.617076
H182	H	1.349787	0.880368	1.117076
C183	C	0.806551	0.445316	0.212060
C184	C	1.306551	0.945316	0.712060
H185	H	0.773239	0.495427	0.250605
H186	H	1.273239	0.995427	0.750605
H187	H	0.775262	0.394695	0.177971
H188	H	1.275262	0.894695	0.677971
H189	H	0.836661	0.497709	0.177955
H190	H	1.336661	0.997709	0.677955
H191	H	0.149878	0.485247	0.000100
H192	H	0.649878	0.985247	0.500100
