data_functionalizedCrystal
_audit_creation_method	'MofGen! by Chris Wilmer'
_symmetry_space_group_name_H-M	'P1'
_symmetry_Int_Tables_number	1
_symmetry_cell_setting	triclinic
loop_
_symmetry_equiv_pos_as_xyz
  x,y,z
_cell_length_a	9.065218
_cell_length_b	11.026607
_cell_length_c	7.540329
_cell_angle_alpha	89.998876
_cell_angle_beta	89.996101
_cell_angle_gamma	96.800951
loop_
_atom_site_label
_atom_site_type_symbol
_atom_site_fract_x
_atom_site_fract_y
_atom_site_fract_z
O1	O	2.004902	0.178452	-0.147482
O2	O	1.579267	0.193090	-0.147484
O3	O	1.756808	0.008730	-0.147476
O4	O	1.827361	0.362812	-0.147489
O5	O	1.756791	0.008730	0.147489
O6	O	1.579250	0.193089	0.147481
O7	O	2.004884	0.178452	0.147483
Cu8	Cu	1.792065	0.185770	0.174415
Cu9	Cu	1.792086	0.185771	-0.174415
O10	O	1.827343	0.362811	0.147476
C11	C	1.523921	0.191683	-0.000002
C12	C	1.359029	0.187476	-0.000002
C13	C	1.743784	-0.036624	0.000004
C14	C	1.704984	-0.171765	-0.000003
C15	C	1.812117	-0.244393	-0.000005
C16	C	1.772018	-0.384068	-0.000011
C17	C	2.060230	0.179859	-0.000003
C18	C	2.225122	0.184065	-0.000014
C19	C	1.840368	0.408165	-0.000008
C20	C	1.879168	0.543306	-0.000013
N21	N	1.792061	0.185769	0.419763
N22	N	1.792088	0.185769	0.580236
H23	H	1.650603	-0.425288	-0.000024
H24	H	1.933525	-0.203167	0.000007
C25	C	2.043190	-0.401022	0.000004
H26	H	2.048628	-0.314449	0.000023
H27	H	2.091082	-0.427124	-0.102851
H28	H	2.091045	-0.427135	0.102884
H29	H	1.583576	-0.212990	-0.000015
