data_functionalizedCrystal
_audit_creation_method	'MofGen! by Chris Wilmer'
_symmetry_space_group_name_H-M	'P1'
_symmetry_Int_Tables_number	1
_symmetry_cell_setting	triclinic
loop_
_symmetry_equiv_pos_as_xyz
  x,y,z
_cell_length_a	19.121241
_cell_length_b	21.295417
_cell_length_c	19.120904
_cell_angle_alpha	87.590581
_cell_angle_beta	90.124528
_cell_angle_gamma	92.463828
loop_
_atom_site_label
_atom_site_type_symbol
_atom_site_fract_x
_atom_site_fract_y
_atom_site_fract_z
Zn1	Zn	1.054849	-0.227282	0.442178
Zn2	Zn	1.388182	0.106051	0.775512
Zn3	Zn	1.721515	0.439385	1.108845
Zn4	Zn	1.059760	-0.327881	0.324935
Zn5	Zn	1.393093	0.005453	0.658268
Zn6	Zn	1.726426	0.338786	0.991601
Zn7	Zn	0.942615	-0.226908	0.319948
Zn8	Zn	1.275949	0.106425	0.653281
Zn9	Zn	1.609282	0.439758	0.986615
Zn10	Zn	0.937568	-0.336799	0.437121
Zn11	Zn	1.270901	-0.003465	0.770454
Zn12	Zn	1.604234	0.329868	1.103787
O13	O	0.998698	-0.279717	0.381045
O14	O	1.332031	0.053616	0.714379
O15	O	1.665364	0.386949	1.047712
O16	O	1.153608	-0.237051	0.430829
O17	O	1.486941	0.096283	0.764163
O18	O	1.820275	0.429616	1.097496
O19	O	1.048388	-0.310598	0.226169
O20	O	1.381721	0.022735	0.559502
O21	O	1.715054	0.356069	0.892836
O22	O	0.957560	-0.138867	0.336192
O23	O	1.290894	0.194466	0.669525
O24	O	1.624227	0.527799	1.002859
O25	O	1.157216	-0.310960	0.344691
O26	O	1.490549	0.022373	0.678024
O27	O	1.823883	0.355707	1.011357
O28	O	1.040018	-0.139142	0.425994
O29	O	1.373351	0.194191	0.759327
O30	O	1.706684	0.527525	1.092661
O31	O	0.962322	-0.236414	0.222505
O32	O	1.295656	0.096919	0.555839
O33	O	1.628989	0.430253	0.889172
O34	O	0.843838	-0.245061	0.331288
O35	O	1.177171	0.088272	0.664621
O36	O	1.510504	0.421605	0.997954
O37	O	0.948957	-0.326160	0.535896
O38	O	1.282291	0.007174	0.869229
O39	O	1.615624	0.340507	1.202562
O40	O	0.840129	-0.325797	0.417374
O41	O	1.173463	0.007536	0.750707
O42	O	1.506796	0.340869	1.084041
O43	O	1.035123	-0.245698	0.539612
O44	O	1.368457	0.087635	0.872945
O45	O	1.701790	0.420969	1.206278
O46	O	1.043493	-0.417154	0.339786
O47	O	1.376827	-0.083821	0.673120
O48	O	1.710160	0.249513	1.006453
O49	O	0.953719	-0.423706	0.422209
O50	O	1.287053	-0.090373	0.755542
O51	O	1.620386	0.242961	1.088876
C52	C	0.816545	-0.286357	0.373241
C53	C	1.149879	0.046976	0.706575
C54	C	1.483212	0.380310	1.039908
C55	C	0.738619	-0.289213	0.369919
C56	C	1.071952	0.044120	0.703253
C57	C	1.405286	0.377453	1.036586
C58	C	0.700128	-0.252141	0.413275
C59	C	1.033461	0.081192	0.746608
C60	C	1.366795	0.414526	1.079941
C61	C	0.626908	-0.254822	0.410147
C62	C	0.960242	0.078512	0.743481
C63	C	1.293575	0.411845	1.076814
C64	C	0.592180	-0.294578	0.363667
C65	C	0.925514	0.038755	0.697001
C66	C	1.258847	0.372089	1.030334
C67	C	0.630677	-0.331652	0.320307
C68	C	0.964010	0.001682	0.653641
C69	C	1.297343	0.335015	0.986974
C70	C	0.703895	-0.328967	0.323432
C71	C	1.037228	0.004366	0.656765
C72	C	1.370562	0.337699	0.990098
C73	C	0.371202	-0.304601	0.351983
C74	C	0.704535	0.028732	0.685317
C75	C	1.037868	0.362065	1.018650
C76	C	0.297978	-0.307284	0.348864
C77	C	0.631311	0.026049	0.682197
C78	C	0.964645	0.359382	1.015530
C79	C	0.294215	-0.230453	0.438703
C80	C	0.627548	0.102880	0.772037
C81	C	0.960881	0.436214	1.105370
C82	C	0.367435	-0.227775	0.441827
C83	C	0.700768	0.105558	0.775160
C84	C	1.034101	0.438892	1.108493
C85	C	0.405925	-0.264846	0.398464
C86	C	0.739258	0.068487	0.731797
C87	C	1.072591	0.401820	1.065130
C88	C	0.517338	-0.297320	0.360471
C89	C	0.850671	0.036013	0.693804
C90	C	1.184005	0.369346	1.027138
C91	C	0.480766	-0.262100	0.401657
C92	C	0.814099	0.071233	0.734990
C93	C	1.147432	0.404567	1.068324
C94	C	0.998610	-0.443271	0.381006
C95	C	1.331943	-0.109938	0.714339
C96	C	1.665277	0.223396	1.047673
C97	C	0.998635	-0.513238	0.381015
C98	C	1.331969	-0.179905	0.714349
C99	C	1.665302	0.153428	1.047682
C100	C	1.041544	-0.546193	0.427806
C101	C	1.374877	-0.212860	0.761140
C102	C	1.708211	0.120474	1.094473
C103	C	1.041568	-0.611935	0.427825
C104	C	1.374901	-0.278602	0.761158
C105	C	1.708235	0.054731	1.094491
C106	C	0.998691	-0.644720	0.381040
C107	C	1.332025	-0.311386	0.714373
C108	C	1.665358	0.021947	1.047707
C109	C	0.955774	-0.611757	0.334246
C110	C	1.289108	-0.278424	0.667579
C111	C	1.622441	0.054909	1.000912
C112	C	0.955746	-0.546017	0.334233
C113	C	1.289080	-0.212683	0.667567
C114	C	1.622413	0.120650	1.000900
N115	N	0.996017	-0.745728	0.319460
N116	N	1.329350	-0.412395	0.652793
N117	N	1.662683	-0.079062	0.986127
N118	N	0.996047	-0.808179	0.319474
N119	N	1.329380	-0.474846	0.652807
N120	N	1.662714	-0.141513	0.986141
C121	C	0.998772	-0.842793	0.381075
C122	C	1.332105	-0.509459	0.714408
C123	C	1.665439	-0.176126	1.047742
N124	N	1.001479	-0.812595	0.442664
N125	N	1.334812	-0.479262	0.775997
N126	N	1.668145	-0.145929	1.109331
N127	N	1.001452	-0.750139	0.442649
N128	N	1.334785	-0.416805	0.775983
N129	N	1.668118	-0.083472	1.109316
C130	C	0.998717	-0.716004	0.381048
C131	C	1.332050	-0.382671	0.714382
C132	C	1.665383	-0.049338	1.047715
C133	C	1.041709	-0.947033	0.427890
C134	C	1.375042	-0.613699	0.761223
C135	C	1.708375	-0.280366	1.094556
C136	C	1.041728	-1.012776	0.427909
C137	C	1.375061	-0.679443	0.761242
C138	C	1.708394	-0.346110	1.094576
C139	C	0.955938	-1.012597	0.334324
C140	C	1.289271	-0.679263	0.667657
C141	C	1.622605	-0.345930	1.000991
C142	C	0.955915	-0.946855	0.334311
C143	C	1.289248	-0.613521	0.667644
C144	C	1.622582	-0.280188	1.000977
C145	C	0.998804	-0.914076	0.381093
C146	C	1.332137	-0.580743	0.714426
C147	C	1.665471	-0.247410	1.047759
C148	C	1.181561	-0.273052	0.388880
C149	C	1.514895	0.060281	0.722214
C150	C	1.848228	0.393614	1.055547
C151	C	1.259487	-0.270212	0.392219
C152	C	1.592820	0.063121	0.725553
C153	C	1.926154	0.396455	1.058886
C154	C	0.990930	-0.286965	0.563902
C155	C	1.324263	0.046368	0.897235
C156	C	1.657596	0.379701	1.230569
C157	C	0.987619	-0.290054	0.641825
C158	C	1.320953	0.043279	0.975158
C159	C	1.654286	0.376613	1.308491
C160	C	0.998804	-0.115525	0.381101
C161	C	1.332138	0.217808	0.714434
C162	C	1.665471	0.551142	1.047768
C163	C	0.998850	-0.045556	0.381125
C164	C	1.332183	0.287777	0.714458
C165	C	1.665516	0.621110	1.047791
C166	C	1.006476	-0.272451	0.198902
C167	C	1.339809	0.060883	0.532235
C168	C	1.673143	0.394216	0.865568
C169	C	1.009922	-0.269180	0.120985
C170	C	1.343256	0.064153	0.454319
C171	C	1.676589	0.397487	0.787652
C172	C	1.030924	-0.249615	0.680369
C173	C	1.364257	0.083718	1.013702
C174	C	1.697590	0.417052	1.347035
C175	C	1.027805	-0.252515	0.753585
C176	C	1.361138	0.080818	1.086918
C177	C	1.694471	0.414152	1.420252
C178	C	0.981384	-0.295857	0.788256
C179	C	1.314718	0.037476	1.121589
C180	C	1.648051	0.370809	1.454923
C181	C	0.938075	-0.336298	0.749707
C182	C	1.271409	-0.002965	1.083040
C183	C	1.604742	0.330368	1.416373
C184	C	0.941191	-0.333395	0.676492
C185	C	1.274524	-0.000061	1.009825
C186	C	1.607858	0.333272	1.343158
C187	C	0.969729	-0.306717	1.009221
C188	C	1.303062	0.026616	1.342554
C189	C	1.636396	0.359950	1.675888
C190	C	0.966618	-0.309619	1.082441
C191	C	1.299951	0.023714	1.415775
C192	C	1.633284	0.357048	1.749108
C193	C	1.056347	-0.225834	1.086315
C194	C	1.389680	0.107499	1.419648
C195	C	1.723013	0.440832	1.752981
C196	C	1.059461	-0.222937	1.013098
C197	C	1.392795	0.110396	1.346431
C198	C	1.726128	0.443729	1.679765
C199	C	1.016150	-0.263376	0.974555
C200	C	1.349483	0.069958	1.307888
C201	C	1.682816	0.403291	1.641222
C202	C	0.978197	-0.298824	0.863095
C203	C	1.311530	0.034509	1.196428
C204	C	1.644863	0.367843	1.529761
C205	C	1.019334	-0.260406	0.899718
C206	C	1.352668	0.072928	1.233051
C207	C	1.686001	0.406261	1.566384
H208	H	0.262869	-0.200271	0.474006
H209	H	0.596202	0.133062	0.807339
H210	H	0.929535	0.466396	1.140673
H211	H	0.269705	-0.339662	0.311014
H212	H	0.603038	-0.006328	0.644347
H213	H	0.936371	0.327005	0.977680
H214	H	1.076629	-0.920344	0.465985
H215	H	1.409963	-0.587010	0.799318
H216	H	1.743296	-0.253677	1.132652
H217	H	1.076669	-1.039607	0.466015
H218	H	1.410002	-0.706274	0.799348
H219	H	1.743335	-0.372940	1.132682
C220	C	0.953306	-0.397913	1.164336
C221	C	1.286639	-0.064579	1.497669
C222	C	1.619972	0.268754	1.831002
C223	C	0.915583	-0.357258	1.120557
C224	C	1.248917	-0.023924	1.453890
C225	C	1.582250	0.309409	1.787224
H226	H	0.921800	-0.427322	1.187864
H227	H	1.255133	-0.093988	1.521197
H228	H	1.588466	0.239345	1.854531
H229	H	0.978651	-0.374244	1.197761
H230	H	1.311985	-0.040911	1.531095
H231	H	1.645318	0.292423	1.864428
H232	H	0.985041	-0.419752	1.137068
H233	H	1.318374	-0.086419	1.470401
H234	H	1.651707	0.246915	1.803734
H235	H	0.883851	-0.335415	1.147826
H236	H	1.217185	-0.002081	1.481159
H237	H	1.550518	0.331252	1.814492
H238	H	0.890226	-0.380929	1.087127
H239	H	1.223559	-0.047596	1.420460
H240	H	1.556892	0.285738	1.753794
H241	H	0.920804	-0.519184	0.296130
H242	H	1.254138	-0.185851	0.629463
H243	H	1.587471	0.147482	0.962796
C244	C	0.880710	-0.389812	1.012757
C245	C	1.214043	-0.056478	1.346090
C246	C	1.547376	0.276855	1.679423
C247	C	0.922112	-0.351159	0.966861
C248	C	1.255446	-0.017826	1.300194
C249	C	1.588779	0.315507	1.633527
H250	H	0.851312	-0.417248	0.986601
H251	H	1.184645	-0.083915	1.319935
H252	H	1.517978	0.249418	1.653268
H253	H	0.852711	-0.364490	1.040179
H254	H	1.186044	-0.031156	1.373513
H255	H	1.519378	0.302177	1.706846
H256	H	0.910031	-0.413919	1.042609
H257	H	1.243364	-0.080585	1.375942
H258	H	1.576697	0.252748	1.709275
H259	H	0.892792	-0.327049	0.937012
H260	H	1.226125	0.006285	1.270345
H261	H	1.559458	0.339618	1.603679
H262	H	0.950114	-0.376484	0.939426
H263	H	1.283447	-0.043151	1.272759
H264	H	1.616780	0.290182	1.606093
H265	H	1.097264	-0.187645	0.984874
H266	H	1.430597	0.145688	1.318207
H267	H	1.763930	0.479022	1.651541
H268	H	0.489054	-0.329690	0.322627
H269	H	0.822388	0.003643	0.655960
H270	H	1.155721	0.336977	0.989294
C271	C	1.047174	-0.475609	0.522520
C272	C	1.380507	-0.142276	0.855853
C273	C	1.713841	0.191057	1.189186
C274	C	1.088681	-0.510165	0.479235
C275	C	1.422014	-0.176831	0.812568
C276	C	1.755347	0.156502	1.145902
H277	H	1.076275	-0.453364	0.554267
H278	H	1.409608	-0.120031	0.887600
H279	H	1.742942	0.213302	1.220934
H280	H	1.015486	-0.503450	0.548003
H281	H	1.348819	-0.170116	0.881336
H282	H	1.682152	0.163217	1.214669
H283	H	1.021620	-0.446571	0.494643
H284	H	1.354954	-0.113238	0.827976
H285	H	1.688287	0.220095	1.161309
H286	H	1.114231	-0.539206	0.507112
H287	H	1.447564	-0.205873	0.840445
H288	H	1.780897	0.127461	1.173778
H289	H	1.120381	-0.482322	0.453750
H290	H	1.453715	-0.148988	0.787083
H291	H	1.787048	0.184345	1.120417
C292	C	0.367556	-0.380817	0.262872
C293	C	0.700890	-0.047484	0.596205
C294	C	1.034223	0.285850	0.929539
C295	C	0.413503	-0.345353	0.304323
C296	C	0.746837	-0.012020	0.637656
C297	C	1.080170	0.321314	0.970990
H298	H	0.393675	-0.405979	0.233451
H299	H	0.727008	-0.072645	0.566784
H300	H	1.060342	0.260688	0.900117
H301	H	0.340142	-0.353338	0.234898
H302	H	0.673475	-0.020005	0.568231
H303	H	1.006808	0.313328	0.901565
H304	H	0.337699	-0.407193	0.292159
H305	H	0.671032	-0.073860	0.625492
H306	H	1.004365	0.259474	0.958825
H307	H	0.443358	-0.318973	0.275036
H308	H	0.776691	0.014360	0.608370
H309	H	1.110024	0.347693	0.941703
H310	H	0.440930	-0.372835	0.332300
H311	H	0.774263	-0.039502	0.665633
H312	H	1.107597	0.293832	0.998967
H313	H	1.076503	-0.638773	0.465935
H314	H	1.409836	-0.305439	0.799269
H315	H	1.743170	0.027894	1.132602
H316	H	0.920862	-0.638455	0.296155
H317	H	1.254196	-0.305121	0.629488
H318	H	1.587529	0.028212	0.962821
C319	C	0.917781	-0.846000	0.292742
C320	C	1.251114	-0.512667	0.626075
C321	C	1.584448	-0.179333	0.959408
C322	C	0.908753	-0.910625	0.282872
C323	C	1.242086	-0.577292	0.616205
C324	C	1.575420	-0.243959	0.949538
H325	H	0.888659	-0.823636	0.260987
H326	H	1.221992	-0.490302	0.594321
H327	H	1.555325	-0.156969	0.927654
H328	H	0.965319	-0.833070	0.284534
H329	H	1.298652	-0.499737	0.617867
H330	H	1.631985	-0.166404	0.951201
H331	H	0.905476	-0.837467	0.339396
H332	H	1.238810	-0.504133	0.672729
H333	H	1.572143	-0.170800	1.006063
H334	H	0.921063	-0.919160	0.236219
H335	H	1.254396	-0.585826	0.569552
H336	H	1.587729	-0.252493	0.902885
H337	H	0.861205	-0.923560	0.291074
H338	H	1.194538	-0.590226	0.624407
H339	H	1.527871	-0.256893	0.957741
C340	C	0.917883	-1.113289	0.292794
C341	C	1.251217	-0.779956	0.626127
C342	C	1.584550	-0.446623	0.959460
C343	C	0.908801	-1.048626	0.282901
C344	C	1.242135	-0.715293	0.616234
C345	C	1.575468	-0.381959	0.949567
H346	H	0.888782	-1.135533	0.261045
H347	H	1.222115	-0.802200	0.594379
H348	H	1.555449	-0.468866	0.927712
H349	H	0.905591	-1.126289	0.339446
H350	H	1.238924	-0.792956	0.672779
H351	H	1.572258	-0.459622	1.006113
H352	H	0.965436	-1.121900	0.284587
H353	H	1.298770	-0.788566	0.617921
H354	H	1.632103	-0.455233	0.951254
H355	H	0.861249	-1.040015	0.291112
H356	H	1.194582	-0.706682	0.624446
H357	H	1.527916	-0.373348	0.957779
H358	H	0.921089	-1.035622	0.236237
H359	H	1.254423	-0.702288	0.569571
H360	H	1.587756	-0.368955	0.902904
H361	H	1.068726	-0.214323	0.652145
H362	H	1.402060	0.119011	0.985478
H363	H	1.735393	0.452344	1.318812
C364	C	1.091408	-0.193077	1.200267
C365	C	1.424742	0.140257	1.533601
C366	C	1.758075	0.473590	1.866934
C367	C	1.103946	-0.181380	1.128682
C368	C	1.437279	0.151953	1.462016
C369	C	1.770612	0.485287	1.795349
H370	H	1.120792	-0.165626	1.226421
H371	H	1.454125	0.167707	1.559755
H372	H	1.787458	0.501040	1.893088
H373	H	1.101136	-0.235468	1.212689
H374	H	1.434469	0.097866	1.546023
H375	H	1.767803	0.431199	1.879356
H376	H	1.043796	-0.186057	1.210240
H377	H	1.377129	0.147276	1.543573
H378	H	1.710463	0.480609	1.876906
H379	H	1.151557	-0.188404	1.118709
H380	H	1.484890	0.144930	1.452042
H381	H	1.818224	0.478263	1.785376
H382	H	1.094223	-0.138979	1.116255
H383	H	1.427557	0.194354	1.449589
H384	H	1.760890	0.527688	1.782922
C385	C	0.520110	-0.369886	0.275631
C386	C	0.853443	-0.036552	0.608965
C387	C	1.186776	0.296781	0.942298
C388	C	0.592505	-0.375354	0.269216
C389	C	0.925838	-0.042021	0.602549
C390	C	1.259172	0.291313	0.935883
H391	H	0.496547	-0.396871	0.244093
H392	H	0.829880	-0.063537	0.577426
H393	H	1.163214	0.269796	0.910759
H394	H	0.508561	-0.327618	0.264945
H395	H	0.841894	0.005716	0.598278
H396	H	1.175227	0.339049	0.931611
H397	H	0.506123	-0.381471	0.322207
H398	H	0.839457	-0.048138	0.655541
H399	H	1.172790	0.285196	0.988874
H400	H	0.606492	-0.363764	0.222641
H401	H	0.939826	-0.030431	0.555975
H402	H	1.273159	0.302902	0.889308
H403	H	0.604059	-0.417631	0.279898
H404	H	0.937393	-0.084298	0.613231
H405	H	1.270726	0.249035	0.946565
H406	H	0.940404	-0.334117	0.891332
H407	H	1.273738	-0.000783	1.224666
H408	H	1.607071	0.332550	1.557999
H409	H	1.063070	-0.219587	0.784964
H410	H	1.396403	0.113747	1.118298
H411	H	1.729736	0.447080	1.451631
H412	H	0.900276	-0.371586	0.777942
H413	H	1.233610	-0.038253	1.111275
H414	H	1.566943	0.295080	1.444608
H415	H	0.395705	-0.195404	0.479678
H416	H	0.729038	0.137930	0.813011
H417	H	1.062372	0.471263	1.146345
C418	C	0.852205	-0.416520	0.680013
C419	C	1.185539	-0.083186	1.013347
C420	C	1.518872	0.250147	1.346680
C421	C	0.893602	-0.377857	0.634122
C422	C	1.226935	-0.044524	0.967455
C423	C	1.560268	0.288810	1.300789
H424	H	0.822830	-0.443973	0.653855
H425	H	1.156163	-0.110639	0.987189
H426	H	1.489496	0.222694	1.320522
H427	H	0.824184	-0.391206	0.707422
H428	H	1.157517	-0.057872	1.040756
H429	H	1.490850	0.275461	1.374089
H430	H	0.881531	-0.440609	0.709879
H431	H	1.214864	-0.107276	1.043212
H432	H	1.548197	0.226057	1.376545
H433	H	0.864276	-0.353764	0.604260
H434	H	1.197610	-0.020431	0.937593
H435	H	1.530943	0.312903	1.270927
H436	H	0.921626	-0.403174	0.606701
H437	H	1.254959	-0.069841	0.940034
H438	H	1.588292	0.263493	1.273368
H439	H	1.057127	-0.225114	0.871485
H440	H	1.390460	0.108219	1.204818
H441	H	1.723793	0.441553	1.538152
H442	H	0.728398	-0.219769	0.451126
H443	H	1.061731	0.113565	0.784459
H444	H	1.395065	0.446898	1.117792
H445	H	0.595572	-0.224635	0.445453
H446	H	0.928905	0.108699	0.778787
H447	H	1.262239	0.442032	1.112120
H448	H	0.735234	-0.359155	0.288126
H449	H	1.068567	-0.025822	0.621460
H450	H	1.401900	0.307512	0.954793
H451	H	0.509045	-0.229728	0.439498
H452	H	0.842378	0.103605	0.772831
H453	H	1.175711	0.436939	1.106164
