data_functionalizedCrystal
_audit_creation_method	'MofGen! by Chris Wilmer'
_symmetry_space_group_name_H-M	'P1'
_symmetry_Int_Tables_number	1
_symmetry_cell_setting	triclinic
loop_
_symmetry_equiv_pos_as_xyz
  x,y,z
_cell_length_a	10.654550
_cell_length_b	17.038272
_cell_length_c	9.130313
_cell_angle_alpha	89.995195
_cell_angle_beta	89.999724
_cell_angle_gamma	87.798243
loop_
_atom_site_label
_atom_site_type_symbol
_atom_site_fract_x
_atom_site_fract_y
_atom_site_fract_z
O1	O	1.678042	0.109878	-0.121691
O2	O	1.313536	0.120346	-0.121718
O3	O	1.493623	0.001285	-0.121693
O4	O	1.497955	0.228940	-0.121716
O5	O	1.493609	0.001281	0.121906
O6	O	1.313522	0.120343	0.121881
O7	O	1.678029	0.109875	0.121908
Cu8	Cu	1.495774	0.115108	0.144137
Cu9	Cu	1.495790	0.115113	-0.143947
O10	O	1.497942	0.228936	0.121883
C11	C	1.266660	0.119576	0.000078
C12	C	1.127003	0.117276	0.000068
C13	C	1.489675	-0.027867	0.000106
C14	C	1.477918	-0.114726	0.000104
C15	C	1.054026	0.187378	0.000065
C16	C	0.922805	0.185213	0.000091
C17	C	0.937548	0.042838	0.000116
C18	C	1.068767	0.045004	0.000101
C19	C	1.585862	-0.164237	0.000114
C20	C	1.574808	-0.245849	0.000099
C21	C	1.455808	-0.277949	0.000085
C22	C	1.347855	-0.228431	0.000072
C23	C	1.358911	-0.146820	0.000076
C24	C	1.416750	-0.523925	0.000063
C25	C	1.405702	-0.605542	0.000063
C26	C	1.632655	-0.622955	0.000088
C27	C	1.643701	-0.541341	0.000101
C28	C	1.535748	-0.491831	0.000079
C29	C	1.444505	-0.361369	0.000075
C30	C	1.547052	-0.408412	0.000079
C31	C	1.724905	0.110645	0.000108
C32	C	1.864561	0.112945	0.000109
C33	C	1.501889	0.258088	0.000081
C34	C	1.513646	0.344947	0.000072
N35	N	1.495772	0.115105	0.346759
N36	N	1.495802	0.115110	-0.346570
C37	C	1.575545	0.062407	0.423422
C38	C	1.575557	0.062407	0.576759
C39	C	1.416019	0.167810	0.576757
C40	C	1.416002	0.167806	0.423423
H41	H	0.863392	0.242297	0.000091
H42	H	1.643941	-0.382273	0.000058
N43	N	1.334493	0.221639	0.345126
N44	N	1.263282	0.268691	0.413588
H45	H	1.205715	0.306707	0.358292
H46	H	0.890116	-0.016004	0.000152
N47	N	1.765260	-0.508559	0.000135
N48	N	1.839994	-0.523512	0.102828
H49	H	1.925848	-0.500360	0.102859
H50	H	1.101438	0.246227	0.000049
N51	N	1.742919	-0.673528	0.000067
N52	N	1.820133	-0.670237	-0.102617
H53	H	1.898012	-0.705955	-0.102639
N54	N	1.284130	-0.638319	0.000076
N55	N	1.187755	-0.594106	0.000074
H56	H	1.101898	-0.617254	0.000095
N57	N	1.143301	-0.026615	0.000119
N58	N	1.091293	-0.091137	0.000141
H59	H	1.143932	-0.141717	0.000160
N60	N	1.657046	0.008568	0.655045
N61	N	1.728252	-0.038482	0.586572
H62	H	1.785806	-0.076510	0.641859
N63	N	1.707419	-0.131451	0.000161
N64	N	1.782152	-0.146403	0.102855
H65	H	1.868005	-0.123250	0.102889
H66	H	1.662708	-0.286159	0.000110
H67	H	1.640497	0.019494	0.361007
H68	H	1.351074	0.210719	0.639191
N69	N	1.306470	-0.473370	0.000051
N70	N	1.200231	-0.502043	0.000050
H71	H	1.122339	-0.466336	0.000047
N72	N	1.322940	-0.394143	0.000071
N73	N	1.248188	-0.379192	-0.102605
H74	H	1.162329	-0.402338	-0.102608
H75	H	1.250963	-0.254573	0.000051
N76	N	1.248651	-0.096241	0.000035
N77	N	1.171453	-0.099521	-0.102666
H78	H	1.093579	-0.063799	-0.102706
