data_functionalizedCrystal
_audit_creation_method	'MofGen! by Chris Wilmer'
_symmetry_space_group_name_H-M	'P1'
_symmetry_Int_Tables_number	1
_symmetry_cell_setting	triclinic
loop_
_symmetry_equiv_pos_as_xyz
  x,y,z
_cell_length_a	11.792241
_cell_length_b	22.010155
_cell_length_c	11.792241
_cell_angle_alpha	89.995861
_cell_angle_beta	95.806584
_cell_angle_gamma	89.996333
loop_
_atom_site_label
_atom_site_type_symbol
_atom_site_fract_x
_atom_site_fract_y
_atom_site_fract_z
O1	O	-1.506917	0.050457	0.155552
O2	O	-1.006917	0.550457	0.655552
O3	O	-1.176576	0.050473	0.171585
O4	O	-0.676576	0.550473	0.671585
O5	O	-1.349763	0.050461	-0.001602
O6	O	-0.849763	0.550461	0.498398
O7	O	-1.333730	0.050470	0.328739
O8	O	-0.833730	0.550470	0.828739
O9	O	-1.349731	-0.050590	-0.001576
O10	O	-0.849731	0.449410	0.498424
O11	O	-1.176544	-0.050577	0.171611
O12	O	-0.676544	0.449423	0.671611
O13	O	-1.506885	-0.050593	0.155578
O14	O	-1.006885	0.449407	0.655578
Cu15	Cu	-1.341712	-0.059812	0.163597
Cu16	Cu	-0.841712	0.440188	0.663597
Cu17	Cu	-1.341749	0.059692	0.163566
Cu18	Cu	-0.841749	0.559692	0.663566
O19	O	-1.333698	-0.050580	0.328765
O20	O	-0.833698	0.449420	0.828765
C21	C	-1.134269	-0.000050	0.170591
C22	C	-0.634269	0.499950	0.670591
C23	C	-1.008255	-0.000044	0.167576
C24	C	-0.508255	0.499956	0.667576
C25	C	-0.777543	-0.000060	0.162034
C26	C	-0.277543	0.499940	0.662034
C27	C	-0.905928	-0.000051	0.165113
C28	C	-0.405928	0.499949	0.665113
N29	N	-1.341694	-0.143864	0.163618
N30	N	-0.841694	0.356136	0.663618
C31	C	-1.418441	-0.563649	0.086890
C32	C	-0.918441	-0.063649	0.586890
C33	C	-1.418446	-0.627257	0.086882
C34	C	-0.918446	-0.127257	0.586882
O35	O	-1.483654	-0.660153	0.021660
O36	O	-0.983654	-0.160153	0.521660
N37	N	-1.341748	-0.659071	0.163542
N38	N	-0.841748	-0.159071	0.663542
C39	C	-1.265033	-0.627275	0.240208
C40	C	-0.765033	-0.127275	0.740208
O41	O	-1.199795	-0.660176	0.305412
O42	O	-0.699795	-0.160176	0.805412
C43	C	-1.265023	-0.563668	0.240209
C44	C	-0.765023	-0.063668	0.740209
C45	C	-1.341733	-0.531857	0.163552
C46	C	-0.841733	-0.031857	0.663552
C47	C	-1.495145	-0.531838	0.010238
C48	C	-0.995145	-0.031838	0.510238
C49	C	-1.495140	-0.468235	0.010247
C50	C	-0.995140	0.031765	0.510247
C51	C	-1.418433	-0.436443	0.086909
C52	C	-0.918433	0.063557	0.586909
C53	C	-1.341729	-0.468254	0.163561
C54	C	-0.841729	0.031746	0.663561
C55	C	-1.188303	-0.531873	0.316868
C56	C	-0.688303	-0.031873	0.816868
C57	C	-1.188299	-0.468262	0.316862
C58	C	-0.688299	0.031738	0.816862
C59	C	-1.265009	-0.436451	0.240205
C60	C	-0.765009	0.063549	0.740205
C61	C	-1.265018	-0.372859	0.240232
C62	C	-0.765018	0.127141	0.740232
N63	N	-1.341716	-0.341044	0.163572
N64	N	-0.841716	0.158956	0.663572
C65	C	-1.418423	-0.372836	0.086910
C66	C	-0.918423	0.127164	0.586910
C67	C	-1.265058	-0.760853	0.240198
C68	C	-0.765058	-0.260853	0.740198
C69	C	-1.265072	-0.824458	0.240203
C70	C	-0.765072	-0.324458	0.740203
C71	C	-1.418485	-0.824435	0.086875
C72	C	-0.918485	-0.324435	0.586875
C73	C	-1.418475	-0.760829	0.086877
C74	C	-0.918475	-0.260829	0.586877
C75	C	-1.341756	-0.729038	0.163537
C76	C	-0.841756	-0.229038	0.663537
C77	C	-1.418409	-0.239265	0.086937
C78	C	-0.918409	0.260735	0.586937
C79	C	-1.418402	-0.175656	0.086956
C80	C	-0.918402	0.324344	0.586956
C81	C	-1.264986	-0.175684	0.240279
C82	C	-0.764986	0.324316	0.740279
C83	C	-1.264997	-0.239287	0.240264
C84	C	-0.764997	0.260713	0.740264
C85	C	-1.341713	-0.271076	0.163583
C86	C	-0.841713	0.228924	0.663583
O87	O	-1.199840	-0.339922	0.305418
O88	O	-0.699840	0.160078	0.805418
O89	O	-1.483640	-0.339927	0.021707
O90	O	-0.983640	0.160073	0.521707
C91	C	-0.549192	-0.000067	0.156572
C92	C	-0.049192	0.499933	0.656572
C93	C	-0.675206	-0.000065	0.159587
C94	C	-0.175206	0.499935	0.659587
C95	C	-1.348740	-0.000064	-0.043880
C96	C	-0.848740	0.499936	0.456120
C97	C	-1.345726	-0.000063	-0.169894
C98	C	-0.845726	0.499937	0.330106
N99	N	-1.341776	0.143745	0.163536
N100	N	-0.841776	0.643745	0.663536
C101	C	-1.340183	-0.000053	-0.400606
C102	C	-0.840183	0.499947	0.099394
C103	C	-1.343262	-0.000059	-0.272221
C104	C	-0.843262	0.499941	0.227779
C105	C	-1.334721	-0.000054	0.371043
C106	C	-0.834721	0.499946	0.871043
C107	C	-1.337736	-0.000051	0.497057
C108	C	-0.837736	0.499949	0.997057
H109	H	-1.480873	-0.149757	0.024532
H110	H	-0.980873	0.350243	0.524532
H111	H	-1.125837	-0.557765	0.379288
H112	H	-0.625837	-0.057765	0.879288
H113	H	-1.557609	-0.557717	-0.052194
H114	H	-1.057609	-0.057717	0.447806
Br115	Br	-1.160936	-0.717714	0.344254
Br116	Br	-0.660936	-0.217714	0.844254
H117	H	-1.125821	-0.442381	0.379287
H118	H	-0.625821	0.057619	0.879287
Br119	Br	-1.160902	-0.282458	0.344317
Br120	Br	-0.660902	0.217542	0.844317
H121	H	-1.202619	-0.850354	0.302636
H122	H	-0.702619	-0.350354	0.802636
Br123	Br	-1.522585	-0.717664	-0.017162
Br124	Br	-1.022585	-0.217664	0.482838
H125	H	-1.480877	-0.265140	0.024495
H126	H	-0.980877	0.234860	0.524495
Br127	Br	-1.522588	-0.867595	-0.017166
Br128	Br	-1.022588	-0.367595	0.482834
Br129	Br	-1.599245	-0.425069	-0.093797
Br130	Br	-1.099245	0.074931	0.406203
Br131	Br	-1.160889	-0.132528	0.344319
Br132	Br	-0.660889	0.367472	0.844319
