data_functionalizedCrystal
_audit_creation_method	'MofGen! by Chris Wilmer'
_symmetry_space_group_name_H-M	'P1'
_symmetry_Int_Tables_number	1
_symmetry_cell_setting	triclinic
loop_
_symmetry_equiv_pos_as_xyz
  x,y,z
_cell_length_a	14.044220
_cell_length_b	16.992694
_cell_length_c	16.053802
_cell_angle_alpha	92.750953
_cell_angle_beta	92.799619
_cell_angle_gamma	88.071450
loop_
_atom_site_label
_atom_site_type_symbol
_atom_site_fract_x
_atom_site_fract_y
_atom_site_fract_z
O1	O	0.198305	-1.057564	-0.069327
O2	O	0.698305	-0.557564	0.430673
O3	O	0.196087	-0.829125	-0.069352
O4	O	0.696087	-0.329125	0.430648
O5	O	0.058952	-0.939916	-0.069331
O6	O	0.558952	-0.439916	0.430669
O7	O	0.335440	-0.946774	-0.069347
O8	O	0.835440	-0.446774	0.430653
O9	O	0.066468	-0.933815	0.069526
O10	O	0.566468	-0.433815	0.569526
O11	O	0.203602	-0.823025	0.069506
O12	O	0.703602	-0.323025	0.569506
O13	O	0.205821	-1.051464	0.069531
O14	O	0.705821	-0.551464	0.569531
Zn15	Zn	0.205905	-0.936276	0.091565
Zn16	Zn	0.705905	-0.436276	0.591565
Zn17	Zn	0.196003	-0.944313	-0.091386
Zn18	Zn	0.696003	-0.444313	0.408614
O19	O	0.342955	-0.940673	0.069511
O20	O	0.842955	-0.440673	0.569511
C21	C	0.196993	-0.796663	0.000074
C22	C	0.696993	-0.296663	0.500074
C23	C	0.188484	-0.709024	0.000065
C24	C	0.688484	-0.209024	0.500065
C25	C	0.027168	-0.933863	0.000098
C26	C	0.527168	-0.433863	0.500098
C27	C	-0.078736	-0.924909	0.000098
C28	C	0.421264	-0.424909	0.500098
C29	C	0.204915	-1.083926	0.000103
C30	C	0.704915	-0.583926	0.500103
C31	C	0.213424	-1.171565	0.000107
C32	C	0.713424	-0.671565	0.500107
C33	C	-0.272638	-0.908540	0.000084
C34	C	0.227362	-0.408540	0.500084
C35	C	-0.325460	-0.972046	0.000088
C36	C	0.174540	-0.472046	0.500088
C37	C	-0.433354	-0.962938	0.000080
C38	C	0.066646	-0.462938	0.500080
C39	C	-0.164734	-0.917647	0.000091
C40	C	0.335266	-0.417647	0.500091
C41	C	0.374740	-0.946726	0.000080
C42	C	0.874740	-0.446726	0.500080
C43	C	0.480643	-0.955680	0.000074
C44	C	0.980643	-0.455680	0.500074
N45	N	0.212662	-0.930796	0.216425
N46	N	0.712662	-0.430796	0.716425
C47	C	0.270580	-0.664526	0.000061
C48	C	0.770580	-0.164526	0.500061
C49	C	0.262581	-0.582179	0.000073
C50	C	0.762581	-0.082179	0.500073
C51	C	0.172483	-0.544333	0.000083
C52	C	0.672483	-0.044333	0.500083
C53	C	0.090381	-0.588837	0.000090
C54	C	0.590381	-0.088837	0.500090
C55	C	0.098382	-0.671182	0.000084
C56	C	0.598382	-0.171182	0.500084
C57	C	0.139322	-0.298414	0.000107
C58	C	0.639322	0.201586	0.500107
C59	C	0.131327	-0.216063	0.000111
C60	C	0.631327	0.283937	0.500111
C61	C	0.303528	-0.209412	0.000096
C62	C	0.803528	0.290588	0.500096
C63	C	0.311521	-0.291759	0.000085
C64	C	0.811521	0.208241	0.500085
C65	C	0.229419	-0.336255	0.000096
C66	C	0.729419	0.163745	0.500096
N67	N	0.164304	-0.460161	0.000093
N68	N	0.664304	0.039839	0.500093
N69	N	0.237599	-0.420425	0.000092
N70	N	0.737599	0.079575	0.500092
N71	N	0.189239	-0.949799	-0.216245
N72	N	0.689239	-0.449799	0.283755
C73	C	0.154335	-0.977958	0.260127
C74	C	0.654335	-0.477958	0.760127
C75	C	0.159071	-0.974132	0.347533
C76	C	0.659071	-0.474132	0.847533
C77	C	0.222140	-0.923149	0.391235
C78	C	0.722140	-0.423149	0.891235
C79	C	0.280470	-0.875982	0.347526
C80	C	0.780470	-0.375982	0.847526
C81	C	0.275728	-0.879804	0.260122
C82	C	0.775728	-0.379804	0.760122
C83	C	0.242827	-0.906453	0.652642
C84	C	0.742827	-0.406453	1.152642
C85	C	0.247566	-0.902637	0.740052
C86	C	0.747566	-0.402637	1.240052
C87	C	0.126165	-1.000787	0.740053
C88	C	0.626165	-0.500787	1.240053
C89	C	0.121433	-1.004608	0.652647
C90	C	0.621433	-0.504608	1.152647
C91	C	0.179759	-0.957438	0.608946
C92	C	0.679759	-0.457438	1.108946
N93	N	0.226985	-0.919240	0.480578
N94	N	0.726985	-0.419240	0.980578
N95	N	0.174909	-0.961343	0.519604
N96	N	0.674909	-0.461343	1.019604
H97	H	-0.289655	-1.033258	0.000039
H98	H	0.210345	-0.533258	0.500039
N99	N	0.039284	-0.177412	0.000135
N100	N	0.539284	0.322588	0.500135
N101	N	-0.014297	-0.186269	0.058676
N102	N	0.485703	0.313731	0.558676
H103	H	-0.079300	-0.158971	0.058693
H104	H	0.420700	0.341029	0.558693
H105	H	-0.308444	-0.847335	0.000075
H106	H	0.191556	-0.347335	0.500075
N107	N	0.403548	-0.330427	0.000094
N108	N	0.903548	0.169573	0.500094
N109	N	0.410679	-0.403949	0.000094
N110	N	0.910679	0.096051	0.500094
H111	H	0.475674	-0.431260	0.000102
H112	H	0.975674	0.068740	0.500102
N113	N	0.311992	-0.850546	0.784681
N114	N	0.811992	-0.350546	1.284681
N115	N	0.364059	-0.808430	0.745654
N116	N	0.864059	-0.308430	1.245654
H117	H	0.409556	-0.771640	0.777173
H118	H	0.909556	-0.271640	1.277173
H119	H	0.343947	-0.695334	0.000052
H120	H	0.843947	-0.195334	0.500052
N121	N	0.335298	-0.831631	0.215465
N122	N	0.835298	-0.331631	0.715465
N123	N	0.298672	-0.782721	0.166704
N124	N	0.798672	-0.282721	0.666704
H125	H	0.340741	-0.748695	0.135165
H126	H	0.840741	-0.248695	0.635165
H127	H	0.329433	-0.545952	0.000069
H128	H	0.829433	-0.045952	0.500069
N129	N	0.387379	-0.163947	0.000084
N130	N	0.887379	0.336053	0.500084
N131	N	0.380228	-0.090426	0.000088
N132	N	0.880228	0.409574	0.500088
H133	H	0.439451	-0.058316	0.000082
H134	H	0.939451	0.441684	0.500082
N135	N	0.055468	-0.343872	0.000105
N136	N	0.555468	0.156128	0.500105
N137	N	0.062616	-0.417393	0.000102
N138	N	0.562616	0.082607	0.500102
H139	H	0.003391	-0.449502	0.000100
H140	H	0.503391	0.050498	0.500100
H141	H	0.031530	-0.707411	0.000086
H142	H	0.531530	-0.207411	0.500086
H143	H	0.290320	-0.868047	0.617067
H144	H	0.790320	-0.368047	1.117067
H145	H	0.017022	-0.558015	0.000110
H146	H	0.517022	-0.058015	0.500110
H147	H	0.070077	-1.046122	0.617066
H148	H	0.570077	-0.546122	1.117066
N149	N	0.344878	-0.823890	0.392166
N150	N	0.844878	-0.323890	0.892166
N151	N	0.313543	-0.770716	0.440950
N152	N	0.813543	-0.270716	0.940950
H153	H	0.359032	-0.733925	0.472476
H154	H	0.859032	-0.233925	0.972476
N155	N	0.089850	-1.029996	0.215504
N156	N	0.589850	-0.529996	0.715504
N157	N	0.037736	-1.072065	0.254538
N158	N	0.537736	-0.572065	0.754538
H159	H	-0.007833	-1.108798	0.223026
H160	H	0.492167	-0.608798	0.723026
N161	N	0.099480	-1.022309	0.392161
N162	N	0.599480	-0.522309	0.892161
N163	N	0.043175	-1.067829	0.353132
N164	N	0.543175	-0.567829	0.853132
H165	H	0.001084	-1.101856	0.384649
H166	H	0.501084	-0.601856	0.884649
H167	H	0.078678	-1.039190	0.775642
H168	H	0.578678	-0.539190	1.275642
