data_functionalizedCrystal
_audit_creation_method	'MofGen! by Chris Wilmer'
_symmetry_space_group_name_H-M	'P1'
_symmetry_Int_Tables_number	1
_symmetry_cell_setting	triclinic
loop_
_symmetry_equiv_pos_as_xyz
  x,y,z
_cell_length_a	16.120490
_cell_length_b	16.120256
_cell_length_c	16.120484
_cell_angle_alpha	84.383827
_cell_angle_beta	89.835900
_cell_angle_gamma	90.129807
loop_
_atom_site_label
_atom_site_type_symbol
_atom_site_fract_x
_atom_site_fract_y
_atom_site_fract_z
Zn1	Zn	1.224989	-0.554790	0.422348
Zn2	Zn	1.474989	-0.304790	0.672348
Zn3	Zn	1.724989	-0.054790	0.922348
Zn4	Zn	1.974989	0.195210	1.172348
Zn5	Zn	1.224885	-0.422094	0.555028
Zn6	Zn	1.474885	-0.172094	0.805028
Zn7	Zn	1.724885	0.077906	1.055028
Zn8	Zn	1.974885	0.327906	1.305028
Zn9	Zn	1.093728	-0.408035	0.408252
Zn10	Zn	1.343728	-0.158035	0.658252
Zn11	Zn	1.593728	0.091965	0.908252
Zn12	Zn	1.843728	0.341965	1.158252
Zn13	Zn	1.078881	-0.554030	0.554256
Zn14	Zn	1.328881	-0.304030	0.804256
Zn15	Zn	1.578881	-0.054030	1.054256
Zn16	Zn	1.828881	0.195970	1.304256
O17	O	1.155621	-0.484737	0.484971
O18	O	1.405621	-0.234737	0.734971
O19	O	1.655621	0.015263	0.984971
O20	O	1.905621	0.265263	1.234971
O21	O	1.341011	-0.543389	0.446170
O22	O	1.591011	-0.293389	0.696170
O23	O	1.841011	-0.043389	0.946170
O24	O	2.091011	0.206611	1.196170
O25	O	1.213656	-0.303596	0.529981
O26	O	1.463656	-0.053596	0.779981
O27	O	1.713656	0.196404	1.029981
O28	O	1.963656	0.446404	1.279981
O29	O	1.117397	-0.421936	0.293491
O30	O	1.367397	-0.171936	0.543491
O31	O	1.617397	0.078064	0.793491
O32	O	1.867397	0.328064	1.043491
O33	O	1.340935	-0.445898	0.543649
O34	O	1.590935	-0.195898	0.793649
O35	O	1.840935	0.054102	1.043649
O36	O	2.090935	0.304102	1.293649
O37	O	1.213834	-0.529756	0.303847
O38	O	1.463834	-0.279756	0.553847
O39	O	1.713834	-0.029756	0.803847
O40	O	1.963834	0.220244	1.053847
O41	O	1.117296	-0.293266	0.422146
O42	O	1.367296	-0.043266	0.672146
O43	O	1.617296	0.206734	0.922146
O44	O	1.867296	0.456734	1.172146
O45	O	0.975723	-0.421199	0.421398
O46	O	1.225723	-0.171199	0.671398
O47	O	1.475723	0.078801	0.921398
O48	O	1.725723	0.328801	1.171398
O49	O	1.092093	-0.670765	0.542335
O50	O	1.342093	-0.420765	0.792335
O51	O	1.592093	-0.170765	1.042335
O52	O	1.842093	0.079235	1.292335
O53	O	0.964815	-0.528462	0.528666
O54	O	1.214815	-0.278462	0.778666
O55	O	1.464815	-0.028462	1.028666
O56	O	1.714815	0.221538	1.278666
O57	O	1.199438	-0.671323	0.445422
O58	O	1.449438	-0.421323	0.695422
O59	O	1.699438	-0.171323	0.945422
O60	O	1.949438	0.078677	1.195422
O61	O	1.199260	-0.445162	0.671556
O62	O	1.449260	-0.195162	0.921556
O63	O	1.699260	0.054838	1.171556
O64	O	1.949260	0.304838	1.421556
O65	O	1.091992	-0.542095	0.670989
O66	O	1.341992	-0.292095	0.920989
O67	O	1.591992	-0.042095	1.170989
O68	O	1.841992	0.207905	1.420989
C69	C	0.940182	-0.473223	0.473419
C70	C	1.190182	-0.223223	0.723419
C71	C	1.440182	0.026777	0.973419
C72	C	1.690182	0.276777	1.223419
C73	C	0.848014	-0.468318	0.468499
C74	C	1.098014	-0.218318	0.718499
C75	C	1.348014	0.031682	0.968499
C76	C	1.598014	0.281682	1.218499
C77	C	0.632819	-0.510182	0.510489
C78	C	0.882819	-0.260182	0.760489
C79	C	1.132819	-0.010182	1.010489
C80	C	1.382819	0.239818	1.260489
C81	C	0.679266	-0.459362	0.459522
C82	C	0.929266	-0.209362	0.709522
C83	C	1.179266	0.040638	0.959522
C84	C	1.429266	0.290638	1.209522
C85	C	0.773166	-0.464347	0.464518
C86	C	1.023166	-0.214347	0.714518
C87	C	1.273166	0.035653	0.964518
C88	C	1.523166	0.285653	1.214518
C89	C	0.538911	-0.505198	0.505494
C90	C	0.788911	-0.255198	0.755494
C91	C	1.038911	-0.005198	1.005494
C92	C	1.288911	0.244802	1.255494
C93	C	1.144121	-0.702131	0.495365
C94	C	1.394121	-0.452131	0.745365
C95	C	1.644121	-0.202131	0.995365
C96	C	1.894121	0.047869	1.245365
C97	C	1.139220	-0.794771	0.499794
C98	C	1.389220	-0.544771	0.749794
C99	C	1.639220	-0.294771	0.999794
C100	C	1.889220	-0.044771	1.249794
C101	C	1.181177	-1.005935	0.461852
C102	C	1.431177	-0.755935	0.711852
C103	C	1.681177	-0.505935	0.961852
C104	C	1.931177	-0.255935	1.211852
C105	C	1.130247	-0.964378	0.507844
C106	C	1.380247	-0.714378	0.757844
C107	C	1.630247	-0.464378	1.007844
C108	C	1.880247	-0.214378	1.257844
C109	C	1.135241	-0.870000	0.503364
C110	C	1.385241	-0.620000	0.753364
C111	C	1.635241	-0.370000	1.003364
C112	C	1.885241	-0.120000	1.253364
C113	C	1.176183	-1.100321	0.466331
C114	C	1.426183	-0.850321	0.716331
C115	C	1.676183	-0.600321	0.966331
C116	C	1.926183	-0.350321	1.216331
C117	C	1.371901	-0.496297	0.496568
C118	C	1.621901	-0.246297	0.746568
C119	C	1.871901	0.003703	0.996568
C120	C	2.121901	0.253703	1.246568
C121	C	1.464067	-0.501223	0.501510
C122	C	1.714067	-0.251223	0.751510
C123	C	1.964067	-0.001223	1.001510
C124	C	2.214067	0.248777	1.251510
C125	C	1.144025	-0.495091	0.701515
C126	C	1.394025	-0.245091	0.951515
C127	C	1.644025	0.004909	1.201515
C128	C	1.894025	0.254909	1.451515
C129	C	1.139139	-0.499552	0.794160
C130	C	1.389139	-0.249552	1.044160
C131	C	1.639139	0.000448	1.294160
C132	C	1.889139	0.250448	1.544160
C133	C	1.167127	-0.268189	0.474560
C134	C	1.417127	-0.018189	0.724560
C135	C	1.667127	0.231811	0.974560
C136	C	1.917127	0.481811	1.224560
C137	C	1.172201	-0.175546	0.469905
C138	C	1.422201	0.074454	0.719905
C139	C	1.672201	0.324454	0.969905
C140	C	1.922201	0.574454	1.219905
C141	C	1.167283	-0.474362	0.267583
C142	C	1.417283	-0.224362	0.517583
C143	C	1.667283	0.025638	0.767583
C144	C	1.917283	0.275638	1.017583
C145	C	1.172253	-0.469941	0.174945
C146	C	1.422253	-0.219941	0.424945
C147	C	1.672253	0.030059	0.674945
C148	C	1.922253	0.280059	0.924945
C149	C	1.130221	-0.507715	0.963782
C150	C	1.380221	-0.257715	1.213782
C151	C	1.630221	-0.007715	1.463782
C152	C	1.880221	0.242285	1.713782
C153	C	1.181168	-0.461781	1.005327
C154	C	1.431168	-0.211781	1.255327
C155	C	1.681168	0.038219	1.505327
C156	C	1.931168	0.288219	1.755327
C157	C	1.176206	-0.466323	1.099711
C158	C	1.426206	-0.216323	1.349711
C159	C	1.676206	0.033677	1.599711
C160	C	1.926206	0.283677	1.849711
C161	C	1.135182	-0.503174	0.869390
C162	C	1.385182	-0.253174	1.119390
C163	C	1.635182	-0.003174	1.369390
C164	C	1.885182	0.246826	1.619390
H165	H	0.663573	-0.557429	0.557873
H166	H	0.913573	-0.307429	0.807873
H167	H	1.163573	-0.057429	1.057873
H168	H	1.413573	0.192571	1.307873
H169	H	1.082882	-0.550447	0.999097
H170	H	1.332882	-0.300447	1.249097
H171	H	1.582882	-0.050447	1.499097
H172	H	1.832882	0.199553	1.749097
H173	H	0.648510	-0.412110	0.412135
H174	H	0.898510	-0.162110	0.662135
H175	H	1.148510	0.087890	0.912135
H176	H	1.398510	0.337890	1.162135
H177	H	1.228526	-0.970635	0.419115
H178	H	1.478526	-0.720635	0.669115
H179	H	1.728526	-0.470635	0.919115
H180	H	1.978526	-0.220635	1.169115
H181	H	1.082889	-0.999679	0.550580
H182	H	1.332889	-0.749679	0.800580
H183	H	1.582889	-0.499679	1.050580
H184	H	1.832889	-0.249679	1.300580
H185	H	1.228510	-0.419045	0.970010
H186	H	1.478510	-0.169045	1.220010
H187	H	1.728510	0.080955	1.470010
H188	H	1.978510	0.330955	1.720010
