data_functionalizedCrystal
_audit_creation_method	'MofGen! by Chris Wilmer'
_symmetry_space_group_name_H-M	'P1'
_symmetry_Int_Tables_number	1
_symmetry_cell_setting	triclinic
loop_
_symmetry_equiv_pos_as_xyz
  x,y,z
_cell_length_a	14.853567
_cell_length_b	15.538191
_cell_length_c	13.930277
_cell_angle_alpha	89.997597
_cell_angle_beta	89.995755
_cell_angle_gamma	65.453512
loop_
_atom_site_label
_atom_site_type_symbol
_atom_site_fract_x
_atom_site_fract_y
_atom_site_fract_z
O1	O	1.155993	0.122934	-0.079757
O2	O	1.655993	0.622934	0.420243
O3	O	0.888724	0.137579	-0.079773
O4	O	1.388724	0.637579	0.420227
O5	O	1.074384	-0.006805	-0.079767
O6	O	1.574384	0.493195	0.420233
O7	O	0.970332	0.267318	-0.079764
O8	O	1.470332	0.767318	0.420236
O9	O	1.074366	-0.006808	0.079895
O10	O	1.574366	0.493192	0.579895
O11	O	0.888705	0.137575	0.079889
O12	O	1.388705	0.637575	0.579889
O13	O	1.155975	0.122931	0.079905
O14	O	1.655975	0.622931	0.579905
Zn15	Zn	1.022337	0.130253	0.105247
Zn16	Zn	1.522337	0.630253	0.605247
Zn17	Zn	1.022361	0.130257	-0.105115
Zn18	Zn	1.522361	0.630257	0.394885
O19	O	0.970314	0.267315	0.079898
O20	O	1.470314	0.767315	0.579898
C21	C	0.855344	0.136913	0.000056
C22	C	1.355344	0.636913	0.500056
C23	C	0.755913	0.134925	0.000050
C24	C	1.255913	0.634925	0.500050
C25	C	0.374309	0.040753	0.000070
C26	C	0.874309	0.540753	0.500070
C27	C	0.296691	0.212284	0.000071
C28	C	0.796691	0.712284	0.500071
C29	C	0.390111	0.214153	0.000068
C30	C	0.890111	0.714153	0.500068
C31	C	0.475634	0.129321	0.000065
C32	C	0.975634	0.629321	0.500065
C33	C	0.467738	0.042620	0.000064
C34	C	0.967738	0.542620	0.500064
C35	C	0.398015	0.300853	0.000059
C36	C	0.898015	0.800853	0.500059
C37	C	0.491439	0.302726	0.000055
C38	C	0.991439	0.802726	0.500055
C39	C	0.576964	0.217893	0.000058
C40	C	1.076964	0.717893	0.500058
C41	C	0.569064	0.131188	0.000059
C42	C	1.069064	0.631188	0.500059
C43	C	0.654587	0.046356	0.000055
C44	C	1.154587	0.546356	0.500055
C45	C	0.646689	-0.040350	0.000063
C46	C	1.146689	0.459650	0.500063
C47	C	0.553264	-0.042213	0.000068
C48	C	1.053264	0.457787	0.500068
C49	C	0.670390	0.219757	0.000053
C50	C	1.170390	0.719757	0.500053
C51	C	0.748017	0.048223	0.000049
C52	C	1.248017	0.548223	0.500049
C53	C	1.085262	-0.041888	0.000062
C54	C	1.585262	0.458112	0.500062
C55	C	1.117689	-0.146419	0.000054
C56	C	1.617689	0.353581	0.500054
C57	C	0.795529	-0.434631	0.000056
C58	C	1.295529	0.065369	0.500056
C59	C	0.826023	-0.532857	0.000060
C60	C	1.326023	-0.032857	0.500060
C61	C	0.997541	-0.555076	0.000069
C62	C	1.497541	-0.055076	0.500069
C63	C	0.967062	-0.456850	0.000061
C64	C	1.467062	0.043150	0.500061
C65	C	0.866055	-0.396635	0.000055
C66	C	1.366055	0.103365	0.500055
C67	C	1.037588	-0.418853	0.000060
C68	C	1.537588	0.081147	0.500060
C69	C	1.007111	-0.320636	0.000056
C70	C	1.507111	0.179364	0.500056
C71	C	0.906108	-0.260415	0.000054
C72	C	1.406108	0.239585	0.500054
C73	C	0.835578	-0.298417	0.000052
C74	C	1.335578	0.201583	0.500052
C75	C	1.138594	-0.479070	0.000073
C76	C	1.638594	0.020930	0.500073
C77	C	1.209120	-0.441073	0.000072
C78	C	1.709120	0.058927	0.500072
C79	C	1.178644	-0.342854	0.000061
C80	C	1.678644	0.157146	0.500061
C81	C	1.077641	-0.282633	0.000059
C82	C	1.577641	0.217367	0.500059
C83	C	1.249174	-0.304852	0.000063
C84	C	1.749174	0.195148	0.500063
C85	C	1.218697	-0.206634	0.000060
C86	C	1.718697	0.293366	0.500060
C87	C	1.047164	-0.184416	0.000055
C88	C	1.547164	0.315584	0.500055
C89	C	1.189354	0.123596	0.000074
C90	C	1.689354	0.623596	0.500074
C91	C	1.288785	0.125584	0.000074
C92	C	1.788785	0.625584	0.500074
C93	C	0.959436	0.302397	0.000068
C94	C	1.459436	0.802397	0.500068
C95	C	0.927009	0.406929	0.000069
C96	C	1.427009	0.906929	0.500069
N97	N	1.022327	0.130249	0.248813
N98	N	1.522327	0.630249	0.748813
N99	N	1.022380	0.130253	-0.248681
N100	N	1.522380	0.630253	0.251319
C101	C	0.940156	0.194165	0.701079
C102	C	1.440156	0.694165	1.201079
C103	C	1.104593	0.066342	0.701054
C104	C	1.604593	0.566342	1.201054
C105	C	1.104583	0.066339	0.600558
C106	C	1.604583	0.566339	1.100558
C107	C	1.022359	0.130251	0.550318
C108	C	1.522359	0.630251	1.050318
C109	C	0.940145	0.194166	0.600574
C110	C	1.440145	0.694166	1.100574
C111	C	1.186800	0.002431	0.550295
C112	C	1.686800	0.502431	1.050295
C113	C	1.186794	0.002426	0.449793
C114	C	1.686794	0.502426	0.949793
C115	C	1.104566	0.066335	0.399551
C116	C	1.604566	0.566335	0.899551
C117	C	1.022348	0.130251	0.449813
C118	C	1.522348	0.630251	0.949813
C119	C	0.940124	0.194163	0.399573
C120	C	1.440124	0.694163	0.899573
C121	C	0.857903	0.258077	0.449833
C122	C	1.357903	0.758077	0.949833
C123	C	0.857917	0.258074	0.550332
C124	C	1.357917	0.758074	1.050332
C125	C	1.104551	0.066337	0.299053
C126	C	1.604551	0.566337	0.799053
C127	C	0.940113	0.194164	0.299068
C128	C	1.440113	0.694164	0.799068
H129	H	0.227054	0.281350	0.000066
H130	H	0.727054	0.781350	0.500066
H131	H	0.546823	-0.112805	0.000097
H132	H	1.046823	0.387195	0.500097
Br133	Br	1.216134	-0.020387	0.230848
Br134	Br	1.716134	0.479613	0.730848
Br135	Br	1.386249	-0.386582	0.000095
Br136	Br	1.886249	0.113418	0.500095
H137	H	0.790958	0.310118	0.408916
H138	H	1.290958	0.810118	0.908916
H139	H	0.790976	0.310110	0.591260
H140	H	1.290976	0.810110	1.091260
H141	H	0.873211	0.246200	0.742003
H142	H	1.373211	0.746200	1.242003
Br143	Br	0.762766	-0.155474	0.000047
Br144	Br	1.262766	0.344526	0.500047
H145	H	1.171540	0.014311	0.741963
H146	H	1.671540	0.514311	1.241963
H147	H	1.253742	-0.049616	0.408878
H148	H	1.753742	0.450384	0.908878
Br149	Br	0.864080	-0.066912	0.000056
Br150	Br	1.364080	0.433088	0.500056
Br151	Br	0.281948	0.415975	0.000043
Br152	Br	0.781948	0.915975	0.500043
Br153	Br	0.363592	-0.076915	0.000089
Br154	Br	0.863592	0.423085	0.500089
Br155	Br	0.502151	0.420396	0.000045
Br156	Br	1.002151	0.920396	0.500045
Br157	Br	0.698495	-0.216688	0.000030
Br158	Br	1.198495	0.283312	0.500030
Br159	Br	0.681110	0.337419	0.000032
Br160	Br	1.181110	0.837419	0.500032
Br161	Br	1.298392	-0.084295	0.618474
Br162	Br	1.798392	0.415705	1.118474
Br163	Br	1.346197	-0.522801	0.000091
Br164	Br	1.846197	-0.022801	0.500091
Br165	Br	0.658446	-0.352902	0.000034
Br166	Br	1.158446	0.147098	0.500034
Br167	Br	1.134618	-0.636803	0.000089
Br168	Br	1.634618	-0.136803	0.500089
Br169	Br	1.314410	-0.155061	0.000082
Br170	Br	1.814410	0.344939	0.500082
Br171	Br	0.730298	-0.584421	0.000071
Br172	Br	1.230298	-0.084421	0.500071
H173	H	0.873154	0.246206	0.258169
H174	H	1.373154	0.746206	0.758169
H175	H	0.881296	-0.180440	0.000056
H176	H	1.381296	0.319560	0.500056
H177	H	1.163405	-0.559044	0.000067
H178	H	1.663405	-0.059044	0.500067
H179	H	0.964914	-0.135385	0.000043
H180	H	1.464914	0.364615	0.500043
