data_functionalizedCrystal
_audit_creation_method	'MofGen! by Chris Wilmer'
_symmetry_space_group_name_H-M	'P1'
_symmetry_Int_Tables_number	1
_symmetry_cell_setting	triclinic
loop_
_symmetry_equiv_pos_as_xyz
  x,y,z
_cell_length_a	15.537862
_cell_length_b	10.489716
_cell_length_c	14.750779
_cell_angle_alpha	77.231476
_cell_angle_beta	97.573514
_cell_angle_gamma	65.896785
loop_
_atom_site_label
_atom_site_type_symbol
_atom_site_fract_x
_atom_site_fract_y
_atom_site_fract_z
O1	O	1.227009	-0.376106	-0.079793
O2	O	0.953721	-0.229253	-0.079799
O3	O	1.096594	-0.491240	-0.079799
O4	O	1.084135	-0.114118	-0.079793
O5	O	1.136983	-0.565295	0.079851
O6	O	0.994109	-0.303307	0.079851
O7	O	1.267397	-0.450161	0.079857
Zn8	Zn	1.137166	-0.388492	0.105202
Zn9	Zn	1.083952	-0.290921	-0.105144
O10	O	1.124524	-0.188173	0.079857
C11	C	0.938921	-0.250915	0.000025
C12	C	0.834648	-0.205146	0.000022
C13	C	0.677266	-0.019630	0.000022
C14	C	0.775247	-0.062650	0.000024
C15	C	0.796086	-0.304679	0.000024
C16	C	0.698107	-0.261681	0.000027
C17	C	0.638703	-0.119154	0.000024
C18	C	0.659544	-0.361205	0.000029
C19	C	0.561572	-0.318208	0.000027
C20	C	0.502162	-0.175686	0.000022
C21	C	0.540731	-0.076156	0.000022
C22	C	0.718947	-0.503729	0.000025
C23	C	0.680385	-0.603253	0.000027
C24	C	0.582412	-0.560259	0.000032
C25	C	0.523002	-0.417737	0.000027
C26	C	0.543843	-0.659788	0.000032
C27	C	0.445871	-0.616791	0.000029
C28	C	0.425030	-0.374739	0.000024
C29	C	1.115852	-0.575353	0.000023
C30	C	1.113048	-0.715648	0.000014
C31	C	1.200666	-0.854991	0.000025
C32	C	1.134455	-0.873823	-0.078690
C33	C	1.174254	-0.946790	0.078713
C34	C	1.046857	-0.732602	-0.078766
C35	C	1.086688	-0.805602	0.078708
C36	C	1.020408	-0.824346	-0.000026
C37	C	1.282197	-0.428498	0.000031
C38	C	1.386467	-0.474264	0.000027
C39	C	1.105266	-0.104059	0.000033
C40	C	1.108067	0.036239	0.000036
N41	N	1.173490	-0.455085	0.248758
N42	N	1.047636	-0.224342	-0.248700
C43	C	0.946188	-0.038413	0.600576
C44	C	0.971648	-0.085072	0.701075
C45	C	1.098189	-0.317011	0.701038
C46	C	1.072736	-0.270374	0.600537
C47	C	0.996736	-0.131073	0.550314
C48	C	1.123284	-0.363034	0.550274
C49	C	1.097837	-0.316397	0.449782
C50	C	1.021841	-0.177101	0.399552
C51	C	0.971288	-0.084437	0.449821
C52	C	1.199289	-0.502330	0.600499
C53	C	1.249837	-0.594990	0.550236
C54	C	1.224385	-0.548358	0.449742
C55	C	1.148390	-0.409061	0.399512
C56	C	1.274938	-0.641022	0.399473
C57	C	1.249490	-0.594386	0.298980
C58	C	1.122942	-0.362425	0.299020
H59	H	0.376663	-0.258686	0.000036
Br60	Br	0.903040	0.040707	0.769282
H61	H	0.422386	-0.140678	0.000016
H62	H	0.844464	-0.420724	0.000022
H63	H	0.592221	-0.775829	0.000024
Br64	Br	0.893276	-0.804592	-0.000093
H65	H	1.154605	-0.904038	-0.145237
H66	H	0.993038	-0.640818	-0.145386
H67	H	0.492364	0.039897	0.000033
H68	H	0.909394	0.028990	0.408928
H69	H	0.414473	-0.697833	0.000030
Br70	Br	1.019782	-0.173381	0.230855
Br71	Br	0.851909	-0.562080	0.000018
Br72	Br	0.827577	0.072437	0.000016
Br73	Br	0.843028	0.150631	0.532411
Br74	Br	1.053178	-0.755204	0.189630
Br75	Br	0.761010	-0.796675	0.000029
Br76	Br	1.201335	-0.506053	0.769203
H77	H	1.220009	-0.540293	0.682326
H78	H	1.228093	-1.038726	0.145258
H79	H	1.311721	-0.708408	0.591139
Br80	Br	1.327653	-0.874202	-0.000099
H81	H	1.001125	-0.139129	0.317725
Br82	Br	1.378092	-0.830056	0.467641
H83	H	1.290653	-0.669839	0.258056
H84	H	0.628899	0.096424	0.000033
