data_functionalizedCrystal
_audit_creation_method	'MofGen! by Chris Wilmer'
_symmetry_space_group_name_H-M	'P1'
_symmetry_Int_Tables_number	1
_symmetry_cell_setting	triclinic
loop_
_symmetry_equiv_pos_as_xyz
  x,y,z
_cell_length_a	10.654543
_cell_length_b	8.140239
_cell_length_c	10.654550
_cell_angle_alpha	90.003375
_cell_angle_beta	95.516448
_cell_angle_gamma	90.001936
loop_
_atom_site_label
_atom_site_type_symbol
_atom_site_fract_x
_atom_site_fract_y
_atom_site_fract_z
O1	O	-1.667843	0.136436	0.176357
O2	O	-1.167843	0.636436	0.676357
O3	O	-1.302364	0.136478	0.193172
O4	O	-0.802364	0.636478	0.693172
O5	O	-1.493506	0.136446	0.002025
O6	O	-0.993506	0.636446	0.502025
O7	O	-1.476700	0.136469	0.367504
O8	O	-0.976700	0.636469	0.867504
O9	O	-1.493496	-0.136781	0.002023
O10	O	-0.993496	0.363219	0.502023
O11	O	-1.302353	-0.136749	0.193169
O12	O	-0.802353	0.363251	0.693169
O13	O	-1.667832	-0.136791	0.176355
O14	O	-1.167832	0.363209	0.676355
Zn15	Zn	-1.485091	-0.180150	0.184762
Zn16	Zn	-0.985091	0.319850	0.684762
Zn17	Zn	-1.485105	0.179838	0.184765
Zn18	Zn	-0.985105	0.679838	0.684765
O19	O	-1.476690	-0.136759	0.367501
O20	O	-0.976690	0.363241	0.867501
C21	C	-1.255560	-0.000130	0.191938
C22	C	-0.755560	0.499870	0.691938
C23	C	-1.116116	-0.000114	0.188249
C24	C	-0.616116	0.499886	0.688249
C25	C	-1.036631	-0.000110	0.300793
C26	C	-0.536631	0.499890	0.800793
C27	C	-0.905609	-0.000134	0.297319
C28	C	-0.405609	0.499866	0.797319
C29	C	-0.933573	-0.000161	0.068749
C30	C	-0.433573	0.499839	0.568749
C31	C	-1.064591	-0.000148	0.072224
C32	C	-0.564591	0.499852	0.572224
N33	N	-1.485091	-0.425833	0.184759
N34	N	-0.985091	0.074167	0.684759
C35	C	-0.714635	-0.000171	0.177595
C36	C	-0.214635	0.499829	0.677595
C37	C	-0.854077	-0.000152	0.181301
C38	C	-0.354077	0.499848	0.681301
C39	C	-1.492267	-0.000167	-0.044774
C40	C	-0.992267	0.499833	0.455226
C41	C	-1.488575	-0.000164	-0.184217
C42	C	-0.988575	0.499836	0.315783
N43	N	-1.485115	0.425521	0.184757
N44	N	-0.985115	0.925521	0.684757
C45	C	-1.601117	-0.000176	-0.263706
C46	C	-1.101117	0.499824	0.236294
C47	C	-1.597641	-0.000155	-0.394726
C48	C	-1.097641	0.499845	0.105274
C49	C	-1.369070	-0.000117	-0.366758
C50	C	-0.869070	0.499883	0.133242
C51	C	-1.372548	-0.000126	-0.235740
C52	C	-0.872548	0.499874	0.264260
C53	C	-1.477929	-0.000142	0.414300
C54	C	-0.977929	0.499858	0.914300
C55	C	-1.481621	-0.000134	0.553744
C56	C	-0.981621	0.499866	1.053744
H57	H	-1.129313	-0.000157	-0.019428
H58	H	-0.629313	0.499843	0.480572
H59	H	-1.274605	-0.000090	-0.408724
H60	H	-0.774605	0.499910	0.091276
H61	H	-0.840896	-0.000134	0.388964
H62	H	-0.340896	0.499866	0.888964
H63	H	-1.078578	-0.000094	0.395268
H64	H	-0.578578	0.499906	0.895268
H65	H	-0.891604	-0.000199	-0.025715
H66	H	-0.391604	0.499801	0.474285
H67	H	-1.689284	-0.000162	-0.459441
H68	H	-1.189284	0.499838	0.040559
H69	H	-1.695593	-0.000203	-0.221761
H70	H	-1.195593	0.499797	0.278239
H71	H	-1.280897	-0.000111	-0.171016
H72	H	-0.780897	0.499889	0.328984
