data_functionalizedCrystal
_audit_creation_method	'MofGen! by Chris Wilmer'
_symmetry_space_group_name_H-M	'P1'
_symmetry_Int_Tables_number	1
_symmetry_cell_setting	triclinic
loop_
_symmetry_equiv_pos_as_xyz
  x,y,z
_cell_length_a	16.992694
_cell_length_b	16.109301
_cell_length_c	15.186229
_cell_angle_alpha	90.005167
_cell_angle_beta	89.997727
_cell_angle_gamma	87.064852
loop_
_atom_site_label
_atom_site_type_symbol
_atom_site_fract_x
_atom_site_fract_y
_atom_site_fract_z
O1	O	-1.040345	-0.176288	-0.073123
O2	O	-0.540345	0.323712	0.426877
O3	O	-0.812060	-0.174354	-0.073149
O4	O	-0.312060	0.325646	0.426851
O5	O	-0.932474	-0.054708	-0.073126
O6	O	-0.432474	0.445292	0.426874
O7	O	-0.919931	-0.295934	-0.073146
O8	O	-0.419931	0.204066	0.426854
O9	O	-0.932466	-0.054706	0.073331
O10	O	-0.432466	0.445294	0.573331
O11	O	-0.812052	-0.174352	0.073308
O12	O	-0.312052	0.325648	0.573308
O13	O	-1.040337	-0.176286	0.073334
O14	O	-0.540337	0.323714	0.573334
Zn15	Zn	-0.926193	-0.175318	0.096574
Zn16	Zn	-0.426193	0.324682	0.596574
Zn17	Zn	-0.926204	-0.175321	-0.096389
Zn18	Zn	-0.426204	0.324679	0.403611
O19	O	-0.919923	-0.295931	0.073312
O20	O	-0.419923	0.204069	0.573312
C21	C	-0.782844	-0.171865	0.000076
C22	C	-0.282844	0.328135	0.500076
C23	C	-0.695802	-0.164441	0.000067
C24	C	-0.195802	0.335559	0.500067
C25	C	-0.931962	-0.023699	0.000103
C26	C	-0.431962	0.476301	0.500103
C27	C	-0.930439	0.068698	0.000104
C28	C	-0.430439	0.568698	0.500104
C29	C	-1.069553	-0.178775	0.000107
C30	C	-0.569553	0.321225	0.500107
C31	C	-1.156595	-0.186198	0.000111
C32	C	-0.656595	0.313802	0.500111
C33	C	-0.645543	-0.236067	0.000062
C34	C	-0.145543	0.263933	0.500062
C35	C	-0.563758	-0.229087	0.000074
C36	C	-0.063758	0.270913	0.500074
C37	C	-0.532234	-0.150481	0.000086
C38	C	-0.032234	0.349519	0.500086
C39	C	-0.582499	-0.078849	0.000094
C40	C	-0.082499	0.421151	0.500094
C41	C	-0.664282	-0.085830	0.000087
C42	C	-0.164282	0.414170	0.500087
C43	C	-0.288644	-0.121548	0.000112
C44	C	0.211356	0.378452	0.500112
C45	C	-0.206854	-0.114572	0.000116
C46	C	0.293146	0.385428	0.500116
C47	C	-0.188119	-0.264811	0.000098
C48	C	0.311881	0.235189	0.500098
C49	C	-0.269904	-0.271785	0.000086
C50	C	0.230096	0.228215	0.500086
C51	C	-0.320163	-0.200154	0.000099
C52	C	0.179837	0.299846	0.500099
N53	N	-0.448637	-0.143344	0.000096
N54	N	0.051363	0.356656	0.500096
N55	N	-0.403758	-0.207291	0.000095
N56	N	0.096242	0.292709	0.500095
C57	C	-0.920435	-0.326941	0.000081
C58	C	-0.420435	0.173059	0.500081
C59	C	-0.921959	-0.419338	0.000074
C60	C	-0.421959	0.080662	0.500074
N61	N	-0.926192	-0.175316	0.228267
N62	N	-0.426192	0.324684	0.728267
C63	C	-0.998348	0.286439	0.000097
C64	C	-0.498348	0.786439	0.500097
C65	C	-0.996911	0.373256	0.000090
C66	C	-0.496911	0.873256	0.500090
C67	C	-0.854044	0.362915	0.000077
C68	C	-0.354044	0.862915	0.500077
C69	C	-0.855482	0.276100	0.000078
C70	C	-0.355482	0.776100	0.500078
C71	C	-0.927636	0.237865	0.000093
C72	C	-0.427636	0.737865	0.500093
C73	C	-0.924761	0.411496	0.000084
C74	C	-0.424761	0.911496	0.500084
C75	C	-0.923202	0.505626	0.000076
C76	C	-0.423202	1.005626	0.500076
C77	C	-0.929196	0.143729	0.000099
C78	C	-0.429196	0.643729	0.500099
N79	N	-0.926212	-0.175317	-0.228082
N80	N	-0.426212	0.324683	0.271918
C81	C	-0.979529	-0.122357	0.454000
C82	C	-0.479529	0.377643	0.954000
C83	C	-0.979532	-0.122355	0.546190
C84	C	-0.479532	0.377645	1.046190
C85	C	-0.872869	-0.228279	0.546179
C86	C	-0.372869	0.271721	1.046179
C87	C	-0.872863	-0.228275	0.453991
C88	C	-0.372863	0.271725	0.953991
C89	C	-0.926198	-0.175316	0.407904
C90	C	-0.426198	0.324684	0.907904
C91	C	-0.926206	-0.175317	0.592281
C92	C	-0.426206	0.324683	1.092281
C93	C	-0.926208	-0.175316	0.692237
C94	C	-0.426208	0.324684	1.192237
C95	C	-0.926195	-0.175316	0.307941
C96	C	-0.426195	0.324684	0.807941
H97	H	-0.671204	-0.300077	0.000052
H98	H	-0.171204	0.199923	0.500052
H99	H	-1.022956	-0.079233	0.416478
H100	H	-0.522956	0.420767	0.916478
H101	H	-0.295565	-0.335795	0.000067
H102	H	0.204435	0.164205	0.500067
N103	N	-1.037065	-0.065247	0.595906
N104	N	-0.537065	0.434753	1.095906
H105	H	-1.028063	-0.005631	0.579869
H106	H	-0.528063	0.494369	1.079869
H107	H	-1.092677	-0.078638	0.579831
H108	H	-0.592677	0.421362	1.079831
H109	H	-0.829430	-0.271401	0.416457
H110	H	-0.329430	0.228599	0.916457
H111	H	-0.795298	0.394057	0.000067
H112	H	-0.295298	0.894057	0.500067
N113	N	-0.172842	-0.029789	0.000145
N114	N	0.327158	0.470211	0.500145
H115	H	-0.139324	-0.023541	-0.054143
H116	H	0.360676	0.476459	0.445857
H117	H	-0.217128	0.014484	0.000190
H118	H	0.282872	0.514484	0.500190
H119	H	-0.522840	-0.287413	0.000069
H120	H	-0.022840	0.212587	0.500069
N121	N	-0.133914	-0.342067	0.000086
N122	N	0.366086	0.157933	0.500086
H123	H	-0.077320	-0.325721	0.000093
H124	H	0.422680	0.174279	0.500093
H125	H	-0.144123	-0.376089	0.054376
H126	H	0.355877	0.123911	0.554376
H127	H	-0.705203	-0.027504	0.000091
H128	H	-0.205203	0.472496	0.500091
N129	N	-0.342844	-0.044292	0.000131
N130	N	0.157156	0.455708	0.500131
H131	H	-0.310461	0.006562	0.000138
H132	H	0.189539	0.506562	0.500138
H133	H	-0.377185	-0.043909	-0.054161
H134	H	0.122815	0.456091	0.445839
H135	H	-0.829446	-0.271398	0.583712
H136	H	-0.329446	0.228602	1.083712
N137	N	-0.548494	0.005931	0.000116
N138	N	-0.048494	0.505931	0.500116
H139	H	-0.514975	0.012178	-0.054172
H140	H	-0.014975	0.512178	0.445828
H141	H	-0.592785	0.050199	0.000156
H142	H	-0.092785	0.550199	0.500156
N143	N	-1.076167	0.245197	0.000112
N144	N	-0.576167	0.745197	0.500112
H145	H	-1.120744	0.289146	0.000112
H146	H	-0.620744	0.789146	0.500112
H147	H	-1.079877	0.209396	-0.054180
H148	H	-0.579877	0.709396	0.445820
N149	N	-1.073178	0.425648	0.000094
N150	N	-0.573178	0.925648	0.500094
H151	H	-1.119102	0.388249	0.000104
H152	H	-0.619102	0.888249	0.500104
H153	H	-1.075689	0.461899	0.054387
H154	H	-0.575689	0.961899	0.554387
N155	N	-0.779211	0.223701	0.000067
N156	N	-0.279211	0.723701	0.500067
H157	H	-0.733284	0.261095	0.000064
H158	H	-0.233284	0.761095	0.500064
H159	H	-0.776695	0.187459	0.054360
H160	H	-0.276695	0.687459	0.554360
