data_functionalizedCrystal
_audit_creation_method	'MofGen! by Chris Wilmer'
_symmetry_space_group_name_H-M	'P1'
_symmetry_Int_Tables_number	1
_symmetry_cell_setting	triclinic
loop_
_symmetry_equiv_pos_as_xyz
  x,y,z
_cell_length_a	15.944499
_cell_length_b	14.421503
_cell_length_c	12.811415
_cell_angle_alpha	95.426546
_cell_angle_beta	83.761523
_cell_angle_gamma	90.010221
loop_
_atom_site_label
_atom_site_type_symbol
_atom_site_fract_x
_atom_site_fract_y
_atom_site_fract_z
O1	O	1.115024	0.088526	0.135094
O2	O	1.615024	0.588526	0.635094
O3	O	0.870526	0.089923	0.151841
O4	O	1.370526	0.589923	0.651841
O5	O	0.998925	0.076372	-0.009324
O6	O	1.498925	0.576372	0.490676
O7	O	0.986625	0.102077	0.296259
O8	O	1.486625	0.602077	0.796259
O9	O	0.998903	-0.077849	-0.009300
O10	O	1.498903	0.422151	0.490700
O11	O	0.870505	-0.064298	0.151865
O12	O	1.370505	0.435702	0.651865
O13	O	1.115002	-0.065696	0.135118
O14	O	1.615002	0.434304	0.635118
Cu15	Cu	0.992751	-0.079078	0.143494
Cu16	Cu	1.492751	0.420922	0.643494
Cu17	Cu	0.992777	0.103306	0.143465
Cu18	Cu	1.492777	0.603306	0.643465
O19	O	0.986604	-0.052145	0.296283
O20	O	1.486604	0.447855	0.796283
C21	C	0.839218	0.012754	0.151167
C22	C	1.339218	0.512754	0.651167
C23	C	0.745963	0.012577	0.149111
C24	C	1.245963	0.512577	0.649111
N25	N	0.992740	-0.207358	0.143513
N26	N	1.492740	0.292642	0.643513
C27	C	0.454751	0.020467	0.242744
C28	C	0.954751	0.520467	0.742744
C29	C	0.515622	0.092413	0.194060
C30	C	1.015622	0.592413	0.694060
C31	C	0.410300	0.011970	0.141644
C32	C	0.910300	0.511970	0.641644
C33	C	0.515587	-0.059639	0.194056
C34	C	1.015587	0.440361	0.694056
C35	C	0.575222	0.012267	0.145318
C36	C	1.075222	0.512267	0.645318
C37	C	0.469944	0.083977	0.092932
C38	C	0.969944	0.583977	0.592932
C39	C	0.469902	-0.068142	0.092942
C40	C	0.969902	0.431858	0.592942
C41	C	0.530756	0.003817	0.044184
C42	C	1.030756	0.503817	0.544184
C43	C	0.315293	0.011800	0.139530
C44	C	0.815293	0.511800	0.639530
C45	C	0.670228	0.012443	0.147424
C46	C	1.170228	0.512443	0.647424
C47	C	0.933358	-0.450749	0.218002
C48	C	1.433358	0.049251	0.718002
C49	C	1.009330	-0.510835	0.238361
C50	C	1.509330	-0.010835	0.738361
C51	C	0.992760	-0.396522	0.143488
C52	C	1.492760	0.103478	0.643488
C53	C	0.916808	-0.520527	0.123153
C54	C	1.416808	-0.020527	0.623153
C55	C	0.992773	-0.579245	0.143466
C56	C	1.492773	-0.079245	0.643466
C57	C	1.068771	-0.455244	0.163894
C58	C	1.568771	0.044756	0.663894
C59	C	0.976199	-0.464933	0.048645
C60	C	1.476199	0.035067	0.548645
C61	C	1.052226	-0.524995	0.068964
C62	C	1.552226	-0.024995	0.568964
C63	C	0.992752	-0.291259	0.143503
C64	C	1.492752	0.208741	0.643503
C65	C	0.992790	-0.684505	0.143450
C66	C	1.492790	-0.184505	0.643450
C67	C	1.146310	0.011476	0.135792
C68	C	1.646310	0.511476	0.635792
C69	C	1.239565	0.011659	0.137848
C70	C	1.739565	0.511659	0.637848
C71	C	0.998224	-0.004026	-0.048415
C72	C	1.498224	0.495974	0.451585
C73	C	0.996159	-0.013821	-0.164931
C74	C	1.496159	0.486179	0.335069
N75	N	0.992795	0.231585	0.143438
N76	N	1.492795	0.731585	0.643438
C77	C	0.992286	0.135924	-0.383892
C78	C	1.492286	0.635924	0.116108
C79	C	0.990346	0.126725	-0.493370
C80	C	1.490346	0.626725	0.006630
C81	C	0.990331	-0.041418	-0.493364
C82	C	1.490331	0.458582	0.006636
C83	C	0.992272	-0.032218	-0.383887
C84	C	1.492272	0.467782	0.116113
C85	C	0.993250	0.056455	-0.329155
C86	C	1.493250	0.556455	0.170845
C87	C	0.995197	0.065653	-0.219677
C88	C	1.495197	0.565653	0.280323
C89	C	0.995177	-0.102488	-0.219673
C90	C	1.495177	0.397512	0.280327
C91	C	0.993236	-0.111687	-0.329150
C92	C	1.493236	0.388313	0.170850
C93	C	0.987304	0.028256	0.335374
C94	C	1.487304	0.528256	0.835374
C95	C	0.989369	0.038057	0.451890
C96	C	1.489369	0.538057	0.951890
H97	H	0.421711	0.027598	0.326646
H98	H	0.921711	0.527598	0.826646
C99	C	0.830034	-0.559187	0.099919
C100	C	1.330034	-0.059187	0.599919
H101	H	0.836490	-0.600683	0.037353
H102	H	1.336490	-0.100683	0.537353
H103	H	0.793561	-0.509185	0.090848
H104	H	1.293561	-0.009185	0.590848
H105	H	0.806523	-0.591560	0.157227
H106	H	1.306523	-0.091560	0.657227
H107	H	0.995996	0.137856	-0.175116
H108	H	1.495996	0.637856	0.324884
C109	C	1.120165	-0.568542	-0.016176
C110	C	1.620165	-0.068542	0.483824
H111	H	1.174067	-0.546018	-0.001562
H112	H	1.674067	-0.046018	0.498438
H113	H	1.108855	-0.552077	-0.083368
H114	H	1.608855	-0.052077	0.416632
H115	H	1.119498	-0.634406	-0.016102
H116	H	1.619498	-0.134406	0.483898
H117	H	0.535877	0.160293	0.236814
H118	H	1.035877	0.660293	0.736814
H119	H	0.993090	0.208125	-0.339330
H120	H	1.493090	0.708125	0.160670
C121	C	0.989300	0.214140	-0.553580
C122	C	1.489300	0.714140	-0.053580
H123	H	0.990170	0.268265	-0.505302
H124	H	1.490170	0.768265	-0.005302
H125	H	0.939623	0.214724	-0.588284
H126	H	1.439623	0.714724	-0.088284
H127	H	1.037479	0.213369	-0.604292
H128	H	1.537479	0.713369	-0.104292
H129	H	0.449826	0.144743	0.050200
H130	H	0.949826	0.644743	0.550200
H131	H	0.449629	-0.136025	0.050226
H132	H	0.949629	0.363975	0.550226
H133	H	0.995965	-0.167198	-0.175094
H134	H	1.495965	0.332802	0.324906
H135	H	0.563642	-0.003207	-0.039794
H136	H	1.063642	0.496793	0.460206
H137	H	0.962155	-0.444484	-0.031526
H138	H	1.462155	0.055516	0.468474
H139	H	0.535801	-0.120325	0.236844
H140	H	1.035801	0.379675	0.736844
H141	H	0.992436	-0.183883	-0.373727
H142	H	1.492436	0.316117	0.126273
H143	H	0.883174	-0.418348	0.281066
H144	H	1.383174	0.081652	0.781066
H145	H	1.023350	-0.531261	0.318558
H146	H	1.523350	-0.031261	0.818558
H147	H	1.133023	-0.426733	0.181180
H148	H	1.633023	0.073267	0.681180
C149	C	0.989258	-0.138947	-0.553582
C150	C	1.489258	0.361053	-0.053582
H151	H	0.987970	-0.133040	-0.626622
H152	H	1.487970	0.366960	-0.126622
H153	H	0.940653	-0.171322	-0.527631
H154	H	1.440653	0.328678	-0.027631
H155	H	1.038508	-0.172646	-0.543657
H156	H	1.538508	0.327354	-0.043657
