data_functionalizedCrystal
_audit_creation_method	'MofGen! by Chris Wilmer'
_symmetry_space_group_name_H-M	'P1'
_symmetry_Int_Tables_number	1
_symmetry_cell_setting	triclinic
loop_
_symmetry_equiv_pos_as_xyz
  x,y,z
_cell_length_a	10.540539
_cell_length_b	9.016244
_cell_length_c	10.540539
_cell_angle_alpha	89.999933
_cell_angle_beta	95.474508
_cell_angle_gamma	90.005301
loop_
_atom_site_label
_atom_site_type_symbol
_atom_site_fract_x
_atom_site_fract_y
_atom_site_fract_z
O1	O	1.685893	0.123263	-0.178895
O2	O	1.316480	0.123280	-0.195751
O3	O	1.509614	0.123269	-0.002617
O4	O	1.492759	0.123274	-0.372030
O5	O	1.509586	-0.123411	-0.002621
O6	O	1.316452	-0.123400	-0.195755
O7	O	1.685865	-0.123418	-0.178900
Cu8	Cu	1.501156	-0.145933	-0.187328
Cu9	Cu	1.501189	0.145795	-0.187323
O10	O	1.492730	-0.123407	-0.372034
C11	C	1.269163	-0.000058	-0.194489
C12	C	1.128215	-0.000051	-0.190707
N13	N	1.501141	-0.351119	-0.187331
C14	C	0.944788	-0.000628	-0.045790
C15	C	1.091406	-0.000057	-0.049624
C16	C	1.066558	0.140811	-0.258600
C17	C	0.920014	0.140914	-0.253785
C18	C	0.919493	-0.139608	-0.256660
C19	C	1.066475	-0.141455	-0.257960
C20	C	1.397510	-0.586146	-0.290298
C21	C	1.397739	-0.414255	-0.290684
C22	C	1.633864	-0.413464	-0.217464
C23	C	1.633298	-0.585409	-0.218193
C24	C	1.473367	-0.585663	-0.053892
C25	C	1.470322	-0.413709	-0.054757
C26	C	1.733182	-0.000077	-0.180161
C27	C	1.874130	-0.000074	-0.183943
C28	C	1.508336	-0.000068	0.044684
C29	C	1.504554	-0.000060	0.185632
N30	N	1.501213	0.350982	-0.187310
C31	C	1.494008	-0.000066	-0.419335
C32	C	1.497790	-0.000064	-0.560283
C33	C	1.359637	0.000500	0.369059
C34	C	1.363471	-0.000055	0.222441
C35	C	1.572434	-0.140930	0.247287
C36	C	1.567619	-0.141049	0.393832
C37	C	1.570520	0.139473	0.394355
C38	C	1.571820	0.141336	0.247373
H39	H	1.134008	-0.101034	0.003797
H40	H	1.304121	-0.099949	0.399265
Br41	Br	1.134549	-0.315145	-0.175149
H42	H	1.674681	0.149837	0.223152
Br43	Br	1.599390	-0.653422	0.073871
H44	H	0.916191	-0.101649	0.009944
Br45	Br	1.494424	0.317433	0.446929
Br46	Br	1.489747	0.315060	0.178452
Br47	Br	1.740366	0.141048	0.473066
H48	H	1.378630	-0.629106	-0.025213
H49	H	1.303918	0.101521	0.397661
Br50	Br	1.426967	-0.658102	-0.454353
H51	H	1.712941	-0.626995	-0.146204
H52	H	1.090700	-0.149959	-0.360819
H53	H	1.712919	-0.372564	-0.144501
Br54	Br	1.307583	-0.345802	-0.016682
Br55	Br	0.873007	0.316412	-0.170146
Br56	Br	0.894453	0.166792	0.046731
Br57	Br	0.866901	-0.317572	-0.180560
Br58	Br	0.840056	0.151572	-0.422894
Br59	Br	1.160966	0.168826	0.039648
H60	H	1.109159	0.245643	-0.211434
H61	H	1.669083	-0.147444	0.441800
H62	H	1.540849	-0.370737	0.025564
Br63	Br	1.274448	0.168255	0.151428
H64	H	1.088912	0.146054	-0.362208
H65	H	0.872266	-0.140559	-0.358564
Br66	Br	1.745122	-0.149677	0.210037
Br67	Br	1.233347	-0.343996	-0.260552
H68	H	1.298584	-0.627535	-0.272446
H69	H	1.658762	-0.370386	-0.313702
Br70	Br	1.273776	-0.168631	0.152829
H71	H	1.517429	-0.246347	0.422030
Br72	Br	1.493809	-0.315654	0.176289
H73	H	1.415639	-0.373108	-0.389668
H74	H	1.657653	-0.625498	-0.315531
