data_functionalizedCrystal
_audit_creation_method	'MofGen! by Chris Wilmer'
_symmetry_space_group_name_H-M	'P1'
_symmetry_Int_Tables_number	1
_symmetry_cell_setting	triclinic
loop_
_symmetry_equiv_pos_as_xyz
  x,y,z
_cell_length_a	16.974901
_cell_length_b	16.974813
_cell_length_c	15.455438
_cell_angle_alpha	96.320491
_cell_angle_beta	89.015615
_cell_angle_gamma	96.835011
loop_
_atom_site_label
_atom_site_type_symbol
_atom_site_fract_x
_atom_site_fract_y
_atom_site_fract_z
O1	O	-1.041692	0.108183	0.152766
O2	O	-0.812206	0.120271	0.137525
O3	O	-0.933733	-0.001249	0.137511
O4	O	-0.920165	0.229703	0.152780
O5	O	-0.940645	-0.008175	-0.006750
O6	O	-0.819118	0.113346	-0.006736
O7	O	-1.048603	0.101257	0.008505
Cu8	Cu	-0.934492	0.106669	-0.012288
Cu9	Cu	-0.926318	0.114859	0.158318
O10	O	-0.927076	0.222778	0.008519
C11	C	-0.786305	0.116217	0.063294
C12	C	-0.698832	0.114447	0.057037
C13	C	-0.653962	0.117391	0.132727
C14	C	-0.571770	0.115739	0.126836
C15	C	-0.534450	0.111137	0.045253
C16	C	-0.579326	0.108195	-0.030443
C17	C	-0.661515	0.109852	-0.024551
C18	C	-0.289045	0.105780	0.019197
C19	C	-0.206850	0.104121	0.013310
C20	C	-0.199299	0.111667	0.170590
C21	C	-0.281491	0.113319	0.176475
C22	C	-0.326359	0.110381	0.100780
N23	N	-0.450438	0.109446	0.039229
N24	N	-0.410369	0.112078	0.106805
C25	C	-0.936801	-0.034271	0.063280
C26	C	-0.935637	-0.122347	0.057018
C27	C	-0.931325	-0.159945	0.132713
C28	C	-0.930226	-0.242701	0.126826
C29	C	-0.933446	-0.287858	0.045245
C30	C	-0.937756	-0.250253	-0.030455
C31	C	-0.938849	-0.167498	-0.024569
C32	C	-0.930575	-0.535765	0.019206
C33	C	-0.929484	-0.618526	0.013325
C34	C	-0.921953	-0.610968	0.170607
C35	C	-0.923051	-0.528212	0.176487
C36	C	-0.927357	-0.490614	0.100787
N37	N	-0.932325	-0.372448	0.039226
N38	N	-0.928472	-0.406024	0.106806
C39	C	-0.074505	0.105307	0.082737
C40	C	-0.161980	0.107065	0.089001
C41	C	-0.924008	0.255799	0.082752
C42	C	-0.925172	0.343875	0.089019
N43	N	-0.940246	0.100909	-0.132282
C44	C	-0.888608	0.152515	-0.177694
C45	C	-0.892983	0.148155	-0.268499
C46	C	-0.948993	0.092185	-0.313892
C47	C	-1.000636	0.040576	-0.268473
C48	C	-0.996265	0.044940	-0.177669
C49	C	-0.967841	0.073369	-0.585465
C50	C	-0.972207	0.069007	-0.676276
C51	C	-0.864554	0.176588	-0.676296
C52	C	-0.860185	0.180944	-0.585490
C53	C	-0.911831	0.129338	-0.540079
N54	N	-0.953464	0.087726	-0.406710
N55	N	-0.907363	0.133801	-0.447262
N56	N	-0.920569	0.120614	0.278312
H57	H	-0.176464	0.100395	-0.053127
H58	H	-0.325567	0.103383	-0.042440
C59	C	-0.456690	0.102297	-0.109313
C60	C	-0.538306	0.103135	-0.120122
H61	H	-0.431371	0.099167	-0.164680
H62	H	-0.435462	0.149794	-0.075163
H63	H	-0.447889	0.057351	-0.080777
H64	H	-0.547108	0.148085	-0.148653
H65	H	-0.559541	0.055633	-0.154286
C66	C	-1.011578	-0.290918	-0.162193
C67	C	-0.941296	-0.299884	-0.120135
H68	H	-1.013761	-0.321553	-0.217561
H69	H	-1.055794	-0.308873	-0.128044
H70	H	-1.012835	-0.236247	-0.169511
H71	H	-0.940042	-0.354554	-0.112811
H72	H	-0.897068	-0.281933	-0.154292
H73	H	-0.920430	-0.491451	0.242919
H74	H	-0.684341	0.121136	0.199161
H75	H	-0.932102	-0.655290	-0.053112
H76	H	-0.842996	0.198089	-0.140742
C77	C	-0.158407	0.185731	0.306972
C78	C	-0.149978	0.114908	0.253793
H79	H	-0.127961	0.187731	0.358342
H80	H	-0.140278	0.230119	0.276502
H81	H	-0.212700	0.187367	0.322148
H82	H	-0.095685	0.113275	0.238611
H83	H	-0.168103	0.070508	0.284268
H84	H	-0.535240	0.118137	0.188471
C85	C	-1.074680	-0.033415	-0.594581
C86	C	-1.024603	0.016637	-0.535558
H87	H	-1.109719	-0.068444	-0.563767
H88	H	-1.104579	-0.002008	-0.625687
H89	H	-1.043701	-0.063746	-0.634309
H90	H	-1.055582	0.046973	-0.495834
H91	H	-0.994701	-0.014773	-0.504438
H92	H	-0.311871	0.117061	0.242909
C93	C	-0.786132	0.254927	-0.259398
C94	C	-0.836220	0.204883	-0.318416
H95	H	-0.751086	0.289947	-0.290217
H96	H	-0.817097	0.285261	-0.219671
H97	H	-0.756233	0.223508	-0.228293
H98	H	-0.866123	0.236301	-0.349517
H99	H	-0.805251	0.174546	-0.358159
C100	C	-0.660730	0.102214	-0.180607
C101	C	-0.710841	0.106609	-0.107753
H102	H	-0.691183	0.100209	-0.231972
H103	H	-0.622309	0.147944	-0.176825
H104	H	-0.634725	0.055501	-0.182437
H105	H	-0.736842	0.153326	-0.105918
H106	H	-0.749277	0.060875	-0.111535
H107	H	-0.942350	-0.136885	-0.086208
H108	H	-0.822507	0.218604	-0.713278
C109	C	-0.923761	-0.160795	0.287586
C110	C	-0.927783	-0.110313	0.222391
H111	H	-0.921567	-0.130153	0.342949
H112	H	-0.969440	-0.199168	0.284825
H113	H	-0.877537	-0.187290	0.279204
H114	H	-0.974010	-0.083822	0.230769
H115	H	-0.882099	-0.071926	0.225154
H116	H	-0.918445	-0.641589	0.232238
C117	C	-1.055132	-0.013887	-0.407660
C118	C	-1.062202	-0.020949	-0.318367
H119	H	-1.093138	-0.051877	-0.438460
H120	H	-1.064171	0.038365	-0.418235
H121	H	-1.003295	-0.023375	-0.426845
H122	H	-1.114038	-0.011456	-0.299181
H123	H	-1.053170	-0.073214	-0.307787
H124	H	-0.926717	-0.273311	0.188465
C125	C	-0.754219	0.286850	-0.594633
C126	C	-0.798620	0.242471	-0.535597
H127	H	-0.716214	0.324836	-0.563829
H128	H	-0.727730	0.252040	-0.634357
H129	H	-0.788604	0.313783	-0.625742
H130	H	-0.764236	0.215534	-0.504493
H131	H	-0.825110	0.277286	-0.495858
H132	H	-1.017820	0.023426	-0.713231
H133	H	-1.038315	0.002918	-0.140695
C134	C	-0.937954	-0.551565	-0.136846
C135	C	-0.935341	-0.494448	-0.064001
H136	H	-0.940909	-0.526055	-0.188216
H137	H	-0.891417	-0.577734	-0.138691
H138	H	-0.983318	-0.589634	-0.133040
H139	H	-0.889974	-0.456382	-0.067805
H140	H	-0.981884	-0.468266	-0.062157
