data_functionalizedCrystal
_audit_creation_method	'MofGen! by Chris Wilmer'
_symmetry_space_group_name_H-M	'P1'
_symmetry_Int_Tables_number	1
_symmetry_cell_setting	triclinic
loop_
_symmetry_equiv_pos_as_xyz
  x,y,z
_cell_length_a	16.109301
_cell_length_b	15.995350
_cell_length_c	14.586319
_cell_angle_alpha	89.998440
_cell_angle_beta	89.999213
_cell_angle_gamma	83.476928
loop_
_atom_site_label
_atom_site_type_symbol
_atom_site_fract_x
_atom_site_fract_y
_atom_site_fract_z
O1	O	1.103160	0.107624	-0.076178
O2	O	0.861101	0.121018	-0.076192
O3	O	0.988747	-0.007569	-0.076184
O4	O	0.975514	0.236210	-0.076186
O5	O	0.988739	-0.007570	0.076297
O6	O	0.861093	0.121016	0.076289
O7	O	1.103151	0.107622	0.076303
Cu8	Cu	0.982121	0.114319	0.090219
Cu9	Cu	0.982131	0.114321	-0.090107
O10	O	0.975505	0.236208	0.076295
C11	C	0.830122	0.120474	0.000047
C12	C	0.737826	0.118848	0.000041
C13	C	0.515573	0.191366	0.000051
C14	C	0.428853	0.189831	0.000057
C15	C	0.448686	0.037268	0.000055
C16	C	0.535405	0.038804	0.000055
C17	C	0.568846	0.115855	0.000049
C18	C	0.395406	0.112785	0.000054
C19	C	0.301380	0.111120	0.000061
C20	C	0.662879	0.117520	0.000044
C21	C	0.988196	-0.038764	0.000055
C22	C	0.986556	-0.131714	0.000050
C23	C	0.980665	-0.469460	0.000053
C24	C	0.889758	-0.422001	-0.000295
C25	C	0.891399	-0.325311	0.000049
C26	C	0.983587	-0.301900	0.000051
C27	C	1.028421	-0.342991	0.087126
C28	C	1.026137	-0.439626	0.087198
C29	C	1.028025	-0.439983	-0.086201
C30	C	1.028003	-0.343037	-0.087351
C31	C	0.985243	-0.207203	0.000053
C32	C	0.979012	-0.564157	0.000057
C33	C	1.134130	0.108166	0.000062
C34	C	1.226426	0.109792	0.000062
C35	C	0.976056	0.267404	0.000054
C36	C	0.977697	0.360354	0.000053
N37	N	0.982120	0.114317	0.217050
N38	N	0.982139	0.114317	-0.216939
C39	C	1.038660	0.057398	0.452061
C40	C	1.038662	0.057396	0.548042
C41	C	0.925593	0.171238	0.548044
C42	C	0.925587	0.171236	0.452064
C43	C	0.982125	0.114316	0.404075
C44	C	0.982134	0.114317	0.596036
C45	C	0.982136	0.114315	0.700103
C46	C	0.982122	0.114317	0.300001
H47	H	0.578782	-0.022690	0.000056
C48	C	1.172973	-0.399573	0.090314
C49	C	1.119851	-0.323948	0.091506
H50	H	1.229418	-0.387813	0.093011
H51	H	1.161272	-0.432823	0.141663
H52	H	1.164265	-0.429362	0.035449
H53	H	1.128556	-0.294161	0.146375
H54	H	1.131557	-0.290684	0.040152
C55	C	0.876764	0.316179	0.422498
C56	C	0.863442	0.233808	0.399311
H57	H	0.838401	0.354804	0.389925
H58	H	0.868673	0.324324	0.486519
H59	H	0.932251	0.325276	0.406758
H60	H	0.807957	0.224709	0.415057
H61	H	0.871527	0.225660	0.335276
C62	C	0.525360	0.321884	-0.078326
C63	C	0.552330	0.276061	0.000054
H64	H	0.548046	0.374175	-0.078317
H65	H	0.543653	0.290800	-0.131491
H66	H	0.466088	0.331766	-0.078315
H67	H	0.611602	0.266174	0.000039
H68	H	0.534042	0.307152	0.053233
C69	C	0.319824	0.276609	-0.078328
C70	C	0.370293	0.272835	0.000054
H71	H	0.283669	0.327852	-0.078325
H72	H	0.354066	0.274039	-0.131492
H73	H	0.287497	0.230500	-0.078315
H74	H	0.402625	0.318940	0.000037
H75	H	0.336047	0.275413	0.053231
H76	H	1.084697	0.011047	0.587109
C77	C	1.056646	-0.056586	0.344180
C78	C	1.100778	-0.005212	0.399332
H79	H	1.094990	-0.095249	0.311634
H80	H	1.022026	-0.086669	0.381646
H81	H	1.023000	-0.022680	0.301847
H82	H	1.134419	-0.039118	0.441670
H83	H	1.135412	0.024873	0.361863
C84	C	0.324557	-0.032828	0.000043
C85	C	0.411924	-0.047424	0.000050
H86	H	0.301865	-0.085116	0.000032
H87	H	0.306274	-0.001748	0.053215
H88	H	0.306282	-0.001733	-0.053133
H89	H	0.430199	-0.078515	0.053230
H90	H	0.430214	-0.078518	-0.053127
H91	H	0.856156	-0.296879	-0.062370
H92	H	0.997274	-0.314602	0.151923
H93	H	0.853427	-0.440522	-0.062738
H94	H	0.993437	-0.457919	0.152287
C95	C	0.875403	0.221798	0.695176
C96	C	0.863456	0.233810	0.600797
H97	H	0.837045	0.260434	0.727740
H98	H	0.866371	0.165922	0.710907
H99	H	0.930892	0.230907	0.710887
H100	H	0.807968	0.224695	0.585084
H101	H	0.872481	0.289699	0.585059
H102	H	1.095050	-0.471762	-0.086785
C103	C	0.836424	-0.535298	0.080502
C104	C	0.840921	-0.448432	0.083531
H105	H	0.806281	-0.551616	0.132257
H106	H	0.808666	-0.548944	0.025984
H107	H	0.891278	-0.564247	0.081226
H108	H	0.786067	-0.419483	0.082799
H109	H	0.868677	-0.434778	0.138063
H110	H	0.855912	-0.297438	0.062570
C111	C	0.920073	-0.511639	-0.153848
C112	C	0.987905	-0.467689	-0.175298
H113	H	0.895297	-0.528738	-0.208851
H114	H	0.938950	-0.559832	-0.118309
H115	H	0.879963	-0.476146	-0.119850
H116	H	1.028019	-0.503185	-0.209291
H117	H	0.969030	-0.419489	-0.210853
C118	C	1.040549	-0.267317	-0.227878
C119	C	0.983820	-0.306167	-0.174317
H120	H	1.013271	-0.244554	-0.281567
H121	H	1.060961	-0.223428	-0.193686
H122	H	1.085882	-0.307627	-0.244717
H123	H	0.938490	-0.265855	-0.157471
H124	H	0.963395	-0.350061	-0.208515
C125	C	1.173183	-0.397062	-0.093456
C126	C	1.118751	-0.322307	-0.094509
H127	H	1.229204	-0.384257	-0.097891
H128	H	1.166189	-0.426393	-0.037871
H129	H	1.161077	-0.431228	-0.143903
H130	H	1.130853	-0.288144	-0.044057
H131	H	1.125748	-0.292963	-0.150100
H132	H	1.092879	-0.471892	0.091150
