data_functionalizedCrystal
_audit_creation_method	'MofGen! by Chris Wilmer'
_symmetry_space_group_name_H-M	'P1'
_symmetry_Int_Tables_number	1
_symmetry_cell_setting	triclinic
loop_
_symmetry_equiv_pos_as_xyz
  x,y,z
_cell_length_a	6.817900
_cell_length_b	11.102285
_cell_length_c	11.102193
_cell_angle_alpha	91.950782
_cell_angle_beta	108.604059
_cell_angle_gamma	108.605686
loop_
_atom_site_label
_atom_site_type_symbol
_atom_site_fract_x
_atom_site_fract_y
_atom_site_fract_z
V1	V	-4.111518	-0.175849	-0.396264
O2	O	-4.070547	0.008441	-0.388714
O3	O	-4.088299	-0.348670	-0.393560
O4	O	-4.088292	-0.173148	-0.569085
O5	O	-4.070554	-0.168296	-0.211974
V6	V	-4.588621	-0.153806	-0.374220
O7	O	-4.386859	-0.224204	-0.444618
O8	O	-4.763478	-0.105451	-0.325867
O9	O	-4.388634	0.019016	-0.376924
O10	O	-4.746989	-0.338096	-0.381770
O11	O	-4.746983	-0.161359	-0.558511
O12	O	-4.388641	-0.156506	-0.201399
C13	C	-3.938611	-0.390800	-0.387310
C14	C	-4.001081	-0.532084	-0.386252
C15	C	-4.090595	-0.616615	-0.502136
C16	C	-4.149265	-0.749363	-0.501130
C17	C	-4.028905	-0.713037	-0.268344
C18	C	-3.970222	-0.580291	-0.269351
C19	C	-4.183487	-0.948438	-0.635508
C20	C	-4.273042	-1.032976	-0.751400
C21	C	-4.425418	-1.010091	-0.858565
C22	C	-4.488294	-0.902673	-0.849844
C23	C	-4.398760	-0.818142	-0.733950
C24	C	-4.246337	-0.841024	-0.626789
C25	C	-3.936020	-0.381216	-0.134981
C26	C	-3.846499	-0.296683	-0.019087
C27	C	-3.694128	-0.319564	0.088088
C28	C	-3.631278	-0.426985	0.079379
C29	C	-3.720800	-0.511518	-0.036516
C30	C	-3.873163	-0.488627	-0.143691
C31	C	-3.938601	-0.166903	-0.611209
C32	C	-4.001062	-0.165838	-0.752491
C33	C	-4.121395	-0.398618	-0.788827
C34	C	-4.210897	-0.514502	-0.873367
C35	C	-4.269584	-0.513495	-1.006113
C36	C	-4.238769	-0.396590	-1.054320
C37	C	-4.149267	-0.280706	-0.969779
C38	C	-4.090580	-0.281726	-0.837032
C39	C	-4.028949	-0.047930	-0.933445
C40	C	-3.970247	-0.048934	-0.800698
C41	C	-3.998134	0.068975	-0.981652
C42	C	-3.908616	0.184862	-0.897111
C43	C	-3.849926	0.183850	-0.764358
C44	C	-3.880745	0.066950	-0.716158
C45	C	-4.201664	0.061139	-0.383170
C46	C	-4.118434	0.202421	-0.384238
C47	C	-4.201674	-0.162756	-0.159269
C48	C	-4.118451	-0.163814	-0.017985
H49	H	-4.612399	-0.884060	-0.937107
C50	C	-3.463658	-0.452156	0.197275
N51	N	-3.337406	-0.471112	0.286080
C52	C	-3.651646	-0.629680	-0.046096
N53	N	-3.599558	-0.718678	-0.053312
H54	H	-4.045940	0.069786	-1.089742
C55	C	-4.467901	-0.699984	-0.724356
N56	N	-4.519971	-0.610979	-0.717136
H57	H	-4.235986	-0.609684	-0.834102
C58	C	-4.523911	-1.103082	-0.986049
N59	N	-4.598078	-1.173123	-1.082068
C60	C	-3.751471	0.311335	-0.671372
N61	N	-3.677310	0.407360	-0.601339
C62	C	-4.368037	-0.640972	-1.099109
N63	N	-4.442187	-0.736988	-1.169154
H64	H	-4.003794	-0.752304	-0.173168
C65	C	-4.056831	-0.399737	-0.642804
N66	N	-4.008206	-0.400582	-0.532818
H67	H	-3.621257	-0.250730	0.182457
H68	H	-3.897700	-0.209221	-0.011999
C69	C	-4.203854	-1.151124	-0.760992
N70	N	-4.151750	-1.240114	-0.768221
H71	H	-4.059388	-0.967073	-0.548258
C72	C	-4.103645	-0.356039	-0.252877
N73	N	-4.229908	-0.337076	-0.341671
C74	C	-3.874724	0.313443	-0.950148
N75	N	-3.849189	0.410292	-0.990101
H76	H	-3.832950	0.066115	-0.608071
C77	C	-4.124518	-0.563592	-0.630729
N78	N	-4.150061	-0.523659	-0.727588
C79	C	-4.303335	-0.395489	-1.200345
N80	N	-4.351959	-0.394658	-1.310333
