data_functionalizedCrystal
_audit_creation_method	'MofGen! by Chris Wilmer'
_symmetry_space_group_name_H-M	'P1'
_symmetry_Int_Tables_number	1
_symmetry_cell_setting	triclinic
loop_
_symmetry_equiv_pos_as_xyz
  x,y,z
_cell_length_a	12.759401
_cell_length_b	12.759399
_cell_length_c	12.759393
_cell_angle_alpha	89.972190
_cell_angle_beta	89.980441
_cell_angle_gamma	90.014216
loop_
_atom_site_label
_atom_site_type_symbol
_atom_site_fract_x
_atom_site_fract_y
_atom_site_fract_z
Zn1	Zn	-1.606245	0.418256	0.594038
Zn2	Zn	-1.606136	0.593975	0.418370
Zn3	Zn	-1.430547	0.418305	0.418375
Zn4	Zn	-1.430532	0.593888	0.594008
O5	O	-1.518365	0.506106	0.506198
O6	O	-1.753252	0.441582	0.570746
O7	O	-1.582804	0.570729	0.271350
O8	O	-1.453907	0.271278	0.441691
O9	O	-1.753171	0.570682	0.441684
O10	O	-1.582991	0.271242	0.570751
O11	O	-1.453800	0.441665	0.271353
O12	O	-1.283524	0.441581	0.441662
O13	O	-1.453880	0.570533	0.741033
O14	O	-1.283513	0.570581	0.570699
O15	O	-1.582976	0.441497	0.741056
O16	O	-1.582789	0.740985	0.441654
O17	O	-1.453774	0.740921	0.570695
C18	C	-1.245398	0.506077	0.506179
C19	C	-1.128621	0.506090	0.506195
C20	C	-1.073781	0.573366	0.573273
C21	C	-0.964057	0.573375	0.573282
C22	C	-0.964023	0.438830	0.439127
C23	C	-1.073745	0.438816	0.439124
C24	C	-1.073799	0.651048	0.650723
C25	C	-0.964075	0.651058	0.650732
C26	C	-1.518296	0.779073	0.506194
C27	C	-1.518363	0.895850	0.506227
C28	C	-1.518439	0.506000	0.780231
C29	C	-1.518470	0.505955	0.897008
C30	C	-0.792398	0.506127	0.506213
C31	C	-0.909175	0.506113	0.506208
C32	C	-1.585691	1.060435	0.439155
C33	C	-1.585622	0.950711	0.439116
C34	C	-1.451161	0.950719	0.573375
C35	C	-1.451226	1.060441	0.573408
C36	C	-1.663324	1.060430	0.361645
C37	C	-1.663255	0.950706	0.361605
C38	C	-1.518461	1.232073	0.506241
C39	C	-1.518497	1.115296	0.506300
C40	C	-1.518352	0.506136	0.233231
C41	C	-1.518524	0.505885	0.116454
C42	C	-1.585700	0.438759	0.951883
C43	C	-1.585724	0.438722	1.061608
C44	C	-1.451287	0.573083	1.061571
C45	C	-1.451258	0.573115	0.951849
C46	C	-1.663319	0.361190	0.951905
C47	C	-1.663344	0.361152	1.061629
H48	H	-0.930078	0.622012	0.728082
Br49	Br	-0.914400	0.786627	0.614150
H50	H	-1.740622	1.094375	0.390869
Br51	Br	-1.614652	0.232367	1.118380
H52	H	-1.396497	1.105104	0.628070
H53	H	-1.396390	0.906043	0.628012
H54	H	-1.103608	0.629350	0.732129
H55	H	-0.919330	0.384057	0.384521
H56	H	-1.641597	1.090289	0.280264
H57	H	-1.634135	0.916762	0.284270
Br58	Br	-1.798822	0.900918	0.398031
H59	H	-1.744714	0.382947	1.091411
H60	H	-1.396509	0.627829	0.907174
H61	H	-1.396564	0.627761	1.106236
H62	H	-1.641552	0.279825	0.922143
Br63	Br	-1.792106	0.409807	0.895171
H64	H	-1.118392	0.384027	0.384510
H65	H	-1.107811	0.728301	0.621444
