data_functionalizedCrystal
_audit_creation_method	'MofGen! by Chris Wilmer'
_symmetry_space_group_name_H-M	'P1'
_symmetry_Int_Tables_number	1
_symmetry_cell_setting	triclinic
loop_
_symmetry_equiv_pos_as_xyz
  x,y,z
_cell_length_a	12.594517
_cell_length_b	12.594516
_cell_length_c	12.594509
_cell_angle_alpha	89.973801
_cell_angle_beta	89.985695
_cell_angle_gamma	90.016010
loop_
_atom_site_label
_atom_site_type_symbol
_atom_site_fract_x
_atom_site_fract_y
_atom_site_fract_z
Zn1	Zn	1.627267	-0.423711	-0.601676
Zn2	Zn	1.627158	-0.601722	-0.423703
Zn3	Zn	1.449271	-0.423757	-0.423726
Zn4	Zn	1.449253	-0.601648	-0.601655
O5	O	1.538237	-0.512710	-0.512690
O6	O	1.776198	-0.447336	-0.578066
O7	O	1.603522	-0.578164	-0.274761
O8	O	1.472935	-0.274805	-0.447350
O9	O	1.776118	-0.578120	-0.447311
O10	O	1.603708	-0.274772	-0.578088
O11	O	1.472830	-0.447415	-0.274777
O12	O	1.300323	-0.447343	-0.447330
O13	O	1.472905	-0.577994	-0.750604
O14	O	1.300310	-0.578039	-0.578054
O15	O	1.603691	-0.447265	-0.750619
O16	O	1.603505	-0.750658	-0.447291
O17	O	1.472799	-0.750604	-0.578031
C18	C	1.261696	-0.512689	-0.512693
C19	C	1.143391	-0.512706	-0.512719
C20	C	1.003398	-0.583920	-0.583688
C21	C	1.074168	-0.609828	-0.486547
C22	C	1.074192	-0.486845	-0.609849
C23	C	1.003376	-0.538698	-0.415495
C24	C	1.003393	-0.415671	-0.538863
C25	C	1.074131	-0.441542	-0.441655
C26	C	1.538167	-0.789251	-0.512680
C27	C	1.538235	-0.907556	-0.512711
C28	C	1.467137	-0.976818	-0.583771
C29	C	1.441204	-1.047684	-0.486651
C30	C	1.564265	-1.047490	-0.609847
C31	C	1.512250	-0.976863	-0.415539
C32	C	1.635357	-0.976663	-0.538802
C33	C	1.609460	-1.047496	-0.441615
C34	C	1.815858	-0.512731	-0.512688
C35	C	1.934163	-0.512740	-0.512687
C36	C	1.538308	-0.512616	-0.790311
C37	C	1.538339	-0.512577	-0.908617
C38	C	1.538336	-0.235089	-0.512724
C39	C	1.538378	-0.116783	-0.512738
C40	C	1.467227	-0.583640	-0.977862
C41	C	1.564347	-0.609646	-1.048641
C42	C	1.441294	-0.486506	-1.048636
C43	C	1.635510	-0.538634	-0.977838
C44	C	1.512391	-0.415449	-0.977827
C45	C	1.609579	-0.441418	-1.048574
C46	C	1.538227	-0.512726	-0.236149
C47	C	1.538403	-0.512466	-0.117844
H48	H	1.105256	-0.691903	-0.464413
H49	H	1.359198	-0.464502	-1.079736
H50	H	1.407136	-0.643829	-0.946814
H51	H	1.490197	-0.945968	-0.333381
C52	C	1.690944	-0.360174	-1.090266
H53	H	1.759842	-0.378828	-1.065893
H54	H	1.673078	-0.291424	-1.064947
H55	H	1.690123	-0.360167	-1.165692
H56	H	1.105298	-0.464958	-0.692004
H57	H	0.972400	-0.560685	-0.333318
H58	H	1.717406	-0.945447	-0.560894
H59	H	0.972281	-0.333620	-0.561024
H60	H	0.972340	-0.644175	-0.643642
H61	H	1.104993	-0.381333	-0.381556
H62	H	1.669647	-1.078334	-0.381464
C63	C	1.330339	-1.089834	-0.456841
H64	H	1.335234	-1.131357	-0.394039
H65	H	1.303665	-1.132391	-0.513089
H66	H	1.283723	-1.031746	-0.444988
H67	H	1.586224	-1.078513	-0.691984
C68	C	1.385775	-0.934882	-0.664829
H69	H	1.316851	-0.959204	-0.646122
H70	H	1.403538	-0.960102	-0.733648
H71	H	1.386729	-0.859458	-0.664704
H72	H	1.586329	-0.691738	-1.079746
C73	C	1.746461	-0.568438	-0.936011
H74	H	1.745755	-0.568316	-0.860582
H75	H	1.797001	-0.518209	-0.960803
H76	H	1.765068	-0.637180	-0.960831
H77	H	1.490381	-0.333381	-0.946698
