data_functionalizedCrystal
_audit_creation_method	'MofGen! by Chris Wilmer'
_symmetry_space_group_name_H-M	'P1'
_symmetry_Int_Tables_number	1
_symmetry_cell_setting	triclinic
loop_
_symmetry_equiv_pos_as_xyz
  x,y,z
_cell_length_a	18.627244
_cell_length_b	18.627297
_cell_length_c	18.626900
_cell_angle_alpha	60.001690
_cell_angle_beta	60.002094
_cell_angle_gamma	60.000462
loop_
_atom_site_label
_atom_site_type_symbol
_atom_site_fract_x
_atom_site_fract_y
_atom_site_fract_z
O1	O	-0.611866	-0.492477	1.125694
O2	O	-0.507474	-0.388082	0.874296
O3	O	-0.507470	-0.388079	1.021294
O4	O	-0.611871	-0.492480	0.978695
O5	O	-0.388068	-0.507480	1.021294
O6	O	-0.388073	-0.507483	0.874296
O7	O	-0.492465	-0.611878	1.125694
Cu8	Cu	-0.429367	-0.570583	0.999995
Cu9	Cu	-0.570573	-0.429377	0.999995
O10	O	-0.492470	-0.611881	0.978695
C11	C	-0.386970	-0.256976	0.613007
C12	C	-0.431270	-0.162279	0.568709
C13	C	-0.300571	-0.300576	0.569605
C14	C	-0.386971	-0.386978	0.743002
C15	C	-0.431272	-0.431280	0.837695
C16	C	-0.300572	-0.430381	0.699402
C17	C	-0.256970	-0.386975	0.613007
C18	C	-0.162273	-0.431274	0.568710
C19	C	-0.430375	-0.300579	0.699402
C20	C	-0.386962	-0.256980	1.030990
C21	C	-0.431261	-0.162284	1.024893
C22	C	-0.430368	-0.300581	1.031597
C23	C	-0.256963	-0.386981	1.030989
C24	C	-0.162267	-0.431281	1.024893
C25	C	-0.300566	-0.430384	1.031597
C26	C	-0.386965	-0.386979	1.030990
C27	C	-0.431267	-0.431278	1.024893
C28	C	-0.300564	-0.300582	1.031597
C29	C	-0.612968	-0.742987	0.969000
C30	C	-0.568666	-0.837683	0.975097
C31	C	-0.699367	-0.699387	0.968393
C32	C	-0.612971	-0.612985	0.969000
C33	C	-0.568672	-0.568683	0.975096
C34	C	-0.699369	-0.569583	0.968392
C35	C	-0.742970	-0.612989	0.969000
C36	C	-0.837666	-0.568691	0.975096
C37	C	-0.569565	-0.699383	0.968393
O38	O	0.125735	-0.492490	0.978695
O39	O	-0.125662	-0.388084	1.021294
O40	O	0.021332	-0.388089	0.874296
O41	O	-0.021259	-0.492485	1.125693
O42	O	0.021327	-0.507488	0.874296
O43	O	-0.125668	-0.507483	1.021294
O44	O	0.125730	-0.611889	0.978695
Cu45	Cu	0.000030	-0.570588	0.999995
Cu46	Cu	0.000037	-0.429385	0.999994
O47	O	-0.021265	-0.611884	1.125693
O48	O	0.125726	-0.611875	0.507519
O49	O	-0.125672	-0.507477	0.611908
O50	O	0.021322	-0.507481	0.611925
O51	O	-0.021267	-0.611871	0.507502
O52	O	0.021323	-0.388078	0.492528
O53	O	-0.125670	-0.388074	0.492511
O54	O	0.125728	-0.492472	0.388122
Cu55	Cu	0.000029	-0.429371	0.429415
Cu56	Cu	0.000027	-0.570579	0.570615
O57	O	-0.021266	-0.492468	0.388105
O58	O	-0.611865	0.125714	0.978696
O59	O	-0.507463	-0.125683	1.021295
O60	O	-0.507468	0.021313	0.874297
O61	O	-0.611860	-0.021282	1.125694
O62	O	-0.388067	0.021315	0.874296
O63	O	-0.388062	-0.125681	1.021294
O64	O	-0.492463	0.125716	0.978695
Cu65	Cu	-0.429360	0.000018	0.999995
Cu66	Cu	-0.570566	0.000015	0.999995
O67	O	-0.492458	-0.021280	1.125694
O68	O	-0.492472	0.125722	0.388121
O69	O	-0.388070	-0.125676	0.492510
O70	O	-0.388077	0.021318	0.492527
O71	O	-0.492466	-0.021272	0.388104
O72	O	-0.507479	0.021315	0.611924
O73	O	-0.507473	-0.125679	0.611907
O74	O	-0.611874	0.125719	0.507517
Cu75	Cu	-0.570576	0.000019	0.570614
Cu76	Cu	-0.429369	0.000024	0.429414
O77	O	-0.611868	-0.021275	0.507500
C78	C	-0.612962	-0.030974	1.256992
C79	C	-0.568661	-0.024879	1.162296
C80	C	-0.569560	-0.031580	1.300597
C81	C	-0.742962	-0.030972	1.386988
C82	C	-0.837657	-0.024875	1.431284
C83	C	-0.699362	-0.031578	1.430396
C84	C	-0.612965	-0.030971	1.386995
C85	C	-0.568667	-0.024873	1.431299
C86	C	-0.699359	-0.031581	1.300590
C87	C	-0.742961	-0.612973	1.386991
C88	C	-0.837656	-0.568672	1.431290
C89	C	-0.699358	-0.699370	1.430395
C90	C	-0.612964	-0.612976	1.256992
C91	C	-0.568666	-0.568678	1.162295
C92	C	-0.569559	-0.699373	1.300593
C93	C	-0.612961	-0.742973	1.386992
C94	C	-0.568660	-0.837668	1.431292
C95	C	-0.699361	-0.569571	1.300593
C96	C	0.031013	-0.386995	0.613000
C97	C	0.024911	-0.431296	0.568702
C98	C	0.031622	-0.300598	0.569594
C99	C	0.031020	-0.386992	0.742998
C100	C	0.024927	-0.431289	0.837694
C101	C	0.031630	-0.300595	0.699394
C102	C	0.031019	-0.256996	0.612996
C103	C	0.024925	-0.162301	0.568694
C104	C	0.031623	-0.430397	0.699398
C105	C	-0.030942	-0.742988	1.386987
C106	C	-0.024863	-0.837678	1.431290
C107	C	-0.031521	-0.699397	1.430384
C108	C	-0.030938	-0.612990	1.256987
C109	C	-0.024856	-0.568687	1.162294
C110	C	-0.031517	-0.569597	1.300582
C111	C	-0.030897	-0.613005	1.386977
C112	C	-0.024769	-0.568717	1.431269
C113	C	-0.031562	-0.699382	1.300592
O114	O	-1.125650	0.021321	1.492466
O115	O	-0.874255	-0.021278	1.388081
O116	O	-1.021254	0.125720	1.388075
O117	O	-0.978651	-0.125676	1.492472
O118	O	-1.021260	0.125723	1.507481
O119	O	-0.874261	-0.021275	1.507487
O120	O	-1.125657	0.021324	1.611872
Cu121	Cu	-0.999959	0.000025	1.570582
Cu122	Cu	-0.999952	0.000021	1.429371
O123	O	-0.978657	-0.125673	1.611878
C124	C	-0.256977	0.031006	0.612997
C125	C	-0.162282	0.024909	0.568696
C126	C	-0.300581	0.031611	0.569594
C127	C	-0.386972	0.031007	0.742998
C128	C	-0.431268	0.024912	0.837695
C129	C	-0.430378	0.031612	0.699398
C130	C	-0.386978	0.031003	0.613000
C131	C	-0.431280	0.024905	0.568701
C132	C	-0.300575	0.031614	0.699396
H133	H	-0.265569	-0.501370	0.734410
O134	O	-0.258926	-0.258832	0.484856
C135	C	-0.305989	-0.234555	0.431461
H136	H	-0.377350	-0.229823	0.473609
H137	H	-0.275276	-0.286147	0.399071
C138	C	-0.214844	-0.150550	0.308187
C139	C	-0.302492	-0.144730	0.359953
H140	H	-0.212684	-0.095143	0.264074
H141	H	-0.183134	-0.166908	0.344159
H142	H	-0.189259	-0.193546	0.281203
H143	H	-0.328072	-0.101742	0.386943
H144	H	-0.334206	-0.128363	0.323983
O145	O	-0.484910	-0.032631	1.258899
C146	C	-0.480105	0.042705	1.254526
H147	H	-0.538454	0.068643	1.308732
H148	H	-0.481654	0.095524	1.187752
C149	C	-0.322277	-0.013249	1.200152
C150	C	-0.393939	0.018605	1.266733
H151	H	-0.269124	-0.028112	1.207677
H152	H	-0.325514	-0.064002	1.203094
H153	H	-0.323580	0.030773	1.144513
H154	H	-0.392641	-0.025420	1.322369
H155	H	-0.390700	0.069351	1.263800
H156	H	-0.734380	-0.032532	1.501377
H157	H	-0.265575	0.032587	0.498606
H158	H	-0.265556	-0.265570	1.032564
O159	O	-0.515014	-0.258804	0.741250
C160	C	-0.519839	-0.254468	0.817048
H161	H	-0.452611	-0.260130	0.809111
H162	H	-0.540807	-0.310728	0.876926
C163	C	-0.670171	-0.159130	0.839433
C164	C	-0.587602	-0.166077	0.829680
H165	H	-0.711973	-0.104609	0.847228
H166	H	-0.666922	-0.162054	0.788368
H167	H	-0.687633	-0.206019	0.889330
H168	H	-0.570137	-0.119196	0.779778
H169	H	-0.590850	-0.163144	0.880738
H170	H	-0.265564	0.032594	0.734397
O171	O	-0.258913	-0.515104	1.032864
C172	C	-0.305910	-0.568581	1.109005
H173	H	-0.377269	-0.526480	1.133583
H174	H	-0.275126	-0.601063	1.162235
C175	C	-0.214791	-0.691699	1.056882
C176	C	-0.302438	-0.639991	1.087065
H177	H	-0.212647	-0.735751	1.043350
H178	H	-0.183126	-0.655672	1.005586
H179	H	-0.189148	-0.718758	1.101245
H180	H	-0.328076	-0.612924	1.042697
H181	H	-0.334108	-0.676015	1.138353
H182	H	-0.032554	-0.734385	1.265592
O183	O	-0.515024	-0.258889	1.032664
C184	C	-0.519853	-0.254513	0.957338
H185	H	-0.461503	-0.308710	0.931385
H186	H	-0.518326	-0.187734	0.904523
C187	C	-0.677680	-0.200167	1.013334
C188	C	-0.606017	-0.266736	0.981463
H189	H	-0.730831	-0.207702	1.028213
H190	H	-0.674427	-0.203111	1.064082
H191	H	-0.676396	-0.144523	0.969316
H192	H	-0.607296	-0.322377	1.025485
H193	H	-0.609272	-0.263801	0.930723
H194	H	-0.501365	0.032585	0.734410
O195	O	-0.741058	-0.484847	0.967077
C196	C	-0.694013	-0.431395	0.890967
H197	H	-0.652400	-0.464633	0.838720
H198	H	-0.649400	-0.421406	0.907887
C199	C	-0.810211	-0.300775	0.919717
C200	C	-0.759107	-0.341596	0.855544
H201	H	-0.850362	-0.245382	0.897868
H202	H	-0.841905	-0.336787	0.970996
H203	H	-0.773024	-0.292460	0.933811
H204	H	-0.796292	-0.349921	0.841459
H205	H	-0.727420	-0.305584	0.804261
H206	H	0.032605	-0.265590	0.734404
H207	H	-0.498575	-0.734390	0.967413
O208	O	-0.741133	-0.741026	0.967053
C209	C	-0.765492	-0.693929	0.890920
H210	H	-0.721571	-0.652364	0.838697
H211	H	-0.836992	-0.649266	0.907818
C212	C	-0.808789	-0.810016	0.919617
C213	C	-0.754840	-0.758971	0.855473
H214	H	-0.802222	-0.850136	0.897752
H215	H	-0.792381	-0.841745	0.970911
H216	H	-0.868368	-0.772788	0.933692
H217	H	-0.695262	-0.796198	0.841406
H218	H	-0.771237	-0.727249	0.804175
O219	O	-0.741076	-0.032637	1.258708
C220	C	-0.745489	0.042705	1.182951
H221	H	-0.691285	0.068657	1.161132
H222	H	-0.812266	0.095513	1.198480
C223	C	-0.799898	-0.013261	1.135495
C224	C	-0.733319	0.018609	1.108692
H225	H	-0.792395	-0.028122	1.089689
H226	H	-0.796928	-0.064019	1.186535
H227	H	-0.855539	0.030751	1.148436
H228	H	-0.677680	-0.025406	1.095762
H229	H	-0.736279	0.069359	1.057647
O230	O	-0.484818	-0.741051	1.258864
C231	C	-0.431391	-0.693983	1.234489
H232	H	-0.464651	-0.652370	1.278366
H233	H	-0.421405	-0.649368	1.162970
C234	C	-0.300742	-0.810158	1.191316
C235	C	-0.341588	-0.759054	1.245210
H236	H	-0.245346	-0.850296	1.197925
H237	H	-0.336736	-0.841868	1.207734
H238	H	-0.292428	-0.772970	1.131721
H239	H	-0.349911	-0.796241	1.304804
H240	H	-0.305593	-0.727352	1.228803
H241	H	-0.734366	-0.734371	1.501384
H242	H	-0.734373	-0.498585	1.265588
H243	H	-0.032498	-0.734406	1.501374
H244	H	0.032615	-0.265605	0.498600
O245	O	0.032940	-0.515132	0.741082
C246	C	0.109050	-0.568579	0.694027
H247	H	0.161293	-0.535340	0.652416
H248	H	0.092127	-0.578561	0.649411
C249	C	0.080309	-0.699204	0.810213
C250	C	0.144478	-0.658382	0.759112
H251	H	0.102161	-0.754600	0.850359
H252	H	0.029030	-0.663196	0.841914
H253	H	0.066212	-0.707514	0.773023
H254	H	0.158565	-0.650063	0.796300
H255	H	0.195760	-0.694391	0.727419
O256	O	-0.032829	-0.484863	1.258844
C257	C	-0.108952	-0.431415	1.234473
H258	H	-0.161195	-0.464654	1.278358
H259	H	-0.092051	-0.421431	1.162958
C260	C	-0.080197	-0.300791	1.191274
C261	C	-0.144366	-0.341613	1.245180
H262	H	-0.102041	-0.245395	1.197875
H263	H	-0.028910	-0.336800	1.207690
H264	H	-0.066119	-0.292480	1.131683
H265	H	-0.158435	-0.349933	1.304771
H266	H	-0.195657	-0.305603	1.228775
