data_functionalizedCrystal
_audit_creation_method	'MofGen! by Chris Wilmer'
_symmetry_space_group_name_H-M	'P1'
_symmetry_Int_Tables_number	1
_symmetry_cell_setting	triclinic
loop_
_symmetry_equiv_pos_as_xyz
  x,y,z
_cell_length_a	10.489716
_cell_length_b	10.489716
_cell_length_c	7.540329
_cell_angle_alpha	89.999168
_cell_angle_beta	90.001239
_cell_angle_gamma	84.529136
loop_
_atom_site_label
_atom_site_type_symbol
_atom_site_fract_x
_atom_site_fract_y
_atom_site_fract_z
O1	O	1.694051	0.179818	0.147451
O2	O	1.322850	0.196744	0.147456
O3	O	1.516913	0.002681	0.147459
O4	O	1.499988	0.373882	0.147447
O5	O	1.516906	0.002679	-0.147506
O6	O	1.322843	0.196743	-0.147509
O7	O	1.694044	0.179817	-0.147514
Cu8	Cu	1.508443	0.188280	-0.174444
Cu9	Cu	1.508451	0.188281	0.174386
O10	O	1.499981	0.373880	-0.147518
C11	C	1.275314	0.195472	-0.000026
C12	C	1.133684	0.191667	-0.000023
C13	C	1.035999	0.310673	-0.000023
C14	C	0.958656	0.247787	-0.145462
C15	C	0.958669	0.247760	0.145350
C16	C	1.058205	0.128831	-0.145582
C17	C	1.058224	0.128822	0.145361
C18	C	0.980929	0.065848	-0.000114
C19	C	1.515638	-0.044852	-0.000018
C20	C	1.511833	-0.186483	-0.000001
C21	C	1.630839	-0.284167	-0.000019
C22	C	1.567957	-0.361522	0.145410
C23	C	1.567923	-0.361487	-0.145402
C24	C	1.449001	-0.261972	0.145548
C25	C	1.448984	-0.261932	-0.145395
C26	C	1.386015	-0.339237	0.000070
C27	C	1.741580	0.181089	-0.000029
C28	C	1.883210	0.184894	-0.000020
C29	C	1.501256	0.421413	-0.000037
C30	C	1.505061	0.563044	-0.000042
N31	N	1.508447	0.188278	-0.419793
N32	N	1.508457	0.188273	0.419734
H33	H	1.060659	0.414190	-0.000162
H34	H	1.618182	-0.404964	-0.268348
O35	O	1.382497	-0.204620	0.308597
H36	H	1.431583	-0.245526	0.429048
O37	O	0.901041	0.314328	-0.308331
H38	H	0.942487	0.265880	-0.428920
H39	H	1.282422	-0.363659	0.000150
H40	H	0.956508	-0.037744	-0.000194
O41	O	1.767952	-0.251484	0.000170
H42	H	1.785871	-0.195433	-0.120644
H43	H	1.398788	-0.218410	-0.268351
H44	H	1.101523	0.078622	-0.268661
H45	H	1.101727	0.078623	0.268326
O46	O	1.634510	-0.419165	0.308254
H47	H	1.671345	-0.342031	0.388748
H48	H	0.915184	0.298022	0.268290
