data_functionalizedCrystal
_audit_creation_method	'MofGen! by Chris Wilmer'
_symmetry_space_group_name_H-M	'P1'
_symmetry_Int_Tables_number	1
_symmetry_cell_setting	triclinic
loop_
_symmetry_equiv_pos_as_xyz
  x,y,z
_cell_length_a	16.109302
_cell_length_b	15.944493
_cell_length_c	14.586319
_cell_angle_alpha	90.002083
_cell_angle_beta	89.994552
_cell_angle_gamma	83.468412
loop_
_atom_site_label
_atom_site_type_symbol
_atom_site_fract_x
_atom_site_fract_y
_atom_site_fract_z
O1	O	1.103143	0.107972	-0.076269
O2	O	0.861083	0.121408	-0.076261
O3	O	0.988748	-0.007590	-0.076273
O4	O	0.975478	0.236970	-0.076257
O5	O	0.988739	-0.007592	0.076208
O6	O	0.861074	0.121406	0.076220
O7	O	1.103134	0.107970	0.076211
Cu8	Cu	0.982103	0.114688	0.090138
Cu9	Cu	0.982114	0.114690	-0.090188
O10	O	0.975469	0.236969	0.076224
C11	C	0.830103	0.120863	-0.000019
C12	C	0.737808	0.119231	-0.000017
C13	C	0.525462	0.115456	0.083091
C14	C	0.438742	0.113914	0.083088
C15	C	0.438762	0.113920	-0.083155
C16	C	0.525481	0.115456	-0.083151
C17	C	0.568828	0.116229	-0.000025
C18	C	0.395389	0.113150	-0.000032
C19	C	0.301363	0.111477	-0.000037
C20	C	0.662861	0.117900	-0.000020
C21	C	0.988201	-0.038886	-0.000036
C22	C	0.986575	-0.132134	-0.000048
C23	C	1.061722	-0.367918	-0.000033
C24	C	1.021203	-0.418472	-0.075212
C25	C	0.983562	-0.302854	-0.000037
C26	C	1.021176	-0.418450	0.075122
C27	C	0.980658	-0.467763	-0.000022
C28	C	0.943064	-0.352179	-0.075278
C29	C	0.943048	-0.352154	0.075124
C30	C	0.902472	-0.402675	-0.000074
C31	C	0.985238	-0.207855	-0.000046
C32	C	0.978976	-0.562759	-0.000019
C33	C	1.134114	0.108516	-0.000032
C34	C	1.226409	0.110148	-0.000041
C35	C	0.976016	0.268264	-0.000015
C36	C	0.977642	0.361512	-0.000009
N37	N	0.982102	0.114686	0.216970
N38	N	0.982122	0.114686	-0.217019
C39	C	1.038651	0.057585	0.451971
C40	C	1.038653	0.057583	0.547952
C41	C	0.925567	0.171790	0.547973
C42	C	0.925561	0.171787	0.451993
C43	C	0.982108	0.114686	0.403995
C44	C	0.982116	0.114686	0.595956
C45	C	0.982118	0.114684	0.700023
C46	C	0.982105	0.114686	0.299921
H47	H	0.403458	0.113292	-0.150833
H48	H	0.560791	0.116083	-0.150838
H49	H	0.560753	0.116085	0.150778
Br50	Br	0.790173	-0.428419	-0.000132
H51	H	1.054196	-0.447393	0.138676
H52	H	0.910065	-0.323183	0.138688
Br53	Br	0.848812	0.249280	0.386875
Br54	Br	1.173932	-0.341904	-0.000157
Br55	Br	0.888087	-0.304132	-0.181328
Br56	Br	0.848829	0.249284	0.613116
Br57	Br	1.076221	-0.466736	-0.181153
Br58	Br	1.115389	-0.019918	0.613062
Br59	Br	0.379890	0.112864	0.195894
Br60	Br	1.115391	-0.019912	0.386834
