data_functionalizedCrystal
_audit_creation_method	'MofGen! by Chris Wilmer'
_symmetry_space_group_name_H-M	'P1'
_symmetry_Int_Tables_number	1
_symmetry_cell_setting	triclinic
loop_
_symmetry_equiv_pos_as_xyz
  x,y,z
_cell_length_a	15.297979
_cell_length_b	21.295417
_cell_length_c	15.296720
_cell_angle_alpha	80.360665
_cell_angle_beta	91.645807
_cell_angle_gamma	99.689164
loop_
_atom_site_label
_atom_site_type_symbol
_atom_site_fract_x
_atom_site_fract_y
_atom_site_fract_z
Zn1	Zn	1.253358	-0.187256	0.727349
Zn2	Zn	1.278607	-0.271799	0.580868
Zn3	Zn	1.132238	-0.181140	0.555515
Zn4	Zn	1.106829	-0.307090	0.701884
O5	O	1.192758	-0.236821	0.641404
O6	O	1.379286	-0.186261	0.729185
O7	O	1.280391	-0.242444	0.454946
O8	O	1.148372	-0.093860	0.578356
O9	O	1.397836	-0.248374	0.621566
O10	O	1.237358	-0.098353	0.704602
O11	O	1.172855	-0.175837	0.436319
O12	O	1.006289	-0.210058	0.553664
O13	O	1.105066	-0.308523	0.827821
O14	O	0.987621	-0.302592	0.661201
O15	O	1.212720	-0.220481	0.846530
O16	O	1.255753	-0.364572	0.596874
O17	O	1.129549	-0.390500	0.685785
C18	C	0.965172	-0.259491	0.601919
C19	C	0.867805	-0.269208	0.585048
C20	C	0.831735	-0.306035	0.521001
C21	C	0.740254	-0.315166	0.505154
C22	C	0.684835	-0.287467	0.553348
C23	C	0.720906	-0.250635	0.617392
C24	C	0.812395	-0.241507	0.633245
C25	C	0.665495	-0.222938	0.665592
C26	C	0.701566	-0.186106	0.729636
C27	C	0.793046	-0.176980	0.745486
C28	C	0.848465	-0.204679	0.697292
C29	C	0.574006	-0.232066	0.649739
C30	C	0.554666	-0.167538	0.761983
C31	C	0.646147	-0.158407	0.777830
C32	C	1.192654	-0.400378	0.641340
C33	C	1.192685	-0.470344	0.641356
C34	C	1.238981	-0.505502	0.707127
C35	C	1.239008	-0.571245	0.707154
C36	C	1.192751	-0.601823	0.641396
C37	C	1.146445	-0.566658	0.575620
C38	C	1.146411	-0.500918	0.575600
N39	N	1.199411	-0.694892	0.563604
N40	N	1.199447	-0.757341	0.563626
C41	C	1.192846	-0.799893	0.641453
N42	N	1.186225	-0.777635	0.719262
N43	N	1.186194	-0.715179	0.719240
C44	C	1.192781	-0.673107	0.641411
C45	C	1.239174	-0.906337	0.707258
C46	C	1.239195	-0.972082	0.707286
C47	C	1.146638	-0.967492	0.575745
C48	C	1.146611	-0.901751	0.575725
C49	C	1.192884	-0.871177	0.641481
C50	C	1.421233	-0.214063	0.681044
C51	C	1.518596	-0.204365	0.697936
C52	C	1.153243	-0.269121	0.869842
C53	C	1.136403	-0.282885	0.967189
C54	C	1.192883	-0.072626	0.641491
C55	C	1.192936	-0.002656	0.641528
C56	C	1.232170	-0.204597	0.413863
C57	C	1.249179	-0.190639	0.316547
C58	C	1.313143	-0.138334	1.280557
C59	C	1.328970	-0.125402	1.189096
C60	C	1.280829	-0.164771	1.133615
C61	C	1.216860	-0.217075	1.169603
C62	C	1.201036	-0.230011	1.261074
C63	C	1.168723	-0.256449	1.114132
C64	C	1.104753	-0.308752	1.150121
C65	C	1.088932	-0.321685	1.241583
C66	C	1.137073	-0.282316	1.297064
C67	C	1.184546	-0.243513	1.022661
C68	C	1.072440	-0.335190	1.003179
C69	C	1.056613	-0.348121	1.094640
H70	H	0.922958	-0.197245	0.710189
F71	F	1.097133	-0.463500	0.505596
H72	H	1.108916	-0.873122	0.522165
H73	H	1.108968	-0.992390	0.522208
F74	F	0.831431	-0.137789	0.813658
F75	F	0.495689	-0.138057	0.813280
F76	F	1.120235	-0.296078	1.394410
H77	H	0.675529	-0.128418	0.829975
F78	F	1.364376	-0.096445	1.339608
H79	H	1.276657	-0.480611	0.760671
H80	H	1.276699	-0.599878	0.760721
H81	H	1.108780	-0.591560	0.522081
F82	F	1.288418	-0.873796	0.777243
H83	H	1.276894	-1.000707	0.760848
H84	H	1.236630	-0.200926	0.993368
F85	F	1.297674	-0.151006	1.036273
H86	H	1.381056	-0.082818	1.159801
H87	H	1.036851	-0.364279	1.270883
F88	F	0.988534	-0.403786	1.132953
H89	H	0.610348	-0.294903	0.540441
H90	H	0.876864	-0.328587	0.481772
H91	H	1.033241	-0.367249	0.958006
H92	H	0.544646	-0.262056	0.597594
H93	H	0.710892	-0.345155	0.453010
