data_functionalizedCrystal
_audit_creation_method	'MofGen! by Chris Wilmer'
_symmetry_space_group_name_H-M	'P1'
_symmetry_Int_Tables_number	1
_symmetry_cell_setting	triclinic
loop_
_symmetry_equiv_pos_as_xyz
  x,y,z
_cell_length_a	19.851628
_cell_length_b	14.560438
_cell_length_c	14.560438
_cell_angle_alpha	119.999504
_cell_angle_beta	89.994708
_cell_angle_gamma	59.997979
loop_
_atom_site_label
_atom_site_type_symbol
_atom_site_fract_x
_atom_site_fract_y
_atom_site_fract_z
Zr1	Zr	0.648974	1.005176	0.120401
O2	O	0.541402	1.196800	0.267066
O3	O	0.681950	0.813568	0.075443
O4	O	0.681944	1.005177	0.267046
O5	O	0.541415	1.005185	-0.075680
O6	O	0.792805	1.005159	0.267028
O7	O	0.541409	1.005191	0.075463
O8	O	0.792818	0.662406	-0.075715
O9	O	0.541402	1.347938	0.267063
O10	O	0.778750	0.892360	0.056252
O11	O	0.696019	0.892368	-0.056530
O12	O	0.696011	1.117963	0.169058
O13	O	0.613280	1.117971	0.056275
Zr14	Zr	0.825795	1.005138	-0.120683
Zr15	Zr	0.825786	1.005148	0.120372
Zr16	Zr	0.648983	1.005166	-0.120654
Zr17	Zr	0.648974	1.246223	0.120397
Zr18	Zr	0.825794	0.764090	-0.120679
O19	O	0.792818	1.196745	-0.075725
O20	O	0.792806	1.196760	0.267024
O21	O	0.541415	1.196786	-0.075684
O22	O	0.933367	0.813513	-0.267348
O23	O	0.933354	0.813528	0.075401
O24	O	0.681963	0.813554	-0.267306
O25	O	0.933354	1.005128	0.075398
O26	O	0.792825	1.005137	-0.267328
O27	O	0.681963	1.005154	-0.267310
O28	O	0.933360	1.005122	-0.075745
O29	O	0.681944	1.347915	0.267040
O30	O	0.792825	0.662398	-0.267322
O31	O	0.933366	0.662376	-0.267345
O32	O	0.933359	0.662384	-0.075738
O33	O	0.541409	1.347930	0.075456
O34	O	0.681951	1.347907	0.075433
O35	O	0.778758	0.892350	-0.169340
O36	O	0.861489	0.892342	-0.056558
O37	O	0.778750	1.117945	0.056248
O38	O	0.696019	1.117954	-0.056534
C39	C	0.737384	0.703643	-0.000135
C40	C	0.737384	0.601312	-0.000133
C41	C	0.516220	1.005192	-0.000104
C42	C	0.441159	1.005204	-0.000092
C43	C	0.780567	0.553231	0.058738
C44	C	0.780570	0.457072	0.058727
C45	C	0.694201	0.457086	-0.059027
C46	C	0.694203	0.553237	-0.059023
C47	C	0.214701	1.128184	0.061377
C48	C	0.192338	1.066699	0.105946
C49	C	0.303752	1.005170	-0.000124
C50	C	0.192374	1.066664	-0.044673
C51	C	0.171020	1.005147	-0.000155
C52	C	0.282378	0.943685	0.044507
C53	C	0.282412	0.943667	-0.106171
C54	C	0.260102	0.882093	-0.061628
C55	C	0.380214	1.005188	-0.000104
C56	C	0.094563	1.005120	-0.000173
C57	C	0.958549	1.005121	-0.000178
C58	C	1.033610	1.005109	-0.000190
C59	C	0.737373	1.005169	0.301382
C60	C	0.737369	1.005174	0.403716
C61	C	0.737385	1.306671	-0.000147
C62	C	0.737385	1.409002	-0.000149
C63	C	0.694181	1.122935	0.510677
C64	C	0.694189	1.122931	0.606827
C65	C	0.780575	0.887394	0.489042
C66	C	0.780572	0.887399	0.392895
C67	C	0.737391	1.005150	0.698339
C68	C	0.737381	1.005165	0.596014
C69	C	0.958549	0.703607	-0.000172
C70	C	1.033610	0.601264	-0.000183
C71	C	0.737395	0.703630	-0.301659
C72	C	0.737399	0.601295	-0.403991
C73	C	0.958560	0.703595	-0.301695
C74	C	1.033625	0.601248	-0.404040
C75	C	0.516209	1.306719	0.301413
C76	C	0.441144	1.409066	0.403758
C77	C	0.516220	1.306706	-0.000110
C78	C	0.441159	1.409049	-0.000100
C79	C	0.737374	1.306683	0.301376
C80	C	0.737370	1.409018	0.403709
C81	C	1.025670	0.553212	0.058708
C82	C	1.096191	0.457064	0.058721
C83	C	1.174651	0.408962	-0.000165
C84	C	1.182589	0.457023	-0.059057
C85	C	1.112069	0.553177	-0.059062
C86	C	1.112068	0.553180	-0.393231
C87	C	1.182606	0.457027	-0.489386
C88	C	1.174699	0.408937	-0.596348
C89	C	1.096248	0.457015	-0.607155
C90	C	1.025711	0.553172	-0.511001
C91	C	0.362701	1.457145	0.392949
C92	C	0.292163	1.553328	0.489103
C93	C	0.300070	1.601423	0.596066
C94	C	0.378521	1.553339	0.606873
C95	C	0.449058	1.457165	0.510719
C96	C	0.449099	1.457111	-0.058980
C97	C	0.378578	1.553286	-0.058966
C98	C	0.300118	1.601391	-0.000078
C99	C	0.292180	1.553325	0.058810
C100	C	0.362700	1.457158	0.058802
C101	C	0.780589	0.553206	-0.510952
C102	C	0.780583	0.457061	-0.607101
C103	C	0.694196	0.457097	-0.489312
C104	C	0.694197	0.553247	-0.393166
H105	H	0.815729	0.592370	0.106687
O106	O	0.223983	1.705168	0.699766
H107	H	0.186739	1.668273	0.699707
H108	H	0.384949	1.592511	0.693973
H109	H	0.659024	0.417963	-0.480513
H110	H	0.659023	0.592405	-0.306067
H111	H	0.385057	1.592406	-0.106924
O112	O	0.533665	1.405293	0.522383
H113	H	0.527304	1.454889	0.612917
O114	O	0.284730	0.744214	-0.130518
H115	H	0.353036	0.675828	-0.164082
O116	O	1.267216	0.405167	-0.477718
H117	H	1.260856	0.454748	-0.387185
O118	O	1.250710	0.305255	-0.000151
H119	H	1.287961	0.217627	-0.087829
H120	H	0.815751	0.417913	-0.694190
H121	H	0.512978	1.417951	-0.106942
H122	H	0.659021	1.218825	0.693915
O123	O	0.354161	1.405280	0.277589
H124	H	0.384241	1.423705	0.230952
H125	H	1.118545	0.592289	-0.107025
H126	H	0.242702	1.679697	-0.000080
O127	O	0.827180	0.605036	-0.522620
H128	H	0.802220	0.648852	-0.569297
H129	H	1.089822	0.417846	-0.694257
H130	H	0.961842	0.592297	-0.519818
H131	H	0.815735	0.417926	0.106664
O132	O	0.207554	1.605215	0.122325
H133	H	0.159858	1.680150	0.112422
H134	H	0.321223	0.891719	-0.195822
O135	O	0.140979	1.135545	-0.094571
H136	H	0.121507	1.237636	-0.043355
H137	H	0.659043	0.417933	-0.106972
O138	O	1.087622	0.405231	0.122238
H139	H	1.053388	0.361416	0.088197
O140	O	1.267215	0.405127	-0.122579
H141	H	1.314911	0.330181	-0.112686
O142	O	0.354133	1.405310	0.122300
H143	H	0.287726	1.454914	0.163236
O144	O	0.207556	1.605165	0.477425
H145	H	0.159829	1.680134	0.562250
O146	O	0.647621	0.605112	-0.122517
H147	H	0.617583	0.555546	-0.163452
H148	H	1.118521	0.592320	-0.306145
O149	O	0.647594	1.249956	0.522340
H150	H	0.617570	1.331841	0.612873
H151	H	0.815745	0.791498	0.305797
O152	O	0.190268	1.265954	0.130354
H153	H	0.153644	1.316721	0.218352
H154	H	0.961791	0.592376	0.106673
O155	O	0.827161	0.760368	0.477370
H156	H	0.819900	0.780146	0.562197
O157	O	0.140925	1.135552	0.224718
H158	H	0.078639	1.219347	0.245402
O159	O	0.333616	0.874885	0.094552
H160	H	0.389306	0.875484	0.094216
H161	H	1.232141	0.330639	-0.674633
