data_functionalizedCrystal
_audit_creation_method	'MofGen! by Chris Wilmer'
_symmetry_space_group_name_H-M	'P1'
_symmetry_Int_Tables_number	1
_symmetry_cell_setting	triclinic
loop_
_symmetry_equiv_pos_as_xyz
  x,y,z
_cell_length_a	17.019383
_cell_length_b	17.019294
_cell_length_c	15.186229
_cell_angle_alpha	86.117288
_cell_angle_beta	86.120670
_cell_angle_gamma	83.133350
loop_
_atom_site_label
_atom_site_type_symbol
_atom_site_fract_x
_atom_site_fract_y
_atom_site_fract_z
O1	O	1.046551	0.100555	-0.160135
O2	O	1.379884	0.433888	0.173198
O3	O	1.713217	0.767221	0.506532
O4	O	0.816874	0.113357	-0.143708
O5	O	1.150208	0.446691	0.189625
O6	O	1.483541	0.780024	0.522959
O7	O	0.938120	-0.007884	-0.143695
O8	O	1.271453	0.325450	0.189639
O9	O	1.604786	0.658783	0.522972
O10	O	0.925305	0.221796	-0.160148
O11	O	1.258638	0.555129	0.173185
O12	O	1.591972	0.888462	0.506518
O13	O	0.938112	-0.007885	0.002763
O14	O	1.271445	0.325448	0.336097
O15	O	1.604778	0.658781	0.669430
O16	O	0.816866	0.113356	0.002750
O17	O	1.150200	0.446689	0.336083
O18	O	1.483533	0.780022	0.669417
O19	O	1.046542	0.100553	-0.013677
O20	O	1.379876	0.433886	0.319656
O21	O	1.713209	0.767220	0.652990
Zn22	Zn	0.931703	0.106954	0.017790
Zn23	Zn	1.265036	0.440287	0.351123
Zn24	Zn	1.598370	0.773621	0.684457
Zn25	Zn	0.931714	0.106956	-0.175175
Zn26	Zn	1.265047	0.440290	0.158158
Zn27	Zn	1.598380	0.773623	0.491492
O28	O	0.925297	0.221794	-0.013690
O29	O	1.258630	0.555127	0.319643
O30	O	1.591964	0.888461	0.652976
C31	C	0.787482	0.112869	-0.068216
C32	C	1.120815	0.446202	0.265117
C33	C	1.454149	0.779536	0.598451
C34	C	0.699915	0.111407	-0.061472
C35	C	1.033248	0.444740	0.271862
C36	C	1.366581	0.778074	0.605195
C37	C	0.937630	-0.037273	-0.068201
C38	C	1.270963	0.296060	0.265132
C39	C	1.604296	0.629394	0.598466
C40	C	0.936172	-0.124842	-0.061453
C41	C	1.269505	0.208491	0.271881
C42	C	1.602839	0.541825	0.605214
C43	C	0.658772	0.110723	-0.138131
C44	C	0.992106	0.444056	0.195202
C45	C	1.325439	0.777389	0.528535
C46	C	0.576492	0.109362	-0.131782
C47	C	0.909825	0.442695	0.201551
C48	C	1.243159	0.776028	0.534884
C49	C	0.535356	0.108679	-0.048773
C50	C	0.868689	0.442012	0.284561
C51	C	1.202023	0.775345	0.617894
C52	C	0.576504	0.109365	0.027892
C53	C	0.909837	0.442699	0.361226
C54	C	1.243170	0.776032	0.694559
C55	C	0.658782	0.110732	0.021542
C56	C	0.992115	0.444066	0.354875
C57	C	1.325449	0.777399	0.688209
C58	C	0.286928	0.104557	-0.025606
C59	C	0.620261	0.437890	0.307727
C60	C	0.953595	0.771224	0.641061
C61	C	0.204644	0.103188	-0.019262
C62	C	0.537978	0.436521	0.314072
C63	C	0.871311	0.769854	0.647405
C64	C	0.204638	0.103185	-0.178937
C65	C	0.537971	0.436519	0.154396
C66	C	0.871305	0.769852	0.487730
C67	C	0.286919	0.104547	-0.185279
C68	C	0.620252	0.437881	0.148054
C69	C	0.953585	0.771214	0.481387
C70	C	0.328059	0.105238	-0.108615
C71	C	0.661392	0.438571	0.224719
C72	C	0.994725	0.771905	0.558052
C73	C	0.451252	0.107285	-0.042281
C74	C	0.784586	0.440618	0.291052
C75	C	1.117919	0.773952	0.624386
C76	C	0.412160	0.106638	-0.115108
C77	C	0.745493	0.439971	0.218226
C78	C	1.078827	0.773304	0.551559
C79	C	0.935494	-0.165976	-0.138116
C80	C	1.268827	0.167357	0.195217
C81	C	1.602160	0.500690	0.528550
C82	C	0.934119	-0.248256	-0.131772
C83	C	1.267452	0.085077	0.201561
C84	C	1.600786	0.418411	0.534894
C85	C	0.933429	-0.289400	-0.048765
C86	C	1.266762	0.043933	0.284569
C87	C	1.600095	0.377267	0.617902
C88	C	0.934105	-0.248259	0.027905
C89	C	1.267438	0.085074	0.361238
C90	C	1.600771	0.418407	0.694571
C91	C	0.935474	-0.165981	0.021560
C92	C	1.268807	0.167353	0.354894
C93	C	1.602140	0.500686	0.688227
C94	C	0.929290	-0.537828	-0.025615
C95	C	1.262623	-0.204495	0.307718
C96	C	1.595956	0.128838	0.641052
C97	C	0.927923	-0.620113	-0.019276
C98	C	1.261257	-0.286780	0.314057
C99	C	1.594590	0.046553	0.647390
C100	C	0.927936	-0.620104	-0.178954
C101	C	1.261269	-0.286771	0.154379
C102	C	1.594603	0.046563	0.487712
C103	C	0.929310	-0.537824	-0.185292
C104	C	1.262643	-0.204491	0.148042
C105	C	1.595976	0.128843	0.481375
C106	C	0.929982	-0.496690	-0.108622
C107	C	1.263315	-0.163357	0.224711
C108	C	1.596648	0.169977	0.558045
C109	C	0.932026	-0.373503	-0.042279
C110	C	1.265359	-0.040170	0.291055
C111	C	1.598693	0.293163	0.624388
C112	C	0.931378	-0.412588	-0.115109
C113	C	1.264712	-0.079254	0.218225
C114	C	1.598045	0.254079	0.551558
C115	C	1.075935	0.101041	-0.089171
C116	C	1.409268	0.434375	0.244162
C117	C	1.742601	0.767708	0.577496
C118	C	1.163502	0.102503	-0.095921
C119	C	1.496835	0.435837	0.237412
C120	C	1.830169	0.769170	0.570746
C121	C	0.925787	0.251183	-0.089186
C122	C	1.259120	0.584517	0.244147
C123	C	1.592454	0.917850	0.577481
C124	C	0.927245	0.338752	-0.095940
C125	C	1.260578	0.672085	0.237393
C126	C	1.593911	1.005419	0.570727
N127	N	0.931702	0.106952	0.149483
N128	N	1.265035	0.440285	0.482816
N129	N	1.598368	0.773619	0.816149
N130	N	0.931721	0.106952	-0.306868
N131	N	1.265055	0.440285	0.026466
N132	N	1.598388	0.773619	0.359799
C133	C	0.985407	0.053285	0.375209
C134	C	1.318741	0.386618	0.708542
C135	C	1.652074	0.719951	1.041876
C136	C	0.985410	0.053283	0.467398
C137	C	1.318743	0.386616	0.800732
C138	C	1.652076	0.719949	1.134065
C139	C	0.878010	0.160622	0.467400
C140	C	1.211343	0.493955	0.800733
C141	C	1.544677	0.827289	1.134067
C142	C	0.878004	0.160620	0.375213
C143	C	1.211338	0.493953	0.708546
C144	C	1.544671	0.827286	1.041879
C145	C	0.931707	0.106952	0.329119
C146	C	1.265041	0.440285	0.662452
C147	C	1.598374	0.773618	0.995786
C148	C	0.931716	0.106952	0.513496
C149	C	1.265049	0.440286	0.846829
C150	C	1.598382	0.773619	1.180163
C151	C	0.931718	0.106951	0.613452
C152	C	1.265051	0.440284	0.946785
C153	C	1.598385	0.773617	1.280119
C154	C	0.931704	0.106952	0.229157
C155	C	1.265038	0.440285	0.562490
C156	C	1.598371	0.773619	0.895823
H157	H	0.692260	0.111276	-0.205726
H158	H	1.025593	0.444610	0.127607
H159	H	1.358926	0.777943	0.460940
Cl160	Cl	0.933227	-0.299982	0.132259
Cl161	Cl	1.266561	0.033351	0.465592
Cl162	Cl	1.599894	0.366684	0.798925
Cl163	Cl	0.338627	0.105401	-0.289638
Cl164	Cl	0.671960	0.438734	0.043695
Cl165	Cl	1.005294	0.772068	0.377028
Cl166	Cl	0.933267	-0.299965	-0.228155
Cl167	Cl	1.266601	0.033368	0.105179
Cl168	Cl	1.599934	0.366702	0.438512
H169	H	0.927357	-0.653610	0.048322
H170	H	1.260690	-0.320277	0.381655
H171	H	1.594024	0.013057	0.714989
Cl172	Cl	0.524773	0.108502	-0.228159
Cl173	Cl	0.858107	0.441836	0.105174
Cl174	Cl	1.191440	0.775169	0.438507
H175	H	0.417750	0.106727	0.025306
H176	H	0.751084	0.440060	0.358639
H177	H	1.084417	0.773393	0.691972
H178	H	0.834287	0.204318	0.504938
H179	H	1.167621	0.537652	0.838272
H180	H	1.500954	0.870985	1.171605
Cl181	Cl	1.052917	-0.014187	0.317267
Cl182	Cl	1.386250	0.319147	0.650600
Cl183	Cl	1.719583	0.652480	0.983934
H184	H	0.171133	0.102625	-0.241353
H185	H	0.504466	0.435958	0.091980
H186	H	0.837799	0.769292	0.425314
H187	H	0.171151	0.102654	0.048337
H188	H	0.504484	0.435987	0.381670
H189	H	0.837817	0.769321	0.715003
Cl190	Cl	0.338636	0.105424	0.070774
Cl191	Cl	0.671970	0.438757	0.404107
Cl192	Cl	1.005303	0.772090	0.737440
H193	H	0.692278	0.111293	0.083966
H194	H	1.025612	0.444626	0.417300
H195	H	1.358945	0.777959	0.750633
H196	H	0.936015	-0.132488	0.083989
H197	H	1.269348	0.200845	0.417322
H198	H	1.602682	0.534178	0.750656
H199	H	0.445656	0.107198	-0.182694
H200	H	0.778989	0.440531	0.150639
H201	H	1.112322	0.773865	0.483973
Cl202	Cl	0.524789	0.108513	0.132248
Cl203	Cl	0.858122	0.441847	0.465581
Cl204	Cl	1.191455	0.775180	0.798914
H205	H	0.834272	0.204322	0.337684
H206	H	1.167605	0.537655	0.671017
H207	H	1.500938	0.870989	1.004351
H208	H	0.929873	-0.504330	-0.252885
H209	H	1.263206	-0.170997	0.080448
H210	H	1.596539	0.162336	0.413781
Cl211	Cl	1.052919	-0.014189	0.525338
Cl212	Cl	1.386253	0.319144	0.858671
Cl213	Cl	1.719586	0.652478	1.192004
H214	H	0.931466	-0.407012	0.025307
H215	H	1.264800	-0.073679	0.358640
H216	H	1.598133	0.259654	0.691973
Cl217	Cl	0.936367	-0.114261	-0.242475
Cl218	Cl	1.269700	0.219072	0.090859
Cl219	Cl	1.603033	0.552405	0.424192
Cl220	Cl	0.932251	-0.360863	-0.219458
Cl221	Cl	1.265584	-0.027530	0.113876
Cl222	Cl	1.598917	0.305804	0.447209
Cl223	Cl	0.927089	-0.671820	-0.275332
Cl224	Cl	1.260423	-0.338486	0.058001
Cl225	Cl	1.593756	-0.005153	0.391334
H226	H	0.929853	-0.504349	0.036814
H227	H	1.263186	-0.171016	0.370148
H228	H	1.596519	0.162318	0.703481
