data_functionalizedCrystal
_audit_creation_method	'MofGen! by Chris Wilmer'
_symmetry_space_group_name_H-M	'P1'
_symmetry_Int_Tables_number	1
_symmetry_cell_setting	triclinic
loop_
_symmetry_equiv_pos_as_xyz
  x,y,z
_cell_length_a	27.731993
_cell_length_b	27.732048
_cell_length_c	12.503552
_cell_angle_alpha	86.514598
_cell_angle_beta	93.481552
_cell_angle_gamma	82.631525
loop_
_atom_site_label
_atom_site_type_symbol
_atom_site_fract_x
_atom_site_fract_y
_atom_site_fract_z
O1	O	0.643747	0.054585	0.089042
O2	O	1.143747	0.554585	0.589042
O3	O	0.502952	0.063355	0.089109
O4	O	1.002952	0.563355	0.589109
O5	O	0.577722	-0.011427	0.089053
O6	O	1.077722	0.488573	0.589053
O7	O	0.568978	0.129367	0.089098
O8	O	1.068978	0.629367	0.589098
O9	O	0.572092	-0.005798	-0.089586
O10	O	1.072092	0.494202	0.410414
O11	O	0.497323	0.068985	-0.089530
O12	O	0.997323	0.568985	0.410470
O13	O	0.638118	0.060214	-0.089597
O14	O	1.138118	0.560214	0.410403
Cu15	Cu	0.567206	0.065113	-0.105874
Cu16	Cu	1.067206	0.565113	0.394126
Cu17	Cu	0.573864	0.058456	0.105386
Cu18	Cu	1.073864	0.558456	0.605386
O19	O	0.563348	0.134996	-0.089541
O20	O	1.063348	0.634996	0.410459
C21	C	0.482130	0.065990	-0.000202
C22	C	0.982130	0.565990	0.499798
C23	C	0.428475	0.065447	-0.000177
C24	C	0.928475	0.565447	0.499823
C25	C	0.048382	0.058449	0.097145
C26	C	0.548382	0.558449	0.597145
C27	C	0.250040	0.060515	0.097175
C28	C	0.750040	0.560515	0.597175
O29	O	0.278723	0.058154	0.179991
O30	O	0.778723	0.558154	0.679991
N31	N	0.272192	0.063842	-0.000199
N32	N	0.772192	0.563842	0.499801
C33	C	0.243926	0.066650	-0.097587
C34	C	0.743926	0.566650	0.402413
O35	O	0.267395	0.069522	-0.180408
O36	O	0.767395	0.569522	0.319592
C37	C	0.042269	0.064580	-0.097615
C38	C	0.542269	0.564580	0.402385
C39	C	0.020119	0.061258	-0.000235
C40	C	0.520119	0.561258	0.499765
C41	C	0.026232	0.055127	0.194517
C42	C	0.526232	0.555127	0.694517
C43	C	-0.024180	0.054613	0.194508
C44	C	0.475820	0.554613	0.694508
C45	C	-0.052442	0.057422	0.097128
C46	C	0.447558	0.557422	0.597128
C47	C	-0.030293	0.060744	-0.000244
C48	C	0.469707	0.560744	0.499756
C49	C	0.014005	0.067384	-0.195002
C50	C	0.514005	0.567384	0.304998
C51	C	-0.036412	0.066865	-0.195000
C52	C	0.463588	0.566865	0.305000
C53	C	-0.058562	0.063543	-0.097621
C54	C	0.441438	0.563543	0.402379
C55	C	-0.108967	0.063039	-0.097632
C56	C	0.391033	0.563039	0.402368
N57	N	-0.131118	0.059712	-0.000259
N58	N	0.368882	0.559712	0.499741
C59	C	-0.102856	0.056903	0.097121
C60	C	0.397144	0.556903	0.597121
C61	C	0.349799	0.067737	-0.097565
C62	C	0.849799	0.567737	0.402435
C63	C	0.400212	0.068255	-0.097558
C64	C	0.900212	0.568255	0.402442
C65	C	0.406323	0.062120	0.097204
C66	C	0.906323	0.562120	0.597204
C67	C	0.355908	0.061605	0.097196
C68	C	0.855908	0.561605	0.597196
C69	C	0.327647	0.064410	-0.000191
C70	C	0.827647	0.564410	0.499809
C71	C	-0.208725	0.055825	0.097096
C72	C	0.291275	0.555825	0.597096
C73	C	-0.259142	0.055313	0.097079
C74	C	0.240858	0.555313	0.597079
C75	C	-0.265248	0.061446	-0.097682
C76	C	0.234752	0.561446	0.402318
C77	C	-0.214836	0.061960	-0.097665
C78	C	0.285164	0.561960	0.402335
C79	C	-0.186575	0.059148	-0.000268
C80	C	0.313425	0.559148	0.499732
O81	O	-0.137679	0.065394	-0.180405
O82	O	0.362321	0.565394	0.319595
O83	O	-0.126333	0.054021	0.179930
O84	O	0.373667	0.554021	0.679930
C85	C	0.098794	0.058963	0.097153
C86	C	0.598794	0.558963	0.597153
C87	C	0.120943	0.062286	-0.000218
C88	C	0.620943	0.562286	0.499782
C89	C	0.092681	0.065094	-0.097599
C90	C	0.592681	0.565094	0.402401
C91	C	0.171357	0.062804	-0.000212
C92	C	0.671357	0.562804	0.499788
C93	C	0.199619	0.059995	0.097169
C94	C	0.699619	0.559995	0.597169
C95	C	0.177468	0.056668	0.194542
C96	C	0.677468	0.556668	0.694542
C97	C	0.127056	0.056154	0.194534
C98	C	0.627056	0.556154	0.694534
C99	C	0.114833	0.068421	-0.194972
C100	C	0.614833	0.568421	0.305028
C101	C	0.165245	0.068935	-0.194956
C102	C	0.665245	0.568935	0.305044
C103	C	0.193507	0.066127	-0.097576
C104	C	0.693507	0.566127	0.402424
C105	C	0.574723	-0.026619	-0.000269
C106	C	1.074723	0.473381	0.499731
C107	C	0.574170	-0.080274	-0.000278
C108	C	1.074170	0.419726	0.499722
C109	C	0.614876	-0.419098	-0.000242
C110	C	1.114876	0.080902	0.499758
C111	C	0.612826	-0.620758	-0.000226
C112	C	1.112826	-0.120758	0.499774
O113	O	0.650048	-0.652021	-0.000197
O114	O	1.150048	-0.152021	0.499803
N115	N	0.568490	-0.639873	-0.000206
N116	N	1.068490	-0.139873	0.499794
C117	C	0.524664	-0.608571	-0.000183
C118	C	1.024664	-0.108571	0.499817
O119	O	0.486907	-0.629457	-0.000154
O120	O	0.986907	-0.129457	0.499846
C121	C	0.526715	-0.406912	-0.000191
C122	C	1.026715	0.093088	0.499809
C123	C	0.571054	-0.387799	-0.000222
C124	C	1.071054	0.112201	0.499778
C125	C	0.659211	-0.399984	-0.000272
C126	C	1.159211	0.100016	0.499728
C127	C	0.659723	-0.349572	-0.000282
C128	C	1.159723	0.150428	0.499718
C129	C	0.615900	-0.318274	-0.000262
C130	C	1.115900	0.181726	0.499738
C131	C	0.571566	-0.337387	-0.000232
C132	C	1.071566	0.162613	0.499768
C133	C	0.482890	-0.375611	-0.000160
C134	C	0.982890	0.124389	0.499840
C135	C	0.483407	-0.325194	-0.000160
C136	C	0.983407	0.174806	0.499840
C137	C	0.527745	-0.306081	-0.000191
C138	C	1.027745	0.193919	0.499809
C139	C	0.528255	-0.255676	-0.000222
C140	C	1.028255	0.244324	0.499778
N141	N	0.572591	-0.236561	-0.000242
N142	N	1.072591	0.263439	0.499758
C143	C	0.616413	-0.267859	-0.000262
C144	C	1.116413	0.232141	0.499738
C145	C	0.523590	-0.714445	-0.000181
C146	C	1.023590	-0.214445	0.499819
C147	C	0.523077	-0.764859	-0.000181
C148	C	1.023077	-0.264859	0.499819
C149	C	0.611239	-0.777042	-0.000222
C150	C	1.111239	-0.277042	0.499778
C151	C	0.611751	-0.726627	-0.000230
C152	C	1.111751	-0.226627	0.499770
C153	C	0.567926	-0.695329	-0.000201
C154	C	1.067926	-0.195329	0.499799
C155	C	0.617485	-0.161990	-0.000284
C156	C	1.117485	0.338010	0.499716
C157	C	0.617993	-0.111572	-0.000298
C158	C	1.117993	0.388428	0.499702
C159	C	0.529832	-0.099393	-0.000251
C160	C	1.029832	0.400607	0.499749
C161	C	0.529323	-0.149806	-0.000242
C162	C	1.029323	0.350194	0.499758
C163	C	0.573154	-0.181104	-0.000255
C164	C	1.073154	0.318896	0.499745
O165	O	0.491053	-0.224384	-0.000239
O166	O	0.991053	0.275616	0.499761
O167	O	0.654166	-0.246964	-0.000267
O168	O	1.154166	0.253036	0.499733
C169	C	0.614364	-0.469510	-0.000232
C170	C	1.114364	0.030490	0.499768
C171	C	0.570030	-0.488624	-0.000203
C172	C	1.070030	0.011376	0.499797
C173	C	0.526207	-0.457325	-0.000183
C174	C	1.026207	0.042675	0.499817
C175	C	0.569517	-0.539038	-0.000202
C176	C	1.069517	-0.039038	0.499798
C177	C	0.613339	-0.570336	-0.000222
C178	C	1.113339	-0.070336	0.499778
C179	C	0.657675	-0.551221	-0.000243
C180	C	1.157675	-0.051221	0.499757
C181	C	0.658187	-0.500809	-0.000252
C182	C	1.158187	-0.000809	0.499748
C183	C	0.481871	-0.476441	-0.000162
C184	C	0.981871	0.023559	0.499838
C185	C	0.481363	-0.526853	-0.000154
C186	C	0.981363	-0.026853	0.499846
C187	C	0.525185	-0.558152	-0.000174
C188	C	1.025185	-0.058152	0.499826
C189	C	0.658940	0.057579	-0.000284
C190	C	1.158940	0.557579	0.499716
C191	C	0.712596	0.058122	-0.000301
C192	C	1.212596	0.558122	0.499699
C193	C	0.566347	0.150188	-0.000216
C194	C	1.066347	0.650188	0.499784
C195	C	0.566900	0.203842	-0.000201
C196	C	1.066900	0.703842	0.499799
N197	N	0.562527	0.069795	-0.254463
N198	N	1.062527	0.569795	0.245537
C199	C	0.585427	0.046882	-0.526914
C200	C	1.085427	0.546882	-0.026914
C201	C	0.555648	0.076682	-0.473567
C202	C	1.055648	0.576682	0.026433
C203	C	0.559476	0.072849	-0.351647
C204	C	1.059476	0.572849	0.148353
C205	C	0.581600	0.050714	-0.648846
C206	C	1.081600	0.550714	-0.148846
N207	N	0.578547	0.053770	0.253975
N208	N	1.078547	0.553770	0.753975
H209	H	-0.185721	0.053535	0.176407
H210	H	0.314279	0.553535	0.676407
H211	H	0.613796	0.018492	-0.481025
H212	H	1.113796	0.518492	0.018975
H213	H	0.646921	-0.802535	-0.000239
H214	H	1.146921	-0.302535	0.499761
H215	H	0.337877	0.058900	0.176491
H216	H	0.837877	0.558900	0.676491
H217	H	0.654100	-0.096014	-0.000326
H218	H	1.154100	0.403986	0.499674
C219	C	0.434114	-0.396624	-0.000119
C220	C	0.934114	0.103376	0.499881
N221	N	0.397373	-0.412449	-0.000084
N222	N	0.897373	0.087551	0.499916
H223	H	0.487900	-0.688966	-0.000157
H224	H	0.987900	-0.188966	0.499843
H225	H	0.418241	0.070968	-0.176854
H226	H	0.918241	0.570968	0.323146
C227	C	0.517325	0.115042	-0.535566
C228	C	1.017325	0.615042	-0.035566
N229	N	0.488464	0.143937	-0.582268
N230	N	0.988464	0.643937	-0.082268
C231	C	0.437422	0.059027	0.204323
C232	C	0.937422	0.559027	0.704323
N233	N	0.460848	0.056693	0.285001
N234	N	0.960848	0.556693	0.785001
H235	H	0.326793	0.070020	-0.176873
H236	H	0.826793	0.570020	0.323127
H237	H	0.494152	-0.073901	-0.000238
H238	H	0.994152	0.426099	0.499762
C239	C	-0.283503	0.051655	0.204209
C240	C	0.216497	0.551655	0.704209
N241	N	-0.301849	0.048897	0.284897
N242	N	0.198151	0.548897	0.784897
C243	C	0.189603	0.072590	-0.302089
C244	C	0.689603	0.572590	0.197911
N245	N	0.207949	0.075338	-0.382780
N246	N	0.707949	0.575338	0.117220
H247	H	0.200487	0.054384	0.273833
H248	H	0.700487	0.554384	0.773833
H249	H	0.493218	-0.165368	-0.000247
H250	H	0.993218	0.334632	0.499753
C251	C	-0.048536	0.050948	0.301635
C252	C	0.451464	0.550948	0.801635
N253	N	-0.066878	0.048183	0.382329
N254	N	0.433122	0.548183	0.882329
H255	H	0.653177	-0.187467	-0.000290
H256	H	1.153177	0.312533	0.499710
H257	H	-0.288269	0.063735	-0.176966
H258	H	0.211731	0.563735	0.323034
C259	C	0.705880	-0.585659	-0.000263
C260	C	1.205880	-0.085659	0.499737
N261	N	0.742187	-0.611600	-0.000271
N262	N	1.242187	-0.111600	0.499729
C263	C	0.057313	0.052036	0.301653
C264	C	0.557313	0.552036	0.801653
N265	N	0.080720	0.049710	0.382354
N266	N	0.580720	0.549710	0.882354
H267	H	0.032030	0.070088	-0.274299
H268	H	0.532030	0.570088	0.225701
H269	H	0.447718	-0.299713	-0.000135
H270	H	0.947718	0.200287	0.499865
C271	C	-0.190471	0.065619	-0.204787
C272	C	0.309529	0.565619	0.295213
N273	N	-0.172123	0.068369	-0.285474
N274	N	0.327877	0.568369	0.214526
C275	C	-0.067497	0.069954	-0.302137
C276	C	0.432503	0.569954	0.197863
N277	N	-0.090909	0.072282	-0.382832
N278	N	0.409091	0.572282	0.117168
C279	C	0.706963	-0.479792	-0.000280
C280	C	1.206963	0.020208	0.499720
N281	N	0.743704	-0.463965	-0.000297
N282	N	1.243704	0.036035	0.499703
H283	H	0.445254	-0.542409	-0.000138
H284	H	0.945254	-0.042409	0.499862
H285	H	0.109026	0.053449	0.273831
H286	H	0.609026	0.553449	0.773831
H287	H	0.695828	-0.334016	-0.000303
H288	H	1.195828	0.165984	0.499697
H289	H	0.091827	0.070706	-0.274273
H290	H	0.591827	0.570706	0.225727
C291	C	0.660527	-0.705608	-0.000254
C292	C	1.160527	-0.205608	0.499746
N293	N	0.697267	-0.689779	-0.000269
N294	N	1.197267	-0.189779	0.499731
C295	C	0.474301	-0.785877	-0.000160
C296	C	0.974301	-0.285877	0.499840
N297	N	0.437562	-0.801706	-0.000137
N298	N	0.937562	-0.301706	0.499863
H299	H	0.446185	-0.450962	-0.000144
H300	H	0.946185	0.049038	0.499856
H301	H	0.694899	-0.425463	-0.000284
H302	H	1.194899	0.074537	0.499716
