data_functionalizedCrystal
_audit_creation_method	'MofGen! by Chris Wilmer'
_symmetry_space_group_name_H-M	'P1'
_symmetry_Int_Tables_number	1
_symmetry_cell_setting	triclinic
loop_
_symmetry_equiv_pos_as_xyz
  x,y,z
_cell_length_a	21.395364
_cell_length_b	19.120786
_cell_length_c	19.120904
_cell_angle_alpha	89.866497
_cell_angle_beta	92.422135
_cell_angle_gamma	92.480057
loop_
_atom_site_label
_atom_site_type_symbol
_atom_site_fract_x
_atom_site_fract_y
_atom_site_fract_z
Zn1	Zn	0.931946	-0.295776	-0.384484
Zn2	Zn	1.431946	0.204224	0.115516
Zn3	Zn	0.932254	-0.408020	-0.262244
Zn4	Zn	1.432254	0.091980	0.237756
Zn5	Zn	0.831825	-0.290824	-0.267262
Zn6	Zn	1.331825	0.209176	0.232738
Zn7	Zn	0.822871	-0.413014	-0.379439
Zn8	Zn	1.322871	0.086986	0.120561
O9	O	0.879724	-0.351908	-0.323357
O10	O	1.379724	0.148092	0.176643
O11	O	1.019665	-0.310648	-0.368281
O12	O	1.519665	0.189352	0.131719
O13	O	0.922807	-0.388311	-0.164805
O14	O	1.422807	0.111689	0.335195
O15	O	0.848725	-0.193369	-0.287023
O16	O	1.348725	0.306631	0.212977
O17	O	1.019891	-0.393113	-0.278471
O18	O	1.519891	0.106887	0.221529
O19	O	0.922284	-0.197007	-0.373146
O20	O	1.422284	0.302993	0.126854
O21	O	0.849023	-0.302208	-0.168491
O22	O	1.349023	0.197792	0.331509
O23	O	0.742959	-0.307050	-0.282131
O24	O	1.242959	0.192950	0.217869
O25	O	0.833464	-0.401625	-0.478213
O26	O	1.333464	0.098375	0.021787
O27	O	0.736381	-0.396823	-0.364547
O28	O	1.236381	0.103177	0.135453
O29	O	0.913601	-0.315490	-0.481920
O30	O	1.413601	0.184510	0.018080
O31	O	0.914125	-0.506794	-0.273578
O32	O	1.414125	-0.006794	0.226422
O33	O	0.833762	-0.510463	-0.359681
O34	O	1.333762	-0.010463	0.140319
C35	C	0.716936	-0.351942	-0.323336
C36	C	1.216936	0.148058	0.176664
C37	C	0.647293	-0.351974	-0.323343
C38	C	1.147293	0.148026	0.176657
C39	C	0.614479	-0.309110	-0.370173
C40	C	1.114479	0.190890	0.129827
C41	C	0.549045	-0.309092	-0.370176
C42	C	1.049045	0.190908	0.129824
C43	C	0.516425	-0.351949	-0.323357
C44	C	1.016425	0.148051	0.176643
C45	C	0.549247	-0.394815	-0.276518
C46	C	1.049247	0.105185	0.223482
C47	C	0.614681	-0.394827	-0.276511
C48	C	1.114681	0.105173	0.223489
C49	C	0.410630	-0.414850	-0.315025
C50	C	0.910630	0.085150	0.184975
C51	C	0.345197	-0.414839	-0.315037
C52	C	0.845197	0.085161	0.184963
C53	C	0.314605	-0.351911	-0.323374
C54	C	0.814605	0.148089	0.176626
C55	C	0.349454	-0.288993	-0.331714
C56	C	0.849454	0.211007	0.168286
C57	C	0.414888	-0.289005	-0.331707
C58	C	0.914888	0.210995	0.168293
C59	C	0.445473	-0.351941	-0.323359
C60	C	0.945473	0.148059	0.176641
C61	C	0.210840	-0.309024	-0.370210
C62	C	0.710840	0.190976	0.129790
C63	C	0.145404	-0.309004	-0.370209
C64	C	0.645404	0.190996	0.129791
C65	C	0.145607	-0.394734	-0.276554
C66	C	0.645607	0.105266	0.223446
C67	C	0.211042	-0.394748	-0.276552
C68	C	0.711042	0.105252	0.223448
C69	C	0.243654	-0.351894	-0.323384
C70	C	0.743654	0.148106	0.176616
C71	C	0.873021	-0.534069	-0.315553
C72	C	1.373021	-0.034069	0.184447
C73	C	0.870210	-0.611998	-0.312238
C74	C	1.370210	-0.111998	0.187762
C75	C	0.907157	-0.650445	-0.355556
C76	C	1.407157	-0.150445	0.144444
C77	C	0.904513	-0.723669	-0.352442
C78	C	1.404513	-0.223669	0.147558
C79	C	0.864926	-0.758444	-0.306006
C80	C	1.364926	-0.258444	0.193994
C81	C	0.827975	-0.719992	-0.262686
C82	C	1.327975	-0.219992	0.237314
C83	C	0.830616	-0.646770	-0.265803
C84	C	1.330616	-0.146770	0.234197
C85	C	0.855034	-0.979435	-0.294350
C86	C	1.355034	-0.479435	0.205650
C87	C	0.852398	-1.052662	-0.291234
C88	C	1.352398	-0.552662	0.208766
C89	C	0.928934	-1.056334	-0.380992
C90	C	1.428934	-0.556334	0.119008
C91	C	0.931575	-0.983111	-0.384103
C92	C	1.431575	-0.483111	0.115897
C93	C	0.894622	-0.944665	-0.340785
C94	C	1.394622	-0.444665	0.159215
C95	C	0.862224	-0.833290	-0.302820
C96	C	1.362224	-0.333290	0.197180
C97	C	0.897321	-0.869821	-0.343975
C98	C	1.397321	-0.369821	0.156025
C99	C	1.043148	-0.351876	-0.323379
C100	C	1.543148	0.148124	0.176621
C101	C	1.112789	-0.351862	-0.323388
C102	C	1.612789	0.148138	0.176612
C103	C	0.872500	-0.359667	-0.506215
C104	C	1.372500	0.140333	-0.006215
C105	C	0.869421	-0.362973	-0.584138
C106	C	1.369421	0.137027	-0.084138
C107	C	0.886469	-0.169038	-0.331207
C108	C	1.386469	0.330962	0.168793
C109	C	0.889344	-0.091109	-0.334553
C110	C	1.389344	0.408891	0.165447
C111	C	0.909696	-0.319683	-0.622678
C112	C	1.409696	0.180317	-0.122678
C113	C	0.906795	-0.322787	-0.695895
C114	C	1.406795	0.177213	-0.195895
C115	C	0.863623	-0.369185	-0.730571
C116	C	1.363623	0.130815	-0.230571
C117	C	0.823344	-0.412477	-0.692026
C118	C	1.323344	0.087523	-0.192026
C119	C	0.826242	-0.409369	-0.618810
C120	C	1.326242	0.090631	-0.118810
C121	C	0.852784	-0.380810	-0.951538
C122	C	1.352784	0.119190	-0.451538
C123	C	0.849891	-0.383916	-1.024759
C124	C	1.349891	0.116084	-0.524759
C125	C	0.933342	-0.294224	-1.028623
C126	C	1.433342	0.205776	-0.528623
C127	C	0.936238	-0.291123	-0.955405
C128	C	1.436238	0.208877	-0.455405
C129	C	0.895957	-0.334413	-0.916867
C130	C	1.395957	0.165587	-0.416867
C131	C	0.860659	-0.372361	-0.805410
C132	C	1.360659	0.127639	-0.305410
C133	C	0.898918	-0.331233	-0.842029
C134	C	1.398918	0.168767	-0.342029
C135	C	0.886958	-0.344129	-0.141213
C136	C	1.386958	0.155871	0.358787
C137	C	0.890165	-0.340626	-0.063299
C138	C	1.390165	0.159374	0.436701
H139	H	0.237759	-0.429655	-0.238420
H140	H	0.737759	0.070345	0.261580
Cl141	Cl	0.990514	-0.232792	-0.911818
Cl142	Cl	1.490514	0.267208	-0.411818
Cl143	Cl	0.507784	-0.255202	-0.429052
Cl144	Cl	1.007784	0.244798	0.070948
H145	H	0.939593	-0.287537	-0.727271
H146	H	1.439593	0.212463	-0.227271
Cl147	Cl	0.963976	-0.261354	-0.579092
Cl148	Cl	1.463976	0.238646	-0.079092
H149	H	0.316828	-0.466071	-0.308249
H150	H	0.816828	0.033929	0.191751
H151	H	0.819993	-0.416069	-0.920169
H152	H	1.319993	0.083931	-0.420169
Cl153	Cl	0.947082	-0.826103	-0.402353
Cl154	Cl	1.447082	-0.326103	0.097647
H155	H	0.118688	-0.274096	-0.408343
H156	H	0.618688	0.225904	0.091657
H157	H	0.934603	-0.754969	-0.387711
H158	H	1.434603	-0.254969	0.112289
Cl159	Cl	0.953184	-0.272899	-0.798435
Cl160	Cl	1.453184	0.227101	-0.298435
H161	H	0.824947	-0.948138	-0.259078
H162	H	1.324947	-0.448138	0.240922
H163	H	0.825511	-0.410142	-0.833652
H164	H	1.325511	0.089858	-0.333652
H165	H	0.829994	-0.861612	-0.265010
H166	H	1.329994	-0.361612	0.234990
H167	H	0.788190	-0.450253	-0.720265
H168	H	1.288190	0.049747	-0.220265
Cl169	Cl	0.975383	-1.104670	-0.435448
Cl170	Cl	1.475383	-0.604670	0.064552
Cl171	Cl	0.251841	-0.255147	-0.429078
Cl172	Cl	0.751841	0.244853	0.070922
H173	H	0.939395	-0.622137	-0.393366
H174	H	1.439395	-0.122137	0.106634
H175	H	0.119049	-0.429630	-0.238432
H176	H	0.619049	0.070370	0.261568
H177	H	0.966136	-0.258980	-1.060008
H178	H	1.466136	0.241020	-0.560008
Cl179	Cl	0.775606	-0.463792	-0.570361
Cl180	Cl	1.275606	0.036208	-0.070361
H181	H	0.795740	-0.748311	-0.224879
H182	H	1.295740	-0.248311	0.275121
H183	H	0.800530	-0.615467	-0.230530
H184	H	1.300530	-0.115467	0.269470
Cl185	Cl	0.981342	-0.939399	-0.442483
Cl186	Cl	1.481342	-0.439399	0.057517
Cl187	Cl	0.655474	-0.255235	-0.429046
Cl188	Cl	1.155474	0.244765	0.070954
Cl189	Cl	0.458695	-0.209912	-0.342187
Cl190	Cl	0.958695	0.290088	0.157813
H191	H	0.814733	-0.421701	-1.052990
H192	H	1.314733	0.078299	-0.552990
Cl193	Cl	0.311003	-0.209879	-0.342194
Cl194	Cl	0.811003	0.290121	0.157806
Cl195	Cl	0.449082	-0.493965	-0.304534
Cl196	Cl	0.949082	0.006035	0.195466
H197	H	0.522684	-0.429710	-0.238396
H198	H	1.022684	0.070290	0.261604
H199	H	0.641398	-0.429733	-0.238375
H200	H	1.141398	0.070267	0.261625
H201	H	0.820158	-1.080974	-0.253419
H202	H	1.320158	-0.580974	0.246581
