data_functionalizedCrystal
_audit_creation_method	'MofGen! by Chris Wilmer'
_symmetry_space_group_name_H-M	'P1'
_symmetry_Int_Tables_number	1
_symmetry_cell_setting	triclinic
loop_
_symmetry_equiv_pos_as_xyz
  x,y,z
_cell_length_a	15.944551
_cell_length_b	15.944551
_cell_length_c	15.021413
_cell_angle_alpha	89.996935
_cell_angle_beta	89.997174
_cell_angle_gamma	96.501262
loop_
_atom_site_label
_atom_site_type_symbol
_atom_site_fract_x
_atom_site_fract_y
_atom_site_fract_z
O1	O	1.114529	-0.108321	-0.073941
O2	O	0.869979	-0.121677	-0.073964
O3	O	0.998932	0.007276	-0.073944
O4	O	0.985576	-0.237274	-0.073961
O5	O	0.998912	0.007257	0.074121
O6	O	0.869959	-0.121695	0.074101
O7	O	1.114508	-0.108339	0.074123
Zn8	Zn	0.992230	-0.115020	0.097620
Zn9	Zn	0.992257	-0.114996	-0.097461
O10	O	0.985555	-0.237292	0.074103
C11	C	0.838675	-0.121132	0.000066
C12	C	0.745429	-0.119470	0.000057
C13	C	0.530572	-0.035565	0.000081
C14	C	0.469562	-0.074518	-0.072926
C15	C	0.574703	-0.116462	0.000068
C16	C	0.469564	-0.074556	0.073054
C17	C	0.409790	-0.113551	0.000083
C18	C	0.514921	-0.155438	-0.072998
C19	C	0.514930	-0.155464	0.073047
C20	C	0.453937	-0.194476	0.000023
C21	C	0.669705	-0.118137	0.000059
C22	C	0.314789	-0.111883	0.000085
C23	C	0.998367	0.038561	0.000089
C24	C	0.996705	0.131807	0.000089
C25	C	1.145813	-0.108885	0.000092
C26	C	1.239059	-0.110547	0.000094
C27	C	0.986120	-0.268577	0.000069
C28	C	0.987782	-0.361823	0.000063
N29	N	0.992218	-0.115036	0.230758
C30	C	0.912801	0.346663	0.000069
C31	C	0.951753	0.407672	0.073077
C32	C	0.993698	0.302533	0.000082
C33	C	0.951792	0.407673	-0.072903
C34	C	0.990787	0.467445	0.000071
C35	C	1.032672	0.362313	0.073150
C36	C	1.032700	0.362308	-0.072895
C37	C	1.071711	0.423298	0.000131
C38	C	0.995372	0.207530	0.000089
C39	C	0.989119	0.562446	0.000070
N40	N	0.992276	-0.114973	-0.230598
C41	C	0.932581	-0.174636	0.470432
C42	C	1.008481	-0.190943	0.529772
C43	C	0.992239	-0.115015	0.412365
C44	C	0.916360	-0.098727	0.529766
C45	C	0.992253	-0.114997	0.587789
C46	C	1.068178	-0.131360	0.470398
C47	C	0.976006	-0.039111	0.470387
C48	C	1.051962	-0.055386	0.529701
C49	C	0.992230	-0.115028	0.311307
C50	C	0.992271	-0.114984	0.688844
H51	H	0.563905	0.031573	-0.000005
H52	H	0.962240	0.025051	0.444283
H53	H	1.132368	-0.145206	0.444430
H54	H	0.882181	-0.225096	0.444409
C55	C	1.120196	0.012740	0.564648
C56	C	1.132423	0.025864	0.665582
C57	C	1.200660	0.093984	0.700531
C58	C	1.256670	0.148980	0.634547
C59	C	1.244445	0.135858	0.533607
C60	C	1.176208	0.067738	0.498657
H61	H	1.090960	-0.014849	0.714433
H62	H	1.209710	0.103697	0.775254
H63	H	1.307183	0.199406	0.660419
H64	H	1.285908	0.176571	0.484756
H65	H	1.167158	0.058024	0.423935
H66	H	1.066851	0.342314	0.134941
C67	C	1.162501	0.468099	0.000188
C68	C	1.222673	0.453671	0.077478
C69	C	1.313462	0.498472	0.077538
C70	C	1.344078	0.557700	0.000309
C71	C	1.283905	0.572131	-0.076986
C72	C	1.193117	0.527331	-0.077047
H73	H	1.200010	0.409824	0.134652
H74	H	1.358006	0.487788	0.134758
H75	H	1.411286	0.590864	0.000354
H76	H	1.306568	0.615978	-0.134161
H77	H	1.148573	0.538014	-0.134266
C78	C	0.542126	-0.201659	0.156423
C79	C	0.586911	-0.281794	0.146480
C80	C	0.614110	-0.327982	0.229865
C81	C	0.596524	-0.294035	0.323193
C82	C	0.551737	-0.213896	0.333140
C83	C	0.524538	-0.167708	0.249755
H84	H	0.599931	-0.306928	0.077389
H85	H	0.647264	-0.387306	0.222501
H86	H	0.616658	-0.328226	0.384919
H87	H	0.538717	-0.188762	0.402230
H88	H	0.491383	-0.108383	0.257119
H89	H	0.534918	-0.189621	-0.134787
H90	H	0.420779	-0.261683	-0.000023
H91	H	1.066896	0.342185	-0.134615
C92	C	0.442417	-0.028331	0.156437
C93	C	0.509200	0.008531	0.224119
C94	C	0.482057	0.054762	0.307497
C95	C	0.388131	0.064132	0.323192
C96	C	0.321342	0.027270	0.255508
C97	C	0.348485	-0.018962	0.172131
H98	H	0.578736	0.001596	0.212502
H99	H	0.531500	0.082050	0.357601
H100	H	0.368038	0.098355	0.384914
H101	H	0.251806	0.034205	0.267125
H102	H	0.299043	-0.046250	0.122026
H103	H	0.917574	0.427758	-0.134630
H104	H	1.022224	-0.255126	0.555856
H105	H	0.917528	0.427772	0.134794
C106	C	0.829665	-0.080117	0.564995
C107	C	0.749844	-0.139673	0.541601
C108	C	0.663147	-0.121071	0.576826
C109	C	0.656271	-0.042914	0.635446
C110	C	0.736095	0.016646	0.658843
C111	C	0.822792	-0.001955	0.623618
H112	H	0.754931	-0.197534	0.498205
H113	H	0.604057	-0.165162	0.559506
H114	H	0.592093	-0.029144	0.661522
H115	H	0.731007	0.074508	0.702240
H116	H	0.881882	0.042136	0.640938
H117	H	0.449461	-0.040295	-0.134642
C118	C	0.822092	0.301659	0.000154
C119	C	0.761899	0.315893	0.077490
C120	C	0.671194	0.270888	0.077579
C121	C	0.640680	0.211649	0.000333
C122	C	0.700873	0.197413	-0.077009
C123	C	0.791579	0.242418	-0.077099
H124	H	0.784486	0.359748	0.134677
H125	H	0.626635	0.281427	0.134833
H126	H	0.573534	0.178333	0.000399
H127	H	0.678286	0.153558	-0.134197
H128	H	0.836138	0.231879	-0.134353
