data_functionalizedCrystal
_audit_creation_method	'MofGen! by Chris Wilmer'
_symmetry_space_group_name_H-M	'P1'
_symmetry_Int_Tables_number	1
_symmetry_cell_setting	triclinic
loop_
_symmetry_equiv_pos_as_xyz
  x,y,z
_cell_length_a	10.654550
_cell_length_b	16.992695
_cell_length_c	9.130313
_cell_angle_alpha	89.995176
_cell_angle_beta	89.999724
_cell_angle_gamma	87.576577
loop_
_atom_site_label
_atom_site_type_symbol
_atom_site_fract_x
_atom_site_fract_y
_atom_site_fract_z
O1	O	1.677362	0.110190	-0.121691
O2	O	1.312790	0.120688	-0.121718
O3	O	1.493615	0.001288	-0.121693
O4	O	1.496538	0.229590	-0.121716
O5	O	1.493601	0.001285	0.121906
O6	O	1.312777	0.120685	0.121881
O7	O	1.677348	0.110186	0.121908
Cu8	Cu	1.495061	0.115435	0.144137
Cu9	Cu	1.495077	0.115439	-0.143947
O10	O	1.496524	0.229586	0.121883
C11	C	1.265919	0.119916	0.000078
C12	C	1.126277	0.117609	0.000068
C13	C	1.052866	0.187910	0.000065
C14	C	0.921658	0.185738	0.000091
C15	C	0.937282	0.042959	0.000116
C16	C	1.068488	0.045132	0.000101
C17	C	1.489848	-0.027946	0.000106
C18	C	1.478628	-0.115051	0.000105
C19	C	1.586879	-0.164703	0.000114
C20	C	1.576330	-0.246547	0.000099
C21	C	1.457529	-0.278738	0.000086
C22	C	1.349270	-0.229080	0.000072
C23	C	1.359820	-0.147237	0.000076
C24	C	1.413802	-0.522573	0.000062
C25	C	1.403260	-0.604422	0.000062
C26	C	1.630321	-0.621884	0.000087
C27	C	1.640861	-0.540039	0.000100
C28	C	1.532602	-0.490388	0.000079
N29	N	1.446743	-0.362395	0.000075
N30	N	1.543389	-0.406733	0.000079
C31	C	1.724220	0.110959	0.000108
C32	C	1.863862	0.113265	0.000109
C33	C	1.500291	0.258821	0.000080
C34	C	1.511510	0.345926	0.000072
N35	N	1.495059	0.115432	0.346759
N36	N	1.495089	0.115437	-0.346570
C37	C	1.575159	0.062584	0.423422
C38	C	1.575171	0.062584	0.576759
C39	C	1.414980	0.168287	0.576756
C40	C	1.414963	0.168282	0.423422
H41	H	0.890215	-0.016050	0.000152
H42	H	1.640394	0.019550	0.639174
O43	O	1.337004	0.219546	0.651168
C44	C	1.123141	0.264274	0.698049
C45	C	1.211304	0.206165	0.613716
H46	H	1.021496	0.253486	0.667777
H47	H	1.136806	0.255200	0.820827
H48	H	1.145869	0.327200	0.667900
H49	H	1.188630	0.143215	0.643742
H50	H	1.197624	0.215308	0.490958
O51	O	1.337286	0.219733	0.349010
C52	C	1.277275	0.355718	0.302126
C53	C	1.365341	0.297544	0.386461
H54	H	1.299909	0.418640	0.332397
H55	H	1.291023	0.346703	0.179348
H56	H	1.175623	0.344869	0.332276
H57	H	1.467026	0.308358	0.356433
H58	H	1.351485	0.306573	0.509218
O59	O	0.850534	0.254102	0.000018
C60	C	0.848892	0.395948	0.000071
C61	C	0.929588	0.318583	0.000116
H62	H	0.912773	0.448101	0.000181
H63	H	0.787090	0.398554	-0.101889
H64	H	0.787056	0.398460	0.102002
H65	H	0.991498	0.316019	-0.101746
H66	H	0.991306	0.316009	0.102144
O67	O	1.139622	-0.023236	0.000037
C68	C	1.141284	-0.165083	0.000154
C69	C	1.060577	-0.087722	0.000184
H70	H	1.077411	-0.217240	0.000304
H71	H	1.203068	-0.167689	-0.101821
H72	H	1.203138	-0.167588	0.102071
H73	H	0.998650	-0.085165	-0.101664
H74	H	0.998876	-0.085148	0.102226
O75	O	1.308516	-0.474462	0.000126
C76	C	1.082189	-0.465787	0.000041
C77	C	1.201328	-0.520367	-0.000003
H78	H	0.995499	-0.502879	-0.000094
H79	H	1.081359	-0.427055	0.102013
H80	H	1.081518	-0.427011	-0.101878
H81	H	1.202078	-0.559192	0.101847
H82	H	1.202112	-0.559046	-0.102043
H83	H	1.683620	-0.138501	0.000134
H84	H	1.664480	-0.286971	0.000110
O85	O	1.756199	-0.508684	-0.000091
C86	C	1.899930	-0.426456	-0.126325
C87	C	1.769258	-0.461896	-0.126279
H88	H	1.910540	-0.388634	-0.228352
H89	H	1.910569	-0.388531	-0.024446
H90	H	1.975461	-0.476020	-0.126251
H91	H	1.693649	-0.412383	-0.126404
H92	H	1.758726	-0.499842	-0.228148
O93	O	1.233935	-0.260441	-0.000138
C94	C	1.090230	-0.342664	-0.126394
C95	C	1.220897	-0.307217	-0.126328
H96	H	1.079637	-0.380477	-0.228423
H97	H	1.079584	-0.380600	-0.024518
H98	H	1.014693	-0.293104	-0.126332
H99	H	1.296512	-0.356727	-0.126442
H100	H	1.231436	-0.269262	-0.228195
O101	O	1.652993	0.011167	0.349177
C102	C	1.811927	-0.093647	0.365371
C103	C	1.723825	-0.035469	0.449629
H104	H	1.869237	-0.131357	0.446549
H105	H	1.753802	-0.133212	0.293644
H106	H	1.878031	-0.059399	0.293524
H107	H	1.657704	-0.069653	0.521555
H108	H	1.782029	0.004095	0.521264
H109	H	1.718458	-0.662318	0.000102
H110	H	1.099913	0.246926	0.000049
H111	H	1.306513	-0.630628	0.000075
H112	H	1.271671	-0.106811	0.000068
