data_functionalizedCrystal
_audit_creation_method	'MofGen! by Chris Wilmer'
_symmetry_space_group_name_H-M	'P1'
_symmetry_Int_Tables_number	1
_symmetry_cell_setting	triclinic
loop_
_symmetry_equiv_pos_as_xyz
  x,y,z
_cell_length_a	31.640172
_cell_length_b	15.698487
_cell_length_c	31.640172
_cell_angle_alpha	89.990771
_cell_angle_beta	59.996394
_cell_angle_gamma	59.999605
loop_
_atom_site_label
_atom_site_type_symbol
_atom_site_fract_x
_atom_site_fract_y
_atom_site_fract_z
Zr1	Zr	0.462531	-0.111867	0.407247
O2	O	0.550705	-0.247864	0.339769
O3	O	0.374362	-0.070178	0.427924
O4	O	0.462527	-0.247886	0.427936
O5	O	0.462542	0.070025	0.339757
O6	O	0.462517	-0.247902	0.497493
O7	O	0.462540	-0.070156	0.339757
O8	O	0.304807	0.069987	0.497472
O9	O	0.620252	-0.247863	0.339778
O10	O	0.410618	-0.052407	0.488662
O11	O	0.410626	0.052220	0.436753
O12	O	0.514429	-0.157009	0.436767
O13	O	0.514437	-0.052382	0.384857
Zr14	Zr	0.462519	0.111681	0.518183
Zr15	Zr	0.462516	-0.111891	0.518182
Zr16	Zr	0.462534	0.111706	0.407247
Zr17	Zr	0.573451	-0.111864	0.407262
Zr18	Zr	0.351599	0.111679	0.518168
O19	O	0.550688	0.069992	0.497506
O20	O	0.550684	-0.247900	0.497505
O21	O	0.550709	0.070027	0.339769
O22	O	0.374345	0.247679	0.585661
O23	O	0.374341	-0.070213	0.585660
O24	O	0.374366	0.247714	0.427924
O25	O	0.462508	-0.070211	0.585672
O26	O	0.462523	0.247701	0.497494
O27	O	0.462532	0.247716	0.427937
O28	O	0.462509	0.069970	0.585673
O29	O	0.620241	-0.247882	0.427957
O30	O	0.304809	0.247697	0.497472
O31	O	0.304797	0.247677	0.585651
O32	O	0.304795	0.069967	0.585651
O33	O	0.620255	-0.070152	0.339778
O34	O	0.620243	-0.070172	0.427958
O35	O	0.410621	0.156824	0.488663
O36	O	0.410613	0.052197	0.540572
O37	O	0.514423	-0.052405	0.488677
O38	O	0.514431	0.052222	0.436767
C39	C	0.323781	-0.000096	0.462696
C40	C	0.276692	-0.000097	0.462689
C41	C	0.462543	-0.000062	0.323951
C42	C	0.462550	-0.000051	0.276856
C43	C	0.462528	0.279563	0.462715
C44	C	0.462529	0.374475	0.462715
C45	C	-0.015354	-0.054697	0.489821
C46	C	-0.192350	-0.054697	0.489832
O47	O	-0.215258	-0.101107	0.512895
N48	N	-0.214475	-0.000085	0.462735
C49	C	-0.192351	0.054537	0.435636
O50	O	-0.215235	0.100997	0.412593
C51	C	-0.015359	0.054542	0.435629
C52	C	0.006768	-0.000083	0.462723
C53	C	0.006772	-0.109316	0.516914
C54	C	0.051021	-0.109321	0.516909
C55	C	0.073143	-0.054706	0.489811
C56	C	0.051017	-0.000087	0.462718
C57	C	0.006761	0.109169	0.408534
C58	C	0.051011	0.109167	0.408535
C59	C	0.073138	0.054543	0.435630
C60	C	0.117387	0.054524	0.435615
N61	N	0.139512	-0.000088	0.462712
C62	C	0.117390	-0.054703	0.489810
C63	C	-0.285273	0.054529	0.435641
C64	C	-0.329520	0.054526	0.435642
C65	C	-0.329517	-0.054706	0.489839
C66	C	-0.285266	-0.054709	0.489835
C67	C	-0.263148	-0.000083	0.462738
C68	C	0.210316	-0.054709	0.489796
C69	C	0.254570	-0.054712	0.489787
C70	C	0.254561	0.054525	0.435593
C71	C	0.210313	0.054524	0.435600
C72	C	0.188190	-0.000095	0.462706
O73	O	0.140318	0.100919	0.412569
O74	O	0.140272	-0.101137	0.512859
C75	C	-0.059603	-0.054693	0.489827
C76	C	-0.081729	-0.000074	0.462734
C77	C	-0.059607	0.054541	0.435636
C78	C	-0.125976	-0.000077	0.462735
C79	C	-0.148098	-0.054691	0.489833
C80	C	-0.125973	-0.109304	0.516930
C81	C	-0.081725	-0.109308	0.516925
C82	C	-0.081732	0.109153	0.408539
C83	C	-0.125980	0.109152	0.408546
C84	C	-0.148102	0.054537	0.435644
C85	C	0.601269	-0.000090	0.462734
C86	C	0.648358	-0.000089	0.462740
C87	C	0.462522	-0.279748	0.462714
C88	C	0.462520	-0.374661	0.462714
C89	C	0.462519	0.548260	0.462715
C90	C	0.462522	0.451556	0.462717
C91	C	0.462514	0.077153	-0.059417
C92	C	0.462531	0.077169	0.117564
O93	O	0.462510	0.142873	0.140457
N94	N	0.462532	-0.000058	0.139698
C95	C	0.462526	-0.077291	0.117586
O96	O	0.462521	-0.142971	0.140476
C97	C	0.462504	-0.077302	-0.059393
C98	C	0.462509	-0.000076	-0.081527
C99	C	0.462518	0.154373	-0.081552
C100	C	0.462517	0.154365	-0.125796
C101	C	0.462512	0.077137	-0.147906
C102	C	0.462508	-0.000084	-0.125772
C103	C	0.462493	-0.154529	-0.081502
C104	C	0.462486	-0.154524	-0.125749
C105	C	0.462491	-0.077298	-0.147883
C106	C	0.462502	-0.077321	-0.192126
N107	N	0.462500	-0.000093	-0.214260
C108	C	0.462506	0.077135	-0.192150
C109	C	0.462538	-0.077281	0.210502
C110	C	0.462544	-0.077280	0.254746
C111	C	0.462549	0.077182	0.254721
C112	C	0.462547	0.077175	0.210475
C113	C	0.462537	-0.000054	0.188368
C114	C	0.462504	0.077112	-0.285067
C115	C	0.462505	0.077094	-0.329316
C116	C	0.462498	-0.077363	-0.329287
C117	C	0.462500	-0.077349	-0.285043
C118	C	0.462501	-0.000103	-0.262933
O119	O	0.462516	-0.142983	-0.215042
O120	O	0.462497	0.142819	-0.215042
C121	C	0.462515	0.077161	-0.015173
C122	C	0.462511	-0.000060	0.006961
C123	C	0.462506	-0.077288	-0.015149
C124	C	0.462517	-0.000058	0.051205
C125	C	0.462522	0.077170	0.073315
C126	C	0.462521	0.154397	0.051181
C127	C	0.462520	0.154389	0.006937
C128	C	0.462507	-0.154515	0.006985
C129	C	0.462509	-0.154502	0.051229
C130	C	0.462514	-0.077273	0.073339
C131	C	0.462507	-0.000124	0.601478
C132	C	0.462500	-0.000134	0.648574
C133	C	0.323762	-0.000127	0.601459
C134	C	0.276667	-0.000138	0.648548
C135	C	0.323784	0.279560	0.462696
C136	C	0.276697	0.374471	0.462690
C137	C	0.323766	0.279529	0.601460
C138	C	0.276672	0.374429	0.648549
C139	C	0.601284	-0.279714	0.323969
C140	C	0.648378	-0.374615	0.276881
C141	C	0.601288	-0.000059	0.323970
C142	C	0.648382	-0.000047	0.276881
C143	C	0.601266	-0.279745	0.462733
C144	C	0.648353	-0.374656	0.462739
C145	C	0.254554	-0.054755	0.643565
C146	C	0.210310	-0.054787	0.687806
C147	C	0.188176	-0.000195	0.737029
C148	C	0.210294	0.054423	0.742011
C149	C	0.254541	0.054449	0.697771
C150	C	0.254581	0.473654	0.489783
C151	C	0.210343	0.562842	0.489776
C152	C	0.188220	0.552844	0.462677
C153	C	0.210340	0.453651	0.435580
C154	C	0.254579	0.364465	0.435585
C155	C	0.254552	0.364382	0.697763
C156	C	0.210309	0.453543	0.742012
C157	C	0.188183	0.552750	0.737046
C158	C	0.210307	0.562796	0.687827
C159	C	0.254553	0.473636	0.643578
C160	C	0.670503	-0.364567	0.227666
C161	C	0.714760	-0.453728	0.183417
C162	C	0.736888	-0.552936	0.188383
C163	C	0.714761	-0.562982	0.237603
C164	C	0.670508	-0.473822	0.281851
C165	C	0.670500	0.054561	0.281864
C166	C	0.714757	0.054568	0.237624
C167	C	0.736892	-0.000027	0.188401
C168	C	0.714772	-0.054642	0.183418
C169	C	0.670519	-0.054654	0.227659
C170	C	0.670463	-0.364626	0.489843
C171	C	0.714701	-0.453796	0.489859
C172	C	0.736831	-0.552997	0.462768
C173	C	0.714717	-0.563026	0.435663
C174	C	0.670477	-0.473856	0.435651
H175	H	0.272585	-0.099197	0.511850
Cl176	Cl	0.462502	-0.251613	-0.020805
Cl177	Cl	0.742583	-0.687708	0.243837
Cl178	Cl	-0.257456	-0.123379	0.523899
Cl179	Cl	-0.021027	-0.177992	0.550981
H180	H	0.652481	0.099025	0.321940
H181	H	0.152147	-0.000223	0.773048
Cl182	Cl	0.642715	-0.123303	0.221385
Cl183	Cl	0.132602	0.664976	0.462677
Cl184	Cl	0.742553	0.123237	0.243899
H185	H	0.732801	-0.099092	0.143335
H186	H	0.652452	-0.283859	0.511904
Cl187	Cl	0.742496	-0.441165	0.523933
H188	H	0.272580	0.283709	0.413524
Cl189	Cl	0.182502	0.440890	0.803882
Cl190	Cl	0.462472	-0.251617	-0.153536
Cl191	Cl	0.182511	-0.123451	0.681530
H192	H	0.652494	-0.482015	0.321922
Cl193	Cl	0.282362	0.239674	0.704020
Cl194	Cl	0.792450	-0.665087	0.462787
H195	H	0.152155	0.625342	0.773080
Cl196	Cl	0.642694	-0.239859	0.221409
Cl197	Cl	0.792523	0.000002	0.132789
Cl198	Cl	0.182460	0.123054	0.803896
Cl199	Cl	0.642692	-0.486485	0.401568
H200	H	0.272540	0.098930	0.701835
H201	H	0.192286	0.643583	0.683791
H202	H	0.732769	-0.445528	0.143345
H203	H	-0.347535	-0.099178	0.511902
H204	H	-0.267269	0.099015	0.413575
Cl205	Cl	0.742549	-0.687743	0.401602
H206	H	0.192339	0.643601	0.511843
Cl207	Cl	-0.153791	-0.177965	0.550994
Cl208	Cl	0.462550	-0.174380	0.282561
Cl209	Cl	0.792520	-0.665014	0.132751
Cl210	Cl	0.078828	-0.177990	0.550975
Cl211	Cl	0.182510	-0.123372	0.523873
Cl212	Cl	0.282383	0.486250	0.523856
H213	H	0.462489	-0.217413	-0.063486
Cl214	Cl	-0.357323	0.123183	0.401571
Cl215	Cl	0.462525	0.251473	-0.053764
H216	H	-0.011247	0.153651	0.386471
Cl217	Cl	0.078813	0.177845	0.374469
H218	H	0.272557	0.481832	0.603508
H219	H	0.462530	-0.140173	0.192505
Cl220	Cl	0.182519	0.441100	0.401517
H221	H	0.192303	0.098989	0.413531
H222	H	0.462518	0.217252	-0.143815
H223	H	0.272582	0.098987	0.413529
H224	H	0.462524	0.217274	-0.011082
H225	H	-0.063712	-0.153788	0.538987
H226	H	-0.143988	0.153630	0.386478
H227	H	0.272575	-0.099224	0.603489
Cl228	Cl	-0.053929	0.177821	0.374471
H229	H	0.462511	0.139982	-0.347338
H230	H	0.462550	0.140059	0.192455
Cl231	Cl	0.462506	0.174222	-0.257280
H232	H	0.462554	0.140063	0.272730
H233	H	0.462504	-0.140243	-0.267024
H234	H	0.462528	0.217277	0.069189
H235	H	0.462510	-0.217397	0.069246
Cl236	Cl	0.462492	-0.174447	-0.357089
