data_functionalizedCrystal
_audit_creation_method	'MofGen! by Chris Wilmer'
_symmetry_space_group_name_H-M	'P1'
_symmetry_Int_Tables_number	1
_symmetry_cell_setting	triclinic
loop_
_symmetry_equiv_pos_as_xyz
  x,y,z
_cell_length_a	25.639239
_cell_length_b	12.759401
_cell_length_c	12.759393
_cell_angle_alpha	90.020566
_cell_angle_beta	89.964022
_cell_angle_gamma	89.963105
loop_
_atom_site_label
_atom_site_type_symbol
_atom_site_fract_x
_atom_site_fract_y
_atom_site_fract_z
Zn1	Zn	-0.208150	-1.606091	-0.593970
Zn2	Zn	-0.295596	-1.605909	-0.418273
Zn3	Zn	-0.208173	-1.430390	-0.418306
Zn4	Zn	-0.295554	-1.430308	-0.593911
O5	O	-0.251868	-1.518175	-0.506115
O6	O	-0.219758	-1.753088	-0.570674
O7	O	-0.284026	-1.582584	-0.271256
O8	O	-0.135005	-1.453808	-0.441646
O9	O	-0.284004	-1.752954	-0.441590
O10	O	-0.134988	-1.582895	-0.570706
O11	O	-0.219797	-1.453631	-0.271280
O12	O	-0.219757	-1.283358	-0.441590
O13	O	-0.283933	-1.453668	-0.740940
O14	O	-0.283955	-1.283298	-0.570606
O15	O	-0.219718	-1.582815	-0.740983
O16	O	-0.368755	-1.582504	-0.441533
O17	O	-0.368725	-1.453492	-0.570574
C18	C	-0.251854	-1.245207	-0.506096
C19	C	-0.251861	-1.128431	-0.506113
C20	C	-0.218467	-1.073639	-0.573429
C21	C	-0.218471	-0.963915	-0.573434
C22	C	-0.285265	-0.963784	-0.438804
C23	C	-0.285259	-1.073506	-0.438794
C24	C	-0.387711	-1.517998	-0.506067
C25	C	-0.445825	-1.518018	-0.506081
C26	C	-0.806191	-1.585527	-0.439038
C27	C	-0.860796	-1.585568	-0.439052
O28	O	-0.889035	-1.642782	-0.381996
N29	N	-0.888107	-1.518359	-0.506184
C30	C	-0.860812	-1.451113	-0.573315
O31	O	-0.889057	-1.393952	-0.630418
C32	C	-0.806209	-1.451079	-0.573305
C33	C	-0.778900	-1.518284	-0.506161
C34	C	-0.778882	-1.652727	-0.371900
C35	C	-0.724282	-1.652685	-0.371884
C36	C	-0.696990	-1.585442	-0.439008
C37	C	-0.724299	-1.518242	-0.506146
C38	C	-0.778914	-1.383839	-0.640440
C39	C	-0.724307	-1.383810	-0.640426
C40	C	-0.696998	-1.451016	-0.573281
C41	C	-0.642407	-1.450956	-0.573254
N42	N	-0.615095	-1.518165	-0.506121
C43	C	-0.642387	-1.585408	-0.438998
C44	C	-0.975483	-1.451192	-0.573331
C45	C	-1.030085	-1.451221	-0.573336
C46	C	-1.030065	-1.585677	-0.439074
C47	C	-0.975461	-1.585642	-0.439065
C48	C	-0.948171	-1.518401	-0.506199
C49	C	-0.527722	-1.585313	-0.438971
C50	C	-0.473117	-1.585261	-0.438958
C51	C	-0.473141	-1.450810	-0.573224
C52	C	-0.527742	-1.450857	-0.573232
C53	C	-0.555031	-1.518117	-0.506102
O54	O	-0.614133	-1.393773	-0.630283
O55	O	-0.614136	-1.642569	-0.381914
C56	C	-0.115495	-1.518381	-0.506186
C57	C	-0.057381	-1.518468	-0.506217
C58	C	-0.251818	-1.518253	-0.780148
C59	C	-0.251797	-1.518287	-0.896925
C60	C	-0.251878	-0.792208	-0.506131
C61	C	-0.251870	-0.908984	-0.506128
C62	C	-0.218355	-1.585539	-0.951811
C63	C	-0.218332	-1.585556	-1.061535
C64	C	-0.285198	-1.451068	-1.061478
C65	C	-0.285218	-1.451045	-0.951756
C66	C	-0.251881	-1.518157	-0.233147
C67	C	-0.251755	-1.518327	-0.116371
H68	H	-0.312457	-0.919051	-0.383996
H69	H	-0.312452	-1.118118	-0.383971
H70	H	-0.549978	-1.396136	-0.627910
C71	C	-0.373722	-1.399756	-1.095199
C72	C	-0.321938	-1.377166	-1.121750
H73	H	-0.396404	-1.354127	-1.132403
H74	H	-0.381371	-1.470330	-1.113191
H75	H	-0.378512	-1.390114	-1.021995
H76	H	-0.317147	-1.386816	-1.194953
H77	H	-0.314286	-1.306575	-1.103765
H78	H	-0.450883	-1.639988	-0.384277
C79	C	-0.640575	-1.712346	-0.312230
C80	C	-0.694268	-1.726566	-0.298083
H81	H	-0.622050	-1.757957	-0.266662
H82	H	-0.631593	-1.727680	-0.382823
H83	H	-0.631668	-1.641757	-0.296783
H84	H	-0.703175	-1.797153	-0.313538
H85	H	-0.703253	-1.711239	-0.227475
H86	H	-0.549934	-1.640085	-0.384309
C87	C	-0.355566	-1.436314	-0.828311
C88	C	-0.321980	-1.377119	-0.891413
H89	H	-0.378257	-1.390673	-0.791053
H90	H	-0.375562	-1.482053	-0.871111
H91	H	-0.335656	-1.476349	-0.779960
H92	H	-0.341890	-1.337089	-0.939768
H93	H	-0.301983	-1.331361	-0.848609
C94	C	-0.840261	-1.369224	-0.781784
C95	C	-0.808922	-1.309973	-0.714259
H96	H	-0.858787	-1.323618	-0.827357
H97	H	-0.818920	-1.414965	-0.821986
H98	H	-0.864336	-1.409258	-0.741801
H99	H	-0.784845	-1.269944	-0.754242
H100	H	-0.830265	-1.264213	-0.674054
C101	C	-0.148154	-0.840616	-0.588309
C102	C	-0.181765	-0.903688	-0.647434
H103	H	-0.125491	-0.803440	-0.633997
H104	H	-0.168045	-0.792203	-0.548233
H105	H	-0.128126	-0.883434	-0.542611
H106	H	-0.201796	-0.860869	-0.693128
H107	H	-0.161873	-0.952106	-0.687529
C108	C	-0.389442	-1.391075	-0.632815
C109	C	-0.443135	-1.376904	-0.647008
H110	H	-0.370918	-1.345456	-0.678376
H111	H	-0.380532	-1.375720	-0.562218
H112	H	-0.380462	-1.461658	-0.648242
H113	H	-0.452116	-1.306321	-0.631573
H114	H	-0.452049	-1.392251	-0.717621
H115	H	-0.191271	-1.118356	-0.628241
H116	H	-1.052315	-1.396486	-0.628002
H117	H	-0.801097	-1.707491	-0.317240
C118	C	-0.980939	-1.718544	-0.306355
C119	C	-0.945446	-1.659522	-0.365265
H120	H	-0.962410	-1.764161	-0.260798
H121	H	-1.002270	-1.672799	-0.266135
H122	H	-1.002203	-1.758715	-0.352182
H123	H	-0.924185	-1.619346	-0.319437
H124	H	-0.924107	-1.705273	-0.405487
C125	C	-0.914144	-1.309806	-0.587797
C126	C	-0.945486	-1.377263	-0.647119
H127	H	-0.895626	-1.264172	-0.633354
H128	H	-0.935482	-1.269667	-0.541996
H129	H	-0.890062	-1.349835	-0.547824
H130	H	-0.969570	-1.337234	-0.687087
H131	H	-0.924146	-1.417406	-0.692939
H132	H	-0.702090	-1.329055	-0.695098
C133	C	-1.113764	-1.645562	-0.379623
C134	C	-1.060071	-1.659688	-0.365383
H135	H	-1.132288	-1.691281	-0.334161
H136	H	-1.122771	-1.575024	-0.364099
H137	H	-1.122647	-1.660821	-0.450265
H138	H	-1.051187	-1.644421	-0.294743
H139	H	-1.051061	-1.730242	-0.380899
C140	C	-0.152254	-1.718466	-0.962893
C141	C	-0.181614	-1.659438	-0.891540
H142	H	-0.129568	-1.764082	-0.925684
H143	H	-0.175028	-1.758627	-1.005679
H144	H	-0.132247	-1.672716	-1.005695
H145	H	-0.201623	-1.705188	-0.848743
H146	H	-0.158837	-1.619274	-0.848737
H147	H	-0.191099	-1.640318	-1.106219
