data_functionalizedCrystal
_audit_creation_method	'MofGen! by Chris Wilmer'
_symmetry_space_group_name_H-M	'P1'
_symmetry_Int_Tables_number	1
_symmetry_cell_setting	triclinic
loop_
_symmetry_equiv_pos_as_xyz
  x,y,z
_cell_length_a	21.883469
_cell_length_b	21.882911
_cell_length_c	21.879399
_cell_angle_alpha	60.006540
_cell_angle_beta	60.013207
_cell_angle_gamma	59.992231
loop_
_atom_site_label
_atom_site_type_symbol
_atom_site_fract_x
_atom_site_fract_y
_atom_site_fract_z
O1	O	0.084645	-0.892842	0.746620
O2	O	0.031867	-0.695139	0.601571
O3	O	0.157054	-0.820237	0.601476
O4	O	-0.040542	-0.767744	0.746716
O5	O	0.198586	-0.778715	0.642912
O6	O	0.073399	-0.653617	0.643007
O7	O	0.126177	-0.851320	0.788056
Cu8	Cu	0.103580	-0.748677	0.719315
Cu9	Cu	0.054464	-0.797782	0.670313
O10	O	0.000990	-0.726222	0.788151
N11	N	0.138128	-0.714145	0.753785
N12	N	0.019923	-0.832320	0.635843
C13	C	0.190018	-0.547369	0.805644
C14	C	0.190029	-0.662289	0.805630
C15	C	0.218780	-0.633565	0.834353
C16	C	0.344122	-0.611968	0.768360
C17	C	0.422474	-0.638085	0.742222
C18	C	0.422504	-0.764859	0.790561
C19	C	0.344154	-0.738739	0.816702
C20	C	0.208899	-0.508180	0.728617
C21	C	0.182748	-0.429822	0.702522
C22	C	0.118843	-0.429847	0.830485
C23	C	0.144993	-0.508205	0.856580
C24	C	0.112994	-0.643364	0.824587
C25	C	0.086865	-0.669476	0.798467
C26	C	0.214799	-0.733437	0.734451
C27	C	0.240932	-0.707325	0.760562
C28	C	0.113084	-0.643389	0.959747
C29	C	0.087018	-0.669524	1.038102
C30	C	0.214996	-0.733501	1.038048
C31	C	0.241061	-0.707367	0.959690
C32	C	0.190103	-0.662308	0.920542
C33	C	0.304966	-0.662293	0.805598
C34	C	-0.117460	-0.854702	0.612901
C35	C	-0.002405	-0.854864	0.498145
C36	C	-0.002621	-0.969735	0.613108
C37	C	-0.002603	-0.854858	0.613180
C38	C	-0.031272	-0.883541	0.584334
N39	N	0.460550	-0.714150	0.753681
O40	O	0.699805	-0.721060	0.574973
O41	O	0.700047	-0.866553	0.772482
O42	O	0.699952	-0.866219	0.647213
O43	O	0.699900	-0.721394	0.700242
O44	O	0.575478	-0.824800	0.688791
O45	O	0.575573	-0.825134	0.814060
O46	O	0.575331	-0.679641	0.616551
Cu47	Cu	0.564087	-0.748606	0.719102
Cu48	Cu	0.711292	-0.797588	0.669931
O49	O	0.575426	-0.679975	0.741820
N50	N	0.814828	-0.832044	0.635345
N51	N	0.138106	-0.391772	0.753815
O52	O	-0.040520	-0.152377	0.746758
O53	O	0.156993	-0.152371	0.601281
O54	O	0.031698	-0.152390	0.601639
O55	O	0.084775	-0.152358	0.746401
O56	O	0.073234	-0.276876	0.643130
O57	O	0.198529	-0.276856	0.642772
O58	O	0.001015	-0.276863	0.788249
Cu59	Cu	0.103564	-0.288226	0.719299
Cu60	Cu	0.054444	-0.141007	0.670231
O61	O	0.126310	-0.276844	0.787892
N62	N	0.019892	-0.037461	0.635717
N63	N	0.138332	-0.714192	1.076133
O64	O	0.131293	-0.892804	1.315506
O65	O	-0.014162	-0.695219	1.315533
O66	O	-0.013826	-0.820490	1.315480
O67	O	0.130957	-0.767533	1.315559
O68	O	0.027651	-0.778981	1.191001
O69	O	0.027314	-0.653710	1.191054
O70	O	0.172770	-0.851295	1.191026
Cu71	Cu	0.103829	-0.748713	1.179674
Cu72	Cu	0.054778	-0.797802	1.326885
O73	O	0.172434	-0.726024	1.191079
N74	N	0.020275	-0.832331	1.430426
C75	C	0.047687	-0.649466	0.602306
C76	C	0.202716	-0.804385	0.602188
C77	C	0.110357	-0.896993	0.787321
C78	C	-0.044672	-0.742074	0.787439
C79	C	0.637839	-0.865879	0.818154
C80	C	0.637724	-0.865466	0.663023
C81	C	0.637536	-0.680313	0.570880
C82	C	0.637655	-0.680728	0.726010
C83	C	0.202592	-0.214459	0.601942
C84	C	0.047481	-0.214636	0.602435
C85	C	-0.044635	-0.214620	0.787537
C86	C	0.110528	-0.214598	0.787096
C87	C	-0.013455	-0.649572	1.253296
C88	C	-0.013030	-0.804697	1.253206
C89	C	0.172063	-0.896942	1.253263
C90	C	0.171648	-0.741808	1.253325
H91	H	0.071582	-0.606692	0.927876
H92	H	0.637644	-0.635235	0.737357
C93	C	0.637398	-0.619293	0.495311
C94	C	0.637338	-0.555336	0.495422
C95	C	0.637201	-0.499106	0.425824
H96	H	0.680775	-0.636323	0.457141
H97	H	0.593956	-0.607494	0.486200
H98	H	0.680776	-0.567134	0.504523
H99	H	0.593964	-0.538283	0.533576
H100	H	0.593759	-0.487307	0.416714
H101	H	0.680579	-0.516143	0.387660
H102	H	0.637154	-0.455702	0.425892
H103	H	-0.058496	-0.816008	1.253133
C104	C	0.278103	-0.213954	0.540969
C105	C	0.324267	-0.213782	0.567724
C106	C	0.393830	-0.213306	0.511573
H107	H	0.300768	-0.257257	0.527129
H108	H	0.271311	-0.170431	0.498570
H109	H	0.331062	-0.257300	0.610109
H110	H	0.301626	-0.170482	0.581558
H111	H	0.387037	-0.169784	0.469174
H112	H	0.416487	-0.256611	0.497737
H113	H	0.425158	-0.213183	0.529716
H114	H	0.024137	-0.654049	0.813885
C115	C	0.032753	-0.573707	0.541580
C116	C	0.083766	-0.540748	0.521626
C117	C	0.070026	-0.470954	0.465695
H118	H	0.038359	-0.580101	0.498980
H119	H	-0.016779	-0.542319	0.559783
H120	H	0.133287	-0.572128	0.503420
H121	H	0.078169	-0.534335	0.564209
H122	H	0.020494	-0.439567	0.483898
H123	H	0.075632	-0.477356	0.423099
H124	H	0.104631	-0.448580	0.452154
C125	C	-0.074325	-0.573870	1.253149
C126	C	-0.094217	-0.541015	1.189087
C127	C	-0.150280	-0.471274	1.188920
H128	H	-0.116916	-0.580321	1.296500
H129	H	-0.056264	-0.542391	1.253128
H130	H	-0.112282	-0.572488	1.189115
H131	H	-0.051644	-0.534545	1.145726
H132	H	-0.132218	-0.439795	1.188898
H133	H	-0.192866	-0.477733	1.232273
H134	H	-0.163779	-0.448970	1.145451
H135	H	0.217732	-0.953686	1.253245
C136	C	0.032212	-0.214711	0.541909
C137	C	-0.040847	-0.214748	0.569067
C138	C	-0.054931	-0.214839	0.513339
H139	H	0.037711	-0.171323	0.499298
H140	H	0.066714	-0.258150	0.528304
H141	H	-0.075338	-0.171314	0.582661
H142	H	-0.046363	-0.258133	0.611671
H143	H	-0.020429	-0.258278	0.499734
H144	H	-0.049428	-0.171450	0.470731
H145	H	-0.104499	-0.214871	0.531760
C146	C	-0.120335	-0.214567	0.848326
C147	C	-0.166561	-0.214553	0.821510
C148	C	-0.236305	-0.214488	0.877481
H149	H	-0.113873	-0.257957	0.890899
H150	H	-0.142758	-0.171130	0.861903
H151	H	-0.144142	-0.257987	0.807943
H152	H	-0.173044	-0.171167	0.778944
H153	H	-0.258728	-0.171051	0.891058
H154	H	-0.229836	-0.257879	0.920051
H155	H	-0.267680	-0.214472	0.859292
C156	C	0.270020	-0.782443	0.685626
C157	C	0.258813	-0.851612	0.721028
C158	C	0.309672	-0.896768	0.676065
H159	H	0.262489	-0.758584	0.638666
H160	H	0.319658	-0.790026	0.678082
H161	H	0.209187	-0.844027	0.728562
H162	H	0.266350	-0.875491	0.767984
H163	H	0.359310	-0.904351	0.668521
H164	H	0.302137	-0.872903	0.629106
H165	H	0.302080	-0.943706	0.700081
C166	C	0.125836	-0.214641	0.847661
C167	C	0.198913	-0.214659	0.820522
C168	C	0.213046	-0.214714	0.876299
H169	H	0.091379	-0.171246	0.861342
H170	H	0.120320	-0.258073	0.890226
H171	H	0.204421	-0.171231	0.777971
H172	H	0.233384	-0.258051	0.806846
H173	H	0.207530	-0.258147	0.918863
H174	H	0.178585	-0.171318	0.889976
H175	H	0.262631	-0.214734	0.857895
H176	H	0.121632	-0.953785	0.832877
C177	C	0.232219	-0.726551	1.253306
C178	C	0.205088	-0.653469	1.253305
C179	C	0.260868	-0.639384	1.253277
H180	H	0.245898	-0.761017	1.296702
H181	H	0.274780	-0.732092	1.209879
H182	H	0.162539	-0.647934	1.296728
H183	H	0.191413	-0.618987	1.209912
H184	H	0.303429	-0.644926	1.209850
H185	H	0.274544	-0.673855	1.296674
H186	H	0.242470	-0.589795	1.253270
H187	H	0.637900	-0.911553	0.874882
C188	C	0.003370	-0.649004	1.080563
C189	C	-0.028900	-0.675614	1.061498
C190	C	-0.105954	-0.656717	1.100591
H191	H	-0.004965	-0.671004	1.132847
H192	H	-0.018677	-0.596129	1.067717
H193	H	-0.006860	-0.728479	1.074349
H194	H	-0.020586	-0.653619	1.009221
H195	H	-0.128001	-0.603841	1.087745
H196	H	-0.114281	-0.678717	1.152873
H197	H	-0.127860	-0.674763	1.087656
C198	C	0.270360	-0.782530	1.080505
C199	C	0.315303	-0.847768	1.061435
C200	C	0.366308	-0.892956	1.100539
H201	H	0.300989	-0.756035	1.067686
H202	H	0.243838	-0.795438	1.132793
H203	H	0.341823	-0.834860	1.009159
H204	H	0.284694	-0.874283	1.074257
H205	H	0.339786	-0.905864	1.152827
H206	H	0.396932	-0.866455	1.087716
H207	H	0.396803	-0.937228	1.087611
C208	C	0.324599	-0.727956	0.739910
C209	C	0.363587	-0.772990	0.694857
C210	C	0.440660	-0.792008	0.675816
H211	H	0.337504	-0.683694	0.713292
H212	H	0.337532	-0.754586	0.784180
H213	H	0.350659	-0.746361	0.650594
H214	H	0.350705	-0.817262	0.721460
H215	H	0.453593	-0.818637	0.720087
H216	H	0.453557	-0.747742	0.649200
H217	H	0.467123	-0.822571	0.645251
H218	H	-0.101428	-0.730886	0.833046
H219	H	0.129609	-0.540114	0.919306
H220	H	0.303780	-0.722782	0.927774
H221	H	0.637745	-0.910963	0.651673
C222	C	0.464854	-0.583324	0.701774
C223	C	0.413764	-0.510782	0.697626
C224	C	0.452779	-0.460314	0.660361
H225	H	0.495443	-0.596335	0.728412
H226	H	0.495380	-0.585279	0.652660
H227	H	0.383252	-0.508830	0.746731
H228	H	0.383173	-0.497748	0.670983
H229	H	0.483305	-0.462269	0.611248
H230	H	0.483367	-0.473332	0.687003
H231	H	0.418121	-0.411088	0.657536
H232	H	0.312274	-0.779724	0.847024
C233	C	0.301483	-0.529003	0.756459
C234	C	0.256521	-0.518502	0.825949
C235	C	0.217223	-0.442085	0.815015
H236	H	0.335943	-0.502692	0.730577
H237	H	0.270851	-0.510604	0.727794
H238	H	0.287150	-0.536892	0.854603
H239	H	0.222047	-0.544795	0.851843
H240	H	0.186591	-0.423685	0.786350
H241	H	0.251688	-0.415780	0.789130
H242	H	0.186706	-0.434950	0.862161
C243	C	0.257737	-0.550568	0.673200
C244	C	0.268650	-0.499473	0.600155
C245	C	0.313626	-0.538492	0.549083
H246	H	0.304757	-0.581137	0.680604
H247	H	0.233814	-0.581119	0.680693
H248	H	0.292574	-0.468935	0.592665
H249	H	0.221644	-0.468902	0.592727
H250	H	0.289703	-0.569043	0.556576
H251	H	0.360643	-0.569060	0.556494
H252	H	0.321031	-0.503831	0.499516
C253	C	0.464923	-0.847891	0.802710
C254	C	0.413861	-0.886379	0.840932
C255	C	0.452908	-0.962868	0.852144
H256	H	0.495466	-0.855254	0.755674
H257	H	0.495497	-0.866310	0.831441
H258	H	0.383299	-0.867965	0.812201
H259	H	0.383316	-0.879038	0.887975
H260	H	0.483482	-0.981287	0.880875
H261	H	0.483450	-0.970223	0.805105
H262	H	0.418268	-0.988992	0.878084
H263	H	0.071542	-0.606694	0.861281
H264	H	0.082193	-0.397958	0.871963
C265	C	0.278383	-0.819441	0.541397
C266	C	0.291614	-0.879609	0.524297
C267	C	0.361314	-0.893506	0.468307
H268	H	0.278595	-0.776179	0.497846
H269	H	0.316481	-0.831329	0.558577
H270	H	0.253525	-0.867717	0.507114
H271	H	0.291417	-0.922883	0.567831
H272	H	0.399413	-0.905395	0.485487
H273	H	0.361520	-0.850241	0.424761
H274	H	0.370304	-0.934336	0.456702
H275	H	0.198119	-0.397913	0.639797
