data_functionalizedCrystal
_audit_creation_method	'MofGen! by Chris Wilmer'
_symmetry_space_group_name_H-M	'P1'
_symmetry_Int_Tables_number	1
_symmetry_cell_setting	triclinic
loop_
_symmetry_equiv_pos_as_xyz
  x,y,z
_cell_length_a	17.640280
_cell_length_b	15.298073
_cell_length_c	15.296720
_cell_angle_alpha	91.646683
_cell_angle_beta	90.295581
_cell_angle_gamma	93.442077
loop_
_atom_site_label
_atom_site_type_symbol
_atom_site_fract_x
_atom_site_fract_y
_atom_site_fract_z
Zn1	Zn	-0.220229	-1.311289	-0.686692
Zn2	Zn	-0.319637	-1.362695	-0.521846
Zn3	Zn	-0.213033	-1.188278	-0.516185
Zn4	Zn	-0.361127	-1.201836	-0.635195
O5	O	-0.278506	-1.266024	-0.589979
O6	O	-0.219064	-1.436909	-0.688746
O7	O	-0.285121	-1.355397	-0.402301
O8	O	-0.110407	-1.177408	-0.557985
O9	O	-0.292099	-1.474676	-0.567635
O10	O	-0.115694	-1.267784	-0.683256
O11	O	-0.206799	-1.227253	-0.398142
O12	O	-0.247030	-1.071275	-0.508051
O13	O	-0.362811	-1.200516	-0.760820
O14	O	-0.355834	-1.081237	-0.595486
O15	O	-0.259294	-1.280931	-0.798655
O16	O	-0.428722	-1.368544	-0.517700
O17	O	-0.459204	-1.250362	-0.600976
C18	C	-0.305154	-1.045452	-0.545566
C19	C	-0.316575	-0.951093	-0.526583
C20	C	-0.197023	-0.606490	-0.725588
C21	C	-0.186295	-0.695145	-0.743428
C22	C	-0.218864	-0.759136	-0.689218
C23	C	-0.262163	-0.734463	-0.617165
C24	C	-0.272896	-0.645800	-0.599327
C25	C	-0.294737	-0.798446	-0.562958
C26	C	-0.338036	-0.773774	-0.490905
C27	C	-0.348767	-0.685118	-0.473070
C28	C	-0.316199	-0.621127	-0.527280
C29	C	-0.284004	-0.887110	-0.580796
C30	C	-0.359877	-0.926420	-0.454536
C31	C	-0.370605	-0.837765	-0.436695
C32	C	-0.470820	-1.316523	-0.554387
C33	C	-0.553088	-1.338201	-0.539205
C34	C	-0.903121	-1.101651	-0.705697
C35	C	-0.980419	-1.122025	-0.691404
C36	C	-0.948624	-1.245141	-0.604812
C37	C	-0.871321	-1.224779	-0.619101
C38	C	-0.848576	-1.153032	-0.669544
C39	C	-0.816776	-1.276161	-0.582948
C40	C	-0.739480	-1.255798	-0.597232
C41	C	-0.716729	-1.184053	-0.647670
C42	C	-0.771280	-1.132669	-0.683828
C43	C	-0.839522	-1.347904	-0.532500
C44	C	-0.784978	-1.399286	-0.496347
C45	C	-0.707680	-1.378927	-0.510636
C46	C	-0.684929	-1.307182	-0.561074
C47	C	-0.653129	-1.430310	-0.474478
C48	C	-0.575833	-1.409947	-0.488763
C49	C	-0.607633	-1.286819	-0.575359
C50	C	-0.085442	-1.215349	-0.625734
C51	C	-0.003170	-1.193755	-0.640970
C52	C	-0.316483	-1.236502	-0.811401
C53	C	-0.332667	-1.223921	-0.905757
C54	C	-0.251748	-0.487457	-0.634560
C55	C	-0.240325	-0.581817	-0.653540
C56	C	-0.162707	-1.355938	-1.250528
C57	C	-0.147502	-1.367764	-1.161876
C58	C	-0.193792	-1.331804	-1.097842
C59	C	-0.255289	-1.284017	-1.122469
C60	C	-0.270499	-1.272196	-1.211129
C61	C	-0.301584	-1.248062	-1.058444
C62	C	-0.363081	-1.200274	-1.083070
C63	C	-0.378288	-1.188455	-1.171722
C64	C	-0.331998	-1.224415	-1.235756
C65	C	-0.286374	-1.259883	-0.969783
C66	C	-0.394166	-1.176140	-0.930384
C67	C	-0.409371	-1.164315	-1.019036
C68	C	-0.240618	-1.295467	-0.369439
C69	C	-0.224206	-1.308157	-0.275155
H70	H	-0.384031	-0.665034	-0.414405
C71	C	-0.678160	-1.509221	-0.418982
N72	N	-0.697012	-1.568657	-0.377181
H73	H	-0.125028	-1.385217	-1.302670
C74	C	-0.418237	-0.810612	-0.357442
N75	N	-0.454114	-0.790160	-0.297749
H76	H	-0.181409	-1.341436	-1.025659
C77	C	-0.138661	-0.722278	-0.822678
N78	N	-0.102777	-0.742714	-0.882371
C79	C	-0.515831	-1.466476	-0.449000
N80	N	-0.470637	-1.509056	-0.419050
H81	H	-0.884603	-1.043232	-0.746780
H82	H	-0.248748	-0.907189	-0.639461
C83	C	-0.161191	-0.536095	-0.785201
N84	N	-0.134196	-0.483071	-0.830101
H85	H	-0.324937	-0.548935	-0.512763
C86	C	-0.445939	-1.135892	-1.198808
N87	N	-0.496894	-1.096299	-1.219208
C88	C	-0.631700	-1.161654	-0.663384
N89	N	-0.567656	-1.144784	-0.675221
H90	H	-0.752762	-1.074251	-0.724911
C91	C	-0.218724	-1.312441	-0.942704
N92	N	-0.167764	-1.352028	-0.922311
C93	C	-0.079852	-1.420319	-1.134793
N94	N	-0.028892	-1.459903	-1.114395
H95	H	-0.210124	-0.831322	-0.703746
H96	H	-0.459442	-1.125405	-1.039100
H97	H	-1.024830	-1.080187	-0.720861
H98	H	-0.803508	-1.457700	-0.455274
C99	C	-0.395703	-0.996807	-0.394899
N100	N	-0.422686	-1.049828	-0.349985
C101	C	-0.348729	-1.211423	-1.333281
N102	N	-0.361333	-1.201646	-1.406739
C103	C	-0.973653	-1.324057	-0.549323
N104	N	-0.992503	-1.383499	-0.507528
C105	C	-0.445087	-1.136580	-0.859950
N106	N	-0.483437	-1.106786	-0.806894
H107	H	-0.589115	-1.228401	-0.616442
H108	H	-0.902463	-1.364483	-0.520874
