data_functionalizedCrystal
_audit_creation_method	'MofGen! by Chris Wilmer'
_symmetry_space_group_name_H-M	'P1'
_symmetry_Int_Tables_number	1
_symmetry_cell_setting	triclinic
loop_
_symmetry_equiv_pos_as_xyz
  x,y,z
_cell_length_a	19.188930
_cell_length_b	23.532407
_cell_length_c	17.666332
_cell_angle_alpha	89.988854
_cell_angle_beta	89.976766
_cell_angle_gamma	82.996728
loop_
_atom_site_label
_atom_site_type_symbol
_atom_site_fract_x
_atom_site_fract_y
_atom_site_fract_z
O1	O	0.925923	0.071102	-0.063199
O2	O	0.722581	0.080673	-0.063148
O3	O	0.830384	-0.007031	-0.063161
O4	O	0.818120	0.158806	-0.063186
O5	O	0.830365	-0.007036	0.062735
O6	O	0.722562	0.080669	0.062748
O7	O	0.925904	0.071097	0.062697
Cu8	Cu	0.824231	0.075883	0.074218
Cu9	Cu	0.824253	0.075888	-0.074669
O10	O	0.818101	0.158802	0.062711
C11	C	0.696561	0.080361	-0.000193
C12	C	0.619060	0.079431	-0.000173
C13	C	0.573972	0.130893	-0.000193
C14	C	0.501151	0.130019	-0.000201
C15	C	0.473421	0.077680	-0.000205
C16	C	0.518519	0.026211	-0.000181
C17	C	0.591339	0.027086	-0.000165
N18	N	0.365575	0.037674	-0.043078
N19	N	0.296399	0.036846	-0.043094
C20	C	0.254021	0.075038	-0.000251
N21	N	0.283431	0.114099	0.042600
N22	N	0.352613	0.114929	0.042614
C23	C	0.394462	0.076724	-0.000222
C24	C	0.129971	0.125556	-0.000278
C25	C	0.057149	0.124680	-0.000282
C26	C	0.074520	0.020870	-0.000269
C27	C	0.147340	0.021748	-0.000258
C28	C	0.175061	0.074092	-0.000266
C29	C	0.830062	-0.028250	-0.000211
C30	C	0.829123	-0.091469	-0.000205
C31	C	0.887029	-0.490449	-0.000261
C32	C	0.886157	-0.549851	-0.000267
O33	O	0.939837	-0.586482	-0.000308
N34	N	0.822068	-0.572613	-0.000250
C35	C	0.758848	-0.535970	-0.000236
O36	O	0.704255	-0.560786	-0.000223
C37	C	0.759721	-0.476569	-0.000235
C38	C	0.823814	-0.453810	-0.000244
C39	C	0.951117	-0.467690	-0.000271
C40	C	0.951989	-0.408292	-0.000264
C41	C	0.888773	-0.371653	-0.000247
C42	C	0.824685	-0.394412	-0.000237
C43	C	0.696501	-0.439927	-0.000226
C44	C	0.697379	-0.380523	-0.000227
C45	C	0.761472	-0.357764	-0.000236
C46	C	0.762342	-0.298376	-0.000214
N47	N	0.826430	-0.275614	-0.000230
C48	C	0.889646	-0.312252	-0.000247
C49	C	0.757019	-0.660717	-0.000237
C50	C	0.756146	-0.720116	-0.000232
C51	C	0.883455	-0.733993	-0.000264
C52	C	0.884328	-0.674592	-0.000264
C53	C	0.821108	-0.637954	-0.000254
C54	C	0.891472	-0.187512	-0.000232
C55	C	0.892339	-0.128108	-0.000222
C56	C	0.765029	-0.114236	-0.000193
C57	C	0.764163	-0.173634	-0.000199
C58	C	0.827390	-0.210272	-0.000221
O59	O	0.708690	-0.261710	-0.000176
O60	O	0.944230	-0.287428	-0.000270
C61	C	0.951923	0.071410	-0.000259
C62	C	1.029425	0.072340	-0.000284
C63	C	0.818423	0.180021	-0.000241
C64	C	0.819362	0.243240	-0.000252
N65	N	0.824221	0.075878	0.178938
N66	N	0.824270	0.075888	-0.179389
C67	C	0.871971	0.037062	0.218542
C68	C	0.871975	0.037059	0.297789
C69	C	0.824236	0.075883	0.337430
C70	C	0.776476	0.114702	0.297816
C71	C	0.776469	0.114700	0.218570
N72	N	0.814998	0.126298	0.461842
N73	N	0.815010	0.126298	0.537123
C74	C	0.824254	0.075891	0.576194
N75	N	0.833500	0.025481	0.537141
N76	N	0.833493	0.025482	0.461853
C77	C	0.824238	0.075889	0.423359
C78	C	0.872011	0.037068	0.701727
C79	C	0.872010	0.037064	0.780976
C80	C	0.776515	0.114713	0.781002
C81	C	0.776512	0.114711	0.701754
C82	C	0.824264	0.075889	0.662122
H83	H	0.020438	0.166588	-0.000293
O84	O	0.730106	0.152478	0.663396
C85	C	0.687957	0.186735	0.715374
H86	H	0.716581	0.187322	0.771848
H87	H	0.676986	0.232239	0.692468
H88	H	0.636223	0.168348	0.723835
O89	O	0.954558	-0.105934	-0.000335
C90	C	0.958890	-0.071988	-0.065545
H91	H	0.903758	-0.057057	-0.087267
H92	H	0.986446	-0.033160	-0.050884
H93	H	0.989970	-0.098299	-0.111213
O94	O	0.918321	-0.000707	0.663231
C95	C	0.907404	-0.057075	0.682594
H96	H	0.851518	-0.057262	0.704424
H97	H	0.915625	-0.085650	0.630460
H98	H	0.946240	-0.073892	0.728555
O99	O	0.918425	-0.000566	0.819535
C100	C	0.961293	0.029852	0.865330
H101	H	0.933169	0.074472	0.877202
H102	H	0.972509	0.006060	0.921058
H103	H	1.012863	0.033622	0.834763
H104	H	0.644310	-0.458446	-0.000224
O105	O	0.156941	0.176385	-0.000408
C106	C	0.198591	0.179998	-0.065593
H107	H	0.181596	0.150287	-0.111171
H108	H	0.191751	0.225916	-0.087478
H109	H	0.256105	0.166713	-0.050840
O110	O	0.491552	-0.024617	-0.000321
C111	C	0.449975	-0.028221	-0.065525
H112	H	0.467019	0.001497	-0.111097
H113	H	0.456841	-0.074136	-0.087405
H114	H	0.392445	-0.014940	-0.050800
O115	O	0.047676	-0.030009	-0.000373
C116	C	0.070774	-0.061361	-0.065578
H117	H	0.121187	-0.045965	-0.087309
H118	H	0.081204	-0.108814	-0.050907
H119	H	0.028610	-0.054659	-0.111244
H120	H	0.910852	0.005450	0.186275
O121	O	0.701950	-0.195815	-0.000285
C122	C	0.697640	-0.229731	-0.065504
H123	H	0.752779	-0.244649	-0.087257
H124	H	0.670084	-0.268569	-0.050843
H125	H	0.666571	-0.203402	-0.111150
O126	O	0.457314	0.179996	-0.000091
C127	C	0.414620	0.182593	0.065090
H128	H	0.441466	0.153407	0.110679
H129	H	0.406098	0.228490	0.086961
H130	H	0.361775	0.167982	0.050338
O131	O	1.012484	-0.503334	-0.000185
C132	C	1.015791	-0.538107	0.065028
H133	H	0.960392	-0.540991	0.086776
H134	H	1.042131	-0.582810	0.050360
H135	H	1.047525	-0.518638	0.110679
O136	O	0.918266	-0.000703	0.336309
C137	C	0.881128	-0.035751	0.382197
H138	H	0.826076	-0.036611	0.358342
H139	H	0.909936	-0.081074	0.383105
H140	H	0.877342	-0.017912	0.442249
O141	O	0.730110	0.152348	0.819582
C142	C	0.687243	0.121934	0.865437
H143	H	0.715364	0.077313	0.877309
H144	H	0.676034	0.145729	0.921162
H145	H	0.635669	0.118167	0.834923
O146	O	0.946649	-0.652582	-0.000314
C147	C	1.002252	-0.697665	-0.000307
H148	H	0.982966	-0.737968	-0.024134
H149	H	1.047030	-0.685357	-0.036872
H150	H	1.021723	-0.706123	0.060087
O151	O	0.703644	-0.078615	-0.000313
C152	C	0.700372	-0.043822	-0.065506
H153	H	0.736238	-0.065660	-0.111083
H154	H	0.644089	-0.036999	-0.087386
H155	H	0.718140	-0.000673	-0.050765
H156	H	0.596537	0.173516	-0.000201
H157	H	0.628050	-0.014822	-0.000150
H158	H	0.184052	-0.020158	-0.000246
O159	O	0.952954	-0.223014	-0.000217
C160	C	1.009699	-0.190178	-0.000242
H161	H	0.991646	-0.145806	0.023599
H162	H	1.053963	-0.212194	0.036300
H163	H	1.029375	-0.185981	-0.060644
H164	H	1.004180	-0.389768	-0.000274
H165	H	0.934929	-0.763836	-0.000281
O166	O	0.693824	-0.742126	-0.000248
C167	C	0.638221	-0.697043	-0.000211
H168	H	0.657514	-0.656732	-0.024046
H169	H	0.593453	-0.709340	-0.036754
H170	H	0.618734	-0.688602	0.060193
H171	H	0.645897	-0.350694	-0.000220
O172	O	0.695648	-0.625070	-0.000116
C173	C	0.692323	-0.590315	0.065099
H174	H	0.747716	-0.587438	0.086822
H175	H	0.665990	-0.545607	0.050444
H176	H	0.660573	-0.609794	0.110765
H177	H	0.737605	0.146312	0.330096
H178	H	0.737584	0.146310	0.186324
