data_functionalizedCrystal
_audit_creation_method	'MofGen! by Chris Wilmer'
_symmetry_space_group_name_H-M	'P1'
_symmetry_Int_Tables_number	1
_symmetry_cell_setting	triclinic
loop_
_symmetry_equiv_pos_as_xyz
  x,y,z
_cell_length_a	13.032781
_cell_length_b	13.033304
_cell_length_c	13.032268
_cell_angle_alpha	90.922231
_cell_angle_beta	103.289483
_cell_angle_gamma	74.817397
loop_
_atom_site_label
_atom_site_type_symbol
_atom_site_fract_x
_atom_site_fract_y
_atom_site_fract_z
Zn1	Zn	-0.335811	-1.451136	-0.818130
Zn2	Zn	-0.490907	-1.451023	-0.663065
Zn3	Zn	-0.330108	-1.301800	-0.623680
Zn4	Zn	-0.535892	-1.250935	-0.818003
O5	O	-0.423179	-1.363724	-0.730720
O6	O	-0.339945	-1.597356	-0.814096
O7	O	-0.448363	-1.452468	-0.511620
O8	O	-0.179834	-1.342944	-0.633045
O9	O	-0.453893	-1.597273	-0.700170
O10	O	-0.184024	-1.452661	-0.775907
O11	O	-0.330224	-1.342835	-0.482684
O12	O	-0.373845	-1.148818	-0.632922
O13	O	-0.530564	-1.256252	-0.964241
O14	O	-0.525034	-1.111448	-0.775690
O15	O	-0.383565	-1.403339	-0.964334
O16	O	-0.647904	-1.403147	-0.700047
O17	O	-0.680955	-1.256143	-0.813880
C18	C	-0.453703	-1.092216	-0.700019
C19	C	-0.466791	-0.976056	-0.686913
C20	C	-0.416363	-0.924281	-0.737548
C21	C	-0.429888	-0.804224	-0.724003
C22	C	-0.703590	-1.324138	-0.761250
C23	C	-0.823545	-1.307294	-0.774356
C24	C	-0.984617	-1.355163	-0.737471
C25	C	-0.860637	-1.372575	-0.723925
C26	C	-0.141674	-1.403489	-0.700097
C27	C	-0.021713	-1.420434	-0.687047
C28	C	-0.462719	-1.324134	-1.003261
C29	C	-0.479569	-1.307264	-1.119401
C30	C	-0.392531	-0.636293	-0.761533
C31	C	-0.379453	-0.752451	-0.774644
C32	C	-0.414348	-1.372518	-1.171227
C33	C	-0.431762	-1.355083	-1.291264
C34	C	-0.383709	-1.403230	-0.459237
C35	C	-0.366532	-1.420346	-0.343087
H36	H	-0.519976	-0.931502	-0.633533
H37	H	-0.363171	-0.968837	-0.790921
O38	O	-0.500343	-0.745228	-0.653284
H39	H	-0.567667	-0.680973	-0.700379
H40	H	-1.044643	-1.286394	-0.790674
H41	H	-0.345616	-1.441288	-1.126728
H42	H	-0.800614	-1.441355	-0.670727
O43	O	-0.308995	-0.811446	-0.845360
H44	H	-0.309433	-0.896484	-0.844911
H45	H	-0.500489	-1.286298	-1.335756
O46	O	-0.903037	-1.216181	-0.844826
H47	H	-0.987942	-1.216793	-0.844401
H48	H	-0.297793	-1.489120	-1.298593
O49	O	-0.942216	-1.511547	-0.616589
H50	H	-0.857312	-1.510927	-0.617009
O51	O	-0.570611	-1.216157	-1.178327
H52	H	-0.570004	-1.216763	-1.263363
