data_functionalizedCrystal
_audit_creation_method	'MofGen! by Chris Wilmer'
_symmetry_space_group_name_H-M	'P1'
_symmetry_Int_Tables_number	1
_symmetry_cell_setting	triclinic
loop_
_symmetry_equiv_pos_as_xyz
  x,y,z
_cell_length_a	19.188930
_cell_length_b	19.188930
_cell_length_c	13.596369
_cell_angle_alpha	89.988893
_cell_angle_beta	89.980792
_cell_angle_gamma	83.144779
loop_
_atom_site_label
_atom_site_type_symbol
_atom_site_fract_x
_atom_site_fract_y
_atom_site_fract_z
O1	O	0.926146	0.087169	-0.082119
O2	O	1.259479	0.420502	0.251215
O3	O	1.592812	0.753835	0.584548
O4	O	0.722834	0.098903	-0.082053
O5	O	1.056168	0.432236	0.251281
O6	O	1.389501	0.765570	0.584614
O7	O	0.830357	-0.008620	-0.082068
O8	O	1.163690	0.324714	0.251265
O9	O	1.497024	0.658047	0.584598
O10	O	0.818623	0.194692	-0.082103
O11	O	1.151956	0.528025	0.251230
O12	O	1.485289	0.861358	0.584564
O13	O	0.830346	-0.008625	0.081515
O14	O	1.163680	0.324708	0.414848
O15	O	1.497013	0.658041	0.748181
O16	O	0.722824	0.098897	0.081530
O17	O	1.056157	0.432231	0.414864
O18	O	1.389490	0.765564	0.748197
O19	O	0.926135	0.087163	0.081464
O20	O	1.259468	0.420496	0.414798
O21	O	1.592802	0.753830	0.748131
Zn22	Zn	0.824478	0.093029	0.107470
Zn23	Zn	1.157811	0.426363	0.440803
Zn24	Zn	1.491144	0.759696	0.774136
Zn25	Zn	0.824492	0.093037	-0.108058
Zn26	Zn	1.157825	0.426370	0.225275
Zn27	Zn	1.491158	0.759703	0.558609
O28	O	0.818612	0.194686	0.081480
O29	O	1.151945	0.528019	0.414813
O30	O	1.485279	0.861353	0.748147
C31	C	0.696818	0.098520	-0.000252
C32	C	1.030151	0.431854	0.333081
C33	C	1.363485	0.765187	0.666414
C34	C	0.619313	0.097380	-0.000226
C35	C	0.952647	0.430713	0.333107
C36	C	1.285980	0.764046	0.666440
C37	C	0.574389	0.160470	-0.000253
C38	C	0.907723	0.493804	0.333081
C39	C	1.241056	0.827137	0.666414
C40	C	0.501566	0.159399	-0.000263
C41	C	0.834899	0.492732	0.333070
C42	C	1.168232	0.826065	0.666403
C43	C	0.473669	0.095233	-0.000267
C44	C	0.807002	0.428566	0.333066
C45	C	1.140336	0.761899	0.666399
C46	C	0.518603	0.032133	-0.000236
C47	C	0.851936	0.365467	0.333098
C48	C	1.185270	0.698800	0.666431
C49	C	0.591425	0.033207	-0.000215
C50	C	0.924758	0.366540	0.333118
C51	C	1.258092	0.699874	0.666451
N52	N	0.365693	0.046188	-0.055973
N53	N	0.699026	0.379521	0.277360
N54	N	1.032359	0.712854	0.610694
N55	N	0.296514	0.045172	-0.055995
N56	N	0.629847	0.378505	0.277339
N57	N	0.963181	0.711839	0.610672
C58	C	0.254260	0.091994	-0.000327
C59	C	0.587594	0.425328	0.333006
C60	C	0.920927	0.758661	0.666340
N61	N	0.283798	0.139881	0.055351
N62	N	0.617131	0.473215	0.388684
N63	N	0.950464	0.806548	0.722017
N64	N	0.352982	0.140899	0.055368
N65	N	0.686316	0.474232	0.388701
N66	N	1.019649	0.807565	0.722034
C67	C	0.394707	0.094062	-0.000289
C68	C	0.728040	0.427395	0.333044
C69	C	1.061373	0.760728	0.666378
C70	C	0.130372	0.153928	-0.000363
C71	C	0.463705	0.487261	0.332970
C72	C	0.797039	0.820594	0.666303
C73	C	0.057547	0.152853	-0.000368
C74	C	0.390881	0.486187	0.332965
C75	C	0.724214	0.819520	0.666299
C76	C	0.074586	0.025586	-0.000350
C77	C	0.407919	0.358920	0.332983
C78	C	0.741253	0.692253	0.666316
C79	C	0.147409	0.026662	-0.000336
C80	C	0.480743	0.359996	0.332998
C81	C	0.814076	0.693329	0.666331
C82	C	0.175298	0.090835	-0.000347
C83	C	0.508631	0.424168	0.332986
C84	C	0.841964	0.757502	0.666320
C85	C	0.829972	-0.034634	-0.000274
C86	C	1.163305	0.298700	0.333059
C87	C	1.496638	0.632033	0.666393
C88	C	0.828831	-0.112138	-0.000265
C89	C	1.162164	0.221195	0.333068
C90	C	1.495498	0.554529	0.666402
C91	C	0.891922	-0.157062	-0.000281
C92	C	1.225255	0.176271	0.333053
C93	C	1.558589	0.509605	0.666386
C94	C	0.890850	-0.229886	-0.000296
C95	C	1.224184	0.103448	0.333037
C96	C	1.557517	0.436781	0.666370
C97	C	0.826684	-0.257782	-0.000276
C98	C	1.160017	0.075551	0.333057
C99	C	1.493351	0.408884	0.666391
C100	C	0.763585	-0.212849	-0.000266
C101	C	1.096918	0.120485	0.333067
C102	C	1.430252	0.453818	0.666401
C103	C	0.764658	-0.140026	-0.000260
C104	C	1.097992	0.193307	0.333073
C105	C	1.431325	0.526640	0.666406
N106	N	0.777633	-0.365789	0.055410
N107	N	1.110966	-0.032456	0.388744
N108	N	1.444300	0.300877	0.722077
N109	N	0.776618	-0.434968	0.055407
N110	N	1.109951	-0.101635	0.388740
N111	N	1.443284	0.231699	0.722074
C112	C	0.823446	-0.477191	-0.000295
C113	C	1.156779	-0.143858	0.333038
C114	C	1.490113	0.189476	0.666372
N115	N	0.871339	-0.447624	-0.055981
N116	N	1.204672	-0.114290	0.277352
N117	N	1.538005	0.219043	0.610685
N118	N	0.872356	-0.378439	-0.055974
N119	N	1.205690	-0.045106	0.277360
N120	N	1.539023	0.288228	0.610693
C121	C	0.825513	-0.336745	-0.000283
C122	C	1.158846	-0.003412	0.333051
C123	C	1.492180	0.329922	0.666384
C124	C	0.885379	-0.601079	-0.000329
C125	C	1.218712	-0.267746	0.333005
C126	C	1.552046	0.065587	0.666338
C127	C	0.884305	-0.673904	-0.000350
C128	C	1.217638	-0.340571	0.332983
C129	C	1.550971	-0.007238	0.666316
C130	C	0.757038	-0.656865	-0.000310
C131	C	1.090371	-0.323532	0.333023
C132	C	1.423704	0.009801	0.666357
C133	C	0.758114	-0.584042	-0.000298
C134	C	1.091447	-0.250709	0.333035
C135	C	1.424781	0.082624	0.666368
C136	C	0.822286	-0.556154	-0.000303
C137	C	1.155620	-0.222821	0.333030
C138	C	1.488953	0.110513	0.666364
C139	C	0.952151	0.087546	-0.000338
C140	C	1.285485	0.420879	0.332995
C141	C	1.618818	0.754213	0.666329
C142	C	1.029656	0.088687	-0.000370
C143	C	1.362989	0.422020	0.332963
C144	C	1.696322	0.755353	0.666296
C145	C	0.818997	0.220700	-0.000317
C146	C	1.152331	0.554033	0.333017
C147	C	1.485664	0.887366	0.666350
C148	C	0.820138	0.298204	-0.000332
C149	C	1.153471	0.631538	0.333001
C150	C	1.486805	0.964871	0.666335
N151	N	0.824473	0.093024	0.254561
N152	N	1.157806	0.426357	0.587895
N153	N	1.491140	0.759691	0.921228
N154	N	0.824502	0.093037	-0.255150
N155	N	1.157835	0.426370	0.078184
N156	N	1.491168	0.759703	0.411517
C157	C	0.824491	0.093038	0.655852
C158	C	1.157824	0.426371	0.989186
C159	C	1.491157	0.759704	1.322519
C160	C	0.824484	0.093036	0.544201
C161	C	1.157817	0.426369	0.877534
C162	C	1.491150	0.759703	1.210868
C163	C	0.824482	0.093031	0.455211
C164	C	1.157816	0.426365	0.788544
C165	C	1.491149	0.759698	1.121877
C166	C	0.824475	0.093029	0.343552
C167	C	1.157808	0.426362	0.676885
C168	C	1.491141	0.759695	1.010219
H169	H	0.464982	0.210776	-0.000282
H170	H	0.798315	0.544110	0.333052
H171	H	1.131648	0.877443	0.666385
C172	C	0.953707	-0.723324	-0.000379
C173	C	1.287040	-0.389991	0.332954
C174	C	1.620373	-0.056658	0.666288
H175	H	0.943878	-0.770690	-0.000396
H176	H	1.277211	-0.437356	0.332937
H177	H	1.610545	-0.104023	0.666270
H178	H	0.980025	-0.714905	0.056659
H179	H	1.313358	-0.381572	0.389993
H180	H	1.646692	-0.048238	0.723326
H181	H	0.980029	-0.714875	-0.057438
H182	H	1.313362	-0.381541	0.275896
H183	H	1.646696	-0.048208	0.609229
C184	C	0.196831	-0.042736	-0.000321
C185	C	0.530164	0.290597	0.333012
C186	C	0.863497	0.623930	0.666345
H187	H	0.244196	-0.032908	-0.000302
H188	H	0.577529	0.300426	0.333031
H189	H	0.910862	0.633759	0.666364
H190	H	0.188417	-0.069055	-0.057366
H191	H	0.521750	0.264278	0.275968
H192	H	0.855084	0.597612	0.609301
H193	H	0.188376	-0.069059	0.056731
H194	H	0.521709	0.264274	0.390065
H195	H	0.855042	0.597608	0.723398
H196	H	0.628003	-0.018171	-0.000194
H197	H	0.961336	0.315162	0.333139
H198	H	1.294670	0.648496	0.666472
H199	H	0.942228	-0.266470	-0.000313
H200	H	1.275561	0.066863	0.333020
H201	H	1.608895	0.400197	0.666354
H202	H	0.153080	0.206181	-0.000358
H203	H	0.486413	0.539514	0.332975
H204	H	0.819746	0.872847	0.666309
H205	H	0.711340	-0.235567	-0.000252
H206	H	1.044674	0.097767	0.333082
H207	H	1.378007	0.431100	0.666415
H208	H	0.495885	-0.020111	-0.000253
H209	H	0.829218	0.313222	0.333081
H210	H	1.162551	0.646556	0.666414
H211	H	0.020970	0.204232	-0.000384
H212	H	0.354303	0.537565	0.332950
H213	H	0.687637	0.870898	0.666283
C214	C	0.686454	-0.687539	-0.000292
C215	C	1.019788	-0.354206	0.333042
C216	C	1.353121	-0.020873	0.666375
H217	H	0.649032	-0.650351	-0.000285
H218	H	0.982365	-0.317017	0.333048
H219	H	1.315699	0.016316	0.666382
H220	H	0.683384	-0.715605	0.056749
H221	H	1.016717	-0.382272	0.390082
H222	H	1.350051	-0.048939	0.723415
H223	H	0.683396	-0.715580	-0.057348
H224	H	1.016729	-0.382247	0.275985
H225	H	1.350063	-0.048914	0.609318
H226	H	0.706738	-0.547464	-0.000280
H227	H	1.040072	-0.214131	0.333053
H228	H	1.373405	0.119203	0.666387
C229	C	0.962509	-0.126388	-0.000303
C230	C	1.295842	0.206945	0.333030
C231	C	1.629175	0.540278	0.666363
H232	H	0.999930	-0.163578	-0.000325
H233	H	1.333263	0.169756	0.333008
H234	H	1.666597	0.503089	0.666342
H235	H	0.965573	-0.098341	0.056739
H236	H	1.298906	0.234992	0.390072
H237	H	1.632239	0.568326	0.723406
H238	H	0.965574	-0.098329	-0.057358
H239	H	1.298908	0.235004	0.275975
H240	H	1.632241	0.568338	0.609308
H241	H	0.597091	0.212725	-0.000264
H242	H	0.930424	0.546058	0.333070
H243	H	1.263758	0.879391	0.666403
C244	C	0.695256	-0.090608	-0.000234
C245	C	1.028589	0.242725	0.333100
C246	C	1.361922	0.576059	0.666433
H247	H	0.656885	-0.117649	-0.000219
H248	H	0.990219	0.215684	0.333114
H249	H	1.323552	0.549018	0.666447
H250	H	0.693033	-0.061832	-0.057272
H251	H	1.026366	0.271501	0.276062
H252	H	1.359699	0.604834	0.609395
H253	H	0.693027	-0.061860	0.056825
H254	H	1.026361	0.271473	0.390159
H255	H	1.359694	0.604806	0.723492
C256	C	0.043912	-0.044997	-0.000350
C257	C	0.377245	0.288336	0.332983
C258	C	0.710579	0.621670	0.666317
H259	H	0.081101	-0.082419	-0.000328
H260	H	0.414434	0.250914	0.333006
H261	H	0.747767	0.584247	0.666339
H262	H	0.015877	-0.048062	-0.057399
H263	H	0.349210	0.285272	0.275934
H264	H	0.682544	0.618605	0.609267
H265	H	0.015840	-0.048061	0.056698
H266	H	0.349174	0.285272	0.390031
H267	H	0.682507	0.618606	0.723364
C268	C	0.955964	-0.570399	-0.000345
C269	C	1.289298	-0.237065	0.332988
C270	C	1.622631	0.096268	0.666321
H271	H	0.993387	-0.607587	-0.000371
H272	H	1.326720	-0.274254	0.332962
H273	H	1.660054	0.059080	0.666295
H274	H	0.959026	-0.542357	0.056703
H275	H	1.292359	-0.209023	0.390036
H276	H	1.625693	0.124310	0.723370
H277	H	0.959031	-0.542334	-0.057394
H278	H	1.292364	-0.209000	0.275939
H279	H	1.625697	0.124333	0.609272
