data_functionalizedCrystal
_audit_creation_method	'MofGen! by Chris Wilmer'
_symmetry_space_group_name_H-M	'P1'
_symmetry_Int_Tables_number	1
_symmetry_cell_setting	triclinic
loop_
_symmetry_equiv_pos_as_xyz
  x,y,z
_cell_length_a	16.109302
_cell_length_b	23.532407
_cell_length_c	15.186229
_cell_angle_alpha	89.991614
_cell_angle_beta	89.994701
_cell_angle_gamma	83.155229
loop_
_atom_site_label
_atom_site_type_symbol
_atom_site_fract_x
_atom_site_fract_y
_atom_site_fract_z
O1	O	1.102555	0.073204	-0.073277
O2	O	0.860421	0.082313	-0.073271
O3	O	0.988789	-0.005146	-0.073258
O4	O	0.974186	0.160663	-0.073290
O5	O	0.988781	-0.005147	0.073199
O6	O	0.860413	0.082312	0.073186
O7	O	1.102546	0.073203	0.073180
Zn8	Zn	0.981478	0.077757	0.096436
Zn9	Zn	0.981489	0.077759	-0.096528
O10	O	0.974178	0.160662	0.073167
C11	C	0.829445	0.081944	-0.000042
C12	C	0.737158	0.080837	-0.000039
C13	C	0.524833	0.078278	0.079787
C14	C	0.438121	0.077232	0.079784
C15	C	0.438141	0.077236	-0.079892
C16	C	0.524852	0.078278	-0.079888
C17	C	0.568195	0.078802	-0.000046
C18	C	0.394772	0.076714	-0.000053
C19	C	0.300755	0.075580	-0.000057
C20	C	0.662218	0.079935	-0.000042
C21	C	0.988413	-0.026364	-0.000027
C22	C	0.987295	-0.089585	-0.000021
C23	C	1.056248	-0.488434	-0.000071
C24	C	1.055210	-0.547838	-0.000077
O25	O	1.119130	-0.584347	-0.000111
N26	N	0.978895	-0.570746	-0.000075
C27	C	0.903614	-0.534246	-0.000075
O28	O	0.838607	-0.559186	-0.000074
C29	C	0.904653	-0.474843	-0.000074
C30	C	0.980973	-0.451939	-0.000068
C31	C	1.132562	-0.465529	-0.000065
C32	C	1.133600	-0.406129	-0.000057
C33	C	1.058325	-0.369634	-0.000054
C34	C	0.982011	-0.392539	-0.000060
C35	C	0.829373	-0.438345	-0.000080
C36	C	0.830419	-0.378938	-0.000081
C37	C	0.906739	-0.356034	-0.000074
C38	C	0.907774	-0.296644	-0.000048
N39	N	0.984089	-0.273736	-0.000051
C40	C	1.059364	-0.310231	-0.000054
C41	C	0.901436	-0.658997	-0.000077
C42	C	0.900396	-0.718398	-0.000071
C43	C	1.051993	-0.731986	-0.000075
C44	C	1.053032	-0.672583	-0.000075
C45	C	0.977751	-0.636089	-0.000079
C46	C	1.061539	-0.185486	-0.000035
C47	C	1.062571	-0.126080	-0.000024
C48	C	0.910975	-0.112498	-0.000024
C49	C	0.909943	-0.171898	-0.000031
C50	C	0.985232	-0.208392	-0.000040
O51	O	0.843887	-0.260100	-0.000018
O52	O	1.124361	-0.285283	-0.000066
C53	C	1.133522	0.073572	-0.000052
C54	C	1.225809	0.074679	-0.000060
C55	C	0.974554	0.181880	-0.000066
C56	C	0.975672	0.245101	-0.000078
N57	N	0.981476	0.077756	0.228129
N58	N	0.981497	0.077756	-0.228220
C59	C	1.038337	0.039042	0.453857
C60	C	1.038340	0.039040	0.546047
C61	C	0.924631	0.116472	0.546045
C62	C	0.924625	0.116470	0.453857
C63	C	0.981483	0.077756	0.407765
C64	C	0.981491	0.077756	0.592143
C65	C	0.981494	0.077755	0.692099
C66	C	0.981479	0.077756	0.307803
H67	H	1.124722	-0.107435	-0.000016
H68	H	1.084633	0.007517	0.416332
C69	C	1.100877	-0.003552	0.596744
N70	N	1.147981	-0.035637	0.634929
C71	C	0.572509	0.078847	0.167615
N72	N	0.608416	0.079273	0.233770
H73	H	1.122847	-0.215193	-0.000046
C74	C	1.215379	-0.505665	-0.000059
N75	N	1.277762	-0.535893	-0.000044
C76	C	0.390454	0.076665	-0.167713
N77	N	0.354537	0.076237	-0.233862
C78	C	0.825988	-0.197094	-0.000033
N79	N	0.762751	-0.216067	-0.000043
H80	H	0.402819	0.076806	0.144792
H81	H	0.560159	0.078703	-0.144902
H82	H	1.195748	-0.387486	-0.000055
C83	C	1.136989	-0.647395	-0.000076
N84	N	1.200229	-0.628426	-0.000079
C85	C	1.134798	-0.772142	-0.000088
N86	N	1.197162	-0.802389	-0.000098
H87	H	0.769115	-0.349227	-0.000086
H88	H	0.838249	-0.737041	-0.000061
C89	C	0.862115	0.159086	0.403152
N90	N	0.815047	0.191192	0.364962
H91	H	0.767225	-0.456982	-0.000091
C92	C	0.818616	-0.618857	-0.000070
N93	N	0.756236	-0.588627	-0.000066
C94	C	0.828176	-0.072342	-0.000027
N95	N	0.765811	-0.042095	-0.000038
C96	C	0.862089	0.159054	0.596754
N97	N	0.814981	0.191128	0.634947
