data_functionalizedCrystal
_audit_creation_method	'MofGen! by Chris Wilmer'
_symmetry_space_group_name_H-M	'P1'
_symmetry_Int_Tables_number	1
_symmetry_cell_setting	triclinic
loop_
_symmetry_equiv_pos_as_xyz
  x,y,z
_cell_length_a	15.995300
_cell_length_b	15.995350
_cell_length_c	9.798715
_cell_angle_alpha	90.001152
_cell_angle_beta	90.005039
_cell_angle_gamma	83.482091
loop_
_atom_site_label
_atom_site_type_symbol
_atom_site_fract_x
_atom_site_fract_y
_atom_site_fract_z
O1	O	1.111011	0.107724	0.113534
O2	O	0.867230	0.121096	0.113525
O3	O	0.995784	-0.007479	0.113529
O4	O	0.982456	0.236299	0.113531
O5	O	0.995775	-0.007480	-0.113454
O6	O	0.867221	0.121095	-0.113457
O7	O	1.111002	0.107723	-0.113448
Zn8	Zn	0.989110	0.114409	-0.149491
Zn9	Zn	0.989122	0.114410	0.149568
O10	O	0.982447	0.236298	-0.113452
C11	C	0.836030	0.120550	0.000033
C12	C	0.743077	0.118915	0.000030
C13	C	0.572894	0.115896	0.000040
C14	C	0.525428	0.207443	0.000038
C15	C	0.428740	0.205773	0.000556
C16	C	0.405337	0.112924	0.000049
C17	C	0.446475	0.067504	0.129411
C18	C	0.543109	0.069821	0.129516
C19	C	0.543378	0.068464	-0.128614
C20	C	0.446433	0.068473	-0.130311
C21	C	0.310642	0.111239	0.000058
C22	C	0.667590	0.117577	0.000040
C23	C	0.995229	-0.038674	0.000040
C24	C	0.993577	-0.131624	0.000048
C25	C	0.987644	-0.469370	0.000043
C26	C	0.896090	-0.421920	0.000549
C27	C	0.897743	-0.325230	0.000037
C28	C	0.990587	-0.301810	0.000046
C29	C	1.035740	-0.342896	-0.129568
C30	C	1.033440	-0.439532	-0.129676
C31	C	1.035341	-0.439889	0.128445
C32	C	1.035320	-0.342944	0.130158
C33	C	0.992255	-0.207113	0.000043
C34	C	0.985979	-0.564068	0.000037
C35	C	1.142202	0.108269	0.000047
C36	C	1.235154	0.109904	0.000059
C37	C	0.983003	0.267493	0.000040
C38	C	0.984655	0.360443	0.000041
N39	N	0.989108	0.114408	-0.353591
C40	C	0.935140	0.168627	-0.421402
C41	C	0.935152	0.168626	-0.578565
N42	N	0.989130	0.114405	0.353668
H43	H	0.543916	0.244234	-0.092713
H44	H	0.862003	-0.297359	-0.093036
C45	C	0.586315	-0.022719	-0.130300
N46	N	0.618659	-0.091397	-0.131559
C47	C	0.571061	0.109186	-0.261118
N48	N	0.591912	0.139866	-0.360913
C49	C	0.846652	-0.446954	0.126108
N50	N	0.809413	-0.465819	0.220681
C51	C	1.126532	-0.482818	0.129637
N52	N	1.195213	-0.515157	0.130526
H53	H	1.002307	-0.315689	0.226043
H54	H	0.888930	0.215050	-0.363109
C55	C	0.872727	0.231335	-0.657343
N56	N	0.825707	0.278570	-0.716683
H57	H	0.862249	-0.296801	0.092949
H58	H	1.035334	0.067980	-0.588026
H59	H	1.100657	-0.471792	-0.135551
C60	C	0.408129	0.109566	0.259962
N61	N	0.379233	0.141239	0.358290
H62	H	0.400273	0.241462	-0.092154
C63	C	0.551918	0.256407	0.125177
N64	N	0.571871	0.293283	0.219436
H65	H	1.035324	0.067991	-0.411885
C66	C	0.391121	0.253773	0.126573
N67	N	0.362788	0.289925	0.221499
C68	C	0.425705	-0.022978	-0.141392
N69	N	0.410091	-0.091861	-0.149730
C70	C	0.567865	0.114037	0.260655
N71	N	0.586507	0.147340	0.359434
H72	H	0.432376	-0.000719	0.133858
C73	C	0.586710	-0.020995	0.136986
N74	N	0.619548	-0.089395	0.142626
C75	C	0.988939	-0.464250	-0.260568
N76	N	0.955417	-0.482862	-0.359157
C77	C	0.409487	0.113274	-0.259606
N78	N	0.381652	0.147018	-0.356989
C79	C	0.846877	-0.448355	-0.124353
N80	N	0.809816	-0.468260	-0.218441
H81	H	1.004372	-0.314510	-0.226028
H82	H	1.005412	-0.460423	0.226685
C83	C	1.126792	-0.322214	0.140736
N84	N	1.195694	-0.306604	0.148690
C85	C	1.127883	-0.323814	-0.136093
N86	N	1.197284	-0.309433	-0.141012
