data_functionalizedCrystal
_audit_creation_method	'MofGen! by Chris Wilmer'
_symmetry_space_group_name_H-M	'P1'
_symmetry_Int_Tables_number	1
_symmetry_cell_setting	triclinic
loop_
_symmetry_equiv_pos_as_xyz
  x,y,z
_cell_length_a	16.109301
_cell_length_b	12.837942
_cell_length_c	15.186229
_cell_angle_alpha	89.996774
_cell_angle_beta	89.999362
_cell_angle_gamma	89.145211
loop_
_atom_site_label
_atom_site_type_symbol
_atom_site_fract_x
_atom_site_fract_y
_atom_site_fract_z
O1	O	1.113716	0.133240	-0.073172
O2	O	0.872971	0.149822	-0.073186
O3	O	0.988005	-0.009370	-0.073174
O4	O	0.998681	0.292432	-0.073184
O5	O	0.987996	-0.009372	0.073283
O6	O	0.872962	0.149820	0.073271
O7	O	1.113707	0.133238	0.073285
Zn8	Zn	0.993333	0.141528	0.096532
Zn9	Zn	0.993345	0.141531	-0.096432
O10	O	0.998673	0.292430	0.073273
C11	C	0.841938	0.149149	0.000041
C12	C	0.749483	0.147135	0.000036
C13	C	0.534343	0.236914	0.000043
C14	C	0.447471	0.235014	0.000049
C15	C	0.452341	0.046138	0.000051
C16	C	0.539211	0.048040	0.000052
C17	C	0.580209	0.143431	0.000043
C18	C	0.406468	0.139629	0.000048
C19	C	0.312278	0.137568	0.000055
C20	C	0.674405	0.145492	0.000039
C21	C	0.984394	-0.047991	0.000054
C22	C	0.973637	-0.163064	0.000052
C23	C	1.102954	-0.404066	0.000041
C24	C	1.092851	-0.512188	0.000039
C25	C	0.943328	-0.487433	0.000040
C26	C	0.953431	-0.379311	0.000042
C27	C	1.033247	-0.337632	0.000044
C28	C	1.043349	-0.229507	0.000052
C29	C	0.893827	-0.204754	0.000046
C30	C	0.883724	-0.312876	0.000044
C31	C	1.144739	0.133911	0.000056
C32	C	1.237195	0.135924	0.000056
C33	C	1.002284	0.331050	0.000043
C34	C	1.013041	0.446124	0.000040
N35	N	0.993331	0.141526	0.228224
N36	N	0.993352	0.141526	-0.228125
C37	C	1.044289	0.071059	0.453952
C38	C	1.044292	0.071057	0.546142
C39	C	0.942388	0.211996	0.546141
C40	C	0.942382	0.211992	0.453953
C41	C	0.993337	0.141525	0.407861
C42	C	0.993346	0.141526	0.592239
C43	C	0.993348	0.141524	0.692195
C44	C	0.993334	0.141526	0.307898
H45	H	1.108339	-0.195574	0.000057
H46	H	0.837067	-0.150651	0.000055
H47	H	1.085779	0.013679	0.416427
H48	H	1.167943	-0.370130	0.000051
H49	H	0.900887	0.269374	0.416422
O50	O	0.574206	0.329547	-0.000115
C51	C	0.669492	0.441294	-0.075965
C52	C	0.624389	0.336359	-0.075908
H53	H	0.710089	0.446826	-0.137227
H54	H	0.621819	0.507823	-0.076020
H55	H	0.710004	0.446889	-0.014646
H56	H	0.583878	0.330662	-0.137217
H57	H	0.672106	0.269880	-0.075807
O58	O	1.093866	0.002569	0.590779
C59	C	1.194905	-0.137262	0.581045
C60	C	1.138817	-0.059735	0.530386
H61	H	1.231249	-0.187669	0.532240
H62	H	1.240038	-0.092546	0.624177
H63	H	1.154900	-0.189015	0.624234
H64	H	1.178756	-0.007962	0.487150
H65	H	1.093680	-0.104515	0.487310
H66	H	0.576557	-0.028091	0.000055
H67	H	1.149614	-0.566277	0.000034
O68	O	0.865861	-0.528103	0.000074
C69	C	0.784040	-0.683709	0.000009
C70	C	0.871819	-0.637790	-0.000011
H71	H	0.788827	-0.772396	-0.000078
H72	H	0.749138	-0.656436	0.061317
H73	H	0.749165	-0.656278	-0.061267
H74	H	0.906763	-0.665200	0.061224
H75	H	0.906657	-0.665057	-0.061359
O76	O	0.892818	0.280485	0.590779
C77	C	0.791775	0.420313	0.581047
C78	C	0.847859	0.342787	0.530387
H79	H	0.755424	0.470719	0.532241
H80	H	0.746648	0.375595	0.624189
H81	H	0.831784	0.472068	0.624224
H82	H	0.807917	0.291013	0.487162
H83	H	0.892991	0.387569	0.487300
O84	O	0.402880	0.325796	0.000198
C85	C	0.301939	0.433240	0.076040
C86	C	0.352402	0.330399	0.075990
H87	H	0.261103	0.436985	0.137302
H88	H	0.346127	0.501781	0.076090
H89	H	0.261184	0.437056	0.014720
H90	H	0.393161	0.326481	0.137300
H91	H	0.308168	0.261905	0.075894
H92	H	0.818741	-0.346827	0.000039
H93	H	0.418949	-0.031526	0.000064
