data_functionalizedCrystal
_audit_creation_method	'MofGen! by Chris Wilmer'
_symmetry_space_group_name_H-M	'P1'
_symmetry_Int_Tables_number	1
_symmetry_cell_setting	triclinic
loop_
_symmetry_equiv_pos_as_xyz
  x,y,z
_cell_length_a	14.519731
_cell_length_b	14.519709
_cell_length_c	13.330367
_cell_angle_alpha	89.999019
_cell_angle_beta	89.989571
_cell_angle_gamma	83.684499
loop_
_atom_site_label
_atom_site_type_symbol
_atom_site_fract_x
_atom_site_fract_y
_atom_site_fract_z
O1	O	1.223836	0.120978	0.083428
O2	O	1.557169	0.454311	0.416761
O3	O	1.890503	0.787645	0.750095
O4	O	0.955362	0.135194	0.083430
O5	O	1.288695	0.468527	0.416763
O6	O	1.622028	0.801861	0.750096
O7	O	1.096717	-0.006152	0.083420
O8	O	1.430050	0.327181	0.416753
O9	O	1.763384	0.660515	0.750086
O10	O	1.082481	0.262324	0.083438
O11	O	1.415814	0.595657	0.416771
O12	O	1.749147	0.928991	0.750105
O13	O	1.096744	-0.006143	-0.083427
O14	O	1.430077	0.327191	0.249906
O15	O	1.763410	0.660524	0.583239
O16	O	0.955388	0.135203	-0.083417
O17	O	1.288722	0.468537	0.249916
O18	O	1.622055	0.801870	0.583249
O19	O	1.223862	0.120987	-0.083419
O20	O	1.557196	0.454321	0.249914
O21	O	1.890529	0.787654	0.583247
Cu22	Cu	1.089628	0.128096	-0.098653
Cu23	Cu	1.422961	0.461429	0.234680
Cu24	Cu	1.756294	0.794763	0.568014
Cu25	Cu	1.089597	0.128085	0.098663
Cu26	Cu	1.422930	0.461418	0.431997
Cu27	Cu	1.756263	0.794752	0.765330
O28	O	1.082507	0.262333	-0.083409
O29	O	1.415840	0.595666	0.249924
O30	O	1.749174	0.929000	0.583257
C31	C	0.921016	0.134532	0.000006
C32	C	1.254349	0.467866	0.333340
C33	C	1.587682	0.801199	0.666673
C34	C	0.818635	0.132536	0.000007
C35	C	1.151969	0.465870	0.333340
C36	C	1.485302	0.799203	0.666673
C37	C	0.735491	0.130915	0.000011
C38	C	1.068825	0.464248	0.333344
C39	C	1.402158	0.797581	0.666677
C40	C	0.631182	0.128888	0.000011
C41	C	0.964516	0.462221	0.333344
C42	C	1.297849	0.795555	0.666677
C43	C	0.548043	0.127280	0.000011
C44	C	0.881377	0.460613	0.333344
C45	C	1.214710	0.793946	0.666677
C46	C	0.443728	0.125253	0.000013
C47	C	0.777061	0.458586	0.333346
C48	C	1.110395	0.791920	0.666679
C49	C	1.096067	-0.040507	-0.000004
C50	C	1.429400	0.292826	0.333329
C51	C	1.762734	0.626160	0.666663
C52	C	1.094079	-0.142889	-0.000005
C53	C	1.427412	0.190445	0.333329
C54	C	1.760745	0.523778	0.666662
C55	C	1.086759	-0.517785	0.000022
C56	C	1.420093	-0.184452	0.333355
C57	C	1.753426	0.148882	0.666688
C58	C	1.088792	-0.413477	0.000014
C59	C	1.422125	-0.080143	0.333347
C60	C	1.755459	0.253190	0.666681
C61	C	1.090419	-0.330340	0.000008
C62	C	1.423752	0.002993	0.333341
C63	C	1.757085	0.336327	0.666674
C64	C	1.092452	-0.226025	0.000002
C65	C	1.425785	0.107308	0.333335
C66	C	1.759118	0.440641	0.666668
C67	C	1.258209	0.121649	0.000006
C68	C	1.591542	0.454982	0.333340
C69	C	1.924875	0.788315	0.666673
C70	C	1.360589	0.123645	0.000013
C71	C	1.693922	0.456978	0.333346
C72	C	2.027256	0.790311	0.666679
C73	C	1.083157	0.296688	0.000017
C74	C	1.416491	0.630022	0.333350
C75	C	1.749824	0.963355	0.666683
C76	C	1.085146	0.399070	0.000024
C77	C	1.418479	0.732403	0.333357
C78	C	1.751812	1.065736	0.666690
N79	N	1.089575	0.128071	0.237445
N80	N	1.422908	0.461404	0.570778
N81	N	1.756242	0.794737	0.904111
N82	N	1.089656	0.128103	-0.237434
N83	N	1.422990	0.461436	0.095899
N84	N	1.756323	0.794770	0.429232
C85	C	1.026935	0.190562	0.710072
C86	C	1.360269	0.523895	1.043405
C87	C	1.693602	0.857228	1.376739
C88	C	1.152360	0.065638	0.710031
C89	C	1.485693	0.398972	1.043365
C90	C	1.819027	0.732305	1.376698
C91	C	1.152346	0.065632	0.605013
C92	C	1.485679	0.398965	0.938346
C93	C	1.819013	0.732298	1.271680
C94	C	1.089625	0.128090	0.552519
C95	C	1.422958	0.461423	0.885853
C96	C	1.756291	0.794757	1.219186
C97	C	1.026917	0.190555	0.605044
C98	C	1.360251	0.523888	0.938377
C99	C	1.693584	0.857222	1.271711
C100	C	1.215046	0.003162	0.552480
C101	C	1.548379	0.336495	0.885814
C102	C	1.881712	0.669828	1.219147
C103	C	1.215034	0.003152	0.447456
C104	C	1.548367	0.336485	0.780789
C105	C	1.881700	0.669819	1.114122
C106	C	1.152316	0.065616	0.394960
C107	C	1.485649	0.398949	0.728293
C108	C	1.818983	0.732282	1.061627
C109	C	1.089607	0.128084	0.447491
C110	C	1.422940	0.461417	0.780824
C111	C	1.756274	0.794750	1.114158
C112	C	1.026886	0.190542	0.394997
C113	C	1.360219	0.523875	0.728331
C114	C	1.693552	0.857209	1.061664
C115	C	0.964180	0.253015	0.447527
C116	C	1.297514	0.586349	0.780860
C117	C	1.630847	0.919682	1.114193
C118	C	0.964200	0.253019	0.552548
C119	C	1.297533	0.586352	0.885882
C120	C	1.630867	0.919685	1.219215
C121	C	1.152296	0.065612	0.289938
C122	C	1.485630	0.398946	0.623272
C123	C	1.818963	0.732279	0.956605
C124	C	1.026868	0.190536	0.289969
C125	C	1.360201	0.523869	0.623303
C126	C	1.693535	0.857202	0.956636
H127	H	0.975796	0.241400	0.247235
H128	H	1.309129	0.574734	0.580569
H129	H	1.642462	0.908067	0.913902
N130	N	0.896525	0.320373	0.390905
N131	N	1.229858	0.653706	0.724238
N132	N	1.563192	0.987039	1.057572
H133	H	0.906030	0.310881	0.316405
H134	H	1.239363	0.644214	0.649738
H135	H	1.572696	0.977547	0.983071
H136	H	0.907158	0.385860	0.409239
H137	H	1.240491	0.719194	0.742572
H138	H	1.573824	1.052527	1.075906
N139	N	1.219914	-0.001765	0.233281
N140	N	1.553247	0.331568	0.566614
N141	N	1.886580	0.664902	0.899947
H142	H	1.259646	-0.041334	0.282472
H143	H	1.592980	0.291999	0.615805
H144	H	1.926313	0.625333	0.949138
H145	H	1.260659	0.033716	0.189688
H146	H	1.593993	0.367049	0.523021
H147	H	1.927326	0.700383	0.856355
H148	H	1.266107	-0.047695	0.595224
H149	H	1.599440	0.285639	0.928557
H150	H	1.932774	0.618972	1.261891
H151	H	0.913147	0.303881	0.595324
H152	H	1.246480	0.637215	0.928657
H153	H	1.579813	0.970548	1.261991
N154	N	0.959308	0.257943	0.766719
N155	N	1.292641	0.591277	1.100052
N156	N	1.625974	0.924610	1.433385
H157	H	0.968833	0.248476	0.841216
H158	H	1.302167	0.581809	1.174549
H159	H	1.635500	0.915142	1.507883
H160	H	0.893903	0.247009	0.748390
H161	H	1.227236	0.580343	1.081723
H162	H	1.560569	0.913676	1.415056
H163	H	1.203421	0.014782	0.752775
H164	H	1.536755	0.348115	1.086108
H165	H	1.870088	0.681449	1.419442
H166	H	1.266092	-0.047716	0.404693
H167	H	1.599425	0.285618	0.738026
H168	H	1.932759	0.618951	1.071359
