data_functionalizedCrystal
_audit_creation_method	'MofGen! by Chris Wilmer'
_symmetry_space_group_name_H-M	'P1'
_symmetry_Int_Tables_number	1
_symmetry_cell_setting	triclinic
loop_
_symmetry_equiv_pos_as_xyz
  x,y,z
_cell_length_a	14.044220
_cell_length_b	14.044191
_cell_length_c	13.101039
_cell_angle_alpha	86.337551
_cell_angle_beta	93.667477
_cell_angle_gamma	93.190327
loop_
_atom_site_label
_atom_site_type_symbol
_atom_site_fract_x
_atom_site_fract_y
_atom_site_fract_z
O1	O	0.225377	1.281976	-0.085169
O2	O	0.217064	1.005305	-0.085182
O3	O	0.082885	1.139487	-0.085166
O4	O	0.359556	1.147794	-0.085186
O5	O	0.092530	1.129861	0.085263
O6	O	0.226708	0.995679	0.085247
O7	O	0.235022	1.272350	0.085259
Zn8	Zn	0.232396	1.132486	0.112312
Zn9	Zn	0.219689	1.145169	-0.112235
O10	O	0.369200	1.138168	0.085243
C11	C	0.218250	0.964870	0.000031
C12	C	0.207402	0.858727	0.000026
C13	C	0.264503	0.613268	0.000032
C14	C	0.187587	0.664393	0.000036
C15	C	0.198615	0.772531	0.000031
C16	C	0.253476	0.505121	0.000038
C17	C	0.052086	1.131038	0.000049
C18	C	-0.054057	1.120194	0.000050
C19	C	-0.248396	1.100368	0.000034
C20	C	-0.299524	1.177283	0.000034
C21	C	-0.407661	1.166252	0.000026
C22	C	-0.140250	1.111398	0.000043
C23	C	0.400000	1.146617	0.000026
C24	C	0.506143	1.157462	0.000019
C25	C	0.233836	1.312785	0.000044
C26	C	0.244683	1.418929	0.000042
N27	N	0.241069	1.123838	0.265560
N28	N	0.211010	1.153824	-0.265482
C29	C	0.252876	1.112072	0.474601
C30	C	0.199205	1.165588	0.525483
C31	C	0.205775	1.159041	0.641801
C32	C	0.246308	1.118617	0.358273
H33	H	0.113451	0.626954	-0.000031
H34	H	-0.285836	1.026241	0.000028
H35	H	0.338629	0.650710	0.000024
O36	O	0.138395	1.225909	0.473085
C37	C	0.145133	1.218948	0.366930
H38	H	0.217342	1.190864	0.352332
H39	H	0.137952	1.292515	0.325957
H40	H	0.085553	1.167839	0.336659
O41	O	0.313564	1.051636	0.526998
C42	C	0.306685	1.058467	0.633151
H43	H	0.278135	1.130490	0.647666
H44	H	0.380367	1.051827	0.674015
H45	H	0.255992	0.998608	0.663612
O46	O	-0.254766	1.265684	-0.000086
C47	C	-0.202306	1.281643	-0.088357
H48	H	-0.185647	1.210123	-0.117796
H49	H	-0.132695	1.323984	-0.068491
H50	H	-0.246151	1.323726	-0.150162
