data_functionalizedCrystal
_audit_creation_method	'MofGen! by Chris Wilmer'
_symmetry_space_group_name_H-M	'P1'
_symmetry_Int_Tables_number	1
_symmetry_cell_setting	triclinic
loop_
_symmetry_equiv_pos_as_xyz
  x,y,z
_cell_length_a	16.625539
_cell_length_b	11.169417
_cell_length_c	16.625546
_cell_angle_alpha	89.976283
_cell_angle_beta	90.030397
_cell_angle_gamma	89.983071
loop_
_atom_site_label
_atom_site_type_symbol
_atom_site_fract_x
_atom_site_fract_y
_atom_site_fract_z
Zn1	Zn	-0.455819	1.834831	0.320973
Zn2	Zn	-0.320982	1.834686	0.455816
Zn3	Zn	-0.321008	1.634125	0.321004
Zn4	Zn	-0.455780	1.634081	0.455771
O5	O	-0.388397	1.734431	0.388391
O6	O	-0.437938	2.002761	0.338867
O7	O	-0.208153	1.808040	0.437966
O8	O	-0.338919	1.660828	0.208168
O9	O	-0.338873	2.002655	0.437935
O10	O	-0.437964	1.808285	0.208145
O11	O	-0.208172	1.660688	0.338920
O12	O	-0.338881	1.466170	0.338875
O13	O	-0.568618	1.660753	0.437857
O14	O	-0.437897	1.466138	0.437887
O15	O	-0.568647	1.808243	0.338822
O16	O	-0.338835	1.807997	0.568643
O17	O	-0.437871	1.660613	0.568609
C18	C	-0.388388	1.422606	0.388380
C19	C	-0.388403	1.289206	0.388395
C20	C	-0.598706	1.734509	0.388331
C21	C	-0.688328	1.734542	0.388306
C22	C	-1.016503	1.734598	0.388215
C23	C	-0.925195	1.734579	0.388243
C24	C	-0.852418	1.734571	0.388261
C25	C	-0.761104	1.734551	0.388287
C26	C	-0.178907	1.734422	0.388393
C27	C	-0.089286	1.734622	0.388191
C28	C	-0.388364	1.734317	0.597882
C29	C	-0.388376	1.734379	0.687503
C30	C	-0.388407	2.047473	0.388403
C31	C	-0.388411	2.180873	0.388408
C32	C	-0.388449	1.734578	0.178082
C33	C	-0.388471	1.734640	0.088461
C34	C	-0.388460	1.734588	1.015679
C35	C	-0.388439	1.734526	0.924370
C36	C	-0.388418	1.734482	0.851594
C37	C	-0.388397	1.734422	0.760280
