data_functionalizedCrystal
_audit_creation_method	'MofGen! by Chris Wilmer'
_symmetry_space_group_name_H-M	'P1'
_symmetry_Int_Tables_number	1
_symmetry_cell_setting	triclinic
loop_
_symmetry_equiv_pos_as_xyz
  x,y,z
_cell_length_a	6.817900
_cell_length_b	9.582889
_cell_length_c	10.943624
_cell_angle_alpha	90.879661
_cell_angle_beta	108.838799
_cell_angle_gamma	111.207298
loop_
_atom_site_label
_atom_site_type_symbol
_atom_site_fract_x
_atom_site_fract_y
_atom_site_fract_z
V1	V	-4.128078	-0.207017	-0.402315
O2	O	-4.072597	0.009988	-0.394900
O3	O	-4.118397	-0.410518	-0.399329
O4	O	-4.105846	-0.203815	-0.577885
O5	O	-4.085235	-0.198146	-0.215108
V6	V	-4.603298	-0.181062	-0.379952
O7	O	-4.407549	-0.263949	-0.451370
O8	O	-4.774023	-0.124130	-0.330897
O9	O	-4.389772	0.022439	-0.382937
O10	O	-4.776175	-0.398067	-0.387367
O11	O	-4.763537	-0.189933	-0.567159
O12	O	-4.402323	-0.184264	-0.204382
C13	C	-3.971970	-0.460128	-0.392922
C14	C	-4.045516	-0.626492	-0.391651
C15	C	-3.955958	-0.196455	-0.620686
C16	C	-4.019321	-0.195184	-0.764214
C17	C	-3.863630	-0.186621	-0.841371
C18	C	-4.060713	-0.313713	-0.947216
C19	C	-3.935166	-0.065840	-0.914112
C20	C	-4.215622	-0.322395	-0.868182
C21	C	-4.089987	-0.074410	-0.835055
C22	C	-4.287209	-0.201538	-0.940870
C23	C	-4.199542	0.072041	-0.389341
C24	C	-4.105235	0.238404	-0.390620
C25	C	-4.215552	-0.191629	-0.161574
C26	C	-4.131427	-0.192893	-0.018045
H27	H	-4.049000	-0.414882	-0.996049
H28	H	-4.466909	-0.207875	-0.984107
C29	C	-4.372635	-0.467078	-0.840371
C30	C	-4.310886	-0.466658	-0.705252
C31	C	-4.455443	-0.599924	-0.679582
H32	H	-4.522741	-0.472834	-0.875213
H33	H	-4.362441	-0.552013	-0.879759
H34	H	-4.321102	-0.381746	-0.665880
H35	H	-4.160804	-0.460926	-0.670380
H36	H	-4.445249	-0.684859	-0.718970
H37	H	-4.605541	-0.605668	-0.714430
H38	H	-4.413555	-0.599663	-0.587903
C39	C	-4.105086	0.060685	-0.769915
C40	C	-3.957026	0.194636	-0.792435
C41	C	-3.970826	0.319128	-0.732428
H42	H	-4.254297	0.056549	-0.805228
H43	H	-4.065624	0.058419	-0.678607
H44	H	-3.996501	0.196901	-0.883724
H45	H	-3.807797	0.198822	-0.757118
H46	H	-3.931365	0.316862	-0.641120
H47	H	-4.120043	0.314977	-0.767746
H48	H	-3.870358	0.410028	-0.747689
C49	C	-3.778072	0.078619	-0.942167
C50	C	-3.841217	0.078542	-1.077281
C51	C	-3.696523	0.211575	-1.103169
H52	H	-3.786941	0.163772	-0.902237
H53	H	-3.628206	0.083745	-0.908020
H54	H	-3.991045	0.073431	-1.111412
H55	H	-3.832336	-0.006581	-1.117241
H56	H	-3.546657	0.216702	-1.069022
H57	H	-3.705403	0.296718	-1.063232
H58	H	-3.739334	0.211535	-1.194845
C59	C	-3.624187	-0.178366	-0.783170
C60	C	-3.566742	-0.178322	-0.648235
C61	C	-3.346187	-0.170709	-0.594573
H62	H	-3.613394	-0.263484	-0.821791
H63	H	-3.524320	-0.088088	-0.799664
H64	H	-3.666580	-0.268590	-0.631752
H65	H	-3.577483	-0.093210	-0.609579
H66	H	-3.246320	-0.080431	-0.611066
H67	H	-3.335416	-0.255829	-0.633203
H68	H	-3.307175	-0.170664	-0.503013
