data_functionalizedCrystal
_audit_creation_method	'MofGen! by Chris Wilmer'
_symmetry_space_group_name_H-M	'P1'
_symmetry_Int_Tables_number	1
_symmetry_cell_setting	triclinic
loop_
_symmetry_equiv_pos_as_xyz
  x,y,z
_cell_length_a	21.295418
_cell_length_b	21.395362
_cell_length_c	21.395356
_cell_angle_alpha	89.972991
_cell_angle_beta	89.964318
_cell_angle_gamma	90.044194
loop_
_atom_site_label
_atom_site_type_symbol
_atom_site_fract_x
_atom_site_fract_y
_atom_site_fract_z
Zn1	Zn	0.962315	-0.249187	-0.354587
Zn2	Zn	1.295648	0.084147	-0.021254
Zn3	Zn	1.628982	0.417480	0.312079
Zn4	Zn	0.962236	-0.353964	-0.249812
Zn5	Zn	1.295569	-0.020631	0.083521
Zn6	Zn	1.628903	0.312702	0.416855
Zn7	Zn	0.857053	-0.249234	-0.249789
Zn8	Zn	1.190386	0.084100	0.083544
Zn9	Zn	1.523720	0.417433	0.416878
Zn10	Zn	0.857012	-0.353959	-0.354517
Zn11	Zn	1.190345	-0.020626	-0.021184
Zn12	Zn	1.523678	0.312707	0.312149
O13	O	0.909654	-0.301586	-0.302176
O14	O	1.242987	0.031747	0.031157
O15	O	1.576321	0.365081	0.364490
O16	O	1.050394	-0.263068	-0.340728
O17	O	1.383727	0.070265	-0.007394
O18	O	1.717061	0.403598	0.325939
O19	O	0.948268	-0.340093	-0.162131
O20	O	1.281601	-0.006760	0.171202
O21	O	1.614934	0.326574	0.504536
O22	O	0.871067	-0.161549	-0.263711
O23	O	1.204400	0.171784	0.069623
O24	O	1.537733	0.505117	0.402956
O25	O	1.050336	-0.340048	-0.263750
O26	O	1.383669	-0.006715	0.069584
O27	O	1.717003	0.326619	0.402917
O28	O	0.948402	-0.161515	-0.340705
O29	O	1.281736	0.171818	-0.007372
O30	O	1.615069	0.505152	0.325961
O31	O	0.870990	-0.263148	-0.162114
O32	O	1.204323	0.070185	0.171219
O33	O	1.537657	0.403519	0.504552
O34	O	0.768958	-0.263143	-0.263642
O35	O	1.102291	0.070190	0.069691
O36	O	1.435625	0.403524	0.403024
O37	O	0.870996	-0.340040	-0.442204
O38	O	1.204329	-0.006706	-0.108871
O39	O	1.537663	0.326627	0.224462
O40	O	0.768928	-0.340085	-0.340586
O41	O	1.102261	-0.006751	-0.007252
O42	O	1.435594	0.326582	0.326081
O43	O	0.948362	-0.263064	-0.442256
O44	O	1.281695	0.070270	-0.108923
O45	O	1.615029	0.403603	0.224411
O46	O	0.948228	-0.441642	-0.263682
O47	O	1.281561	-0.108308	0.069652
O48	O	1.614894	0.225025	0.402985
O49	O	0.870919	-0.441638	-0.340608
O50	O	1.204253	-0.108305	-0.007275
O51	O	1.537586	0.225029	0.326059
C52	C	0.746102	-0.301619	-0.302104
C53	C	1.079436	0.031714	0.031229
C54	C	1.412769	0.365048	0.364562
C55	C	0.676134	-0.301648	-0.302088
C56	C	1.009467	0.031685	0.031245
C57	C	1.342801	0.365018	0.364578
C58	C	0.909577	-0.464374	-0.302153
C59	C	1.242911	-0.131040	0.031180
C60	C	1.576244	0.202293	0.364513
C61	C	0.909602	-0.534015	-0.302165
C62	C	1.242936	-0.200682	0.031169
C63	C	1.576269	0.132652	0.364502
C64	C	0.950001	-1.035740	-0.342348
C65	C	1.283334	-0.702407	-0.009015
C66	C	1.616668	-0.369073	0.324318
C67	C	0.949982	-0.970305	-0.342338
C68	C	1.283316	-0.636971	-0.009005
C69	C	1.616649	-0.303638	0.324328
C70	C	0.909740	-0.937653	-0.302216
C71	C	1.243073	-0.604320	0.031118
C72	C	1.576406	-0.270986	0.364451
C73	C	0.869524	-0.970442	-0.262089
C74	C	1.202857	-0.637109	0.071245
C75	C	1.536190	-0.303776	0.404578
C76	C	0.869548	-1.035876	-0.262095
C77	C	1.202881	-0.702543	0.071238
C78	C	1.536215	-0.369210	0.404571
C79	C	0.852990	-0.834053	-0.297187
C80	C	1.186324	-0.500720	0.036147
C81	C	1.519657	-0.167386	0.369480
C82	C	0.852965	-0.768620	-0.297184
C83	C	1.186299	-0.435287	0.036149
C84	C	1.519632	-0.101953	0.369482
C85	C	0.909666	-0.735832	-0.302192
C86	C	1.242999	-0.402499	0.031142
C87	C	1.576332	-0.069166	0.364475
C88	C	0.966393	-0.768486	-0.307215
C89	C	1.299726	-0.435152	0.026119
C90	C	1.633060	-0.101819	0.359452
C91	C	0.966417	-0.833920	-0.307221
C92	C	1.299751	-0.500587	0.026112
C93	C	1.633084	-0.167253	0.359446
C94	C	0.909709	-0.866701	-0.302204
C95	C	1.243043	-0.533367	0.031129
C96	C	1.576376	-0.200034	0.364463
C97	C	0.949862	-0.632099	-0.342303
C98	C	1.283196	-0.298765	-0.008969
C99	C	1.616529	0.034568	0.324364
C100	C	0.949845	-0.566662	-0.342288
C101	C	1.283178	-0.233329	-0.008955
C102	C	1.616511	0.100005	0.324378
C103	C	0.869380	-0.566801	-0.262042
C104	C	1.202714	-0.233468	0.071291
C105	C	1.536047	0.099866	0.404625
C106	C	0.869404	-0.632236	-0.262053
C107	C	1.202737	-0.298903	0.071280
C108	C	1.536070	0.034430	0.404614
C109	C	0.909644	-0.664881	-0.302187
C110	C	1.242977	-0.331548	0.031147
C111	C	1.576310	0.001786	0.364480
C112	C	0.643268	-0.341765	-0.342093
C113	C	0.976601	-0.008431	-0.008759
C114	C	1.309935	0.324902	0.324574
C115	C	0.577526	-0.341749	-0.342121
C116	C	0.910859	-0.008416	-0.008788
C117	C	1.244192	0.324917	0.324546
C118	C	0.544652	-0.301624	-0.302133
C119	C	0.877985	0.031709	0.031200
C120	C	1.211318	0.365043	0.364533
C121	C	0.577526	-0.261500	-0.262126
C122	C	0.910859	0.071834	0.071207
C123	C	1.244192	0.405167	0.404541
C124	C	0.643267	-0.261512	-0.262104
C125	C	0.976600	0.071822	0.071230
C126	C	1.309934	0.405155	0.404563
N127	N	0.441383	-0.296729	-0.247333
N128	N	0.774717	0.036604	0.086001
N129	N	1.108050	0.369938	0.419334
N130	N	0.378932	-0.296721	-0.247356
N131	N	0.712265	0.036612	0.085978
N132	N	1.045598	0.369946	0.419311
C133	C	0.346577	-0.301584	-0.302200
C134	C	0.679910	0.031749	0.031133
C135	C	1.013244	0.365083	0.364467
N136	N	0.379033	-0.306467	-0.357021
N137	N	0.712366	0.026866	-0.023688
N138	N	1.045700	0.360199	0.309646
N139	N	0.441490	-0.306478	-0.356997
N140	N	0.774823	0.026855	-0.023664
N141	N	1.108157	0.360188	0.309670
C142	C	0.473366	-0.301606	-0.302154
C143	C	0.806700	0.031727	0.031180
C144	C	1.140033	0.365061	0.364513
C145	C	0.242425	-0.341686	-0.342238
C146	C	0.575759	-0.008353	-0.008905
C147	C	0.909092	0.324981	0.324428
C148	C	0.176682	-0.341666	-0.342267
C149	C	0.510015	-0.008333	-0.008934
C150	C	0.843348	0.325001	0.324399
C151	C	0.176683	-0.261420	-0.262267
C152	C	0.510016	0.071914	0.071066
C153	C	0.843350	0.405247	0.404400
C154	C	0.242425	-0.261436	-0.262243
C155	C	0.575759	0.071897	0.071090
C156	C	0.909092	0.405231	0.404423
C157	C	0.275293	-0.301573	-0.302228
C158	C	0.608626	0.031761	0.031105
C159	C	0.941959	0.365094	0.364439
C160	C	1.073844	-0.301553	-0.302249
C161	C	1.407178	0.031780	0.031084
C162	C	1.740511	0.365113	0.364417
C163	C	1.143812	-0.301539	-0.302280
C164	C	1.477146	0.031794	0.031053
C165	C	1.810479	0.365127	0.364386
C166	C	0.909683	-0.301546	-0.465600
C167	C	1.243016	0.031788	-0.132266
C168	C	1.576350	0.365121	0.201067
C169	C	0.909696	-0.301529	-0.535241
C170	C	1.243029	0.031805	-0.201908
C171	C	1.576362	0.365138	0.131426
C172	C	0.909748	-0.138163	-0.302213
C173	C	1.243081	0.195171	0.031120
C174	C	1.576414	0.528504	0.364453
C175	C	0.909788	-0.068521	-0.302229
C176	C	1.243121	0.264812	0.031104
C177	C	1.576455	0.598145	0.364438
C178	C	0.950039	-0.261347	-1.037065
C179	C	1.283373	0.071986	-0.703732
C180	C	1.616706	0.405319	-0.370399
C181	C	0.950034	-0.261362	-0.971630
C182	C	1.283368	0.071971	-0.638297
C183	C	1.616701	0.405304	-0.304963
C184	C	0.909750	-0.301445	-0.938880
C185	C	1.243083	0.031888	-0.605546
C186	C	1.576416	0.365222	-0.272213
C187	C	0.869478	-0.341527	-0.971570
C188	C	1.202811	-0.008194	-0.638237
C189	C	1.536145	0.325140	-0.304903
C190	C	0.869489	-0.341515	-1.037004
C191	C	1.202822	-0.008182	-0.703671
C192	C	1.536155	0.325151	-0.370338
C193	C	0.853016	-0.306423	-0.835185
C194	C	1.186349	0.026911	-0.501851
C195	C	1.519682	0.360244	-0.168518
C196	C	0.853004	-0.306430	-0.769752
C197	C	1.186337	0.026903	-0.436418
C198	C	1.519671	0.360237	-0.103085
C199	C	0.909717	-0.301485	-0.737059
C200	C	1.243051	0.031848	-0.403725
C201	C	1.576384	0.365181	-0.070392
C202	C	0.966444	-0.296520	-0.769807
C203	C	1.299777	0.036813	-0.436473
C204	C	1.633111	0.370147	-0.103140
C205	C	0.966454	-0.296508	-0.835241
C206	C	1.299788	0.036825	-0.501908
C207	C	1.633121	0.370159	-0.168574
C208	C	0.909734	-0.301463	-0.867927
C209	C	1.243067	0.031871	-0.534594
C210	C	1.576401	0.365204	-0.201261
C211	C	0.949984	-0.261425	-0.633424
C212	C	1.283317	0.071908	-0.300090
C213	C	1.616651	0.405241	0.033243
C214	C	0.949980	-0.261445	-0.567987
C215	C	1.283313	0.071889	-0.234654
C216	C	1.616647	0.405222	0.098680
C217	C	0.869418	-0.341606	-0.567928
C218	C	1.202752	-0.008273	-0.234595
C219	C	1.536085	0.325061	0.098738
C220	C	0.869428	-0.341590	-0.633364
C221	C	1.202761	-0.008257	-0.300030
C222	C	1.536094	0.325077	0.033303
C223	C	0.909710	-0.301496	-0.666107
C224	C	1.243043	0.031837	-0.332774
C225	C	1.576376	0.365171	0.000559
C226	C	0.909661	-0.301581	-0.139389
C227	C	1.242994	0.031752	0.193944
C228	C	1.576328	0.365086	0.527278
C229	C	0.909771	-0.301422	-0.069748
C230	C	1.243104	0.031912	0.263585
C231	C	1.576437	0.365245	0.596919
H232	H	0.982773	-1.062316	-0.375023
H233	H	1.316106	-0.728982	-0.041690
H234	H	1.649439	-0.395649	0.291643
H235	H	0.982826	-0.228727	-0.945015
H236	H	1.316159	0.104606	-0.611681
H237	H	1.649492	0.437940	-0.278348
H238	H	0.550761	-0.374417	-0.374700
H239	H	0.884094	-0.041083	-0.041366
H240	H	1.217428	0.292250	0.291967
H241	H	0.836634	-0.374220	-0.659974
H242	H	1.169967	-0.040887	-0.326641
H243	H	1.503301	0.292447	0.006692
H244	H	0.982624	-0.658680	-0.374986
H245	H	1.315957	-0.325346	-0.041653
H246	H	1.649290	0.007987	0.291680
H247	H	0.806830	-0.310450	-0.861798
H248	H	1.140163	0.022883	-0.528465
H249	H	1.473496	0.356217	-0.195131
H250	H	0.670025	-0.374446	-0.374652
H251	H	1.003358	-0.041113	-0.041319
H252	H	1.336691	0.292220	0.292014
C253	C	0.541363	-0.217361	-0.218140
C254	C	0.874696	0.115972	0.115194
C255	C	1.208030	0.449305	0.448527
N256	N	0.514125	-0.184114	-0.185009
N257	N	0.847459	0.149220	0.148324
N258	N	1.180792	0.482553	0.481658
C259	C	0.790604	-0.311888	-0.733735
C260	C	1.123937	0.021446	-0.400402
C261	C	1.457270	0.354779	-0.067069
N262	N	0.743602	-0.315998	-0.706609
N263	N	1.076935	0.017335	-0.373276
N264	N	1.410269	0.350669	-0.039942
H265	H	0.836696	-0.374150	-1.063614
H266	H	1.170029	-0.040816	-0.730281
H267	H	1.503363	0.292517	-0.396948
H268	H	0.670026	-0.228842	-0.229527
H269	H	1.003359	0.104491	0.103806
H270	H	1.336693	0.437825	0.437140
C271	C	0.994280	-0.217356	-0.532036
C272	C	1.327613	0.115977	-0.198703
C273	C	1.660946	0.449311	0.134631
N274	N	1.027645	-0.184146	-0.504957
N275	N	1.360979	0.149187	-0.171624
N276	N	1.694312	0.482521	0.161709
C277	C	0.994092	-0.530603	-0.386418
C278	C	1.327425	-0.197269	-0.053085
C279	C	1.660759	0.136064	0.280249
N280	N	1.027422	-0.503442	-0.419656
N281	N	1.360755	-0.170109	-0.086322
N282	N	1.694088	0.163224	0.247011
C283	C	0.994355	-0.217248	-1.073080
C284	C	1.327689	0.116086	-0.739746
C285	C	1.661022	0.449419	-0.406413
N286	N	1.027736	-0.184033	-1.100207
N287	N	1.361070	0.149301	-0.766873
N288	N	1.694403	0.482634	-0.433540
C289	C	0.825163	-0.385617	-0.935544
C290	C	1.158496	-0.052283	-0.602210
C291	C	1.491830	0.281050	-0.268877
N292	N	0.791784	-0.418827	-0.908408
N293	N	1.125118	-0.085494	-0.575075
N294	N	1.458451	0.247840	-0.241742
C295	C	0.790611	-0.870113	-0.291680
C296	C	1.123944	-0.536779	0.041653
C297	C	1.457278	-0.203446	0.374987
N298	N	0.743628	-0.897272	-0.287533
N299	N	1.076962	-0.563939	0.045800
N300	N	1.410295	-0.230606	0.379133
H301	H	0.982730	-0.943609	-0.375009
H302	H	1.316063	-0.610276	-0.041676
H303	H	1.649397	-0.276943	0.291657
H304	H	1.012643	-0.292467	-0.861902
H305	H	1.345977	0.040867	-0.528568
H306	H	1.679310	0.374200	-0.195235
C307	C	1.028817	-0.869836	-0.312736
C308	C	1.362150	-0.536503	0.020597
C309	C	1.695483	-0.203169	0.353930
N310	N	1.075817	-0.896888	-0.316886
N311	N	1.409151	-0.563555	0.016447
N312	N	1.742484	-0.230222	0.349781
H313	H	0.982783	-0.228778	-0.660085
H314	H	1.316117	0.104555	-0.326751
H315	H	1.649450	0.437888	0.006582
H316	H	0.836620	-0.374245	-0.541264
H317	H	1.169953	-0.040911	-0.207930
H318	H	1.503287	0.292422	0.125403
C319	C	1.028834	-0.291084	-0.733849
C320	C	1.362167	0.042250	-0.400516
C321	C	1.695501	0.375583	-0.067183
N322	N	1.075825	-0.286989	-0.706764
N323	N	1.409158	0.046344	-0.373430
N324	N	1.742491	0.379678	-0.040097
H325	H	0.269187	-0.374364	-0.374799
H326	H	0.602521	-0.041031	-0.041466
H327	H	0.935854	0.292302	0.291867
H328	H	0.149923	-0.374333	-0.374848
H329	H	0.483257	-0.040999	-0.041514
H330	H	0.816590	0.292334	0.291819
C331	C	0.825255	-0.934524	-0.217955
C332	C	1.158589	-0.601191	0.115378
C333	C	1.491922	-0.267858	0.448712
N334	N	0.791912	-0.907471	-0.184711
N335	N	1.125245	-0.574138	0.148622
N336	N	1.458578	-0.240804	0.481955
H337	H	0.836617	-0.540216	-0.229371
H338	H	1.169950	-0.206883	0.103963
H339	H	1.503283	0.126450	0.437296
C340	C	0.140526	-0.217280	-0.218280
C341	C	0.473859	0.116053	0.115053
C342	C	0.807192	0.449386	0.448386
N343	N	0.113288	-0.184033	-0.185149
N344	N	0.446622	0.149301	0.148184
N345	N	0.779955	0.482634	0.481517
C346	C	0.278580	-0.217310	-0.218229
C347	C	0.611913	0.116024	0.115104
C348	C	0.945246	0.449357	0.448438
N349	N	0.305810	-0.184071	-0.185076
N350	N	0.639144	0.149262	0.148258
N351	N	0.972477	0.482596	0.481591
C352	C	1.028769	-0.732424	-0.312721
C353	C	1.362102	-0.399091	0.020612
C354	C	1.695436	-0.065758	0.353946
N355	N	1.075749	-0.705260	-0.316869
N356	N	1.409082	-0.371927	0.016464
N357	N	1.742416	-0.038593	0.349798
H358	H	0.836800	-1.062567	-0.229424
H359	H	1.170134	-0.729233	0.103909
H360	H	1.503467	-0.395900	0.437242
C361	C	0.790562	-0.732708	-0.291685
C362	C	1.123896	-0.399374	0.041649
C363	C	1.457229	-0.066041	0.374982
N364	N	0.743558	-0.705660	-0.287550
N365	N	1.076891	-0.372327	0.045784
N366	N	1.410224	-0.038993	0.379117
C367	C	0.825159	-0.668297	-0.217924
C368	C	1.158492	-0.334964	0.115409
C369	C	1.491826	-0.001630	0.448742
N370	N	0.791832	-0.695458	-0.184684
N371	N	1.125165	-0.362124	0.148649
N372	N	1.458499	-0.028791	0.481983
