data_functionalizedCrystal
_audit_creation_method	'MofGen! by Chris Wilmer'
_symmetry_space_group_name_H-M	'P1'
_symmetry_Int_Tables_number	1
_symmetry_cell_setting	triclinic
loop_
_symmetry_equiv_pos_as_xyz
  x,y,z
_cell_length_a	19.077212
_cell_length_b	18.050590
_cell_length_c	19.076919
_cell_angle_alpha	87.733396
_cell_angle_beta	89.885058
_cell_angle_gamma	87.685598
loop_
_atom_site_label
_atom_site_type_symbol
_atom_site_fract_x
_atom_site_fract_y
_atom_site_fract_z
Zn1	Zn	1.058302	0.269597	-0.440562
Zn2	Zn	1.062946	0.388612	-0.323046
Zn3	Zn	0.945517	0.269207	-0.318338
Zn4	Zn	0.940766	0.398518	-0.435778
O5	O	1.001883	0.331483	-0.379431
O6	O	1.157252	0.281403	-0.428946
O7	O	1.051301	0.368463	-0.224091
O8	O	0.960523	0.165333	-0.334583
O9	O	1.160664	0.368842	-0.342607
O10	O	1.043386	0.165620	-0.424380
O11	O	0.965027	0.280737	-0.220632
O12	O	0.846553	0.290342	-0.329944
O13	O	0.952425	0.385726	-0.534743
O14	O	0.843062	0.385346	-0.416227
O15	O	1.038778	0.291008	-0.538258
O16	O	1.046694	0.493851	-0.337968
O17	O	0.956928	0.501129	-0.420792
C18	C	0.819311	0.338877	-0.372056
C19	C	0.741205	0.342059	-0.368917
C20	C	1.001818	0.524437	-0.379388
C21	C	1.001853	0.606981	-0.379396
C22	C	0.301743	0.364849	-0.346441
C23	C	0.375131	0.361855	-0.349384
C24	C	0.410048	0.314914	-0.395881
C25	C	0.371573	0.270959	-0.439433
C26	C	0.298186	0.273949	-0.436485
C27	C	0.629343	0.301094	-0.409521
C28	C	0.702735	0.298108	-0.412467
C29	C	0.706289	0.389004	-0.322417
C30	C	0.632900	0.391994	-0.319477
C31	C	0.594431	0.348035	-0.363026
N32	N	0.485063	0.311855	-0.398893
N33	N	0.519417	0.351092	-0.360010
C34	C	1.050750	0.802446	-0.334413
C35	C	1.065333	0.853911	-0.399232
C36	C	1.001883	0.758111	-0.379416
C37	C	0.987361	0.853726	-0.314619
C38	C	1.001912	0.904095	-0.379430
C39	C	1.016497	0.808489	-0.444270
C40	C	0.938497	0.808299	-0.359613
C41	C	0.953054	0.859745	-0.424475
C42	C	1.001867	0.674013	-0.379407
C43	C	1.001927	0.988192	-0.379445
C44	C	1.185167	0.324061	-0.386835
C45	C	1.263272	0.320898	-0.389990
C46	C	0.994553	0.339516	-0.562709
C47	C	0.991430	0.342938	-0.640812
C48	C	1.001951	1.137777	-0.379474
C49	C	1.001940	1.055230	-0.379450
C50	C	1.034920	0.295235	-0.679335
C51	C	1.031977	0.298448	-0.752720
C52	C	0.985547	0.349370	-0.787580
C53	C	0.942052	0.397076	-0.749052
C54	C	0.944992	0.393858	-0.675668
C55	C	0.971929	0.364278	-1.006858
C56	C	0.968994	0.367494	-1.080247
C57	C	1.058918	0.268865	-1.083911
C58	C	1.061857	0.265654	-1.010525
C59	C	1.018360	0.313358	-0.972003
N60	N	0.982539	0.352657	-0.862592
N61	N	1.021365	0.310066	-0.896993
C62	C	1.009224	0.323427	-0.196867
C63	C	1.012483	0.319790	-0.118771
H64	H	0.273319	0.403077	-0.308581
C65	C	1.106755	0.216391	-1.126286
H66	H	1.098352	0.225594	-1.174984
H67	H	1.154446	0.224818	-1.116167
H68	H	1.096967	0.166380	-1.113858
C69	C	0.748606	0.437347	-0.274512
H70	H	0.797314	0.428840	-0.282921
H71	H	0.736162	0.488200	-0.284218
H72	H	0.738455	0.424811	-0.226835
C73	C	1.079819	0.245977	-0.795093
H74	H	1.107899	0.215197	-0.763822
H75	H	1.051810	0.215959	-0.822643
H76	H	1.109278	0.274409	-0.824950
H77	H	0.406451	0.397643	-0.313921
H78	H	0.400008	0.232735	-0.477288
H79	H	0.884897	0.788183	-0.342834
C80	C	1.137758	0.881070	-0.421876
H81	H	1.132883	0.911952	-0.463212
H82	H	1.156888	0.908429	-0.385462
H83	H	1.168185	0.839575	-0.430935
H84	H	1.028736	0.788645	-0.499118
H85	H	0.731162	0.259878	-0.450329
C86	C	0.897243	0.893383	-0.475953
H87	H	0.907687	0.877848	-0.521951
H88	H	0.852327	0.877077	-0.462275
H89	H	0.897299	0.945984	-0.475402
C90	C	0.970746	0.880659	-0.240586
H91	H	1.005500	0.860929	-0.208668
H92	H	0.970451	0.933319	-0.241205
H93	H	0.926040	0.864328	-0.226205
C94	C	1.085990	0.239217	-0.640995
H95	H	1.111464	0.211261	-0.674451
H96	H	1.117744	0.265125	-0.613596
H97	H	1.060263	0.206690	-0.611293
C98	C	0.917914	0.423503	-1.118596
H99	H	0.922400	0.418590	-1.167818
H100	H	0.871187	0.414014	-1.104665
H101	H	0.928656	0.472463	-1.106970
C102	C	0.897155	0.446331	-0.633289
H103	H	0.905550	0.437117	-0.584591
H104	H	0.906932	0.496341	-0.645713
H105	H	0.849463	0.437894	-0.643409
H106	H	0.266864	0.238157	-0.471945
C107	C	0.924070	0.416735	-0.964492
H108	H	0.895998	0.447521	-0.995766
H109	H	0.894615	0.388294	-0.934646
H110	H	0.952068	0.446760	-0.936932
C111	C	0.594496	0.443623	-0.268325
H112	H	0.627919	0.469364	-0.242804
H113	H	0.564792	0.478368	-0.293992
H114	H	0.567092	0.414980	-0.236609
H115	H	0.904245	0.438535	-0.777441
H116	H	0.598030	0.265304	-0.444985
H117	H	1.092092	0.777417	-0.296401
C118	C	1.112930	0.209641	-0.972184
H119	H	1.138407	0.181687	-1.005638
H120	H	1.144680	0.235558	-0.944788
H121	H	1.087209	0.177112	-0.942479
