data_functionalizedCrystal
_audit_creation_method	'MofGen! by Chris Wilmer'
_symmetry_space_group_name_H-M	'P1'
_symmetry_Int_Tables_number	1
_symmetry_cell_setting	triclinic
loop_
_symmetry_equiv_pos_as_xyz
  x,y,z
_cell_length_a	29.839125
_cell_length_b	17.639874
_cell_length_c	17.640280
_cell_angle_alpha	92.181642
_cell_angle_beta	101.210223
_cell_angle_gamma	78.821096
loop_
_atom_site_label
_atom_site_type_symbol
_atom_site_fract_x
_atom_site_fract_y
_atom_site_fract_z
Zn1	Zn	-0.106112	-1.221960	0.067470
Zn2	Zn	-0.013478	-1.247576	0.194427
Zn3	Zn	-0.042609	-1.094998	0.093158
Zn4	Zn	-0.100193	-1.120639	0.220101
O5	O	-0.065598	-1.171293	0.143789
O6	O	-0.084110	-1.331615	0.062816
O7	O	0.045524	-1.227326	0.180999
O8	O	-0.065702	-1.090389	-0.016508
O9	O	-0.016052	-1.350436	0.156091
O10	O	-0.112357	-1.183667	-0.035380
O11	O	0.024121	-1.115228	0.106597
O12	O	-0.059962	-0.992142	0.131492
O13	O	-0.163845	-1.134090	0.199848
O14	O	-0.102269	-1.010981	0.224756
O15	O	-0.168194	-1.208530	0.087711
O16	O	-0.010312	-1.252189	0.304091
O17	O	-0.074021	-1.158929	0.322953
C18	C	-0.083635	-0.974010	0.183698
C19	C	-0.091359	-0.889615	0.200790
C20	C	-0.006907	-0.562834	0.013885
C21	C	-0.014169	-0.483536	0.029960
C22	C	-0.058106	-0.503234	0.127210
C23	C	-0.050849	-0.582535	0.111140
C24	C	-0.025249	-0.612329	0.054477
C25	C	-0.069191	-0.632030	0.151733
C26	C	-0.061933	-0.711325	0.135667
C27	C	-0.036333	-0.741125	0.079008
C28	C	-0.017991	-0.691624	0.038411
C29	C	-0.094788	-0.602235	0.208399
C30	C	-0.113130	-0.651729	0.248992
C31	C	-0.105875	-0.731025	0.232922
C32	C	-0.080275	-0.760826	0.176263
C33	C	-0.124217	-0.780526	0.273519
C34	C	-0.116959	-0.859821	0.257453
C35	C	-0.073017	-0.840121	0.160197
C36	C	-0.182776	-1.171313	0.143778
C37	C	-0.232710	-1.171321	0.143773
C38	C	-0.544634	-1.210107	0.085246
C39	C	-0.732312	-1.210131	0.085174
O40	O	-0.758511	-1.243067	0.035495
N41	N	-0.753514	-1.171380	0.143550
C42	C	-0.727794	-1.132616	0.201945
O43	O	-0.750135	-1.099650	0.251591
C44	C	-0.540117	-1.132587	0.202014
C45	C	-0.518916	-1.171348	0.143638
C46	C	-0.523433	-1.248863	0.026875
C47	C	-0.476515	-1.248860	0.026896
C48	C	-0.450798	-1.210101	0.085288
C49	C	-0.471999	-1.171345	0.143659
C50	C	-0.514399	-1.093819	0.260405
C51	C	-0.467477	-1.093814	0.260416
C52	C	-0.446276	-1.132574	0.202041
C53	C	-0.399364	-1.132582	0.202072
N54	N	-0.378163	-1.171333	0.143696
C55	C	-0.403880	-1.210093	0.085304
C56	C	-0.826327	-1.132635	0.201906
C57	C	-0.873245	-1.132643	0.201889
C58	C	-0.877761	-1.210158	0.085117
C59	C	-0.830840	-1.210154	0.085137
C60	C	-0.805125	-1.171386	0.143530
C61	C	-0.305349	-1.210084	0.085353
C62	C	-0.258427	-1.210080	0.085381
C63	C	-0.253916	-1.132563	0.202151
C64	C	-0.300834	-1.132570	0.202126
C65	C	-0.326550	-1.171332	0.143720
O66	O	-0.373139	-1.099657	0.251720
O67	O	-0.381533	-1.243040	0.035656
C68	C	-0.591551	-1.210110	0.085225
C69	C	-0.612752	-1.171354	0.143596
C70	C	-0.587035	-1.132594	0.201988
C71	C	-0.659670	-1.171362	0.143580
C72	C	-0.685387	-1.210121	0.085188
C73	C	-0.664186	-1.248872	0.026812
C74	C	-0.617268	-1.248869	0.026833
C75	C	-0.608236	-1.093843	0.260364
C76	C	-0.655154	-1.093850	0.260339
C77	C	-0.680871	-1.132609	0.201947
C78	C	0.051120	-1.171307	0.143736
C79	C	0.101037	-1.171403	0.143497
C80	C	-0.038371	-1.211142	0.341069
C81	C	-0.026732	-1.228259	0.425453
C82	C	-0.047488	-0.369345	0.103715
C83	C	-0.039762	-0.453738	0.086613
C84	C	-0.092939	-1.131310	-0.054266
C85	C	-0.104591	-1.114271	-0.138665
C86	C	-0.154154	-1.041570	0.752261
C87	C	-0.143203	-1.057656	0.831551
C88	C	-0.076915	-1.154827	0.811832
C89	C	-0.087862	-1.138753	0.732538
C90	C	-0.126482	-1.082123	0.702759
C91	C	-0.060190	-1.179305	0.683036
C92	C	-0.071135	-1.163229	0.603749
C93	C	-0.109752	-1.106600	0.573964
C94	C	-0.137427	-1.066046	0.623472
C95	C	-0.021569	-1.235931	0.712817
C96	C	0.006104	-1.276484	0.663316
C97	C	-0.004843	-1.260412	0.584026
C98	C	-0.043460	-1.203783	0.554241
C99	C	0.022832	-1.300965	0.534519
C100	C	0.011887	-1.284889	0.455232
C101	C	-0.054405	-1.187706	0.474954
H102	H	-0.052179	-0.864378	0.114045
H103	H	-0.168877	-1.019938	0.599224
H104	H	-0.045470	-1.200933	0.836090
H105	H	-0.085855	-1.141598	0.450707
H106	H	-0.185605	-0.995462	0.728013
H107	H	-0.531652	-1.062256	0.307941
H108	H	-0.100697	-0.537667	0.221478
H109	H	-0.805393	-1.101068	0.249461
H110	H	-0.446543	-1.062234	0.307961
H111	H	-0.133972	-0.627460	0.295129
H112	H	-0.459259	-1.280421	-0.020640
H113	H	-0.165745	-1.024637	0.871853
H114	H	-0.145056	-0.756257	0.319659
H115	H	-0.030423	-0.805693	0.065930
H116	H	0.002846	-0.715881	-0.007741
H117	H	-0.118660	-1.093506	0.509404
H118	H	-0.241168	-1.241646	0.037844
H119	H	-0.318094	-1.101016	0.249665
H120	H	-0.587302	-1.062281	0.307916
H121	H	0.037549	-1.322590	0.687573
H122	H	0.013930	-0.587092	-0.032267
H123	H	-0.898708	-1.241718	0.037572
H124	H	-0.685132	-1.280435	-0.020731
H125	H	-0.600011	-1.280431	-0.020703
H126	H	0.000765	-0.443237	-0.003104
H127	H	-0.232968	-1.101009	0.249694
H128	H	-0.131895	-0.900121	0.290506
H129	H	-0.012660	-1.249021	0.777378
H130	H	-0.672410	-1.062289	0.307882
H131	H	0.054279	-1.347068	0.558778
H132	H	0.034422	-1.317911	0.414926
H133	H	-0.078947	-0.478964	0.173347
H134	H	-0.326282	-1.241645	0.037792
H135	H	-0.544368	-1.280425	-0.020679
H136	H	-0.813583	-1.241714	0.037602
H137	H	-0.890501	-1.101091	0.249431
