data_functionalizedCrystal
_audit_creation_method	'MofGen! by Chris Wilmer'
_symmetry_space_group_name_H-M	'P1'
_symmetry_Int_Tables_number	1
_symmetry_cell_setting	triclinic
loop_
_symmetry_equiv_pos_as_xyz
  x,y,z
_cell_length_a	16.974829
_cell_length_b	10.723023
_cell_length_c	15.455313
_cell_angle_alpha	92.691554
_cell_angle_beta	83.671566
_cell_angle_gamma	83.931822
loop_
_atom_site_label
_atom_site_type_symbol
_atom_site_fract_x
_atom_site_fract_y
_atom_site_fract_z
O1	O	1.056979	0.148001	-0.146323
O2	O	1.390312	0.481335	0.187010
O3	O	1.723645	0.814668	0.520344
O4	O	0.826110	0.169476	-0.130119
O5	O	1.159444	0.502809	0.203215
O6	O	1.492777	0.836142	0.536548
O7	O	0.946870	-0.022946	-0.138591
O8	O	1.280203	0.310387	0.194742
O9	O	1.613537	0.643720	0.528076
O10	O	0.936219	0.340423	-0.137851
O11	O	1.269552	0.673757	0.195483
O12	O	1.602886	1.007090	0.528816
O13	O	0.939964	-0.011988	0.006156
O14	O	1.273297	0.321345	0.339489
O15	O	1.606631	0.654679	0.672822
O16	O	0.819204	0.180434	0.014628
O17	O	1.152538	0.513767	0.347961
O18	O	1.485871	0.847101	0.681294
O19	O	1.050073	0.158960	-0.001576
O20	O	1.383406	0.492293	0.331757
O21	O	1.716739	0.825626	0.665090
Cu22	Cu	0.934008	0.170698	0.019742
Cu23	Cu	1.267341	0.504031	0.353076
Cu24	Cu	1.600675	0.837364	0.686409
Cu25	Cu	0.942175	0.157738	-0.151437
Cu26	Cu	1.275508	0.491071	0.181896
Cu27	Cu	1.608842	0.824405	0.515229
O28	O	0.929313	0.351382	0.006896
O29	O	1.262646	0.684715	0.340229
O30	O	1.595980	1.018049	0.673563
C31	C	0.793096	0.174340	-0.055671
C32	C	1.126429	0.507674	0.277663
C33	C	1.459763	0.841007	0.610996
C34	C	0.705012	0.172494	-0.049488
C35	C	1.038346	0.505827	0.283845
C36	C	1.371679	0.839160	0.617178
C37	C	0.208787	0.162782	-0.006218
C38	C	0.542120	0.496116	0.327115
C39	C	0.875454	0.829449	0.660449
C40	C	0.291551	0.164517	-0.012029
C41	C	0.624884	0.497851	0.321305
C42	C	0.958218	0.831184	0.654638
C43	C	0.336698	0.159402	-0.093837
C44	C	0.670032	0.492735	0.239496
C45	C	1.003365	0.826068	0.572830
C46	C	0.299077	0.152564	-0.169839
C47	C	0.632410	0.485897	0.163494
C48	C	0.965743	0.819230	0.496827
C49	C	0.216313	0.150838	-0.164028
C50	C	0.549647	0.484171	0.169306
C51	C	0.882980	0.817505	0.502639
C52	C	0.584627	0.163930	-0.119679
C53	C	0.917961	0.497263	0.213654
C54	C	1.251294	0.830597	0.546988
C55	C	0.667396	0.165652	-0.125485
C56	C	1.000730	0.498986	0.207849
C57	C	1.334063	0.832319	0.541182
C58	C	0.659865	0.177608	0.032326
C59	C	0.993198	0.510942	0.365660
C60	C	1.326532	0.844275	0.698993
C61	C	0.577101	0.175875	0.038131
C62	C	0.910434	0.509208	0.371464
C63	C	1.243768	0.842541	0.704797
C64	C	0.539486	0.169043	-0.037871
C65	C	0.872819	0.502377	0.295462
C66	C	1.206153	0.835710	0.628795
N67	N	0.421297	0.161171	-0.099778
N68	N	0.754630	0.494504	0.233555
N69	N	1.087964	0.827837	0.566888
N70	N	0.454888	0.167283	-0.031929
N71	N	0.788222	0.500617	0.301404
N72	N	1.121555	0.833950	0.634738
C73	C	0.942642	-0.063951	-0.066164
C74	C	1.275975	0.269382	0.267169
C75	C	1.609309	0.602716	0.600502
C76	C	0.940324	-0.202458	-0.066004
C77	C	1.273657	0.130875	0.267329
C78	C	1.606990	0.464209	0.600662
C79	C	0.942867	-0.269880	-0.140916
C80	C	1.276201	0.063454	0.192417
C81	C	1.609534	0.396787	0.525751
C82	C	0.940471	-0.413034	-0.140752
C83	C	1.273804	-0.079701	0.192581
C84	C	1.607138	0.253633	0.525914
C85	C	1.083087	0.154095	-0.076026
C86	C	1.416421	0.487428	0.257307
C87	C	1.749754	0.820762	0.590640
C88	C	1.171171	0.155941	-0.082215
C89	C	1.504504	0.489275	0.251119
C90	C	1.837838	0.822608	0.584452
C91	C	0.933541	0.392386	-0.065533
C92	C	1.266874	0.725720	0.267801
C93	C	1.600208	1.059053	0.601134
C94	C	0.935860	0.530893	-0.065698
C95	C	1.269193	0.864226	0.267635
C96	C	1.602527	1.197560	0.600968
N97	N	0.928270	0.179812	0.140140
N98	N	1.261603	0.513145	0.473474
N99	N	1.594936	0.846479	0.806807
N100	N	0.947920	0.148614	-0.271836
N101	N	1.281253	0.481947	0.061497
N102	N	1.614586	0.815280	0.394831
C103	C	0.979591	0.098094	0.181934
C104	C	1.312924	0.431427	0.515267
C105	C	1.646257	0.764761	0.848601
C106	C	0.975258	0.104998	0.273046
C107	C	1.308592	0.438332	0.606379
C108	C	1.641925	0.771665	0.939712
C109	C	0.919608	0.193627	0.322362
C110	C	1.252942	0.526960	0.655696
C111	C	1.586275	0.860294	0.989029
C112	C	0.868282	0.275349	0.280563
C113	C	1.201615	0.608682	0.613896
C114	C	1.534948	0.942015	0.947229
C115	C	0.872611	0.268438	0.189453
C116	C	1.205944	0.601771	0.522786
C117	C	1.539277	0.935104	0.856119
C118	C	0.900922	0.223424	0.595255
C119	C	1.234256	0.556757	0.928588
C120	C	1.567589	0.890091	1.261921
C121	C	0.896599	0.230332	0.686371
C122	C	1.229932	0.563665	1.019704
C123	C	1.563265	0.896998	1.353037
C124	C	1.003575	0.059979	0.678847
C125	C	1.336908	0.393312	1.012181
C126	C	1.670241	0.726646	1.345514
C127	C	1.007902	0.053081	0.587736
C128	C	1.341236	0.386414	0.921069
C129	C	1.674569	0.719747	1.254402
C130	C	0.956573	0.134798	0.545944
C131	C	1.289906	0.468131	0.879278
C132	C	1.623240	0.801464	1.212611
N133	N	0.915180	0.200689	0.415493
N134	N	1.248514	0.534022	0.748826
N135	N	1.581847	0.867356	1.082160
N136	N	0.960998	0.127729	0.452815
N137	N	1.294331	0.461062	0.786149
N138	N	1.627664	0.794396	1.119482
H139	H	0.322174	0.170085	0.049856
H140	H	0.655507	0.503418	0.383189
H141	H	0.988841	0.836752	0.716523
Br142	Br	0.515833	0.182845	0.149160
Br143	Br	0.849166	0.516178	0.482494
Br144	Br	1.182499	0.849511	0.815827
H145	H	0.185688	0.145270	-0.225912
H146	H	0.519021	0.478604	0.107421
H147	H	0.852354	0.811937	0.440754
H148	H	0.859129	0.289964	0.561235
H149	H	1.192462	0.623297	0.894569
H150	H	1.525796	0.956630	1.227902
H151	H	1.053217	-0.019088	0.547584
H152	H	1.386550	0.314245	0.880917
H153	H	1.719884	0.647579	1.214251
H154	H	0.942649	-0.470994	-0.204887
H155	H	1.275982	-0.137661	0.128446
H156	H	1.609315	0.195673	0.461780
H157	H	0.822966	0.347508	0.320722
H158	H	1.156299	0.680841	0.654055
H159	H	1.489633	1.014175	0.987388
Br160	Br	1.044906	-0.005910	0.329769
Br161	Br	1.378240	0.327423	0.663102
Br162	Br	1.711573	0.660756	0.996435
Br163	Br	0.710917	0.186886	0.135466
Br164	Br	1.044251	0.520220	0.468800
Br165	Br	1.377584	0.853553	0.802133
Br166	Br	0.802952	0.379337	0.132733
Br167	Br	1.136286	0.712671	0.466067
Br168	Br	1.469619	1.046004	0.799400
Br169	Br	1.055126	-0.022185	0.115013
Br170	Br	1.388459	0.311148	0.448347
Br171	Br	1.721792	0.644481	0.781680
Br172	Br	0.147525	0.169709	0.104813
Br173	Br	0.480858	0.503042	0.438146
Br174	Br	0.814191	0.836376	0.771480
H175	H	1.045364	-0.006553	0.712882
H176	H	1.378697	0.326781	1.046216
H177	H	1.712031	0.660114	1.379549
H178	H	0.851279	0.302509	0.726520
H179	H	1.184612	0.635842	1.059854
H180	H	1.517946	0.969176	1.393187
Br181	Br	0.933727	-0.282878	0.041100
Br182	Br	1.267060	0.050456	0.374434
Br183	Br	1.600394	0.383789	0.707767
H184	H	0.554012	0.158363	-0.181565
H185	H	0.887345	0.491696	0.151768
H186	H	1.220678	0.825030	0.485101
Br187	Br	0.728669	0.158706	-0.236518
Br188	Br	1.062002	0.492039	0.096816
Br189	Br	1.395335	0.825372	0.430149
H190	H	0.335842	0.148406	-0.236449
H191	H	0.669175	0.481739	0.096884
H192	H	1.002508	0.815073	0.430217
H193	H	0.946816	-0.221619	-0.205172
H194	H	1.280149	0.111714	0.128162
H195	H	1.613482	0.445047	0.461495
H196	H	0.933690	-0.411157	-0.001561
H197	H	1.267023	-0.077823	0.331772
H198	H	1.600357	0.255510	0.665106
