data_functionalizedCrystal
_audit_creation_method	'MofGen! by Chris Wilmer'
_symmetry_space_group_name_H-M	'P1'
_symmetry_Int_Tables_number	1
_symmetry_cell_setting	triclinic
loop_
_symmetry_equiv_pos_as_xyz
  x,y,z
_cell_length_a	14.044190
_cell_length_b	14.044220
_cell_length_c	12.503572
_cell_angle_alpha	86.164750
_cell_angle_beta	93.839403
_cell_angle_gamma	93.190328
loop_
_atom_site_label
_atom_site_type_symbol
_atom_site_fract_x
_atom_site_fract_y
_atom_site_fract_z
O1	O	0.225116	1.282207	-0.089227
O2	O	0.725116	1.782207	0.410773
O3	O	0.216809	1.005537	-0.089254
O4	O	0.716809	1.505537	0.410746
O5	O	0.082627	1.139714	-0.089220
O6	O	0.582627	1.639714	0.410780
O7	O	0.359297	1.148029	-0.089261
O8	O	0.859297	1.648029	0.410739
O9	O	0.092737	1.129625	0.089420
O10	O	0.592737	1.629625	0.589420
O11	O	0.226918	0.995447	0.089386
O12	O	0.726918	1.495447	0.589386
O13	O	0.235226	1.272117	0.089412
O14	O	0.735226	1.772117	0.589412
Cu15	Cu	0.231995	1.132861	0.105710
Cu16	Cu	0.731995	1.632861	0.605710
Cu17	Cu	0.220039	1.144793	-0.105552
Cu18	Cu	0.720039	1.644793	0.394448
O19	O	0.369407	1.137940	0.089378
O20	O	0.869407	1.637940	0.589378
C21	C	0.218228	0.964870	0.000063
C22	C	0.718228	1.464870	0.500063
C23	C	0.207383	0.858728	0.000054
C24	C	0.707383	1.358728	0.500054
C25	C	0.187558	0.664388	0.000078
C26	C	0.687558	1.164388	0.500078
C27	C	0.264472	0.613260	0.000071
C28	C	0.764472	1.113260	0.500071
C29	C	0.253441	0.505123	0.000085
C30	C	0.753441	1.005123	0.500085
C31	C	0.198587	0.772535	0.000065
C32	C	0.698587	1.272535	0.500065
C33	C	0.052060	1.131033	0.000103
C34	C	0.552060	1.631033	0.500103
C35	C	-0.054082	1.120185	0.000111
C36	C	0.445918	1.620185	0.500111
C37	C	-0.299543	1.177287	0.000075
C38	C	0.200457	1.677287	0.500075
C39	C	-0.248417	1.100371	0.000075
C40	C	0.251583	1.600371	0.500075
C41	C	-0.140279	1.111398	0.000095
C42	C	0.359721	1.611398	0.500095
C43	C	-0.407691	1.166262	0.000054
C44	C	0.092309	1.666262	0.500054
C45	C	0.399974	1.146621	0.000053
C46	C	0.899974	1.646621	0.500053
C47	C	0.506116	1.157469	0.000038
C48	C	1.006116	1.657469	0.500038
C49	C	0.233806	1.312784	0.000093
C50	C	0.733806	1.812784	0.500093
C51	C	0.244651	1.418927	0.000095
C52	C	0.744651	1.918927	0.500095
N53	N	0.240404	1.124476	0.254300
N54	N	0.740404	1.624476	0.754300
N55	N	0.211623	1.153185	-0.254142
N56	N	0.711623	1.653185	0.245858
C57	C	0.252782	1.112141	0.473412
C58	C	0.752782	1.612141	0.973412
C59	C	0.199248	1.165517	0.526753
C60	C	0.699248	1.665517	1.026753
C61	C	0.206136	1.158654	0.648675
C62	C	0.706136	1.658654	1.148675
C63	C	0.245896	1.119003	0.351480
C64	C	0.745896	1.619003	0.851480
H65	H	0.338605	0.650703	0.000055
H66	H	0.838605	1.150703	0.500055
H67	H	0.113431	0.626948	0.000095
H68	H	0.613431	1.126948	0.500095
Cl69	Cl	-0.306224	0.985916	0.000062
Cl70	Cl	0.193776	1.485916	0.500062
Cl71	Cl	0.120898	1.244423	0.455893
Cl72	Cl	0.620898	1.744423	0.955893
Cl73	Cl	0.331528	1.033638	0.544272
Cl74	Cl	0.831528	1.533638	1.044272
H75	H	-0.262101	1.251413	0.000093
H76	H	0.237899	1.751413	0.500093
