data_functionalizedCrystal
_audit_creation_method	'MofGen! by Chris Wilmer'
_symmetry_space_group_name_H-M	'P1'
_symmetry_Int_Tables_number	1
_symmetry_cell_setting	triclinic
loop_
_symmetry_equiv_pos_as_xyz
  x,y,z
_cell_length_a	10.654541
_cell_length_b	22.010155
_cell_length_c	10.654555
_cell_angle_alpha	89.993159
_cell_angle_beta	84.486741
_cell_angle_gamma	90.007194
loop_
_atom_site_label
_atom_site_type_symbol
_atom_site_fract_x
_atom_site_fract_y
_atom_site_fract_z
O1	O	1.667860	0.050503	0.176366
O2	O	1.302382	0.050508	0.193175
O3	O	1.493517	0.050505	0.002032
O4	O	1.476725	0.050506	0.367509
O5	O	1.493482	-0.050545	0.002061
O6	O	1.302347	-0.050543	0.193204
O7	O	1.667825	-0.050548	0.176395
Cu8	Cu	1.485083	-0.059772	0.184802
Cu9	Cu	1.485124	0.059732	0.184768
O10	O	1.476690	-0.050545	0.367538
C11	C	1.255566	-0.000017	0.191956
C12	C	1.116123	-0.000015	0.188266
N13	N	1.485063	-0.143824	0.184825
C14	C	1.088161	-0.000007	0.416829
C15	C	1.008671	-0.000000	0.529372
C16	C	0.877653	0.000000	0.525896
C17	C	0.826123	-0.000007	0.409865
C18	C	0.905613	-0.000014	0.297323
C19	C	1.036633	-0.000013	0.300811
C20	C	0.933574	-0.000026	0.068762
C21	C	1.064593	-0.000022	0.072235
C22	C	0.882044	-0.000034	-0.047268
C23	C	0.961534	-0.000036	-0.159814
C24	C	1.092560	-0.000036	-0.156333
C25	C	1.144082	-0.000029	-0.040308
C26	C	1.569764	-0.563605	0.100142
C27	C	1.569769	-0.627212	0.100134
O28	O	1.641734	-0.660105	0.028149
N29	N	1.485123	-0.659031	0.184742
C30	C	1.400457	-0.627239	0.269356
O31	O	1.328458	-0.660145	0.341320
C32	C	1.400446	-0.563633	0.269357
C33	C	1.485107	-0.531817	0.184752
C34	C	1.654416	-0.531789	0.015543
C35	C	1.654412	-0.468186	0.015553
C36	C	1.569755	-0.436398	0.100163
C37	C	1.485102	-0.468214	0.184762
C38	C	1.315775	-0.531842	0.353964
C39	C	1.315771	-0.468231	0.353957
C40	C	1.400431	-0.436416	0.269352
C41	C	1.400440	-0.372823	0.269383
N42	N	1.485087	-0.341004	0.184774
C43	C	1.569744	-0.372792	0.100165
C44	C	1.400485	-0.760817	0.269345
C45	C	1.400500	-0.824422	0.269350
C46	C	1.569812	-0.824391	0.100126
C47	C	1.569801	-0.760785	0.100128
C48	C	1.485131	-0.728998	0.184736
C49	C	1.569729	-0.239221	0.100194
C50	C	1.569720	-0.175612	0.100215
C51	C	1.400405	-0.175649	0.269434
C52	C	1.400418	-0.239252	0.269418
C53	C	1.485084	-0.271036	0.184787
O54	O	1.328509	-0.339890	0.341327
O55	O	1.641719	-0.339879	0.028201
C56	C	1.714641	-0.000022	0.177614
C57	C	1.854084	-0.000020	0.181305
C58	C	1.492263	-0.000019	-0.044751
C59	C	1.488566	-0.000015	-0.184194
N60	N	1.485154	0.143784	0.184735
C61	C	1.481588	-0.110188	-0.446193
C62	C	1.483300	-0.165271	-0.380663
C63	C	1.486769	-0.165271	-0.249644
C64	C	1.488522	-0.110182	-0.184152
C65	C	1.486809	-0.055098	-0.249682
C66	C	1.483345	-0.055104	-0.380705
C67	C	1.486853	0.055068	-0.249724
C68	C	1.483394	0.055070	-0.380744
C69	C	1.488606	0.110158	-0.184232
C70	C	1.486903	0.165243	-0.249763
C71	C	1.483436	0.165241	-0.380790
C72	C	1.481682	0.110153	-0.446274
C73	C	1.477944	-0.000020	0.414321
C74	C	1.481641	-0.000019	0.553764
H75	H	1.194841	0.000006	0.419670
H76	H	1.250762	-0.000022	-0.037463
C77	C	1.179990	-0.000043	-0.280142
N78	N	1.245837	-0.000048	-0.373398
C79	C	1.492422	0.110156	-0.040107
N80	N	1.495302	0.110156	0.068448
H81	H	0.719440	-0.000014	0.407046
C82	C	0.790212	0.000007	0.649698
N83	N	0.724351	0.000013	0.742945
H84	H	1.478864	0.110146	-0.552957
H85	H	1.482031	0.210096	-0.434135
C86	C	1.222630	-0.566825	0.447028
N87	N	1.152463	-0.593173	0.517126
H88	H	1.723346	-0.442285	-0.053343
H89	H	1.050642	0.000004	0.623842
H90	H	1.638665	-0.149709	0.031320
C91	C	0.737920	-0.000034	-0.051088
N92	N	0.629364	-0.000031	-0.053968
C93	C	1.662870	-0.274174	0.007099
N94	N	1.733029	-0.300501	-0.063014
H95	H	1.488140	-0.210125	-0.196287
C96	C	1.662925	-0.725794	0.007048
N97	N	1.733066	-0.699441	-0.063067
C98	C	1.747545	-0.566745	-0.077552
N99	N	1.817698	-0.593070	-0.147676
C100	C	1.662928	-0.859370	0.007044
N101	N	1.733058	-0.885717	-0.063061
H102	H	1.488321	0.210092	-0.196428
H103	H	1.331575	-0.850322	0.338257
C104	C	1.307393	-0.725858	0.362485
N105	N	1.237293	-0.699530	0.432655
H106	H	1.331492	-0.265157	0.338323
C107	C	1.222637	-0.433270	0.447049
N108	N	1.152496	-0.406939	0.517173
H109	H	0.919567	-0.000042	-0.254277
H110	H	1.331482	-0.149757	0.338326
H111	H	1.478778	-0.110193	-0.552878
H112	H	1.481870	-0.210124	-0.434001
H113	H	1.491331	-0.110187	-0.077468
