data_functionalizedCrystal
_audit_creation_method	'MofGen! by Chris Wilmer'
_symmetry_space_group_name_H-M	'P1'
_symmetry_Int_Tables_number	1
_symmetry_cell_setting	triclinic
loop_
_symmetry_equiv_pos_as_xyz
  x,y,z
_cell_length_a	18.050590
_cell_length_b	16.625546
_cell_length_c	16.625539
_cell_angle_alpha	89.969603
_cell_angle_beta	90.004910
_cell_angle_gamma	89.988365
loop_
_atom_site_label
_atom_site_type_symbol
_atom_site_fract_x
_atom_site_fract_y
_atom_site_fract_z
Zn1	Zn	1.135364	0.321233	0.455561
Zn2	Zn	1.635364	0.821233	0.955561
Zn3	Zn	1.135275	0.456077	0.320723
Zn4	Zn	1.635275	0.956077	0.820723
Zn5	Zn	1.011171	0.321236	0.320778
Zn6	Zn	1.511171	0.821236	0.820778
Zn7	Zn	1.011143	0.456002	0.455550
Zn8	Zn	1.511143	0.956002	0.955550
O9	O	1.073238	0.388637	0.388153
O10	O	1.573238	0.888637	0.888153
O11	O	1.239276	0.339151	0.437656
O12	O	1.739276	0.839151	0.937656
O13	O	1.118786	0.438222	0.207898
O14	O	1.618786	0.938222	0.707898
O15	O	1.027694	0.208403	0.338685
O16	O	1.527694	0.708403	0.838685
O17	O	1.239211	0.438219	0.338591
O18	O	1.739211	0.938219	0.838591
O19	O	1.118938	0.208401	0.437709
O20	O	1.618938	0.708401	0.937709
O21	O	1.027607	0.339155	0.207938
O22	O	1.527607	0.839155	0.707938
O23	O	0.907242	0.339083	0.338674
O24	O	1.407242	0.839083	0.838674
O25	O	1.027647	0.438093	0.568384
O26	O	1.527647	0.938093	1.068384
O27	O	0.907222	0.438095	0.437690
O28	O	1.407222	0.938095	0.937690
O29	O	1.118912	0.339079	0.568392
O30	O	1.618912	0.839079	1.068392
O31	O	1.118760	0.568899	0.338580
O32	O	1.618760	1.068899	0.838580
O33	O	1.027561	0.568844	0.437637
O34	O	1.527561	1.068844	0.937637
C35	C	1.073168	0.598128	0.388119
C36	C	1.573168	1.098128	0.888119
C37	C	1.073206	0.687749	0.388132
C38	C	1.573206	1.187749	0.888132
C39	C	0.880286	0.388582	0.388188
C40	C	1.380286	0.888582	0.888188
C41	C	0.797740	0.388578	0.388222
C42	C	1.297740	0.888578	0.888222
C43	C	1.073286	0.388577	0.598462
C44	C	1.573286	0.888577	1.098462
C45	C	1.073307	0.388551	0.688083
C46	C	1.573307	0.888551	1.188083
C47	C	0.598300	0.442575	0.441939
C48	C	1.098300	0.942575	0.941939
C49	C	0.548902	0.369053	0.461782
C50	C	1.048902	0.869053	0.961782
C51	C	0.646610	0.388623	0.388182
C52	C	1.146610	0.888623	0.888182
C53	C	0.548926	0.462186	0.368338
C54	C	1.048926	0.962186	0.868338
C55	C	0.500625	0.388673	0.388146
C56	C	1.000625	0.888673	0.888146
C57	C	0.598299	0.315062	0.408064
C58	C	1.098299	0.815062	0.908064
C59	C	0.598327	0.408245	0.314586
C60	C	1.098327	0.908245	0.814586
C61	C	0.548952	0.334673	0.334401
C62	C	1.048952	0.834673	0.834401
C63	C	0.730708	0.388595	0.388205
C64	C	1.230708	0.888595	0.888205
C65	C	0.416528	0.388692	0.388122
C66	C	0.916528	0.888692	0.888122
C67	C	1.266944	0.388693	0.388118
C68	C	1.766944	0.888693	0.888118
C69	C	1.349489	0.388717	0.388104
C70	C	1.849489	0.888717	0.888104
C71	C	1.073329	0.178328	0.388204
C72	C	1.573329	0.678328	0.888204
C73	C	1.073368	0.088707	0.388226
C74	C	1.573368	0.588707	0.888226
C75	C	1.073335	1.015925	0.388216
C76	C	1.573335	1.515925	0.888216
C77	C	1.073297	0.924616	0.388194
C78	C	1.573297	1.424616	0.888194
C79	C	1.073270	0.851840	0.388173
C80	C	1.573270	1.351840	0.888173
C81	C	1.073233	0.760525	0.388153
C82	C	1.573233	1.260525	0.888153
C83	C	1.073233	0.388639	0.178662
C84	C	1.573233	0.888639	0.678662
C85	C	1.073356	0.388437	0.089041
C86	C	1.573356	0.888437	0.589041
C87	C	1.073341	0.388461	1.016259
C88	C	1.573341	0.888461	1.516259
C89	C	1.073330	0.388489	0.924950
C90	C	1.573330	0.888489	1.424950
C91	C	1.073324	0.388507	0.852174
C92	C	1.573324	0.888507	1.352174
C93	C	1.073312	0.388533	0.760859
C94	C	1.573312	0.888533	1.260859
H95	H	0.619970	0.488120	0.487450
H96	H	1.119970	0.988120	0.987450
H97	H	0.527192	0.352473	0.524005
H98	H	1.027192	0.852473	1.024005
Br99	Br	0.634289	0.211375	0.436130
Br100	Br	1.134289	0.711375	0.936130
Br101	Br	0.634512	0.435899	0.210887
Br102	Br	1.134512	0.935899	0.710887
H103	H	0.527420	0.289016	0.288926
H104	H	1.027420	0.789016	0.788926
Br105	Br	0.512775	0.565840	0.340388
Br106	Br	1.012775	1.065840	0.840388
