data_functionalizedCrystal
_audit_creation_method	'MofGen! by Chris Wilmer'
_symmetry_space_group_name_H-M	'P1'
_symmetry_Int_Tables_number	1
_symmetry_cell_setting	triclinic
loop_
_symmetry_equiv_pos_as_xyz
  x,y,z
_cell_length_a	12.759401
_cell_length_b	16.625546
_cell_length_c	16.625548
_cell_angle_alpha	90.013404
_cell_angle_beta	90.005065
_cell_angle_gamma	90.022629
loop_
_atom_site_label
_atom_site_type_symbol
_atom_site_fract_x
_atom_site_fract_y
_atom_site_fract_z
Zn1	Zn	1.606059	-0.321132	0.455829
Zn2	Zn	1.605971	-0.455935	0.320991
Zn3	Zn	1.430403	-0.321121	0.321017
Zn4	Zn	1.430326	-0.455927	0.455789
O5	O	1.518190	-0.388529	0.388407
O6	O	1.753069	-0.339022	0.437949
O7	O	1.582677	-0.438050	0.208163
O8	O	1.453773	-0.208290	0.338928
O9	O	1.753004	-0.438061	0.338884
O10	O	1.582827	-0.208298	0.437974
O11	O	1.453687	-0.339003	0.208181
O12	O	1.283371	-0.338995	0.338889
O13	O	1.453643	-0.438047	0.568626
O14	O	1.283315	-0.438036	0.437905
O15	O	1.582753	-0.339014	0.568656
O16	O	1.582602	-0.568766	0.338845
O17	O	1.453557	-0.568760	0.437880
C18	C	1.245222	-0.388514	0.388396
C19	C	1.128446	-0.388527	0.388410
C20	C	1.073582	-0.440180	0.439882
C21	C	0.963858	-0.440190	0.439891
C22	C	0.963871	-0.336892	0.336948
C23	C	1.073593	-0.336878	0.336944
C24	C	1.073574	-0.499821	0.499313
C25	C	0.963850	-0.499832	0.499322
C26	C	1.518090	-0.598019	0.388373
C27	C	1.518144	-0.687641	0.388385
C28	C	1.518327	-1.015816	0.388469
C29	C	1.518273	-0.924508	0.388448
C30	C	1.518235	-0.851731	0.388427
C31	C	1.518182	-0.760417	0.388407
C32	C	1.792223	-0.388544	0.388418
C33	C	1.909000	-0.388551	0.388423
C34	C	1.518199	-0.388531	0.598715
C35	C	1.518203	-0.388532	0.688337
C36	C	1.518318	-0.178220	0.388458
C37	C	1.518373	-0.088599	0.388480
C38	C	1.518159	-0.388539	1.016512
C39	C	1.518169	-0.388540	0.925204
C40	C	1.518182	-0.388536	0.852427
C41	C	1.518190	-0.388535	0.761113
C42	C	1.518170	-0.388543	1.178916
C43	C	1.518160	-0.388537	1.089295
H44	H	1.107584	-0.559100	0.476834
O45	O	0.923090	-0.473260	0.570079
C46	C	0.812741	-0.474863	0.565905
H47	H	0.787071	-0.472437	0.500271
H48	H	0.779458	-0.420800	0.599464
H49	H	0.782461	-0.532644	0.594603
H50	H	0.934048	-0.562257	0.482485
H51	H	0.919197	-0.294840	0.295047
O52	O	1.126839	-0.286780	0.286835
C53	C	1.099988	-0.304252	0.206440
H54	H	1.069811	-0.368664	0.202243
H55	H	1.172140	-0.297224	0.166616
H56	H	1.036305	-0.260997	0.185453
H57	H	1.103366	-0.483193	0.561791
