data_functionalizedCrystal
_audit_creation_method	'MofGen! by Chris Wilmer'
_symmetry_space_group_name_H-M	'P1'
_symmetry_Int_Tables_number	1
_symmetry_cell_setting	triclinic
loop_
_symmetry_equiv_pos_as_xyz
  x,y,z
_cell_length_a	11.792241
_cell_length_b	10.868271
_cell_length_c	11.792254
_cell_angle_alpha	89.994692
_cell_angle_beta	95.803993
_cell_angle_gamma	90.000107
loop_
_atom_site_label
_atom_site_type_symbol
_atom_site_fract_x
_atom_site_fract_y
_atom_site_fract_z
O1	O	-1.506915	-0.102203	0.155568
O2	O	-1.173582	0.231130	0.488901
O3	O	-0.840249	0.564463	0.822234
O4	O	-1.176575	-0.102232	0.171600
O5	O	-0.843242	0.231101	0.504934
O6	O	-0.509908	0.564435	0.838267
O7	O	-1.349754	-0.102208	-0.001586
O8	O	-1.016421	0.231125	0.331748
O9	O	-0.683088	0.564458	0.665081
O10	O	-1.333736	-0.102227	0.328754
O11	O	-1.000403	0.231106	0.662087
O12	O	-0.667070	0.564440	0.995420
O13	O	-1.349740	0.102436	-0.001592
O14	O	-1.016407	0.435770	0.331741
O15	O	-0.683073	0.769103	0.665074
O16	O	-1.176561	0.102413	0.171594
O17	O	-0.843227	0.435746	0.504927
O18	O	-0.509894	0.769079	0.838260
O19	O	-1.506901	0.102441	0.155561
O20	O	-1.173568	0.435775	0.488894
O21	O	-0.840234	0.769108	0.822227
Zn22	Zn	-1.341729	0.134919	0.163576
Zn23	Zn	-1.008395	0.468252	0.496909
Zn24	Zn	-0.675062	0.801585	0.830243
Zn25	Zn	-1.341748	-0.134709	0.163585
Zn26	Zn	-1.008414	0.198624	0.496918
Zn27	Zn	-0.675081	0.531957	0.830252
O28	O	-1.333722	0.102418	0.328747
O29	O	-1.000389	0.435751	0.662080
O30	O	-0.667055	0.769084	0.995413
C31	C	-1.134277	0.000087	0.170590
C32	C	-0.800944	0.333420	0.503923
C33	C	-0.467610	0.666753	0.837257
C34	C	-1.008263	0.000076	0.167576
C35	C	-0.674930	0.333409	0.500909
C36	C	-0.341596	0.666743	0.834242
C37	C	-1.348738	0.000114	-0.043880
C38	C	-1.015405	0.333447	0.289454
C39	C	-0.682071	0.666780	0.622787
C40	C	-1.345718	0.000112	-0.169893
C41	C	-1.012385	0.333445	0.163441
C42	C	-0.679051	0.666779	0.496774
C43	C	-1.549199	0.000120	0.156571
C44	C	-1.215866	0.333453	0.489905
C45	C	-0.882533	0.666787	0.823238
C46	C	-1.675213	0.000123	0.159586
C47	C	-1.341880	0.333456	0.492919
C48	C	-1.008546	0.666789	0.826252
N49	N	-1.341724	0.318933	0.163569
N50	N	-1.008391	0.652266	0.496903
N51	N	-0.675057	0.985599	0.830236
C52	C	-0.777551	0.000112	0.162033
C53	C	-0.444217	0.333445	0.495366
C54	C	-0.110884	0.666778	0.828699
C55	C	-0.905936	0.000092	0.165112
C56	C	-0.572603	0.333425	0.498446
C57	C	-0.239269	0.666759	0.831779
N58	N	-1.341761	-0.318724	0.163583
N59	N	-1.008428	0.014610	0.496916
N60	N	-0.675094	0.347943	0.830250
C61	C	-1.341742	0.569939	0.163583
C62	C	-1.008408	0.903272	0.496916
C63	C	-0.675075	1.236605	0.830249
C64	C	-1.341728	0.430261	0.163579
C65	C	-1.008395	0.763595	0.496912
C66	C	-0.675062	1.096928	0.830245
C67	C	-1.343264	0.000108	-0.272229
C68	C	-1.009931	0.333441	0.061104
C69	C	-0.676597	0.666774	0.394437
C70	C	-1.340196	0.000096	-0.400616
C71	C	-1.006862	0.333429	-0.067283
C72	C	-0.673529	0.666763	0.266051
C73	C	-1.334738	0.000093	0.371041
C74	C	-1.001405	0.333426	0.704374
C75	C	-0.668071	0.666760	1.037708
C76	C	-1.337758	0.000086	0.497054
C77	C	-1.004425	0.333420	0.830387
C78	C	-0.671092	0.666753	1.163721
