data_functionalizedCrystal
_audit_creation_method	'MofGen! by Chris Wilmer'
_symmetry_space_group_name_H-M	'P1'
_symmetry_Int_Tables_number	1
_symmetry_cell_setting	triclinic
loop_
_symmetry_equiv_pos_as_xyz
  x,y,z
_cell_length_a	26.809956
_cell_length_b	11.026607
_cell_length_c	11.026607
_cell_angle_alpha	71.413983
_cell_angle_beta	89.992486
_cell_angle_gamma	89.989925
loop_
_atom_site_label
_atom_site_type_symbol
_atom_site_fract_x
_atom_site_fract_y
_atom_site_fract_z
O1	O	0.041478	-1.726739	0.533608
O2	O	0.541478	-1.226739	1.033608
O3	O	0.041479	-1.360160	0.472844
O4	O	0.541479	-0.860160	0.972844
O5	O	0.041477	-1.513068	0.319936
O6	O	0.541477	-1.013068	0.819936
O7	O	0.041481	-1.573831	0.686516
O8	O	0.541481	-1.073831	1.186516
O9	O	-0.041482	-1.513037	0.319958
O10	O	0.458518	-1.013037	0.819958
O11	O	-0.041480	-1.360129	0.472866
O12	O	0.458520	-0.860129	0.972866
O13	O	-0.041481	-1.726709	0.533630
O14	O	0.458519	-1.226709	1.033630
Zn15	Zn	-0.054652	-1.543414	0.503251
Zn16	Zn	0.445348	-1.043414	1.003251
Zn17	Zn	0.054650	-1.543454	0.503223
Zn18	Zn	0.554650	-1.043454	1.003223
O19	O	-0.041479	-1.573801	0.686538
O20	O	0.458521	-1.073801	1.186538
C21	C	-0.000000	-1.312485	0.461645
C22	C	0.500000	-0.812485	0.961645
C23	C	-0.000000	-1.170471	0.428228
C24	C	0.500000	-0.670471	0.928228
N25	N	-0.129248	-1.543396	0.503272
N26	N	0.370752	-1.043396	1.003272
C27	C	-0.000002	-1.501843	0.272287
C28	C	0.499998	-1.001843	0.772287
C29	C	-0.000000	-1.468426	0.130273
C30	C	0.500000	-0.968426	0.630273
C31	C	-0.473875	-1.611156	0.435534
C32	C	0.026125	-1.111156	0.935534
C33	C	-0.682753	-1.611182	0.435521
C34	C	-0.182753	-1.111182	0.935521
O35	O	-0.709757	-1.668743	0.377924
O36	O	-0.209757	-1.168743	0.877924
N37	N	-0.708875	-1.543455	0.503196
N38	N	-0.208875	-1.043455	1.003196
C39	C	-0.682775	-1.475710	0.570872
C40	C	-0.182775	-0.975710	1.070872
O41	O	-0.709786	-1.418095	0.628423
O42	O	-0.209786	-0.918095	1.128423
C43	C	-0.473898	-1.475678	0.570877
C44	C	0.026102	-0.975678	1.070877
C45	C	-0.447778	-1.543419	0.503208
C46	C	0.052222	-1.043419	1.003208
C47	C	-0.447755	-1.678890	0.367869
C48	C	0.052245	-1.178890	0.867869
C49	C	-0.395539	-1.678889	0.367879
C50	C	0.104461	-1.178889	0.867879
C51	C	-0.369442	-1.611153	0.435553
C52	C	0.130558	-1.111153	0.935553
C53	C	-0.395562	-1.543418	0.503217
C54	C	0.104438	-1.043418	1.003217
C55	C	-0.447799	-1.407927	0.638545
C56	C	0.052201	-0.907927	1.138545
C57	C	-0.395576	-1.407922	0.638537
C58	C	0.104424	-0.907922	1.138537
C59	C	-0.369457	-1.475663	0.570868
C60	C	0.130543	-0.975663	1.070868
C61	C	-0.317249	-1.475680	0.570901
C62	C	0.182751	-0.975680	1.070901
N63	N	-0.291127	-1.543407	0.503226
N64	N	0.208873	-1.043407	1.003226
C65	C	-0.317223	-1.611143	0.435552
C66	C	0.182777	-1.111143	0.935552
C67	C	-0.792438	-1.475734	0.570867
C68	C	-0.292438	-0.975734	1.070867
C69	C	-0.844657	-1.475744	0.570868
C70	C	-0.344657	-0.975744	1.070868
C71	C	-0.844631	-1.611214	0.435515
C72	C	-0.344631	-1.111214	0.935515
C73	C	-0.792411	-1.611210	0.435522
C74	C	-0.292411	-1.111210	0.935522
C75	C	-0.766316	-1.543461	0.503192
C76	C	-0.266316	-1.043461	1.003192
C77	C	-0.207565	-1.611135	0.435578
C78	C	0.292435	-1.111135	0.935578
C79	C	-0.155345	-1.611132	0.435598
C80	C	0.344655	-1.111132	0.935598
C81	C	-0.155375	-1.475658	0.570945
C82	C	0.344625	-0.975658	1.070945
C83	C	-0.207591	-1.475666	0.570931
C84	C	0.292409	-0.975666	1.070931
C85	C	-0.233685	-1.543407	0.503238
C86	C	0.266315	-1.043407	1.003238
O87	O	-0.290212	-1.418137	0.628456
O88	O	0.209788	-0.918137	1.128456
O89	O	-0.290203	-1.668727	0.377987
O90	O	0.209797	-1.168727	0.877987
C91	C	-0.526091	-1.611157	0.435524
C92	C	-0.026091	-1.111157	0.935524
C93	C	-0.552211	-1.543422	0.503189
C94	C	-0.052211	-1.043422	1.003189
C95	C	-0.526114	-1.475686	0.570863
C96	C	-0.026114	-0.975686	1.070863
C97	C	-0.604430	-1.543432	0.503190
C98	C	-0.104430	-1.043432	1.003190
C99	C	-0.630527	-1.611168	0.435516
C100	C	-0.130527	-1.111168	0.935516
C101	C	-0.604404	-1.678895	0.367841
C102	C	-0.104404	-1.178895	0.867841
C103	C	-0.552188	-1.678893	0.367850
C104	C	-0.052188	-1.178893	0.867850
C105	C	-0.552237	-1.407960	0.638538
C106	C	-0.052237	-0.907960	1.138538
C107	C	-0.604453	-1.407968	0.638524
C108	C	-0.104453	-0.907968	1.138524
C109	C	-0.630550	-1.475704	0.570850
C110	C	-0.130550	-0.975704	1.070850
N111	N	0.129246	-1.543480	0.503194
N112	N	0.629246	-1.043480	1.003194
C113	C	-0.000000	-1.774384	0.544828
C114	C	0.500000	-1.274384	1.044828
C115	C	0.000003	-1.916398	0.578245
C116	C	0.500003	-1.416398	1.078245
C117	C	0.000001	-1.116821	0.520498
C118	C	0.500001	-0.616821	1.020498
C119	C	0.000001	-0.970043	0.485962
C120	C	0.500001	-0.470043	0.985962
C121	C	0.000000	-1.560695	0.076624
C122	C	0.500000	-1.060695	0.576624
C123	C	0.000002	-1.526160	-0.070155
C124	C	0.500002	-1.026160	0.429845
C125	C	0.000001	-1.585026	0.734187
C126	C	0.500001	-1.085026	1.234187
C127	C	0.000003	-1.618443	0.876200
C128	C	0.500003	-1.118443	1.376200
H129	H	-0.134079	-1.666300	0.380495
H130	H	0.365921	-1.166300	0.880495
H131	H	0.000040	-1.723013	-0.061072
H132	H	0.500040	-1.223013	0.438928
H133	H	-0.228805	-1.666295	0.380454
H134	H	0.271195	-1.166295	0.880454
F135	F	-0.367745	-1.750981	0.295850
F136	F	0.132255	-1.250981	0.795850
F137	F	0.000007	-1.389478	-0.152141
F138	F	0.500007	-0.889478	0.347859
H139	H	-0.771195	-1.420563	0.625975
H140	H	-0.271195	-0.920563	1.125975
F141	F	0.000005	-1.331751	0.048283
F142	F	0.500005	-0.831751	0.548283
H143	H	0.000013	-0.907314	0.381393
H144	H	0.500013	-0.407314	0.881393
F145	F	-0.475522	-1.750989	0.295834
F146	F	0.024478	-1.250989	0.795834
F147	F	-0.764618	-1.683308	0.363498
F148	F	-0.264618	-1.183308	0.863498
H149	H	0.000012	-1.107738	0.323666
H150	H	0.500012	-0.607738	0.823666
F151	F	-0.872450	-1.403664	0.642909
F152	F	-0.372450	-0.903664	1.142909
F153	F	-0.872415	-1.683304	0.363491
F154	F	-0.372415	-1.183304	0.863491
F155	F	-0.000002	-0.998382	0.714928
F156	F	0.499998	-0.498382	1.214928
F157	F	-0.475588	-1.335825	0.710565
F158	F	0.024412	-0.835825	1.210565
F159	F	0.000003	-1.697370	0.158615
F160	F	0.500003	-1.197370	0.658615
F161	F	-0.235389	-1.403583	0.642970
F162	F	0.264611	-0.903583	1.142970
F163	F	-0.367807	-1.335807	0.710560
F164	F	0.132193	-0.835807	1.210560
F165	F	-0.524395	-1.750992	0.295826
F166	F	-0.024395	-1.250992	0.795826
F167	F	-0.632187	-1.750990	0.295822
F168	F	-0.132187	-1.250990	0.795822
F169	F	-0.632247	-1.335871	0.710559
F170	F	-0.132247	-0.835871	1.210559
F171	F	-0.127593	-1.403574	0.642969
F172	F	0.372407	-0.903574	1.142969
H173	H	-0.530993	-1.352799	0.693645
H174	H	-0.030993	-0.852799	1.193645
H175	H	-0.000001	-1.179555	0.625061
H176	H	0.499999	-0.679555	1.125061
