data_functionalizedCrystal
_audit_creation_method	'MofGen! by Chris Wilmer'
_symmetry_space_group_name_H-M	'P1'
_symmetry_Int_Tables_number	1
_symmetry_cell_setting	triclinic
loop_
_symmetry_equiv_pos_as_xyz
  x,y,z
_cell_length_a	14.044191
_cell_length_b	14.044220
_cell_length_c	9.730223
_cell_angle_alpha	89.997406
_cell_angle_beta	90.002006
_cell_angle_gamma	93.190327
loop_
_atom_site_label
_atom_site_type_symbol
_atom_site_fract_x
_atom_site_fract_y
_atom_site_fract_z
O1	O	1.277167	0.230195	-0.114230
O2	O	1.777167	0.730195	0.385770
O3	O	1.000494	0.221883	-0.114247
O4	O	1.500494	0.721883	0.385753
O5	O	1.134678	0.087703	-0.114225
O6	O	1.634678	0.587703	0.385775
O7	O	1.142983	0.364375	-0.114251
O8	O	1.642983	0.864375	0.385749
O9	O	1.134676	0.087707	0.114355
O10	O	1.634676	0.587707	0.614355
O11	O	1.000493	0.221886	0.114333
O12	O	1.500493	0.721886	0.614333
O13	O	1.277165	0.230199	0.114350
O14	O	1.777165	0.730199	0.614350
Zn15	Zn	1.138829	0.226043	0.150634
Zn16	Zn	1.638829	0.726043	0.650634
Zn17	Zn	1.138831	0.226038	-0.150530
Zn18	Zn	1.638831	0.726038	0.349470
O19	O	1.142982	0.364378	0.114328
O20	O	1.642982	0.864378	0.614328
C21	C	0.964872	0.218248	0.000041
C22	C	1.464872	0.718248	0.500041
C23	C	0.858728	0.207401	0.000035
C24	C	1.358728	0.707401	0.500035
C25	C	0.613270	0.264501	0.000043
C26	C	1.113270	0.764501	0.500043
C27	C	0.664395	0.187585	0.000048
C28	C	1.164395	0.687585	0.500048
C29	C	0.772532	0.198613	0.000041
C30	C	1.272532	0.698613	0.500041
C31	C	0.505123	0.253474	0.000051
C32	C	1.005123	0.753474	0.500051
C33	C	1.131041	0.052083	0.000065
C34	C	1.631041	0.552083	0.500065
C35	C	1.120197	-0.054060	0.000066
C36	C	1.620197	0.445940	0.500066
C37	C	1.100370	-0.248398	0.000045
C38	C	1.600370	0.251602	0.500045
C39	C	1.177285	-0.299526	0.000046
C40	C	1.677285	0.200474	0.500046
C41	C	1.166253	-0.407663	0.000034
C42	C	1.666253	0.092337	0.500034
C43	C	1.111400	-0.140252	0.000057
C44	C	1.611400	0.359748	0.500057
C45	C	1.312788	0.233834	0.000059
C46	C	1.812788	0.733834	0.500059
C47	C	1.418931	0.244681	0.000057
C48	C	1.918931	0.744681	0.500057
C49	C	1.146618	0.399998	0.000035
C50	C	1.646618	0.899998	0.500035
C51	C	1.157463	0.506142	0.000025
C52	C	1.657463	1.006142	0.500025
N53	N	1.138834	0.226046	0.356170
N54	N	1.638834	0.726046	0.856170
N55	N	1.138832	0.226028	-0.356067
N56	N	1.638832	0.726028	0.143933
C57	C	1.198269	0.166655	0.428106
C58	C	1.698269	0.666655	0.928106
C59	C	1.198266	0.166643	0.571989
C60	C	1.698266	0.666643	1.071989
C61	C	1.079391	0.285422	0.571988
C62	C	1.579391	0.785422	1.071988
C63	C	1.079390	0.285428	0.428107
C64	C	1.579390	0.785428	0.928107
C65	C	1.266904	0.098081	0.428108
C66	C	1.766904	0.598081	0.928108
C67	C	1.266901	0.098070	0.571991
C68	C	1.766901	0.598070	1.071991
H69	H	0.626952	0.113452	-0.000041
H70	H	1.126952	0.613452	0.499959
H71	H	0.650711	0.338628	0.000032
H72	H	1.150711	0.838628	0.500032
H73	H	1.026242	-0.285837	0.000038
H74	H	1.526242	0.214163	0.500038
N75	N	1.275487	-0.249942	0.000059
N76	N	1.775487	0.250058	0.500059
H77	H	1.269553	-0.178601	0.000069
H78	H	1.769553	0.321399	0.500069
H79	H	1.311291	-0.269082	0.084802
H80	H	1.811291	0.230918	0.584802
H81	H	1.030991	0.333769	0.630574
H82	H	1.530991	0.833769	1.130574
N83	N	1.015267	0.349467	0.350516
N84	N	1.515267	0.849467	0.850516
H85	H	0.977611	0.387081	0.417924
H86	H	1.477611	0.887081	0.917924
H87	H	1.055370	0.394797	0.290815
H88	H	1.555370	0.894797	0.790815
H89	H	1.245049	0.023512	0.389060
H90	H	1.745049	0.523512	0.889060
H91	H	1.337937	0.126578	0.383483
H92	H	1.837937	0.626578	0.883483
N93	N	1.229261	0.003941	0.631113
N94	N	1.729261	0.503941	1.131113
H95	H	1.211073	-0.041531	0.553854
H96	H	1.711073	0.458469	1.053854
H97	H	1.280223	-0.023933	0.689555
H98	H	1.780223	0.476067	1.189555
N99	N	1.365654	0.127094	0.623739
N100	N	1.865654	0.627094	1.123739
H101	H	1.409723	0.140060	0.543052
H102	H	1.909723	0.640060	1.043052
H103	H	1.362959	0.186655	0.681447
H104	H	1.862959	0.686655	1.181447
