data_functionalizedCrystal
_audit_creation_method	'MofGen! by Chris Wilmer'
_symmetry_space_group_name_H-M	'P1'
_symmetry_Int_Tables_number	1
_symmetry_cell_setting	triclinic
loop_
_symmetry_equiv_pos_as_xyz
  x,y,z
_cell_length_a	12.594516
_cell_length_b	21.395364
_cell_length_c	21.395355
_cell_angle_alpha	90.025298
_cell_angle_beta	89.988593
_cell_angle_gamma	89.967246
loop_
_atom_site_label
_atom_site_type_symbol
_atom_site_fract_x
_atom_site_fract_y
_atom_site_fract_z
Zn1	Zn	-0.423391	-0.957923	-0.354305
Zn2	Zn	-0.601355	-0.957852	-0.249540
Zn3	Zn	-0.423443	-0.853138	-0.249540
Zn4	Zn	-0.601380	-0.853134	-0.354279
O5	O	-0.512392	-0.905512	-0.301916
O6	O	-0.446966	-1.045592	-0.340418
O7	O	-0.577767	-0.943934	-0.161862
O8	O	-0.274490	-0.867069	-0.263448
O9	O	-0.577716	-1.045540	-0.263448
O10	O	-0.274452	-0.944054	-0.340418
O11	O	-0.447055	-0.867001	-0.161862
O12	O	-0.447079	-0.765460	-0.263423
O13	O	-0.577758	-0.867062	-0.441961
O14	O	-0.577808	-0.765457	-0.340375
O15	O	-0.446990	-0.944050	-0.441979
O16	O	-0.750304	-0.943930	-0.263424
O17	O	-0.750322	-0.866994	-0.340375
C18	C	-0.512453	-0.742724	-0.301896
C19	C	-0.512504	-0.673083	-0.301903
C20	C	-0.444536	-0.640419	-0.342043
C21	C	-0.444511	-0.574984	-0.342044
C22	C	-0.512473	-0.542215	-0.301913
C23	C	-0.580446	-0.574886	-0.261765
C24	C	-0.580462	-0.640320	-0.261760
C25	C	-0.608332	-0.438505	-0.296881
C26	C	-0.608318	-0.373072	-0.296890
C27	C	-0.512425	-0.340394	-0.301924
C28	C	-0.416543	-0.373157	-0.306962
C29	C	-0.416558	-0.438591	-0.306957
C30	C	-0.512464	-0.471262	-0.301913
C31	C	-0.444424	-0.236778	-0.342068
C32	C	-0.444397	-0.171341	-0.342065
C33	C	-0.580342	-0.171245	-0.261789
C34	C	-0.580359	-0.236680	-0.261788
C35	C	-0.512402	-0.269443	-0.301931
C36	C	-0.788933	-0.905471	-0.301910
C37	C	-0.907239	-0.905511	-0.301928
C38	C	-0.976540	-0.863661	-0.343753
C39	C	-1.047388	-0.848392	-0.286580
C40	C	-1.047190	-0.920837	-0.359110
C41	C	-0.976528	-0.890211	-0.244726
C42	C	-0.976324	-0.962683	-0.317294
C43	C	-1.047140	-0.947435	-0.260083
C44	C	-0.234771	-0.905570	-0.301936
C45	C	-0.116466	-0.905595	-0.301945
C46	C	-0.512371	-0.905564	-0.465340
C47	C	-0.512362	-0.905586	-0.534981
C48	C	-0.512346	-0.068935	-0.301933
C49	C	-0.512359	-0.138576	-0.301932
C50	C	-0.444268	-0.945672	-0.567705
C51	C	-0.444222	-0.945671	-0.633140
C52	C	-0.512289	-0.905591	-0.665849
C53	C	-0.580387	-0.865497	-0.633117
C54	C	-0.580424	-0.865495	-0.567683
C55	C	-0.608129	-0.900629	-0.769522
C56	C	-0.608094	-0.900636	-0.834955
C57	C	-0.512177	-0.905595	-0.867670
C58	C	-0.416290	-0.910560	-0.834944
C59	C	-0.416326	-0.910557	-0.769510
C60	C	-0.512257	-0.905589	-0.736802
C61	C	-0.444028	-0.945682	-0.971347
C62	C	-0.443980	-0.945677	-1.036783
C63	C	-0.580155	-0.865506	-1.036759
C64	C	-0.580193	-0.865508	-0.971324
C65	C	-0.512131	-0.905599	-0.938621
C66	C	-0.512337	-0.905496	-0.139129
C67	C	-0.512046	-0.905595	-0.069488
H68	H	-0.389158	-0.548384	-0.374730
H69	H	-1.078228	-0.933766	-0.407462
N70	N	-0.653786	-0.822257	-0.668392
H71	H	-0.643429	-0.828340	-0.714810
H72	H	-0.729811	-0.831983	-0.656967
H73	H	-0.686171	-0.896597	-0.861595
N74	N	-0.370638	-0.988931	-0.936071
H75	H	-0.381009	-0.982856	-0.889653
H76	H	-0.387211	-1.033668	-0.947541
N77	N	-0.653641	-0.822282	-0.936015
H78	H	-0.610402	-0.793258	-0.908852
H79	H	-0.696748	-0.796928	-0.966695
N80	N	-0.653855	-0.822249	-0.532383
H81	H	-0.696963	-0.796852	-0.563031
H82	H	-0.703125	-0.847733	-0.505245
N83	N	-0.312827	-0.915914	-0.870219
H84	H	-0.327348	-0.915160	-0.916637
H85	H	-0.265258	-0.879693	-0.858761
H86	H	-0.635565	-0.832865	-1.063390
N87	N	-0.313148	-0.473927	-0.312375
H88	H	-0.327713	-0.520337	-0.311606
H89	H	-0.277066	-0.462531	-0.352957
H90	H	-1.077944	-0.982862	-0.224679
H91	H	-0.388845	-0.978317	-0.541083
H92	H	-0.945089	-1.010982	-0.330305
N93	N	-0.370776	-0.988908	-0.668446
H94	H	-0.327664	-1.014304	-0.637800
H95	H	-0.414086	-1.017891	-0.695609
H96	H	-0.389082	-0.263454	-0.374750
H97	H	-1.078626	-0.800081	-0.273597
H98	H	-0.338457	-0.346552	-0.311061
H99	H	-0.338253	-0.914598	-0.742868
N100	N	-0.370514	-0.988903	-1.072082
H101	H	-0.327403	-1.014297	-1.041433
H102	H	-0.413803	-1.017889	-1.099253
N103	N	-0.711590	-0.895288	-0.734238
H104	H	-0.759192	-0.931512	-0.745645
H105	H	-0.696969	-0.896022	-0.687833
N106	N	-0.371240	-0.675756	-0.385336
H107	H	-0.328178	-0.645130	-0.410765
H108	H	-0.321923	-0.702912	-0.359880
H109	H	-0.389043	-0.144747	-0.374750
N110	N	-0.935597	-0.873014	-0.180658
H111	H	-0.855407	-0.873069	-0.181052
H112	H	-0.962154	-0.830010	-0.169001
H113	H	-0.635678	-0.144565	-0.229113
N114	N	-0.653685	-0.271908	-0.218499
H115	H	-0.703080	-0.299049	-0.243911
H116	H	-0.610292	-0.299024	-0.189510
H117	H	-0.686392	-0.346401	-0.292791
H118	H	-0.686425	-0.465106	-0.292781
H119	H	-0.635781	-0.548201	-0.229089
H120	H	-0.635811	-0.666915	-0.229073
H121	H	-0.945539	-0.828207	-0.379071
