data_functionalizedCrystal
_audit_creation_method	'MofGen! by Chris Wilmer'
_symmetry_space_group_name_H-M	'P1'
_symmetry_Int_Tables_number	1
_symmetry_cell_setting	triclinic
loop_
_symmetry_equiv_pos_as_xyz
  x,y,z
_cell_length_a	14.519709
_cell_length_b	12.996460
_cell_length_c	14.519709
_cell_angle_alpha	90.001234
_cell_angle_beta	96.319855
_cell_angle_gamma	89.999398
loop_
_atom_site_label
_atom_site_type_symbol
_atom_site_fract_x
_atom_site_fract_y
_atom_site_fract_z
O1	O	-1.223870	0.085435	0.120885
O2	O	-0.973870	0.335435	0.370885
O3	O	-0.723870	0.585435	0.620885
O4	O	-0.473870	0.835435	0.870885
O5	O	-0.955394	0.085467	0.135121
O6	O	-0.705394	0.335467	0.385121
O7	O	-0.455394	0.585467	0.635121
O8	O	-0.205394	0.835467	0.885121
O9	O	-1.096750	0.085441	-0.006235
O10	O	-0.846750	0.335441	0.243765
O11	O	-0.596750	0.585441	0.493765
O12	O	-0.346750	0.835441	0.743765
O13	O	-1.082514	0.085461	0.262242
O14	O	-0.832514	0.335461	0.512242
O15	O	-0.582514	0.585461	0.762242
O16	O	-0.332514	0.835461	1.012242
O17	O	-1.096732	-0.085693	-0.006227
O18	O	-0.846732	0.164307	0.243773
O19	O	-0.596732	0.414307	0.493773
O20	O	-0.346732	0.664307	0.743773
O21	O	-0.955375	-0.085667	0.135130
O22	O	-0.705375	0.164333	0.385130
O23	O	-0.455375	0.414333	0.635130
O24	O	-0.205375	0.664333	0.885130
O25	O	-1.223852	-0.085699	0.120893
O26	O	-0.973852	0.164301	0.370893
O27	O	-0.723852	0.414301	0.620893
O28	O	-0.473852	0.664301	0.870893
Cu29	Cu	-1.089612	-0.101309	0.128012
Cu30	Cu	-0.839612	0.148691	0.378012
Cu31	Cu	-0.589612	0.398691	0.628012
Cu32	Cu	-0.339612	0.648691	0.878012
Cu33	Cu	-1.089634	0.101077	0.128002
Cu34	Cu	-0.839634	0.351077	0.378002
Cu35	Cu	-0.589634	0.601077	0.628002
Cu36	Cu	-0.339634	0.851077	0.878002
O37	O	-1.082496	-0.085673	0.262250
O38	O	-0.832496	0.164327	0.512250
O39	O	-0.582496	0.414327	0.762250
O40	O	-0.332496	0.664327	1.012250
C41	C	-0.921025	-0.000096	0.134462
C42	C	-0.671025	0.249904	0.384462
C43	C	-0.421025	0.499904	0.634462
C44	C	-0.171025	0.749904	0.884462
C45	C	-0.818643	-0.000084	0.132474
C46	C	-0.568643	0.249916	0.382474
C47	C	-0.318643	0.499916	0.632474
C48	C	-0.068643	0.749916	0.882474
C49	C	-1.096078	-0.000126	-0.040591
C50	C	-0.846078	0.249874	0.209409
C51	C	-0.596078	0.499874	0.459409
C52	C	-0.346078	0.749874	0.709409
C53	C	-1.094090	-0.000126	-0.142972
C54	C	-0.844090	0.249874	0.107028
C55	C	-0.594090	0.499874	0.357028
C56	C	-0.344090	0.749874	0.607028
C57	C	-1.258221	-0.000134	0.121553
C58	C	-1.008221	0.249866	0.371553
C59	C	-0.758221	0.499866	0.621553
C60	C	-0.508221	0.749866	0.871553
C61	C	-1.360602	-0.000139	0.123541
C62	C	-1.110602	0.249861	0.373541
C63	C	-0.860602	0.499861	0.623541
C64	C	-0.610602	0.749861	0.873541
N65	N	-1.089604	-0.243656	0.128018
N66	N	-0.839604	0.006344	0.378018
N67	N	-0.589604	0.256344	0.628018
N68	N	-0.339604	0.506344	0.878018
C69	C	-0.443748	-0.000132	0.125154
C70	C	-0.193748	0.249868	0.375154
C71	C	0.056252	0.499868	0.625154
C72	C	0.306252	0.749868	0.875154
C73	C	-0.548056	-0.000118	0.127187
C74	C	-0.298056	0.249882	0.377187
C75	C	-0.048056	0.499882	0.627187
C76	C	0.201944	0.749882	0.877187
C77	C	-0.631192	-0.000107	0.128814
C78	C	-0.381192	0.249893	0.378814
C79	C	-0.131192	0.499893	0.628814
C80	C	0.118808	0.749893	0.878814
C81	C	-0.735507	-0.000095	0.130847
C82	C	-0.485507	0.249905	0.380847
C83	C	-0.235507	0.499905	0.630847
C84	C	0.014493	0.749905	0.880847
C85	C	-1.089608	-0.336762	0.128021
C86	C	-0.839608	-0.086762	0.378021
C87	C	-0.589608	0.163238	0.628021
C88	C	-0.339608	0.413238	0.878021
C89	C	-1.089616	-0.453567	0.128015
C90	C	-0.839616	-0.203567	0.378015
C91	C	-0.589616	0.046433	0.628015
C92	C	-0.339616	0.296433	0.878015
C93	C	-1.089628	-0.546665	0.128004
C94	C	-0.839628	-0.296665	0.378004
C95	C	-0.589628	-0.046665	0.628004
C96	C	-0.339628	0.203335	0.878004
C97	C	-1.089638	-0.663478	0.127999
C98	C	-0.839638	-0.413478	0.377999
C99	C	-0.589638	-0.163478	0.627999
C100	C	-0.339638	0.086522	0.877999
N101	N	-1.089649	0.243424	0.127989
N102	N	-0.839649	0.493424	0.377989
N103	N	-0.589649	0.743424	0.627989
N104	N	-0.339649	0.993424	0.877989
C105	C	-1.086770	-0.000099	-0.517868
C106	C	-0.836770	0.249901	-0.267868
C107	C	-0.586770	0.499901	-0.017868
C108	C	-0.336770	0.749901	0.232132
C109	C	-1.088803	-0.000107	-0.413560
C110	C	-0.838803	0.249893	-0.163560
C111	C	-0.588803	0.499893	0.086440
C112	C	-0.338803	0.749893	0.336440
C113	C	-1.090430	-0.000114	-0.330423
C114	C	-0.840430	0.249886	-0.080423
C115	C	-0.590430	0.499886	0.169577
C116	C	-0.340430	0.749886	0.419577
C117	C	-1.092463	-0.000120	-0.226109
C118	C	-0.842463	0.249880	0.023891
C119	C	-0.592463	0.499880	0.273891
C120	C	-0.342463	0.749880	0.523891
C121	C	-1.083168	-0.000103	0.296606
C122	C	-0.833168	0.249897	0.546606
C123	C	-0.583168	0.499897	0.796606
C124	C	-0.333168	0.749897	1.046606
C125	C	-1.085156	-0.000096	0.398987
C126	C	-0.835156	0.249904	0.648987
C127	C	-0.585156	0.499904	0.898987
C128	C	-0.335156	0.749904	1.148987
