data_functionalizedCrystal
_audit_creation_method	'MofGen! by Chris Wilmer'
_symmetry_space_group_name_H-M	'P1'
_symmetry_Int_Tables_number	1
_symmetry_cell_setting	triclinic
loop_
_symmetry_equiv_pos_as_xyz
  x,y,z
_cell_length_a	14.853567
_cell_length_b	11.026607
_cell_length_c	10.065875
_cell_angle_alpha	100.697662
_cell_angle_beta	98.805381
_cell_angle_gamma	83.889526
loop_
_atom_site_label
_atom_site_type_symbol
_atom_site_fract_x
_atom_site_fract_y
_atom_site_fract_z
O1	O	0.367252	-1.628533	-0.113466
O2	O	0.324252	-1.275155	-0.113471
O3	O	0.216045	-1.461284	-0.113472
O4	O	0.475459	-1.442404	-0.113464
O5	O	0.236785	-1.425792	0.113517
O6	O	0.344992	-1.239663	0.113518
O7	O	0.387992	-1.593041	0.113524
Zn8	Zn	0.369785	-1.410717	0.149560
Zn9	Zn	0.342459	-1.457479	-0.149507
O10	O	0.496199	-1.406912	0.113525
C11	C	0.326689	-1.212185	0.000023
C12	C	0.303041	-1.077432	0.000021
C13	C	0.192688	-1.442683	0.000018
C14	C	0.092190	-1.440122	0.000007
C15	C	0.385555	-1.656012	0.000027
C16	C	0.409202	-1.790767	0.000020
C17	C	-0.339931	-1.318718	0.000031
C18	C	-0.325531	-1.539843	0.000034
C19	C	-0.231109	-1.542254	0.000026
C20	C	-0.191094	-1.432895	0.000022
C21	C	-0.245500	-1.321126	0.000027
C22	C	-0.176694	-1.654020	0.000035
C23	C	-0.082266	-1.656436	0.000029
C24	C	-0.042250	-1.547077	0.000016
C25	C	-0.096663	-1.435303	0.000019
C26	C	-0.056648	-1.325944	0.000015
C27	C	-0.111060	-1.214170	0.000008
C28	C	-0.205484	-1.211767	0.000014
C29	C	0.052174	-1.549480	0.000010
C30	C	0.037783	-1.328352	0.000011
C31	C	0.519556	-1.425514	0.000031
C32	C	0.620053	-1.428077	0.000034
N33	N	0.388434	-1.378812	0.353666
C34	C	0.368337	-1.003736	0.000022
C35	C	0.343897	-0.864461	0.000019
N36	N	0.323804	-1.489394	-0.353613
C37	C	0.348941	-1.446371	0.421444
C38	C	0.363303	-1.421825	0.578612
H39	H	0.070355	-1.239298	0.000002
C40	C	0.562763	-0.787342	0.116705
C41	C	0.509099	-0.844777	0.000020
H42	H	0.624431	-0.820697	0.116704
H43	H	0.559450	-0.700845	0.116693
H44	H	0.540808	-0.801554	0.195853
H45	H	0.531049	-0.830557	-0.079129
H46	H	0.512416	-0.931295	0.000019
H47	H	-0.037972	-1.747449	0.000032
H48	H	0.304493	-1.522379	0.363120
C49	C	0.521886	-1.000295	0.116718
C50	C	0.468232	-1.057740	0.000029
H51	H	0.583557	-1.033639	0.116724
H52	H	0.518566	-0.913797	0.116703
H53	H	0.499931	-1.014510	0.195864
H54	H	0.490183	-1.043518	-0.079118
H55	H	0.471557	-1.144259	0.000031
H56	H	0.407746	-1.345804	0.636933
H57	H	0.229043	-1.037421	-0.000017
C58	C	0.260839	-1.596086	0.427210
C59	C	0.263562	-1.591749	0.567669
H60	H	0.223581	-1.659201	0.378617
H61	H	0.236105	-1.518498	0.404053
H62	H	0.320987	-1.613523	0.403703
H63	H	0.203414	-1.574304	0.591178
H64	H	0.288293	-1.669355	0.590836
C65	C	0.027302	-1.119693	0.000005
C66	C	-0.067068	-1.093966	0.000002
H67	H	0.054460	-1.045486	-0.000007
H68	H	0.052955	-1.153129	0.079161
H69	H	0.038490	-1.177900	-0.079152
H70	H	-0.078256	-1.035765	0.079165
H71	H	-0.092729	-1.060512	-0.079161
H72	H	0.432874	-1.302796	0.411993
H73	H	-0.249794	-1.120766	0.000010
H74	H	-0.384238	-1.227715	0.000020
H75	H	-0.209281	-1.743051	0.000051
C76	C	-0.353000	-1.745817	-0.116650
C77	C	-0.369513	-1.660045	0.000038
H78	H	-0.380152	-1.820030	-0.116643
H79	H	-0.378671	-1.712365	-0.195788
H80	H	-0.288975	-1.763240	-0.116642
H81	H	-0.433539	-1.642616	0.000025
H82	H	-0.343846	-1.693504	0.079196
C83	C	0.056919	-1.767809	0.000013
C84	C	0.111982	-1.672331	0.000007
H85	H	0.093842	-1.843657	-0.000001
H86	H	0.027032	-1.749896	0.079171
H87	H	0.012547	-1.774638	-0.079142
H88	H	0.156349	-1.665497	0.079167
H89	H	0.141883	-1.690249	-0.079160
C90	C	0.190341	-0.867912	-0.116672
C91	C	0.243997	-0.810465	0.000014
H92	H	0.128668	-0.834580	-0.116669
H93	H	0.212287	-0.853695	-0.195811
H94	H	0.193669	-0.954422	-0.116658
H95	H	0.240674	-0.723956	-0.000006
H96	H	0.222044	-0.824672	0.079174
