data_functionalizedCrystal
_audit_creation_method	'MofGen! by Chris Wilmer'
_symmetry_space_group_name_H-M	'P1'
_symmetry_Int_Tables_number	1
_symmetry_cell_setting	triclinic
loop_
_symmetry_equiv_pos_as_xyz
  x,y,z
_cell_length_a	14.044220
_cell_length_b	14.044190
_cell_length_c	13.101039
_cell_angle_alpha	93.663707
_cell_angle_beta	86.340132
_cell_angle_gamma	93.190328
loop_
_atom_site_label
_atom_site_type_symbol
_atom_site_fract_x
_atom_site_fract_y
_atom_site_fract_z
O1	O	1.281975	0.225348	-0.085126
O2	O	1.005305	0.217041	-0.085151
O3	O	1.139483	0.082859	-0.085118
O4	O	1.147797	0.359530	-0.085158
O5	O	1.129857	0.092504	0.085309
O6	O	0.995679	0.226686	0.085277
O7	O	1.272349	0.234993	0.085302
Zn8	Zn	1.132486	0.232371	0.112348
Zn9	Zn	1.145168	0.219663	-0.112197
O10	O	1.138172	0.369174	0.085270
C11	C	0.964870	0.218228	0.000060
C12	C	0.858728	0.207382	0.000051
C13	C	1.131033	0.052060	0.000098
C14	C	1.120185	-0.054083	0.000106
C15	C	1.177288	-0.299543	0.000071
C16	C	1.100371	-0.248418	0.000071
C17	C	1.111398	-0.140280	0.000091
C18	C	1.166262	-0.407691	0.000052
C19	C	0.664388	0.187557	0.000075
C20	C	0.613261	0.264472	0.000068
C21	C	0.505123	0.253441	0.000081
C22	C	0.772535	0.198587	0.000062
C23	C	1.312784	0.233806	0.000089
C24	C	1.418927	0.244651	0.000091
C25	C	1.146621	0.399974	0.000051
C26	C	1.157470	0.506116	0.000036
N27	N	1.123838	0.241043	0.265595
N28	N	1.153824	0.210984	-0.265444
C29	C	1.112072	0.252851	0.474635
C30	C	1.165586	0.199179	0.525523
C31	C	1.159040	0.205749	0.641840
C32	C	1.118618	0.246282	0.358307
H33	H	1.026240	-0.285862	0.000059
O34	O	1.265752	-0.254933	-0.000088
C35	C	1.420884	-0.236052	-0.088316
C36	C	1.320731	-0.286640	-0.088279
H37	H	1.465370	-0.261683	-0.159600
H38	H	1.414190	-0.155528	-0.088368
H39	H	1.457260	-0.253543	-0.016956
H40	H	1.284299	-0.269227	-0.159627
H41	H	1.327490	-0.367151	-0.088174
H42	H	0.650703	0.338605	0.000052
O43	O	0.619581	0.099188	0.000040
C44	C	0.469364	0.007496	0.000115
C45	C	0.520002	0.107626	0.000136
H46	H	0.388846	0.014284	0.000215
H47	H	0.494837	-0.037006	-0.071225
H48	H	0.486928	-0.028920	0.071422
H49	H	0.502462	0.144124	-0.071122
H50	H	0.494526	0.152058	0.071524
O51	O	1.051611	0.313685	0.526750
C52	C	1.008198	0.476863	0.559857
C53	C	1.076719	0.408073	0.500740
H54	H	1.028485	0.553193	0.538866
H55	H	0.931805	0.456959	0.538824
H56	H	1.013618	0.471364	0.645714
H57	H	1.071383	0.413537	0.414870
H58	H	1.153084	0.427998	0.521859
O59	O	1.225905	0.138367	0.473133
C60	C	1.287171	0.075958	0.307746
C61	C	1.218963	0.145000	0.366955
H62	H	1.281566	0.081282	0.221891
H63	H	1.363666	0.095688	0.328536
H64	H	1.266725	-0.000270	0.328989
H65	H	1.239321	0.221250	0.345744
H66	H	1.142485	0.125187	0.346160
