data_functionalizedCrystal
_audit_creation_method	'MofGen! by Chris Wilmer'
_symmetry_space_group_name_H-M	'P1'
_symmetry_Int_Tables_number	1
_symmetry_cell_setting	triclinic
loop_
_symmetry_equiv_pos_as_xyz
  x,y,z
_cell_length_a	17.699083
_cell_length_b	16.992695
_cell_length_c	16.776229
_cell_angle_alpha	89.993259
_cell_angle_beta	89.998886
_cell_angle_gamma	86.975619
loop_
_atom_site_label
_atom_site_type_symbol
_atom_site_fract_x
_atom_site_fract_y
_atom_site_fract_z
O1	O	1.010251	0.099146	-0.066177
O2	O	0.790676	0.112045	-0.066203
O3	O	0.899583	-0.008546	-0.066184
O4	O	0.901344	0.219736	-0.066196
O5	O	0.899568	-0.008553	0.066393
O6	O	0.790660	0.112037	0.066374
O7	O	1.010235	0.099138	0.066400
Zn8	Zn	0.900445	0.105587	0.087436
Zn9	Zn	0.900466	0.105596	-0.087239
O10	O	0.901328	0.219729	0.066381
C11	C	0.762442	0.111579	0.000082
C12	C	0.678338	0.110192	0.000072
C13	C	0.897311	-0.037758	0.000104
C14	C	0.890554	-0.124789	0.000103
C15	C	0.634124	0.180976	0.000069
C16	C	0.555099	0.179669	0.000079
C17	C	0.520290	0.107576	0.000087
C18	C	0.564510	0.036787	0.000093
C19	C	0.643533	0.038095	0.000089
C20	C	0.245818	0.031509	0.000113
C21	C	0.166789	0.030206	0.000116
C22	C	0.157384	0.173082	0.000104
C23	C	0.236408	0.174391	0.000099
C24	C	0.280621	0.103602	0.000109
C25	C	0.366308	0.105020	0.000099
C26	C	0.434604	0.106157	0.000091
C27	C	0.955751	-0.175154	0.000112
C28	C	0.949398	-0.256928	0.000104
C29	C	0.877846	-0.288336	0.000092
C30	C	0.812643	-0.237965	0.000081
C31	C	0.818998	-0.156192	0.000084
C32	C	0.851510	-0.531884	0.000078
C33	C	0.845160	-0.613663	0.000078
C34	C	0.981915	-0.632621	0.000099
C35	C	0.988263	-0.550845	0.000106
C36	C	0.923061	-0.500481	0.000091
N37	N	0.871350	-0.371923	0.000086
N38	N	0.929558	-0.416897	0.000091
C39	C	1.038469	0.099604	0.000113
C40	C	1.122574	0.100991	0.000118
C41	C	0.903601	0.248941	0.000091
C42	C	0.910358	0.335972	0.000087
N43	N	0.900437	0.105579	0.206647
N44	N	0.900481	0.105597	-0.206450
C45	C	0.948678	0.052204	0.248373
C46	C	0.948682	0.052203	0.331825
C47	C	0.900448	0.105582	0.373550
C48	C	0.852202	0.158961	0.331819
C49	C	0.852194	0.158957	0.248368
C50	C	0.852230	0.158976	0.668366
C51	C	0.852243	0.158977	0.751822
C52	C	0.948718	0.052222	0.751823
C53	C	0.948710	0.052219	0.668372
C54	C	0.900461	0.105594	0.626648
C55	C	0.900456	0.105593	0.536160
C56	C	0.900456	0.105588	0.464037
H57	H	0.519103	0.237308	0.000075
C58	C	0.032070	0.234531	0.000116
C59	C	0.108783	0.250898	0.000104
H60	H	0.002069	0.282571	0.000119
H61	H	0.021052	0.204971	-0.046109
H62	H	0.021062	0.204963	0.046356
H63	H	0.119792	0.280461	-0.046140
H64	H	0.119805	0.280471	0.046333
H65	H	1.046528	-0.525279	0.000115
H66	H	0.786891	-0.639232	0.000082
H67	H	0.264745	0.233096	0.000089
C68	C	0.756874	0.264507	0.676760
C69	C	0.799202	0.217651	0.622510
H70	H	0.724140	0.300735	0.648446
H71	H	0.727686	0.231908	0.709316
H72	H	0.790093	0.292665	0.709300
H73	H	0.765983	0.189489	0.589973
H74	H	0.828392	0.250255	0.589940
C75	C	0.694138	-0.246980	-0.068095
C76	C	0.733992	-0.272490	0.000065
H77	H	0.645583	-0.268298	-0.068105
H78	H	0.688590	-0.191078	-0.068090
H79	H	0.721207	-0.264276	-0.114317
H80	H	0.706926	-0.255188	0.046287
H81	H	0.739537	-0.328404	0.000067
C82	C	1.117728	-0.643144	0.000117
C83	C	1.053584	-0.687981	0.000107
H84	H	1.161974	-0.677322	0.000125
H85	H	1.117365	-0.610850	-0.046111
H86	H	1.117351	-0.610859	0.046354
H87	H	1.053957	-0.720261	-0.046133
H88	H	1.053947	-0.720289	0.046340
H89	H	0.281807	-0.026132	0.000122
H90	H	0.987989	0.008755	0.634402
H91	H	0.812910	0.202420	0.214396
H92	H	0.536162	-0.021912	0.000112
C93	C	0.746819	-0.053228	-0.068080
C94	C	0.747330	-0.100828	0.000074
H95	H	0.702570	-0.019053	-0.068090
H96	H	0.790336	-0.022824	-0.068067
H97	H	0.747190	-0.085527	-0.114306
H98	H	0.746965	-0.068529	0.046301
H99	H	0.703801	-0.131235	0.000069
C100	C	1.044037	-0.053327	0.256764
C101	C	1.001697	-0.006475	0.202513
H102	H	1.076765	-0.089558	0.228452
H103	H	1.073233	-0.020726	0.289302
H104	H	1.010825	-0.081483	0.289324
H105	H	1.034909	0.021685	0.169957
H106	H	0.972499	-0.039080	0.169962
C107	C	0.715697	-0.521371	0.000076
C108	C	0.779839	-0.476531	0.000077
H109	H	0.671450	-0.487194	0.000083
H110	H	0.716067	-0.553650	-0.046155
H111	H	0.716070	-0.553671	0.046310
H112	H	0.779469	-0.444236	-0.046160
H113	H	0.779470	-0.444239	0.046313
C114	C	0.675889	-0.083280	-0.068064
C115	C	0.692139	-0.039711	0.000086
H116	H	0.705900	-0.131313	-0.068064
H117	H	0.623851	-0.094377	-0.068054
H118	H	0.686907	-0.053700	-0.114293
H119	H	0.681115	-0.069289	0.046316
H120	H	0.744188	-0.028616	0.000084
C121	C	0.809380	0.206376	0.459741
C122	C	0.799183	0.217639	0.377681
H123	H	0.776652	0.242608	0.488051
H124	H	0.797998	0.154069	0.473425
H125	H	0.860405	0.214827	0.473399
H126	H	0.748159	0.209182	0.364022
H127	H	0.810560	0.269958	0.363992
H128	H	0.987963	0.008740	0.365798
C129	C	0.958703	-0.054509	0.845679
C130	C	1.001747	-0.006459	0.797689
H131	H	0.991442	-0.090736	0.873989
H132	H	0.929985	-0.022719	0.882468
H133	H	0.925499	-0.082668	0.813122
H134	H	1.034947	0.021705	0.830248
H135	H	1.030478	-0.038252	0.760896
C136	C	1.074273	-0.166127	-0.068032
C137	C	1.034403	-0.140631	0.000120
H138	H	1.122828	-0.144810	-0.068030
H139	H	1.079818	-0.222029	-0.068025
H140	H	1.047215	-0.148819	-0.114260
H141	H	1.061459	-0.157944	0.046348
H142	H	1.028860	-0.084717	0.000121
C143	C	0.616882	0.322076	0.000065
C144	C	0.672382	0.260224	0.000062
H145	H	0.640501	0.371001	0.000068
H146	H	0.586256	0.318598	-0.046163
H147	H	0.586256	0.318583	0.046303
H148	H	0.703005	0.263713	-0.046179
H149	H	0.703021	0.263704	0.046294
C150	C	0.083380	-0.054160	-0.068024
C151	C	0.128526	-0.049045	0.000128
H152	H	0.059762	-0.103086	-0.068018
H153	H	0.045743	-0.012194	-0.068025
H154	H	0.114022	-0.050683	-0.114252
H155	H	0.097883	-0.052516	0.046356
H156	H	0.166168	-0.091023	0.000136
C157	C	1.021606	-0.359865	-0.068048
C158	C	1.021068	-0.312285	0.000110
H159	H	1.065859	-0.394035	-0.068047
H160	H	0.978092	-0.390275	-0.068052
H161	H	1.021245	-0.327552	-0.114272
H162	H	1.021424	-0.344598	0.046334
H163	H	1.064594	-0.281873	0.000121
H164	H	0.812962	0.202447	0.785794
