data_functionalizedCrystal
_audit_creation_method	'MofGen! by Chris Wilmer'
_symmetry_space_group_name_H-M	'P1'
_symmetry_Int_Tables_number	1
_symmetry_cell_setting	triclinic
loop_
_symmetry_equiv_pos_as_xyz
  x,y,z
_cell_length_a	11.792241
_cell_length_b	23.532407
_cell_length_c	10.268362
_cell_angle_alpha	89.990068
_cell_angle_beta	89.999626
_cell_angle_gamma	83.521047
loop_
_atom_site_label
_atom_site_type_symbol
_atom_site_fract_x
_atom_site_fract_y
_atom_site_fract_z
O1	O	1.505071	0.078055	-0.108188
O2	O	1.838405	0.411388	0.225145
O3	O	2.171738	0.744722	0.558478
O4	O	1.174541	0.086099	-0.108220
O5	O	1.507874	0.419433	0.225113
O6	O	1.841208	0.752766	0.558446
O7	O	1.349773	-0.000795	-0.108179
O8	O	1.683107	0.332538	0.225154
O9	O	2.016440	0.665871	0.558487
O10	O	1.329839	0.164950	-0.108229
O11	O	1.663172	0.498283	0.225104
O12	O	1.996506	0.831616	0.558438
O13	O	1.349758	-0.000799	0.108421
O14	O	1.683092	0.332534	0.441754
O15	O	2.016425	0.665868	0.775088
O16	O	1.174526	0.086096	0.108380
O17	O	1.507859	0.419429	0.441714
O18	O	1.841193	0.752762	0.775047
O19	O	1.505056	0.078051	0.108412
O20	O	1.838390	0.411385	0.441746
O21	O	2.171723	0.744718	0.775079
Cu22	Cu	1.339790	0.082073	0.128174
Cu23	Cu	1.673123	0.415407	0.461507
Cu24	Cu	2.006456	0.748740	0.794840
Cu25	Cu	1.339808	0.082078	-0.127982
Cu26	Cu	1.673141	0.415411	0.205352
Cu27	Cu	2.006474	0.748744	0.538685
O28	O	1.329824	0.164946	0.108372
O29	O	1.663157	0.498279	0.441705
O30	O	1.996491	0.831613	0.775038
C31	C	1.132254	0.085592	0.000076
C32	C	1.465588	0.418926	0.333410
C33	C	1.798921	0.752259	0.666743
C34	C	1.006276	0.084080	0.000065
C35	C	1.339610	0.417413	0.333399
C36	C	1.672943	0.750746	0.666732
C37	C	0.775630	0.081299	0.000104
C38	C	1.108963	0.414632	0.333437
C39	C	1.442296	0.747965	0.666770
C40	C	0.903978	0.082844	0.000082
C41	C	1.237312	0.416177	0.333416
C42	C	1.570645	0.749511	0.666749
C43	C	1.349258	-0.022016	0.000124
C44	C	1.682592	0.311317	0.333457
C45	C	2.015925	0.644650	0.666791
C46	C	1.347732	-0.085242	0.000134
C47	C	1.681065	0.248091	0.333467
C48	C	2.014399	0.581424	0.666801
C49	C	1.441858	-0.483788	0.000072
C50	C	1.775192	-0.150454	0.333405
C51	C	2.108525	0.182879	0.666738
C52	C	1.440440	-0.543196	0.000062
C53	C	1.773774	-0.209863	0.333395
C54	C	2.107107	0.123470	0.666728
O55	O	1.527696	-0.579424	0.000022
O56	O	1.861030	-0.246090	0.333355
O57	O	2.194363	0.087243	0.666689
N58	N	1.336265	-0.566440	0.000053
N59	N	1.669598	-0.233106	0.333386
N60	N	2.002932	0.100227	0.666719
C61	C	1.233500	-0.530271	0.000040
C62	C	1.566834	-0.196938	0.333374
C63	C	1.900167	0.136395	0.666707
O64	O	1.144761	-0.555497	0.000030
O65	O	1.478094	-0.222163	0.333364
O66	O	1.811427	0.111170	0.666697
C67	C	1.234919	-0.470864	0.000041
C68	C	1.568253	-0.137530	0.333374
C69	C	1.901586	0.195803	0.666708
C70	C	1.339102	-0.447624	0.000063
C71	C	1.672435	-0.114290	0.333397
C72	C	2.005768	0.219043	0.666730
C73	C	1.546032	-0.460547	0.000093
C74	C	1.879365	-0.127214	0.333426
C75	C	2.212699	0.206120	0.666759
C76	C	1.547449	-0.401142	0.000105
C77	C	1.880783	-0.067809	0.333438
C78	C	2.214116	0.265524	0.666772
C79	C	1.444693	-0.364979	0.000097
C80	C	1.778026	-0.031645	0.333430
C81	C	2.111360	0.301688	0.666763
C82	C	1.340519	-0.388219	0.000076
C83	C	1.673852	-0.054886	0.333409
C84	C	2.007186	0.278448	0.666742
C85	C	1.132156	-0.434696	0.000019
C86	C	1.465489	-0.101363	0.333353
C87	C	1.798823	0.231970	0.666686
C88	C	1.133584	-0.375285	0.000019
C89	C	1.466917	-0.041952	0.333352
C90	C	1.800251	0.291381	0.666686
C91	C	1.237766	-0.352045	0.000041
C92	C	1.571100	-0.018712	0.333375
C93	C	1.904433	0.314621	0.666708
C94	C	1.239180	-0.292651	0.000080
C95	C	1.572513	0.040683	0.333413
C96	C	1.905846	0.374016	0.666746
N97	N	1.343355	-0.269407	0.000089
N98	N	1.676689	0.063926	0.333422
N99	N	2.010022	0.397260	0.666756
C100	C	1.446112	-0.305571	0.000097
C101	C	1.779445	0.027762	0.333431
C102	C	2.112779	0.361096	0.666764
C103	C	1.230528	-0.655031	0.000036
C104	C	1.563862	-0.321698	0.333370
C105	C	1.897195	0.011635	0.666703
C106	C	1.229108	-0.714438	0.000045
C107	C	1.562442	-0.381104	0.333378
C108	C	1.895775	-0.047771	0.666712
C109	C	1.436049	-0.727359	0.000064
C110	C	1.769382	-0.394025	0.333397
C111	C	2.102715	-0.060692	0.666731
C112	C	1.437468	-0.667951	0.000065
C113	C	1.770801	-0.334618	0.333398
C114	C	2.104134	-0.001285	0.666731
C115	C	1.334704	-0.631788	0.000046
C116	C	1.668037	-0.298455	0.333379
C117	C	2.001371	0.034879	0.666712
C118	C	1.449080	-0.180817	0.000125
C119	C	1.782414	0.152517	0.333458
C120	C	2.115747	0.485850	0.666791
C121	C	1.450489	-0.121406	0.000142
C122	C	1.783822	0.211927	0.333476
C123	C	2.117155	0.545260	0.666809
C124	C	1.243549	-0.108491	0.000117
C125	C	1.576882	0.224843	0.333450
C126	C	1.910215	0.558176	0.666783
C127	C	1.242140	-0.167896	0.000106
C128	C	1.575473	0.165438	0.333439
C129	C	1.908807	0.498771	0.666772
C130	C	1.344915	-0.204058	0.000105
C131	C	1.678248	0.129275	0.333438
C132	C	2.011582	0.462609	0.666772
O133	O	1.151970	-0.256388	0.000114
O134	O	1.485303	0.076945	0.333447
O135	O	1.818636	0.410278	0.666781
O136	O	1.534837	-0.280337	0.000090
O137	O	1.868170	0.052996	0.333423
O138	O	2.201504	0.386329	0.666757
C139	C	1.547343	0.078558	0.000113
C140	C	1.880676	0.411892	0.333446
C141	C	2.214010	0.745225	0.666779
C142	C	1.673321	0.080071	0.000115
C143	C	2.006654	0.413404	0.333449
C144	C	2.339988	0.746738	0.666782
C145	C	1.330339	0.186167	0.000065
C146	C	1.663673	0.519500	0.333398
C147	C	1.997006	0.852834	0.666732
C148	C	1.331865	0.249393	0.000047
C149	C	1.665199	0.582726	0.333380
C150	C	1.998532	0.916060	0.666713
N151	N	1.339786	0.082070	0.308340
N152	N	1.673119	0.415403	0.641673
N153	N	2.006452	0.748737	0.975006
N154	N	1.339821	0.082076	-0.308148
N155	N	1.673154	0.415410	0.025186
N156	N	2.006488	0.748743	0.358519
C157	C	1.339802	0.082076	0.574010
C158	C	1.673135	0.415410	0.907343
C159	C	2.006469	0.748743	1.240677
C160	C	1.339789	0.082074	0.426172
C161	C	1.673122	0.415408	0.759506
C162	C	2.006456	0.748741	1.092839
H163	H	1.535330	-0.102488	0.000164
H164	H	1.868663	0.230845	0.333497
H165	H	2.201997	0.564179	0.666831
H166	H	1.532770	-0.210254	0.000119
H167	H	1.866103	0.123080	0.333453
H168	H	2.199437	0.456413	0.666786
H169	H	1.047320	-0.453608	-0.000007
H170	H	1.380653	-0.120274	0.333327
H171	H	1.713987	0.213059	0.666660
H172	H	1.632285	-0.382226	0.000118
H173	H	1.965619	-0.048893	0.333451
H174	H	2.298952	0.284440	0.666784
Br175	Br	1.685507	-0.509617	0.000103
Br176	Br	2.018841	-0.176283	0.333436
Br177	Br	2.352174	0.157050	0.666769
H178	H	1.522302	-0.649034	0.000082
H179	H	1.855635	-0.315700	0.333415
H180	H	2.188969	0.017633	0.666749
Br181	Br	1.087713	-0.745970	0.000046
Br182	Br	1.421046	-0.412637	0.333379
Br183	Br	1.754379	-0.079303	0.666712
H184	H	1.049899	-0.345843	0.000001
H185	H	1.383233	-0.012510	0.333335
H186	H	1.716566	0.320823	0.666668
Br187	Br	1.575506	-0.776450	0.000070
Br188	Br	1.908839	-0.443117	0.333403
Br189	Br	2.242172	-0.109783	0.666737
H190	H	1.146840	-0.625590	0.000032
H191	H	1.480174	-0.292256	0.333365
H192	H	1.813507	0.041077	0.666699
H193	H	1.157306	-0.186819	0.000124
H194	H	1.490640	0.146515	0.333457
H195	H	1.823973	0.479848	0.666790
Br196	Br	1.104100	-0.059400	0.000106
Br197	Br	1.437434	0.273933	0.333439
Br198	Br	1.770767	0.607267	0.666772
