data_functionalizedCrystal
_audit_creation_method	'MofGen! by Chris Wilmer'
_symmetry_space_group_name_H-M	'P1'
_symmetry_Int_Tables_number	1
_symmetry_cell_setting	triclinic
loop_
_symmetry_equiv_pos_as_xyz
  x,y,z
_cell_length_a	15.538191
_cell_length_b	15.944551
_cell_length_c	14.185569
_cell_angle_alpha	76.843158
_cell_angle_beta	97.875798
_cell_angle_gamma	65.385416
loop_
_atom_site_label
_atom_site_type_symbol
_atom_site_fract_x
_atom_site_fract_y
_atom_site_fract_z
O1	O	1.228526	-0.247244	-0.083424
O2	O	0.954273	-0.150258	-0.083426
O3	O	1.098891	-0.323313	-0.083416
O4	O	1.083908	-0.074190	-0.083434
O5	O	1.141613	-0.374430	0.083422
O6	O	0.996995	-0.201376	0.083412
O7	O	1.271248	-0.298362	0.083414
Cu8	Cu	1.138022	-0.254536	0.098646
Cu9	Cu	1.087499	-0.194084	-0.098658
O10	O	1.126630	-0.125307	0.083404
C11	C	0.940539	-0.165670	-0.000007
C12	C	0.835967	-0.135444	-0.000007
C13	C	0.548159	-0.435726	-0.000001
C14	C	0.449895	-0.407303	-0.000004
C15	C	0.427459	-0.247430	-0.000015
C16	C	0.525725	-0.275842	-0.000008
C17	C	0.586068	-0.369990	-0.000002
C18	C	0.563633	-0.210106	-0.000008
C19	C	0.661889	-0.238513	-0.000006
C20	C	0.722237	-0.332657	-0.000003
C21	C	0.684324	-0.398398	0.000001
C22	C	0.503287	-0.115955	-0.000021
C23	C	0.541195	-0.050219	-0.000022
C24	C	0.639455	-0.078629	-0.000012
C25	C	0.699803	-0.172772	-0.000009
C26	C	0.677368	-0.012888	-0.000016
C27	C	0.775625	-0.041296	-0.000013
C28	C	0.798059	-0.201180	-0.000007
C29	C	1.119630	-0.379976	0.000003
C30	C	1.117766	-0.472653	0.000004
C31	C	1.023667	-0.658813	-0.000011
C32	C	1.088426	-0.758358	0.082251
C33	C	1.114392	-0.642349	-0.000004
C34	C	1.046328	-0.707950	-0.082238
C35	C	1.111124	-0.806262	-0.000016
C36	C	1.179193	-0.740694	0.082325
C37	C	1.137063	-0.690253	-0.082237
C38	C	1.201893	-0.789808	0.000044
C39	C	1.116272	-0.547921	0.000004
C40	C	1.109253	-0.900693	-0.000016
C41	C	1.284982	-0.282950	-0.000007
C42	C	1.389552	-0.313173	-0.000014
C43	C	1.105890	-0.068644	-0.000017
C44	C	1.107753	0.024036	-0.000025
N45	N	1.173564	-0.297058	0.237420
N46	N	1.051965	-0.151571	-0.237432
C47	C	0.947542	-0.026679	0.605054
C48	C	0.974471	-0.058885	0.710078
C49	C	1.102556	-0.212090	0.710047
C50	C	1.075635	-0.179898	0.605022
C51	C	0.998128	-0.087192	0.552534
C52	C	1.126220	-0.240411	0.552501
C53	C	1.099304	-0.208220	0.447485
C54	C	1.021802	-0.115516	0.394989
C55	C	0.971211	-0.055001	0.447517
C56	C	1.203732	-0.333115	0.604991
C57	C	1.254318	-0.393628	0.552471
C58	C	1.227397	-0.361440	0.447452
C59	C	1.149895	-0.268736	0.394957
C60	C	1.277988	-0.421956	0.394924
C61	C	1.251071	-0.389765	0.289908
C62	C	1.122978	-0.236545	0.289940
H63	H	0.492050	0.026438	-0.000031
O64	O	1.353322	-0.512020	0.445762
C65	C	1.392179	-0.558542	0.376885
H66	H	1.374063	-0.501485	0.302024
H67	H	1.358724	-0.608205	0.365727
C68	C	1.526541	-0.689429	0.509792
C69	C	1.504297	-0.619349	0.417849
H70	H	1.595700	-0.726941	0.535061
H71	H	1.500361	-0.658089	0.556197
H72	H	1.498654	-0.730804	0.500481
H73	H	1.532173	-0.577968	0.427163
H74	H	1.530485	-0.650684	0.371446
H75	H	0.908090	0.020486	0.404779
H76	H	1.317427	-0.469110	0.595219
H77	H	1.225647	-0.359320	0.690503
H78	H	1.292265	-0.439041	0.247145
O79	O	0.618615	0.078580	-0.000161
C80	C	0.539004	0.126275	-0.086588
H81	H	0.526654	0.069947	-0.115391
H82	H	0.555847	0.173314	-0.147091
C83	C	0.461139	0.260107	-0.024979
C84	C	0.445965	0.190923	-0.060351
H85	H	0.403749	0.299988	-0.008797
H86	H	0.514776	0.227976	0.033247
H87	H	0.475178	0.299296	-0.075404
H88	H	0.431939	0.151727	-0.009921
H89	H	0.392324	0.223048	-0.118568
O90	O	0.743032	-0.489902	0.000190
C91	C	0.822677	-0.537578	0.086584
H92	H	0.802163	-0.502154	0.146972
H93	H	0.889125	-0.531642	0.067046
C94	C	0.872821	-0.689036	0.051606
C95	C	0.847622	-0.645533	0.125779
H96	H	0.888213	-0.755629	0.075782
H97	H	0.819165	-0.656916	-0.006602
H98	H	0.928192	-0.684080	0.035332
H99	H	0.792245	-0.650479	0.142043
H100	H	0.901269	-0.677657	0.183991
H101	H	0.806492	0.012231	-0.000004
H102	H	0.847196	-0.277848	0.000004
H103	H	0.802240	-0.355781	-0.000014
O104	O	0.979405	-0.692516	-0.165310
C105	C	1.004256	-0.656051	-0.251903
H106	H	1.085878	-0.677721	-0.232589
H107	H	0.960001	-0.573397	-0.280988
C108	C	0.880676	-0.671985	-0.357014
C109	C	0.980928	-0.698607	-0.333294
H110	H	0.866283	-0.698231	-0.407223
H111	H	0.863931	-0.696549	-0.298676
H112	H	0.843809	-0.603107	-0.381246
H113	H	1.017792	-0.767483	-0.309051
H114	H	0.997679	-0.674056	-0.391631
H115	H	0.423280	-0.092828	-0.000026
H116	H	1.157593	-0.660505	-0.151786
O117	O	1.063781	-0.793847	0.165111
C118	C	0.977667	-0.801560	0.135583
H119	H	0.969217	-0.806779	0.056323
H120	H	0.911489	-0.734634	0.137160
C121	C	0.994786	-0.886932	0.305613
C122	C	0.984413	-0.893350	0.208267
H123	H	0.998945	-0.943549	0.350450
H124	H	1.052801	-0.881733	0.325508
H125	H	0.939636	-0.831156	0.306913
H126	H	1.039568	-0.949118	0.206965
H127	H	0.926407	-0.898561	0.188373
H128	H	1.165666	-0.287571	0.752795
O129	O	1.246264	-0.756156	0.165282
C130	C	1.317848	-0.731246	0.135931
H131	H	1.286189	-0.677712	0.056545
H132	H	1.384562	-0.799579	0.137912
C133	C	1.387571	-0.749797	0.305932
C134	C	1.348684	-0.684039	0.208432
H135	H	1.406597	-0.720682	0.350656
H136	H	1.339346	-0.766583	0.325708
H137	H	1.443161	-0.806737	0.307569
H138	H	1.293088	-0.627107	0.206794
H139	H	1.396901	-0.667242	0.188658
O140	O	0.872252	0.063421	0.554214
C141	C	0.833349	0.109923	0.623086
H142	H	0.891146	0.076179	0.697938
H143	H	0.766242	0.100516	0.634268
C144	C	0.732441	0.260454	0.490163
C145	C	0.803432	0.219014	0.582096
H146	H	0.713982	0.327747	0.464879
H147	H	0.758647	0.229124	0.443762
H148	H	0.676527	0.252605	0.499495
H149	H	0.859348	0.226853	0.572762
H150	H	0.777234	0.250348	0.628496
H151	H	1.277275	-0.845964	0.000091
O152	O	0.995477	-0.084184	0.292976
C153	C	0.897086	-0.063317	0.257917
H154	H	0.857108	-0.047769	0.318453
H155	H	0.894790	-0.128358	0.239282
C156	C	0.895814	0.007242	0.088669
C157	C	0.846711	0.026345	0.163018
H158	H	0.864741	0.062547	0.030128
H159	H	0.962104	-0.006819	0.112288
H160	H	0.893897	-0.046962	0.073152
H161	H	0.848639	0.080540	0.178542
H162	H	0.780420	0.040418	0.139400
H163	H	0.597296	-0.512393	0.000010
H164	H	0.419035	-0.460840	-0.000005
H165	H	0.378314	-0.170773	-0.000024
H166	H	0.948384	-0.602567	0.000071
H167	H	1.059858	-0.161058	0.247202
H168	H	0.933272	-0.009599	0.752835
