data_functionalizedCrystal
_audit_creation_method	'MofGen! by Chris Wilmer'
_symmetry_space_group_name_H-M	'P1'
_symmetry_Int_Tables_number	1
_symmetry_cell_setting	triclinic
loop_
_symmetry_equiv_pos_as_xyz
  x,y,z
_cell_length_a	13.897448
_cell_length_b	11.169417
_cell_length_c	11.169409
_cell_angle_alpha	90.021649
_cell_angle_beta	89.964424
_cell_angle_gamma	89.984086
loop_
_atom_site_label
_atom_site_type_symbol
_atom_site_fract_x
_atom_site_fract_y
_atom_site_fract_z
Zn1	Zn	-0.383983	-1.834901	-0.678574
Zn2	Zn	0.116017	-1.334901	-0.178574
Zn3	Zn	-0.545318	-1.834765	-0.477880
Zn4	Zn	-0.045318	-1.334765	0.022120
Zn5	Zn	-0.384034	-1.634187	-0.477902
Zn6	Zn	0.115966	-1.134187	0.022098
Zn7	Zn	-0.545232	-1.634169	-0.678518
Zn8	Zn	-0.045232	-1.134169	-0.178518
O9	O	-0.464642	-1.734505	-0.578218
O10	O	0.035358	-1.234505	-0.078218
O11	O	-0.405399	-2.002833	-0.651966
O12	O	0.094601	-1.502833	-0.151966
O13	O	-0.523981	-1.808108	-0.309933
O14	O	-0.023981	-1.308108	0.190067
O15	O	-0.249045	-1.660877	-0.504554
O16	O	0.250955	-1.160877	-0.004554
O17	O	-0.523931	-2.002732	-0.504516
O18	O	-0.023931	-1.502732	-0.004516
O19	O	-0.249008	-1.808341	-0.651987
O20	O	0.250992	-1.308341	-0.151987
O21	O	-0.405486	-1.660745	-0.309949
O22	O	0.094514	-1.160745	0.190051
O23	O	-0.405403	-1.466235	-0.504500
O24	O	0.094597	-0.966235	-0.004500
O25	O	-0.523785	-1.660846	-0.846475
O26	O	-0.023785	-1.160846	-0.346475
O27	O	-0.523834	-1.466221	-0.651892
O28	O	-0.023834	-0.966221	-0.151892
O29	O	-0.405315	-1.808323	-0.846517
O30	O	0.094685	-1.308323	-0.346517
O31	O	-0.680288	-1.808090	-0.504462
O32	O	-0.180288	-1.308090	-0.004462
O33	O	-0.680225	-1.660713	-0.651870
O34	O	-0.180225	-1.160713	-0.151870
C35	C	-0.464615	-1.422681	-0.578193
C36	C	0.035385	-0.922681	-0.078193
C37	C	-0.464627	-1.289281	-0.578211
C38	C	0.035373	-0.789281	-0.078211
C39	C	-0.715256	-1.734418	-0.578184
C40	C	-0.215256	-1.234418	-0.078184
C41	C	-0.822470	-1.734490	-0.578209
C42	C	-0.322470	-1.234490	-0.078209
C43	C	-1.018765	-1.734616	-0.578284
C44	C	-0.518765	-1.234616	-0.078284
C45	C	-0.909533	-1.734543	-0.578246
C46	C	-0.409533	-1.234543	-0.078246
C47	C	-0.213049	-1.734626	-0.578280
C48	C	0.286951	-1.234626	-0.078280
C49	C	-0.105835	-1.734677	-0.578306
C50	C	0.394165	-1.234677	-0.078306
C51	C	-0.464535	-1.734597	-0.891261
C52	C	0.035465	-1.234597	-0.391261
C53	C	-0.464489	-1.734637	-1.024661
C54	C	0.035511	-1.234637	-0.524661
C55	C	-0.464659	-1.047548	-0.578237
C56	C	0.035341	-0.547548	-0.078237
C57	C	-0.464643	-1.180948	-0.578224
C58	C	0.035357	-0.680948	-0.078224
C59	C	-0.464679	-1.734483	-0.266394
C60	C	0.035321	-1.234483	0.233606
C61	C	-0.464453	-1.734676	-0.132994
C62	C	0.035547	-1.234676	0.367006
