data_functionalizedCrystal
_audit_creation_method	'MofGen! by Chris Wilmer'
_symmetry_space_group_name_H-M	'P1'
_symmetry_Int_Tables_number	1
_symmetry_cell_setting	triclinic
loop_
_symmetry_equiv_pos_as_xyz
  x,y,z
_cell_length_a	17.640280
_cell_length_b	17.639044
_cell_length_c	17.077396
_cell_angle_alpha	101.207368
_cell_angle_beta	78.774396
_cell_angle_gamma	70.392877
loop_
_atom_site_label
_atom_site_type_symbol
_atom_site_fract_x
_atom_site_fract_y
_atom_site_fract_z
Zn1	Zn	-0.582498	1.326108	-0.060236
Zn2	Zn	-0.082498	1.826108	0.439764
Zn3	Zn	-0.720291	1.353894	0.104252
Zn4	Zn	-0.220291	1.853894	0.604252
Zn5	Zn	-0.554696	1.188318	0.037719
Zn6	Zn	-0.054696	1.688318	0.537719
Zn7	Zn	-0.692423	1.216152	-0.060272
Zn8	Zn	-0.192423	1.716152	0.439728
O9	O	-0.637477	1.271118	0.005366
O10	O	-0.137477	1.771118	0.505366
O11	O	-0.624075	1.445105	-0.010557
O12	O	-0.124075	1.945105	0.489443
O13	O	-0.698351	1.331910	0.205274
O14	O	-0.198351	1.831910	0.705274
O15	O	-0.443078	1.183319	-0.003104
O16	O	0.056922	1.683319	0.496896
O17	O	-0.725310	1.465519	0.110291
O18	O	-0.225310	1.965519	0.610291
O19	O	-0.463504	1.284552	-0.075071
O20	O	0.036496	1.784552	0.424929
O21	O	-0.576690	1.210262	0.156393
O22	O	-0.076690	1.710262	0.656393
O23	O	-0.549668	1.076699	-0.003139
O24	O	-0.049668	1.576699	0.496861
O25	O	-0.677814	1.230758	-0.170116
O26	O	-0.177814	1.730758	0.329884
O27	O	-0.650856	1.097149	-0.075133
O28	O	-0.150856	1.597149	0.424867
O29	O	-0.597053	1.311542	-0.170089
O30	O	-0.097053	1.811542	0.329911
O31	O	-0.831900	1.358900	0.110256
O32	O	-0.331900	1.858900	0.610256
O33	O	-0.811426	1.257701	-0.010619
O34	O	-0.311426	1.757701	0.489381
C35	C	-0.594222	1.057025	-0.046360
C36	C	-0.094222	1.557025	0.453640
C37	C	-0.575737	0.965440	-0.068502
C38	C	-0.075737	1.465440	0.431498
C39	C	-0.851565	1.314359	0.057022
C40	C	-0.351565	1.814359	0.557022
C41	C	-0.943168	1.332932	0.079113
C42	C	-0.443168	1.832932	0.579113
C43	C	-0.497061	0.825741	-0.162682
C44	C	0.002939	1.325741	0.337318
C45	C	-0.514437	0.911801	-0.141869
C46	C	-0.014437	1.411801	0.358131
C47	C	-0.619682	0.933032	-0.015918
C48	C	-0.119682	1.433032	0.484082
C49	C	-0.602312	0.846972	-0.036718
C50	C	-0.102312	1.346972	0.463282
C51	C	-0.541001	0.793333	-0.110102
C52	C	-0.041001	1.293333	0.389898
C53	C	-0.646253	0.814563	0.015862
C54	C	-0.146253	1.314563	0.515862
C55	C	-0.628887	0.728511	-0.004940
C56	C	-0.128887	1.228511	0.495060
C57	C	-0.567581	0.674867	-0.078321
C58	C	-0.067581	1.174867	0.421679
C59	C	-0.523636	0.707280	-0.130903
C60	C	-0.023636	1.207280	0.369097
C61	C	-0.707568	0.868205	0.089242
C62	C	-0.207568	1.368205	0.589242
C63	C	-0.751508	0.835796	0.141822
C64	C	-0.251508	1.335796	0.641822
C65	C	-0.734139	0.749742	0.121024
C66	C	-0.234139	1.249742	0.621024
C67	C	-0.672832	0.696098	0.047643
C68	C	-0.172832	1.196098	0.547643
C69	C	-0.778084	0.717328	0.173606
C70	C	-0.278084	1.217328	0.673606
C71	C	-0.760718	0.631276	0.152805
C72	C	-0.260718	1.131276	0.652805
C73	C	-0.655467	0.610045	0.026841
C74	C	-0.155467	1.110045	0.526841
C75	C	-1.191233	1.130353	-0.162660
C76	C	-0.691233	1.630353	0.337340
C77	C	-1.277308	1.147807	-0.141877
C78	C	-0.777308	1.647807	0.358123
C79	C	-1.298575	1.253250	-0.016096
C80	C	-0.798575	1.753250	0.483904
C81	C	-1.212501	1.235808	-0.036870
C82	C	-0.712501	1.735808	0.463130
C83	C	-1.158836	1.174357	-0.110153
C84	C	-0.658836	1.674357	0.389847
C85	C	-1.180103	1.279812	0.015637
C86	C	-0.680103	1.779812	0.515637
C87	C	-1.094036	1.262367	-0.005134
C88	C	-0.594036	1.762367	0.494866
C89	C	-1.040365	1.200918	-0.078413
C90	C	-0.540365	1.700918	0.421587
C91	C	-1.072768	1.156912	-0.130924
C92	C	-0.572768	1.656912	0.369076
C93	C	-1.233769	1.341258	0.088922
C94	C	-0.733769	1.841258	0.588922
C95	C	-1.201372	1.385262	0.141429
C96	C	-0.701372	1.885262	0.641429
C97	C	-1.115304	1.367822	0.120656
C98	C	-0.615304	1.867822	0.620656
C99	C	-1.061633	1.306373	0.047377
C100	C	-0.561633	1.806373	0.547377
C101	C	-1.082901	1.411828	0.173167
C102	C	-0.582901	1.911828	0.673167
C103	C	-0.996833	1.394383	0.152396
C104	C	-0.496833	1.894383	0.652396
C105	C	-0.975565	1.288928	0.026606
C106	C	-0.475565	1.788928	0.526606
C107	C	-0.422558	1.227731	-0.046504
C108	C	0.077442	1.727731	0.453496
C109	C	-0.330972	1.209242	-0.068608
C110	C	0.169028	1.709242	0.431392
C111	C	-0.637426	1.271156	-0.199381
C112	C	-0.137426	1.771156	0.300619
C113	C	-0.637405	1.271172	-0.286632
C114	C	-0.137405	1.771172	0.213368
C115	C	-0.680902	1.486047	0.057293
C116	C	-0.180902	1.986047	0.557293
C117	C	-0.699407	1.577637	0.079421
C118	C	-0.199407	2.077637	0.579421
C119	C	-0.595348	1.313237	-0.327610
C120	C	-0.095348	1.813237	0.172390
C121	C	-0.595323	1.313241	-0.409595
C122	C	-0.095323	1.813241	0.090405
C123	C	-0.637359	1.271185	-0.450598
C124	C	-0.137359	1.771185	0.049402
C125	C	-0.679417	1.229114	-0.409615
C126	C	-0.179417	1.729114	0.090385
C127	C	-0.679437	1.229106	-0.327634
C128	C	-0.179437	1.729106	0.172366
C129	C	-0.679374	1.229138	-0.580489
C130	C	-0.179374	1.729138	-0.080489
C131	C	-0.679356	1.229148	-0.662476
C132	C	-0.179356	1.729148	-0.162476
C133	C	-0.595260	1.313273	-0.662450
C134	C	-0.095260	1.813273	-0.162450
C135	C	-0.595280	1.313264	-0.580469
C136	C	-0.095280	1.813264	-0.080469
C137	C	-0.637339	1.271195	-0.539491
C138	C	-0.137339	1.771195	-0.039491
C139	C	-0.637478	1.271116	0.209313
C140	C	-0.137478	1.771116	0.709313
C141	C	-0.637299	1.271213	0.296546
C142	C	-0.137299	1.771213	0.796546
H143	H	-0.605532	0.566367	-0.032908
H144	H	-0.105532	1.066367	0.467092
H145	H	-1.245077	1.435293	0.201098
H146	H	-0.745077	1.935293	0.701098
H147	H	-0.713640	1.194868	-0.443008
H148	H	-0.213640	1.694868	0.056992
H149	H	-0.561079	1.347497	-0.442955
H150	H	-0.061079	1.847497	0.057045
H151	H	-0.713608	1.194865	-0.547134
H152	H	-0.213608	1.694865	-0.047134
H153	H	-0.970456	1.430215	0.195154
H154	H	-0.470456	1.930215	0.695154
H155	H	-0.721692	0.938271	0.106185
H156	H	-0.221692	1.438271	0.606185
H157	H	-0.561120	1.347487	-0.294230
H158	H	-0.061120	1.847487	0.205770
H159	H	-1.303683	1.111979	-0.184648
H160	H	-0.803683	1.611979	0.315352
H161	H	-0.801429	0.879481	0.201570
H162	H	-0.301429	1.379481	0.701570
H163	H	-0.931869	1.238895	-0.033073
H164	H	-0.431869	1.738895	0.466927
H165	H	-0.713584	1.194899	-0.695859
H166	H	-0.213584	1.694899	-0.195859
H167	H	-0.478648	0.938182	-0.184689
H168	H	0.021352	1.438182	0.315311
H169	H	-0.561012	1.347526	-0.695819
H170	H	-0.061012	1.847526	-0.195819
H171	H	-0.828008	0.761015	0.233351
H172	H	-0.328008	1.261015	0.733351
H173	H	-0.713674	1.194842	-0.294275
H174	H	-0.213674	1.694842	0.205725
H175	H	-0.796501	0.604889	0.195620
H176	H	-0.296501	1.104889	0.695620
H177	H	-0.970282	1.186710	-0.095319
H178	H	-0.470282	1.686710	0.404681
H179	H	-0.473701	0.663602	-0.190653
H180	H	0.026299	1.163602	0.309347
H181	H	-0.553445	0.604798	-0.095258
H182	H	-0.053445	1.104798	0.404742
H183	H	-0.447126	0.782062	-0.222431
H184	H	0.052874	1.282062	0.277569
H185	H	-1.342280	1.303281	0.043573
H186	H	-0.842280	1.803281	0.543573
H187	H	-1.303851	1.355461	0.105830
H188	H	-0.803851	1.855461	0.605830
H189	H	-1.126606	1.461854	0.232838
H190	H	-0.626606	1.961854	0.732838
H191	H	-1.029072	1.106879	-0.190603
H192	H	-0.529072	1.606879	0.309397
H193	H	-0.669603	0.976717	0.043830
H194	H	-0.169603	1.476717	0.543830
H195	H	-1.147537	1.080320	-0.222339
H196	H	-0.647537	1.580320	0.277661
H197	H	-0.561056	1.347516	-0.547084
H198	H	-0.061056	1.847516	-0.047084
