data_functionalizedCrystal
_audit_creation_method	'MofGen! by Chris Wilmer'
_symmetry_space_group_name_H-M	'P1'
_symmetry_Int_Tables_number	1
_symmetry_cell_setting	triclinic
loop_
_symmetry_equiv_pos_as_xyz
  x,y,z
_cell_length_a	12.759401
_cell_length_b	17.640280
_cell_length_c	17.639309
_cell_angle_alpha	70.343903
_cell_angle_beta	101.195257
_cell_angle_gamma	78.801088
loop_
_atom_site_label
_atom_site_type_symbol
_atom_site_fract_x
_atom_site_fract_y
_atom_site_fract_z
Zn1	Zn	1.561685	-0.233835	-0.399665
Zn2	Zn	1.650628	-0.399513	-0.234022
Zn3	Zn	1.430520	-0.261729	-0.261868
Zn4	Zn	1.430490	-0.371601	-0.371809
O5	O	1.518331	-0.316670	-0.316841
O6	O	1.720506	-0.255819	-0.377697
O7	O	1.658666	-0.404592	-0.122383
O8	O	1.410709	-0.142710	-0.303459
O9	O	1.785852	-0.377543	-0.256000
O10	O	1.507076	-0.122216	-0.404698
O11	O	1.496953	-0.303362	-0.142841
O12	O	1.283494	-0.276297	-0.276447
O13	O	1.410658	-0.329971	-0.490837
O14	O	1.283472	-0.357019	-0.357220
O15	O	1.507047	-0.228754	-0.511303
O16	O	1.658637	-0.511130	-0.228988
O17	O	1.496902	-0.490623	-0.330220
C18	C	1.245362	-0.316657	-0.316833
C19	C	1.128585	-0.316667	-0.316845
C20	C	1.587441	-0.530774	-0.273578
C21	C	1.617093	-0.622363	-0.255097
C22	C	1.073795	-0.358801	-0.358799
C23	C	0.964071	-0.358810	-0.358806
C24	C	0.963940	-0.274549	-0.274898
C25	C	1.073659	-0.274536	-0.274896
C26	C	1.128721	-0.400932	-0.400748
C27	C	1.073931	-0.443070	-0.442705
C28	C	0.964207	-0.443079	-0.442712
C29	C	0.909274	-0.400949	-0.400762
C30	C	1.293398	-0.870403	-0.457538
C31	C	1.321271	-0.956470	-0.440146
C32	C	1.489734	-0.977737	-0.334840
C33	C	1.461878	-0.891669	-0.352226
C34	C	1.363707	-0.838008	-0.413575
C35	C	1.532187	-0.859275	-0.308263
C36	C	1.504329	-0.773215	-0.325645
C37	C	1.406162	-0.719550	-0.386989
C38	C	1.335849	-0.751949	-0.430956
C39	C	1.630353	-0.912938	-0.246911
C40	C	1.700663	-0.880544	-0.202948
C41	C	1.672809	-0.794482	-0.220333
C42	C	1.574642	-0.740816	-0.281678
C43	C	1.743122	-0.762083	-0.176366
C44	C	1.715264	-0.676023	-0.193748
C45	C	1.546784	-0.654757	-0.299059
C46	C	1.792366	-0.316683	-0.316850
C47	C	1.909143	-0.316689	-0.316853
C48	C	1.448928	-0.273137	-0.531811
C49	C	1.419352	-0.254586	-0.623418
C50	C	1.448974	-0.101726	-0.360292
C51	C	1.419419	-0.010130	-0.378808
C52	C	1.293479	-0.175741	-0.763186
C53	C	1.321279	-0.193178	-0.677106
C54	C	1.489660	-0.298585	-0.655795
C55	C	1.461871	-0.281160	-0.741875
C56	C	1.363779	-0.219736	-0.795564
C57	C	1.532171	-0.325155	-0.774253
C58	C	1.504387	-0.307728	-0.860326
C59	C	1.406301	-0.246305	-0.914020
C60	C	1.335995	-0.202308	-0.881637
C61	C	1.630266	-0.386575	-0.720563
C62	C	1.700567	-0.430570	-0.752941
C63	C	1.672779	-0.413147	-0.839015
C64	C	1.574694	-0.351724	-0.892709
C65	C	1.743086	-0.457143	-0.871398
C66	C	1.715301	-0.439716	-0.957471
C67	C	1.546909	-0.334297	-0.978782
C68	C	1.587506	-0.359973	-0.102720
C69	C	1.617210	-0.378292	-0.011160
H70	H	1.218065	-0.400932	-0.400745
Br71	Br	1.148475	-0.500235	-0.499643
Br72	Br	1.413561	-0.581921	-0.382330
Br73	Br	1.225827	-1.000433	-0.499804
H74	H	0.919596	-0.477383	-0.476882
Br75	Br	1.368595	-0.222644	-1.030837
H76	H	1.213463	-0.826708	-0.507500
Br77	Br	1.833890	-0.953375	-0.119692
H78	H	1.264028	-0.157344	-0.650749
Br79	Br	1.202883	-0.118931	-0.954512
H80	H	1.383476	-0.649476	-0.401134
H81	H	1.823046	-0.805787	-0.126410
Br82	Br	1.810673	-0.632057	-0.134073
H83	H	1.118266	-0.240220	-0.240741
Br84	Br	1.202626	-0.679114	-0.514227
H85	H	1.569662	-1.021439	-0.284888
Br86	Br	1.833693	-0.513921	-0.680073
H87	H	0.819925	-0.400951	-0.400779
Br88	Br	1.668191	-1.029728	-0.223352
Br89	Br	1.622786	-0.381937	-0.582927
Br90	Br	0.889388	-0.217378	-0.217969
Br91	Br	1.160367	-0.092363	-0.836061
H92	H	1.467031	-0.284281	-1.022499
Br93	Br	1.876218	-0.540486	-0.798529
Br94	Br	1.810718	-0.499415	-1.001420
H95	H	1.652887	-0.400760	-0.650478
