data_functionalizedCrystal
_audit_creation_method	'MofGen! by Chris Wilmer'
_symmetry_space_group_name_H-M	'P1'
_symmetry_Int_Tables_number	1
_symmetry_cell_setting	triclinic
loop_
_symmetry_equiv_pos_as_xyz
  x,y,z
_cell_length_a	16.109301
_cell_length_b	22.610064
_cell_length_c	16.109301
_cell_angle_alpha	90.009148
_cell_angle_beta	96.538519
_cell_angle_gamma	89.999060
loop_
_atom_site_label
_atom_site_type_symbol
_atom_site_fract_x
_atom_site_fract_y
_atom_site_fract_z
O1	O	1.103131	0.049149	-0.106849
O2	O	0.861069	0.049159	-0.120148
O3	O	0.988749	0.049148	0.007533
O4	O	0.975450	0.049160	-0.234529
O5	O	0.988741	-0.049222	0.007500
O6	O	0.861060	-0.049211	-0.120181
O7	O	1.103122	-0.049220	-0.106882
Zn8	Zn	0.982090	-0.064834	-0.113536
Zn9	Zn	0.982101	0.064772	-0.113493
O10	O	0.975441	-0.049209	-0.234562
C11	C	0.830090	-0.000025	-0.119626
C12	C	0.737794	-0.000021	-0.118011
N13	N	0.982088	-0.153286	-0.113565
C14	C	0.515522	-0.000024	-0.190018
C15	C	0.428801	-0.000028	-0.188494
C16	C	0.448676	-0.000034	-0.037006
C17	C	0.535394	-0.000034	-0.038530
C18	C	0.568815	-0.000026	-0.115039
C19	C	0.395376	-0.000030	-0.111990
C20	C	0.301350	-0.000034	-0.110337
C21	C	0.662847	-0.000023	-0.116693
C22	C	0.925532	-0.438129	-0.170033
C23	C	0.925530	-0.376209	-0.170042
O24	O	0.877419	-0.344186	-0.218089
N25	N	0.982082	-0.345238	-0.113532
C26	C	1.038634	-0.376190	-0.057005
O27	O	1.086735	-0.344161	-0.008939
C28	C	1.038632	-0.438109	-0.056994
C29	C	0.982082	-0.469077	-0.113513
C30	C	0.868986	-0.469097	-0.226547
C31	C	0.868990	-0.531013	-0.226540
C32	C	0.925539	-0.561960	-0.170019
C33	C	0.982085	-0.530993	-0.113505
C34	C	1.095179	-0.469060	-0.000463
C35	C	1.095172	-0.530983	-0.000456
C36	C	1.038622	-0.561951	-0.056975
C37	C	1.038638	-0.623856	-0.056977
N38	N	0.982086	-0.654827	-0.113487
C39	C	0.925537	-0.623879	-0.170008
C40	C	1.038634	-0.246157	-0.057032
C41	C	1.038641	-0.184239	-0.057047
C42	C	0.925535	-0.184262	-0.170083
C43	C	0.925533	-0.246181	-0.170071
C44	C	0.982082	-0.277128	-0.113542
C45	C	0.925549	-0.753907	-0.169989
C46	C	0.925560	-0.815828	-0.169979
C47	C	1.038662	-0.815799	-0.056940
C48	C	1.038654	-0.753883	-0.056953
C49	C	0.982091	-0.722939	-0.113480
O50	O	1.086722	-0.655918	-0.008952
O51	O	0.877436	-0.655916	-0.218058
C52	C	1.134101	-0.000035	-0.107404
C53	C	1.226397	-0.000035	-0.109019
C54	C	0.988206	-0.000037	0.038491
C55	C	0.986591	-0.000038	0.130786
N56	N	0.982109	0.153225	-0.113458
C57	C	0.975984	-0.000023	-0.265521
C58	C	0.977600	-0.000018	-0.357816
C59	C	1.058599	-0.000032	0.353059
C60	C	1.057075	-0.000027	0.439779
C61	C	0.905586	-0.000023	0.419905
C62	C	0.907111	-0.000024	0.333186
C63	C	0.983620	-0.000031	0.299766
C64	C	0.980571	-0.000025	0.473205
C65	C	0.978918	-0.000020	0.567231
C66	C	0.985273	-0.000035	0.205734
H67	H	0.385413	-0.000028	-0.249550
O68	O	0.416071	-0.000010	0.037239
C69	C	0.328102	-0.000023	0.022509
H70	H	0.307719	0.018603	-0.042373
H71	H	0.301493	0.028536	0.071470
H72	H	0.303962	-0.047215	0.026519
O73	O	0.870631	-0.154102	-0.224907
C74	C	0.882779	-0.092811	-0.212805
H75	H	0.913874	-0.084349	-0.146714
H76	H	0.819821	-0.069274	-0.222035
H77	H	0.924463	-0.075250	-0.259878
H78	H	0.578788	-0.000037	0.022530
O79	O	0.813972	-0.560999	-0.281470
C80	C	0.764079	-0.520395	-0.331364
H81	H	0.763162	-0.476253	-0.297275
H82	H	0.697678	-0.538279	-0.344024
H83	H	0.791051	-0.513820	-0.393138
H84	H	0.822933	-0.443905	-0.272573
O85	O	1.093548	-0.845806	-0.001919
C86	C	1.080032	-0.830673	0.080383
H87	H	1.048000	-0.785710	0.080283
H88	H	1.142529	-0.828560	0.121322
H89	H	1.038639	-0.865511	0.106096
H90	H	0.879510	-0.841040	-0.216006
O91	O	0.547888	0.000057	-0.264388
C92	C	0.520667	0.051011	-0.310072
H93	H	0.460531	0.067996	-0.287421
H94	H	0.508606	0.039553	-0.379314
H95	H	0.570851	0.086685	-0.300425
H96	H	1.084698	-0.159029	-0.011033
H97	H	0.879485	-0.271391	-0.216093
O98	O	1.093657	-0.276125	-0.002091
C99	C	1.143551	-0.235505	0.047791
H100	H	1.144472	-0.191377	0.013689
H101	H	1.209951	-0.253390	0.060458
H102	H	1.116579	-0.228904	0.109562
O103	O	0.870722	-0.723787	-0.224937
C104	C	0.915226	-0.687994	-0.276266
H105	H	0.980287	-0.678704	-0.243171
H106	H	0.880514	-0.644458	-0.289426
H107	H	0.920864	-0.711874	-0.337706
H108	H	0.843295	-0.000018	0.447127
O109	O	1.150140	-0.439080	0.054525
C110	C	1.200053	-0.479685	0.104396
H111	H	1.165960	-0.523820	0.105335
H112	H	1.212751	-0.461792	0.170793
H113	H	1.261807	-0.486277	0.077389
H114	H	0.846050	-0.000021	0.289792
H115	H	1.141220	-0.556177	0.045579
O116	O	1.093529	-0.723692	-0.002125
C117	C	1.049114	-0.687824	0.049208
H118	H	0.983997	-0.678593	0.016208
H119	H	1.083819	-0.644264	0.062186
H120	H	1.043613	-0.711609	0.110736
O121	O	1.132989	-0.000005	0.320731
C122	C	1.198839	-0.000017	0.386369
H123	H	1.175544	0.018605	0.445276
H124	H	1.252252	0.028544	0.368271
H125	H	1.221970	-0.047209	0.398637
O126	O	1.129888	0.000077	0.491581
C127	C	1.133535	0.051018	0.542359
H128	H	1.091013	0.086626	0.510593
H129	H	1.200510	0.068117	0.552130
H130	H	1.112033	0.039503	0.605411
