data_functionalizedCrystal
_audit_creation_method	'MofGen! by Chris Wilmer'
_symmetry_space_group_name_H-M	'P1'
_symmetry_Int_Tables_number	1
_symmetry_cell_setting	triclinic
loop_
_symmetry_equiv_pos_as_xyz
  x,y,z
_cell_length_a	13.032721
_cell_length_b	13.032831
_cell_length_c	16.959447
_cell_angle_alpha	97.186980
_cell_angle_beta	97.151188
_cell_angle_gamma	89.097115
loop_
_atom_site_label
_atom_site_type_symbol
_atom_site_fract_x
_atom_site_fract_y
_atom_site_fract_z
Zn1	Zn	0.609369	1.520195	0.651222
Zn2	Zn	1.109369	2.020195	1.151222
Zn3	Zn	0.781348	1.498246	0.533456
Zn4	Zn	1.281348	1.998246	1.033456
Zn5	Zn	0.587538	1.348224	0.500471
Zn6	Zn	1.087538	1.848224	1.000471
Zn7	Zn	0.759416	1.326343	0.647002
Zn8	Zn	1.259416	1.826343	1.147002
O9	O	0.684418	1.423252	0.583038
O10	O	1.184418	1.923252	1.083038
O11	O	0.650497	1.661195	0.651171
O12	O	1.150497	2.161195	1.151171
O13	O	0.755682	1.478316	0.418470
O14	O	1.255682	1.978316	0.918470
O15	O	0.446529	1.389379	0.508430
O16	O	0.946529	1.889379	1.008430
O17	O	0.776850	1.645069	0.564648
O18	O	1.276850	2.145069	1.064648
O19	O	0.462567	1.515726	0.619186
O20	O	0.962567	2.015726	1.119186
O21	O	0.613290	1.368096	0.394237
O22	O	1.113290	1.868096	0.894237
O23	O	0.592023	1.201410	0.504338
O24	O	1.092023	1.701410	1.004338
O25	O	0.739469	1.352087	0.758171
O26	O	1.239469	1.852087	1.258171
O27	O	0.718301	1.185334	0.611994
O28	O	1.218301	1.685334	1.111994
O29	O	0.629230	1.494509	0.761272
O30	O	1.129230	1.994509	1.261272
O31	O	0.922344	1.457099	0.560556
O32	O	1.422344	1.957099	1.060556
O33	O	0.906230	1.330804	0.643978
O34	O	1.406230	1.830804	1.143978
C35	C	0.650414	1.156057	0.554129
C36	C	1.150414	1.656057	1.054129
C37	C	0.635891	1.041746	0.541783
C38	C	1.135891	1.541746	1.041783
C39	C	0.416192	1.457442	0.560600
C40	C	0.916192	1.957442	1.060600
C41	C	0.301890	1.472011	0.551038
C42	C	0.801890	1.972011	1.051038
C43	C	0.691997	0.982844	0.589481
C44	C	1.191997	1.482844	1.089481
C45	C	0.676989	0.864698	0.576722
C46	C	1.176989	1.364698	1.076722
C47	C	0.951604	1.389223	0.605409
C48	C	1.451604	1.889223	1.105409
C49	C	1.065919	1.374760	0.615016
C50	C	1.565919	1.874760	1.115016
C51	C	1.124830	1.430855	0.578065
C52	C	1.624830	1.930855	1.078065
C53	C	1.242981	1.415908	0.587994
C54	C	1.742981	1.915908	1.087994
C55	C	0.718555	1.691490	0.612059
C56	C	1.218555	2.191490	1.112059
C57	C	0.733102	1.805798	0.624427
C58	C	1.233102	2.305798	1.124427
C59	C	0.684338	1.423306	0.789203
C60	C	1.184338	1.923306	1.289203
C61	C	0.684304	1.423328	0.877059
C62	C	1.184304	1.923328	1.377059
C63	C	0.684430	1.423267	0.377674
C64	C	1.184430	1.923267	0.877674
C65	C	0.684200	1.423480	0.289816
C66	C	1.184200	1.923480	0.789816
C67	C	0.741607	1.349313	1.246927
C68	C	1.241607	1.849313	1.746927
C69	C	0.626815	1.497618	1.250151
C70	C	1.126815	1.997618	1.750151
C71	C	0.626833	1.497588	1.167604
C72	C	1.126833	1.997588	1.667604
C73	C	0.684241	1.423420	1.124715
C74	C	1.184241	1.923420	1.624715
C75	C	0.741630	1.349282	1.164373
C76	C	1.241630	1.849282	1.664373
C77	C	0.569453	1.571730	1.127941
C78	C	1.069453	2.071730	1.627941
C79	C	0.569470	1.571704	1.045389
C80	C	1.069470	2.071704	1.545389
C81	C	0.626873	1.497531	1.002497
C82	C	1.126873	1.997531	1.502497
C83	C	0.684263	1.423389	1.042160
C84	C	1.184263	1.923389	1.542160
C85	C	0.741671	1.349221	0.999271
C86	C	1.241671	1.849221	1.499271
C87	C	0.799056	1.275074	1.038932
C88	C	1.299056	1.775074	1.538932
C89	C	0.799032	1.275109	1.121481
C90	C	1.299032	1.775109	1.621481
C91	C	0.626896	1.497496	0.919948
C92	C	1.126896	1.997496	1.419948
C93	C	0.741693	1.349191	0.916717
C94	C	1.241693	1.849191	1.416717
H95	H	0.751138	1.019883	0.639766
H96	H	1.251138	1.519883	1.139766
H97	H	0.792246	0.842831	0.674717
H98	H	1.292246	1.342831	1.174717
Br99	Br	0.578393	0.802982	0.492914
Br100	Br	1.078393	1.302982	0.992914
H101	H	1.102955	1.315672	0.654004
H102	H	1.602955	1.815672	1.154004
H103	H	0.788326	1.288942	1.279222
H104	H	1.288326	1.788942	1.779222
H105	H	1.264861	1.531111	0.512053
H106	H	1.764861	2.031111	1.012053
Br107	Br	0.819598	1.248521	0.858515
Br108	Br	1.319598	1.748521	1.358515
H109	H	0.580083	1.558007	1.285077
H110	H	1.080083	2.058007	1.785077
Br111	Br	0.537300	0.980026	0.457978
Br112	Br	1.037300	1.480026	0.957978
H113	H	1.087798	1.489951	0.539083
H114	H	1.587798	1.989951	1.039083
H115	H	0.522722	1.632119	1.162868
H116	H	1.022722	2.132119	1.662868
Br117	Br	0.876973	1.174429	0.980717
Br118	Br	1.376973	1.674429	1.480717
H119	H	1.280012	1.356816	0.626985
H120	H	1.780012	1.856816	1.126985
H121	H	0.522743	1.632078	1.013104
H122	H	1.022743	2.132078	1.513104
H123	H	0.845756	1.214745	1.153781
H124	H	1.345756	1.714745	1.653781
Br125	Br	0.549034	1.598124	0.866128
Br126	Br	1.049034	2.098124	1.366128
