data_functionalizedCrystal
_audit_creation_method	'MofGen! by Chris Wilmer'
_symmetry_space_group_name_H-M	'P1'
_symmetry_Int_Tables_number	1
_symmetry_cell_setting	triclinic
loop_
_symmetry_equiv_pos_as_xyz
  x,y,z
_cell_length_a	16.992694
_cell_length_b	15.538191
_cell_length_c	15.455313
_cell_angle_alpha	91.603349
_cell_angle_beta	87.142206
_cell_angle_gamma	68.970158
loop_
_atom_site_label
_atom_site_type_symbol
_atom_site_fract_x
_atom_site_fract_y
_atom_site_fract_z
O1	O	0.989241	0.191780	-0.072014
O2	O	0.761568	0.189633	-0.072040
O3	O	0.919723	0.056913	-0.072026
O4	O	0.831085	0.324499	-0.072028
O5	O	0.910688	0.064469	0.072235
O6	O	0.752533	0.197189	0.072222
O7	O	0.980206	0.199336	0.072247
Cu8	Cu	0.865545	0.198952	0.085407
Cu9	Cu	0.876229	0.190016	-0.085199
O10	O	0.822051	0.332055	0.072233
C11	C	0.728624	0.190651	0.000088
C12	C	0.643924	0.182416	0.000078
C13	C	0.571070	0.261869	0.000078
C14	C	0.491487	0.254127	0.000090
C15	C	0.484758	0.166930	0.000095
C16	C	0.557620	0.087471	0.000098
C17	C	0.637201	0.095214	0.000092
C18	C	0.250294	0.134837	0.000119
C19	C	0.170704	0.127099	0.000122
C20	C	0.104576	0.293756	0.000116
C21	C	0.184162	0.301491	0.000105
C22	C	0.257016	0.222033	0.000112
N23	N	0.403412	0.159014	0.000105
N24	N	0.338360	0.229950	0.000108
C25	C	0.924480	0.026294	0.000103
C26	C	0.952104	-0.076201	0.000097
C27	C	0.677671	-0.384652	0.000085
C28	C	0.703646	-0.480962	0.000090
C29	C	0.849754	-0.492404	0.000106
C30	C	0.823791	-0.396094	0.000097
C31	C	0.737748	-0.342224	0.000087
C32	C	0.883868	-0.353667	0.000099
C33	C	0.857907	-0.257364	0.000095
C34	C	0.771868	-0.203488	0.000088
C35	C	0.711786	-0.245922	0.000083
C36	C	0.969911	-0.407537	0.000115
C37	C	1.029988	-0.365110	0.000117
C38	C	1.004027	-0.268806	0.000106
C39	C	0.917988	-0.214930	0.000099
C40	C	1.064108	-0.226373	0.000111
C41	C	1.038146	-0.130070	0.000107
C42	C	0.892026	-0.118628	0.000095
C43	C	1.013150	0.198318	0.000118
C44	C	1.097851	0.206553	0.000122
C45	C	0.817294	0.362675	0.000103
C46	C	0.789671	0.465169	0.000103
N47	N	0.858036	0.205237	0.205401
N48	N	0.883746	0.183724	-0.205194
C49	C	0.925237	0.148877	0.250801
C50	C	0.919563	0.153639	0.341609
C51	C	0.846689	0.214767	0.387015
C52	C	0.779482	0.271130	0.341608
C53	C	0.785154	0.266362	0.250803
C54	C	0.822212	0.235320	0.658594
C55	C	0.816545	0.240085	0.749406
C56	C	0.956626	0.122592	0.749400
C57	C	0.962294	0.117834	0.658593
C58	C	0.895085	0.174194	0.613194
N59	N	0.840889	0.219638	0.479834
N60	N	0.900884	0.169317	0.520376
H61	H	0.189632	0.372496	0.000090
H62	H	1.100044	-0.408983	0.000128
C63	C	0.769702	0.003360	-0.074070
C64	C	0.717289	0.007879	0.000089
H65	H	0.819146	-0.050556	-0.074065
H66	H	0.740428	0.001160	-0.124367
H67	H	0.785089	0.056405	-0.074064
H68	H	0.701896	-0.045163	0.000080
H69	H	0.746568	0.010071	0.050398
C70	C	1.017472	-0.008829	0.222905
C71	C	1.005345	0.081660	0.200917
H72	H	1.066927	-0.050333	0.192112
H73	H	1.023692	-0.014027	0.283480
H74	H	0.970025	-0.023499	0.208019
H75	H	1.052790	0.096333	0.215809
H76	H	0.999132	0.086862	0.140328
H77	H	0.607606	-0.340788	0.000071
H78	H	0.730432	0.312256	0.213839
C79	C	0.666522	0.285587	0.777400
C80	C	0.736434	0.307268	0.799325
H81	H	0.617070	0.327056	0.808225
H82	H	0.660276	0.290825	0.716831
H83	H	0.674802	0.224177	0.792289
H84	H	0.728156	0.368676	0.784431
H85	H	0.742681	0.302038	0.859908
H86	H	0.767488	0.281212	0.621638
H87	H	0.432169	0.318826	0.000089
C88	C	0.584847	-0.053076	0.074264
C89	C	0.550228	-0.008379	0.000104
H90	H	0.580280	-0.112249	0.074266
H91	H	0.642662	-0.059834	0.074256
H92	H	0.555065	-0.017464	0.124565
H93	H	0.580014	-0.043988	-0.050198
H94	H	0.492402	-0.001626	0.000104
C95	C	1.086658	-0.551718	0.000143
C96	C	0.998452	-0.513396	0.000123
H97	H	1.104276	-0.617070	0.000153
H98	H	1.110915	-0.534686	-0.050158
H99	H	1.104603	-0.529398	0.050456
H100	H	0.980507	-0.535711	-0.050194
H101	H	0.974186	-0.530436	0.050429
H102	H	0.576539	0.332874	0.000072
C103	C	1.201295	-0.269672	-0.074030
C104	C	1.158684	-0.285591	0.000126
H105	H	1.259683	-0.306227	-0.074016
H106	H	1.178684	-0.285750	-0.124328
H107	H	1.194426	-0.206244	-0.074027
H108	H	1.165548	-0.349019	0.000121
H109	H	1.181302	-0.269519	0.050438
C110	C	0.244061	-0.036864	0.000137
C111	C	0.163310	0.031245	0.000130
H112	H	0.239492	-0.096036	0.000145
H113	H	0.276872	-0.033019	-0.050166
H114	H	0.270577	-0.027737	0.050449
H115	H	0.136795	0.022122	-0.050185
H116	H	0.130486	0.027397	0.050439
H117	H	1.011344	0.076706	0.786372
H118	H	0.045251	0.358447	0.000112
H119	H	0.309604	0.070135	0.000125
C120	C	0.965587	0.034741	0.443725
C121	C	0.993438	0.091686	0.391506
H122	H	1.011200	-0.003512	0.474522
H123	H	0.921385	0.071821	0.483763
H124	H	0.945300	-0.002719	0.408299
H125	H	1.013719	0.129150	0.426933
H126	H	1.037655	0.054601	0.351463
C127	C	0.556601	-0.459975	0.000062
C128	C	0.637602	-0.527598	0.000075
H129	H	0.515831	-0.488769	0.000048
H130	H	0.546362	-0.420019	0.050367
H131	H	0.552673	-0.425285	-0.050248
H132	H	0.641532	-0.562284	0.050389
H133	H	0.647844	-0.567570	-0.050235
C134	C	1.100183	0.002166	0.667712
C135	C	1.042396	0.050635	0.608685
H136	H	1.149633	-0.039322	0.636899
H137	H	1.114650	0.044512	0.703118
H138	H	1.075459	-0.031574	0.703140
H139	H	1.067119	0.084381	0.573261
H140	H	1.027930	0.008284	0.573264
C141	C	0.708591	0.330615	0.480808
C142	C	0.699378	0.338325	0.391516
H143	H	0.659140	0.372106	0.511616
H144	H	0.716842	0.269220	0.495695
H145	H	0.756034	0.345305	0.495669
H146	H	0.651939	0.323629	0.376654
H147	H	0.691118	0.399734	0.376623
H148	H	0.821962	-0.074764	0.000081
H149	H	0.750731	-0.125072	0.000089
H150	H	0.641722	-0.202058	0.000069
H151	H	0.919810	-0.536277	0.000117
H152	H	1.087068	-0.095525	0.000110
