data_functionalizedCrystal
_audit_creation_method	'MofGen! by Chris Wilmer'
_symmetry_space_group_name_H-M	'P1'
_symmetry_Int_Tables_number	1
_symmetry_cell_setting	triclinic
loop_
_symmetry_equiv_pos_as_xyz
  x,y,z
_cell_length_a	8.497374
_cell_length_b	19.077105
_cell_length_c	19.077068
_cell_angle_alpha	89.884684
_cell_angle_beta	92.284024
_cell_angle_gamma	92.300019
loop_
_atom_site_label
_atom_site_type_symbol
_atom_site_fract_x
_atom_site_fract_y
_atom_site_fract_z
Zn1	Zn	1.016648	1.062860	0.323110
Zn2	Zn	0.762970	1.058079	0.440586
Zn3	Zn	0.741875	0.945387	0.318369
Zn4	Zn	1.015701	0.940595	0.435851
O5	O	0.884299	1.001730	0.379479
O6	O	0.992222	1.160556	0.342659
O7	O	0.539410	1.043135	0.424372
O8	O	0.769893	0.964977	0.220667
O9	O	0.805846	1.157044	0.428968
O10	O	0.971767	1.051283	0.224150
O11	O	0.523911	0.960341	0.334579
O12	O	0.768974	0.846421	0.329988
O13	O	1.236588	0.956809	0.420898
O14	O	0.970152	0.842901	0.416301
O15	O	1.237285	1.046636	0.338067
O16	O	0.804927	1.038488	0.538289
O17	O	0.990607	0.952173	0.534810
C18	C	0.867172	0.819165	0.372117
C19	C	0.859884	0.741062	0.368984
C20	C	0.961050	0.702552	0.412519
C21	C	0.954209	0.629166	0.409566
C22	C	0.846193	0.594292	0.363082
C23	C	0.745023	0.632808	0.319542
C24	C	0.751873	0.706192	0.322492
C25	C	0.814499	0.375011	0.349430
C26	C	0.807654	0.301621	0.346485
C27	C	1.016843	0.297985	0.436509
C28	C	1.023677	0.371371	0.439457
C29	C	0.922512	0.409880	0.395915
N30	N	0.839195	0.519280	0.360064
N31	N	0.929519	0.484891	0.398930
C32	C	0.899989	0.994311	0.562047
C33	C	0.906761	0.991201	0.640152
C34	C	1.295778	1.001725	0.379480
C35	C	1.474423	1.001726	0.379487
C36	C	0.901493	1.185009	0.386870
C37	C	0.908820	1.263111	0.390020
C38	C	0.868583	1.009198	0.196199
C39	C	0.861886	1.012380	0.118097
C40	C	0.813355	1.034715	0.678636
C41	C	0.819734	1.031794	0.752025
C42	C	0.919510	0.985356	0.786928
C43	C	1.012926	0.941841	0.748439
C44	C	1.006555	0.944765	0.675052
C45	C	0.948930	0.971789	1.006221
C46	C	0.955291	0.968866	1.079613
C47	C	0.762100	1.058821	1.083193
C48	C	0.755730	1.061739	1.009804
C49	C	0.849152	1.018226	0.971322
N50	N	0.926029	0.982368	0.861943
N51	N	0.842641	1.021218	0.896309
H52	H	1.111631	0.399760	0.477312
O53	O	1.065763	0.736453	0.457750
C54	C	0.983646	0.777069	0.504769
H55	H	0.857680	0.754774	0.508135
H56	H	1.045240	0.775707	0.558919
H57	H	0.981617	0.833568	0.485276
H58	H	0.732099	1.072527	0.650222
O59	O	1.052458	0.923834	1.113494
C60	C	1.209591	0.939842	1.096129
H61	H	1.221160	0.996779	1.078164
H62	H	1.291126	0.931844	1.144143
H63	H	1.243549	0.903848	1.052042
H64	H	1.099208	0.266623	0.471957
H65	H	1.082618	0.909333	0.643719
H66	H	0.732112	0.406356	0.313981
H67	H	0.719703	0.273229	0.308624
O68	O	0.640149	0.598822	0.274445
C69	C	0.655821	0.525793	0.281163
H70	H	0.711007	0.513569	0.335026
H71	H	0.534652	0.498091	0.275187
H72	H	0.734475	0.506665	0.238708
O73	O	1.039842	0.929617	0.968821
C74	C	1.141857	0.971270	0.927916
H75	H	1.158811	1.025732	0.952207
H76	H	1.260754	0.945838	0.926066
H77	H	1.088500	0.975920	0.872399
O78	O	0.729081	1.074210	0.789283
C79	C	0.768829	1.144919	0.774039
H80	H	0.825060	1.148392	0.720813
H81	H	0.657814	1.176600	0.772720
H82	H	0.855751	1.166942	0.816255
O83	O	1.052530	0.591863	0.451935
C84	C	1.149347	0.638380	0.493590
H85	H	1.089809	0.690591	0.498070
H86	H	1.168723	0.614932	0.548116
H87	H	1.267796	0.647231	0.468268
O88	O	0.653430	0.743496	0.280180
C89	C	0.556645	0.696981	0.238508
H90	H	0.548671	0.643500	0.265182
H91	H	0.433702	0.718483	0.231779
H92	H	0.609295	0.691347	0.184866
H93	H	0.674484	1.099553	0.981387
H94	H	0.686043	1.094248	1.114533
O95	O	1.109713	0.896748	0.782452
C96	C	1.095335	0.903507	0.855478
H97	H	0.976664	0.926167	0.866433
H98	H	1.103424	0.849755	0.881290
H99	H	1.194289	0.940061	0.877763
