data_functionalizedCrystal
_audit_creation_method	'MofGen! by Chris Wilmer'
_symmetry_space_group_name_H-M	'P1'
_symmetry_Int_Tables_number	1
_symmetry_cell_setting	triclinic
loop_
_symmetry_equiv_pos_as_xyz
  x,y,z
_cell_length_a	10.686220
_cell_length_b	16.625546
_cell_length_c	10.686551
_cell_angle_alpha	85.590142
_cell_angle_beta	90.308082
_cell_angle_gamma	94.404440
loop_
_atom_site_label
_atom_site_type_symbol
_atom_site_fract_x
_atom_site_fract_y
_atom_site_fract_z
Zn1	Zn	1.972246	-0.196578	-0.562364
Zn2	Zn	1.955985	-0.342520	-0.352588
Zn3	Zn	1.746360	-0.217205	-0.368679
Zn4	Zn	1.762416	-0.340886	-0.578366
O5	O	1.859251	-0.274297	-0.465499
O6	O	2.145632	-0.207989	-0.521106
O7	O	1.914653	-0.335213	-0.179176
O8	O	1.776409	-0.101630	-0.394408
O9	O	2.133686	-0.315212	-0.366985
O10	O	1.942367	-0.086476	-0.536708
O11	O	1.760642	-0.243144	-0.190998
O12	O	1.572946	-0.241560	-0.409925
O13	O	1.803775	-0.312427	-0.751790
O14	O	1.584742	-0.332428	-0.563982
O15	O	1.957936	-0.206405	-0.740033
O16	O	1.930222	-0.455142	-0.382502
O17	O	1.788007	-0.453942	-0.548380
C18	C	1.533328	-0.289055	-0.490437
C19	C	1.393898	-0.295387	-0.501135
C20	C	1.859129	-0.483797	-0.465456
C21	C	1.859194	-0.573414	-0.465470
C22	C	1.859423	-0.901572	-0.465584
C23	C	1.859356	-0.810269	-0.465556
C24	C	1.859308	-0.737496	-0.465527
C25	C	1.859242	-0.646186	-0.465500
C26	C	2.186448	-0.259482	-0.440465
C27	C	2.325880	-0.253169	-0.429797
C28	C	1.884460	-0.256933	-0.792702
C29	C	1.895202	-0.249534	-0.932136
C30	C	1.859411	-0.063977	-0.465568
C31	C	1.859479	0.025649	-0.465597
C32	C	1.834213	-0.291533	-0.139565
C33	C	1.823714	-0.298694	-0.000113
H34	H	1.374314	-0.212182	-0.360536
O35	O	1.336169	-0.344411	-0.583631
C36	C	1.300536	-0.480216	-0.647265
C37	C	1.365960	-0.424795	-0.553736
H38	H	1.324619	-0.545216	-0.623144
H39	H	1.194593	-0.476858	-0.641461
H40	H	1.334034	-0.459587	-0.746498
H41	H	1.332565	-0.445386	-0.454461
H42	H	1.471894	-0.428159	-0.559650
H43	H	1.964635	-0.201784	-0.980614
H44	H	1.754295	-0.346446	-0.951639
