data_functionalizedCrystal
_audit_creation_method	'MofGen! by Chris Wilmer'
_symmetry_space_group_name_H-M	'P1'
_symmetry_Int_Tables_number	1
_symmetry_cell_setting	triclinic
loop_
_symmetry_equiv_pos_as_xyz
  x,y,z
_cell_length_a	9.730223
_cell_length_b	10.654539
_cell_length_c	11.026607
_cell_angle_alpha	83.466703
_cell_angle_beta	89.999947
_cell_angle_gamma	90.002634
loop_
_atom_site_label
_atom_site_type_symbol
_atom_site_fract_x
_atom_site_fract_y
_atom_site_fract_z
O1	O	-0.114365	-1.704896	0.170699
O2	O	-0.114351	-1.342950	0.186982
O3	O	-0.114352	-1.493925	0.001936
O4	O	-0.114364	-1.553920	0.355745
O5	O	0.114228	-1.493924	0.001941
O6	O	0.114229	-1.342949	0.186987
O7	O	0.114215	-1.704894	0.170704
Zn8	Zn	0.150514	-1.523921	0.178846
Zn9	Zn	-0.150650	-1.523923	0.178840
O10	O	0.114216	-1.553919	0.355750
C11	C	-0.000059	-1.295892	0.185792
C12	C	-0.000053	-1.155674	0.182223
C13	C	-0.000063	-1.482856	-0.043365
C14	C	-0.000066	-1.449862	-0.178355
N15	N	0.356050	-1.523929	0.178850
N16	N	-0.356186	-1.523923	0.178827
C17	C	0.427976	-1.590809	0.096940
C18	C	0.571859	-1.590803	0.096925
C19	C	0.571878	-1.457035	0.260741
C20	C	0.427998	-1.457035	0.260749
C21	C	0.427966	-1.668044	0.002365
C22	C	0.571849	-1.668037	0.002350
C23	C	-0.124656	-1.089813	0.180532
C24	C	-0.124664	-0.958062	0.177169
C25	C	0.124547	-0.958043	0.177184
C26	C	0.124552	-1.089793	0.180555
C27	C	-0.268536	-1.089822	0.180518
C28	C	-0.268544	-0.958070	0.177155
C29	C	-0.000073	-0.751953	0.171901
C30	C	-0.000066	-0.892173	0.175488
C31	C	-0.000072	-1.540965	-0.251398
C32	C	-0.000076	-1.506866	-0.390918
C33	C	-0.000076	-1.564988	0.401051
C34	C	-0.000081	-1.597982	0.536042
H35	H	0.369437	-1.402563	0.327436
C36	C	-0.117577	-1.704867	-0.124258
C37	C	-0.000076	-1.680340	-0.196385
H38	H	-0.117573	-1.790912	-0.090293
H39	H	-0.197273	-1.688218	-0.173191
H40	H	-0.117560	-1.652117	-0.060362
H41	H	-0.000098	-1.733084	-0.260288
H42	H	0.079640	-1.697002	-0.147450
H43	H	0.616469	-1.618355	-0.085959
C44	C	0.733698	-1.291747	0.285570
C45	C	0.650972	-1.383514	0.350765
H46	H	0.782531	-1.246365	0.341151
H47	H	0.677563	-1.235055	0.234571
H48	H	0.797121	-1.331593	0.236787
H49	H	0.587542	-1.343667	0.399541
H50	H	0.707113	-1.440214	0.401784
H51	H	0.388916	-1.626315	-0.091085
H52	H	-0.000081	-1.403618	-0.431669
H53	H	0.383335	-1.765655	0.031973
C54	C	-0.117587	-1.761901	-0.336835
C55	C	-0.000085	-1.737367	-0.408960
H56	H	-0.117582	-1.847948	-0.302877
H57	H	-0.197282	-1.745247	-0.385767
H58	H	-0.117569	-1.709158	-0.272932
H59	H	-0.000108	-1.790103	-0.472868
H60	H	0.079631	-1.754034	-0.360025
C61	C	0.512641	-1.887146	0.047534
C62	C	0.624574	-1.804422	0.030460
H63	H	0.545194	-1.971339	0.064892
H64	H	0.458403	-1.880418	-0.024533
H65	H	0.458426	-1.865795	0.113837
H66	H	0.678784	-1.825767	-0.035849
H67	H	0.678834	-1.811156	0.102535
H68	H	-0.000071	-1.346621	-0.219112
H69	H	0.225996	-0.904387	0.175827
C70	C	0.370882	-1.076537	0.180246
C71	C	0.261520	-1.162190	0.182427
H72	H	0.455442	-1.121234	0.181395
H73	H	0.365683	-1.031565	0.249699
H74	H	0.365700	-1.018735	0.108150
H75	H	0.266697	-1.219986	0.254528
H76	H	0.266722	-1.207182	0.112966
C77	C	-0.325756	-1.266428	0.072962
C78	C	-0.328798	-1.134288	0.063638
H79	H	-0.362951	-1.293877	0.000801
H80	H	-0.378754	-1.300159	0.141358
H81	H	-0.233494	-1.294861	0.083032
H82	H	-0.421062	-1.105855	0.053577
H83	H	-0.275801	-1.100545	-0.004778
H84	H	-0.323783	-1.133276	0.266363
C85	C	-0.368408	-1.018804	0.374232
C86	C	-0.328823	-0.913620	0.294037
H87	H	-0.405620	-0.991357	0.446386
H88	H	-0.290611	-1.070829	0.394523
H89	H	-0.435859	-1.065547	0.336176
H90	H	-0.261364	-0.866882	0.332090
H91	H	-0.406630	-0.861574	0.273748
H92	H	-0.323782	-0.914620	0.091303
