data_functionalizedCrystal
_audit_creation_method	'MofGen! by Chris Wilmer'
_symmetry_space_group_name_H-M	'P1'
_symmetry_Int_Tables_number	1
_symmetry_cell_setting	triclinic
loop_
_symmetry_equiv_pos_as_xyz
  x,y,z
_cell_length_a	16.959455
_cell_length_b	16.959454
_cell_length_c	19.805399
_cell_angle_alpha	90.022387
_cell_angle_beta	90.019903
_cell_angle_gamma	90.019023
loop_
_atom_site_label
_atom_site_type_symbol
_atom_site_fract_x
_atom_site_fract_y
_atom_site_fract_z
Zn1	Zn	1.208409	-0.314722	0.382750
Zn2	Zn	1.708409	0.185278	0.882750
Zn3	Zn	1.208324	-0.446904	0.269572
Zn4	Zn	1.708324	0.053096	0.769572
Zn5	Zn	1.076230	-0.314741	0.269574
Zn6	Zn	1.576230	0.185259	0.769574
Zn7	Zn	1.076202	-0.446860	0.382718
Zn8	Zn	1.576202	0.053140	0.882718
O9	O	1.142291	-0.380807	0.326154
O10	O	1.642291	0.119193	0.826154
O11	O	1.319008	-0.332267	0.367749
O12	O	1.819008	0.167733	0.867749
O13	O	1.190777	-0.429399	0.174856
O14	O	1.690777	0.070601	0.674856
O15	O	1.093811	-0.204128	0.284601
O16	O	1.593811	0.295872	0.784601
O17	O	1.318946	-0.429381	0.284598
O18	O	1.818946	0.070619	0.784598
O19	O	1.190922	-0.204114	0.367751
O20	O	1.690922	0.295886	0.867751
O21	O	1.093728	-0.332300	0.174857
O22	O	1.593728	0.167700	0.674857
O23	O	0.965615	-0.332257	0.284570
O24	O	1.465615	0.167743	0.784570
O25	O	1.093763	-0.429305	0.477439
O26	O	1.593763	0.070695	0.977439
O27	O	0.965595	-0.429324	0.367697
O28	O	1.465595	0.070676	0.867697
O29	O	1.190895	-0.332224	0.477462
O30	O	1.690895	0.167776	0.977462
O31	O	1.190750	-0.557509	0.284567
O32	O	1.690750	-0.057509	0.784567
O33	O	1.093681	-0.557477	0.367695
O34	O	1.593681	-0.057477	0.867695
C35	C	0.936925	-0.380788	0.326131
C36	C	1.436925	0.119212	0.826131
C37	C	0.849068	-0.380799	0.326137
C38	C	1.349068	0.119201	0.826137
C39	C	0.807781	-0.330189	0.282926
C40	C	1.307781	0.169811	0.782926
C41	C	0.807801	-0.431415	0.369358
C42	C	1.307801	0.068585	0.869358
C43	C	0.725255	-0.431424	0.369368
C44	C	1.225255	0.068576	0.869368
C45	C	0.683969	-0.380814	0.326157
C46	C	1.183969	0.119186	0.826157
C47	C	0.725228	-0.330194	0.282936
C48	C	1.225228	0.169806	0.782936
C49	C	0.683990	-0.482037	0.412592
C50	C	1.183990	0.017963	0.912592
C51	C	0.601439	-0.482048	0.412605
C52	C	1.101439	0.017952	0.912605
C53	C	0.560151	-0.431441	0.369390
C54	C	1.060151	0.068559	0.869390
C55	C	0.601415	-0.380820	0.326167
C56	C	1.101415	0.119180	0.826167
C57	C	0.560128	-0.330209	0.282956
C58	C	1.060128	0.169791	0.782956
C59	C	0.601391	-0.279592	0.239729
C60	C	1.101391	0.220408	0.739729
C61	C	0.683940	-0.279587	0.239721
C62	C	1.183940	0.220413	0.739721
C63	C	0.477602	-0.431445	0.369398
C64	C	0.977602	0.068555	0.869398
C65	C	0.477575	-0.330215	0.282966
C66	C	0.977575	0.169785	0.782966
C67	C	1.142225	-0.586173	0.326142
C68	C	1.642225	-0.086173	0.826142
C69	C	1.142269	-0.674030	0.326160
C70	C	1.642269	-0.174030	0.826160
C71	C	1.091820	-1.045518	0.369434
C72	C	1.591820	-0.545518	0.869434
C73	C	1.192982	-1.045492	0.282942
C74	C	1.692982	-0.545492	0.782942
C75	C	1.192954	-0.962947	0.282936
C76	C	1.692954	-0.462947	0.782936
C77	C	1.142358	-0.921683	0.326179
C78	C	1.642358	-0.421683	0.826179
C79	C	1.091789	-0.962965	0.369427
C80	C	1.591789	-0.462965	0.869427
C81	C	1.243516	-0.921658	0.239683
C82	C	1.743516	-0.421658	0.739683
C83	C	1.243490	-0.839107	0.239675
C84	C	1.743490	-0.339107	0.739675
C85	C	1.192897	-0.797842	0.282921
C86	C	1.692897	-0.297842	0.782921
C87	C	1.142327	-0.839129	0.326172
C88	C	1.642327	-0.339129	0.826172
C89	C	1.091731	-0.797865	0.369415
C90	C	1.591731	-0.297865	0.869415
C91	C	1.041164	-0.839151	0.412670
C92	C	1.541164	-0.339151	0.912670
C93	C	1.041196	-0.921700	0.412674
C94	C	1.541196	-0.421700	0.912674
C95	C	1.192865	-0.715294	0.282917
C96	C	1.692865	-0.215294	0.782917
C97	C	1.091700	-0.715312	0.369408
C98	C	1.591700	-0.215312	0.869408
C99	C	1.348459	-0.380827	0.326177
C100	C	1.848459	0.119173	0.826177
C101	C	1.436316	-0.380835	0.326187
C102	C	1.936316	0.119165	0.826187
C103	C	1.142335	-0.380757	0.502696
C104	C	1.642335	0.119243	1.002696
C105	C	1.142354	-0.380736	0.577928
C106	C	1.642354	0.119264	1.077928
C107	C	1.142379	-0.174639	0.326180
C108	C	1.642379	0.325361	0.826180
C109	C	1.142416	-0.086782	0.326191
C110	C	1.642416	0.413218	0.826191
C111	C	1.142292	-0.380800	0.150298
C112	C	1.642292	0.119200	0.650298
C113	C	1.142427	-0.380598	0.075066
C114	C	1.642427	0.119402	0.575066
C115	C	1.192932	-0.330183	0.613286
C116	C	1.692932	0.169817	1.113286
C117	C	1.192940	-0.330160	0.683974
C118	C	1.692940	0.169840	1.183974
C119	C	1.142374	-0.380695	0.719304
C120	C	1.642374	0.119305	1.219304
C121	C	1.091791	-0.431250	0.683942
C122	C	1.591791	0.068750	1.183942
C123	C	1.091779	-0.431268	0.613254
C124	C	1.591779	0.068732	1.113254
C125	C	1.091835	-0.431176	0.969015
C126	C	1.591835	0.068824	1.469015
C127	C	1.091852	-0.431155	1.039707
C128	C	1.591852	0.068845	1.539707
C129	C	1.192996	-0.330068	1.039735
C130	C	1.692996	0.169932	1.539735
C131	C	1.192985	-0.330087	0.969048
C132	C	1.692985	0.169913	1.469048
C133	C	1.142399	-0.380638	0.933692
C134	C	1.642399	0.119362	1.433692
C135	C	1.142389	-0.380661	0.857043
C136	C	1.642389	0.119339	1.357043
C137	C	1.142386	-0.380676	0.795951
C138	C	1.642386	0.119324	1.295951
H139	H	0.444010	-0.472652	0.404597
H140	H	0.944010	0.027348	0.904597
H141	H	0.717543	-0.238377	0.204529
H142	H	1.217543	0.261623	0.704529
O143	O	0.556859	-0.225020	0.193109
O144	O	1.056859	0.274980	0.693109
H145	H	0.492527	-0.233539	0.200376
H146	H	0.992527	0.266461	0.700376
O147	O	1.037118	-0.670806	0.416041
O148	O	1.537118	-0.170806	0.916041
H149	H	1.001958	-0.713384	0.446111
H150	H	1.501958	-0.213384	0.946111
O151	O	1.247410	-0.670759	0.236283
O152	O	1.747410	-0.170759	0.736283
H153	H	1.212051	-0.633189	0.201813
H154	H	1.712051	-0.133189	0.701813
H155	H	0.999965	-0.805545	0.447875
H156	H	1.499965	-0.305545	0.947875
H157	H	1.000027	-0.955322	0.447889
H158	H	1.500027	-0.455322	0.947889
O159	O	0.852277	-0.275592	0.236306
O160	O	1.352277	0.224408	0.736306
H161	H	0.916615	-0.284084	0.243557
H162	H	1.416615	0.215916	0.743557
O163	O	1.247574	-1.089992	0.236322
O164	O	1.747574	-0.589992	0.736322
H165	H	1.239110	-1.154329	0.243601
H166	H	1.739110	-0.654329	0.743601
O167	O	1.037272	-1.090039	0.416078
O168	O	1.537272	-0.590039	0.916078
H169	H	1.045784	-1.154373	0.408817
H170	H	1.545784	-0.654373	0.908817
H171	H	1.050657	-0.472350	0.940237
H172	H	1.550657	0.027650	1.440237
O173	O	1.298114	-0.966160	0.193069
O174	O	1.798114	-0.466160	0.693069
H175	H	1.289657	-1.030496	0.200356
H176	H	1.789657	-0.530496	0.700356
O177	O	1.247528	-0.275583	0.930946
O178	O	1.747528	0.224417	1.430946
H179	H	1.239028	-0.284094	0.875852
H180	H	1.739028	0.215906	1.375852
O181	O	0.852326	-0.485977	0.415983
O182	O	1.352326	0.014023	0.915983
H183	H	0.916659	-0.477463	0.408720
H184	H	1.416659	0.022537	0.908720
O185	O	0.556995	-0.536695	0.459219
O186	O	1.056995	-0.036695	0.959219
H187	H	0.519404	-0.501430	0.493746
H188	H	1.019404	-0.001430	0.993746
O189	O	1.298035	-0.794578	0.193033
O190	O	1.798035	-0.294578	0.693033
H191	H	1.333227	-0.837141	0.162970
H192	H	1.833227	-0.337141	0.662970
O193	O	0.728523	-0.536616	0.459198
O194	O	1.228523	-0.036616	0.959198
H195	H	0.685964	-0.571807	0.489262
H196	H	1.185964	-0.071807	0.989262
H197	H	1.234111	-0.289035	0.584525
H198	H	1.734111	0.210965	1.084525
H199	H	0.443965	-0.289003	0.247777
H200	H	0.943965	0.210997	0.747777
O201	O	1.247496	-0.275641	0.722113
O202	O	1.747496	0.224359	1.222113
H203	H	1.282664	-0.240513	0.685670
H204	H	1.782664	0.259487	1.185670
H205	H	1.234183	-0.288904	1.068530
H206	H	1.734183	0.211096	1.568530
H207	H	1.050672	-0.472308	1.068471
H208	H	1.550672	0.027692	1.568471
O209	O	1.037244	-0.485752	0.722042
O210	O	1.537244	0.014248	1.222042
H211	H	1.045752	-0.477252	0.777136
H212	H	1.545752	0.022748	1.277136
H213	H	1.050585	-0.472425	0.584467
H214	H	1.550585	0.027575	1.084467
