data_functionalizedCrystal
_audit_creation_method	'MofGen! by Chris Wilmer'
_symmetry_space_group_name_H-M	'P1'
_symmetry_Int_Tables_number	1
_symmetry_cell_setting	triclinic
loop_
_symmetry_equiv_pos_as_xyz
  x,y,z
_cell_length_a	12.759395
_cell_length_b	18.050589
_cell_length_c	12.759387
_cell_angle_alpha	90.029987
_cell_angle_beta	90.020509
_cell_angle_gamma	90.029758
loop_
_atom_site_label
_atom_site_type_symbol
_atom_site_fract_x
_atom_site_fract_y
_atom_site_fract_z
Zn1	Zn	1.606170	-0.295590	0.594011
Zn2	Zn	1.606019	-0.419799	0.418334
Zn3	Zn	1.430468	-0.295630	0.418348
Zn4	Zn	1.430419	-0.419746	0.593973
O5	O	1.518269	-0.357691	0.506166
O6	O	1.753171	-0.312072	0.570717
O7	O	1.582689	-0.403367	0.271315
O8	O	1.453859	-0.191700	0.441672
O9	O	1.753060	-0.403327	0.441648
O10	O	1.582946	-0.191671	0.570731
O11	O	1.453713	-0.312141	0.271325
O12	O	1.283441	-0.312089	0.441635
O13	O	1.453775	-0.403237	0.740999
O14	O	1.283405	-0.403277	0.570666
O15	O	1.582899	-0.312020	0.741027
O16	O	1.582642	-0.523716	0.441611
O17	O	1.453629	-0.523677	0.570652
C18	C	1.245302	-0.357682	0.506148
C19	C	1.128525	-0.357696	0.506166
C20	C	1.128526	-0.452803	0.640308
C21	C	1.073666	-0.500362	0.707383
C22	C	0.963944	-0.500371	0.707395
C23	C	0.909080	-0.452814	0.640329
C24	C	0.963940	-0.405255	0.573255
C25	C	1.073665	-0.405253	0.573247
C26	C	0.963939	-0.310146	0.439119
C27	C	1.073661	-0.310139	0.439099
C28	C	0.909076	-0.262589	0.372052
C29	C	0.963936	-0.215032	0.304971
C30	C	1.073664	-0.215026	0.304960
C31	C	1.128521	-0.262580	0.372025
C32	C	1.518142	-0.550643	0.506149
C33	C	1.518184	-0.633189	0.506177
C34	C	1.448096	-0.832646	0.576325
C35	C	1.422480	-0.882094	0.480456
C36	C	1.518287	-0.784319	0.506190
C37	C	1.543955	-0.881953	0.602070
C38	C	1.518385	-0.930304	0.506212
C39	C	1.492621	-0.832681	0.410271
C40	C	1.614141	-0.832535	0.531950
C41	C	1.588561	-0.881961	0.436015
C42	C	1.518228	-0.700221	0.506179
C43	C	1.518444	-1.014401	0.506212
C44	C	1.792302	-0.357701	0.506185
C45	C	1.909079	-0.357705	0.506193
C46	C	1.518348	-0.357618	0.780200
C47	C	1.518382	-0.357587	0.896977
C48	C	1.518425	-0.163986	0.506207
C49	C	1.518492	-0.081440	0.506224
C50	C	1.518251	-0.357710	0.233199
C51	C	1.518420	-0.357532	0.116423
C52	C	1.652848	-0.262609	0.897026
C53	C	1.720095	-0.215109	0.951911
C54	C	1.720121	-0.215082	1.061633
C55	C	1.652889	-0.262559	1.116472
C56	C	1.585642	-0.310059	1.061586
C57	C	1.585626	-0.310082	0.951862
C58	C	1.451173	-0.405032	1.061538
C59	C	1.451151	-0.405064	0.951816
C60	C	1.383942	-0.452509	1.116376
C61	C	1.316698	-0.500013	1.061491
C62	C	1.316676	-0.500039	0.951763
C63	C	1.383904	-0.452564	0.896931
H64	H	1.217867	-0.452806	0.640297
H65	H	1.383897	-0.452583	0.807589
N66	N	0.797003	-0.452808	0.640336
N67	N	0.748031	-0.410345	0.580457
H68	H	0.668874	-0.410336	0.580463
N69	N	1.248016	-0.548503	1.117490
N70	N	1.187974	-0.590909	1.068478
H71	H	1.139461	-0.625153	1.108029
H72	H	0.819735	-0.262596	0.372072
N73	N	1.465303	-0.805636	0.308542
N74	N	1.460808	-0.737448	0.292127
H75	H	1.441505	-0.718345	0.220285
H76	H	1.695137	-0.810752	0.553763
N77	N	1.247967	-0.548559	0.895719
N78	N	1.187947	-0.590937	0.944699
H79	H	1.139417	-0.625205	0.905122
H80	H	1.118325	-0.176292	0.250347
H81	H	1.774873	-0.176399	1.106320
H82	H	1.652907	-0.262526	1.205813
N83	N	1.129724	-0.548928	0.775888
N84	N	1.227689	-0.548915	0.775874
H85	H	1.267279	-0.583212	0.824259
N86	N	0.907916	-0.548950	0.775922
N87	N	0.956906	-0.591403	0.835801
H88	H	0.917337	-0.625712	0.884200
N89	N	1.571127	-0.909107	0.703780
N90	N	1.515319	-0.893293	0.781108
H91	H	1.534500	-0.912469	0.852943
H92	H	0.919257	-0.176312	0.250376
H93	H	1.388650	-0.810991	0.635551
H94	H	1.383963	-0.452480	1.205718
N95	N	1.652846	-0.262635	0.784948
N96	N	1.712878	-0.220247	0.735998
H97	H	1.712880	-0.220263	0.656842
N98	N	1.240599	-0.262579	0.372041
N99	N	1.289606	-0.247133	0.454039
H100	H	1.368763	-0.247133	0.454059
H101	H	1.647961	-0.903478	0.376645
N102	N	1.320838	-0.909394	0.453133
N103	N	1.243404	-0.893609	0.508799
H104	H	1.171616	-0.912887	0.489509
H105	H	1.774831	-0.176454	0.907249
