data_functionalizedCrystal
_audit_creation_method	'MofGen! by Chris Wilmer'
_symmetry_space_group_name_H-M	'P1'
_symmetry_Int_Tables_number	1
_symmetry_cell_setting	triclinic
loop_
_symmetry_equiv_pos_as_xyz
  x,y,z
_cell_length_a	9.065215
_cell_length_b	13.596369
_cell_length_c	9.065218
_cell_angle_alpha	90.001486
_cell_angle_beta	94.984709
_cell_angle_gamma	90.005439
loop_
_atom_site_label
_atom_site_type_symbol
_atom_site_fract_x
_atom_site_fract_y
_atom_site_fract_z
O1	O	1.960408	0.081776	-0.216327
O2	O	2.460408	0.581776	0.283673
O3	O	1.531123	0.081780	-0.234078
O4	O	2.031123	0.581780	0.265922
O5	O	1.754639	0.081776	-0.010560
O6	O	2.254639	0.581776	0.489440
O7	O	1.736892	0.081780	-0.439845
O8	O	2.236892	0.581780	0.060155
O9	O	1.754611	-0.081807	-0.010572
O10	O	2.254611	0.418193	0.489428
O11	O	1.531095	-0.081803	-0.234090
O12	O	2.031095	0.418197	0.265910
O13	O	1.960380	-0.081807	-0.216339
O14	O	2.460380	0.418193	0.283661
Zn15	Zn	1.745733	-0.107778	-0.225216
Zn16	Zn	2.245733	0.392222	0.274784
Zn17	Zn	1.745770	0.107750	-0.225200
Zn18	Zn	2.245770	0.607750	0.274800
O19	O	1.736864	-0.081803	-0.439857
O20	O	2.236864	0.418197	0.060143
C21	C	1.476122	-0.000011	-0.232379
C22	C	1.976122	0.499989	0.267621
C23	C	1.312279	-0.000010	-0.227281
C24	C	1.812279	0.499990	0.272719
N25	N	1.745719	-0.254869	-0.225227
N26	N	2.245719	0.245131	0.274773
C27	C	1.745726	-0.343867	-0.225230
C28	C	2.245726	0.156133	0.274770
C29	C	1.745741	-0.455519	-0.225220
C30	C	2.245741	0.044481	0.274780
C31	C	1.745760	-0.544509	-0.225203
C32	C	2.245760	-0.044509	0.274797
C33	C	1.745776	-0.656168	-0.225195
C34	C	2.245776	-0.156168	0.274805
C35	C	2.015381	-0.000014	-0.218038
C36	C	2.515381	0.499986	0.281962
C37	C	2.179224	-0.000009	-0.223136
C38	C	2.679224	0.499991	0.276864
C39	C	1.752919	-0.000014	0.044421
C40	C	2.252919	0.499986	0.544421
C41	C	1.747819	-0.000010	0.208264
C42	C	2.247819	0.499990	0.708264
N43	N	1.745795	0.254842	-0.225179
N44	N	2.245795	0.754842	0.274821
C45	C	1.738584	-0.000011	-0.494837
C46	C	2.238584	0.499989	0.005163
C47	C	1.743683	-0.000009	-0.658680
C48	C	2.243683	0.499991	-0.158680
