data_functionalizedCrystal
_audit_creation_method	'MofGen! by Chris Wilmer'
_symmetry_space_group_name_H-M	'P1'
_symmetry_Int_Tables_number	1
_symmetry_cell_setting	triclinic
loop_
_symmetry_equiv_pos_as_xyz
  x,y,z
_cell_length_a	14.971482
_cell_length_b	14.971494
_cell_length_c	13.448316
_cell_angle_alpha	89.995115
_cell_angle_beta	89.993798
_cell_angle_gamma	83.615083
loop_
_atom_site_label
_atom_site_type_symbol
_atom_site_fract_x
_atom_site_fract_y
_atom_site_fract_z
O1	O	1.186953	0.116548	-0.082675
O2	O	1.520286	0.449882	0.250658
O3	O	1.853620	0.783215	0.583992
O4	O	0.926553	0.130511	-0.082679
O5	O	1.259886	0.463844	0.250654
O6	O	1.593219	0.797177	0.583987
O7	O	1.063728	-0.006670	-0.082675
O8	O	1.397062	0.326663	0.250658
O9	O	1.730395	0.659997	0.583992
O10	O	1.049777	0.253729	-0.082680
O11	O	1.383111	0.587063	0.250654
O12	O	1.716444	0.920396	0.583987
O13	O	1.063711	-0.006679	0.082709
O14	O	1.397044	0.326655	0.416042
O15	O	1.730378	0.659988	0.749376
O16	O	0.926536	0.130502	0.082704
O17	O	1.259869	0.463836	0.416038
O18	O	1.593202	0.797169	0.749371
O19	O	1.186936	0.116540	0.082709
O20	O	1.520269	0.449873	0.416042
O21	O	1.853602	0.783207	0.749375
Cu22	Cu	1.056734	0.123520	0.097807
Cu23	Cu	1.390067	0.456854	0.431141
Cu24	Cu	1.723401	0.790187	0.764474
Cu25	Cu	1.056754	0.123530	-0.097778
Cu26	Cu	1.390088	0.456864	0.235555
Cu27	Cu	1.723421	0.790197	0.568889
O28	O	1.049760	0.253721	0.082704
O29	O	1.383093	0.587054	0.416038
O30	O	1.716427	0.920387	0.749371
C31	C	0.893219	0.129883	0.000012
C32	C	1.226553	0.463216	0.333345
C33	C	1.559886	0.796549	0.666679
C34	C	0.793922	0.128013	0.000010
C35	C	1.127255	0.461347	0.333343
C36	C	1.460589	0.794680	0.666677
C37	C	0.747268	0.127128	0.090162
C38	C	1.080601	0.460462	0.423495
C39	C	1.413935	0.793795	0.756829
C40	C	0.653969	0.125357	0.090163
C41	C	0.987303	0.458691	0.423496
C42	C	1.320636	0.792024	0.756830
C43	C	0.607326	0.124478	0.000011
C44	C	0.940659	0.457811	0.333345
C45	C	1.273993	0.791145	0.666678
C46	C	0.653987	0.125361	-0.090148
C47	C	0.987320	0.458694	0.243186
C48	C	1.320653	0.792027	0.576519
C49	C	0.747284	0.127125	-0.090148
C50	C	1.080618	0.460458	0.243186
C51	C	1.413951	0.793792	0.576519
C52	C	0.459525	0.121685	-0.090141
C53	C	0.792858	0.455019	0.243192
C54	C	1.126191	0.788352	0.576526
C55	C	0.366220	0.119923	-0.090141
C56	C	0.699554	0.453256	0.243192
C57	C	1.032887	0.786589	0.576525
C58	C	0.366210	0.119918	0.090170
C59	C	0.699543	0.453251	0.423503
C60	C	1.032876	0.786584	0.756836
C61	C	0.459507	0.121682	0.090169
C62	C	0.792841	0.455015	0.423503
C63	C	1.126174	0.788349	0.756836
C64	C	0.506162	0.122566	0.000010
C65	C	0.839495	0.455899	0.333344
C66	C	1.172828	0.789233	0.666677
C67	C	1.063094	-0.039999	0.000015
C68	C	1.396428	0.293334	0.333349
C69	C	1.729761	0.626668	0.666682
C70	C	1.061221	-0.139296	0.000011
C71	C	1.394554	0.194038	0.333344
C72	C	1.727887	0.527371	0.666677
C73	C	1.060352	-0.185936	-0.090141
C74	C	1.393685	0.147398	0.243192
C75	C	1.727019	0.480731	0.576526
C76	C	1.058586	-0.279235	-0.090142
C77	C	1.391919	0.054099	0.243191
C78	C	1.725252	0.387432	0.576524
C79	C	1.057695	-0.325893	0.000009
C80	C	1.391028	0.007441	0.333343
C81	C	1.724361	0.340774	0.666676
C82	C	1.058561	-0.279246	0.090168
C83	C	1.391894	0.054088	0.423502
C84	C	1.725227	0.387421	0.756835
C85	C	1.060321	-0.185948	0.090168
C86	C	1.393654	0.147386	0.423502
C87	C	1.726987	0.480719	0.756835
C88	C	1.054895	-0.473709	0.090161
C89	C	1.388228	-0.140376	0.423495
C90	C	1.721561	0.192958	0.756828
C91	C	1.053137	-0.567014	0.090162
C92	C	1.386470	-0.233680	0.423495
C93	C	1.719803	0.099653	0.756828
C94	C	1.053160	-0.566996	-0.090149
C95	C	1.386493	-0.233663	0.243184
C96	C	1.719826	0.099671	0.576517
C97	C	1.054920	-0.473698	-0.090149
C98	C	1.388253	-0.140364	0.243184
C99	C	1.721586	0.192969	0.576518
C100	C	1.055787	-0.427057	0.000010
C101	C	1.389121	-0.093724	0.333343
C102	C	1.722454	0.239609	0.666677
C103	C	1.220269	0.117168	0.000015
C104	C	1.553602	0.450501	0.333349
C105	C	1.886936	0.783835	0.666682
C106	C	1.319566	0.119037	0.000010
C107	C	1.652900	0.452371	0.333344
C108	C	1.986233	0.785704	0.666677
C109	C	1.050394	0.287050	0.000012
C110	C	1.383727	0.620383	0.333345
C111	C	1.717061	0.953716	0.666678
C112	C	1.052268	0.386346	0.000010
C113	C	1.385601	0.719680	0.333343
C114	C	1.718934	1.053013	0.666676
N115	N	1.056726	0.123513	0.235372
N116	N	1.390060	0.456846	0.568705
N117	N	1.723393	0.790179	0.902038
N118	N	1.056769	0.123531	-0.235342
N119	N	1.390103	0.456864	0.097991
N120	N	1.723436	0.790198	0.431324
C121	C	1.117486	0.062794	0.287414
C122	C	1.450820	0.396127	0.620747
C123	C	1.784153	0.729461	0.954081
C124	C	1.117492	0.062793	0.391517
C125	C	1.450825	0.396127	0.724851
C126	C	1.784159	0.729460	1.058184
C127	C	1.056741	0.123516	0.443576
C128	C	1.390074	0.456850	0.776910
C129	C	1.723408	0.790183	1.110243
C130	C	0.995974	0.184238	0.391527
C131	C	1.329308	0.517571	0.724860
C132	C	1.662641	0.850904	1.058193
C133	C	0.995965	0.184234	0.287425
C134	C	1.329298	0.517567	0.620759
C135	C	1.662632	0.850900	0.954092
C136	C	0.995999	0.184244	0.608507
C137	C	1.329332	0.517577	0.941840
C138	C	1.662666	0.850911	1.275173
C139	C	0.996009	0.184250	0.712615
C140	C	1.329342	0.517583	1.045949
C141	C	1.662676	0.850916	1.379282
C142	C	1.117526	0.062804	0.712599
C143	C	1.450859	0.396137	1.045932
C144	C	1.784193	0.729470	1.379265
C145	C	1.117517	0.062799	0.608497
C146	C	1.450850	0.396133	0.941831
C147	C	1.784184	0.729466	1.275164
C148	C	1.056751	0.123522	0.556455
C149	C	1.390084	0.456856	0.889788
C150	C	1.723418	0.790189	1.223122
H151	H	0.497508	0.122405	-0.163558
H152	H	0.830841	0.455739	0.169775
H153	H	1.164174	0.789072	0.503108
F154	F	0.931313	0.248861	0.446932
F155	F	1.264646	0.582194	0.780266
F156	F	1.597980	0.915527	1.113599
H157	H	0.616003	0.124638	-0.163551
H158	H	0.949336	0.457972	0.169783
H159	H	1.282670	0.791305	0.503116
H160	H	0.615990	0.124622	0.163574
H161	H	0.949323	0.457955	0.496907
H162	H	1.282656	0.791288	0.830240
F163	F	0.316581	0.118985	-0.186091
F164	F	0.649914	0.452319	0.147243
F165	F	0.983247	0.785652	0.480576
H166	H	0.785269	0.127847	-0.163558
H167	H	1.118602	0.461181	0.169775
H168	H	1.451935	0.794514	0.503108
H169	H	1.061082	-0.147954	-0.163553
H170	H	1.394416	0.185379	0.169780
H171	H	1.727749	0.518713	0.503113
H172	H	1.057882	-0.317205	-0.163553
H173	H	1.391215	0.016128	0.169780
H174	H	1.724549	0.349461	0.503114
H175	H	1.055652	-0.435712	-0.163559
H176	H	1.388985	-0.102379	0.169775
H177	H	1.722319	0.230955	0.503108
F178	F	0.931321	0.248870	0.553124
F179	F	1.264655	0.582204	0.886457
F180	F	1.597988	0.915537	1.219790
F181	F	0.796901	0.128070	0.186115
F182	F	1.130234	0.461403	0.519449
F183	F	1.463567	0.794737	0.852782
H184	H	1.061015	-0.147973	0.163579
H185	H	1.394349	0.185361	0.496913
H186	H	1.727682	0.518694	0.830246
F187	F	0.509146	0.122627	0.186119
F188	F	0.842479	0.455960	0.519452
F189	F	1.175813	0.789294	0.852786
H190	H	0.946487	0.233676	0.245053
H191	H	1.279820	0.567009	0.578387
H192	H	1.613154	0.900342	0.911720
H193	H	1.166961	0.013350	0.245034
H194	H	1.500294	0.346684	0.578368
H195	H	1.833627	0.680017	0.911701
H196	H	1.166967	0.013351	0.433890
H197	H	1.500300	0.346685	0.767223
H198	H	1.833634	0.680018	1.100556
F199	F	0.316556	0.118977	0.186124
F200	F	0.649889	0.452310	0.519458
F201	F	0.983223	0.785644	0.852791
H202	H	1.167003	0.013361	0.754978
H203	H	1.500337	0.346694	1.088311
H204	H	1.833670	0.680028	1.421644
H205	H	1.166989	0.013359	0.566111
H206	H	1.500322	0.346692	0.899444
H207	H	1.833656	0.680025	1.232778
F208	F	0.931348	0.248878	0.768013
F209	F	1.264681	0.582212	1.101346
F210	F	1.598014	0.915545	1.434680
H211	H	1.052451	-0.604975	-0.163560
H212	H	1.385785	-0.271641	0.169773
H213	H	1.719118	0.061692	0.503106
F214	F	1.052189	-0.616669	0.186111
F215	F	1.385523	-0.283336	0.519444
F216	F	1.718856	0.049998	0.852778
H217	H	1.057830	-0.317241	0.163571
H218	H	1.391163	0.016092	0.496905
H219	H	1.724496	0.349425	0.830238
F220	F	1.055820	-0.424073	0.186120
F221	F	1.389153	-0.090740	0.519453
F222	F	1.722486	0.242594	0.852786
