data_functionalizedCrystal
_audit_creation_method	'MofGen! by Chris Wilmer'
_symmetry_space_group_name_H-M	'P1'
_symmetry_Int_Tables_number	1
_symmetry_cell_setting	triclinic
loop_
_symmetry_equiv_pos_as_xyz
  x,y,z
_cell_length_a	23.532355
_cell_length_b	23.532407
_cell_length_c	15.072220
_cell_angle_alpha	89.994175
_cell_angle_beta	89.993350
_cell_angle_gamma	82.838088
loop_
_atom_site_label
_atom_site_type_symbol
_atom_site_fract_x
_atom_site_fract_y
_atom_site_fract_z
O1	O	0.755286	0.068990	-0.073671
O2	O	1.088619	0.402324	0.259663
O3	O	1.421952	0.735657	0.592996
O4	O	0.589418	0.079024	-0.073700
O5	O	0.922751	0.412358	0.259633
O6	O	1.256085	0.745691	0.592966
O7	O	0.677354	-0.008925	-0.073668
O8	O	1.010687	0.324408	0.259665
O9	O	1.344020	0.657741	0.592998
O10	O	0.667350	0.156940	-0.073703
O11	O	1.000684	0.490273	0.259631
O12	O	1.334017	0.823607	0.592964
O13	O	0.677332	-0.008920	0.073897
O14	O	1.010665	0.324413	0.407230
O15	O	1.343999	0.657746	0.740563
O16	O	0.589397	0.079029	0.073865
O17	O	0.922730	0.412363	0.407198
O18	O	1.256063	0.745696	0.740532
O19	O	0.755264	0.068995	0.073894
O20	O	1.088597	0.402329	0.407228
O21	O	1.421931	0.735662	0.740561
Zn22	Zn	0.672327	0.074013	0.097309
Zn23	Zn	1.005660	0.407346	0.430642
Zn24	Zn	1.338994	0.740680	0.763975
Zn25	Zn	0.672355	0.074007	-0.097115
Zn26	Zn	1.005689	0.407340	0.236219
Zn27	Zn	1.339022	0.740673	0.569552
O28	O	0.667329	0.156945	0.073862
O29	O	1.000662	0.490278	0.407196
O30	O	1.333995	0.823612	0.740529
C31	C	0.568191	0.078776	0.000079
C32	C	0.901524	0.412109	0.333412
C33	C	1.234857	0.745443	0.666745
C34	C	0.504972	0.078022	0.000068
C35	C	0.838305	0.411355	0.333402
C36	C	1.171639	0.744689	0.666735
C37	C	0.112946	0.073287	0.080544
C38	C	0.446280	0.406620	0.413877
C39	C	0.779613	0.739953	0.747211
C40	C	0.053547	0.072569	0.080548
C41	C	0.386880	0.405902	0.413881
C42	C	0.720214	0.739236	0.747214
O43	O	0.022818	0.072181	0.148956
O44	O	0.356152	0.405514	0.482289
O45	O	0.689485	0.738848	0.815623
N46	N	0.023850	0.072211	0.000110
N47	N	0.357184	0.405544	0.333444
N48	N	0.690517	0.738877	0.666777
C49	C	0.053557	0.072564	-0.080336
C50	C	0.386890	0.405897	0.252997
C51	C	0.720224	0.739231	0.586331
O52	O	0.022843	0.072193	-0.148754
O53	O	0.356177	0.405526	0.184579
O54	O	0.689510	0.738859	0.517913
C55	C	0.112956	0.073277	-0.080339
C56	C	0.446289	0.406611	0.252995
C57	C	0.779623	0.739944	0.586328
C58	C	0.142649	0.073641	0.000104
C59	C	0.475982	0.406975	0.333437
C60	C	0.809315	0.740308	0.666771
C61	C	0.142639	0.073650	0.160980
C62	C	0.475973	0.406984	0.494313
C63	C	0.809306	0.740317	0.827647
C64	C	0.202035	0.074369	0.160976
C65	C	0.535368	0.407702	0.494310
C66	C	0.868701	0.741035	0.827643
C67	C	0.231737	0.074724	0.080536
C68	C	0.565070	0.408057	0.413870
C69	C	0.898404	0.741390	0.747203
C70	C	0.202044	0.074360	0.000100
C71	C	0.535377	0.407693	0.333433
C72	C	0.868711	0.741027	0.666767
C73	C	0.142662	0.073626	-0.160784
C74	C	0.475995	0.406960	0.172549
C75	C	0.809329	0.740293	0.505883
C76	C	0.202065	0.074339	-0.160780
C77	C	0.535398	0.407673	0.172554
C78	C	0.868732	0.741006	0.505887
C79	C	0.231758	0.074704	-0.080337
C80	C	0.565091	0.408037	0.252996
C81	C	0.898424	0.741370	0.586330
C82	C	0.291141	0.075433	-0.080344
C83	C	0.624475	0.408767	0.252990
C84	C	0.957808	0.742100	0.586323
N85	N	0.320838	0.075792	0.000094
N86	N	0.654171	0.409125	0.333427
N87	N	0.987505	0.742458	0.666760
C88	C	0.291136	0.075437	0.080534
C89	C	0.624469	0.408770	0.413867
C90	C	0.957802	0.742104	0.747200
C91	C	-0.071185	0.071065	-0.080324
C92	C	0.262149	0.404398	0.253009
C93	C	0.595482	0.737731	0.586342
C94	C	-0.130583	0.070356	-0.080323
C95	C	0.202750	0.403689	0.253011
C96	C	0.536084	0.737022	0.586344
C97	C	-0.130589	0.070360	0.080561
C98	C	0.202745	0.403693	0.413895
C99	C	0.536078	0.737026	0.747228
C100	C	-0.071190	0.071073	0.080559
C101	C	0.262144	0.404406	0.413892
C102	C	0.595477	0.737740	0.747225
C103	C	-0.041488	0.071423	0.000113
C104	C	0.291845	0.404757	0.333446
C105	C	0.625179	0.738090	0.666780
C106	C	0.415870	0.076946	0.080519
C107	C	0.749203	0.410280	0.413853
C108	C	1.082536	0.743613	0.747186
C109	C	0.475270	0.077667	0.080508
C110	C	0.808603	0.411000	0.413842
C111	C	1.141937	0.744334	0.747175
C112	C	0.475271	0.077660	-0.080375
C113	C	0.808604	0.410993	0.252958
C114	C	1.141937	0.744327	0.586292
C115	C	0.415875	0.076942	-0.080365
C116	C	0.749209	0.410275	0.252969
C117	C	1.082542	0.743609	0.586302
C118	C	0.386177	0.076583	0.000090
C119	C	0.719510	0.409917	0.333423
C120	C	1.052843	0.743250	0.666756
O121	O	0.321908	0.075819	-0.148717
O122	O	0.655241	0.409153	0.184616
O123	O	0.988575	0.742486	0.517949
O124	O	0.321858	0.075801	0.148940
O125	O	0.655191	0.409134	0.482273
O126	O	0.988524	0.742467	0.815607
C127	C	0.677088	-0.030139	0.000116
C128	C	1.010421	0.303195	0.333450
C129	C	1.343755	0.636528	0.666783
C130	C	0.676322	-0.093356	0.000123
C131	C	1.009656	0.239978	0.333456
C132	C	1.342989	0.573311	0.666790
C133	C	0.723557	-0.492468	0.000083
C134	C	1.056890	-0.159134	0.333416
C135	C	1.390224	0.174199	0.666750
C136	C	0.722845	-0.551868	0.000076
C137	C	1.056179	-0.218534	0.333409
C138	C	1.389512	0.114799	0.666743
O139	O	0.766632	-0.588620	0.000051
O140	O	1.099966	-0.255287	0.333384
O141	O	1.433299	0.078046	0.666718
N142	N	0.670568	-0.574484	0.000067
N143	N	1.003901	-0.241151	0.333401
N144	N	1.337234	0.092183	0.666734
C145	C	0.618998	-0.537697	0.000057
C146	C	0.952332	-0.204364	0.333390
C147	C	1.285665	0.128970	0.666723
O148	O	0.574467	-0.562388	0.000048
O149	O	0.907800	-0.229055	0.333381
O150	O	1.241133	0.104278	0.666714
C151	C	0.619710	-0.478298	0.000057
C152	C	0.953044	-0.144965	0.333390
C153	C	1.286377	0.188369	0.666724
C154	C	0.671991	-0.455685	0.000075
C155	C	1.005325	-0.122352	0.333408
C156	C	1.338658	0.210982	0.666741
C157	C	0.775834	-0.469854	0.000100
C158	C	1.109167	-0.136521	0.333433
C159	C	1.442500	0.196813	0.666766
C160	C	0.776545	-0.410458	0.000108
C161	C	1.109878	-0.077125	0.333441
C162	C	1.443212	0.256209	0.666775
C163	C	0.724979	-0.373676	0.000100
C164	C	1.058313	-0.040342	0.333433
C165	C	1.391646	0.292991	0.666767
C166	C	0.672703	-0.396289	0.000083
C167	C	1.006036	-0.062956	0.333417
C168	C	1.339369	0.270378	0.666750
C169	C	0.568141	-0.441512	0.000040
C170	C	0.901475	-0.108179	0.333373
C171	C	1.234808	0.225155	0.666707
C172	C	0.568858	-0.382110	0.000040
C173	C	0.902191	-0.048776	0.333373
C174	C	1.235525	0.284557	0.666706
C175	C	0.621139	-0.359497	0.000057
C176	C	0.954472	-0.026163	0.333391
C177	C	1.287806	0.307170	0.666724
C178	C	0.621848	-0.300110	0.000084
C179	C	0.955182	0.033223	0.333417
C180	C	1.288515	0.366556	0.666750
N181	N	0.674126	-0.277494	0.000092
N182	N	1.007459	0.055839	0.333426
N183	N	1.340793	0.389173	0.666759
C184	C	0.725691	-0.314277	0.000100
C185	C	1.059025	0.019057	0.333434
C186	C	1.392358	0.352390	0.666767
C187	C	0.617507	-0.662439	0.000054
C188	C	0.950840	-0.329106	0.333387
C189	C	1.284173	0.004228	0.666721
C190	C	0.616794	-0.721837	0.000060
C191	C	0.950127	-0.388504	0.333393
C192	C	1.283461	-0.055170	0.666726
C193	C	0.720642	-0.736004	0.000078
C194	C	1.053975	-0.402670	0.333411
C195	C	1.387308	-0.069337	0.666744
C196	C	0.721354	-0.676605	0.000078
C197	C	1.054687	-0.343271	0.333411
C198	C	1.388020	-0.009938	0.666745
C199	C	0.669784	-0.639823	0.000063
C200	C	1.003118	-0.306489	0.333396
C201	C	1.336451	0.026844	0.666729
C202	C	0.727181	-0.189540	0.000119
C203	C	1.060514	0.143793	0.333452
C204	C	1.393848	0.477127	0.666786
C205	C	0.727888	-0.130138	0.000131
C206	C	1.061221	0.203195	0.333465
C207	C	1.394554	0.536528	0.666798
C208	C	0.624041	-0.115977	0.000109
C209	C	0.957374	0.217357	0.333442
C210	C	1.290707	0.550690	0.666775
C211	C	0.623334	-0.175373	0.000101
C212	C	0.956667	0.157960	0.333435
C213	C	1.290000	0.491293	0.666768
C214	C	0.674909	-0.212154	0.000103
C215	C	1.008242	0.121179	0.333437
C216	C	1.341575	0.454512	0.666770
O217	O	0.578084	-0.263323	0.000105
O218	O	0.911418	0.070010	0.333438
O219	O	1.244751	0.403344	0.666772
O220	O	0.770216	-0.289577	0.000098
O221	O	1.103549	0.043756	0.333431
O222	O	1.436882	0.377090	0.666764
C223	C	0.776491	0.069244	0.000113
C224	C	1.109825	0.402577	0.333447
C225	C	1.443158	0.735910	0.666780
C226	C	0.839710	0.069998	0.000118
C227	C	1.173043	0.403331	0.333451
C228	C	1.506377	0.736664	0.666785
C229	C	0.667594	0.178158	0.000076
C230	C	1.000927	0.511492	0.333409
C231	C	1.334261	0.844825	0.666742
C232	C	0.668360	0.241375	0.000063
C233	C	1.001693	0.574709	0.333397
C234	C	1.335027	0.908042	0.666730
N235	N	0.672312	0.074017	0.229998
N236	N	1.005645	0.407351	0.563331
N237	N	1.338978	0.740684	0.896664
N238	N	0.672375	0.073998	-0.229803
N239	N	1.005709	0.407331	0.103530
N240	N	1.339042	0.740665	0.436863
C241	C	0.672354	0.074004	0.589199
C242	C	1.005688	0.407338	0.922532
C243	C	1.339021	0.740671	1.255866
C244	C	0.625145	0.120908	0.551575
C245	C	0.958479	0.454242	0.884908
C246	C	1.291812	0.787575	1.218242
C247	C	0.625252	0.121078	0.448749
C248	C	0.958585	0.454411	0.782083
C249	C	1.291919	0.787745	1.115416
C250	C	0.672333	0.074011	0.410995
C251	C	1.005666	0.407344	0.744328
C252	C	1.338999	0.740677	1.077662
C253	C	0.731685	0.086643	0.448294
C254	C	1.065018	0.419976	0.781627
C255	C	1.398352	0.753309	1.114960
C256	C	0.731420	0.086976	0.551151
C257	C	1.064753	0.420309	0.884485
C258	C	1.398087	0.753642	1.217818
C259	C	0.660741	0.014327	0.551309
C260	C	0.994075	0.347660	0.884643
C261	C	1.327408	0.680994	1.217976
C262	C	0.659376	0.014734	0.448445
C263	C	0.992709	0.348067	0.781779
C264	C	1.326042	0.681400	1.115112
C265	C	0.672324	0.074013	0.310282
C266	C	1.005657	0.407347	0.643615
C267	C	1.338991	0.740680	0.976948
C268	C	0.672367	0.074003	0.689912
C269	C	1.005700	0.407336	1.023246
C270	C	1.339033	0.740670	1.356579
H271	H	0.499465	0.077951	-0.145867
H272	H	0.832798	0.411285	0.187466
H273	H	1.166131	0.744618	0.520799
H274	H	0.226245	0.074625	-0.226290
H275	H	0.559578	0.407958	0.107044
H276	H	0.892912	0.741291	0.440377
F277	F	0.569164	-0.076820	0.000100
F278	F	0.902497	0.256513	0.333434
F279	F	1.235831	0.589847	0.666767
F280	F	0.634661	0.178479	0.585323
F281	F	0.967995	0.511813	0.918656
F282	F	1.301328	0.845146	1.251989
F283	F	0.783535	-0.106076	0.000150
F284	F	1.116868	0.227257	0.333483
F285	F	1.450201	0.560591	0.666816
F286	F	0.744862	0.143848	0.582491
F287	F	1.078195	0.477181	0.915824
F288	F	1.411529	0.810515	1.249157
F289	F	-0.162210	0.069980	0.166174
F290	F	0.171123	0.403314	0.499507
F291	F	0.504457	0.736647	0.832840
H292	H	0.769178	-0.219481	0.000117
H293	H	1.102512	0.113853	0.333451
H294	H	1.435845	0.447186	0.666784
H295	H	0.632633	0.165371	0.424128
H296	H	0.965966	0.498704	0.757461
H297	H	1.299299	0.832037	1.090795
F298	F	0.562616	-0.623297	0.000046
F299	F	0.895949	-0.289964	0.333379
F300	F	1.229283	0.043370	0.666712
H301	H	0.763925	-0.658198	0.000092
H302	H	1.097259	-0.324864	0.333425
H303	H	1.430592	0.008469	0.666758
H304	H	0.391697	0.076655	-0.145868
H305	H	0.725030	0.409988	0.187466
H306	H	1.058364	0.743321	0.520799
F307	F	0.778682	0.043158	0.416332
F308	F	1.112015	0.376492	0.749665
F309	F	1.445348	0.709825	1.082998
F310	F	0.775523	-0.775161	0.000082
F311	F	1.108856	-0.441828	0.333415
F312	F	1.442189	-0.108494	0.666748
F313	F	-0.162179	0.069979	-0.165941
F314	F	0.171154	0.403312	0.167393
F315	F	0.504487	0.736645	0.500726
H316	H	0.767629	0.054141	0.576039
H317	H	1.100962	0.387474	0.909372
H318	H	1.434295	0.720808	1.242705
F319	F	0.745462	0.142864	0.414604
F320	F	1.078795	0.476197	0.747938
F321	F	1.412129	0.809531	1.081271
H322	H	0.574222	-0.740243	0.000061
H323	H	0.907555	-0.406909	0.333394
H324	H	1.240888	-0.073576	0.666727
H325	H	0.819117	-0.392053	0.000119
H326	H	1.152451	-0.058719	0.333452
H327	H	1.485784	0.274614	0.666785
H328	H	0.618420	0.002094	0.577295
H329	H	0.951753	0.335428	0.910628
H330	H	1.285087	0.668761	1.243962
F331	F	0.567275	0.111300	0.583915
F332	F	0.900609	0.444633	0.917248
F333	F	1.233942	0.777966	1.250581
H334	H	0.525569	-0.459912	0.000020
H335	H	0.858902	-0.126579	0.333353
H336	H	1.192235	0.206754	0.666687
H337	H	-0.047006	0.071355	-0.145837
H338	H	0.286328	0.404689	0.187497
H339	H	0.619661	0.738022	0.520830
F340	F	0.602310	0.002192	0.416584
F341	F	0.935644	0.335525	0.749918
F342	F	1.268977	0.668858	1.083251
H343	H	0.817827	-0.499797	0.000103
H344	H	1.151160	-0.166464	0.333436
H345	H	1.484494	0.166869	0.666770
F346	F	0.513969	-0.342966	0.000021
F347	F	0.847303	-0.009633	0.333355
F348	F	1.180636	0.323700	0.666688
F349	F	0.567565	0.111337	0.415786
F350	F	0.900898	0.444670	0.749120
F351	F	1.234231	0.778004	1.082453
F352	F	0.567691	-0.199441	0.000098
F353	F	0.901024	0.133893	0.333432
F354	F	1.234358	0.467226	0.666765
H355	H	0.691552	-0.021779	0.422750
H356	H	1.024886	0.311555	0.756083
H357	H	1.358219	0.644888	1.089416
H358	H	0.695173	-0.020573	0.575640
H359	H	1.028506	0.312760	0.908973
H360	H	1.361839	0.646093	1.242307
F361	F	0.233629	0.074754	0.246595
F362	F	0.566962	0.408087	0.579928
F363	F	0.900296	0.741420	0.913262
F364	F	0.384271	0.076563	0.166148
F365	F	0.717604	0.409897	0.499481
F366	F	1.050937	0.743230	0.832815
H367	H	0.499443	0.077966	0.146017
H368	H	0.832776	0.411299	0.479350
H369	H	1.166110	0.744632	0.812684
H370	H	0.118462	0.073360	0.226488
H371	H	0.451796	0.406693	0.559821
H372	H	0.785129	0.740027	0.893154
F373	F	-0.039593	0.071460	0.166176
F374	F	0.293740	0.404793	0.499509
F375	F	0.627073	0.738126	0.832842
H376	H	0.118496	0.073329	-0.226289
H377	H	0.451830	0.406662	0.107044
H378	H	0.785163	0.739996	0.440378
