data_functionalizedCrystal
_audit_creation_method	'MofGen! by Chris Wilmer'
_symmetry_space_group_name_H-M	'P1'
_symmetry_Int_Tables_number	1
_symmetry_cell_setting	triclinic
loop_
_symmetry_equiv_pos_as_xyz
  x,y,z
_cell_length_a	19.288864
_cell_length_b	12.503572
_cell_length_c	19.288865
_cell_angle_alpha	93.519508
_cell_angle_beta	96.863755
_cell_angle_gamma	93.494652
loop_
_atom_site_label
_atom_site_type_symbol
_atom_site_fract_x
_atom_site_fract_y
_atom_site_fract_z
O1	O	0.917303	-0.089677	-0.090690
O2	O	0.715046	-0.089605	-0.102375
O3	O	0.822020	-0.089622	0.004599
O4	O	0.810329	-0.089660	-0.197664
O5	O	0.830068	0.089019	0.012654
O6	O	0.723094	0.089036	-0.094320
O7	O	0.925352	0.088964	-0.082635
Cu8	Cu	0.824958	0.105311	-0.087742
Cu9	Cu	0.815440	-0.105952	-0.097268
O10	O	0.818378	0.088980	-0.189609
C11	C	0.693194	-0.000275	-0.097971
C12	C	0.616092	-0.000247	-0.096841
C13	C	0.571394	-0.000276	-0.159610
C14	C	0.498947	-0.000287	-0.158550
C15	C	0.471199	-0.000292	-0.094718
C16	C	0.515907	-0.000257	-0.031940
C17	C	0.588353	-0.000235	-0.033002
C18	C	0.360116	-0.062904	-0.047362
C19	C	0.287670	-0.062933	-0.046303
C20	C	0.247750	-0.000356	-0.091441
C21	C	0.280283	0.062236	-0.137650
C22	C	0.352730	0.062258	-0.138711
C23	C	0.392644	-0.000316	-0.093560
C24	C	0.124496	-0.000396	-0.153065
C25	C	0.052048	-0.000401	-0.152002
C26	C	0.069009	-0.000382	-0.025391
C27	C	0.141456	-0.000366	-0.026455
C28	C	0.169195	-0.000378	-0.090295
N29	N	0.808745	-0.254544	-0.103963
C30	C	0.798892	-0.473657	-0.113811
C31	C	0.841509	-0.526991	-0.071195
C32	C	0.836026	-0.648913	-0.076675
C33	C	0.804374	-0.351724	-0.108332
C34	C	0.947204	-0.000368	-0.087039
C35	C	1.024306	-0.000404	-0.088169
C36	C	0.825668	-0.000298	0.034503
C37	C	0.824540	-0.000288	0.111607
N38	N	0.831658	0.253902	-0.081041
C39	C	0.814730	-0.000346	-0.219513
C40	C	0.815858	-0.000363	-0.296617
C41	C	0.887307	-0.000305	0.156302
C42	C	0.886245	-0.000322	0.228749
C43	C	0.822414	-0.000300	0.256497
C44	C	0.759639	-0.000289	0.211792
C45	C	0.760701	-0.000283	0.139346
C46	C	0.775055	0.062292	0.367607
C47	C	0.773995	0.062293	0.440052
C48	C	0.819133	-0.000323	0.479942
C49	C	0.865344	-0.062925	0.447381
C50	C	0.866407	-0.062919	0.374936
C51	C	0.821255	-0.000307	0.335051
C52	C	0.880754	-0.000359	0.603193
C53	C	0.879690	-0.000383	0.675640
C54	C	0.753081	-0.000339	0.658681
C55	C	0.754147	-0.000326	0.586235
C56	C	0.817986	-0.000332	0.558496
H57	H	0.593974	-0.000288	-0.211593
H58	H	0.462547	-0.000308	-0.209666
H59	H	0.758291	-0.519558	-0.154408
H60	H	0.939289	-0.000313	0.133722
F61	F	0.693893	-0.000266	0.091776
F62	F	0.894579	-0.466989	-0.018127
H63	H	0.937359	-0.000340	0.265147
H64	H	0.904032	-0.113894	0.348428
H65	H	0.902100	-0.113913	0.479858
H66	H	0.932735	-0.000369	0.580606
F67	F	0.724817	0.128923	0.474699
H68	H	0.930804	-0.000402	0.712030
F69	F	0.253052	-0.129558	0.002869
H70	H	0.015656	-0.000418	-0.203118
F71	F	0.685147	-0.000321	0.688208
F72	F	0.687341	-0.000304	0.538665
F73	F	0.691705	-0.000273	0.241324
F74	F	0.387351	0.128875	-0.187886
F75	F	0.237803	0.128840	-0.185693
H76	H	0.046415	-0.000452	0.026579
H77	H	0.177850	-0.000348	0.024658
H78	H	0.147083	-0.000391	-0.205046
F79	F	0.402595	-0.129511	0.000684
H80	H	0.493309	-0.000275	0.020032
F81	F	0.635926	-0.000204	0.033809
F82	F	0.727010	0.128942	0.325159
