data_functionalizedCrystal
_audit_creation_method	'MofGen! by Chris Wilmer'
_symmetry_space_group_name_H-M	'P1'
_symmetry_Int_Tables_number	1
_symmetry_cell_setting	triclinic
loop_
_symmetry_equiv_pos_as_xyz
  x,y,z
_cell_length_a	15.944499
_cell_length_b	10.489741
_cell_length_c	15.021413
_cell_angle_alpha	90.004340
_cell_angle_beta	90.009905
_cell_angle_gamma	95.991608
loop_
_atom_site_label
_atom_site_type_symbol
_atom_site_fract_x
_atom_site_fract_y
_atom_site_fract_z
O1	O	1.115543	-0.164171	0.074085
O2	O	0.871110	-0.184522	0.074075
O3	O	0.998888	0.011330	0.074075
O4	O	0.987764	-0.360023	0.074085
O5	O	0.998868	0.011302	-0.073989
O6	O	0.871089	-0.184550	-0.073989
O7	O	1.115523	-0.164199	-0.073979
Zn8	Zn	0.993303	-0.174379	-0.097493
Zn9	Zn	0.993330	-0.174342	0.097588
O10	O	0.987744	-0.360051	-0.073979
C11	C	0.839800	-0.183703	0.000042
C12	C	0.746536	-0.181205	0.000038
C13	C	0.455685	-0.294990	0.000054
C14	C	0.516368	-0.235828	0.073057
C15	C	0.410845	-0.172130	0.000058
C16	C	0.516334	-0.235822	-0.072922
C17	C	0.575781	-0.176595	0.000047
C18	C	0.470301	-0.112934	0.073122
C19	C	0.470260	-0.112946	-0.072924
C20	C	0.530926	-0.053694	0.000098
C21	C	0.315830	-0.169561	0.000065
C22	C	0.670795	-0.179155	0.000046
C23	C	0.998038	0.058836	0.000043
C24	C	0.995524	0.200430	0.000045
C25	C	1.146832	-0.165019	0.000056
C26	C	1.240096	-0.167516	0.000066
C27	C	0.988594	-0.407557	0.000054
C28	C	0.991108	-0.549151	0.000059
N29	N	0.993291	-0.174403	-0.230630
C30	C	0.914223	0.267420	0.000048
C31	C	0.952619	0.360072	-0.072954
C32	C	0.952658	0.360074	0.073026
C33	C	1.033954	0.291217	-0.073017
C34	C	1.033982	0.291209	0.073028
C35	C	1.072437	0.383835	0.000008
C36	C	0.934196	-0.264923	-0.470313
C37	C	1.010247	-0.289664	-0.529644
C38	C	0.993312	-0.174371	-0.412237
C39	C	0.917282	-0.149659	-0.529648
C40	C	0.993326	-0.174344	-0.587661
C41	C	1.069401	-0.199170	-0.470261
C42	C	0.976386	-0.059115	-0.470260
C43	C	1.052491	-0.083807	-0.529564
C44	C	0.993303	-0.174391	-0.311180
C45	C	0.993343	-0.174323	-0.688716
N46	N	0.993348	-0.174308	0.230726
H47	H	0.847377	0.216823	-0.000028
N48	N	0.907096	0.400483	0.154782
H49	H	0.906208	0.496616	0.154483
H50	H	0.847359	0.357612	0.154664
H51	H	0.563489	0.048359	0.000134
H52	H	1.102544	-0.007214	-0.555416
N53	N	0.412335	-0.430038	0.000142
H54	H	0.456106	-0.493033	0.000749
H55	H	0.375528	-0.443322	0.054758
N56	N	0.832104	-0.121985	-0.564196
H57	H	0.818853	-0.035607	-0.541667
H58	H	0.832953	-0.121424	-0.631424
N59	N	0.443186	-0.044174	-0.154678
H60	H	0.459750	-0.090675	-0.209797
H61	H	0.379996	-0.042252	-0.153675
N62	N	1.079529	0.250745	0.154783
H63	H	1.048775	0.275502	0.209901
H64	H	1.081361	0.154806	0.153780
N65	N	0.543337	-0.304688	-0.154671
H66	H	0.515698	-0.395819	-0.154600
H67	H	0.525754	-0.259117	-0.209767
N68	N	0.907053	0.400514	-0.154709
H69	H	0.937163	0.374241	-0.209844
H70	H	0.847293	0.357732	-0.154584
N71	N	1.161057	0.450569	-0.000046
H72	H	1.158878	0.546448	0.000478
H73	H	1.191981	0.424322	0.054562
H74	H	1.068316	0.260859	-0.134804
H75	H	0.884256	-0.341561	-0.444298
N76	N	0.543396	-0.304649	0.154817
H77	H	0.573029	-0.380899	0.136202
H78	H	0.583075	-0.244174	0.191358
N79	N	1.029236	-0.418749	-0.564197
H80	H	0.984546	-0.487106	-0.542651
H81	H	1.029662	-0.417408	-0.631424
N82	N	1.154602	-0.226988	-0.435864
H83	H	1.154064	-0.226864	-0.368629
H84	H	1.167479	-0.313722	-0.458054
H85	H	0.962033	0.038311	-0.444156
H86	H	0.450018	-0.061006	0.134910
