data_functionalizedCrystal
_audit_creation_method	'MofGen! by Chris Wilmer'
_symmetry_space_group_name_H-M	'P1'
_symmetry_Int_Tables_number	1
_symmetry_cell_setting	triclinic
loop_
_symmetry_equiv_pos_as_xyz
  x,y,z
_cell_length_a	12.759399
_cell_length_b	16.120530
_cell_length_c	12.759393
_cell_angle_alpha	92.920001
_cell_angle_beta	90.030906
_cell_angle_gamma	87.110771
loop_
_atom_site_label
_atom_site_type_symbol
_atom_site_fract_x
_atom_site_fract_y
_atom_site_fract_z
Zn1	Zn	-0.499768	1.274633	0.675423
Zn2	Zn	-0.675478	1.274545	0.499736
Zn3	Zn	-0.490899	1.135207	0.490853
Zn4	Zn	-0.666484	1.135200	0.666474
O5	O	-0.583157	1.204896	0.583121
O6	O	-0.530552	1.391288	0.659580
O7	O	-0.651045	1.256028	0.351534
O8	O	-0.345057	1.153742	0.515364
O9	O	-0.659645	1.391224	0.530504
O10	O	-0.351573	1.256177	0.650967
O11	O	-0.515435	1.153657	0.345008
O12	O	-0.506715	1.018539	0.506687
O13	O	-0.644317	1.153729	0.814684
O14	O	-0.635717	1.018534	0.635715
O15	O	-0.521831	1.256170	0.821259
O16	O	-0.821303	1.256021	0.521826
O17	O	-0.814696	1.153644	0.644328
C18	C	-0.856121	1.204845	0.583094
C19	C	-0.972901	1.204900	0.583123
C20	C	-0.569278	0.988286	0.569266
C21	C	-0.563366	0.895619	0.563364
C22	C	-1.031173	1.258268	0.519416
C23	C	-1.140900	1.258322	0.519455
C24	C	-1.134075	1.151631	0.646909
C25	C	-1.024349	1.151582	0.646875
C26	C	-0.552547	0.725956	0.552597
C27	C	-0.613845	0.684677	0.613722
C28	C	-0.607825	0.590271	0.607731
C29	C	-0.558565	0.820371	0.558587
C30	C	-0.309129	1.204970	0.583173
C31	C	-0.192354	1.205002	0.583195
C32	C	-0.583060	1.204959	0.857159
C33	C	-0.583019	1.204985	0.973937
C34	C	-0.597091	1.422352	0.597031
C35	C	-0.603029	1.515019	0.602958
C36	C	-0.583181	1.204882	0.310153
C37	C	-0.582937	1.205017	0.193386
C38	C	-0.519230	1.258330	1.032225
C39	C	-0.519186	1.258344	1.141950
C40	C	-0.646728	1.151666	1.135090
C41	C	-0.646766	1.151648	1.025367
H42	H	-0.989287	1.301683	0.467507
H43	H	-1.188340	1.301781	0.467580
Br44	Br	-1.203904	1.079275	0.733424
H45	H	-0.976901	1.108123	0.698757
Br46	Br	-0.457549	0.666687	0.457882
Br47	Br	-0.733333	1.079239	0.946254
H48	H	-0.670842	0.720239	0.670553
H49	H	-0.467320	1.301758	0.990354
Br50	Br	-0.432619	1.330750	1.221051
Br51	Br	-0.733242	1.079287	1.204894
