data_functionalizedCrystal
_audit_creation_method	'MofGen! by Chris Wilmer'
_symmetry_space_group_name_H-M	'P1'
_symmetry_Int_Tables_number	1
_symmetry_cell_setting	triclinic
loop_
_symmetry_equiv_pos_as_xyz
  x,y,z
_cell_length_a	15.995350
_cell_length_b	9.065218
_cell_length_c	7.540329
_cell_angle_alpha	90.001757
_cell_angle_beta	89.999312
_cell_angle_gamma	84.254130
loop_
_atom_site_label
_atom_site_type_symbol
_atom_site_fract_x
_atom_site_fract_y
_atom_site_fract_z
O1	O	-1.112426	-0.190160	-0.147325
O2	O	-0.868829	-0.213643	-0.147360
O3	O	-0.995662	0.012860	-0.147338
O4	O	-0.985592	-0.416662	-0.147347
O5	O	-0.995655	0.012862	0.147627
O6	O	-0.868821	-0.213640	0.147605
O7	O	-1.112418	-0.190157	0.147640
Cu8	Cu	-0.990619	-0.201898	0.174555
Cu9	Cu	-0.990628	-0.201902	-0.174275
O10	O	-0.985585	-0.416660	0.147618
C11	C	-0.994691	0.067825	0.000141
C12	C	-0.991797	0.231600	0.000132
C13	C	-0.837623	-0.212670	0.000117
C14	C	-0.744650	-0.209760	0.000104
C15	C	-1.143624	-0.191129	0.000158
C16	C	-1.236597	-0.194040	0.000161
C17	C	-0.406824	-0.199308	0.000141
C18	C	-0.453034	-0.037997	0.000802
C19	C	-0.549747	-0.040908	0.000125
C20	C	-0.574423	-0.204492	0.000123
C21	C	-0.533944	-0.284058	-0.168311
C22	C	-0.437278	-0.280005	-0.168439
C23	C	-0.436955	-0.283335	0.166991
C24	C	-0.533900	-0.283297	0.169205
C25	C	-0.669143	-0.207431	0.000108
C26	C	-0.312103	-0.196374	0.000145
C27	C	-0.986556	-0.471625	0.000135
C28	C	-0.989450	-0.635400	0.000132
N29	N	-0.990619	-0.201895	0.419904
N30	N	-0.990635	-0.201893	-0.419624
H31	H	-0.577698	0.021635	0.120866
H32	H	-0.548981	-0.404239	-0.174575
Br33	Br	-0.561010	-0.482131	0.186162
Br34	Br	-0.385020	-0.477392	-0.181181
H35	H	-0.418532	-0.221985	-0.294347
Br36	Br	-0.421339	0.069480	0.202132
Br37	Br	-0.580539	-0.191959	-0.377245
Br38	Br	-0.385524	-0.481565	0.168889
Br39	Br	-0.402061	-0.195432	0.379784
Br40	Br	-0.419566	0.068993	-0.199393
H41	H	-0.577130	0.022055	-0.120824
H42	H	-0.560773	-0.225215	0.293812
