data_functionalizedCrystal
_audit_creation_method	'MofGen! by Chris Wilmer'
_symmetry_space_group_name_H-M	'P1'
_symmetry_Int_Tables_number	1
_symmetry_cell_setting	triclinic
loop_
_symmetry_equiv_pos_as_xyz
  x,y,z
_cell_length_a	6.817900
_cell_length_b	11.102289
_cell_length_c	10.943624
_cell_angle_alpha	91.861746
_cell_angle_beta	108.838799
_cell_angle_gamma	108.605707
loop_
_atom_site_label
_atom_site_type_symbol
_atom_site_fract_x
_atom_site_fract_y
_atom_site_fract_z
V1	V	-4.114282	-0.175806	-0.402551
O2	O	-4.073263	0.008482	-0.394888
O3	O	-4.091041	-0.348626	-0.399798
O4	O	-4.092264	-0.173086	-0.578117
O5	O	-4.072031	-0.168273	-0.215334
V6	V	-4.591232	-0.153765	-0.380158
O7	O	-4.389960	-0.224155	-0.451671
O8	O	-4.765752	-0.105415	-0.331038
O9	O	-4.391267	0.019056	-0.382912
O10	O	-4.749649	-0.338053	-0.387821
O11	O	-4.750880	-0.161298	-0.567375
O12	O	-4.390044	-0.156484	-0.204592
C13	C	-3.941308	-0.390757	-0.393447
C14	C	-4.003768	-0.532039	-0.392366
C15	C	-3.942867	-0.166837	-0.620910
C16	C	-4.006314	-0.165757	-0.764437
C17	C	-4.217163	-0.604887	-0.398299
C18	C	-4.275844	-0.737639	-0.397294
C19	C	-3.907711	-0.724682	-0.384419
C20	C	-3.849038	-0.591934	-0.385432
C21	C	-4.429699	-0.612368	-0.405727
C22	C	-4.488380	-0.745120	-0.404723
C23	C	-3.851194	-0.158485	-0.841584
C24	C	-4.039808	-0.266416	-0.947574
C25	C	-3.930779	-0.055914	-0.914187
C26	C	-4.194138	-0.273789	-0.868550
C27	C	-4.085029	-0.063191	-0.835140
C28	C	-4.273779	-0.171153	-0.941100
C29	C	-4.204342	0.061180	-0.389259
C30	C	-4.121122	0.202461	-0.390348
C31	C	-4.202783	-0.162738	-0.161792
C32	C	-4.118573	-0.163811	-0.018265
H33	H	-3.781744	-0.773465	-0.378775
H34	H	-4.542207	-0.593140	-0.499624
O35	O	-4.548968	-0.775153	-0.299585
C36	C	-4.607908	-0.908864	-0.298746
H37	H	-4.657774	-0.960014	-0.401893
H38	H	-4.752761	-0.944046	-0.262660
H39	H	-4.460857	-0.930657	-0.231008
H40	H	-4.429145	-0.559149	-0.314695
H41	H	-4.620843	-0.802979	-0.500372
O42	O	-3.637564	-0.152439	-0.789610
C43	C	-3.629393	-0.261986	-0.729410
H44	H	-3.783624	-0.303678	-0.702881
H45	H	-3.476175	-0.233784	-0.637059
H46	H	-3.621771	-0.337077	-0.799608
H47	H	-4.021353	-0.352332	-0.996523
H48	H	-4.304885	-0.365970	-0.848005
H49	H	-4.453056	-0.176535	-0.984345
O50	O	-4.106608	0.039448	-0.776720
C51	C	-3.966655	0.154070	-0.799230
H52	H	-3.826340	0.134684	-0.821510
H53	H	-3.895075	0.229769	-0.708607
H54	H	-4.065376	0.190442	-0.885774
O55	O	-3.798568	0.054040	-0.938667
C56	C	-3.644211	0.129525	-0.819623
H57	H	-3.710926	0.102245	-0.737524
H58	H	-3.615540	0.235521	-0.827110
H59	H	-3.481353	0.111849	-0.797974
O60	O	-3.641725	-0.521012	-0.379506
C61	C	-3.538794	-0.426629	-0.267350
H62	H	-3.670488	-0.406615	-0.235636
H63	H	-3.432656	-0.334417	-0.290602
H64	H	-3.430006	-0.462532	-0.185123
