data_functionalizedCrystal
_audit_creation_method	'MofGen! by Chris Wilmer'
_symmetry_space_group_name_H-M	'P1'
_symmetry_Int_Tables_number	1
_symmetry_cell_setting	triclinic
loop_
_symmetry_equiv_pos_as_xyz
  x,y,z
_cell_length_a	17.038272
_cell_length_b	14.519709
_cell_length_c	13.596369
_cell_angle_alpha	89.999709
_cell_angle_beta	89.993837
_cell_angle_gamma	92.604149
loop_
_atom_site_label
_atom_site_type_symbol
_atom_site_fract_x
_atom_site_fract_y
_atom_site_fract_z
O1	O	0.102502	-1.231711	-0.081664
O2	O	0.602502	-0.731711	0.418336
O3	O	0.114573	-0.964158	-0.081694
O4	O	0.614573	-0.464158	0.418306
O5	O	-0.005280	-1.096344	-0.081671
O6	O	0.494720	-0.596344	0.418329
O7	O	0.222356	-1.099525	-0.081686
O8	O	0.722356	-0.599525	0.418314
O9	O	-0.005286	-1.096330	0.081912
O10	O	0.494714	-0.596330	0.581912
O11	O	0.114567	-0.964143	0.081889
O12	O	0.614567	-0.464143	0.581889
O13	O	0.102496	-1.231696	0.081919
O14	O	0.602496	-0.731696	0.581919
Zn15	Zn	0.108530	-1.097918	0.107877
Zn16	Zn	0.608530	-0.597918	0.607877
Zn17	Zn	0.108539	-1.097937	-0.107651
Zn18	Zn	0.608539	-0.597937	0.392349
O19	O	0.222349	-1.099510	0.081897
O20	O	0.722349	-0.599510	0.581897
C21	C	0.114008	-0.929748	0.000094
C22	C	0.614008	-0.429748	0.500094
C23	C	0.112322	-0.827237	0.000083
C24	C	0.612322	-0.327237	0.500083
C25	C	-0.034416	-1.093444	0.000120
C26	C	0.465584	-0.593444	0.500120
C27	C	-0.121223	-1.084814	0.000119
C28	C	0.378777	-0.584814	0.500119
N29	N	0.108524	-1.097911	0.254968
N30	N	0.608524	-0.597911	0.754968
C31	C	-0.171209	-1.164047	0.000129
C32	C	0.328791	-0.664047	0.500129
C33	C	-0.252773	-1.155933	0.000118
C34	C	0.247227	-0.655933	0.500118
C35	C	-0.284349	-1.068585	0.000105
C36	C	0.215651	-0.568585	0.500105
C37	C	-0.234357	-0.989347	0.000092
C38	C	0.265643	-0.489347	0.500092
C39	C	-0.152795	-0.997462	0.000096
C40	C	0.347205	-0.497462	0.500096
C41	C	-0.530153	-1.039916	0.000089
C42	C	-0.030153	-0.539916	0.500089
C43	C	-0.611722	-1.031807	0.000088
C44	C	-0.111722	-0.531807	0.500088
C45	C	-0.630132	-1.198394	0.000112
C46	C	-0.130132	-0.698394	0.500112
C47	C	-0.548568	-1.206502	0.000122
C48	C	-0.048568	-0.706502	0.500122
C49	C	-0.498583	-1.127263	0.000104
C50	C	0.001417	-0.627263	0.500104
C51	C	-0.367720	-1.060289	0.000098
C52	C	0.132280	-0.560289	0.500098
C53	C	-0.415213	-1.135560	0.000104
C54	C	0.084787	-0.635560	0.500104
C55	C	0.251486	-1.102410	0.000103
C56	C	0.751486	-0.602410	0.500103
C57	C	0.338292	-1.111040	0.000098
C58	C	0.838292	-0.611040	0.500098
C59	C	0.103062	-1.266107	0.000129
C60	C	0.603062	-0.766107	0.500129
C61	C	0.104748	-1.368617	0.000134
C62	C	0.604748	-0.868617	0.500134
C63	C	0.106116	-0.451867	0.000128
C64	C	0.606116	0.048133	0.500128
C65	C	0.107839	-0.556307	0.000115
C66	C	0.607839	-0.056307	0.500115
C67	C	0.109219	-0.639549	0.000104
C68	C	0.609219	-0.139549	0.500104
C69	C	0.110942	-0.743995	0.000093
C70	C	0.610942	-0.243995	0.500093
N71	N	0.108539	-1.097950	-0.254743
N72	N	0.608539	-0.597950	0.245257
C73	C	0.108540	-1.097936	0.656259
C74	C	0.608540	-0.597936	1.156259
C75	C	0.108538	-1.097926	0.544608
C76	C	0.608538	-0.597926	1.044608
C77	C	0.108533	-1.097924	0.455617
C78	C	0.608533	-0.597924	0.955617
C79	C	0.108530	-1.097913	0.343959
C80	C	0.608530	-0.597913	0.843959
H81	H	-0.293468	-1.220453	0.000129
H82	H	0.206532	-0.720453	0.500129
O83	O	-0.481717	-0.962852	0.000128
O84	O	0.018283	-0.462852	0.500128
C85	C	-0.472071	-0.796765	0.000064
C86	C	0.027929	-0.296765	0.500064
C87	C	-0.527020	-0.883967	0.000037
C88	C	-0.027020	-0.383967	0.500037
H89	H	-0.508676	-0.732965	-0.000030
H90	H	-0.008676	-0.232965	0.499970
H91	H	-0.433448	-0.796329	0.068541
H92	H	0.066552	-0.296329	0.568541
H93	H	-0.433402	-0.796450	-0.068378
H94	H	0.066598	-0.296450	0.431622
H95	H	-0.565738	-0.884340	0.068432
H96	H	-0.065738	-0.384340	0.568432
H97	H	-0.565590	-0.884369	-0.068485
H98	H	-0.065590	-0.384369	0.431515
H99	H	-0.393438	-0.989170	0.000089
H100	H	0.106562	-0.489170	0.500089
O101	O	-0.140576	-1.248918	-0.000035
O102	O	0.359424	-0.748918	0.499965
C103	C	-0.131392	-1.393806	-0.084743
C104	C	0.368608	-0.893806	0.415257
C105	C	-0.166118	-1.297709	-0.084686
C106	C	0.333882	-0.797709	0.415314
H107	H	-0.152042	-1.433288	-0.153165
H108	H	0.347958	-0.933288	0.346835
H109	H	-0.064507	-1.386053	-0.084805
H110	H	0.435493	-0.886053	0.415195
H111	H	-0.151962	-1.433243	-0.016250
H112	H	0.348038	-0.933243	0.483750
H113	H	-0.145607	-1.258219	-0.153167
H114	H	0.354393	-0.758219	0.346833
H115	H	-0.232998	-1.305528	-0.084573
H116	H	0.267002	-0.805528	0.415427
H117	H	-0.260072	-0.918226	0.000075
H118	H	0.239928	-0.418226	0.500075
O119	O	-0.518027	-1.291422	0.000094
O120	O	-0.018027	-0.791422	0.500094
C121	C	-0.544897	-1.455797	0.000193
C122	C	-0.044897	-0.955797	0.500193
C123	C	-0.579589	-1.359682	0.000191
C124	C	-0.079589	-0.859682	0.500191
H125	H	-0.594654	-1.511011	0.000292
H126	H	-0.094654	-1.011011	0.500292
H127	H	-0.507191	-1.463835	-0.068276
H128	H	-0.007191	-0.963835	0.431724
H129	H	-0.507155	-1.463696	0.068642
H130	H	-0.007155	-0.963696	0.568642
H131	H	-0.617367	-1.351716	-0.068212
H132	H	-0.117367	-0.851716	0.431788
H133	H	-0.617251	-1.351687	0.068705
H134	H	-0.117251	-0.851687	0.568705
O135	O	-0.678720	-1.275334	-0.000054
O136	O	-0.178720	-0.775334	0.499946
C137	C	-0.781514	-1.362832	-0.084770
C138	C	-0.281514	-0.862832	0.415230
C139	C	-0.726522	-1.275667	-0.084710
C140	C	-0.226522	-0.775667	0.415290
H141	H	-0.820188	-1.363120	-0.153196
H142	H	-0.320188	-0.863120	0.346804
H143	H	-0.744975	-1.426688	-0.084825
H144	H	-0.244975	-0.926688	0.415175
H145	H	-0.820132	-1.363186	-0.016281
H146	H	-0.320132	-0.863186	0.483719
H147	H	-0.687893	-1.275224	-0.153187
H148	H	-0.187893	-0.775224	0.346813
H149	H	-0.763108	-1.211851	-0.084603
H150	H	-0.263108	-0.711851	0.415397
H151	H	-0.637427	-0.960675	0.000093
H152	H	-0.137427	-0.460675	0.500093
H153	H	-0.112096	-0.932942	0.000087
H154	H	0.387904	-0.432942	0.500087
O155	O	-0.384450	-1.220357	-0.000014
O156	O	0.115550	-0.720357	0.499986
C157	C	-0.303071	-1.326219	-0.084770
C158	C	0.196929	-0.826219	0.415230
C159	C	-0.337852	-1.230152	-0.084752
C160	C	0.162148	-0.730152	0.415248
H161	H	-0.265403	-1.334178	-0.153284
H162	H	0.234597	-0.834178	0.346716
H163	H	-0.265299	-1.334184	-0.016356
H164	H	0.234701	-0.834184	0.483644
H165	H	-0.352817	-1.381447	-0.084712
H166	H	0.147183	-0.881447	0.415288
H167	H	-0.288157	-1.174867	-0.084845
H168	H	0.211843	-0.674867	0.415155
H169	H	-0.375645	-1.222267	-0.153161
H170	H	0.124355	-0.722267	0.346839
