data_functionalizedCrystal
_audit_creation_method	'MofGen! by Chris Wilmer'
_symmetry_space_group_name_H-M	'P1'
_symmetry_Int_Tables_number	1
_symmetry_cell_setting	triclinic
loop_
_symmetry_equiv_pos_as_xyz
  x,y,z
_cell_length_a	27.731988
_cell_length_b	26.809956
_cell_length_c	10.723023
_cell_angle_alpha	90.004777
_cell_angle_beta	83.542959
_cell_angle_gamma	89.996792
loop_
_atom_site_label
_atom_site_type_symbol
_atom_site_fract_x
_atom_site_fract_y
_atom_site_fract_z
O1	O	-0.641869	0.041414	-0.148093
O2	O	-0.141869	0.541414	0.351907
O3	O	-0.501212	0.041430	-0.170745
O4	O	-0.001212	0.541430	0.329255
O5	O	-0.574786	0.041419	0.022293
O6	O	-0.074786	0.541419	0.522293
O7	O	-0.568296	0.041425	-0.341131
O8	O	-0.068296	0.541425	0.158869
O9	O	-0.574772	-0.041540	0.022264
O10	O	-0.074772	0.458460	0.522264
O11	O	-0.501198	-0.041530	-0.170774
O12	O	-0.001198	0.458470	0.329226
O13	O	-0.641855	-0.041545	-0.148123
O14	O	-0.141855	0.458455	0.351877
Zn15	Zn	-0.571525	-0.054709	-0.159453
Zn16	Zn	-0.071525	0.445291	0.340547
Zn17	Zn	-0.571543	0.054594	-0.159414
Zn18	Zn	-0.071543	0.554594	0.340586
O19	O	-0.568282	-0.041534	-0.341161
O20	O	-0.068282	0.458466	0.158839
C21	C	-0.483195	-0.000048	-0.170296
C22	C	0.016805	0.499952	0.329704
C23	C	-0.429530	-0.000042	-0.168899
C24	C	0.070470	0.499958	0.331101
C25	C	-0.096748	-0.045286	-0.160114
C26	C	0.403252	0.454714	0.339886
C27	C	0.104943	-0.045294	-0.154802
C28	C	0.604943	0.454706	0.345198
O29	O	0.131027	-0.083753	-0.154076
O30	O	0.631027	0.416247	0.345924
N31	N	0.130155	-0.000073	-0.154127
N32	N	0.630155	0.499927	0.345873
C33	C	0.104940	0.045153	-0.154771
C34	C	0.604940	0.545153	0.345229
O35	O	0.131011	0.083616	-0.154061
O36	O	0.631011	0.583616	0.345939
C37	C	-0.096752	0.045160	-0.160073
C38	C	0.403248	0.545160	0.339927
C39	C	-0.121960	-0.000064	-0.160762
C40	C	0.378040	0.499936	0.339238
C41	C	-0.121957	-0.090506	-0.160801
C42	C	0.378043	0.409494	0.339199
C43	C	-0.172376	-0.090504	-0.162136
C44	C	0.327624	0.409496	0.337864
C45	C	-0.197588	-0.045281	-0.162783
C46	C	0.302412	0.454719	0.337217
C47	C	-0.172379	-0.000061	-0.162096
C48	C	0.327621	0.499939	0.337904
C49	C	-0.121966	0.090386	-0.160708
C50	C	0.378034	0.590386	0.339292
C51	C	-0.172392	0.090383	-0.162031
C52	C	0.327608	0.590383	0.337969
C53	C	-0.197600	0.045160	-0.162719
C54	C	0.302400	0.545160	0.337281
C55	C	-0.248010	0.045164	-0.164079
C56	C	0.251990	0.545164	0.335921
N57	N	-0.273222	-0.000057	-0.164755
N58	N	0.226778	0.499943	0.335245
C59	C	-0.248010	-0.045280	-0.164107
C60	C	0.251990	0.454720	0.335893
C61	C	0.210831	0.045146	-0.151989
C62	C	0.710831	0.545146	0.348011
C63	C	0.261253	0.045144	-0.150666
C64	C	0.761253	0.545144	0.349334
C65	C	0.261253	-0.045303	-0.150695
C66	C	0.761253	0.454697	0.349305
C67	C	0.210830	-0.045300	-0.152028
C68	C	0.710830	0.454700	0.347972
C69	C	0.185619	-0.000075	-0.152665
C70	C	0.685619	0.499925	0.347335
C71	C	-0.353895	-0.045271	-0.166911
C72	C	0.146105	0.454729	0.333089
C73	C	-0.404319	-0.045265	-0.168251
C74	C	0.095681	0.454735	0.331749
C75	C	-0.404315	0.045182	-0.168215
C76	C	0.095685	0.545182	0.331785
C77	C	-0.353895	0.045176	-0.166881
C78	C	0.146105	0.545176	0.333119
C79	C	-0.328687	-0.000055	-0.166225
C80	C	0.171313	0.499945	0.333775
O81	O	-0.274126	0.083602	-0.164792
O82	O	0.225874	0.583602	0.335208
O83	O	-0.274091	-0.083737	-0.164789
O84	O	0.225909	0.416263	0.335211
C85	C	-0.046329	-0.045288	-0.158779
C86	C	0.453671	0.454712	0.341221
C87	C	-0.021121	-0.000068	-0.158092
C88	C	0.478879	0.499932	0.341908
C89	C	-0.046332	0.045154	-0.158740
C90	C	0.453668	0.545154	0.341260
C91	C	0.029302	-0.000070	-0.156769
C92	C	0.529302	0.499930	0.343231
C93	C	0.054513	-0.045293	-0.156121
C94	C	0.554513	0.454707	0.343879
C95	C	0.029302	-0.090513	-0.156797
C96	C	0.529302	0.409487	0.343203
C97	C	-0.021118	-0.090511	-0.158132
C98	C	0.478882	0.409489	0.341868
C99	C	-0.021120	0.090375	-0.158065
C100	C	0.478880	0.590375	0.341935
C101	C	0.029299	0.090369	-0.156731
C102	C	0.529299	0.590369	0.343269
C103	C	0.054511	0.045146	-0.156084
C104	C	0.554511	0.545146	0.343916
N105	N	-0.571516	-0.129305	-0.159479
N106	N	-0.071516	0.370695	0.340521
C107	C	-0.604117	-0.473936	-0.073958
C108	C	-0.104117	0.026064	0.426042
C109	C	-0.604129	-0.682813	-0.073939
C110	C	-0.104129	-0.182813	0.426061
O111	O	-0.631828	-0.709821	-0.001234
O112	O	-0.131828	-0.209821	0.498766
N113	N	-0.571546	-0.708932	-0.159387
N114	N	-0.071546	-0.208932	0.340613
C115	C	-0.538955	-0.682828	-0.244840
C116	C	-0.038955	-0.182828	0.255160
O117	O	-0.511239	-0.709836	-0.317510
O118	O	-0.011239	-0.209836	0.182490
C119	C	-0.538942	-0.473951	-0.244853
C120	C	-0.038942	0.026049	0.255147
C121	C	-0.571530	-0.447835	-0.159407
C122	C	-0.071530	0.052165	0.340593
C123	C	-0.636702	-0.447820	0.011481
C124	C	-0.136702	0.052180	0.511481
C125	C	-0.636701	-0.395603	0.011471
C126	C	-0.136701	0.104397	0.511471
C127	C	-0.604114	-0.369503	-0.073978
C128	C	-0.104114	0.130497	0.426022
C129	C	-0.571529	-0.395619	-0.159418
C130	C	-0.071529	0.104381	0.340582
C131	C	-0.506350	-0.447848	-0.330299
C132	C	-0.006350	0.052152	0.169701
C133	C	-0.506349	-0.395625	-0.330292
C134	C	-0.006349	0.104375	0.169708
C135	C	-0.538937	-0.369510	-0.244847
C136	C	-0.038937	0.130490	0.255153
C137	C	-0.538941	-0.317302	-0.244877
C138	C	-0.038941	0.182698	0.255123
N139	N	-0.571524	-0.291184	-0.159429
N140	N	-0.071524	0.208816	0.340571
C141	C	-0.604111	-0.317284	-0.073980
C142	C	-0.104111	0.182716	0.426020
C143	C	-0.538965	-0.792491	-0.244829
C144	C	-0.038965	-0.292491	0.255171
C145	C	-0.538969	-0.844710	-0.244828
C146	C	-0.038969	-0.344710	0.255172
C147	C	-0.604142	-0.844692	-0.073925
C148	C	-0.104142	-0.344692	0.426075
C149	C	-0.604140	-0.792472	-0.073933
C150	C	-0.104140	-0.292472	0.426067
C151	C	-0.571548	-0.766373	-0.159381
C152	C	-0.071548	-0.266373	0.340619
C153	C	-0.604105	-0.207626	-0.074008
C154	C	-0.104105	0.292374	0.425992
C155	C	-0.604102	-0.155405	-0.074030
C156	C	-0.104102	0.344595	0.425970
C157	C	-0.538928	-0.155428	-0.244928
C158	C	-0.038928	0.344572	0.255072
C159	C	-0.538933	-0.207644	-0.244912
C160	C	-0.038933	0.292356	0.255088
C161	C	-0.571523	-0.233742	-0.159441
C162	C	-0.071523	0.266258	0.340559
O163	O	-0.511253	-0.290262	-0.317535
O164	O	-0.011253	0.209738	0.182465
O165	O	-0.631816	-0.290267	-0.001303
O166	O	-0.131816	0.209733	0.498697
C167	C	-0.604119	-0.526152	-0.073948
C168	C	-0.104119	-0.026152	0.426052
C169	C	-0.571533	-0.552268	-0.159387
C170	C	-0.071533	-0.052268	0.340613
C171	C	-0.538946	-0.526167	-0.244836
C172	C	-0.038946	-0.026167	0.255164
C173	C	-0.571537	-0.604487	-0.159386
C174	C	-0.071537	-0.104487	0.340614
C175	C	-0.604124	-0.630587	-0.073936
C176	C	-0.104124	-0.130587	0.426064
C177	C	-0.636707	-0.604468	0.011512
C178	C	-0.136707	-0.104468	0.511512
C179	C	-0.636705	-0.552252	0.011501
C180	C	-0.136705	-0.052252	0.511501
C181	C	-0.506364	-0.552286	-0.330284
C182	C	-0.006364	-0.052286	0.169716
C183	C	-0.506368	-0.604502	-0.330268
C184	C	-0.006368	-0.104502	0.169732
C185	C	-0.538955	-0.630603	-0.244819
C186	C	-0.038955	-0.130603	0.255181
C187	C	0.340128	-0.000068	-0.148584
C188	C	0.840128	0.499932	0.351416
C189	C	0.286464	-0.000078	-0.150018
C190	C	0.786464	0.499922	0.349982
C191	C	-0.574306	-0.000060	0.068758
C192	C	-0.074306	0.499940	0.568758
C193	C	-0.572894	-0.000059	0.207253
C194	C	-0.072894	0.499941	0.707253
N195	N	-0.571556	0.129190	-0.159379
N196	N	-0.071556	0.629190	0.340621
C197	C	-0.572271	0.042917	0.269008
C198	C	-0.072271	0.542917	0.769008
C199	C	-0.570811	0.042919	0.412150
C200	C	-0.070811	0.542919	0.912150
C201	C	-0.568761	-0.000055	0.612374
C202	C	-0.068761	0.499945	1.112374
C203	C	-0.570174	-0.000056	0.473879
C204	C	-0.070174	0.499944	0.973879
H205	H	-0.101435	-0.127334	-0.160271
H206	H	0.398565	0.372666	0.339729
O207	O	-0.572171	-0.048795	0.277591
O208	O	-0.072171	0.451205	0.777591
H209	H	-0.539534	-0.070490	0.240919
H210	H	-0.039534	0.429510	0.740919
H211	H	0.190309	-0.082126	-0.152590
H212	H	0.690309	0.417874	0.347410
H213	H	-0.663242	-0.530992	0.081079
H214	H	-0.163242	-0.030992	0.581079
H215	H	-0.570712	-0.036851	0.420780
H216	H	-0.070712	0.463149	0.920780
O217	O	0.288504	-0.094050	-0.150081
O218	O	0.788504	0.405950	0.349919
H219	H	0.274846	-0.115778	-0.065298
H220	H	0.774846	0.384222	0.434702
O221	O	-0.639291	-0.872844	0.018247
O222	O	-0.139291	-0.372844	0.518247
H223	H	-0.618742	-0.896632	0.078517
H224	H	-0.118742	-0.396632	0.578517
O225	O	-0.572994	0.091653	0.198676
O226	O	-0.072994	0.591653	0.698676
H227	H	-0.572311	0.123135	0.265685
H228	H	-0.072311	0.623135	0.765685
O229	O	0.288433	0.093925	-0.149907
O230	O	0.788433	0.593925	0.350093
H231	H	0.282778	0.115620	-0.235213
H232	H	0.782778	0.615620	0.264787
H233	H	-0.663236	-0.374343	0.081051
H234	H	-0.163236	0.125657	0.581051
H235	H	-0.041643	0.127201	-0.158588
H236	H	0.458357	0.627201	0.341412
H237	H	-0.630642	-0.134143	-0.004450
H238	H	-0.130642	0.365857	0.495550
O239	O	-0.639262	-0.235766	0.018169
O240	O	-0.139262	0.264234	0.518169
H241	H	-0.618725	-0.259553	0.078468
H242	H	-0.118725	0.240447	0.578468
H243	H	-0.512425	-0.771244	-0.314415
H244	H	-0.012425	-0.271244	0.185585
O245	O	-0.048304	-0.139288	-0.158871
O246	O	0.451696	0.360712	0.341129
H247	H	-0.067242	-0.141450	-0.244560
H248	H	0.432758	0.358550	0.255440
O249	O	-0.431508	-0.094043	-0.169014
O250	O	0.068492	0.405957	0.330986
H251	H	-0.405503	-0.125488	-0.168335
H252	H	0.094497	0.374512	0.331665
H253	H	-0.663238	-0.469066	0.081070
H254	H	-0.163238	0.030934	0.581070
O255	O	-0.570095	0.091661	0.482473
O256	O	-0.070095	0.591661	0.982473
H257	H	-0.602374	0.093797	0.553550
H258	H	-0.102374	0.593797	1.053550
O259	O	-0.326708	-0.094054	-0.166219
O260	O	0.173292	0.405946	0.333781
H261	H	-0.352714	-0.125494	-0.166935
H262	H	0.147286	0.374506	0.333065
H263	H	0.049820	0.127198	-0.156181
H264	H	0.549820	0.627198	0.343819
H265	H	-0.512438	-0.865970	-0.314418
H266	H	-0.012438	-0.365970	0.185582
O267	O	-0.199586	0.139163	-0.162705
O268	O	0.300414	0.639163	0.337295
H269	H	-0.218533	0.141333	-0.248377
H270	H	0.281467	0.641333	0.251623
O271	O	-0.199562	-0.139281	-0.162905
O272	O	0.300438	0.360719	0.337095
H273	H	-0.173553	-0.170723	-0.162233
H274	H	0.326447	0.329277	0.337767
O275	O	0.183641	0.093928	-0.152691
O276	O	0.683641	0.593928	0.347309
H277	H	0.209649	0.125368	-0.152012
H278	H	0.709649	0.625368	0.347988
O279	O	-0.639283	-0.764305	0.018236
O280	O	-0.139283	-0.264305	0.518236
H281	H	-0.661939	-0.791232	0.077654
H282	H	-0.161939	-0.291232	0.577654
H283	H	-0.101450	0.127212	-0.160146
H284	H	0.398550	0.627212	0.339854
O285	O	-0.471217	-0.632665	-0.422441
O286	O	0.028783	-0.132665	0.077559
H287	H	-0.476690	-0.673362	-0.408096
H288	H	0.023310	-0.173362	0.091904
O289	O	-0.503790	-0.235816	-0.337080
O290	O	-0.003790	0.264184	0.162920
H291	H	-0.480129	-0.259607	-0.284979
H292	H	0.019871	0.240393	0.215021
O293	O	-0.326701	0.093951	-0.166143
O294	O	0.173299	0.593951	0.333857
H295	H	-0.352705	0.125397	-0.166813
H296	H	0.147295	0.625397	0.333187
O297	O	-0.471216	-0.524136	-0.422452
O298	O	0.028784	-0.024136	0.077548
H299	H	-0.477702	-0.534164	-0.519603
H300	H	0.022298	-0.034164	-0.019603
O301	O	-0.431512	0.093957	-0.168885
O302	O	0.068488	0.593957	0.331115
H303	H	-0.470809	0.086356	-0.169904
H304	H	0.029191	0.586356	0.330096
H305	H	0.049838	-0.127335	-0.156276
H306	H	0.549838	0.372665	0.343724
O307	O	-0.471218	-0.476009	-0.422503
O308	O	0.028782	0.023991	0.077497
H309	H	-0.448565	-0.449079	-0.481918
H310	H	0.051435	0.050921	0.018082
H311	H	-0.479807	-0.374378	-0.399874
H312	H	0.020193	0.125622	0.100126
O313	O	-0.503775	-0.127265	-0.337055
O314	O	-0.003775	0.372735	0.162945
H315	H	-0.524311	-0.103464	-0.397324
H316	H	-0.024311	0.396536	0.102676
O317	O	-0.671854	-0.632624	0.103682
O318	O	-0.171854	-0.132624	0.603682
H319	H	-0.666373	-0.673321	0.089330
H320	H	-0.166373	-0.173321	0.589330
