data_functionalizedCrystal
_audit_creation_method	'MofGen! by Chris Wilmer'
_symmetry_space_group_name_H-M	'P1'
_symmetry_Int_Tables_number	1
_symmetry_cell_setting	triclinic
loop_
_symmetry_equiv_pos_as_xyz
  x,y,z
_cell_length_a	6.817900
_cell_length_b	11.102188
_cell_length_c	16.255661
_cell_angle_alpha	93.854852
_cell_angle_beta	103.488922
_cell_angle_gamma	108.603875
loop_
_atom_site_label
_atom_site_type_symbol
_atom_site_fract_x
_atom_site_fract_y
_atom_site_fract_z
V1	V	-4.052929	-0.176865	-0.263871
O2	O	-4.013087	0.007443	-0.258848
O3	O	-4.030098	-0.349678	-0.262067
O4	O	-4.004157	-0.174608	-0.378954
O5	O	-4.039208	-0.168839	-0.141151
V6	V	-4.533292	-0.154765	-0.249193
O7	O	-4.321119	-0.225344	-0.296069
O8	O	-4.715300	-0.106287	-0.216995
O9	O	-4.332917	0.018048	-0.250997
O10	O	-4.690531	-0.339073	-0.254216
O11	O	-4.664411	-0.162792	-0.371913
O12	O	-4.358858	-0.157022	-0.134110
C13	C	-3.881331	-0.391792	-0.257904
C14	C	-3.943947	-0.533072	-0.257196
C15	C	-3.930405	-0.580995	-0.179361
C16	C	-3.989264	-0.713744	-0.178699
C17	C	-4.075197	-0.750636	-0.333712
C18	C	-4.016353	-0.617890	-0.334374
C19	C	-4.135732	-0.877166	-0.087394
C20	C	-4.122155	-0.925091	-0.009555
C21	C	-3.947437	-0.861553	0.061374
C22	C	-3.786246	-0.750090	0.054468
C23	C	-3.799809	-0.702171	-0.023372
C24	C	-3.974571	-0.765708	-0.094299
C25	C	-3.869864	-0.454464	-0.425673
C26	C	-3.883412	-0.406543	-0.503513
C27	C	-4.058120	-0.470079	-0.574449
C28	C	-4.219287	-0.581547	-0.567551
C29	C	-4.205739	-0.629468	-0.489710
C30	C	-4.031030	-0.565923	-0.418774
C31	C	-3.848239	-0.168471	-0.407005
C32	C	-3.889815	-0.167769	-0.501086
C33	C	-3.799128	-0.159385	-0.723905
C34	C	-3.971585	-0.267595	-0.793381
C35	C	-3.966004	-0.166453	-0.673335
C36	C	-3.867655	-0.057005	-0.771496
C37	C	-4.039583	-0.165176	-0.839718
C38	C	-4.137957	-0.274760	-0.741581
C39	C	-4.033950	-0.064074	-0.719680
C40	C	-4.206548	-0.172315	-0.789137
C41	C	-3.923612	-0.167190	-0.577485
C42	C	-4.081993	-0.164449	-0.935567
C43	C	-4.145028	0.060155	-0.255158
C44	C	-4.061649	0.201433	-0.255872
C45	C	-4.178119	-0.163164	-0.106055
C46	C	-4.115781	-0.163859	-0.011973
H47	H	-4.336978	-0.720236	-0.484098
H48	H	-4.251829	-0.366887	-0.728114
C49	C	-3.715474	0.065677	-0.789480
C50	C	-3.503014	0.071914	-0.756316
C51	C	-3.362755	0.184912	-0.772854
H52	H	-3.743782	0.065747	-0.849526
H53	H	-3.736121	0.138035	-0.763133
H54	H	-3.482376	-0.000424	-0.782666
H55	H	-3.474639	0.071865	-0.696271
H56	H	-3.383402	0.257270	-0.746507
H57	H	-3.391082	0.184972	-0.832900
H58	H	-3.218585	0.189165	-0.750348
H59	H	-3.626585	-0.154059	-0.695424
C60	C	-3.936581	-0.382200	-0.836106
C61	C	-3.723614	-0.374967	-0.802882
C62	C	-3.691268	-0.480504	-0.842223
H63	H	-4.031036	-0.459537	-0.825361
H64	H	-3.964616	-0.381344	-0.896082
H65	H	-3.695602	-0.375836	-0.742920
H66	H	-3.629117	-0.297653	-0.813627
H67	H	-3.719302	-0.479648	-0.902199
H68	H	-3.785733	-0.557833	-0.831475
H69	H	-3.546764	-0.475604	-0.819692
H70	H	-4.059790	0.021975	-0.687572
H71	H	-4.379235	-0.177810	-0.817484
H72	H	-3.871450	-0.511938	-0.116518
H73	H	-3.668566	-0.611424	-0.028996
H74	H	-3.643969	-0.698373	0.112225
H75	H	-4.253412	-1.015846	-0.003938
C76	C	-4.154139	-0.842888	-0.417444
C77	C	-4.363195	-0.926320	-0.425566
C78	C	-4.435969	-1.011327	-0.502684
H79	H	-4.153989	-0.795501	-0.463969
H80	H	-4.061853	-0.891365	-0.417713
H81	H	-4.455457	-0.877847	-0.425305
H82	H	-4.363402	-0.973736	-0.379060
H83	H	-4.343683	-1.059805	-0.502954
H84	H	-4.435806	-0.963929	-0.549204
H85	H	-4.577812	-1.067953	-0.508202
C86	C	-4.408871	-0.650319	-0.644650
C87	C	-4.386274	-0.584474	-0.714289
C88	C	-4.560885	-0.647778	-0.785327
H89	H	-4.413085	-0.735683	-0.658825
H90	H	-4.538443	-0.652539	-0.631428
H91	H	-4.256737	-0.582268	-0.727510
H92	H	-4.382086	-0.499113	-0.700143
H93	H	-4.690456	-0.649998	-0.772105
H94	H	-4.565084	-0.733140	-0.799493
H95	H	-4.545586	-0.603105	-0.832582
H96	H	-4.069125	-0.431056	-0.637833
H97	H	-3.936387	-0.900583	0.124752
H98	H	-4.278027	-0.928899	-0.145142
H99	H	-3.752156	-0.315786	-0.509129
H100	H	-3.727594	-0.402718	-0.367913
