data_functionalizedCrystal
_audit_creation_method	'MofGen! by Chris Wilmer'
_symmetry_space_group_name_H-M	'P1'
_symmetry_Int_Tables_number	1
_symmetry_cell_setting	triclinic
loop_
_symmetry_equiv_pos_as_xyz
  x,y,z
_cell_length_a	17.699083
_cell_length_b	10.654550
_cell_length_c	9.130313
_cell_angle_alpha	90.001613
_cell_angle_beta	90.009346
_cell_angle_gamma	96.116027
loop_
_atom_site_label
_atom_site_type_symbol
_atom_site_fract_x
_atom_site_fract_y
_atom_site_fract_z
O1	O	0.106307	-1.665974	0.121693
O2	O	0.116435	-1.300319	0.121721
O3	O	0.001248	-1.493477	0.121693
O4	O	0.221495	-1.472816	0.121721
O5	O	0.001235	-1.493473	-0.121906
O6	O	0.116422	-1.300314	-0.121878
O7	O	0.106295	-1.665970	-0.121906
Cu8	Cu	0.111357	-1.483142	-0.144134
Cu9	Cu	0.111372	-1.483147	0.143949
O10	O	0.221482	-1.472811	-0.121878
C11	C	0.115685	-1.253531	-0.000076
C12	C	0.113460	-1.114127	-0.000066
C13	C	-0.026960	-1.492735	-0.000106
C14	C	-0.110993	-1.490514	-0.000107
C15	C	0.107045	-1.712757	-0.000106
C16	C	0.109269	-1.852161	-0.000107
C17	C	-0.158893	-1.603894	-0.000117
C18	C	-0.237849	-1.601799	-0.000104
C19	C	-0.268904	-1.486323	-0.000091
C20	C	-0.220998	-1.372935	-0.000076
C21	C	-0.142043	-1.375030	-0.000079
C22	C	-0.539415	-1.364481	-0.000064
C23	C	-0.618376	-1.362394	-0.000065
C24	C	-0.635221	-1.591249	-0.000089
C25	C	-0.556266	-1.593345	-0.000092
C26	C	-0.508367	-1.479957	-0.000069
C27	C	-0.422753	-1.482229	-0.000080
C28	C	-0.354516	-1.484050	-0.000090
C29	C	0.249690	-1.473554	-0.000075
C30	C	0.333722	-1.475775	-0.000065
N31	N	0.111346	-1.483147	-0.346757
C32	C	0.181281	-1.033454	-0.000061
C33	C	0.179186	-0.902470	-0.000087
C34	C	0.041444	-0.932844	-0.000115
C35	C	0.043539	-1.063826	-0.000100
N36	N	0.111377	-1.483152	0.346572
C37	C	0.157781	-1.559002	0.576614
C38	C	0.157794	-1.559008	0.423277
C39	C	0.064938	-1.407293	0.423212
C40	C	0.064921	-1.407295	0.576546
H41	H	-0.276847	-1.694125	-0.000116
O42	O	-0.029613	-1.150852	-0.000115
H43	H	-0.063038	-1.133002	0.099166
H44	H	0.027104	-1.345523	0.638939
H45	H	0.195605	-1.620779	0.360892
H46	H	-0.015484	-0.891873	-0.000152
O47	O	-0.090379	-1.252737	-0.000073
H48	H	-0.030260	-1.273593	-0.000063
O49	O	0.256692	-1.087712	-0.000037
H50	H	0.260932	-1.146681	-0.099311
O51	O	0.207845	-1.640819	0.659345
H52	H	0.240131	-1.693575	0.580292
H53	H	-0.133614	-1.697927	-0.000137
O54	O	0.014862	-1.325487	0.340493
H55	H	0.030646	-1.225040	0.369948
O56	O	-0.522775	-1.717897	-0.000084
H57	H	-0.541981	-1.772380	-0.099362
O58	O	-0.686884	-1.713554	-0.000108
H59	H	-0.723246	-1.718095	0.099185
O60	O	-0.651876	-1.237840	-0.000040
H61	H	-0.605304	-1.159345	-0.000010
O62	O	0.252334	-0.815454	-0.000087
H63	H	0.285761	-0.833286	0.099218
O64	O	-0.487756	-1.242190	-0.000077
H65	H	-0.522618	-1.161545	-0.000093
O66	O	-0.254487	-1.248380	-0.000077
H67	H	-0.317437	-1.265968	-0.000099
