data_functionalizedCrystal
_audit_creation_method	'MofGen! by Chris Wilmer'
_symmetry_space_group_name_H-M	'P1'
_symmetry_Int_Tables_number	1
_symmetry_cell_setting	triclinic
loop_
_symmetry_equiv_pos_as_xyz
  x,y,z
_cell_length_a	8.634740
_cell_length_b	15.995292
_cell_length_c	7.681481
_cell_angle_alpha	84.262304
_cell_angle_beta	96.618670
_cell_angle_gamma	92.019462
loop_
_atom_site_label
_atom_site_type_symbol
_atom_site_fract_x
_atom_site_fract_y
_atom_site_fract_z
O1	O	2.031376	0.279741	-0.146407
O2	O	1.582432	0.256849	-0.146411
O3	O	1.819222	0.147398	-0.146411
O4	O	1.794585	0.389192	-0.146406
O5	O	1.848367	0.133890	0.146446
O6	O	1.611577	0.243342	0.146447
O7	O	2.060521	0.266233	0.146451
Zn8	Zn	1.840676	0.252643	0.192947
Zn9	Zn	1.802276	0.270440	-0.192906
O10	O	1.823730	0.375684	0.146452
C11	C	1.539556	0.244910	0.000017
C12	C	1.368379	0.229448	0.000015
C13	C	1.832792	0.109368	0.000013
C14	C	1.829784	0.016173	-0.000000
C15	C	1.818734	-0.322458	0.000016
C16	C	1.989708	-0.285387	0.000672
C17	C	1.992890	-0.188419	0.000005
C18	C	1.824217	-0.154459	0.000009
C19	C	1.722128	-0.182740	-0.167222
C20	C	1.720057	-0.279691	-0.167356
C21	C	1.749711	-0.295190	0.165678
C22	C	1.756263	-0.198288	0.167882
C23	C	1.827306	-0.059513	-0.000001
C24	C	1.815638	-0.417403	0.000014
C25	C	2.103396	0.278173	0.000019
C26	C	2.274572	0.293635	0.000010
C27	C	1.810160	0.413715	0.000023
C28	C	1.813167	0.506910	0.000025
N29	N	1.866894	0.240498	0.456281
N30	N	1.776071	0.282579	-0.456240
H31	H	1.317722	0.162664	-0.000036
H32	H	2.071739	-0.169524	0.119881
Cl33	Cl	1.352761	0.396744	0.000035
Cl34	Cl	1.792226	-0.304824	-0.360354
Cl35	Cl	2.109853	-0.328946	0.185835
H36	H	2.043350	-0.303619	-0.118583
H37	H	2.048253	-0.159045	-0.120081
Cl38	Cl	1.525425	-0.317227	-0.179085
H39	H	1.597388	-0.160600	-0.173437
H40	H	1.769079	-0.152153	-0.291677
Cl41	Cl	1.555659	-0.332542	0.167427
H42	H	1.959624	0.197550	0.531486
Cl43	Cl	1.632925	0.348895	0.427664
Cl44	Cl	1.851739	-0.341245	0.361376
H45	H	1.634154	-0.175717	0.177984
Cl46	Cl	1.871318	-0.170678	0.358897
