data_functionalizedCrystal
_audit_creation_method	'MofGen! by Chris Wilmer'
_symmetry_space_group_name_H-M	'P1'
_symmetry_Int_Tables_number	1
_symmetry_cell_setting	triclinic
loop_
_symmetry_equiv_pos_as_xyz
  x,y,z
_cell_length_a	14.519709
_cell_length_b	14.519709
_cell_length_c	10.868271
_cell_angle_alpha	89.998701
_cell_angle_beta	90.013556
_cell_angle_gamma	83.680146
loop_
_atom_site_label
_atom_site_type_symbol
_atom_site_fract_x
_atom_site_fract_y
_atom_site_fract_z
O1	O	-0.120892	-1.223867	-0.102186
O2	O	0.212442	-0.890534	0.231148
O3	O	0.545775	-0.557201	0.564481
O4	O	-0.135128	-0.955390	-0.102226
O5	O	0.198205	-0.622057	0.231107
O6	O	0.531538	-0.288724	0.564440
O7	O	0.006228	-1.096747	-0.102171
O8	O	0.339562	-0.763414	0.231163
O9	O	0.672895	-0.430080	0.564496
O10	O	-0.262248	-1.082510	-0.102241
O11	O	0.071085	-0.749177	0.231092
O12	O	0.404418	-0.415844	0.564425
O13	O	0.006234	-1.096735	0.102474
O14	O	0.339567	-0.763402	0.435807
O15	O	0.672901	-0.430069	0.769141
O16	O	-0.135123	-0.955379	0.102418
O17	O	0.198211	-0.622045	0.435752
O18	O	0.531544	-0.288712	0.769085
O19	O	-0.120886	-1.223856	0.102459
O20	O	0.212447	-0.890522	0.435792
O21	O	0.545780	-0.557189	0.769126
Zn22	Zn	-0.128004	-1.089615	0.134930
Zn23	Zn	0.205330	-0.756282	0.468264
Zn24	Zn	0.538663	-0.422949	0.801597
Zn25	Zn	-0.128011	-1.089631	-0.134698
Zn26	Zn	0.205322	-0.756297	0.198636
Zn27	Zn	0.538656	-0.422964	0.531969
O28	O	-0.262243	-1.082499	0.102403
O29	O	0.071090	-0.749166	0.435737
O30	O	0.404424	-0.415832	0.769070
C31	C	0.040591	-1.096078	0.000158
C32	C	0.373924	-0.762744	0.333491
C33	C	0.707258	-0.429411	0.666825
C34	C	0.142972	-1.094090	0.000176
C35	C	0.476306	-0.760756	0.333509
C36	C	0.809639	-0.427423	0.666843
C37	C	-0.134462	-0.921025	0.000091
C38	C	0.198871	-0.587691	0.333425
C39	C	0.532205	-0.254358	0.666758
C40	C	-0.132474	-0.818643	0.000078
C41	C	0.200859	-0.485310	0.333411
C42	C	0.534193	-0.151977	0.666744
C43	C	-0.121553	-1.258221	0.000138
C44	C	0.211781	-0.924888	0.333472
C45	C	0.545114	-0.591554	0.666805
C46	C	-0.123541	-1.360602	0.000144
C47	C	0.209793	-1.027269	0.333477
C48	C	0.543126	-0.693936	0.666811
C49	C	0.517868	-1.086770	0.000208
C50	C	0.851201	-0.753437	0.333542
C51	C	1.184535	-0.420103	0.666875
C52	C	0.413560	-1.088803	0.000200
C53	C	0.746893	-0.755469	0.333533
C54	C	1.080227	-0.422136	0.666867
C55	C	0.330423	-1.090430	0.000193
C56	C	0.663757	-0.757096	0.333527
C57	C	0.997090	-0.423763	0.666860
C58	C	0.226109	-1.092463	0.000183
C59	C	0.559442	-0.759129	0.333516
C60	C	0.892776	-0.425796	0.666849
C61	C	0.703394	-1.083168	0.000116
C62	C	1.036728	-0.749835	0.333449
C63	C	1.370061	-0.416501	0.666782
C64	C	0.601013	-1.085156	0.000220
C65	C	0.934347	-0.751823	0.333553
C66	C	1.267680	-0.418490	0.666887
C67	C	-0.125154	-0.443748	0.000136
C68	C	0.208179	-0.110414	0.333469
C69	C	0.541512	0.222919	0.666802
C70	C	-0.127187	-0.548056	0.000119
C71	C	0.206146	-0.214722	0.333452
C72	C	0.539480	0.118611	0.666786
C73	C	-0.128814	-0.631192	0.000106
C74	C	0.204519	-0.297859	0.333439
C75	C	0.537853	0.035474	0.666772
C76	C	-0.130847	-0.735507	0.000091
C77	C	0.202486	-0.402173	0.333425
C78	C	0.535820	-0.068840	0.666758
N79	N	-0.127998	-1.089612	0.318944
N80	N	0.205335	-0.756278	0.652278
N81	N	0.538669	-0.422945	0.985611
N82	N	-0.128009	-1.089642	-0.318712
N83	N	0.205324	-0.756308	0.014622
N84	N	0.538658	-0.422975	0.347955
C85	C	-0.128009	-1.089626	0.569951
C86	C	0.205324	-0.756292	0.903284
C87	C	0.538658	-0.422959	1.236617
C88	C	-0.128006	-1.089615	0.430273
C89	C	0.205328	-0.756282	0.763606
C90	C	0.538661	-0.422948	1.096940
