data_functionalizedCrystal
_audit_creation_method	'MofGen! by Chris Wilmer'
_symmetry_space_group_name_H-M	'P1'
_symmetry_Int_Tables_number	1
_symmetry_cell_setting	triclinic
loop_
_symmetry_equiv_pos_as_xyz
  x,y,z
_cell_length_a	14.853559
_cell_length_b	27.731993
_cell_length_c	13.930277
_cell_angle_alpha	90.004327
_cell_angle_beta	89.997639
_cell_angle_gamma	83.125923
loop_
_atom_site_label
_atom_site_type_symbol
_atom_site_fract_x
_atom_site_fract_y
_atom_site_fract_z
O1	O	0.107035	0.641445	-0.079568
O2	O	0.123397	0.500724	-0.079626
O3	O	-0.016076	0.574846	-0.079595
O4	O	0.246509	0.567324	-0.079600
O5	O	-0.016079	0.574835	0.080067
O6	O	0.123395	0.500714	0.080035
O7	O	0.107033	0.641435	0.080093
Zn8	Zn	0.115213	0.571073	0.105414
Zn9	Zn	0.115217	0.571086	-0.104947
O10	O	0.246506	0.567313	0.080062
C11	C	0.123060	0.482710	0.000197
C12	C	0.122049	0.429049	0.000175
C13	C	0.114720	0.045860	-0.086810
C14	C	0.118575	0.247536	-0.086836
O15	O	0.119038	0.273616	-0.160855
N16	N	0.119055	0.272753	0.000194
C17	C	0.118566	0.247548	0.087236
O18	O	0.119055	0.273625	0.161259
C19	C	0.114705	0.045874	0.087261
C20	C	0.114233	0.020659	0.000226
C21	C	0.114247	0.020645	-0.173838
C22	C	0.113288	-0.029771	-0.173831
C23	C	0.112802	-0.054972	-0.086795
C24	C	0.113275	-0.029757	0.000233
C25	C	0.114210	0.020671	0.174302
C26	C	0.113242	-0.029751	0.174301
C27	C	0.112770	-0.054966	0.087266
C28	C	0.111830	-0.105374	0.087276
N29	N	0.111349	-0.130591	0.000246
C30	C	0.111835	-0.105390	-0.086789
C31	C	0.120596	0.353430	0.087217
C32	C	0.121563	0.403848	0.087211
C33	C	0.121569	0.403832	-0.086862
C34	C	0.120608	0.353413	-0.086855
C35	C	0.120115	0.328213	0.000187
C36	C	0.109822	-0.211268	-0.086767
C37	C	0.108867	-0.261689	-0.086752
C38	C	0.108856	-0.261668	0.087320
C39	C	0.109816	-0.211252	0.087305
C40	C	0.110296	-0.186053	0.000254
O41	O	0.111355	-0.131485	0.161256
O42	O	0.111327	-0.131474	-0.160802
C43	C	0.115678	0.096277	-0.086817
C44	C	0.116151	0.121491	0.000211
C45	C	0.115665	0.096290	0.087247
C46	C	0.117118	0.171910	0.000205
C47	C	0.117604	0.197111	-0.086831
C48	C	0.117123	0.171894	-0.173861
C49	C	0.116164	0.121478	-0.173853
C50	C	0.116146	0.121507	0.174276
C51	C	0.117105	0.171923	0.174262
C52	C	0.117592	0.197124	0.087226
C53	C	-0.049661	0.574501	0.000234
C54	C	-0.149728	0.573481	0.000228
C55	C	-0.572830	0.569163	-0.086805
C56	C	-0.572828	0.569152	0.087264
C57	C	-0.478810	0.570114	0.087266
C58	C	-0.431798	0.570599	0.000230
C59	C	-0.478803	0.570124	-0.086807
C60	C	-0.431797	0.570585	0.174301
C61	C	-0.337774	0.571546	0.174305
C62	C	-0.290761	0.572035	0.087269
C63	C	-0.337772	0.571560	0.000229
C64	C	-0.290760	0.572045	-0.086807
C65	C	-0.337770	0.571574	-0.173848
C66	C	-0.431791	0.570613	-0.173843
C67	C	-0.196740	0.572996	0.087264
C68	C	-0.196733	0.573006	-0.086808
C69	C	0.280091	0.567659	0.000231
C70	C	0.380158	0.568678	0.000230
C71	C	0.107370	0.659449	0.000268
C72	C	0.108381	0.713110	0.000284
N73	N	0.115210	0.571067	0.248980
N74	N	0.115213	0.571096	-0.248513
C75	C	0.176952	0.538264	0.701236
C76	C	0.053475	0.603922	0.701233
C77	C	0.053472	0.603916	0.600737
C78	C	0.115211	0.571084	0.550486
C79	C	0.176953	0.538258	0.600731
C80	C	-0.008263	0.636745	0.550485
C81	C	-0.008267	0.636741	0.449983
C82	C	0.053468	0.603906	0.399730
C83	C	0.115212	0.571079	0.449981
C84	C	0.176951	0.538247	0.399730
C85	C	0.238691	0.505416	0.449979
C86	C	0.238688	0.505424	0.550478
C87	C	0.053471	0.603899	0.299231
C88	C	0.176952	0.538241	0.299225
H89	H	0.112900	-0.050296	-0.244704
H90	H	0.003207	0.630631	0.258323
Br91	Br	0.115525	0.087265	-0.291979
H92	H	-0.158466	0.573369	0.158131
H93	H	0.227224	0.511503	0.258316
Br94	Br	0.322473	0.460872	0.618674
H95	H	0.288963	0.478686	0.409053
Br96	Br	-0.092055	0.681294	0.381794
Br97	Br	-0.132940	0.573670	-0.204935
H98	H	-0.058525	0.663478	0.591403
Br99	Br	-0.030303	0.648483	0.769427
H100	H	0.108486	-0.282217	-0.157630
Br101	Br	-0.273981	0.572182	0.292429
H102	H	0.227217	0.511533	0.742151
H103	H	0.110214	-0.190757	-0.157653
Br104	Br	0.122233	0.438043	-0.204981
Br105	Br	0.119968	0.319198	-0.204978
Br106	Br	-0.636627	0.568530	-0.204927
Br107	Br	0.122226	0.438060	0.205335
H108	H	0.120191	0.332917	0.158101
Br109	Br	0.112563	-0.063947	0.292436
Br110	Br	0.114852	0.054878	0.292430
H111	H	0.110218	-0.190722	0.158177
Br112	Br	0.108201	-0.295880	0.205434
Br113	Br	0.117789	0.206105	-0.291980
Br114	Br	0.117755	0.206137	0.292393
H115	H	0.115745	0.100994	0.245153
Br116	Br	-0.273957	0.572233	-0.291963
H117	H	0.114640	0.041159	-0.244717
H118	H	-0.611110	0.568754	0.158125
Br119	Br	-0.495596	0.569976	-0.291960
H120	H	-0.470080	0.570187	0.245160
