data_functionalizedCrystal
_audit_creation_method	'MofGen! by Chris Wilmer'
_symmetry_space_group_name_H-M	'P1'
_symmetry_Int_Tables_number	1
_symmetry_cell_setting	triclinic
loop_
_symmetry_equiv_pos_as_xyz
  x,y,z
_cell_length_a	19.121141
_cell_length_b	13.897448
_cell_length_c	13.897441
_cell_angle_alpha	90.030599
_cell_angle_beta	92.462673
_cell_angle_gamma	87.571228
loop_
_atom_site_label
_atom_site_type_symbol
_atom_site_fract_x
_atom_site_fract_y
_atom_site_fract_z
Zn1	Zn	-1.073786	0.447014	-0.608295
Zn2	Zn	-0.740452	0.780347	-0.274962
Zn3	Zn	-0.407119	1.113681	0.058371
Zn4	Zn	-1.073708	0.608331	-0.446992
Zn5	Zn	-0.740375	0.941664	-0.113659
Zn6	Zn	-0.407042	1.274998	0.219674
Zn7	Zn	-0.956329	0.440162	-0.440132
Zn8	Zn	-0.622996	0.773495	-0.106798
Zn9	Zn	-0.289663	1.106828	0.226535
Zn10	Zn	-0.956316	0.601373	-0.601367
Zn11	Zn	-0.622983	0.934707	-0.268033
Zn12	Zn	-0.289649	1.268040	0.065300
O13	O	-1.015035	0.524220	-0.524197
O14	O	-0.681701	0.857553	-0.190863
O15	O	-0.348368	1.190887	0.142470
O16	O	-1.172061	0.474193	-0.592669
O17	O	-0.838727	0.807526	-0.259336
O18	O	-0.505394	1.140859	0.073998
O19	O	-1.058111	0.586067	-0.311099
O20	O	-0.724778	0.919401	0.022234
O21	O	-0.391444	1.252734	0.355568
O22	O	-0.971948	0.306091	-0.462468
O23	O	-0.638615	0.639425	-0.129134
O24	O	-0.305281	0.972758	0.204199
O25	O	-1.172004	0.592712	-0.474160
O26	O	-0.838670	0.926045	-0.140827
O27	O	-0.505337	1.259378	0.192506
O28	O	-1.058243	0.311126	-0.586017
O29	O	-0.724909	0.644459	-0.252683
O30	O	-0.391576	0.977792	0.080650
O31	O	-0.971873	0.462514	-0.306059
O32	O	-0.638540	0.795847	0.027275
O33	O	-0.305206	1.129181	0.360608
O34	O	-0.858042	0.455767	-0.455749
O35	O	-0.524709	0.789101	-0.122416
O36	O	-0.191376	1.122434	0.210917
O37	O	-0.971925	0.580853	-0.737269
O38	O	-0.638592	0.914186	-0.403936
O39	O	-0.305259	1.247520	-0.070602
O40	O	-0.858033	0.574209	-0.574208
O41	O	-0.524699	0.907542	-0.240874
O42	O	-0.191366	1.240875	0.092459
O43	O	-1.058230	0.467446	-0.742360
O44	O	-0.724896	0.800779	-0.409026
O45	O	-0.391563	1.134113	-0.075693
O46	O	-1.058098	0.742388	-0.467442
O47	O	-0.724765	1.075721	-0.134108
O48	O	-0.391432	1.409054	0.199225
O49	O	-0.971850	0.737276	-0.580860
O50	O	-0.638517	1.070609	-0.247527
O51	O	-0.305184	1.403942	0.085807
C52	C	-0.832553	0.513490	-0.513483
C53	C	-0.499220	0.846824	-0.180149
C54	C	-0.165887	1.180157	0.153184
C55	C	-0.754487	0.508923	-0.508922
C56	C	-0.421153	0.842256	-0.175589
C57	C	-0.087820	1.175590	0.157744
C58	C	-0.717824	0.568537	-0.568358
C59	C	-0.384491	0.901870	-0.235024
C60	C	-0.051158	1.235203	0.098309
C61	C	-0.644473	0.564233	-0.564077
C62	C	-0.311139	0.897566	-0.230744
C63	C	0.022194	1.230899	0.102589
C64	C	-0.607785	0.500319	-0.500356
C65	C	-0.274451	0.833653	-0.167022
C66	C	0.058882	1.166986	0.166311
C67	C	-0.644452	0.440699	-0.440918
C68	C	-0.311119	0.774033	-0.107584
C69	C	0.022214	1.107366	0.225749
C70	C	-0.717803	0.444999	-0.445204
C71	C	-0.384469	0.778332	-0.111870
C72	C	-0.051136	1.111666	0.221463
C73	C	-0.386313	0.484243	-0.484339
C74	C	-0.052980	0.817576	-0.151005
C75	C	0.280353	1.150909	0.182328
C76	C	-0.312958	0.479949	-0.480055
C77	C	0.020375	0.813283	-0.146722
C78	C	0.353709	1.146616	0.186612
C79	C	-0.312983	0.603482	-0.603216
C80	C	0.020350	0.936815	-0.269883
C81	C	0.353683	1.270149	0.063450
C82	C	-0.386335	0.607780	-0.607493
C83	C	-0.053002	0.941114	-0.274159
C84	C	0.280332	1.274447	0.059174
C85	C	-0.422996	0.548157	-0.548058
C86	C	-0.089663	0.881490	-0.214725
C87	C	0.243670	1.214823	0.118608
C88	C	-0.532808	0.495921	-0.495977
C89	C	-0.199474	0.829254	-0.162643
C90	C	0.133859	1.162587	0.170690
C91	C	-0.497972	0.552551	-0.552443
C92	C	-0.164639	0.885884	-0.219110
C93	C	0.168695	1.219218	0.114224
C94	C	-1.014984	0.774831	-0.524166
C95	C	-0.681650	1.108165	-0.190832
C96	C	-0.348317	1.441498	0.142501
C97	C	-1.015026	0.882048	-0.524188
C98	C	-0.681693	1.215381	-0.190855
C99	C	-0.348359	1.548714	0.142478
C100	C	-1.015085	0.524138	-0.775793
C101	C	-0.681751	0.857471	-0.442459
C102	C	-0.348418	1.190804	-0.109126
C103	C	-1.015106	0.524103	-0.883008
C104	C	-0.681773	0.857436	-0.549674
C105	C	-0.348439	1.190769	-0.216341
C106	C	-0.198229	0.534987	-0.534941
C107	C	0.135104	0.868321	-0.201608
C108	C	0.468438	1.201654	0.131725
C109	C	-0.276295	0.539563	-0.539491
C110	C	0.057038	0.872896	-0.206157
C111	C	0.390371	1.206230	0.127176
C112	C	-1.015105	0.272631	-0.524250
C113	C	-0.681772	0.605965	-0.190916
C114	C	-0.348439	0.939298	0.142417
C115	C	-1.015135	0.165419	-0.524272
C116	C	-0.681802	0.498752	-0.190939
C117	C	-0.348469	0.832086	0.142394
C118	C	-1.015100	1.078347	-0.524253
C119	C	-0.681766	1.411681	-0.190920
C120	C	-0.348433	1.745014	0.142413
C121	C	-1.015057	0.969112	-0.524220
C122	C	-0.681723	1.302446	-0.190887
C123	C	-0.348390	1.635779	0.142447
C124	C	-1.015125	0.524039	-1.079304
C125	C	-0.681792	0.857372	-0.745971
C126	C	-0.348458	1.190705	-0.412638
C127	C	-1.015112	0.524077	-0.970071
C128	C	-0.681779	0.857410	-0.636738
C129	C	-0.348446	1.190743	-0.303404
C130	C	-1.015026	0.524235	-0.273582
C131	C	-0.681692	0.857568	0.059752
C132	C	-0.348359	1.190902	0.393085
C133	C	-1.015140	0.524006	-0.166375
C134	C	-0.681807	0.857340	0.166958
C135	C	-0.348474	1.190673	0.500292
H136	H	-0.283126	0.652023	-0.651606
H137	H	0.050208	0.985356	-0.318273
H138	H	0.383541	1.318690	0.015061
H139	H	-0.747652	0.396450	-0.396810
H140	H	-0.414319	0.729783	-0.063477
H141	H	-0.080986	1.063117	0.269857
H142	H	-0.283089	0.427892	-0.428171
H143	H	0.050245	0.761226	-0.094838
H144	H	0.383578	1.094559	0.238495
N145	N	-0.423745	0.423340	-0.423618
N146	N	-0.090411	0.756673	-0.090284
N147	N	0.242922	1.090007	0.243049
N148	N	-0.390977	0.366286	-0.366724
N149	N	-0.057643	0.699620	-0.033390
N150	N	0.275690	1.032953	0.299943
H151	H	-0.417414	0.323273	-0.323833
H152	H	-0.084081	0.656606	0.009500
H153	H	0.249252	0.989939	0.342834
H154	H	-0.614575	0.388655	-0.389038
H155	H	-0.281242	0.721989	-0.055705
H156	H	0.052091	1.055322	0.277628
N157	N	-0.607038	0.625147	-0.624788
N158	N	-0.273705	0.958481	-0.291455
N159	N	0.059628	1.291814	0.041879
N160	N	-0.615218	0.714624	-0.618702
N161	N	-0.281885	1.047957	-0.285369
N162	N	0.051449	1.381291	0.047964
H163	H	-0.588783	0.757650	-0.661583
H164	H	-0.255449	1.090983	-0.328250
H165	H	0.077884	1.424316	0.005084
H166	H	-0.416201	0.659827	-0.659379
H167	H	-0.082868	0.993161	-0.326046
H168	H	0.250465	1.326494	0.007287
H169	H	-0.502928	0.443884	-0.444093
H170	H	-0.169595	0.777218	-0.110759
H171	H	0.163739	1.110551	0.222574
N172	N	-0.755286	0.633838	-0.633446
N173	N	-0.421953	0.967171	-0.300113
N174	N	-0.088619	1.300504	0.033221
N175	N	-0.722539	0.687059	-0.686508
N176	N	-0.389206	1.020392	-0.353174
N177	N	-0.055872	1.353725	-0.019841
H178	H	-0.748994	0.733179	-0.732479
H179	H	-0.415661	1.066512	-0.399146
H180	H	-0.082327	1.399846	-0.065813
N181	N	-0.535433	0.617850	-0.617527
N182	N	-0.202100	0.951183	-0.284194
N183	N	0.131233	1.284517	0.049140
N184	N	-0.502695	0.671083	-0.670587
N185	N	-0.169362	1.004416	-0.337254
N186	N	0.163972	1.337749	-0.003921
H187	H	-0.529157	0.717205	-0.716551
H188	H	-0.195823	1.050538	-0.383218
H189	H	0.137510	1.383871	-0.049884
