data_functionalizedCrystal
_audit_creation_method	'MofGen! by Chris Wilmer'
_symmetry_space_group_name_H-M	'P1'
_symmetry_Int_Tables_number	1
_symmetry_cell_setting	triclinic
loop_
_symmetry_equiv_pos_as_xyz
  x,y,z
_cell_length_a	16.974829
_cell_length_b	9.130307
_cell_length_c	16.974813
_cell_angle_alpha	93.657850
_cell_angle_beta	83.162295
_cell_angle_gamma	93.656833
loop_
_atom_site_label
_atom_site_type_symbol
_atom_site_fract_x
_atom_site_fract_y
_atom_site_fract_z
O1	O	1.049029	0.258086	0.100805
O2	O	0.818810	0.232322	0.113635
O3	O	0.940338	0.232314	-0.007891
O4	O	0.927501	0.258094	0.222330
O5	O	0.940334	-0.011286	-0.007892
O6	O	0.818806	-0.011278	0.113633
O7	O	1.049025	0.014487	0.100803
Cu8	Cu	0.933915	-0.020638	0.107218
Cu9	Cu	0.933920	0.267446	0.107220
O10	O	0.927497	0.014494	0.222329
C11	C	0.789350	0.106973	0.113145
C12	C	0.701575	0.096396	0.111678
C13	C	0.207493	0.022609	0.103448
C14	C	0.289966	0.032549	0.104826
C15	C	0.331206	0.170308	0.105510
C16	C	0.289967	0.298134	0.104824
C17	C	0.207494	0.288193	0.103451
C18	C	0.577863	0.214281	0.109620
C19	C	0.660342	0.224213	0.110990
C20	C	0.660336	-0.041373	0.110994
C21	C	0.577862	-0.051303	0.109617
C22	C	0.536629	0.076523	0.108934
N23	N	0.415508	0.180472	0.106916
N24	N	0.452328	0.066358	0.107534
N25	N	0.933918	-0.223261	0.107217
C26	C	1.041574	-0.223249	-0.000363
C27	C	1.095408	-0.299909	-0.054150
C28	C	1.095416	-0.453242	-0.054151
C29	C	1.041583	-0.529918	-0.000360
C30	C	0.987749	-0.453258	0.053428
C31	C	0.987749	-0.299922	0.053424
C32	C	0.880090	-0.453271	0.161002
C33	C	0.880085	-0.299937	0.161008
C34	C	0.826257	-0.529947	0.214794
C35	C	0.772426	-0.453287	0.268586
C36	C	0.772421	-0.299945	0.268585
C37	C	0.826251	-0.223278	0.214796
C38	C	1.078485	0.139839	0.101293
C39	C	1.166260	0.150425	0.102760
C40	C	0.939848	0.106966	-0.037349
C41	C	0.938383	0.096392	-0.125124
N42	N	0.933924	0.470069	0.107215
C43	C	0.937699	0.224210	-0.166356
C44	C	0.936318	0.214270	-0.248830
C45	C	0.935627	0.076512	-0.290070
C46	C	0.936309	-0.051316	-0.248832
C47	C	0.937684	-0.041375	-0.166360
C48	C	0.931509	0.032542	-0.536727
C49	C	0.930136	0.022611	-0.619206
C50	C	0.930144	0.288198	-0.619197
C51	C	0.931524	0.298127	-0.536723
C52	C	0.932201	0.170299	-0.495492
N53	N	0.934218	0.066348	-0.374372
N54	N	0.933605	0.180463	-0.411191
C55	C	0.927988	0.139846	0.251787
C56	C	0.929452	0.150429	0.339562
H57	H	0.323535	-0.071533	0.105385
N58	N	0.714360	-0.217258	0.326601
H59	H	0.679390	-0.161373	0.296396
H60	H	0.680315	-0.289187	0.360660
N61	N	0.938418	-0.179235	-0.121883
H62	H	0.937773	-0.268014	-0.160522
H63	H	0.987980	-0.175858	-0.094124
N64	N	1.041581	-0.695298	-0.000360
H65	H	1.030145	-0.739960	-0.054079
H66	H	1.095296	-0.724380	0.011155
N67	N	0.163017	0.426051	0.102712
H68	H	0.201655	0.514830	0.103352
H69	H	0.135256	0.422664	0.053151
H70	H	0.929569	-0.089575	-0.652781
N71	N	0.714363	-0.535984	0.326592
H72	H	0.722533	-0.644752	0.318426
H73	H	0.723426	-0.501465	0.382685
H74	H	0.932088	0.410305	-0.503151
N75	N	0.932249	-0.105323	-0.492263
H76	H	0.931608	-0.194095	-0.530907
H77	H	0.981813	-0.101936	-0.464508
N78	N	0.704807	-0.179232	0.111746
H79	H	0.666167	-0.268007	0.111107
H80	H	0.745487	-0.185951	0.063324
N81	N	0.163018	-0.125978	0.102704
H82	H	0.201729	-0.205490	0.102799
H83	H	0.122714	-0.131206	0.151407
N84	N	0.826249	-0.057898	0.214799
H85	H	0.868519	-0.020962	0.172562
H86	H	0.772516	-0.028816	0.203339
H87	H	0.544292	-0.163483	0.109043
H88	H	0.935765	0.318354	-0.282397
N89	N	0.704826	0.372801	0.111726
H90	H	0.666191	0.452272	0.111088
H91	H	0.732588	0.387748	0.161287
N92	N	0.938452	0.372795	-0.121879
H93	H	0.937808	0.452257	-0.160516
H94	H	0.890031	0.377666	-0.081198
N95	N	0.533399	0.352143	0.108873
H96	H	0.572042	0.440916	0.109507
H97	H	0.505642	0.348745	0.059308
N98	N	1.153475	-0.217233	-0.112170
H99	H	1.144435	-0.251661	-0.168284
H100	H	1.145285	-0.108482	-0.103951
N101	N	1.041564	-0.057869	-0.000350
H102	H	1.095265	-0.013198	0.011137
H103	H	1.030096	-0.028776	-0.054078
H104	H	0.929591	0.392268	-0.652776
H105	H	0.323551	0.410301	0.105385
H106	H	0.935741	-0.163483	-0.282417
H107	H	1.139249	-0.515659	-0.097952
H108	H	0.826263	-0.654800	0.214788
