data_functionalizedCrystal
_audit_creation_method	'MofGen! by Chris Wilmer'
_symmetry_space_group_name_H-M	'P1'
_symmetry_Int_Tables_number	1
_symmetry_cell_setting	triclinic
loop_
_symmetry_equiv_pos_as_xyz
  x,y,z
_cell_length_a	12.827893
_cell_length_b	13.897447
_cell_length_c	12.827885
_cell_angle_alpha	89.968996
_cell_angle_beta	89.980538
_cell_angle_gamma	90.019501
loop_
_atom_site_label
_atom_site_type_symbol
_atom_site_fract_x
_atom_site_fract_y
_atom_site_fract_z
Zn1	Zn	1.597642	-0.383969	-0.590840
Zn2	Zn	1.597522	-0.545295	-0.416096
Zn3	Zn	1.422882	-0.384016	-0.416113
Zn4	Zn	1.422856	-0.545224	-0.590796
O5	O	1.510225	-0.464626	-0.503462
O6	O	1.743862	-0.405380	-0.567671
O7	O	1.574317	-0.523951	-0.269863
O8	O	1.446126	-0.249028	-0.439317
O9	O	1.743774	-0.523905	-0.439288
O10	O	1.574520	-0.248994	-0.567687
O11	O	1.446010	-0.405460	-0.269875
O12	O	1.276643	-0.405390	-0.439274
O13	O	1.446080	-0.523783	-0.737038
O14	O	1.276623	-0.523829	-0.567613
O15	O	1.574494	-0.405310	-0.737070
O16	O	1.574291	-0.680267	-0.439245
O17	O	1.445964	-0.680215	-0.567597
C18	C	1.238716	-0.464607	-0.503442
C19	C	1.122562	-0.464623	-0.503458
C20	C	1.070796	-0.523321	-0.566866
C21	C	0.950745	-0.523338	-0.566884
C22	C	1.510140	-0.715240	-0.503437
C23	C	1.510200	-0.822454	-0.503462
C24	C	1.510250	-0.909524	-0.503486
C25	C	1.510324	-1.018756	-0.503513
C26	C	1.782796	-0.464645	-0.503482
C27	C	1.898949	-0.464654	-0.503491
C28	C	1.510297	-0.464533	-0.776032
C29	C	1.510328	-0.464494	-0.892185
C30	C	1.510339	-0.213033	-0.503509
C31	C	1.510388	-0.105819	-0.503529
C32	C	1.446858	-0.405849	-0.943976
C33	C	1.446888	-0.405807	-1.064026
C34	C	1.510214	-0.464649	-0.231952
C35	C	1.510386	-0.464416	-0.115799
H36	H	0.906227	-0.573595	-0.621167
H37	H	1.078005	-0.414377	-0.449190
H38	H	0.943460	-0.414400	-0.449198
H39	H	1.564732	-0.514623	-1.071267
C40	C	1.582953	-0.531240	-0.951611
C41	C	1.649932	-0.476550	-1.014266
C42	C	1.716861	-0.538003	-1.069009
H43	H	1.543057	-0.573237	-0.994266
H44	H	1.622831	-0.568019	-0.903581
H45	H	1.610058	-0.439787	-1.062291
H46	H	1.689851	-0.434555	-0.971638
H47	H	1.756740	-0.574783	-1.020979
H48	H	1.676957	-0.579998	-1.111658
H49	H	1.762321	-0.500905	-1.111520
H50	H	1.392554	-0.355595	-1.108565
C51	C	1.130331	-0.590160	-0.639297
C52	C	1.193056	-0.535556	-0.706295
C53	C	1.247923	-0.597097	-0.773025
H54	H	1.082408	-0.627013	-0.679181
H55	H	1.172944	-0.632086	-0.599226
H56	H	1.150448	-0.493647	-0.746363
H57	H	1.241000	-0.498705	-0.666440
H58	H	1.290536	-0.639023	-0.732954
H59	H	1.199992	-0.633947	-0.812902
H60	H	1.290496	-0.560058	-0.818485
C61	C	1.374482	-0.338976	-0.884414
C62	C	1.388867	-0.352290	-0.777183
C63	C	1.322221	-0.290692	-0.722286
H64	H	1.304208	-0.353003	-0.902116
H65	H	1.389806	-0.274125	-0.902202
H66	H	1.373535	-0.417126	-0.759403
H67	H	1.459127	-0.338255	-0.759450
H68	H	1.337545	-0.225841	-0.740073
H69	H	1.251950	-0.304725	-0.739996
H70	H	1.331978	-0.299710	-0.649524
