data_functionalizedCrystal
_audit_creation_method	'MofGen! by Chris Wilmer'
_symmetry_space_group_name_H-M	'P1'
_symmetry_Int_Tables_number	1
_symmetry_cell_setting	triclinic
loop_
_symmetry_equiv_pos_as_xyz
  x,y,z
_cell_length_a	21.295418
_cell_length_b	29.839131
_cell_length_c	21.295411
_cell_angle_alpha	90.020364
_cell_angle_beta	90.043738
_cell_angle_gamma	90.057233
loop_
_atom_site_label
_atom_site_type_symbol
_atom_site_fract_x
_atom_site_fract_y
_atom_site_fract_z
Zn1	Zn	0.962308	-0.178715	0.356239
Zn2	Zn	1.212308	0.071285	0.606239
Zn3	Zn	1.462308	0.321285	0.856239
Zn4	Zn	1.712308	0.571285	1.106239
Zn5	Zn	0.962190	-0.253830	0.250967
Zn6	Zn	1.212190	-0.003830	0.500967
Zn7	Zn	1.462190	0.246170	0.750967
Zn8	Zn	1.712190	0.496170	1.000967
Zn9	Zn	0.857031	-0.178736	0.250949
Zn10	Zn	1.107031	0.071264	0.500949
Zn11	Zn	1.357031	0.321264	0.750949
Zn12	Zn	1.607031	0.571264	1.000949
Zn13	Zn	0.856981	-0.253839	0.356163
Zn14	Zn	1.106981	-0.003839	0.606163
Zn15	Zn	1.356981	0.246161	0.856163
Zn16	Zn	1.606981	0.496161	1.106163
O17	O	0.909628	-0.216280	0.303580
O18	O	1.159628	0.033720	0.553580
O19	O	1.409628	0.283720	0.803580
O20	O	1.659628	0.533720	1.053580
O21	O	1.050382	-0.188667	0.342314
O22	O	1.300382	0.061333	0.592314
O23	O	1.550382	0.311333	0.842314
O24	O	1.800382	0.561333	1.092314
O25	O	0.948213	-0.243874	0.162875
O26	O	1.198213	0.006126	0.412875
O27	O	1.448213	0.256126	0.662875
O28	O	1.698213	0.506126	0.912875
O29	O	0.871067	-0.115866	0.264940
O30	O	1.121067	0.134134	0.514940
O31	O	1.371067	0.384134	0.764940
O32	O	1.621067	0.634134	1.014940
O33	O	1.050295	-0.243854	0.264971
O34	O	1.300295	0.006146	0.514971
O35	O	1.550295	0.256146	0.764971
O36	O	1.800295	0.506146	1.014971
O37	O	0.948413	-0.115851	0.342296
O38	O	1.198413	0.134149	0.592296
O39	O	1.448413	0.384149	0.842296
O40	O	1.698413	0.634149	1.092296
O41	O	0.870953	-0.188703	0.162862
O42	O	1.120953	0.061297	0.412862
O43	O	1.370953	0.311297	0.662862
O44	O	1.620953	0.561297	0.912862
O45	O	0.768935	-0.188711	0.264867
O46	O	1.018935	0.061289	0.514867
O47	O	1.268935	0.311289	0.764867
O48	O	1.518935	0.561289	1.014867
O49	O	0.870981	-0.243869	0.444263
O50	O	1.120981	0.006131	0.694263
O51	O	1.370981	0.256131	0.944263
O52	O	1.620981	0.506131	1.194263
O53	O	0.768898	-0.243889	0.342167
O54	O	1.018898	0.006111	0.592167
O55	O	1.268898	0.256111	0.842167
O56	O	1.518898	0.506111	1.092167
O57	O	0.948364	-0.188675	0.444319
O58	O	1.198364	0.061325	0.694319
O59	O	1.448364	0.311325	0.944319
O60	O	1.698364	0.561325	1.194319
O61	O	0.948164	-0.316699	0.264897
O62	O	1.198164	-0.066699	0.514897
O63	O	1.448164	0.183301	0.764897
O64	O	1.698164	0.433301	1.014897
O65	O	0.870866	-0.316705	0.342185
O66	O	1.120866	-0.066705	0.592185
O67	O	1.370866	0.183295	0.842185
O68	O	1.620866	0.433295	1.092185
C69	C	0.746076	-0.216304	0.303507
C70	C	0.996076	0.033696	0.553507
C71	C	1.246076	0.283696	0.803507
C72	C	1.496076	0.533696	1.053507
C73	C	0.676108	-0.216325	0.303491
C74	C	0.926108	0.033675	0.553491
C75	C	1.176108	0.283675	0.803491
C76	C	1.426108	0.533675	1.053491
C77	C	0.643238	-0.245094	0.343681
C78	C	0.893238	0.004906	0.593681
C79	C	1.143238	0.254906	0.843681
C80	C	1.393238	0.504906	1.093681
C81	C	0.577496	-0.245083	0.343710
C82	C	0.827496	0.004917	0.593710
C83	C	1.077496	0.254917	0.843710
C84	C	1.327496	0.504917	1.093710
C85	C	0.544625	-0.216307	0.303536
C86	C	0.794625	0.033693	0.553536
C87	C	1.044625	0.283693	0.803536
C88	C	1.294625	0.533693	1.053536
C89	C	0.577503	-0.187532	0.263343
C90	C	0.827503	0.062468	0.513343
C91	C	1.077503	0.312468	0.763343
C92	C	1.327503	0.562468	1.013343
C93	C	0.643244	-0.187541	0.263321
C94	C	0.893244	0.062459	0.513321
C95	C	1.143244	0.312459	0.763321
C96	C	1.393244	0.562459	1.013321
N97	N	0.441350	-0.212791	0.248479
N98	N	0.691350	0.037209	0.498479
N99	N	0.941350	0.287209	0.748479
N100	N	1.191350	0.537209	0.998479
N101	N	0.378899	-0.212785	0.248502
N102	N	0.628899	0.037215	0.498502
N103	N	0.878899	0.287215	0.748502
N104	N	1.128899	0.537215	0.998502
C105	C	0.346551	-0.216279	0.303603
C106	C	0.596551	0.033721	0.553603
C107	C	0.846551	0.283721	0.803603
C108	C	1.096551	0.533721	1.053603
N109	N	0.379013	-0.219787	0.358681
N110	N	0.629013	0.030213	0.608681
N111	N	0.879013	0.280213	0.858681
N112	N	1.129013	0.530213	1.108681
N113	N	0.441470	-0.219795	0.358657
N114	N	0.691470	0.030205	0.608657
N115	N	0.941470	0.280205	0.858657
N116	N	1.191470	0.530205	1.108657
C117	C	0.473340	-0.216294	0.303557
C118	C	0.723340	0.033706	0.553557
C119	C	0.973340	0.283706	0.803557
C120	C	1.223340	0.533706	1.053557
C121	C	0.242396	-0.245037	0.343827
C122	C	0.492396	0.004963	0.593827
C123	C	0.742396	0.254963	0.843827
C124	C	0.992396	0.504963	1.093827
C125	C	0.176652	-0.245023	0.343857
C126	C	0.426652	0.004977	0.593857
C127	C	0.676652	0.254977	0.843857
C128	C	0.926652	0.504977	1.093857
C129	C	0.176660	-0.187475	0.263485
C130	C	0.426660	0.062525	0.513485
C131	C	0.676660	0.312525	0.763485
C132	C	0.926660	0.562525	1.013485
C133	C	0.242403	-0.187487	0.263461
C134	C	0.492403	0.062513	0.513461
C135	C	0.742403	0.312513	0.763461
C136	C	0.992403	0.562513	1.013461
C137	C	0.275266	-0.216271	0.303632
C138	C	0.525266	0.033729	0.553632
C139	C	0.775266	0.283729	0.803632
C140	C	1.025266	0.533729	1.053632
C141	C	0.909514	-0.333003	0.303548
C142	C	1.159514	-0.083003	0.553548
C143	C	1.409514	0.166997	0.803548
C144	C	1.659514	0.416997	1.053548
C145	C	0.909523	-0.382937	0.303556
C146	C	1.159523	-0.132937	0.553556
C147	C	1.409523	0.117063	0.803556
C148	C	1.659523	0.367063	1.053556
C149	C	0.949949	-0.692564	0.263395
C150	C	1.199949	-0.442564	0.513395
C151	C	1.449949	-0.192564	0.763395
C152	C	1.699949	0.057436	1.013395
C153	C	0.950027	-0.880238	0.263419
C154	C	1.200027	-0.630238	0.513419
C155	C	1.450027	-0.380238	0.763419
C156	C	1.700027	-0.130238	1.013419
O157	O	0.984309	-0.904489	0.229249
O158	O	1.234309	-0.654489	0.479249
O159	O	1.484309	-0.404489	0.729249
O160	O	1.734309	-0.154489	0.979249
N161	N	0.909758	-0.903722	0.303627
N162	N	1.159758	-0.653722	0.553627
N163	N	1.409758	-0.403722	0.803627
N164	N	1.659758	-0.153722	1.053627
C165	C	0.869470	-0.880286	0.343835
C166	C	1.119470	-0.630286	0.593835
C167	C	1.369470	-0.380286	0.843835
C168	C	1.619470	-0.130286	1.093835
O169	O	0.835225	-0.904567	0.378039
O170	O	1.085225	-0.654567	0.628039
O171	O	1.335225	-0.404567	0.878039
O172	O	1.585225	-0.154567	1.128039
C173	C	0.869396	-0.692614	0.343813
C174	C	1.119396	-0.442614	0.593813
C175	C	1.369396	-0.192614	0.843813
C176	C	1.619396	0.057386	1.093813
C177	C	0.909663	-0.669131	0.303598
C178	C	1.159663	-0.419131	0.553598
C179	C	1.409663	-0.169131	0.803598
C180	C	1.659663	0.080869	1.053598
C181	C	0.990214	-0.669082	0.223184
C182	C	1.240214	-0.419082	0.473184
C183	C	1.490214	-0.169082	0.723184
C184	C	1.740214	0.080918	0.973184
C185	C	0.990192	-0.622167	0.223176
C186	C	1.240192	-0.372167	0.473176
C187	C	1.490192	-0.122167	0.723176
C188	C	1.740192	0.127833	0.973176
C189	C	0.949905	-0.598734	0.263379
C190	C	1.199905	-0.348734	0.513379
C191	C	1.449905	-0.098734	0.763379
C192	C	1.699905	0.151266	1.013379
C193	C	0.909641	-0.622216	0.303590
C194	C	1.159641	-0.372216	0.553590
C195	C	1.409641	-0.122216	0.803590
C196	C	1.659641	0.127784	1.053590
C197	C	0.829111	-0.669178	0.384023
C198	C	1.079111	-0.419178	0.634023
C199	C	1.329111	-0.169178	0.884023
C200	C	1.579111	0.080822	1.134023
C201	C	0.829097	-0.622257	0.384015
C202	C	1.079097	-0.372257	0.634015
C203	C	1.329097	-0.122257	0.884015
C204	C	1.579097	0.127743	1.134015
C205	C	0.869364	-0.598775	0.343800
C206	C	1.119364	-0.348775	0.593800
C207	C	1.369364	-0.098775	0.843800
C208	C	1.619364	0.151225	1.093800
C209	C	0.869332	-0.551867	0.343785
C210	C	1.119332	-0.301867	0.593785
C211	C	1.369332	-0.051867	0.843785
C212	C	1.619332	0.198133	1.093785
N213	N	0.909601	-0.528383	0.303577
N214	N	1.159601	-0.278383	0.553577
N215	N	1.409601	-0.028383	0.803577
N216	N	1.659601	0.221617	1.053577
C217	C	0.949887	-0.551816	0.263374
C218	C	1.199887	-0.301816	0.513374
C219	C	1.449887	-0.051816	0.763374
C220	C	1.699887	0.198184	1.013374
C221	C	0.869511	-0.978816	0.343842
C222	C	1.119511	-0.728816	0.593842
C223	C	1.369511	-0.478816	0.843842
C224	C	1.619511	-0.228816	1.093842
C225	C	0.869528	-1.025734	0.343847
C226	C	1.119528	-0.775734	0.593847
C227	C	1.369528	-0.525734	0.843847
C228	C	1.619528	-0.275734	1.093847
C229	C	0.950087	-1.025683	0.263432
C230	C	1.200087	-0.775683	0.513432
C231	C	1.450087	-0.525683	0.763432
C232	C	1.700087	-0.275683	1.013432
C233	C	0.950065	-0.978764	0.263425
C234	C	1.200065	-0.728764	0.513425
C235	C	1.450065	-0.478764	0.763425
C236	C	1.700065	-0.228764	1.013425
C237	C	0.909780	-0.955332	0.303634
C238	C	1.159780	-0.705332	0.553634
C239	C	1.409780	-0.455332	0.803634
C240	C	1.659780	-0.205332	1.053634
C241	C	0.949837	-0.453290	0.263359
C242	C	1.199837	-0.203290	0.513359
C243	C	1.449837	0.046710	0.763359
C244	C	1.699837	0.296710	1.013359
C245	C	0.949810	-0.406370	0.263353
C246	C	1.199810	-0.156370	0.513353
C247	C	1.449810	0.093630	0.763353
C248	C	1.699810	0.343630	1.013353
C249	C	0.869254	-0.406426	0.343770
C250	C	1.119254	-0.156426	0.593770
C251	C	1.369254	0.093574	0.843770
C252	C	1.619254	0.343574	1.093770
C253	C	0.869279	-0.453341	0.343774
C254	C	1.119279	-0.203341	0.593774
C255	C	1.369279	0.046659	0.843774
C256	C	1.619279	0.296659	1.093774
C257	C	0.909576	-0.476772	0.303567
C258	C	1.159576	-0.226772	0.553567
C259	C	1.409576	0.023228	0.803567
C260	C	1.659576	0.273228	1.053567
O261	O	0.835073	-0.527587	0.377942
O262	O	1.085073	-0.277587	0.627942
O263	O	1.335073	-0.027587	0.877942
O264	O	1.585073	0.222413	1.127942
O265	O	0.984137	-0.527526	0.229185
O266	O	1.234137	-0.277526	0.479185
O267	O	1.484137	-0.027526	0.729185
O268	O	1.734137	0.222474	0.979185
C269	C	0.949972	-0.739480	0.263403
C270	C	1.199972	-0.489480	0.513403
C271	C	1.449972	-0.239480	0.763403
C272	C	1.699972	0.010520	1.013403
C273	C	0.909707	-0.762962	0.303614
C274	C	1.159707	-0.512962	0.553614
C275	C	1.409707	-0.262962	0.803614
C276	C	1.659707	-0.012962	1.053614
C277	C	0.869421	-0.739529	0.343817
C278	C	1.119421	-0.489529	0.593817
C279	C	1.369421	-0.239529	0.843817
C280	C	1.619421	0.010471	1.093817
C281	C	0.909725	-0.809880	0.303619
C282	C	1.159725	-0.559880	0.553619
C283	C	1.409725	-0.309880	0.803619
C284	C	1.659725	-0.059880	1.053619
C285	C	0.950012	-0.833313	0.263416
C286	C	1.200012	-0.583313	0.513416
C287	C	1.450012	-0.333313	0.763416
C288	C	1.700012	-0.083313	1.013416
C289	C	0.990281	-0.809829	0.223208
C290	C	1.240281	-0.559829	0.473208
C291	C	1.490281	-0.309829	0.723208
C292	C	1.740281	-0.059829	0.973208
C293	C	0.990258	-0.762913	0.223200
C294	C	1.240258	-0.512913	0.473200
C295	C	1.490258	-0.262913	0.723200
C296	C	1.740258	-0.012913	0.973200
C297	C	0.829152	-0.763014	0.384025
C298	C	1.079152	-0.513014	0.634025
C299	C	1.329152	-0.263014	0.884025
C300	C	1.579152	-0.013014	1.134025
C301	C	0.829177	-0.809929	0.384029
C302	C	1.079177	-0.559929	0.634029
C303	C	1.329177	-0.309929	0.884029
C304	C	1.579177	-0.059929	1.134029
C305	C	0.869463	-0.833362	0.343826
C306	C	1.119463	-0.583362	0.593826
C307	C	1.369463	-0.333362	0.843826
C308	C	1.619463	-0.083362	1.093826
C309	C	1.073818	-0.216257	0.303653
C310	C	1.323818	0.033743	0.553653
C311	C	1.573818	0.283743	0.803653
C312	C	1.823818	0.533743	1.053653
C313	C	1.143786	-0.216247	0.303684
C314	C	1.393786	0.033753	0.553684
C315	C	1.643786	0.283753	0.803684
C316	C	1.893786	0.533753	1.053684
C317	C	0.909680	-0.216271	0.467770
C318	C	1.159680	0.033729	0.717770
C319	C	1.409680	0.283729	0.967770
C320	C	1.659680	0.533729	1.217770
C321	C	0.909702	-0.216267	0.537738
C322	C	1.159702	0.033733	0.787738
C323	C	1.409702	0.283733	1.037738
C324	C	1.659702	0.533733	1.287738
C325	C	0.909759	-0.099102	0.303625
C326	C	1.159759	0.150898	0.553625
C327	C	1.409759	0.400898	0.803625
C328	C	1.659759	0.650898	1.053625
C329	C	0.909815	-0.049167	0.303644
C330	C	1.159815	0.200833	0.553644
C331	C	1.409815	0.450833	0.803644
C332	C	1.659815	0.700833	1.053644
C333	C	0.909612	-0.216257	0.140028
C334	C	1.159612	0.033743	0.390028
C335	C	1.409612	0.283743	0.640028
C336	C	1.659612	0.533743	0.890028
C337	C	0.909712	-0.216135	0.070060
C338	C	1.159712	0.033865	0.320060
C339	C	1.409712	0.283865	0.570060
C340	C	1.659712	0.533865	0.820060
C341	C	0.949994	-0.187526	0.570635
C342	C	1.199994	0.062474	0.820635
C343	C	1.449994	0.312474	1.070635
C344	C	1.699994	0.562474	1.320635
C345	C	0.949993	-0.187507	0.636377
C346	C	1.199993	0.062493	0.886377
C347	C	1.449993	0.312493	1.136377
C348	C	1.699993	0.562493	1.386377
C349	C	0.909707	-0.216236	0.669221
C350	C	1.159707	0.033764	0.919221
C351	C	1.409707	0.283764	1.169221
C352	C	1.659707	0.533764	1.419221
C353	C	0.869407	-0.244978	0.636316
C354	C	1.119407	0.005022	0.886316
C355	C	1.369407	0.255022	1.136316
C356	C	1.619407	0.505022	1.386316
C357	C	0.869405	-0.244994	0.570575
C358	C	1.119405	0.005006	0.820575
C359	C	1.369405	0.255006	1.070575
C360	C	1.619405	0.505006	1.320575
N361	N	0.904840	-0.255537	0.772436
N362	N	1.154840	-0.005537	1.022436
N363	N	1.404840	0.244463	1.272436
N364	N	1.654840	0.494463	1.522436
N365	N	0.904846	-0.255521	0.834887
N366	N	1.154846	-0.005521	1.084887
N367	N	1.404846	0.244479	1.334887
N368	N	1.654846	0.494479	1.584887
C369	C	0.909711	-0.216190	0.867295
C370	C	1.159711	0.033810	1.117295
C371	C	1.409711	0.283810	1.367295
C372	C	1.659711	0.533810	1.617295
N373	N	0.914582	-0.176875	0.834893
N374	N	1.164582	0.073125	1.084893
N375	N	1.414582	0.323125	1.334893
N376	N	1.664582	0.573125	1.584893
N377	N	0.914580	-0.176891	0.772436
N378	N	1.164580	0.073109	1.022436
N379	N	1.414580	0.323109	1.272436
N380	N	1.664580	0.573109	1.522436
C381	C	0.909705	-0.216222	0.740506
C382	C	1.159705	0.033778	0.990506
C383	C	1.409705	0.283778	1.240506
C384	C	1.659705	0.533778	1.490506
C385	C	0.950004	-0.187426	0.971478
C386	C	1.200004	0.062574	1.221478
C387	C	1.450004	0.312574	1.471478
C388	C	1.700004	0.562574	1.721478
C389	C	0.949999	-0.187406	1.037221
C390	C	1.199999	0.062594	1.287221
C391	C	1.449999	0.312594	1.537221
C392	C	1.699999	0.562594	1.787221
C393	C	0.869416	-0.244882	1.037159
C394	C	1.119416	0.005118	1.287159
C395	C	1.369416	0.255118	1.537159
C396	C	1.619416	0.505118	1.787159
C397	C	0.869418	-0.244898	0.971417
C398	C	1.119418	0.005102	1.221417
C399	C	1.369418	0.255102	1.471417
C400	C	1.619418	0.505102	1.721417
C401	C	0.909716	-0.216171	0.938580
C402	C	1.159716	0.033829	1.188580
C403	C	1.409716	0.283829	1.438580
C404	C	1.659716	0.533829	1.688580
H405	H	0.982600	-0.387253	0.230603
H406	H	1.232600	-0.137253	0.480603
H407	H	1.482600	0.112747	0.730603
H408	H	1.732600	0.362747	0.980603
H409	H	0.550736	-0.164102	0.230635
H410	H	0.800736	0.085898	0.480635
H411	H	1.050736	0.335898	0.730635
H412	H	1.300736	0.585898	0.980635
H413	H	0.982802	-0.164100	0.663167
H414	H	1.232802	0.085900	0.913167
H415	H	1.482802	0.335900	1.163167
H416	H	1.732802	0.585900	1.413167
F417	F	0.678227	-0.156919	0.220543
F418	F	0.928227	0.093081	0.470543
F419	F	1.178227	0.343081	0.720543
F420	F	1.428227	0.593081	0.970543
H421	H	0.836604	-0.268368	0.663061
H422	H	1.086604	-0.018368	0.913061
H423	H	1.336604	0.231632	1.163061
H424	H	1.586604	0.481632	1.413061
F425	F	0.786258	-0.694159	0.426831
F426	F	1.036258	-0.444159	0.676831
F427	F	1.286258	-0.194159	0.926831
F428	F	1.536258	0.055841	1.176831
F429	F	0.826382	-0.381478	0.386556
F430	F	1.076382	-0.131478	0.636556
F431	F	1.326382	0.118522	0.886556
F432	F	1.576382	0.368522	1.136556
F433	F	0.826519	-0.275585	0.535563
F434	F	1.076519	-0.025585	0.785563
F435	F	1.326519	0.224415	1.035563
F436	F	1.576519	0.474415	1.285563
H437	H	0.550728	-0.268510	0.376440
H438	H	0.800728	-0.018510	0.626440
H439	H	1.050728	0.231490	0.876440
H440	H	1.300728	0.481490	1.126440
F441	F	1.033118	-0.737927	0.180399
F442	F	1.283118	-0.487927	0.430399
F443	F	1.533118	-0.237927	0.680399
F444	F	1.783118	0.012073	0.930399
H445	H	1.023082	-0.828916	0.190472
H446	H	1.273082	-0.578916	0.440472
H447	H	1.523082	-0.328916	0.690472
H448	H	1.773082	-0.078916	0.940472
F449	F	0.277374	-0.275669	0.386582
F450	F	0.527374	-0.025669	0.636582
F451	F	0.777374	0.224331	0.886582
F452	F	1.027374	0.474331	1.136582
F453	F	0.992880	-0.156950	0.535691
F454	F	1.242880	0.093050	0.785691
F455	F	1.492880	0.343050	1.035691
F456	F	1.742880	0.593050	1.285691
H457	H	0.149891	-0.268450	0.376588
H458	H	0.399891	-0.018450	0.626588
H459	H	0.649891	0.231550	0.876588
H460	H	0.899891	0.481550	1.126588
H461	H	0.669992	-0.268531	0.376392
H462	H	0.919992	-0.018531	0.626392
H463	H	1.169992	0.231469	0.876392
H464	H	1.419992	0.481469	1.126392
F465	F	0.992889	-0.156851	0.936528
F466	F	1.242889	0.093149	1.186528
F467	F	1.492889	0.343149	1.436528
F468	F	1.742889	0.593149	1.686528
H469	H	0.796292	-0.603181	0.416761
H470	H	1.046292	-0.353181	0.666761
H471	H	1.296292	-0.103181	0.916761
H472	H	1.546292	0.146819	1.166761
H473	H	0.149898	-0.164043	0.230778
H474	H	0.399898	0.085957	0.480778
H475	H	0.649898	0.335957	0.730778
H476	H	0.899898	0.585957	0.980778
F477	F	0.992893	-0.156820	1.072232
F478	F	1.242893	0.093180	1.322232
F479	F	1.492893	0.343180	1.572232
F480	F	1.742893	0.593180	1.822232
H481	H	0.836608	-0.268269	1.063899
H482	H	1.086608	-0.018269	1.313899
H483	H	1.336608	0.231731	1.563899
H484	H	1.586608	0.481731	1.813899
H485	H	0.836612	-0.268304	0.944632
H486	H	1.086612	-0.018304	1.194632
H487	H	1.336612	0.231696	1.444632
H488	H	1.586612	0.481696	1.694632
H489	H	1.023023	-0.688157	0.190445
H490	H	1.273023	-0.438157	0.440445
H491	H	1.523023	-0.188157	0.690445
H492	H	1.773023	0.061843	0.940445
H493	H	0.982652	-0.472362	0.230620
H494	H	1.232652	-0.222362	0.480620
H495	H	1.482652	0.027638	0.730620
H496	H	1.732652	0.277638	0.980620
F497	F	0.277386	-0.156867	0.220683
F498	F	0.527386	0.093133	0.470683
F499	F	0.777386	0.343133	0.720683
F500	F	1.027386	0.593133	0.970683
H501	H	1.022982	-0.603050	0.190431
H502	H	1.272982	-0.353050	0.440431
H503	H	1.522982	-0.103050	0.690431
H504	H	1.772982	0.146950	0.940431
H505	H	0.982855	-0.959647	0.230679
H506	H	1.232855	-0.709647	0.480679
H507	H	1.482855	-0.459647	0.730679
H508	H	1.732855	-0.209647	0.980679
H509	H	0.982890	-1.044770	0.230698
H510	H	1.232890	-0.794770	0.480698
H511	H	1.482890	-0.544770	0.730698
H512	H	1.732890	-0.294770	0.980698
H513	H	0.836733	-1.044849	0.376588
H514	H	1.086733	-0.794849	0.626588
H515	H	1.336733	-0.544849	0.876588
H516	H	1.586733	-0.294849	1.126588
F517	F	0.826629	-0.953884	0.386641
F518	F	1.076629	-0.703884	0.636641
F519	F	1.326629	-0.453884	0.886641
F520	F	1.576629	-0.203884	1.136641
F521	F	0.786314	-0.834916	0.426833
F522	F	1.036314	-0.584916	0.676833
F523	F	1.286314	-0.334916	0.926833
F524	F	1.536314	-0.084916	1.176833
F525	F	0.786271	-0.738081	0.426817
F526	F	1.036271	-0.488081	0.676817
F527	F	1.286271	-0.238081	0.926817
F528	F	1.536271	0.011919	1.176817
F529	F	0.826411	-0.478334	0.386563
F530	F	1.076411	-0.228334	0.636563
F531	F	1.326411	0.021666	0.886563
F532	F	1.576411	0.271666	1.136563
