data_functionalizedCrystal
_audit_creation_method	'MofGen! by Chris Wilmer'
_symmetry_space_group_name_H-M	'P1'
_symmetry_Int_Tables_number	1
_symmetry_cell_setting	triclinic
loop_
_symmetry_equiv_pos_as_xyz
  x,y,z
_cell_length_a	19.077105
_cell_length_b	18.215405
_cell_length_c	18.215399
_cell_angle_alpha	90.030551
_cell_angle_beta	87.683200
_cell_angle_gamma	92.278881
loop_
_atom_site_label
_atom_site_type_symbol
_atom_site_fract_x
_atom_site_fract_y
_atom_site_fract_z
Zn1	Zn	1.075983	0.338265	-0.461243
Zn2	Zn	1.325983	0.588265	-0.211243
Zn3	Zn	1.575983	0.838265	0.038757
Zn4	Zn	1.825983	1.088265	0.288757
Zn5	Zn	1.075896	0.461333	-0.338167
Zn6	Zn	1.325896	0.711333	-0.088167
Zn7	Zn	1.575896	0.961333	0.161833
Zn8	Zn	1.825896	1.211333	0.411833
Zn9	Zn	0.958286	0.333336	-0.333253
Zn10	Zn	1.208286	0.583336	-0.083253
Zn11	Zn	1.458286	0.833336	0.166747
Zn12	Zn	1.708286	1.083336	0.416747
Zn13	Zn	0.958253	0.456341	-0.456257
Zn14	Zn	1.208253	0.706341	-0.206257
Zn15	Zn	1.458253	0.956341	0.043743
Zn16	Zn	1.708253	1.206341	0.293743
O17	O	1.017104	0.397319	-0.397230
O18	O	1.267104	0.647319	-0.147230
O19	O	1.517104	0.897319	0.102770
O20	O	1.767104	1.147319	0.352770
O21	O	1.174463	0.358742	-0.449060
O22	O	1.424463	0.608742	-0.199060
O23	O	1.674463	0.858742	0.050940
O24	O	1.924463	1.108742	0.300940
O25	O	1.060272	0.444380	-0.234530
O26	O	1.310272	0.694380	0.015470
O27	O	1.560272	0.944380	0.265470
O28	O	1.810272	1.194380	0.515470
O29	O	0.973949	0.231008	-0.350261
O30	O	1.223949	0.481008	-0.100261
O31	O	1.473949	0.731008	0.149739
O32	O	1.723949	0.981008	0.399739
O33	O	1.174398	0.449160	-0.358637
O34	O	1.424398	0.699160	-0.108637
O35	O	1.674398	0.949160	0.141363
O36	O	1.924398	1.199160	0.391363
O37	O	1.060421	0.234629	-0.444295
O38	O	1.310421	0.484629	-0.194295
O39	O	1.560421	0.734629	0.055705
O40	O	1.810421	0.984629	0.305705
O41	O	0.973864	0.350341	-0.230919
O42	O	1.223864	0.600341	0.019081
O43	O	1.473864	0.850341	0.269081
O44	O	1.723864	1.100341	0.519081
O45	O	0.859790	0.345501	-0.345426
O46	O	1.109790	0.595501	-0.095426
O47	O	1.359790	0.845501	0.154574
O48	O	1.609790	1.095501	0.404574
O49	O	0.973893	0.440652	-0.559904
O50	O	1.223893	0.690652	-0.309904
O51	O	1.473893	0.940652	-0.059904
O52	O	1.723893	1.190652	0.190096
O53	O	0.859766	0.435872	-0.435797
O54	O	1.109766	0.685872	-0.185797
O55	O	1.359766	0.935872	0.064203
O56	O	1.609766	1.185872	0.314203
O57	O	1.060389	0.353902	-0.563567
O58	O	1.310389	0.603902	-0.313567
O59	O	1.560389	0.853902	-0.063567
O60	O	1.810389	1.103902	0.186433
O61	O	1.060240	0.563653	-0.353802
O62	O	1.310240	0.813653	-0.103802
O63	O	1.560240	1.063653	0.146198
O64	O	1.810240	1.313653	0.396198
O65	O	0.973808	0.559985	-0.440562
O66	O	1.223808	0.809985	-0.190562
O67	O	1.473808	1.059985	0.059438
O68	O	1.723808	1.309985	0.309438
C69	C	0.834241	0.389610	-0.389537
C70	C	1.084241	0.639610	-0.139537
C71	C	1.334241	0.889610	0.110463
C72	C	1.584241	1.139610	0.360463
C73	C	0.756011	0.386331	-0.386264
C74	C	1.006011	0.636331	-0.136264
C75	C	1.256011	0.886331	0.113736
C76	C	1.506011	1.136331	0.363736
C77	C	1.017030	0.588522	-0.397192
C78	C	1.267030	0.838522	-0.147192
C79	C	1.517030	1.088522	0.102808
C80	C	1.767030	1.338522	0.352808
C81	C	1.017063	0.670322	-0.397202
C82	C	1.267063	0.920322	-0.147202
C83	C	1.517063	1.170322	0.102798
C84	C	1.767063	1.420322	0.352798
C85	C	1.017147	0.397270	-0.589185
C86	C	1.267147	0.647270	-0.339185
C87	C	1.517147	0.897270	-0.089185
C88	C	1.767147	1.147270	0.160815
C89	C	1.017166	0.397249	-0.670985
C90	C	1.267166	0.647249	-0.420985
C91	C	1.517166	0.897249	-0.170985
C92	C	1.767166	1.147249	0.079015
C93	C	0.719264	0.431912	-0.431703
C94	C	0.969264	0.681912	-0.181703
C95	C	1.219264	0.931912	0.068297
C96	C	1.469264	1.181912	0.318297
C97	C	0.645759	0.428820	-0.428631
C98	C	0.895759	0.678820	-0.178631
C99	C	1.145759	0.928820	0.071369
C100	C	1.395759	1.178820	0.321369
C101	C	0.609002	0.380151	-0.380115
C102	C	0.859002	0.630151	-0.130115
C103	C	1.109002	0.880151	0.119885
C104	C	1.359002	1.130151	0.369885
C105	C	0.645753	0.334564	-0.334674
C106	C	0.895753	0.584564	-0.084674
C107	C	1.145753	0.834564	0.165326
C108	C	1.395753	1.084564	0.415326
C109	C	0.719257	0.337653	-0.337750
C110	C	0.969257	0.587653	-0.087750
C111	C	1.219257	0.837653	0.162250
C112	C	1.469257	1.087653	0.412250
C113	C	0.389168	0.365857	-0.365880
C114	C	0.639168	0.615857	-0.115880
C115	C	0.889168	0.865857	0.134120
C116	C	1.139168	1.115857	0.384120
C117	C	0.315659	0.362774	-0.362805
C118	C	0.565659	0.612774	-0.112805
C119	C	0.815659	0.862774	0.137195
C120	C	1.065659	1.112774	0.387195
C121	C	0.315669	0.457030	-0.456763
C122	C	0.565669	0.707030	-0.206763
C123	C	0.815669	0.957030	0.043237
C124	C	1.065669	1.207030	0.293237
C125	C	0.389175	0.460117	-0.459833
C126	C	0.639175	0.710117	-0.209833
C127	C	0.889175	0.960117	0.040167
C128	C	1.139175	1.210117	0.290167
C129	C	0.425920	0.414528	-0.414394
C130	C	0.675920	0.664528	-0.164394
C131	C	0.925920	0.914528	0.085606
C132	C	1.175920	1.164528	0.335606
N133	N	0.533867	0.376991	-0.376972
N134	N	0.783867	0.626991	-0.126972
N135	N	1.033867	0.876991	0.123028
N136	N	1.283867	1.126991	0.373028
N137	N	0.501053	0.417684	-0.417542
N138	N	0.751053	0.667684	-0.167542
N139	N	1.001053	0.917684	0.082458
N140	N	1.251053	1.167684	0.332458
C141	C	1.200682	0.405058	-0.404953
C142	C	1.450682	0.655058	-0.154953
C143	C	1.700682	0.905058	0.095047
C144	C	1.950682	1.155058	0.345047
C145	C	1.278912	0.408356	-0.408244
C146	C	1.528912	0.658356	-0.158244
C147	C	1.778912	0.908356	0.091756
C148	C	2.028912	1.158356	0.341756
C149	C	1.017198	0.205370	-0.397286
C150	C	1.267198	0.455370	-0.147286
C151	C	1.517198	0.705370	0.102714
C152	C	1.767198	0.955370	0.352714
C153	C	1.017238	0.123573	-0.397309
C154	C	1.267238	0.373573	-0.147309
C155	C	1.517238	0.623573	0.102691
C156	C	1.767238	0.873573	0.352691
C157	C	1.062173	0.860406	-0.352118
C158	C	1.312173	1.110406	-0.102118
C159	C	1.562173	1.360406	0.147882
C160	C	1.812173	1.610406	0.397882
C161	C	1.062205	0.937266	-0.352137
C162	C	1.312205	1.187266	-0.102137
C163	C	1.562205	1.437266	0.147863
C164	C	1.812205	1.687266	0.397863
C165	C	0.972126	0.933483	-0.442399
C166	C	1.222126	1.183483	-0.192399
C167	C	1.472126	1.433483	0.057601
C168	C	1.722126	1.683483	0.307601
C169	C	0.972098	0.856625	-0.442383
C170	C	1.222098	1.106625	-0.192383
C171	C	1.472098	1.356625	0.057617
C172	C	1.722098	1.606625	0.307617
C173	C	1.017121	0.820088	-0.397238
C174	C	1.267121	1.070088	-0.147238
C175	C	1.517121	1.320088	0.102762
C176	C	1.767121	1.570088	0.352762
C177	C	1.017180	0.973807	-0.397273
C178	C	1.267180	1.223807	-0.147273
C179	C	1.517180	1.473807	0.102727
C180	C	1.767180	1.723807	0.352727
C181	C	1.017214	1.057142	-0.397294
C182	C	1.267214	1.307142	-0.147294
C183	C	1.517214	1.557142	0.102706
C184	C	1.767214	1.807142	0.352706
C185	C	1.017088	0.736748	-0.397218
C186	C	1.267088	0.986748	-0.147218
C187	C	1.517088	1.236748	0.102782
C188	C	1.767088	1.486748	0.352782
C189	C	1.062220	0.352035	-0.861088
C190	C	1.312220	0.602035	-0.611088
C191	C	1.562220	0.852035	-0.361088
C192	C	1.812220	1.102035	-0.111088
C193	C	1.062229	0.352014	-0.937947
C194	C	1.312229	0.602014	-0.687947
C195	C	1.562229	0.852014	-0.437947
C196	C	1.812229	1.102014	-0.187947
C197	C	0.972161	0.442351	-0.934121
C198	C	1.222161	0.692351	-0.684121
C199	C	1.472161	0.942351	-0.434121
C200	C	1.722161	1.192351	-0.184121
C201	C	0.972149	0.442368	-0.857263
C202	C	1.222149	0.692368	-0.607263
C203	C	1.472149	0.942368	-0.357263
C204	C	1.722149	1.192368	-0.107263
C205	C	1.017183	0.397211	-0.820749
C206	C	1.267183	0.647211	-0.570749
C207	C	1.517183	0.897211	-0.320749
C208	C	1.767183	1.147211	-0.070749
C209	C	1.017203	0.397173	-0.974466
C210	C	1.267203	0.647173	-0.724466
C211	C	1.517203	0.897173	-0.474466
C212	C	1.767203	1.147173	-0.224466
C213	C	1.017212	0.397151	-1.057800
C214	C	1.267212	0.647151	-0.807800
C215	C	1.517212	0.897151	-0.557800
C216	C	1.767212	1.147151	-0.307800
C217	C	1.017174	0.397232	-0.737409
C218	C	1.267174	0.647232	-0.487409
C219	C	1.517174	0.897232	-0.237409
C220	C	1.767174	1.147232	0.012591
C221	C	1.017102	0.397316	-0.206024
C222	C	1.267102	0.647316	0.043976
C223	C	1.517102	0.897316	0.293976
C224	C	1.767102	1.147316	0.543976
C225	C	1.017220	0.397135	-0.124230
C226	C	1.267220	0.647135	0.125770
C227	C	1.517220	0.897135	0.375770
C228	C	1.767220	1.147135	0.625770
H229	H	0.749187	0.471547	-0.471207
H230	H	0.999187	0.721547	-0.221207
H231	H	1.249187	0.971547	0.028793
H232	H	1.499187	1.221547	0.278793
H233	H	1.098835	0.830659	-0.315359
H234	H	1.348835	1.080659	-0.065359
H235	H	1.598835	1.330659	0.184641
H236	H	1.848835	1.580659	0.434641
H237	H	1.098888	0.315263	-0.831360
H238	H	1.348888	0.565263	-0.581360
H239	H	1.598888	0.815263	-0.331360
H240	H	1.848888	1.065263	-0.081360
H241	H	0.935497	0.479118	-0.963861
H242	H	1.185497	0.729118	-0.713861
H243	H	1.435497	0.979118	-0.463861
H244	H	1.685497	1.229118	-0.213861
H245	H	1.098892	0.970089	-0.315396
H246	H	1.348892	1.220089	-0.065396
H247	H	1.598892	1.470089	0.184604
H248	H	1.848892	1.720089	0.434604
H249	H	0.419097	0.499751	-0.499338
H250	H	0.669097	0.749751	-0.249338
H251	H	0.919097	0.999751	0.000662
H252	H	1.169097	1.249751	0.250662
H253	H	0.749176	0.300531	-0.300753
H254	H	0.999176	0.550531	-0.050753
H255	H	1.249176	0.800531	0.199247
H256	H	1.499176	1.050531	0.449247
H257	H	1.098901	0.315226	-0.970788
H258	H	1.348901	0.565226	-0.720788
H259	H	1.598901	0.815226	-0.470788
H260	H	1.848901	1.065226	-0.220788
H261	H	0.935470	0.479155	-0.824418
H262	H	1.185470	0.729155	-0.574418
H263	H	1.435470	0.979155	-0.324418
H264	H	1.685470	1.229155	-0.074418
H265	H	0.935469	0.963241	-0.479154
H266	H	1.185469	1.213241	-0.229154
H267	H	1.435469	1.463241	0.020846
H268	H	1.685469	1.713241	0.270846
H269	H	0.419077	0.328741	-0.328875
H270	H	0.669077	0.578741	-0.078875
H271	H	0.919077	0.828741	0.171125
H272	H	1.169077	1.078741	0.421125
H273	H	0.935411	0.823796	-0.479130
H274	H	1.185411	1.073796	-0.229130
H275	H	1.435411	1.323796	0.020870
H276	H	1.685411	1.573796	0.270870
H277	H	0.615843	0.465938	-0.465632
H278	H	0.865843	0.715938	-0.215632
H279	H	1.115843	0.965938	0.034368
H280	H	1.365843	1.215938	0.284368
H281	H	0.285743	0.494145	-0.493758
H282	H	0.535743	0.744145	-0.243758
H283	H	0.785743	0.994145	0.006242
H284	H	1.035743	1.244145	0.256242
H285	H	0.615820	0.294933	-0.295174
H286	H	0.865820	0.544933	-0.045174
H287	H	1.115820	0.794933	0.204826
H288	H	1.365820	1.044933	0.454826
H289	H	0.285733	0.323133	-0.323302
H290	H	0.535733	0.573133	-0.073302
H291	H	0.785733	0.823133	0.176698
H292	H	1.035733	1.073133	0.426698
