data_functionalizedCrystal
_audit_creation_method	'MofGen! by Chris Wilmer'
_symmetry_space_group_name_H-M	'P1'
_symmetry_Int_Tables_number	1
_symmetry_cell_setting	triclinic
loop_
_symmetry_equiv_pos_as_xyz
  x,y,z
_cell_length_a	23.532355
_cell_length_b	22.010155
_cell_length_c	10.654541
_cell_angle_alpha	89.995470
_cell_angle_beta	83.655713
_cell_angle_gamma	90.002586
loop_
_atom_site_label
_atom_site_type_symbol
_atom_site_fract_x
_atom_site_fract_y
_atom_site_fract_z
O1	O	0.756273	0.050442	0.152111
O2	O	0.590550	0.050462	0.174235
O3	O	0.677223	0.050448	-0.019689
O4	O	0.669601	0.050456	0.346035
O5	O	0.677207	-0.050603	-0.019660
O6	O	0.590534	-0.050589	0.174265
O7	O	0.756258	-0.050608	0.152140
Cu8	Cu	0.673394	-0.059825	0.163205
Cu9	Cu	0.673413	0.059679	0.163170
O10	O	0.669585	-0.050594	0.346064
C11	C	0.569322	-0.000061	0.173697
C12	C	0.506092	-0.000054	0.172034
C13	C	0.114002	-0.055162	0.161603
C14	C	0.054592	-0.055164	0.160021
O15	O	0.023861	-0.102009	0.159174
N16	N	0.024887	-0.000082	0.159221
C17	C	0.054596	0.055006	0.159990
O18	O	0.023874	0.101858	0.159162
C19	C	0.114005	0.055008	0.161562
C20	C	0.143706	-0.000078	0.162375
C21	C	0.143703	-0.110244	0.162414
C22	C	0.203109	-0.110241	0.163999
C23	C	0.232813	-0.055157	0.164771
C24	C	0.203112	-0.000075	0.163960
C25	C	0.143713	0.110096	0.162322
C26	C	0.203126	0.110093	0.163894
C27	C	0.232827	0.055007	0.164707
C28	C	0.292221	0.055011	0.166316
N29	N	0.321926	-0.000071	0.167117
C30	C	0.292222	-0.055155	0.166344
C31	C	-0.070167	0.054998	0.156684
C32	C	-0.129576	0.054997	0.155120
C33	C	-0.129575	-0.055174	0.155149
C34	C	-0.070166	-0.055172	0.156722
C35	C	-0.040462	-0.000084	0.157484
C36	C	0.416978	-0.055145	0.169672
C37	C	0.476388	-0.055138	0.171262
C38	C	0.476383	0.055033	0.171226
C39	C	0.416977	0.055025	0.169643
C40	C	0.387276	-0.000068	0.168862
O41	O	0.322991	0.101832	0.167160
O42	O	0.322952	-0.101999	0.167155
N43	N	0.673385	-0.143878	0.163228
C44	C	0.711794	-0.563663	0.077313
C45	C	0.711797	-0.627271	0.077304
O46	O	0.744430	-0.660167	0.004272
N47	N	0.673413	-0.659085	0.163144
C48	C	0.635020	-0.627288	0.248990
O49	O	0.602371	-0.660189	0.322002
C50	C	0.635015	-0.563681	0.248991
C51	C	0.673405	-0.531871	0.163154
C52	C	0.750181	-0.531852	-0.008518
C53	C	0.750179	-0.468249	-0.008508
C54	C	0.711790	-0.436457	0.077334
C55	C	0.673403	-0.468267	0.163165
C56	C	0.596619	-0.531886	0.334830
C57	C	0.596617	-0.468275	0.334824
C58	C	0.635008	-0.436464	0.248987
C59	C	0.635012	-0.372872	0.249017
N60	N	0.673396	-0.341058	0.163177
C61	C	0.711785	-0.372850	0.077336
C62	C	0.635032	-0.760866	0.248978
C63	C	0.635039	-0.824471	0.248984
C64	C	0.711816	-0.824449	0.077296
C65	C	0.711811	-0.760843	0.077298
C66	C	0.673416	-0.729052	0.163138
C67	C	0.711778	-0.239279	0.077365
C68	C	0.711774	-0.175670	0.077387
C69	C	0.634996	-0.175697	0.249069
C70	C	0.635002	-0.239300	0.249052
C71	C	0.673395	-0.271090	0.163190
O72	O	0.602394	-0.339935	0.322008
O73	O	0.744423	-0.339941	0.004325
C74	C	0.777486	-0.000084	0.152678
C75	C	0.840715	-0.000087	0.154341
C76	C	0.676655	-0.000077	-0.066454
C77	C	0.674982	-0.000076	-0.205844
N78	N	0.673426	0.143731	0.163137
C79	C	0.778623	-0.000096	-0.237141
C80	C	0.829655	-0.000107	-0.318273
C81	C	0.828079	-0.000104	-0.449241
C82	C	0.775465	-0.000089	-0.499077
C83	C	0.724433	-0.000078	-0.417945
C84	C	0.726015	-0.000082	-0.286977
C85	C	0.620794	-0.000054	-0.386649
C86	C	0.622368	-0.000061	-0.255681
C87	C	0.568180	-0.000039	-0.436485
C88	C	0.517147	-0.000033	-0.355353
C89	C	0.518725	-0.000036	-0.224378
C90	C	0.571337	-0.000050	-0.174549
C91	C	0.670152	-0.000068	0.392830
C92	C	0.671826	-0.000065	0.532219
H93	H	0.392792	0.099881	0.169001
C94	C	0.915946	0.051822	-0.516259
C95	C	0.884173	-0.000116	-0.538427
H96	H	0.950577	0.051812	-0.571315
H97	H	0.894404	0.087058	-0.531303
H98	H	0.924414	0.051813	-0.431126
H99	H	0.875701	-0.000104	-0.623558
H100	H	0.905720	-0.035362	-0.523394
C101	C	0.567458	0.103942	0.173614
C102	C	0.509042	0.115579	0.172065
H103	H	0.587622	0.141322	0.174117
H104	H	0.573131	0.081319	0.247120
H105	H	0.581241	0.081299	0.100641
H106	H	0.495258	0.138218	0.245043
H107	H	0.503366	0.138211	0.098552
C108	C	0.131408	-0.204158	0.054005
C109	C	0.111062	-0.170801	0.161571
H110	H	0.111261	-0.241548	0.053498
H111	H	0.125717	-0.181534	-0.019488
H112	H	0.171043	-0.212023	0.055068
H113	H	0.071427	-0.162932	0.160503
H114	H	0.116747	-0.193430	0.235083
H115	H	-0.045987	0.099860	0.157317
H116	H	0.392802	-0.100008	0.169047
C117	C	0.537209	-0.119058	0.281025
C118	C	0.509035	-0.115693	0.172150
H119	H	0.557359	-0.156443	0.281572
H120	H	0.563403	-0.086258	0.281706
H121	H	0.509968	-0.116766	0.353637
H122	H	0.536276	-0.117980	0.099537
H123	H	0.482839	-0.148502	0.171457
C124	C	0.744403	-0.844023	-0.140499
C125	C	0.754013	-0.859402	-0.017075
H126	H	0.770455	-0.865600	-0.198752
H127	H	0.706348	-0.854450	-0.153682
H128	H	0.749899	-0.801588	-0.152770
H129	H	0.748512	-0.901836	-0.004800
H130	H	0.792077	-0.848979	-0.003886
C131	C	0.559149	-0.767286	0.418701
C132	C	0.592832	-0.725923	0.343361
H133	H	0.533100	-0.745715	0.476971
H134	H	0.538462	-0.792092	0.366662
H135	H	0.583042	-0.792096	0.463580
H136	H	0.568939	-0.701116	0.298474
H137	H	0.613520	-0.701107	0.395407
C138	C	0.801436	0.051862	-0.695203
C139	C	0.773735	-0.000081	-0.643039
H140	H	0.800370	0.051864	-0.784081
H141	H	0.782659	0.087095	-0.659800
H142	H	0.840071	0.051846	-0.677122
H143	H	0.735099	-0.000064	-0.661113
H144	H	0.792511	-0.035323	-0.678455
H145	H	0.603746	-0.265201	0.318961
C146	C	0.545396	0.051897	0.021574
C147	C	0.573070	-0.000054	-0.030588
H148	H	0.546465	0.051892	0.110451
H149	H	0.564190	0.087124	-0.013835
H150	H	0.506760	0.051902	0.003498
H151	H	0.611707	-0.000057	-0.012519
H152	H	0.554277	-0.035291	0.004834
H153	H	0.227287	-0.155098	0.164653
H154	H	0.603742	-0.149802	0.318964
H155	H	0.743071	-0.734946	0.007401
C156	C	0.197153	0.218993	0.163708
C157	C	0.235774	0.170649	0.164748
H158	H	0.217309	0.256376	0.164247
H159	H	0.178044	0.216698	0.089854
H160	H	0.169920	0.216695	0.236333
H161	H	0.263005	0.172944	0.092118
H162	H	0.254893	0.172945	0.238609
H163	H	0.603784	-0.850367	0.318893
C164	C	0.520721	-0.525491	0.504506
C165	C	0.554416	-0.566841	0.429181
H166	H	0.494663	-0.547071	0.562752
H167	H	0.544602	-0.500685	0.549404
H168	H	0.500040	-0.500679	0.452446
H169	H	0.575100	-0.591649	0.481241
H170	H	0.530532	-0.591657	0.384281
H171	H	-0.153755	0.099854	0.154479
H172	H	0.743039	-0.149772	0.007488
H173	H	-0.045987	-0.100028	0.157386
C174	C	0.809082	-0.052059	-0.058050
C175	C	0.780357	-0.000103	-0.093180
H176	H	0.810156	-0.052061	0.030825
H177	H	0.789574	-0.087283	-0.081894
H178	H	0.847003	-0.052061	-0.099244
H179	H	0.742434	-0.000103	-0.051993
H180	H	0.799864	0.035130	-0.069323
C181	C	0.562512	-0.370782	0.411076
C182	C	0.554413	-0.433330	0.429187
H183	H	0.536455	-0.349211	0.469328
H184	H	0.600564	-0.360357	0.424284
H185	H	0.555999	-0.360357	0.327334
H186	H	0.560930	-0.443756	0.512926
H187	H	0.516351	-0.443759	0.415988
C188	C	0.827585	-0.603362	-0.036678
C189	C	0.792384	-0.566793	-0.102881
H190	H	0.853641	-0.624932	-0.094935
H191	H	0.848265	-0.578546	0.015357
H192	H	0.804722	-0.631416	0.014428
H193	H	0.815247	-0.538737	-0.153980
H194	H	0.771703	-0.591611	-0.154937
C195	C	-0.220648	-0.104087	0.152704
C196	C	-0.162232	-0.115725	0.154272
H197	H	-0.240808	-0.141467	0.152151
H198	H	-0.234438	-0.081462	0.225680
H199	H	-0.226313	-0.081447	0.079202
H200	H	-0.156566	-0.138361	0.227779
H201	H	-0.148438	-0.138359	0.081288
C202	C	0.787670	-0.232851	-0.092337
C203	C	0.753981	-0.274215	-0.017014
H204	H	0.813727	-0.254421	-0.150593
H205	H	0.763786	-0.208043	-0.137222
H206	H	0.808354	-0.208044	-0.040276
H207	H	0.733295	-0.299020	-0.069074
H208	H	0.777869	-0.299034	0.027874
H209	H	0.781438	-0.442352	-0.078407
H210	H	0.566901	-0.000034	-0.543127
H211	H	0.119540	0.154953	0.161659
C212	C	0.891568	0.051818	-0.189139
C213	C	0.887484	-0.000124	-0.263484
H214	H	0.927268	0.051805	-0.155312
H215	H	0.888811	0.087052	-0.239588
H216	H	0.861397	0.051818	-0.122084
H217	H	0.917652	-0.000121	-0.330545
H218	H	0.890246	-0.035367	-0.213033
H219	H	0.474314	-0.000017	-0.395942
H220	H	0.477169	-0.000024	-0.158326
