data_functionalizedCrystal
_audit_creation_method	'MofGen! by Chris Wilmer'
_symmetry_space_group_name_H-M	'P1'
_symmetry_Int_Tables_number	1
_symmetry_cell_setting	triclinic
loop_
_symmetry_equiv_pos_as_xyz
  x,y,z
_cell_length_a	25.639242
_cell_length_b	13.032831
_cell_length_c	13.032268
_cell_angle_alpha	90.886977
_cell_angle_beta	82.833978
_cell_angle_gamma	97.192840
loop_
_atom_site_label
_atom_site_type_symbol
_atom_site_fract_x
_atom_site_fract_y
_atom_site_fract_z
Zn1	Zn	0.353122	1.498669	-0.781038
Zn2	Zn	0.431026	1.520453	-0.609103
Zn3	Zn	0.331278	1.348516	-0.587267
Zn4	Zn	0.428199	1.326700	-0.759227
O5	O	0.385906	1.423584	-0.684159
O6	O	0.373780	1.645485	-0.776497
O7	O	0.409836	1.515892	-0.462285
O8	O	0.261011	1.368447	-0.612960
O9	O	0.431016	1.661490	-0.650177
O10	O	0.277059	1.478764	-0.755323
O11	O	0.336552	1.389570	-0.446242
O12	O	0.333811	1.201696	-0.591811
O13	O	0.426198	1.331265	-0.906041
O14	O	0.405018	1.185667	-0.718149
O15	O	0.371039	1.457610	-0.922066
O16	O	0.503816	1.494738	-0.629028
O17	O	0.501739	1.352388	-0.739323
C18	C	0.366738	1.156363	-0.650244
C19	C	0.358551	1.042041	-0.635759
C20	C	0.249534	1.423609	-0.684139
C21	C	0.191420	1.423620	-0.684131
C22	C	0.390179	0.983182	-0.691718
C23	C	0.381719	0.865025	-0.676749
C24	C	-0.170021	1.349542	-0.741656
C25	C	-0.224624	1.349549	-0.741669
O26	O	-0.253782	1.286547	-0.790538
N27	N	-0.250853	1.423663	-0.684247
C28	C	-0.222474	1.497781	-0.626816
O29	O	-0.249797	1.560822	-0.577976
C30	C	-0.167871	1.497778	-0.626809
C31	C	-0.141647	1.423653	-0.684227
C32	C	-0.143797	1.275424	-0.799070
C33	C	-0.089198	1.275416	-0.799055
C34	C	-0.060823	1.349527	-0.741626
C35	C	-0.087048	1.423645	-0.684212
C36	C	-0.139493	1.571900	-0.569385
C37	C	-0.084887	1.571891	-0.569384
C38	C	-0.058662	1.497766	-0.626802
C39	C	-0.004074	1.497748	-0.626768
N40	N	0.022154	1.423634	-0.684191
C41	C	-0.006220	1.349524	-0.741620
C42	C	-0.337143	1.497783	-0.626836
C43	C	-0.391746	1.497782	-0.626836
C44	C	-0.393892	1.349551	-0.741691
C45	C	-0.339289	1.349548	-0.741684
C46	C	-0.310915	1.423669	-0.684258
C47	C	0.108442	1.349513	-0.741583
C48	C	0.163045	1.349509	-0.741560
C49	C	0.165188	1.497743	-0.626709
C50	C	0.110588	1.497744	-0.626728
C51	C	0.082217	1.423624	-0.684173
O52	O	0.025118	1.560721	-0.577927
O53	O	0.021110	1.286502	-0.790463
C54	C	0.521752	1.423585	-0.684204
C55	C	0.579876	1.423675	-0.684269
C56	C	0.400740	1.389574	-0.952414
C57	C	0.407061	1.375081	-1.066729
C58	C	0.405150	1.691849	-0.718206
C59	C	0.413351	1.806168	-0.732715
C60	C	0.382587	1.431132	-1.125623
C61	C	0.389120	1.416154	-1.243773
C62	C	0.371097	1.457522	-0.416954
C63	C	0.364643	1.472214	-0.302665
H64	H	0.423519	1.020266	-0.750712
H65	H	0.325208	1.004957	-0.576774
H66	H	0.348373	0.827945	-0.617759
F67	F	0.348866	1.508331	-1.077200
F68	F	0.330938	1.549448	-1.254253
F69	F	0.456928	0.854625	-0.809840
F70	F	-0.424100	1.270674	-0.802811
H71	H	-0.160837	1.632259	-0.522631
H72	H	0.432846	1.315998	-1.103777
F73	F	0.190952	1.270611	-0.802674
F74	F	0.078254	1.270626	-0.802722
H75	H	-0.067851	1.215055	-0.845809
H76	H	-0.061786	1.632253	-0.522623
F77	F	-0.173987	1.196540	-0.860202
F78	F	-0.311384	1.270656	-0.802796
F79	F	-0.419651	1.576666	-0.565711
H80	H	-0.314045	1.558140	-0.580063
F81	F	0.195396	1.576615	-0.565596
F82	F	0.082675	1.576619	-0.565597
F83	F	0.422828	1.338926	-1.292188
