data_functionalizedCrystal
_audit_creation_method	'MofGen! by Chris Wilmer'
_symmetry_space_group_name_H-M	'P1'
_symmetry_Int_Tables_number	1
_symmetry_cell_setting	triclinic
loop_
_symmetry_equiv_pos_as_xyz
  x,y,z
_cell_length_a	14.044209
_cell_length_b	17.666332
_cell_length_c	19.188930
_cell_angle_alpha	90.011603
_cell_angle_beta	91.833632
_cell_angle_gamma	89.996366
loop_
_atom_site_label
_atom_site_type_symbol
_atom_site_fract_x
_atom_site_fract_y
_atom_site_fract_z
O1	O	-1.257017	0.062873	0.168277
O2	O	-0.757017	0.562873	0.668277
O3	O	-0.981072	0.062894	0.162206
O4	O	-0.481072	0.562894	0.662206
O5	O	-1.127008	0.062869	0.064100
O6	O	-0.627008	0.562869	0.564100
O7	O	-1.111082	0.062899	0.266384
O8	O	-0.611082	0.562899	0.766384
O9	O	-1.126982	-0.063028	0.064093
O10	O	-0.626982	0.436972	0.564093
O11	O	-0.981047	-0.063002	0.162199
O12	O	-0.481047	0.436998	0.662199
O13	O	-1.256991	-0.063023	0.168270
O14	O	-0.756991	0.436977	0.668270
Cu15	Cu	-1.119017	-0.074508	0.165234
Cu16	Cu	-0.619017	0.425492	0.665234
Cu17	Cu	-1.119047	0.074379	0.165242
Cu18	Cu	-0.619047	0.574379	0.665242
O19	O	-1.111056	-0.062997	0.266376
O20	O	-0.611056	0.437003	0.766376
C21	C	-0.945756	-0.000052	0.159545
C22	C	-0.445756	0.499948	0.659545
C23	C	-0.840563	-0.000044	0.151616
C24	C	-0.340563	0.499956	0.651616
C25	C	-0.647962	-0.000060	0.137122
C26	C	-0.147962	0.499940	0.637122
C27	C	-0.590095	-0.000054	0.193357
C28	C	-0.090095	0.499946	0.693357
C29	C	-0.482925	-0.000063	0.185292
C30	C	0.017075	0.499937	0.685292
C31	C	-0.755142	-0.000051	0.145186
C32	C	-0.255142	0.499949	0.645186
N33	N	-1.119003	-0.179228	0.165228
N34	N	-0.619003	0.320772	0.665228
C35	C	-1.183644	-0.218849	0.121811
C36	C	-0.683644	0.281151	0.621811
C37	C	-1.183649	-0.298096	0.121808
C38	C	-0.683649	0.201904	0.621808
C39	C	-1.119023	-0.337720	0.165234
C40	C	-0.619023	0.162280	0.665234
C41	C	-1.054370	-0.298089	0.208654
C42	C	-0.554370	0.201911	0.708654
C43	C	-1.054359	-0.218843	0.208651
C44	C	-0.554359	0.281157	0.708651
N45	N	-1.106704	-0.462129	0.226247
N46	N	-0.606704	0.037871	0.726247
N47	N	-1.106719	-0.537409	0.226248
N48	N	-0.606719	-0.037409	0.726248
C49	C	-1.119048	-0.576484	0.165246
C50	C	-0.619048	-0.076484	0.665246
N51	N	-1.131379	-0.537434	0.104241
N52	N	-0.631379	-0.037434	0.604241
N53	N	-1.131368	-0.462147	0.104241
N54	N	-0.631368	0.037853	0.604241
C55	C	-1.119026	-0.423649	0.165242
C56	C	-0.619026	0.076351	0.665242
C57	C	-1.183698	-0.702034	0.121822
C58	C	-0.683698	-0.202034	0.621822
C59	C	-1.183697	-0.781283	0.121817
C60	C	-0.683697	-0.281283	0.621817
C61	C	-1.054422	-0.781274	0.208670
C62	C	-0.554422	-0.281274	0.708670
C63	C	-1.054419	-0.702027	0.208668
C64	C	-0.554419	-0.202027	0.708668
C65	C	-1.119062	-0.662412	0.165245
C66	C	-0.619062	-0.162412	0.665245
C67	C	-0.292307	-0.000074	0.170933
C68	C	0.207693	0.499926	0.670933
C69	C	-0.397499	-0.000069	0.178866
C70	C	0.102501	0.499931	0.678866
C71	C	-1.126479	-0.000082	0.038052
C72	C	-0.626479	0.499918	0.538052
C73	C	-1.124931	-0.000088	-0.039552
C74	C	-0.624931	0.499912	0.460448
N75	N	-1.119069	0.179099	0.165243
N76	N	-0.619069	0.679099	0.665243
C77	C	-1.210561	-0.000099	-0.078951
C78	C	-0.710561	0.499901	0.421049
C79	C	-1.209107	-0.000086	-0.151869
C80	C	-0.709107	0.499914	0.348131
C81	C	-1.122017	-0.000079	-0.185385
C82	C	-0.622017	0.499921	0.314615
C83	C	-1.036376	-0.000065	-0.145977
C84	C	-0.536376	0.499935	0.354023
C85	C	-1.037833	-0.000069	-0.073061
C86	C	-0.537833	0.499931	0.426939
N87	N	-1.055439	-0.042919	-0.297688
N88	N	-0.555439	0.457081	0.202312
N89	N	-1.054061	-0.042916	-0.366955
N90	N	-0.554061	0.457084	0.133045
C91	C	-1.117622	-0.000063	-0.405077
C92	C	-0.617622	0.499937	0.094923
N93	N	-1.182628	0.042777	-0.371315
N94	N	-0.682628	0.542777	0.128685
N95	N	-1.184009	0.042771	-0.302041
N96	N	-0.684009	0.542771	0.197959
C97	C	-1.120428	-0.000074	-0.264450
C98	C	-0.620428	0.499926	0.235550
C99	C	-1.201681	-0.000059	-0.523542
C100	C	-0.701681	0.499941	-0.023542
C101	C	-1.200223	-0.000042	-0.596460
C102	C	-0.700223	0.499958	-0.096460
C103	C	-1.027490	-0.000028	-0.590567
C104	C	-0.527490	0.499972	-0.090567
C105	C	-1.028950	-0.000038	-0.517650
C106	C	-0.528950	0.499962	-0.017650
C107	C	-1.116049	-0.000057	-0.484141
C108	C	-0.616049	0.499943	0.015859
C109	C	-1.111585	-0.000045	0.292424
C110	C	-0.611585	0.499955	0.792424
C111	C	-1.113133	-0.000034	0.370029
C112	C	-0.613133	0.499966	0.870029
H113	H	-1.236289	-0.330362	0.086451
H114	H	-0.736289	0.169638	0.586451
C115	C	-1.253840	-0.824206	0.074562
C116	C	-0.753840	-0.324206	0.574562
C117	C	-1.238790	-0.804931	0.005005
C118	C	-0.738790	-0.304931	0.505005
C119	C	-1.303398	-0.844449	-0.038546
C120	C	-0.803398	-0.344449	0.461454
H121	H	-1.244658	-0.877088	0.080685
H122	H	-0.744658	-0.377088	0.580685
H123	H	-1.317065	-0.811191	0.086074
H124	H	-0.817065	-0.311191	0.586074
H125	H	-1.175580	-0.817951	-0.006503
H126	H	-0.675580	-0.317951	0.493497
H127	H	-1.247980	-0.752056	-0.001140
H128	H	-0.747980	-0.252056	0.498860
H129	H	-1.366623	-0.831434	-0.027034
H130	H	-0.866623	-0.331434	0.472966
H131	H	-1.294210	-0.897329	-0.032417
H132	H	-0.794210	-0.397329	0.467583
H133	H	-1.293201	-0.831372	-0.085744
H134	H	-0.793201	-0.331372	0.414256
H135	H	-1.001748	-0.330354	0.244011
H136	H	-0.501748	0.169646	0.744011
H137	H	-0.617017	-0.000072	0.082925
H138	H	-0.117017	0.499928	0.582925
C139	C	-1.253707	-0.176015	0.074432
C140	C	-0.753707	0.323985	0.574432
C141	C	-1.238449	-0.195465	0.004937
C142	C	-0.738449	0.304535	0.504937
C143	C	-1.302962	-0.156074	-0.038779
C144	C	-0.802962	0.343926	0.461221
H145	H	-1.316959	-0.189000	0.085853
H146	H	-0.816959	0.311000	0.585853
H147	H	-1.244552	-0.123110	0.080488
H148	H	-0.744552	0.376890	0.580488
H149	H	-1.247612	-0.248358	-0.001116
H150	H	-0.747612	0.251642	0.498884
H151	H	-1.175210	-0.182478	-0.006506
H152	H	-0.675210	0.317522	0.493494
H153	H	-1.293807	-0.103168	-0.032722
H154	H	-0.793807	0.396832	0.467278
H155	H	-1.366210	-0.169061	-0.027351
H156	H	-0.866210	0.330939	0.472649
H157	H	-1.292613	-0.169259	-0.085936
H158	H	-0.792613	0.330741	0.414064
H159	H	-1.001798	-0.813535	0.244026
H160	H	-0.501798	-0.313535	0.744026
C161	C	-0.631534	0.000023	0.265571
C162	C	-0.131534	0.500023	0.765571
C163	C	-0.731135	0.000057	0.259320
C164	C	-0.231135	0.500057	0.759320
C165	C	-0.769346	0.000149	0.325825
C166	C	-0.269346	0.500149	0.825825
H167	H	-0.610752	-0.043857	0.290285
H168	H	-0.110752	0.456143	0.790285
H169	H	-0.610683	0.043954	0.290207
H170	H	-0.110683	0.543954	0.790207
H171	H	-0.751978	-0.043870	0.234694
H172	H	-0.251978	0.456130	0.734694
H173	H	-0.751944	0.043934	0.234618
H174	H	-0.251944	0.543934	0.734618
H175	H	-0.748495	0.044080	0.350461
H176	H	-0.248495	0.544080	0.850461
H177	H	-0.748557	-0.043732	0.350534
H178	H	-0.248557	0.456268	0.850534
H179	H	-0.836928	0.000179	0.321593
H180	H	-0.336928	0.500179	0.821593
C181	C	-0.984136	-0.175958	0.255872
C182	C	-0.484136	0.324042	0.755872
C183	C	-0.927550	-0.227615	0.293915
C184	C	-0.427550	0.272385	0.793915
C185	C	-0.862860	-0.188136	0.337430
C186	C	-0.362860	0.311864	0.837430
H187	H	-0.944705	-0.145050	0.228364
H188	H	-0.444705	0.354950	0.728364
H189	H	-1.018076	-0.145050	0.287103
H190	H	-0.518076	0.354950	0.787103
H191	H	-0.893613	-0.258509	0.262687
H192	H	-0.393613	0.241491	0.762687
H193	H	-0.966955	-0.258524	0.321436
H194	H	-0.466955	0.241476	0.821436
H195	H	-0.896800	-0.157228	0.368661
H196	H	-0.396800	0.342772	0.868661
H197	H	-0.823436	-0.157229	0.309917
H198	H	-0.323436	0.342771	0.809917
H199	H	-0.824465	-0.223179	0.363252
H200	H	-0.324465	0.276821	0.863252
C201	C	-0.984352	-0.659047	0.255935
C202	C	-0.484352	-0.159047	0.755935
C203	C	-0.999452	-0.678291	0.325492
C204	C	-0.499452	-0.178291	0.825492
C205	C	-0.934928	-0.638706	0.369056
C206	C	-0.434928	-0.138706	0.869056
H207	H	-0.921101	-0.672013	0.244483
H208	H	-0.421101	-0.172013	0.744483
H209	H	-0.993604	-0.606169	0.249764
H210	H	-0.493604	-0.106169	0.749764
H211	H	-0.990192	-0.731157	0.331661
H212	H	-0.490192	-0.231157	0.831661
H213	H	-1.062690	-0.665323	0.336967
H214	H	-0.562690	-0.165323	0.836967
H215	H	-0.944180	-0.585828	0.362885
H216	H	-0.444180	-0.085828	0.862885
H217	H	-0.871682	-0.651675	0.357598
H218	H	-0.371682	-0.151675	0.857598
H219	H	-0.945171	-0.651752	0.416256
H220	H	-0.445171	-0.151752	0.916256
H221	H	-0.959221	-0.000034	-0.485571
H222	H	-0.459221	0.499966	0.014429
H223	H	-1.281483	-0.000111	-0.051673
H224	H	-0.781483	0.499889	0.448327
C225	C	-1.253753	-0.658890	0.074679
C226	C	-0.753753	-0.158890	0.574679
C227	C	-1.203502	-0.613360	0.028796
C228	C	-0.703502	-0.113360	0.528796
C229	C	-1.268019	-0.573586	-0.014612
C230	C	-0.768019	-0.073586	0.485388
H231	H	-1.292310	-0.693729	0.048749
H232	H	-0.792310	-0.193729	0.548749
H233	H	-1.293038	-0.627943	0.102292
H234	H	-0.793038	-0.127943	0.602292
H235	H	-1.164233	-0.644304	0.001187
H236	H	-0.664233	-0.144304	0.501187
H237	H	-1.164948	-0.578507	0.054707
H238	H	-0.664948	-0.078507	0.554707
H239	H	-1.307305	-0.542640	0.013000
H240	H	-0.807305	-0.042640	0.513000
H241	H	-1.306573	-0.608430	-0.040537
H242	H	-0.806573	-0.108430	0.459463
H243	H	-1.233934	-0.542684	-0.045744
H244	H	-0.733934	-0.042684	0.454256
H245	H	-1.269956	-0.000046	-0.628538
H246	H	-0.769956	0.499954	-0.128538
H247	H	-1.278839	-0.000092	-0.183953
H248	H	-0.778839	0.499908	0.316047
C249	C	-0.941889	0.000060	-0.182454
C250	C	-0.441889	0.500060	0.317546
C251	C	-0.936034	0.064823	-0.224144
C252	C	-0.436034	0.564823	0.275856
C253	C	-0.849010	0.064963	-0.257764
C254	C	-0.349010	0.564963	0.242236
H255	H	-0.891015	0.000104	-0.148622
H256	H	-0.391015	0.500104	0.351378
H257	H	-0.937712	-0.043819	-0.210825
H258	H	-0.437712	0.456181	0.289175
H259	H	-0.940202	0.108691	-0.195776
H260	H	-0.440202	0.608691	0.304224
H261	H	-0.986888	0.064792	-0.257989
H262	H	-0.486888	0.564792	0.242011
H263	H	-0.844832	0.021083	-0.286135
H264	H	-0.344832	0.521083	0.213865
H265	H	-0.798142	0.065005	-0.223926
H266	H	-0.298142	0.565005	0.276074
H267	H	-0.845029	0.108899	-0.286059
H268	H	-0.345029	0.608899	0.213941
C269	C	-0.944756	-0.000102	-0.030403
C270	C	-0.444756	0.499898	0.469597
C271	C	-0.868171	-0.000108	-0.075357
C272	C	-0.368171	0.499892	0.424643
C273	C	-0.782414	-0.000150	-0.036085
C274	C	-0.282414	0.499850	0.463915
H275	H	-0.941609	0.043786	-0.001816
H276	H	-0.441609	0.543786	0.498184
H277	H	-0.941673	-0.044026	-0.001862
H278	H	-0.441673	0.455974	0.498138
H279	H	-0.871252	0.043811	-0.103886
H280	H	-0.371252	0.543811	0.396114
H281	H	-0.871286	-0.043993	-0.103945
H282	H	-0.371286	0.456007	0.396055
H283	H	-0.779331	-0.044074	-0.007544
H284	H	-0.279331	0.455926	0.492456
H285	H	-0.779277	0.043738	-0.007499
H286	H	-0.279277	0.543738	0.492501
H287	H	-0.730441	-0.000161	-0.066580
H288	H	-0.230441	0.499839	0.433420
C289	C	-1.296337	-0.000026	-0.487284
C290	C	-0.796337	0.499974	0.012716
C291	C	-1.371020	-0.000001	-0.537399
C292	C	-0.871020	0.499999	-0.037399
C293	C	-1.458231	0.000043	-0.504028
C294	C	-0.958231	0.500043	-0.004028
H295	H	-1.300630	-0.043919	-0.458975
H296	H	-0.800630	0.456081	0.041025
H297	H	-1.300549	0.043893	-0.458969
H298	H	-0.800549	0.543893	0.041031
H299	H	-1.366811	-0.043916	-0.565703
H300	H	-0.866811	0.456084	-0.065703
H301	H	-1.366760	0.043888	-0.565712
H302	H	-0.866760	0.543888	-0.065712
H303	H	-1.462442	0.043962	-0.475712
H304	H	-0.962442	0.543962	0.024288
H305	H	-1.462513	-0.043850	-0.475719
H306	H	-0.962513	0.456150	0.024281
H307	H	-1.508913	0.000067	-0.538026
H308	H	-1.008913	0.500067	-0.038026
H309	H	-0.956580	-0.000019	-0.617855
H310	H	-0.456580	0.499981	-0.117855
