data_functionalizedCrystal
_audit_creation_method	'MofGen! by Chris Wilmer'
_symmetry_space_group_name_H-M	'P1'
_symmetry_Int_Tables_number	1
_symmetry_cell_setting	triclinic
loop_
_symmetry_equiv_pos_as_xyz
  x,y,z
_cell_length_a	29.839134
_cell_length_b	29.839131
_cell_length_c	11.169409
_cell_angle_alpha	90.040119
_cell_angle_beta	90.032900
_cell_angle_gamma	90.036281
loop_
_atom_site_label
_atom_site_type_symbol
_atom_site_fract_x
_atom_site_fract_y
_atom_site_fract_z
Zn1	Zn	0.686768	-0.178878	0.678896
Zn2	Zn	0.686686	-0.254020	0.478186
Zn3	Zn	0.611637	-0.178898	0.478185
Zn4	Zn	0.611599	-0.253975	0.678785
O5	O	0.649172	-0.216443	0.578513
O6	O	0.749624	-0.188857	0.652319
O7	O	0.676712	-0.244082	0.310236
O8	O	0.621653	-0.116028	0.504856
O9	O	0.749564	-0.244063	0.504858
O10	O	0.676852	-0.116014	0.652318
O11	O	0.621573	-0.188890	0.310235
O12	O	0.548764	-0.188847	0.504748
O13	O	0.621589	-0.243987	0.846750
O14	O	0.548737	-0.244006	0.652128
O15	O	0.676815	-0.188813	0.846831
O16	O	0.676675	-0.316881	0.504750
O17	O	0.621509	-0.316848	0.652129
C18	C	0.532450	-0.216424	0.578426
C19	C	0.482515	-0.216427	0.578418
C20	C	0.172867	-0.245207	0.655160
C21	C	-0.014806	-0.245219	0.655213
O22	O	-0.039075	-0.269668	0.720411
N23	N	-0.038270	-0.216459	0.578603
C24	C	-0.014812	-0.187692	0.501980
O25	O	-0.039076	-0.163227	0.436829
C26	C	0.172860	-0.187678	0.501934
C27	C	0.196321	-0.216443	0.578540
C28	C	0.196328	-0.273969	0.731761
C29	C	0.243244	-0.273967	0.731742
C30	C	0.266698	-0.245203	0.655122
C31	C	0.243237	-0.216441	0.578521
C32	C	0.196317	-0.158908	0.425318
C33	C	0.243238	-0.158906	0.425315
C34	C	0.266699	-0.187671	0.501922
C35	C	0.313606	-0.187675	0.501883
N36	N	0.337070	-0.216435	0.578493
C37	C	0.313616	-0.245199	0.655112
C38	C	-0.113343	-0.187702	0.502009
C39	C	-0.160261	-0.187707	0.502018
C40	C	-0.160251	-0.245233	0.655253
C41	C	-0.113333	-0.245231	0.655236
C42	C	-0.089879	-0.216462	0.578618
C43	C	0.412141	-0.245194	0.655067
C44	C	0.459061	-0.245191	0.655037
C45	C	0.459048	-0.187662	0.501808
C46	C	0.412132	-0.187667	0.501832
C47	C	0.388680	-0.216434	0.578471
O48	O	0.337904	-0.163235	0.436729
O49	O	0.337887	-0.269654	0.720273
C50	C	0.125951	-0.245209	0.655179
C51	C	0.102490	-0.216446	0.578578
C52	C	0.125944	-0.187682	0.501958
C53	C	0.055572	-0.216450	0.578588
C54	C	0.032118	-0.245214	0.655207
C55	C	0.055582	-0.273974	0.731817
C56	C	0.102497	-0.273973	0.731798
C57	C	0.102481	-0.158922	0.425348
C58	C	0.055565	-0.158926	0.425372
C59	C	0.032111	-0.187690	0.501992
C60	C	0.649091	-0.333166	0.578454
C61	C	0.649098	-0.383100	0.578468
C62	C	0.677950	-0.692748	0.501885
C63	C	0.678005	-0.880421	0.501931
O64	O	0.702472	-0.904689	0.436772
N65	N	0.649265	-0.903885	0.578604
C66	C	0.620512	-0.880428	0.655275
O67	O	0.596072	-0.904692	0.720499
C68	C	0.620459	-0.692756	0.655234
C69	C	0.649197	-0.669294	0.578548
C70	C	0.706686	-0.669286	0.425206
C71	C	0.706670	-0.622370	0.425191
C72	C	0.677918	-0.598917	0.501854
C73	C	0.649182	-0.622379	0.578532
C74	C	0.591708	-0.669300	0.731910
C75	C	0.591698	-0.622379	0.731895
C76	C	0.620437	-0.598917	0.655210
C77	C	0.620413	-0.552010	0.655180
N78	N	0.649153	-0.528545	0.578508
C79	C	0.677905	-0.551999	0.501845
C80	C	0.620541	-0.978959	0.655290
C81	C	0.620554	-1.025877	0.655299
C82	C	0.678048	-1.025866	0.501956
C83	C	0.678032	-0.978947	0.501942
C84	C	0.649281	-0.955494	0.578618
C85	C	0.677870	-0.453473	0.501817
C86	C	0.677850	-0.406554	0.501805
C87	C	0.620358	-0.406568	0.655151
C88	C	0.620376	-0.453484	0.655160
C89	C	0.649135	-0.476935	0.578489
O90	O	0.595963	-0.527712	0.720315
O91	O	0.702349	-0.527727	0.436649
C92	C	0.677966	-0.739663	0.501900
C93	C	0.649229	-0.763125	0.578579
C94	C	0.620477	-0.739671	0.655242
C95	C	0.649242	-0.810043	0.578588
C96	C	0.677994	-0.833496	0.501925
C97	C	0.706734	-0.810032	0.425253
C98	C	0.706718	-0.763117	0.425237
C99	C	0.591737	-0.763136	0.731914
C100	C	0.591755	-0.810051	0.731922
C101	C	0.620507	-0.833505	0.655259
C102	C	0.766351	-0.216462	0.578601
C103	C	0.816285	-0.216471	0.578638
C104	C	0.649207	-0.216393	0.891556
C105	C	0.649222	-0.216372	1.024956
C106	C	0.649266	-0.099265	0.578599
C107	C	0.649306	-0.049330	0.578636
C108	C	0.649164	-0.216460	0.266688
C109	C	0.649236	-0.216355	0.133289
H110	H	0.478153	-0.164245	0.439422
H111	H	0.597127	-0.959867	0.717730
Br112	Br	0.380291	-0.148637	0.397843
H113	H	0.036477	-0.297397	0.794200
Br114	Br	-0.192091	-0.284268	0.759243
H115	H	-0.179359	-0.164288	0.439626
Br116	Br	0.716853	-0.374715	0.397722
H117	H	0.262331	-0.135476	0.362930
Br118	Br	0.023731	-0.119886	0.321391
Br119	Br	0.716900	-0.485293	0.397763
Br120	Br	0.552713	-0.731313	0.835970
Br121	Br	0.134330	-0.313014	0.835768
H122	H	0.121573	-0.135498	0.362954
Br123	Br	-0.081498	-0.284271	0.759205
H124	H	0.597148	-1.044975	0.717733
H125	H	0.262341	-0.297390	0.794125
Br126	Br	0.552678	-0.590553	0.835966
Br127	Br	0.552748	-0.841886	0.836003
Br128	Br	0.490898	-0.284234	0.759005
H129	H	0.177237	-0.297393	0.794160
H130	H	0.177223	-0.135486	0.362934
Br131	Br	-0.081520	-0.148654	0.398019
H132	H	0.596976	-0.472587	0.717607
Br133	Br	0.581341	-0.374729	0.759194
Br134	Br	0.745681	-0.590537	0.321129
H135	H	0.730102	-0.688377	0.362778
Br136	Br	0.717035	-0.947111	0.397864
Br137	Br	0.745723	-0.731283	0.321161
H138	H	0.701459	-1.044970	0.439535
Br139	Br	0.380321	-0.284235	0.759078
H140	H	0.730143	-0.829136	0.362827
H141	H	0.568304	-0.688395	0.794351
