data_functionalizedCrystal
_audit_creation_method	'MofGen! by Chris Wilmer'
_symmetry_space_group_name_H-M	'P1'
_symmetry_Int_Tables_number	1
_symmetry_cell_setting	triclinic
loop_
_symmetry_equiv_pos_as_xyz
  x,y,z
_cell_length_a	27.732048
_cell_length_b	27.732048
_cell_length_c	12.996460
_cell_angle_alpha	89.988908
_cell_angle_beta	89.999906
_cell_angle_gamma	82.642655
loop_
_atom_site_label
_atom_site_type_symbol
_atom_site_fract_x
_atom_site_fract_y
_atom_site_fract_z
O1	O	0.640928	0.057518	-0.085445
O2	O	1.140928	0.557518	0.414555
O3	O	0.500134	0.066263	-0.085478
O4	O	1.000134	0.566263	0.414522
O5	O	0.574904	-0.008506	-0.085441
O6	O	1.074904	0.491494	0.414559
O7	O	0.566158	0.132287	-0.085482
O8	O	1.066158	0.632287	0.414518
O9	O	0.574896	-0.008510	0.085693
O10	O	1.074896	0.491490	0.585693
O11	O	0.500127	0.066259	0.085656
O12	O	1.000127	0.566259	0.585656
O13	O	0.640920	0.057514	0.085689
O14	O	1.140920	0.557514	0.585689
Cu15	Cu	0.570523	0.061886	0.101298
Cu16	Cu	1.070523	0.561886	0.601298
Cu17	Cu	0.570532	0.061891	-0.101087
Cu18	Cu	1.070532	0.561891	0.398913
O19	O	0.566151	0.132283	0.085652
O20	O	1.066151	0.632283	0.585652
C21	C	0.482124	0.066078	0.000085
C22	C	0.982124	0.566078	0.500085
C23	C	0.428469	0.065525	0.000073
C24	C	0.928469	0.565525	0.500073
C25	C	0.089654	0.106229	0.000106
C26	C	0.589654	0.606229	0.500106
C27	C	-0.112006	0.104178	0.000116
C28	C	0.387994	0.604178	0.500116
O29	O	-0.143262	0.141398	0.000150
O30	O	0.356738	0.641398	0.500150
N31	N	-0.131130	0.059843	0.000127
N32	N	0.368870	0.559843	0.500127
C33	C	-0.099835	0.016017	0.000143
C34	C	0.400165	0.516017	0.500143
O35	O	-0.120728	-0.021740	0.000163
O36	O	0.379272	0.478260	0.500163
C37	C	0.101824	0.018068	0.000140
C38	C	0.601824	0.518068	0.500140
C39	C	0.120944	0.062407	0.000119
C40	C	0.620944	0.562407	0.500119
C41	C	0.108775	0.150563	0.000086
C42	C	0.608775	0.650563	0.500086
C43	C	0.159187	0.151075	0.000078
C44	C	0.659187	0.651075	0.500078
C45	C	0.190477	0.107253	0.000090
C46	C	0.690477	0.607253	0.500090
C47	C	0.171356	0.062919	0.000110
C48	C	0.671356	0.562919	0.500110
C49	C	0.133117	-0.025757	0.000163
C50	C	0.633117	0.474243	0.500163
C51	C	0.183535	-0.025240	0.000165
C52	C	0.683535	0.474760	0.500165
C53	C	0.202655	0.019098	0.000143
C54	C	0.702655	0.519098	0.500143
C55	C	0.253059	0.019609	0.000115
C56	C	0.753059	0.519609	0.500115
N57	N	0.272183	0.063944	0.000104
N58	N	0.772183	0.563944	0.500104
C59	C	0.240892	0.107766	0.000091
C60	C	0.740892	0.607766	0.500091
C61	C	-0.205709	0.014943	0.000142
C62	C	0.294291	0.514943	0.500142
C63	C	-0.256124	0.014430	0.000141
C64	C	0.243876	0.514430	0.500141
C65	C	-0.268291	0.102591	0.000116
C66	C	0.231709	0.602591	0.500116
C67	C	-0.217876	0.103104	0.000110
C68	C	0.282124	0.603104	0.500110
C69	C	-0.186585	0.059278	0.000131
C70	C	0.313415	0.559278	0.500131
C71	C	0.346761	0.108839	0.000073
C72	C	0.846761	0.608839	0.500073
C73	C	0.397178	0.109347	0.000061
C74	C	0.897178	0.609347	0.500061
C75	C	0.409341	0.021186	0.000091
C76	C	0.909341	0.521186	0.500091
C77	C	0.358929	0.020678	0.000098
C78	C	0.858929	0.520678	0.500098
C79	C	0.327639	0.064508	0.000093
C80	C	0.827639	0.564508	0.500093
O81	O	0.284343	-0.017592	0.000093
O82	O	0.784343	0.482408	0.500093
O83	O	0.261794	0.145518	0.000094
O84	O	0.761794	0.645518	0.500094
C85	C	0.039242	0.105716	0.000114
C86	C	0.539242	0.605716	0.500114
C87	C	0.020120	0.061382	0.000135
C88	C	0.520120	0.561382	0.500135
C89	C	0.051411	0.017560	0.000147
C90	C	0.551411	0.517560	0.500147
C91	C	-0.030294	0.060869	0.000133
C92	C	0.469706	0.560869	0.500133
C93	C	-0.061585	0.104691	0.000121
C94	C	0.438415	0.604691	0.500121
C95	C	-0.042461	0.149026	0.000110
C96	C	0.457539	0.649026	0.500110
C97	C	0.007951	0.149539	0.000102
C98	C	0.507951	0.649539	0.500102
C99	C	0.032287	-0.026775	0.000158
C100	C	0.532287	0.473225	0.500158
C101	C	-0.018125	-0.027284	0.000165
C102	C	0.481875	0.472716	0.500165
C103	C	-0.049416	0.016538	0.000153
C104	C	0.450584	0.516538	0.500153
C105	C	0.574716	-0.026515	0.000129
C106	C	1.074716	0.473485	0.500129
C107	C	0.574164	-0.080170	0.000137
C108	C	1.074164	0.419830	0.500137
C109	C	0.614867	-0.418985	0.000094
C110	C	1.114867	0.081015	0.500094
C111	C	0.612816	-0.620645	0.000079
C112	C	1.112816	-0.120645	0.500079
O113	O	0.650037	-0.651900	0.000042
O114	O	1.150037	-0.151900	0.500042
N115	N	0.568481	-0.639768	0.000070
N116	N	1.068481	-0.139768	0.500070
C117	C	0.524656	-0.608474	0.000057
C118	C	1.024656	-0.108474	0.500057
O119	O	0.486899	-0.629367	0.000038
O120	O	0.986899	-0.129367	0.500038
C121	C	0.526707	-0.406815	0.000065
C122	C	1.026707	0.093185	0.500065
C123	C	0.571045	-0.387694	0.000084
C124	C	1.071045	0.112306	0.500084
C125	C	0.659202	-0.399864	0.000112
C126	C	1.159202	0.100136	0.500112
C127	C	0.659714	-0.349452	0.000122
C128	C	1.159714	0.150548	0.500122
C129	C	0.615892	-0.318161	0.000112
C130	C	1.115892	0.181839	0.500112
C131	C	0.571557	-0.337282	0.000094
C132	C	1.071557	0.162718	0.500094
C133	C	0.482882	-0.375521	0.000045
C134	C	0.982882	0.124479	0.500045
C135	C	0.483399	-0.325104	0.000044
C136	C	0.983399	0.174896	0.500044
C137	C	0.527737	-0.305983	0.000064
C138	C	1.027737	0.194017	0.500064
C139	C	0.528247	-0.255580	0.000094
C140	C	1.028247	0.244420	0.500094
N141	N	0.572583	-0.236456	0.000103
N142	N	1.072583	0.263544	0.500103
C143	C	0.616405	-0.267747	0.000112
C144	C	1.116405	0.232253	0.500112
C145	C	0.523582	-0.714348	0.000055
C146	C	1.023582	-0.214348	0.500055
C147	C	0.523069	-0.764762	0.000055
C148	C	1.023069	-0.264762	0.500055
C149	C	0.611230	-0.776930	0.000075
C150	C	1.111230	-0.276930	0.500075
C151	C	0.611742	-0.726514	0.000082
C152	C	1.111742	-0.226514	0.500082
C153	C	0.567917	-0.695224	0.000065
C154	C	1.067917	-0.195224	0.500065
C155	C	0.617477	-0.161878	0.000133
C156	C	1.117477	0.338122	0.500133
C157	C	0.617986	-0.111461	0.000146
C158	C	1.117986	0.388539	0.500146
C159	C	0.529825	-0.099298	0.000121
C160	C	1.029825	0.400702	0.500121
C161	C	0.529316	-0.149710	0.000113
C162	C	1.029316	0.350290	0.500113
C163	C	0.573147	-0.180999	0.000115
C164	C	1.073147	0.319001	0.500115
O165	O	0.491047	-0.224296	0.000119
O166	O	0.991047	0.275704	0.500119
O167	O	0.654156	-0.246844	0.000108
O168	O	1.154156	0.253156	0.500108
C169	C	0.614355	-0.469397	0.000084
C170	C	1.114355	0.030603	0.500084
C171	C	0.570021	-0.488518	0.000066
C172	C	1.070021	0.011482	0.500066
C173	C	0.526198	-0.457228	0.000056
C174	C	1.026198	0.042772	0.500056
C175	C	0.569508	-0.538933	0.000066
C176	C	1.069508	-0.038933	0.500066
C177	C	0.613330	-0.570223	0.000075
C178	C	1.113330	-0.070223	0.500075
C179	C	0.657665	-0.551100	0.000084
C180	C	1.157665	-0.051100	0.500084
C181	C	0.658177	-0.500688	0.000094
C182	C	1.158177	-0.000688	0.500094
C183	C	0.481863	-0.476351	0.000047
C184	C	0.981863	0.023649	0.500047
C185	C	0.481355	-0.526764	0.000039
C186	C	0.981355	-0.026764	0.500039
C187	C	0.525177	-0.558054	0.000048
C188	C	1.025177	-0.058054	0.500048
C189	C	0.658931	0.057699	0.000123
C190	C	1.158931	0.557699	0.500123
C191	C	0.712586	0.058252	0.000128
C192	C	1.212586	0.558252	0.500128
C193	C	0.566338	0.150292	0.000080
C194	C	1.066338	0.650292	0.500080
C195	C	0.566891	0.203947	0.000065
C196	C	1.066891	0.703947	0.500065
N197	N	0.570520	0.061883	0.243645
N198	N	1.070520	0.561883	0.743645
N199	N	0.570538	0.061891	-0.243435
N200	N	1.070538	0.561891	0.256565
C201	C	0.570531	0.061891	0.663460
C202	C	1.070531	0.561891	1.163460
C203	C	0.570526	0.061891	0.546654
C204	C	1.070526	0.561891	1.046654
C205	C	0.570526	0.061887	0.453556
C206	C	1.070526	0.561887	0.953556
C207	C	0.570521	0.061886	0.336744
C208	C	1.070521	0.561886	0.836744
H209	H	0.174750	0.187180	0.000060
H210	H	0.674750	0.687180	0.500060
H211	H	0.445246	-0.542327	0.000032
H212	H	0.945246	-0.042327	0.500032
H213	H	-0.033688	-0.063392	0.000174
H214	H	0.466312	0.436608	0.500174
C215	C	0.066701	-0.074986	0.000167
C216	C	0.566701	0.425014	0.500167
N217	N	0.092620	-0.111302	0.000167
N218	N	0.592620	0.388698	0.500167
H219	H	0.695819	-0.333889	0.000134
H220	H	1.195819	0.166111	0.500134
H221	H	0.209009	-0.060929	0.000183
H222	H	0.709009	0.439071	0.500183
H223	H	0.493213	-0.165279	0.000126
H224	H	0.993213	0.334721	0.500126
H225	H	0.023514	0.185643	0.000086
H226	H	0.523514	0.685643	0.500086
H227	H	-0.293777	0.138273	0.000106
H228	H	0.206223	0.638273	0.500106
C229	C	0.707414	-0.434277	0.000134
C230	C	1.207414	0.065723	0.500134
N231	N	0.743731	-0.460194	0.000161
N232	N	1.243731	0.039806	0.500161
H233	H	0.321291	0.144530	0.000072
H234	H	0.821291	0.644530	0.500072
C235	C	0.475367	-0.679934	0.000037
C236	C	0.975367	-0.179934	0.500037
N237	N	0.439051	-0.654016	0.000025
N238	N	0.939051	-0.154016	0.500025
H239	H	0.446177	-0.450879	0.000037
H240	H	0.946177	0.049121	0.500037
C241	C	-0.196848	0.151878	0.000097
C242	C	0.303152	0.651878	0.500097
N243	N	-0.181013	0.188618	0.000092
N244	N	0.318987	0.688618	0.500092
H245	H	0.694282	-0.485125	0.000109
H246	H	1.194282	0.014875	0.500109
C247	C	0.434106	-0.396542	0.000016
C248	C	0.934106	0.103458	0.500016
N249	N	0.397365	-0.412374	-0.000009
N250	N	0.897365	0.087626	0.499991
H251	H	0.647846	-0.710950	0.000098
H252	H	1.147846	-0.210950	0.500098
H253	H	0.412743	0.145454	0.000043
H254	H	0.912743	0.645454	0.500043
C255	C	0.435186	-0.290687	0.000028
C256	C	0.935186	0.209313	0.500028
N257	N	0.398872	-0.264766	0.000020
N258	N	0.898872	0.235234	0.500020
H259	H	0.494146	-0.073812	0.000117
H260	H	0.994146	0.426188	0.500117
C261	C	0.705870	-0.585529	0.000093
C262	C	1.205870	-0.085529	0.500093
N263	N	0.742175	-0.611464	0.000093
N264	N	1.242175	-0.111464	0.500093
H265	H	0.653168	-0.187348	0.000131
H266	H	1.153168	0.312652	0.500131
H267	H	0.083302	0.186251	0.000079
H268	H	0.583302	0.686251	0.500079
C269	C	-0.277150	-0.034345	0.000157
C270	C	0.222850	0.465655	0.500157
N271	N	-0.292986	-0.071085	0.000179
N272	N	0.207014	0.428915	0.500179
C273	C	-0.171295	-0.033272	0.000157
C274	C	0.328705	0.466728	0.500157
N275	N	-0.145377	-0.069587	0.000163
N276	N	0.354623	0.430413	0.500163
C277	C	0.474293	-0.785789	0.000046
C278	C	0.974293	-0.285789	0.500046
N279	N	0.437554	-0.801624	0.000033
N280	N	0.937554	-0.301624	0.500033
H281	H	-0.067947	0.184708	0.000096
H282	H	0.432053	0.684708	0.500096
H283	H	0.646911	-0.802415	0.000083
H284	H	1.146911	-0.302415	0.500083
C285	C	0.337895	-0.028096	0.000109
C286	C	0.837895	0.471904	0.500109
N287	N	0.322056	-0.064833	0.000125
N288	N	0.822056	0.435167	0.500125
H289	H	0.434827	-0.014492	0.000097
H290	H	0.934827	0.485508	0.500097
H291	H	0.117558	-0.061861	0.000181
H292	H	0.617558	0.438139	0.500181
H293	H	0.654093	-0.095896	0.000165
H294	H	1.154093	0.404104	0.500165
