data_functionalizedCrystal
_audit_creation_method	'MofGen! by Chris Wilmer'
_symmetry_space_group_name_H-M	'P1'
_symmetry_Int_Tables_number	1
_symmetry_cell_setting	triclinic
loop_
_symmetry_equiv_pos_as_xyz
  x,y,z
_cell_length_a	16.120484
_cell_length_b	18.215407
_cell_length_c	18.215399
_cell_angle_alpha	90.019833
_cell_angle_beta	92.869789
_cell_angle_gamma	87.073985
loop_
_atom_site_label
_atom_site_type_symbol
_atom_site_fract_x
_atom_site_fract_y
_atom_site_fract_z
Zn1	Zn	-0.331906	-1.110213	-0.430960
Zn2	Zn	-0.471328	-1.103879	-0.314129
Zn3	Zn	-0.331934	-0.987144	-0.307908
Zn4	Zn	-0.471282	-0.980871	-0.437152
O5	O	-0.401612	-1.045527	-0.372537
O6	O	-0.350409	-1.212356	-0.415474
O7	O	-0.452868	-1.088368	-0.210321
O8	O	-0.215264	-1.008745	-0.319037
O9	O	-0.452841	-1.207703	-0.329639
O10	O	-0.215244	-1.099163	-0.409442
O11	O	-0.350456	-1.002604	-0.205751
O12	O	-0.350411	-0.883328	-0.325041
O13	O	-0.452762	-0.998054	-0.539313
O14	O	-0.452789	-0.878719	-0.419995
O15	O	-0.350364	-1.093081	-0.534764
O16	O	-0.587988	-1.082286	-0.335643
O17	O	-0.587954	-0.991913	-0.426027
C18	C	-0.401598	-0.854321	-0.372516
C19	C	-0.401612	-0.772522	-0.372525
C20	C	-0.618221	-1.035751	-0.382198
C21	C	-0.710887	-1.031637	-0.386356
C22	C	-0.401555	-1.045574	-0.564488
C23	C	-0.401530	-1.045594	-0.646286
C24	C	-0.880549	-1.024129	-0.393961
C25	C	-0.921836	-1.067056	-0.351125
C26	C	-1.016241	-1.062879	-0.355357
C27	C	-0.786135	-1.028305	-0.389730
C28	C	-0.184158	-1.055360	-0.362855
C29	C	-0.091492	-1.059551	-0.358729
C30	C	-0.401627	-1.237479	-0.372560
C31	C	-0.401634	-1.319277	-0.372569
C32	C	-0.455004	-0.581943	-0.421912
C33	C	-0.455007	-0.505085	-0.421921
C34	C	-0.348236	-0.509861	-0.323179
C35	C	-0.348229	-0.586719	-0.323174
C36	C	-0.401619	-0.622758	-0.372540
C37	C	-0.401627	-0.469041	-0.372554
C38	C	-0.401630	-0.385708	-0.372564
C39	C	-0.401615	-0.706097	-0.372531
C40	C	-0.348162	-1.095094	-0.832110
C41	C	-0.348138	-1.095104	-0.908967
C42	C	-0.454770	-0.996153	-0.913694
C43	C	-0.454790	-0.996140	-0.836837
C44	C	-0.401487	-1.045615	-0.796047
C45	C	-0.401443	-1.045637	-0.949761
C46	C	-0.401417	-1.045648	-1.033094
C47	C	-0.401511	-1.045603	-0.712709
C48	C	-0.401610	-1.045524	-0.181331
C49	C	-0.401399	-1.045657	-0.099523
H50	H	-0.916101	-0.984243	-0.433809
C51	C	-0.560533	-0.569500	-0.519522
C52	C	-0.513679	-0.621559	-0.476182
H53	H	-0.596752	-0.593957	-0.553031
H54	H	-0.592382	-0.538076	-0.488837
H55	H	-0.524240	-0.541168	-0.546102
H56	H	-0.549973	-0.649886	-0.449598
H57	H	-0.481828	-0.652995	-0.506871
H58	H	-0.498478	-0.471857	-0.462126
C59	C	-0.336500	-0.673648	-0.223671
C60	C	-0.289545	-0.631590	-0.268899
H61	H	-0.300269	-0.701353	-0.190171
H62	H	-0.372776	-0.642018	-0.197089
H63	H	-0.368288	-0.706106	-0.253082
H64	H	-0.257761	-0.599128	-0.239489
H65	H	-0.253254	-0.663224	-0.295484
C66	C	-0.300840	-1.139011	-0.712195
C67	C	-0.289564	-1.149467	-0.787271
H68	H	-0.264664	-1.172582	-0.684517
H69	H	-0.288644	-1.090118	-0.699053
H70	H	-0.356861	-1.147255	-0.702100
H71	H	-0.233545	-1.141219	-0.797368
H72	H	-0.301755	-1.198372	-0.800419
C73	C	-0.300746	-1.139050	-1.024682
C74	C	-0.289517	-1.149489	-0.948608
H75	H	-0.264548	-1.172623	-1.049152
H76	H	-0.356750	-1.147296	-1.039772
H77	H	-0.288541	-1.090153	-1.036713
H78	H	-0.301728	-1.198385	-0.936576
H79	H	-0.233500	-1.141248	-0.933512
H80	H	-0.498213	-0.955843	-0.807474
C81	C	-0.502092	-0.952239	-1.033609
C82	C	-0.513365	-0.941777	-0.958533
H83	H	-0.538273	-0.918672	-1.061288
H84	H	-0.446080	-0.944000	-1.043707
H85	H	-0.514294	-1.001139	-1.046748
H86	H	-0.501158	-0.892879	-0.945392
H87	H	-0.569390	-0.950011	-0.948430
H88	H	-0.886281	-1.106944	-0.311274
C89	C	-0.300836	-0.394164	-0.279343
C90	C	-0.289556	-0.470244	-0.268916
H91	H	-0.264611	-0.369709	-0.245839
H92	H	-0.288706	-0.382140	-0.328262
H93	H	-0.356839	-0.379046	-0.270989
H94	H	-0.233553	-0.485364	-0.277276
H95	H	-0.301680	-0.482273	-0.219986
