data_functionalizedCrystal
_audit_creation_method	'MofGen! by Chris Wilmer'
_symmetry_space_group_name_H-M	'P1'
_symmetry_Int_Tables_number	1
_symmetry_cell_setting	triclinic
loop_
_symmetry_equiv_pos_as_xyz
  x,y,z
_cell_length_a	10.686220
_cell_length_b	13.032721
_cell_length_c	13.033109
_cell_angle_alpha	105.143326
_cell_angle_beta	86.606707
_cell_angle_gamma	100.973619
loop_
_atom_site_label
_atom_site_type_symbol
_atom_site_fract_x
_atom_site_fract_y
_atom_site_fract_z
Zn1	Zn	1.952894	-0.356836	-0.512255
Zn2	Zn	2.452894	0.143164	-0.012255
Zn3	Zn	1.905190	-0.515392	-0.360667
Zn4	Zn	2.405190	-0.015392	0.139333
Zn5	Zn	1.718098	-0.351431	-0.351739
Zn6	Zn	2.218098	0.148569	0.148261
Zn7	Zn	1.718055	-0.551502	-0.551817
Zn8	Zn	2.218055	-0.051502	-0.051817
O9	O	1.823559	-0.443790	-0.444119
O10	O	2.323559	0.056210	0.055881
O11	O	2.123145	-0.365019	-0.479327
O12	O	2.623145	0.134981	0.020673
O13	O	1.860426	-0.476268	-0.212308
O14	O	2.360426	0.023732	0.287692
O15	O	1.769227	-0.202061	-0.352738
O16	O	2.269227	0.297939	0.147262
O17	O	2.088097	-0.481509	-0.367955
O18	O	2.588097	0.018491	0.132045
O19	O	1.941730	-0.206032	-0.470669
O20	O	2.441730	0.293968	0.029331
O21	O	1.722970	-0.355806	-0.205749
O22	O	2.222970	0.144194	0.294251
O23	O	1.541513	-0.390820	-0.391100
O24	O	2.041513	0.109180	0.108900
O25	O	1.769153	-0.543053	-0.693743
O26	O	2.269153	-0.043053	-0.193743
O27	O	1.541481	-0.537812	-0.538097
O28	O	2.041481	-0.037812	-0.038097
O29	O	1.941688	-0.400033	-0.664677
O30	O	2.441688	0.099967	-0.164677
O31	O	1.860384	-0.670268	-0.406317
O32	O	2.360384	-0.170268	0.093683
O33	O	1.722896	-0.696798	-0.546754
O34	O	2.222896	-0.196798	-0.046754
C35	C	1.495712	-0.467649	-0.467923
C36	C	1.995712	0.032351	0.032077
C37	C	1.355458	-0.477885	-0.478135
C38	C	1.855458	0.022115	0.021865
C39	C	1.786496	-0.722449	-0.481818
C40	C	2.286496	-0.222449	0.018182
C41	C	1.770760	-0.841657	-0.497972
C42	C	2.270760	-0.341657	0.002028
C43	C	1.831845	-0.881643	-0.435731
C44	C	2.331845	-0.381643	0.064269
C45	C	1.815583	-1.004849	-0.452426
C46	C	2.315583	-0.504849	0.047574
C47	C	2.152687	-0.419839	-0.420224
C48	C	2.652687	0.080161	0.079776
C49	C	2.292941	-0.409632	-0.410041
C50	C	2.792941	0.090368	0.089959
C51	C	1.860737	-0.476174	-0.718438
C52	C	2.360737	0.023826	-0.218438
C53	C	1.876580	-0.489974	-0.835336
C54	C	2.376580	0.010026	-0.335336
C55	C	1.860805	-0.164043	-0.406295
C56	C	2.360805	0.335957	0.093705
C57	C	1.876677	-0.044831	-0.390176
C58	C	2.376677	0.455169	0.109824
C59	C	1.815633	-0.436524	-0.884208
C60	C	2.315633	0.063476	-0.384208
C61	C	1.832006	-0.450786	-1.005028
C62	C	2.332006	0.049214	-0.505028
C63	C	1.786609	-0.411449	-0.170852
C64	C	2.286609	0.088551	0.329148
C65	C	1.771051	-0.397329	-0.053896
C66	C	2.271051	0.102671	0.446104
H67	H	1.896187	-0.824665	-0.370088
H68	H	2.396187	-0.324665	0.129912
H69	H	1.706743	-0.341009	-1.006296
H70	H	2.206743	0.158991	-0.506296
C71	C	1.316568	-0.333158	-0.221996
C72	C	1.816568	0.166842	0.278004
C73	C	1.365531	-0.320174	-0.320790
C74	C	1.865531	0.179826	0.179210
H75	H	1.361395	-0.277933	-0.166897
H76	H	1.861395	0.222067	0.333103
H77	H	1.228689	-0.328526	-0.217385
H78	H	1.728689	0.171474	0.282615
H79	H	1.326436	-0.401816	-0.214701
H80	H	1.826436	0.098184	0.285299
H81	H	1.355654	-0.251519	-0.328089
H82	H	1.855654	0.248481	0.171911
H83	H	1.453431	-0.324796	-0.325404
H84	H	1.953431	0.175204	0.174596
H85	H	1.940879	-0.546293	-0.882943
H86	H	2.440879	-0.046293	-0.382943
H87	H	1.751248	-1.061826	-0.518080
H88	H	2.251248	-0.561826	-0.018080
H89	H	1.751327	-0.380211	-0.836602
H90	H	2.251327	0.119789	-0.336602
C91	C	1.331835	-0.554366	-0.666183
C92	C	1.831835	-0.054366	-0.166183
C93	C	1.282867	-0.567350	-0.567390
C94	C	1.782867	-0.067350	-0.067390
H95	H	1.287023	-0.609601	-0.721283
H96	H	1.787023	-0.109601	-0.221283
H97	H	1.321961	-0.485722	-0.673485
H98	H	1.821961	0.014278	-0.173485
H99	H	1.419728	-0.558990	-0.670785
H100	H	1.919728	-0.058990	-0.170785
H101	H	1.194975	-0.562718	-0.562785
H102	H	1.694975	-0.062718	-0.062785
H103	H	1.292729	-0.636012	-0.560086
H104	H	1.792729	-0.136012	-0.060086
H105	H	1.896309	-0.507110	-1.052631
H106	H	2.396309	-0.007110	-0.552631
H107	H	1.941023	-0.987855	-0.324529
H108	H	2.441023	-0.487855	0.175471
H109	H	1.706430	-0.898637	-0.563622
H110	H	2.206430	-0.398637	-0.063622
