data_functionalizedCrystal
_audit_creation_method	'MofGen! by Chris Wilmer'
_symmetry_space_group_name_H-M	'P1'
_symmetry_Int_Tables_number	1
_symmetry_cell_setting	triclinic
loop_
_symmetry_equiv_pos_as_xyz
  x,y,z
_cell_length_a	19.121102
_cell_length_b	19.121063
_cell_length_c	16.625539
_cell_angle_alpha	92.410374
_cell_angle_beta	87.544243
_cell_angle_gamma	90.126902
loop_
_atom_site_label
_atom_site_type_symbol
_atom_site_fract_x
_atom_site_fract_y
_atom_site_fract_z
Zn1	Zn	1.059831	-0.324912	-0.523634
Zn2	Zn	1.054741	-0.442148	-0.394284
Zn3	Zn	0.942598	-0.319923	-0.382837
Zn4	Zn	0.937556	-0.437102	-0.523095
O5	O	0.998681	-0.381021	-0.455962
O6	O	1.157260	-0.344663	-0.511492
O7	O	1.039846	-0.425959	-0.279933
O8	O	0.962390	-0.222482	-0.396949
O9	O	1.153521	-0.430796	-0.416459
O10	O	1.048520	-0.226147	-0.500392
O11	O	0.957455	-0.336161	-0.271523
O12	O	0.843824	-0.331268	-0.396426
O13	O	0.953795	-0.422196	-0.635998
O14	O	0.840120	-0.417359	-0.499473
O15	O	1.043630	-0.339770	-0.636395
O16	O	1.034956	-0.539582	-0.415935
O17	O	0.948860	-0.535875	-0.510572
C18	C	0.816535	-0.373225	-0.446649
C19	C	0.738611	-0.369906	-0.442684
C20	C	0.990828	-0.563167	-0.464456
C21	C	0.987532	-0.641092	-0.468120
C22	C	0.700088	-0.413238	-0.494395
C23	C	0.626871	-0.410111	-0.490674
C24	C	0.592177	-0.363655	-0.435237
C25	C	0.630704	-0.320319	-0.383524
C26	C	0.703921	-0.323443	-0.387250
C27	C	0.371207	-0.351973	-0.421310
C28	C	0.297985	-0.348853	-0.417586
C29	C	0.294157	-0.438644	-0.524738
C30	C	0.367374	-0.441767	-0.528455
C31	C	0.405896	-0.398429	-0.476745
C32	C	0.517337	-0.360459	-0.431430
C33	C	0.480735	-0.401622	-0.480557
C34	C	1.030844	-0.679610	-0.420613
C35	C	1.027749	-0.752829	-0.424064
C36	C	0.981338	-0.787529	-0.475018
C37	C	0.938024	-0.749006	-0.522530
C38	C	0.941123	-0.675788	-0.519083
C39	C	0.969738	-1.008503	-0.487893
C40	C	0.966641	-1.081726	-0.491335
C41	C	1.056367	-1.085544	-0.392870
C42	C	1.059460	-1.012325	-0.389424
C43	C	1.016148	-0.973808	-0.436939
C44	C	0.978171	-0.862370	-0.478545
C45	C	1.019319	-0.898968	-0.433416
C46	C	1.181540	-0.388849	-0.465313
C47	C	1.259463	-0.392184	-0.469297
C48	C	0.998718	-0.380977	-0.666271
C49	C	0.998733	-0.380958	-0.755892
C50	C	1.006585	-0.198166	-0.447454
C51	C	1.009953	-0.120244	-0.443828
C52	C	0.998745	-0.380943	-0.828674
C53	C	0.998763	-0.380917	-0.919982
C54	C	0.998780	-0.380893	-0.992759
C55	C	0.998799	-0.380869	-1.084073
C56	C	0.998688	-0.381017	-0.246472
C57	C	0.998817	-0.380845	-0.156849
H58	H	0.728331	-0.451070	-0.539535
Br59	Br	0.574593	-0.468919	-0.560858
Br60	Br	0.250900	-0.285809	-0.342337
H61	H	0.940381	-0.890631	-0.520030
H62	H	0.934471	-0.977148	-0.526580
H63	H	0.508986	-0.439443	-0.525696
Br64	Br	0.875042	-0.796097	-0.591690
H65	H	0.262785	-0.473927	-0.566838
H66	H	1.063018	-0.784187	-0.385379
Br67	Br	0.583621	-0.257264	-0.308295
H68	H	1.097251	-0.984074	-0.347933
Br69	Br	0.882344	-0.623513	-0.583564
H70	H	0.402562	-0.316688	-0.379198
Br71	Br	1.115147	-1.137820	-0.328393
H72	H	0.735285	-0.288154	-0.345146
H73	H	0.928855	-1.109976	-0.532842
Br74	Br	0.414454	-0.504821	-0.603689
H75	H	1.057110	-0.870714	-0.391932
H76	H	0.489081	-0.322636	-0.386291
Br77	Br	1.093828	-0.632524	-0.351451
