data_functionalizedCrystal
_audit_creation_method	'MofGen! by Chris Wilmer'
_symmetry_space_group_name_H-M	'P1'
_symmetry_Int_Tables_number	1
_symmetry_cell_setting	triclinic
loop_
_symmetry_equiv_pos_as_xyz
  x,y,z
_cell_length_a	6.817900
_cell_length_b	13.563541
_cell_length_c	16.255661
_cell_angle_alpha	109.757563
_cell_angle_beta	103.488922
_cell_angle_gamma	104.704624
loop_
_atom_site_label
_atom_site_type_symbol
_atom_site_fract_x
_atom_site_fract_y
_atom_site_fract_z
V1	V	-4.059219	-0.154635	-0.299982
O2	O	-4.012822	0.006507	-0.257328
O3	O	-4.042533	-0.305727	-0.333460
O4	O	-4.010366	-0.152662	-0.414604
O5	O	-4.045212	-0.147617	-0.175623
V6	V	-4.538796	-0.135312	-0.280791
O7	O	-4.329133	-0.197020	-0.342077
O8	O	-4.719080	-0.092927	-0.238695
O9	O	-4.332276	0.015779	-0.247313
O10	O	-4.702590	-0.296455	-0.323444
O11	O	-4.670200	-0.142330	-0.405150
O12	O	-4.364443	-0.137286	-0.166169
C13	C	-3.895264	-0.342547	-0.337896
C14	C	-3.962905	-0.466069	-0.366032
C15	C	-3.979085	-0.749725	-0.120254
C16	C	-3.915518	-0.633669	-0.093816
C17	C	-3.927362	-0.591763	-0.161868
C18	C	-4.002778	-0.665925	-0.256362
C19	C	-4.066335	-0.781991	-0.282802
C20	C	-4.014612	-0.624030	-0.324416
C21	C	-4.090028	-0.698191	-0.418910
C22	C	-4.153580	-0.814246	-0.445345
C23	C	-4.141736	-0.856152	-0.377293
C24	C	-3.951055	-0.507963	-0.297976
C25	C	-4.038306	-0.540230	-0.460524
C26	C	-4.101872	-0.656286	-0.486961
C27	C	-3.854230	-0.147296	-0.441401
C28	C	-3.895781	-0.146682	-0.535339
C29	C	-3.804797	-0.139352	-0.756446
C30	C	-3.981101	-0.233960	-0.848016
C31	C	-3.971924	-0.145532	-0.707319
C32	C	-3.869682	-0.049840	-0.783135
C33	C	-4.045457	-0.144415	-0.873442
C34	C	-4.147728	-0.240225	-0.797678
C35	C	-4.036229	-0.056021	-0.732762
C36	C	-4.212676	-0.150656	-0.824318
C37	C	-3.929558	-0.146176	-0.611620
C38	C	-4.087842	-0.143779	-0.969142
C39	C	-4.142888	0.052594	-0.242876
C40	C	-4.054486	0.176115	-0.214745
C41	C	-4.183921	-0.142655	-0.139367
C42	C	-4.121608	-0.143263	-0.045427
H43	H	-3.632064	-0.134695	-0.726878
H44	H	-3.958243	-0.309190	-0.897669
N45	N	-4.178845	-0.732046	-0.583479
N46	N	-4.059195	-0.725504	-0.630652
H47	H	-4.113551	-0.779011	-0.698818
H48	H	-4.264877	-0.320772	-0.803021
H49	H	-3.875592	-0.497264	-0.140336
H50	H	-3.752537	0.030599	-0.777960
N51	N	-4.429565	-0.156708	-0.861302
N52	N	-4.557750	-0.236607	-0.936725
H53	H	-4.710933	-0.240891	-0.962850
N54	N	-3.966973	-0.792549	-0.050761
N55	N	-4.023709	-0.896176	-0.074382
H56	H	-4.015148	-0.926422	-0.025298
H57	H	-3.889651	-0.447591	-0.221038
N58	N	-4.064843	0.038343	-0.670439
N59	N	-4.243476	0.050314	-0.688854
H60	H	-4.263667	0.116967	-0.644833
H61	H	-4.047947	-0.506111	-0.515937
H62	H	-3.854122	-0.573294	-0.016879
H63	H	-4.214964	-0.874626	-0.522288
N64	N	-4.206683	-0.974702	-0.404285
N65	N	-4.196117	-1.012096	-0.343513
H66	H	-4.241988	-1.095823	-0.362573
