data_functionalizedCrystal
_audit_creation_method	'MofGen! by Chris Wilmer'
_symmetry_space_group_name_H-M	'P1'
_symmetry_Int_Tables_number	1
_symmetry_cell_setting	triclinic
loop_
_symmetry_equiv_pos_as_xyz
  x,y,z
_cell_length_a	11.792241
_cell_length_b	17.019294
_cell_length_c	15.500215
_cell_angle_alpha	97.060225
_cell_angle_beta	93.161413
_cell_angle_gamma	83.793186
loop_
_atom_site_label
_atom_site_type_symbol
_atom_site_fract_x
_atom_site_fract_y
_atom_site_fract_z
O1	O	1.511016	0.111787	0.080187
O2	O	1.180614	0.122969	0.081040
O3	O	1.354473	0.002192	0.072028
O4	O	1.337158	0.232564	0.089199
O5	O	1.345023	-0.004416	-0.072354
O6	O	1.171165	0.116361	-0.063341
O7	O	1.501567	0.105179	-0.064194
Cu8	Cu	1.335503	0.110167	-0.076951
Cu9	Cu	1.346678	0.117982	0.093797
O10	O	1.327708	0.225956	-0.055182
C11	C	1.133603	0.118963	0.008800
C12	C	1.007601	0.116861	0.008651
C13	C	0.776909	0.112995	0.008338
C14	C	0.905283	0.115143	0.008511
C15	C	1.348905	-0.030604	-0.002359
C16	C	1.346380	-0.118483	-0.008904
C17	C	1.350348	-0.156162	0.066723
C18	C	1.347968	-0.238733	0.060571
C19	C	1.341629	-0.283624	-0.021208
C20	C	1.337657	-0.245939	-0.096841
C21	C	1.340029	-0.163369	-0.090688
C22	C	1.334202	-0.533113	-0.043723
C23	C	1.331834	-0.615689	-0.049870
C24	C	1.342142	-0.608477	0.107543
C25	C	1.344520	-0.525906	0.113689
C26	C	1.340543	-0.488228	0.038056
C27	C	1.339199	-0.368025	-0.027498
C28	C	1.342964	-0.403827	0.044347
C29	C	1.548579	0.109186	0.008048
C30	C	1.674580	0.111288	0.008203
C31	C	1.333276	0.258753	0.019207
C32	C	1.335801	0.346632	0.025757
N33	N	1.327651	0.104670	-0.197045
C34	C	1.393670	0.150923	-0.238875
C35	C	1.387747	0.146761	-0.329758
C36	C	1.315798	0.096350	-0.378810
C37	C	1.249776	0.050091	-0.336974
C38	C	1.255706	0.054250	-0.246093
C39	C	1.294447	0.081372	-0.653393
C40	C	1.288520	0.077219	-0.744280
C41	C	1.426493	0.173888	-0.737057
C42	C	1.432412	0.178046	-0.646175
C43	C	1.366395	0.131784	-0.604347
C44	C	1.309739	0.092096	-0.471707
C45	C	1.372460	0.136034	-0.511452
N46	N	1.354539	0.123472	0.213891
H47	H	1.355516	-0.119618	0.133317
H48	H	1.334042	-0.404585	-0.094084
N49	N	1.223246	0.031478	-0.608285
H50	H	1.176766	-0.001085	-0.653152
H51	H	1.170333	0.067451	-0.568025
H52	H	1.431045	0.177076	-0.471511
N53	N	1.510028	0.232411	-0.593274
H54	H	1.463204	0.272649	-0.552698
H55	H	1.550939	0.261023	-0.633626
H56	H	1.480242	0.211551	-0.771123
H57	H	1.348118	-0.367273	0.110932
N58	N	1.232127	0.037738	-0.524623
H59	H	1.150633	0.053692	-0.507681
H60	H	1.255447	-0.019010	-0.513080
N61	N	1.210898	0.022855	-0.797188
H62	H	1.169972	-0.005819	-0.756901
H63	H	1.257789	-0.017331	-0.837770
H64	H	1.191198	0.009041	-0.376920
N65	N	1.352410	-0.279388	0.142139
H66	H	1.356848	-0.238426	0.194879
H67	H	1.421993	-0.319569	0.142466
H68	H	1.345378	-0.639163	0.169119
H69	H	1.452253	0.191979	-0.198943
N70	N	1.325000	-0.664110	-0.138079
H71	H	1.322839	-0.627713	-0.185059
H72	H	1.253501	-0.692416	-0.143595
H73	H	1.201945	0.016585	-0.212037
N74	N	1.335753	-0.122720	-0.172253
H75	H	1.262796	-0.132551	-0.207272
H76	H	1.403431	-0.144794	-0.208126
N77	N	1.458976	0.196656	-0.374846
H78	H	1.407248	0.233449	-0.409689
H79	H	1.511966	0.160681	-0.415044
N80	N	1.351389	-0.477522	0.201911
H81	H	1.423528	-0.496463	0.234758
H82	H	1.282895	-0.484228	0.235647
N83	N	1.329930	-0.492480	-0.125294
H84	H	1.256977	-0.502316	-0.160317
H85	H	1.397613	-0.514562	-0.161158
N86	N	1.330831	-0.294354	-0.185048
H87	H	1.329941	-0.352381	-0.177472
H88	H	1.399297	-0.287602	-0.218791
