data_functionalizedCrystal
_audit_creation_method	'MofGen! by Chris Wilmer'
_symmetry_space_group_name_H-M	'P1'
_symmetry_Int_Tables_number	1
_symmetry_cell_setting	triclinic
loop_
_symmetry_equiv_pos_as_xyz
  x,y,z
_cell_length_a	14.519731
_cell_length_b	15.455313
_cell_length_c	16.956995
_cell_angle_alpha	87.534361
_cell_angle_beta	100.128338
_cell_angle_gamma	87.312459
loop_
_atom_site_label
_atom_site_type_symbol
_atom_site_fract_x
_atom_site_fract_y
_atom_site_fract_z
O1	O	-1.219992	0.072151	0.101114
O2	O	-0.950557	0.072148	0.113405
O3	O	-1.101460	0.072146	-0.008795
O4	O	-1.069088	0.072152	0.223314
O5	O	-1.092833	-0.072116	-0.001836
O6	O	-0.941930	-0.072114	0.120364
O7	O	-1.211365	-0.072111	0.108073
Cu8	Cu	-1.075859	-0.085285	0.114854
Cu9	Cu	-1.086062	0.085322	0.106624
O10	O	-1.060461	-0.072110	0.230273
C11	C	-0.911929	0.000016	0.116308
C12	C	-0.809683	0.000015	0.114583
N13	N	-1.068690	-0.205280	0.120642
C14	C	-0.726649	0.000017	0.113180
C15	C	-0.622477	0.000015	0.111428
C16	C	-0.539447	0.000014	0.110038
C17	C	-0.435268	0.000014	0.108286
C18	C	-1.132819	-0.250675	0.068746
C19	C	-1.127405	-0.341483	0.073131
C20	C	-1.057866	-0.386894	0.129415
C21	C	-0.993731	-0.341493	0.181313
C22	C	-0.999142	-0.250687	0.176924
C23	C	-1.034514	-0.658476	0.148338
C24	C	-1.029111	-0.749288	0.152725
C25	C	-1.162784	-0.749272	0.044541
C26	C	-1.168192	-0.658464	0.040161
C27	C	-1.104054	-0.613070	0.092056
N28	N	-1.052332	-0.479715	0.133900
N29	N	-1.109584	-0.520252	0.087566
C30	C	-0.249992	0.000018	0.105170
C31	C	-0.352238	0.000013	0.106896
C32	C	-1.098804	0.000016	-0.035021
C33	C	-1.103732	0.000019	-0.123534
N34	N	-1.093239	0.205317	0.100830
C35	C	-1.140597	0.000023	-0.622780
C36	C	-1.135959	0.000018	-0.539611
C37	C	-1.048914	0.000021	-0.488653
C38	C	-0.966501	0.000020	-0.520866
C39	C	-0.971139	0.000019	-0.604033
C40	C	-1.025957	0.000018	-0.238915
C41	C	-1.021325	0.000021	-0.155743
C42	C	-1.190784	0.000017	-0.174493
C43	C	-1.195415	0.000022	-0.257661
C44	C	-1.113001	0.000016	-0.289867
N45	N	-1.044172	0.000018	-0.403641
N46	N	-1.117744	0.000013	-0.374877
C47	C	-1.063117	0.000022	0.256499
C48	C	-1.058190	0.000025	0.345012
H49	H	-1.179623	-0.378443	0.030873
H50	H	-1.215001	-0.786239	0.002290
H51	H	-0.937107	-0.378473	0.227139
H52	H	-0.972481	-0.786258	0.198562
C53	C	-1.243728	-0.609319	-0.021034
C54	C	-1.298717	-0.668511	-0.065559
C55	C	-1.368304	-0.623271	-0.121944
H56	H	-1.282127	-0.573879	0.005919
H57	H	-1.215226	-0.573927	-0.056045
H58	H	-1.327217	-0.703888	-0.030553
H59	H	-1.260344	-0.703953	-0.092530
H60	H	-1.339802	-0.587879	-0.156955
H61	H	-1.406696	-0.587832	-0.094984
H62	H	-1.405617	-0.663425	-0.152166
H63	H	-0.950438	0.000021	-0.114253
H64	H	-1.266296	0.000015	-0.299146
H65	H	-1.189448	-0.213707	0.022917
H66	H	-0.982292	-0.621524	0.190595
C67	C	-1.225475	0.000195	-0.504699
C68	C	-1.282148	0.074426	-0.534147
C69	C	-1.364617	0.074622	-0.501998
H70	H	-1.258151	-0.050053	-0.519740
H71	H	-1.210295	0.000238	-0.447869
H72	H	-1.297330	0.074375	-0.590964
H73	H	-1.249502	0.124686	-0.519107
H74	H	-1.349436	0.074665	-0.445167
H75	H	-1.397284	0.024371	-0.517041
H76	H	-1.403075	0.124991	-0.521967
C77	C	-1.235091	0.000199	-0.678150
C78	C	-1.247160	0.074430	-0.730009
C79	C	-1.334203	0.074625	-0.781017
H80	H	-1.237509	-0.050049	-0.708635
H81	H	-1.283536	0.000243	-0.647083
H82	H	-1.198728	0.074379	-0.761072
H83	H	-1.244760	0.124690	-0.699546
H84	H	-1.382648	0.074668	-0.749951
H85	H	-1.336614	0.024374	-0.811497
H86	H	-1.342407	0.124993	-0.816204
C87	C	-0.936505	-0.000153	-0.273915
C88	C	-0.929754	-0.074383	-0.317517
C89	C	-0.847355	-0.074573	-0.349767
H90	H	-0.937717	0.050096	-0.308448
H91	H	-0.883971	-0.000193	-0.231676
H92	H	-0.982274	-0.074336	-0.359750
H93	H	-0.928526	-0.124644	-0.283001
H94	H	-0.794822	-0.074612	-0.307527
H95	H	-0.848575	-0.024321	-0.384296
H96	H	-0.842760	-0.124941	-0.379347
C97	C	-0.929461	-0.201555	0.233368
C98	C	-0.867419	-0.260757	0.283614
C99	C	-0.803220	-0.215530	0.335626
H100	H	-0.895283	-0.166142	0.202990
H101	H	-0.962179	-0.166136	0.264957
H102	H	-0.834703	-0.296161	0.252029
H103	H	-0.901570	-0.296172	0.314010
H104	H	-0.835938	-0.180111	0.367215
H105	H	-0.769049	-0.180118	0.305242
H106	H	-0.761122	-0.255691	0.369729
C107	C	-1.280148	-0.000030	-0.139368
C108	C	-1.257461	-0.000052	-0.055627
C109	C	-1.339761	-0.000110	-0.023243
H110	H	-1.318798	0.050261	-0.159187
H111	H	-1.312711	-0.050361	-0.154378
H112	H	-1.224913	0.050274	-0.040624
H113	H	-1.218823	-0.050338	-0.035786
H114	H	-1.372324	-0.050441	-0.038253
H115	H	-1.378406	0.050181	-0.043068
H116	H	-1.324379	-0.000133	0.033578
C117	C	-0.881565	0.000070	-0.638854
C118	C	-0.804342	0.000098	-0.576429
C119	C	-0.721809	0.000153	-0.608474
H120	H	-0.876708	-0.050224	-0.668470
H121	H	-0.882814	0.050398	-0.673312
H122	H	-0.803092	-0.050224	-0.541985
H123	H	-0.809167	0.050388	-0.546808
H124	H	-0.723058	0.050481	-0.642933
H125	H	-0.716962	-0.050141	-0.638090
H126	H	-0.669404	0.000180	-0.566125
H127	H	-0.895626	0.000017	-0.479369
