data_functionalizedCrystal
_audit_creation_method	'MofGen! by Chris Wilmer'
_symmetry_space_group_name_H-M	'P1'
_symmetry_Int_Tables_number	1
_symmetry_cell_setting	triclinic
loop_
_symmetry_equiv_pos_as_xyz
  x,y,z
_cell_length_a	19.188930
_cell_length_b	8.559649
_cell_length_c	7.088929
_cell_angle_alpha	84.674985
_cell_angle_beta	83.792352
_cell_angle_gamma	103.538277
loop_
_atom_site_label
_atom_site_type_symbol
_atom_site_fract_x
_atom_site_fract_y
_atom_site_fract_z
O1	O	-0.015637	-2.103838	-0.158953
O2	O	0.020435	-1.638380	-0.158972
O3	O	-0.099961	-1.884545	-0.158924
O4	O	0.104759	-1.857673	-0.159000
O5	O	-0.116083	-1.917443	0.159057
O6	O	0.004313	-1.671278	0.159009
O7	O	-0.031759	-2.136736	0.159029
Cu8	Cu	-0.015195	-1.907011	0.188053
Cu9	Cu	0.003871	-1.868105	-0.187997
O10	O	0.088637	-1.890571	0.158981
C11	C	0.015108	-1.595280	0.000017
C12	C	0.023245	-1.417842	0.000011
C13	C	-0.133987	-1.900125	0.000072
C14	C	-0.211356	-1.897515	0.000088
C15	C	-0.026431	-2.179836	0.000036
C16	C	-0.034568	-2.357272	0.000029
C17	C	-0.263833	-2.041955	0.000103
C18	C	-0.336527	-2.039498	0.000073
C19	C	-0.356742	-1.892597	0.000065
C20	C	-0.304254	-1.748137	0.000039
C21	C	-0.231561	-1.750596	0.000050
N22	N	-0.464363	-1.791505	0.108275
N23	N	-0.533419	-1.789179	0.108268
C24	C	-0.575761	-1.885180	0.000026
N25	N	-0.546442	-1.983621	-0.108185
N26	N	-0.477380	-1.985952	-0.108170
C27	C	-0.435564	-1.889915	0.000051
C28	C	-0.707062	-2.026966	0.000005
C29	C	-0.779756	-2.024502	-0.000037
C30	C	-0.747483	-1.733139	-0.000052
C31	C	-0.674789	-1.735605	-0.000028
C32	C	-0.654585	-1.882524	0.000009
C33	C	0.122664	-1.874991	-0.000019
C34	C	0.200034	-1.877599	-0.000048
N35	N	-0.028606	-1.934386	0.452547
N36	N	0.017276	-1.840742	-0.452490
H37	H	-0.379261	-2.157122	0.000077
H38	H	-0.320718	-1.628528	0.000029
O39	O	-0.836358	-2.180305	-0.000028
H40	H	-0.890300	-2.153915	-0.000067
H41	H	-0.690611	-2.146595	0.000027
O42	O	-0.108380	-1.468389	0.000074
H43	H	-0.131367	-1.432441	-0.129524
O44	O	-0.174955	-1.594805	0.000067
H45	H	-0.201221	-1.492239	0.000071
O46	O	0.097061	-1.306719	-0.000021
H47	H	0.138128	-1.378995	-0.000045
O48	O	0.080251	-1.712150	0.439355
H49	H	0.079131	-1.714393	0.283399
O50	O	-0.769274	-1.574688	-0.000051
H51	H	-0.828639	-1.597243	-0.000044
O52	O	-0.091594	-2.062960	0.560710
H53	H	-0.090484	-2.060697	0.716666
H54	H	-0.632061	-1.617987	-0.000030
O55	O	-0.242035	-2.200404	0.000090
H56	H	-0.290742	-2.300428	0.000068
