data_functionalizedCrystal
_audit_creation_method	'MofGen! by Chris Wilmer'
_symmetry_space_group_name_H-M	'P1'
_symmetry_Int_Tables_number	1
_symmetry_cell_setting	triclinic
loop_
_symmetry_equiv_pos_as_xyz
  x,y,z
_cell_length_a	13.635800
_cell_length_b	7.190339
_cell_length_c	7.190401
_cell_angle_alpha	82.317494
_cell_angle_beta	60.610757
_cell_angle_gamma	60.611724
loop_
_atom_site_label
_atom_site_type_symbol
_atom_site_fract_x
_atom_site_fract_y
_atom_site_fract_z
V1	V	-2.154324	0.291676	0.663507
O2	O	-2.100792	-0.017542	0.652428
O3	O	-2.172020	0.581735	0.657477
O4	O	-2.172022	0.285642	0.953567
O5	O	-2.100790	0.280601	0.354289
V6	V	-2.385281	0.254873	0.626704
O7	O	-2.308656	0.372407	0.744239
O8	O	-2.456048	0.174142	0.545972
O9	O	-2.255982	-0.035187	0.632734
O10	O	-2.497512	0.564091	0.637783
O11	O	-2.497514	0.265948	0.935922
O12	O	-2.255980	0.260906	0.336644
V13	V	-1.885273	0.254873	0.626704
O14	O	-1.938808	0.265948	0.935922
O15	O	-1.867576	0.260906	0.336644
O16	O	-1.867578	-0.035187	0.632734
O17	O	-1.938806	0.564091	0.637783
V18	V	-1.654317	0.291676	0.663507
O19	O	-1.730942	0.174142	0.545972
O20	O	-1.583550	0.372407	0.744239
O21	O	-1.783618	0.285642	0.953567
O22	O	-1.542084	0.280601	0.354289
O23	O	-1.542086	-0.017542	0.652428
O24	O	-1.783616	0.581735	0.657477
C25	C	-2.103367	0.652497	0.646635
C26	C	-2.159800	0.894072	0.643587
C27	C	-2.159803	0.271766	1.265887
C28	C	-2.103360	0.274815	1.024311
C29	C	-1.936230	0.271754	0.265884
C30	C	-1.879799	0.274817	0.024311
C31	C	-1.936238	-0.105934	0.643589
C32	C	-1.879812	-0.347505	0.646664
