data_functionalizedCrystal
_audit_creation_method	'MofGen! by Chris Wilmer'
_symmetry_space_group_name_H-M	'P1'
_symmetry_Int_Tables_number	1
_symmetry_cell_setting	triclinic
loop_
_symmetry_equiv_pos_as_xyz
  x,y,z
_cell_length_a	12.759401
_cell_length_b	12.759394
_cell_length_c	12.759393
_cell_angle_alpha	90.031220
_cell_angle_beta	90.020938
_cell_angle_gamma	90.016362
loop_
_atom_site_label
_atom_site_type_symbol
_atom_site_fract_x
_atom_site_fract_y
_atom_site_fract_z
Zn1	Zn	1.606265	-0.418173	0.594015
Zn2	Zn	1.606156	-0.593889	0.418333
Zn3	Zn	1.430564	-0.418229	0.418350
Zn4	Zn	1.430556	-0.593815	0.593970
O5	O	1.518385	-0.506026	0.506167
O6	O	1.753272	-0.441489	0.570722
O7	O	1.582821	-0.570641	0.271314
O8	O	1.453921	-0.271200	0.441678
O9	O	1.753192	-0.570587	0.441649
O10	O	1.583008	-0.271159	0.570739
O11	O	1.453815	-0.441585	0.271327
O12	O	1.283542	-0.441513	0.441635
O13	O	1.453906	-0.570462	0.740997
O14	O	1.283536	-0.570516	0.570662
O15	O	1.582999	-0.441418	0.741030
O16	O	1.582813	-0.740900	0.441605
O17	O	1.453800	-0.740846	0.570645
C18	C	1.245418	-0.506014	0.506146
C19	C	1.128641	-0.506033	0.506162
C20	C	1.518322	-0.778994	0.506141
C21	C	1.518391	-0.895771	0.506166
C22	C	1.073804	-0.573307	0.573241
C23	C	0.964080	-0.573311	0.573262
C24	C	0.964041	-0.438765	0.439116
C25	C	1.073763	-0.438756	0.439101
C26	C	1.652833	-0.895773	0.371897
C27	C	1.720082	-0.950636	0.304775
C28	C	1.720143	-1.060357	0.304804
C29	C	1.652951	-1.115219	0.371964
C30	C	1.585703	-1.060357	0.439086
C31	C	1.585647	-0.950633	0.439048
C32	C	1.451268	-1.060354	0.573358
C33	C	1.451200	-0.950632	0.573326
C34	C	1.384076	-1.115216	0.640518
C35	C	1.316821	-1.060354	0.707636
C36	C	1.316761	-0.950626	0.707604
C37	C	1.383951	-0.895770	0.640448
C38	C	1.792419	-0.506040	0.506188
C39	C	1.909195	-0.506046	0.506198
C40	C	1.518464	-0.505925	0.780200
C41	C	1.518497	-0.505883	0.896977
C42	C	1.518477	-0.231993	0.506215
C43	C	1.518516	-0.115216	0.506236
C44	C	1.518367	-0.506051	0.233200
C45	C	1.518537	-0.505798	0.116423
C46	C	1.585721	-0.438679	0.951858
C47	C	1.585739	-0.438633	1.061582
C48	C	1.451306	-0.573005	1.061535
C49	C	1.451284	-0.573044	0.951813
H50	H	0.919435	-0.628091	0.627885
H51	H	1.396535	-0.627768	0.907128
H52	H	1.118413	-0.383967	0.384478
H53	H	1.396586	-0.627687	1.106195
N54	N	1.384142	-1.233558	0.640557
H55	H	1.436936	-1.259990	0.587844
H56	H	1.312055	-1.259975	0.621231
N57	N	1.132997	-0.645866	0.645568
H58	H	1.081603	-0.688482	0.688065
H59	H	1.178556	-0.603156	0.694256
N60	N	1.653014	-1.233561	0.372001
H61	H	1.672307	-1.259911	0.444098
H62	H	1.705804	-1.259908	0.319246
N63	N	1.658216	-0.366249	0.892711
H64	H	1.615537	-0.317575	0.847180
H65	H	1.706860	-0.409053	0.847256
N66	N	0.904842	-0.366233	0.366766
H67	H	0.859335	-0.317600	0.409537
H68	H	0.859359	-0.408975	0.318035
N69	N	1.652752	-0.777432	0.371853
H70	H	1.705517	-0.751002	0.319122
H71	H	1.671987	-0.751001	0.443965
H72	H	1.262124	-1.105031	0.762317
N73	N	1.658256	-0.366158	1.120772
H74	H	1.648072	-0.376319	1.198602
H75	H	1.641932	-0.291129	1.101602
N76	N	1.244233	-0.891455	0.780006
H77	H	1.201683	-0.942862	0.822552
H78	H	1.195602	-0.846009	0.737191
N79	N	1.383892	-0.777429	0.640406
H80	H	1.403161	-0.750920	0.712484
H81	H	1.311799	-0.751157	0.620985
N82	N	1.792557	-0.891465	0.232347
H83	H	1.782316	-0.813632	0.242509
H84	H	1.776249	-0.910720	0.157305
N85	N	1.792679	-1.119538	0.232417
H86	H	1.835237	-1.068139	0.189869
H87	H	1.749956	-1.165138	0.183778
