data_functionalizedCrystal
_audit_creation_method	'MofGen! by Chris Wilmer'
_symmetry_space_group_name_H-M	'P1'
_symmetry_Int_Tables_number	1
_symmetry_cell_setting	triclinic
loop_
_symmetry_equiv_pos_as_xyz
  x,y,z
_cell_length_a	17.640112
_cell_length_b	16.994747
_cell_length_c	17.640968
_cell_angle_alpha	101.211591
_cell_angle_beta	87.860920
_cell_angle_gamma	101.231708
loop_
_atom_site_label
_atom_site_type_symbol
_atom_site_fract_x
_atom_site_fract_y
_atom_site_fract_z
Zn1	Zn	1.247784	-0.022661	0.195088
Zn2	Zn	1.222059	-0.185380	0.068161
Zn3	Zn	1.095130	-0.073965	0.093751
Zn4	Zn	1.120797	-0.174998	0.220739
O5	O	1.171443	-0.114251	0.144435
O6	O	1.350637	-0.027120	0.156806
O7	O	1.183714	-0.196416	-0.034709
O8	O	1.115405	0.043222	0.107168
O9	O	1.331736	-0.146669	0.063553
O10	O	1.227559	0.080914	0.181620
O11	O	1.090460	-0.114560	-0.015908
O12	O	0.992271	-0.104493	0.132041
O13	O	1.159150	-0.128975	0.323601
O14	O	1.011128	-0.178722	0.225339
O15	O	1.252447	-0.017053	0.304755
O16	O	1.208602	-0.294384	0.088426
O17	O	1.134205	-0.286756	0.200525
C18	C	0.974146	-0.146049	0.184251
C19	C	0.889745	-0.159666	0.201303
C20	C	1.171406	-0.319190	0.144478
C21	C	1.171411	-0.408511	0.144474
Zn22	Zn	1.095148	-0.705053	0.093725
Zn23	Zn	1.247811	-0.653729	0.195047
Zn24	Zn	1.120820	-0.542389	0.220721
Zn25	Zn	1.222068	-0.552639	0.068133
O26	O	1.171462	-0.613452	0.144407
O27	O	1.115429	-0.808627	0.107132
O28	O	1.252484	-0.613190	0.304715
O29	O	1.011152	-0.581157	0.225330
O30	O	1.227590	-0.770919	0.181573
O31	O	0.992291	-0.700665	0.132027
O32	O	1.159184	-0.531390	0.323578
O33	O	1.134221	-0.433367	0.200514
O34	O	1.183714	-0.598626	-0.034734
O35	O	1.208607	-0.440897	0.088408
O36	O	1.090466	-0.710604	-0.015932
O37	O	1.350659	-0.623129	0.156757
O38	O	1.331745	-0.548858	0.063513
C39	C	0.563042	-0.010783	0.014902
C40	C	0.483737	-0.023592	0.030935
C41	C	0.503393	-0.101066	0.127918
C42	C	0.582702	-0.088260	0.111896
C43	C	0.612520	-0.043118	0.055386
C44	C	0.632180	-0.120595	0.152380
C45	C	0.711482	-0.107793	0.136356
C46	C	0.741305	-0.062656	0.079848
C47	C	0.691821	-0.030316	0.039362
C48	C	0.602360	-0.165741	0.208886
C49	C	0.651838	-0.198077	0.249370
C50	C	0.731142	-0.185270	0.233350
C51	C	0.760966	-0.140133	0.176842
C52	C	0.780626	-0.217610	0.273836
C53	C	0.859927	-0.204808	0.257812
C54	C	0.840267	-0.127331	0.160818
C55	C	1.369510	-0.082330	0.104463
C56	C	1.453914	-0.068727	0.087430
C57	C	1.211531	-0.066133	0.342501
C58	C	1.228614	-0.045628	0.426905
C59	C	1.171483	0.091488	0.144386
C60	C	1.171503	0.180809	0.144365
C61	C	1.131554	-0.162118	-0.052870
C62	C	1.114618	-0.182377	-0.137304
C63	C	1.041954	-0.269549	0.753555
C64	C	1.058023	-0.250269	0.832862
C65	C	1.155164	-0.133735	0.813229
C66	C	1.139102	-0.153003	0.733919
C67	C	1.082496	-0.220912	0.704088
C68	C	1.179644	-0.104366	0.684452
C69	C	1.163585	-0.123635	0.605149
C70	C	1.106984	-0.191542	0.575311
C71	C	1.066437	-0.240181	0.624784
C72	C	1.236253	-0.036461	0.714284
C73	C	1.276795	0.012176	0.664817
C74	C	1.260732	-0.007089	0.585513
C75	C	1.204131	-0.074996	0.555676
C76	C	1.301279	0.041550	0.536040
C77	C	1.285220	0.022280	0.456736
C78	C	1.188072	-0.094265	0.476372
C79	C	1.368755	-0.581538	0.104574
C80	C	1.453163	-0.567903	0.087556
C81	C	1.131355	-0.661483	-0.053656
C82	C	1.114263	-0.681951	-0.138059
C83	C	0.973398	-0.645493	0.184397
C84	C	0.888996	-0.659147	0.201438
C85	C	1.211359	-0.565662	0.341710
C86	C	1.228238	-0.545379	0.426155
C87	C	1.502619	-0.600228	0.128076
C88	C	1.581929	-0.587432	0.112085
C89	C	1.611782	-0.542305	0.055578
C90	C	1.562319	-0.509979	0.015054
C91	C	1.483010	-0.522781	0.031041
C92	C	1.057681	-0.749866	-0.167908
C93	C	1.041607	-0.769101	-0.247210
C94	C	1.082120	-0.720422	-0.296662
C95	C	1.138705	-0.652499	-0.266807
C96	C	1.154774	-0.633263	-0.187506
C97	C	0.859175	-0.603332	0.258020
C98	C	0.779870	-0.616145	0.274033
C99	C	0.730387	-0.684777	0.233466
C100	C	0.760212	-0.740595	0.176878
C101	C	0.839515	-0.727778	0.160862
C102	C	1.187930	-0.492851	0.475529
C103	C	1.203775	-0.473795	0.554877
C104	C	1.259933	-0.507263	0.584848
C105	C	1.300242	-0.559798	0.535468
C106	C	1.284392	-0.578858	0.456123
H107	H	0.864548	-0.090558	0.114814
H108	H	0.863788	-0.773235	0.114790
Cl109	Cl	1.335079	-0.644890	0.394060
Cl110	Cl	1.061909	-0.744617	-0.396355
Cl111	Cl	1.336190	0.083423	0.394545
H112	H	1.020325	-0.295463	0.600499
H113	H	0.995530	-0.824408	-0.271506
Cl114	Cl	1.153090	-0.407754	0.616939
Cl115	Cl	0.840999	-0.046566	0.059698
Cl116	Cl	0.921366	-0.517043	0.309028
Cl117	Cl	0.729314	0.026440	-0.031674
H118	H	0.719911	-0.796475	0.143852
H119	H	1.622192	-0.613756	0.145091
Cl120	Cl	0.630692	-0.700880	0.253611
H121	H	0.587323	0.025990	-0.031103
H122	H	0.755599	-0.570688	0.320113
H123	H	0.537787	-0.176163	0.221930
Cl124	Cl	0.421536	0.017056	-0.019973
Cl125	Cl	1.347955	0.097542	0.702326
Cl126	Cl	1.226325	-0.048370	0.850738
H127	H	1.676362	-0.531886	0.042569
Cl128	Cl	1.117327	-0.450767	0.437869
Cl129	Cl	1.225924	-0.547890	-0.149994
Cl130	Cl	1.370839	-0.601865	0.573159
H131	H	1.442748	-0.496450	-0.001955
H132	H	0.479104	-0.137823	0.173926
Cl133	Cl	0.614343	-0.254835	0.320399
H134	H	0.756335	-0.254370	0.319840
Cl135	Cl	1.189613	-0.591298	-0.328983
Cl136	Cl	1.279849	-0.483293	0.684600
Cl137	Cl	1.465107	-0.656964	0.199116
H138	H	0.900214	-0.231137	0.290779
H139	H	1.141960	-0.149547	0.452086
Cl140	Cl	1.086798	-0.215771	0.475613
Cl141	Cl	1.007046	-0.311419	0.895048
Cl142	Cl	0.970785	-0.354915	0.716049
H143	H	1.249328	-0.020776	0.778858
H144	H	1.347372	0.096836	0.560339
Cl145	Cl	1.599862	-0.453244	-0.055977
H146	H	1.024687	-0.789513	-0.127654
