data_functionalizedCrystal
_audit_creation_method	'MofGen! by Chris Wilmer'
_symmetry_space_group_name_H-M	'P1'
_symmetry_Int_Tables_number	1
_symmetry_cell_setting	triclinic
loop_
_symmetry_equiv_pos_as_xyz
  x,y,z
_cell_length_a	10.723024
_cell_length_b	10.723023
_cell_length_c	15.186229
_cell_angle_alpha	89.997261
_cell_angle_beta	89.996943
_cell_angle_gamma	84.467709
loop_
_atom_site_label
_atom_site_type_symbol
_atom_site_fract_x
_atom_site_fract_y
_atom_site_fract_z
O1	O	1.657186	0.175026	-0.073221
O2	O	1.294034	0.191779	-0.073224
O3	O	1.483987	0.001826	-0.073219
O4	O	1.467233	0.364979	-0.073226
O5	O	1.483974	0.001823	0.073239
O6	O	1.294021	0.191776	0.073234
O7	O	1.657173	0.175023	0.073236
Zn8	Zn	1.475595	0.183399	0.096488
Zn9	Zn	1.475612	0.183403	-0.096475
O10	O	1.467220	0.364976	0.073231
C11	C	1.247528	0.190558	0.000005
C12	C	1.108973	0.186911	0.000004
C13	C	0.917217	0.073603	0.000004
C14	C	1.060420	0.077371	0.000005
C15	C	1.482762	-0.044675	0.000009
C16	C	1.479114	-0.183229	0.000006
C17	C	1.477495	-0.244994	-0.075864
C18	C	1.473725	-0.388197	-0.075869
C19	C	1.703679	0.176243	0.000006
C20	C	1.842234	0.179891	0.000002
C21	C	1.468445	0.411477	0.000002
C22	C	1.472093	0.550031	-0.000001
N23	N	1.475593	0.183396	0.228181
N24	N	1.475624	0.183396	-0.228168
C25	C	1.559733	0.099314	0.453906
C26	C	1.559737	0.099311	0.546096
C27	C	1.391475	0.267482	0.546100
C28	C	1.391466	0.267478	0.453912
C29	C	1.475602	0.183395	0.407818
C30	C	1.475615	0.183397	0.592195
C31	C	1.475618	0.183394	0.692151
C32	C	1.475597	0.183396	0.307855
H33	H	1.044548	0.277906	-0.000002
Cl34	Cl	1.159893	-0.063119	0.000002
H35	H	1.322950	0.335948	0.416385
Cl36	Cl	1.476936	-0.265259	0.100293
Cl37	Cl	1.474252	-0.367979	0.100294
H38	H	0.875395	-0.020182	0.000019
H39	H	0.884055	0.273677	0.000005
H40	H	1.628240	0.030846	0.416378
Cl41	Cl	1.479692	-0.162966	-0.176150
Cl42	Cl	1.471585	-0.470197	-0.176161
Cl43	Cl	1.665504	-0.006399	0.604033
H44	H	1.322974	0.335943	0.583640
