data_functionalizedCrystal
_audit_creation_method	'MofGen! by Chris Wilmer'
_symmetry_space_group_name_H-M	'P1'
_symmetry_Int_Tables_number	1
_symmetry_cell_setting	triclinic
loop_
_symmetry_equiv_pos_as_xyz
  x,y,z
_cell_length_a	12.759395
_cell_length_b	18.101396
_cell_length_c	12.759387
_cell_angle_alpha	89.967821
_cell_angle_beta	90.020509
_cell_angle_gamma	89.961440
loop_
_atom_site_label
_atom_site_type_symbol
_atom_site_fract_x
_atom_site_fract_y
_atom_site_fract_z
Zn1	Zn	1.606106	0.294760	0.593995
Zn2	Zn	1.605928	0.418620	0.418311
Zn3	Zn	1.430404	0.294801	0.418332
Zn4	Zn	1.430328	0.418568	0.593950
O5	O	1.518191	0.356687	0.506147
O6	O	1.753103	0.311196	0.570700
O7	O	1.582602	0.402234	0.271293
O8	O	1.453817	0.191162	0.441661
O9	O	1.752973	0.402195	0.441626
O10	O	1.582905	0.191133	0.570720
O11	O	1.453645	0.311265	0.271308
O12	O	1.283373	0.311213	0.441618
O13	O	1.453688	0.402105	0.740977
O14	O	1.283317	0.402145	0.570644
O15	O	1.582831	0.311145	0.741010
O16	O	1.582528	0.522246	0.441583
O17	O	1.453515	0.522208	0.570624
C18	C	1.245224	0.356678	0.506129
C19	C	1.128447	0.356692	0.506146
C20	C	1.128427	0.451532	0.640284
C21	C	1.073557	0.498958	0.707355
C22	C	0.963835	0.498967	0.707368
C23	C	0.908982	0.451543	0.640304
C24	C	0.963852	0.404118	0.573233
C25	C	1.073577	0.404115	0.573225
C26	C	0.963872	0.309275	0.439102
C27	C	1.073594	0.309269	0.439082
C28	C	0.909019	0.261852	0.372038
C29	C	0.963889	0.214429	0.304960
C30	C	1.073618	0.214422	0.304949
C31	C	1.128464	0.261843	0.372011
C32	C	1.518023	0.549098	0.506119
C33	C	1.518047	0.631412	0.506142
C34	C	1.518233	0.930503	0.506204
C35	C	1.437255	0.899184	0.587594
C36	C	1.436882	0.813566	0.587338
C37	C	1.518141	0.782120	0.506174
C38	C	1.488153	0.813280	0.395449
C39	C	1.487618	0.898925	0.395938
C40	C	1.629381	0.898843	0.534563
C41	C	1.628740	0.813191	0.536990
C42	C	1.518090	0.698261	0.506151
C43	C	1.518281	1.014362	0.506220
C44	C	1.792225	0.356697	0.506166
C45	C	1.909001	0.356701	0.506174
C46	C	1.518271	0.356615	0.780181
C47	C	1.518305	0.356584	0.896957
C48	C	1.518353	1.163525	0.506202
C49	C	1.518327	1.081211	0.506235
C50	C	1.518173	0.356706	0.233180
C51	C	1.518343	0.356528	0.116403
C52	C	1.652791	0.261872	0.897011
C53	C	1.720048	0.214506	0.951899
C54	C	1.720074	0.214479	1.061621
C55	C	1.652832	0.261822	1.116457
C56	C	1.585575	0.309189	1.061570
C57	C	1.585559	0.309212	0.951845
C58	C	1.451085	0.403895	1.061516
C59	C	1.451063	0.403927	0.951794
C60	C	1.383843	0.451238	1.116352
C61	C	1.316589	0.498610	1.061464
C62	C	1.316567	0.498636	0.951736
C63	C	1.383805	0.451294	0.896906
H64	H	0.919219	0.175817	0.250367
H65	H	0.819677	0.261859	0.372058
H66	H	1.652786	0.261897	0.807670
C67	C	1.714567	0.784284	0.462733
H68	H	1.683935	0.752750	0.411733
H69	H	1.765241	0.757479	0.501906
H70	H	1.747462	0.824799	0.428721
C71	C	1.249155	0.261836	0.371997
H72	H	1.273981	0.226803	0.322445
H73	H	1.274017	0.249092	0.439828
H74	H	1.273925	0.309611	0.353694
C75	C	1.563818	0.926921	0.311210
H76	H	1.594958	0.885949	0.276639
H77	H	1.616948	0.956029	0.343015
H78	H	1.526542	0.956045	0.261687
C79	C	1.565321	0.785764	0.311287
H80	H	1.616633	0.754951	0.343004
H81	H	1.598716	0.826876	0.279279
H82	H	1.528219	0.758472	0.259662
H83	H	1.383865	0.451210	1.205693
H84	H	1.118231	0.537568	0.761959
H85	H	1.774793	0.175958	0.907239
C86	C	0.903475	0.551101	0.781191
H87	H	0.951854	0.579336	0.821140
H88	H	0.860738	0.522784	0.827026
H89	H	0.860607	0.583348	0.740955
H90	H	1.651353	0.792822	0.618478
H91	H	1.383798	0.451313	0.807565
H92	H	1.689713	0.919095	0.475283
H93	H	1.656712	0.920385	0.613928
H94	H	1.355371	0.920773	0.569046
C95	C	0.788291	0.451551	0.640324
H96	H	0.763469	0.486588	0.689872
H97	H	0.763519	0.403778	0.658615
H98	H	0.763428	0.464305	0.572492
C99	C	1.794057	0.162379	1.122000
H100	H	1.834104	0.134190	1.073632
H101	H	1.753915	0.130100	1.164811
H102	H	1.839811	0.190711	1.164796
C103	C	1.133967	0.162251	0.231171
H104	H	1.085581	0.134014	0.191233
H105	H	1.176817	0.130019	0.271440
H106	H	1.176722	0.190538	0.185306
H107	H	1.455645	0.792496	0.669440
C108	C	1.462239	0.927024	0.698844
H109	H	1.522286	0.957991	0.696658
H110	H	1.475623	0.886069	0.743477
H111	H	1.404193	0.954233	0.725018
H112	H	1.652850	0.261789	1.205799
H113	H	1.261841	0.537149	1.106121
H114	H	1.354504	0.793146	0.568553
C115	C	1.242583	0.550737	0.891362
H116	H	1.252191	0.543972	0.818161
H117	H	1.257898	0.600493	0.909334
H118	H	1.172006	0.539878	0.909337
C119	C	1.377860	0.926010	0.363494
H120	H	1.334016	0.884670	0.350146
H121	H	1.383229	0.955266	0.301903
H122	H	1.348610	0.954791	0.418437
C123	C	1.249118	0.451521	0.640277
H124	H	1.273928	0.486551	0.689828
H125	H	1.273907	0.464260	0.572445
H126	H	1.273978	0.403742	0.658580
H127	H	1.407771	0.791898	0.370994
