data_functionalizedCrystal
_audit_creation_method	'MofGen! by Chris Wilmer'
_symmetry_space_group_name_H-M	'P1'
_symmetry_Int_Tables_number	1
_symmetry_cell_setting	triclinic
loop_
_symmetry_equiv_pos_as_xyz
  x,y,z
_cell_length_a	14.044191
_cell_length_b	27.732048
_cell_length_c	12.503552
_cell_angle_alpha	86.514598
_cell_angle_beta	93.842477
_cell_angle_gamma	87.917216
loop_
_atom_site_label
_atom_site_type_symbol
_atom_site_fract_x
_atom_site_fract_y
_atom_site_fract_z
O1	O	1.261510	0.113920	0.089290
O2	O	1.761510	0.613920	0.589290
O3	O	0.985603	0.109713	0.089303
O4	O	1.485603	0.609713	0.589303
O5	O	1.132124	0.041823	0.089276
O6	O	1.632124	0.541823	0.589276
O7	O	1.114989	0.181810	0.089318
O8	O	1.614989	0.681810	0.589318
O9	O	1.121092	0.046933	-0.089365
O10	O	1.621092	0.546933	0.410635
O11	O	0.974571	0.114824	-0.089337
O12	O	1.474571	0.614824	0.410663
O13	O	1.250478	0.119030	-0.089350
O14	O	1.750478	0.619030	0.410650
Cu15	Cu	1.111517	0.117393	-0.105655
Cu16	Cu	1.611517	0.617393	0.394345
Cu17	Cu	1.124564	0.111350	0.105608
Cu18	Cu	1.624564	0.611350	0.605608
O19	O	1.103957	0.186921	-0.089323
O20	O	1.603957	0.686921	0.410677
C21	C	0.944800	0.110428	-0.000016
C22	C	1.444800	0.610428	0.499984
C23	C	0.839654	0.104940	-0.000012
C24	C	1.339654	0.604940	0.499988
C25	C	0.588944	0.133831	-0.000014
C26	C	1.088944	0.633831	0.499986
C27	C	0.647143	0.094914	-0.000024
C28	C	1.147143	0.594914	0.499976
C29	C	0.754266	0.100494	-0.000017
C30	C	1.254266	0.600494	0.499983
C31	C	0.481811	0.128252	-0.000020
C32	C	0.981811	0.628252	0.499980
C33	C	1.126249	0.026354	-0.000047
C34	C	1.626249	0.526354	0.499953
C35	C	1.125165	-0.027351	-0.000056
C36	C	1.625165	0.472649	0.499944
C37	C	1.204934	-0.362424	-0.000005
C38	C	1.704934	0.137576	0.499995
C39	C	1.200915	-0.564272	0.000011
C40	C	1.700915	-0.064272	0.500011
O41	O	1.273858	-0.592105	0.000054
O42	O	1.773858	-0.092105	0.500054
N43	N	1.114033	-0.587475	0.000014
N44	N	1.614033	-0.087475	0.500014
C45	C	1.028150	-0.560212	0.000020
C46	C	1.528150	-0.060212	0.500020
O47	O	0.954160	-0.584578	0.000034
O48	O	1.454160	-0.084578	0.500034
C49	C	1.032170	-0.358364	0.000012
C50	C	1.532170	0.141636	0.500012
C51	C	1.119057	-0.335164	-0.000002
C52	C	1.619057	0.164836	0.499998
C53	C	1.291814	-0.339224	-0.000017
C54	C	1.791814	0.160776	0.499983
C55	C	1.292817	-0.288764	-0.000027
C56	C	1.792817	0.211236	0.499973
C57	C	1.206940	-0.261505	-0.000024
C58	C	1.706940	0.238495	0.499976
C59	C	1.120060	-0.284705	-0.000011
C60	C	1.620060	0.215295	0.499989
C61	C	0.946289	-0.331102	0.000026
C62	C	1.446289	0.168898	0.500026
C63	C	0.947301	-0.280637	0.000027
C64	C	1.447301	0.219363	0.500027
C65	C	1.034188	-0.257438	0.000013
C66	C	1.534188	0.242562	0.500013
C67	C	1.035187	-0.206986	-0.000018
C68	C	1.535187	0.293014	0.499982
N69	N	1.122069	-0.183784	-0.000021
N70	N	1.622069	0.316216	0.499979
C71	C	1.207946	-0.211043	-0.000024
C72	C	1.707946	0.288957	0.499976
C73	C	1.026046	-0.666185	0.000022
C74	C	1.526046	-0.166185	0.500022
C75	C	1.025040	-0.716646	0.000022
C76	C	1.525040	-0.216646	0.500022
C77	C	1.197806	-0.720704	0.000014
C78	C	1.697806	-0.220704	0.500014
C79	C	1.198810	-0.670241	0.000007
C80	C	1.698810	-0.170241	0.500007
C81	C	1.112928	-0.642982	0.000019
C82	C	1.612928	-0.142982	0.500019
C83	C	1.210046	-0.105075	-0.000045
C84	C	1.710046	0.394925	0.499955
C85	C	1.211041	-0.054611	-0.000059
C86	C	1.711041	0.445389	0.499941
C87	C	1.038277	-0.050558	-0.000046
C88	C	1.538277	0.449442	0.499954
C89	C	1.037280	-0.101018	-0.000038
C90	C	1.537280	0.398982	0.499962
C91	C	1.123173	-0.128275	-0.000034
C92	C	1.623173	0.371725	0.499966
O93	O	0.962284	-0.179123	-0.000049
O94	O	1.462284	0.320877	0.499951
O95	O	1.281926	-0.186668	-0.000014
O96	O	1.781926	0.313332	0.499986
C97	C	1.203930	-0.412883	0.000005
C98	C	1.703930	0.087117	0.500005
C99	C	1.117050	-0.436083	0.000018
C100	C	1.617050	0.063917	0.500018
C101	C	1.031174	-0.408824	0.000021
C102	C	1.531174	0.091176	0.500021
C103	C	1.116045	-0.486545	0.000018
C104	C	1.616045	0.013455	0.500018
C105	C	1.201922	-0.513804	0.000015
C106	C	1.701922	-0.013804	0.500015
C107	C	1.288804	-0.490602	0.000012
C108	C	1.788804	0.009398	0.500012
C109	C	1.289807	-0.440142	0.000002
C110	C	1.789807	0.059858	0.500002
C111	C	0.944292	-0.432026	0.000024
C112	C	1.444292	0.067974	0.500024
C113	C	0.943295	-0.482485	0.000032
C114	C	1.443295	0.017515	0.500032
C115	C	1.029172	-0.509745	0.000029
C116	C	1.529172	-0.009745	0.500029
C117	C	1.291282	0.118315	-0.000029
C118	C	1.791282	0.618315	0.499971
C119	C	1.396428	0.123803	-0.000026
C120	C	1.896428	0.623803	0.499974
C121	C	1.109833	0.202389	0.000003
C122	C	1.609833	0.702389	0.500003
C123	C	1.110917	0.256094	0.000019
C124	C	1.610917	0.756094	0.500019
N125	N	1.102348	0.121644	-0.254246
N126	N	1.602348	0.621644	0.245754
C127	C	1.147224	0.100841	-0.526687
C128	C	1.647224	0.600841	-0.026687
C129	C	1.088868	0.127897	-0.473353
C130	C	1.588868	0.627897	0.026647
C131	C	1.096370	0.124417	-0.351430
C132	C	1.596370	0.624417	0.148570
C133	C	1.139723	0.104321	-0.648621
C134	C	1.639723	0.604321	-0.148621
N135	N	1.133741	0.107096	0.254199
N136	N	1.633741	0.607096	0.754199
H137	H	0.616521	0.057403	0.000041
H138	H	1.116521	0.557403	0.500041
H139	H	1.033273	0.153674	-0.519258
H140	H	1.533273	0.653674	-0.019258
H141	H	1.202817	0.075067	-0.480788
H142	H	1.702817	0.575067	0.019212
H143	H	0.956106	-0.643995	0.000031
H144	H	1.456106	-0.143995	0.500031
H145	H	0.619570	0.171337	0.000001
H146	H	1.119570	0.671337	0.500001
H147	H	1.279988	-0.127262	-0.000037
H148	H	1.779988	0.372738	0.499963
H149	H	1.281798	-0.035724	-0.000073
H150	H	1.781798	0.464276	0.499927
H151	H	1.363569	-0.269880	-0.000034
H152	H	1.863569	0.230120	0.499966
H153	H	1.361749	-0.361413	-0.000016
H154	H	1.861749	0.138587	0.499984
H155	H	1.269561	-0.651355	-0.000004
H156	H	1.769561	-0.151355	0.499996
H157	H	0.877364	-0.258446	0.000039
H158	H	1.377364	0.241554	0.500039
H159	H	1.267730	-0.742907	0.000011
H160	H	1.767730	-0.242907	0.500011
H161	H	0.966528	-0.119907	-0.000056
H162	H	1.466528	0.380093	0.499944
H163	H	0.954287	-0.735530	0.000014
H164	H	1.454287	-0.235530	0.500014
H165	H	0.875536	-0.349983	0.000044
H166	H	1.375536	0.150017	0.500044
H167	H	1.360559	-0.421258	-0.000009
H168	H	1.860559	0.078742	0.499991
H169	H	0.968358	-0.028354	-0.000047
H170	H	1.468358	0.471646	0.499953
H171	H	1.358727	-0.512805	0.000004
H172	H	1.858727	-0.012805	0.500004
H173	H	0.872536	-0.501370	0.000034
H174	H	1.372536	-0.001370	0.500034
H175	H	0.874359	-0.409836	0.000029
H176	H	1.374359	0.090164	0.500029
