data_functionalizedCrystal
_audit_creation_method	'MofGen! by Chris Wilmer'
_symmetry_space_group_name_H-M	'P1'
_symmetry_Int_Tables_number	1
_symmetry_cell_setting	triclinic
loop_
_symmetry_equiv_pos_as_xyz
  x,y,z
_cell_length_a	14.908571
_cell_length_b	16.120484
_cell_length_c	14.908694
_cell_angle_alpha	96.323893
_cell_angle_beta	83.592472
_cell_angle_gamma	89.787312
loop_
_atom_site_label
_atom_site_type_symbol
_atom_site_fract_x
_atom_site_fract_y
_atom_site_fract_z
Zn1	Zn	1.390527	-0.438909	-0.614243
Zn2	Zn	1.890527	0.061091	-0.114243
Zn3	Zn	1.374892	-0.569792	-0.469658
Zn4	Zn	1.874892	-0.069792	0.030342
Zn5	Zn	1.231315	-0.421857	-0.453295
Zn6	Zn	1.731315	0.078143	0.046705
Zn7	Zn	1.232327	-0.569728	-0.612253
Zn8	Zn	1.732327	-0.069728	-0.112253
O9	O	1.307265	-0.500071	-0.537362
O10	O	1.807265	-0.000071	-0.037362
O11	O	1.514747	-0.463434	-0.602744
O12	O	2.014747	0.036566	-0.102744
O13	O	1.348879	-0.543059	-0.340454
O14	O	1.848879	-0.043059	0.159546
O15	O	1.258555	-0.307459	-0.468630
O16	O	1.758555	0.192541	0.031370
O17	O	1.503260	-0.559594	-0.496518
O18	O	2.003260	-0.059594	0.003482
O19	O	1.375527	-0.319987	-0.586878
O20	O	1.875527	0.180013	-0.086878
O21	O	1.243394	-0.434371	-0.328432
O22	O	1.743394	0.065629	0.171568
O23	O	1.105155	-0.434309	-0.466700
O24	O	1.605155	0.065691	0.033300
O25	O	1.260279	-0.559484	-0.739551
O26	O	1.760279	-0.059484	-0.239551
O27	O	1.105898	-0.542949	-0.583486
O28	O	1.605898	-0.042949	-0.083486
O29	O	1.376508	-0.463372	-0.741013
O30	O	1.876508	0.036628	-0.241013
O31	O	1.349860	-0.686443	-0.494588
O32	O	1.849860	-0.186443	0.005412
O33	O	1.245118	-0.686396	-0.599352
O34	O	1.745118	-0.186396	-0.099352
C35	C	1.072780	-0.486772	-0.523102
C36	C	1.572780	0.013228	-0.023102
C37	C	0.972466	-0.481104	-0.517024
C38	C	1.472466	0.018896	-0.017024
C39	C	0.784771	-0.583736	-0.627064
C40	C	1.284771	-0.083736	-0.127064
C41	C	0.690517	-0.578413	-0.621357
C42	C	1.190517	-0.078413	-0.121357
C43	C	0.689703	-0.465131	-0.499907
C44	C	1.189703	0.034869	0.000093
C45	C	0.783957	-0.470454	-0.505614
C46	C	1.283957	0.029546	-0.005614
C47	C	0.831487	-0.529759	-0.569194
C48	C	1.331487	-0.029759	-0.069194
C49	C	0.925742	-0.535086	-0.574897
C50	C	1.425742	-0.035086	-0.074897
C51	C	0.924928	-0.421801	-0.453452
C52	C	1.424928	0.078199	0.046548
C53	C	0.830674	-0.416478	-0.447744
C54	C	1.330674	0.083522	0.052256
C55	C	1.295928	-0.716670	-0.548551
C56	C	1.795928	-0.216670	-0.048551
C57	C	1.291162	-0.809339	-0.553373
C58	C	1.791162	-0.309339	-0.053373
C59	C	1.282467	-0.979006	-0.562196
C60	C	1.782467	-0.479006	-0.062196
C61	C	1.332226	-1.020306	-0.512553
C62	C	1.832226	-0.520306	-0.012553
C63	C	1.327388	-1.114715	-0.517462
C64	C	1.827388	-0.614715	-0.017462
C65	C	1.287304	-0.884589	-0.557288
C66	C	1.787304	-0.384589	-0.057288
C67	C	1.542666	-0.513423	-0.551679
C68	C	2.042666	-0.013423	-0.051679
C69	C	1.642980	-0.519113	-0.557779
C70	C	2.142980	-0.019113	-0.057779
C71	C	1.320250	-0.513323	-0.774141
C72	C	1.820250	-0.013323	-0.274141
C73	C	1.325784	-0.518969	-0.875042
C74	C	1.825784	-0.018969	-0.375042
C75	C	1.318672	-0.282629	-0.526151
C76	C	1.818672	0.217371	-0.026151
C77	C	1.323533	-0.189968	-0.521373
C78	C	1.823533	0.310032	-0.021373
C79	C	1.226319	-0.416405	-1.052128
C80	C	1.726319	0.083595	-0.552128
C81	C	1.231516	-0.421708	-1.146934
C82	C	1.731516	0.078292	-0.646934
C83	C	1.341368	-0.534881	-1.159460
C84	C	1.841368	-0.034881	-0.659460
C85	C	1.336171	-0.529578	-1.064654
C86	C	1.836171	-0.029578	-0.564654
C87	C	1.278646	-0.470337	-1.010992
C88	C	1.778646	0.029663	-0.510992
C89	C	1.273455	-0.465031	-0.916185
C90	C	1.773455	0.034969	-0.416185
C91	C	1.383302	-0.578208	-0.928713
C92	C	1.883302	-0.078208	-0.428713
C93	C	1.388498	-0.583511	-1.023518
C94	C	1.888498	-0.083511	-0.523518
C95	C	1.294385	-0.486815	-0.301504
C96	C	1.794385	0.013185	0.198496
C97	C	1.289039	-0.480943	-0.200602
C98	C	1.789039	0.019057	0.299398
H99	H	0.791962	-0.368191	-0.395981
H100	H	1.291962	0.131809	0.104019
C101	C	0.976318	-0.362422	-0.389794
C102	C	1.476318	0.137578	0.110206
H103	H	1.039260	-0.374081	-0.402301
H104	H	1.539260	0.125919	0.097699
H105	H	0.956875	-0.370249	-0.328469
H106	H	1.456875	0.129751	0.171531
H107	H	0.964532	-0.306300	-0.399355
H108	H	1.464532	0.193700	0.100645
H109	H	1.378458	-0.984760	-0.466364
H110	H	1.878458	-0.484760	0.033636
C111	C	0.637409	-0.399911	-0.429968
C112	C	1.137409	0.100089	0.070032
H113	H	0.574584	-0.404480	-0.434855
H114	H	1.074584	0.095520	0.065145
H115	H	0.656509	-0.345532	-0.441377
H116	H	1.156509	0.154468	0.058623
H117	H	0.648861	-0.409501	-0.370513
H118	H	1.148861	0.090499	0.129487
C119	C	1.220009	-1.027015	-0.624586
C120	C	1.720009	-0.527015	-0.124586
H121	H	1.189426	-0.988690	-0.655094
H122	H	1.689426	-0.488690	-0.155094
H123	H	1.177104	-1.056863	-0.589168
H124	H	1.677104	-0.556863	-0.089168
H125	H	1.254973	-1.065109	-0.667999
H126	H	1.754973	-0.565109	-0.167999
H127	H	1.226619	-0.416791	-0.872494
H128	H	1.726619	0.083209	-0.372494
H129	H	1.179489	-0.368162	-1.008435
H130	H	1.679489	0.131838	-0.508435
H131	H	1.188906	-0.377790	-1.180423
H132	H	1.688906	0.122210	-0.680423
C133	C	0.639127	-0.637786	-0.685011
C134	C	1.139127	-0.137786	-0.185011
H135	H	0.576186	-0.626120	-0.672512
H136	H	1.076186	-0.126120	-0.172512
H137	H	0.650915	-0.693905	-0.675461
H138	H	1.150915	-0.193905	-0.175461
H139	H	0.658569	-0.629949	-0.746338
H140	H	1.158569	-0.129949	-0.246338
C141	C	1.404634	-0.600042	-1.218498
C142	C	1.904634	-0.100042	-0.718498
H143	H	1.400233	-0.595471	-1.280851
H144	H	1.900233	-0.095471	-0.780851
H145	H	1.387641	-0.654437	-1.205046
H146	H	1.887641	-0.154437	-0.705046
H147	H	1.465067	-0.590405	-1.206028
H148	H	1.965067	-0.090405	-0.706028
H149	H	1.435330	-0.631745	-1.067223
H150	H	1.935330	-0.131745	-0.567223
H151	H	0.823470	-0.632029	-0.678829
H152	H	1.323470	-0.132029	-0.178829
H153	H	1.425913	-0.622121	-0.895210
H154	H	1.925913	-0.122121	-0.395210
H155	H	0.964440	-0.583376	-0.626666
H156	H	1.464440	-0.083376	-0.126666
