data_functionalizedCrystal
_audit_creation_method	'MofGen! by Chris Wilmer'
_symmetry_space_group_name_H-M	'P1'
_symmetry_Int_Tables_number	1
_symmetry_cell_setting	triclinic
loop_
_symmetry_equiv_pos_as_xyz
  x,y,z
_cell_length_a	27.731993
_cell_length_b	27.732064
_cell_length_c	12.503572
_cell_angle_alpha	93.498303
_cell_angle_beta	86.523389
_cell_angle_gamma	82.634907
loop_
_atom_site_label
_atom_site_type_symbol
_atom_site_fract_x
_atom_site_fract_y
_atom_site_fract_z
O1	O	0.643747	0.054583	-0.089022
O2	O	0.502952	0.063354	-0.089086
O3	O	0.577718	-0.011429	-0.089056
O4	O	0.568981	0.129365	-0.089052
O5	O	0.572095	-0.005796	0.089583
O6	O	0.497329	0.068987	0.089553
O7	O	0.638124	0.060216	0.089618
Cu8	Cu	0.567213	0.065116	0.105897
Cu9	Cu	0.573863	0.058454	-0.105365
O10	O	0.563358	0.134998	0.089588
C11	C	0.482133	0.065990	0.000225
C12	C	0.428478	0.065447	0.000200
C13	C	0.048381	0.058447	-0.097124
C14	C	0.250039	0.060513	-0.097153
O15	O	0.278719	0.058149	-0.179970
N16	N	0.272195	0.063842	0.000221
C17	C	0.243932	0.066652	0.097610
O18	O	0.267405	0.069526	0.180432
C19	C	0.042275	0.064583	0.097638
C20	C	0.020122	0.061258	0.000257
C21	C	0.026228	0.055122	-0.194497
C22	C	-0.024184	0.054608	-0.194489
C23	C	-0.052443	0.057419	-0.097108
C24	C	-0.030290	0.060744	0.000265
C25	C	0.014015	0.067389	0.195025
C26	C	-0.036402	0.066870	0.195023
C27	C	-0.058555	0.063545	0.097643
C28	C	-0.108960	0.063042	0.097654
N29	N	-0.131116	0.059712	0.000280
C30	C	-0.102857	0.056901	-0.097101
C31	C	0.349805	0.067740	0.097588
C32	C	0.400219	0.068258	0.097581
C33	C	0.406323	0.062118	-0.097182
C34	C	0.355907	0.061603	-0.097174
C35	C	0.327650	0.064410	0.000214
C36	C	-0.208726	0.055823	-0.097076
C37	C	-0.259143	0.055311	-0.097059
C38	C	-0.265242	0.061449	0.097703
C39	C	-0.214830	0.061963	0.097687
C40	C	-0.186572	0.059148	0.000289
O41	O	-0.137669	0.065398	0.180428
O42	O	-0.126337	0.054017	-0.179911
C43	C	0.098793	0.058961	-0.097132
C44	C	0.120946	0.062286	0.000240
C45	C	0.092688	0.065097	0.097621
C46	C	0.171360	0.062804	0.000234
C47	C	0.199619	0.059993	-0.097147
C48	C	0.177463	0.056664	-0.194522
C49	C	0.127052	0.056150	-0.194513
C50	C	0.114843	0.068426	0.194996
C51	C	0.165255	0.068940	0.194979
C52	C	0.193514	0.066129	0.097598
C53	C	0.574722	-0.026619	0.000260
C54	C	0.574167	-0.080274	0.000250
C55	C	0.526199	-0.457338	0.000224
C56	C	0.528245	-0.255678	0.000223
O57	O	0.491025	-0.224420	0.000163
N58	N	0.572580	-0.236559	0.000243
C59	C	0.616407	-0.267858	0.000256
O60	O	0.654163	-0.246969	0.000263
C61	C	0.614360	-0.469517	0.000249
C62	C	0.570022	-0.488633	0.000240
C63	C	0.481864	-0.476455	0.000213
C64	C	0.481353	-0.526867	0.000219
C65	C	0.525176	-0.558162	0.000236
C66	C	0.569511	-0.539045	0.000246
C67	C	0.658186	-0.500816	0.000255
C68	C	0.657671	-0.551233	0.000250
C69	C	0.613333	-0.570349	0.000241
C70	C	0.612823	-0.620752	0.000268
N71	N	0.568488	-0.639871	0.000248
C72	C	0.524665	-0.608576	0.000232
C73	C	0.617478	-0.161984	0.000262
C74	C	0.617990	-0.111569	0.000266
C75	C	0.529828	-0.099393	0.000231
C76	C	0.529317	-0.149808	0.000235
C77	C	0.573143	-0.181103	0.000242
C78	C	0.523594	-0.714445	0.000245
C79	C	0.523087	-0.764862	0.000256
C80	C	0.611248	-0.777034	0.000285
C81	C	0.611756	-0.726622	0.000281
C82	C	0.567925	-0.695328	0.000257
O83	O	0.650023	-0.652039	0.000316
O84	O	0.486914	-0.629476	0.000202
C85	C	0.526710	-0.406926	0.000218
C86	C	0.571045	-0.387810	0.000228
C87	C	0.614868	-0.419105	0.000245
C88	C	0.571556	-0.337395	0.000232
C89	C	0.527733	-0.306100	0.000216
C90	C	0.483398	-0.325219	0.000195
C91	C	0.482887	-0.375631	0.000201
C92	C	0.659203	-0.399985	0.000265
C93	C	0.659710	-0.349573	0.000260
C94	C	0.615887	-0.318278	0.000243
C95	C	0.658943	0.057579	0.000304
C96	C	0.712598	0.058122	0.000322
C97	C	0.566354	0.150189	0.000269
C98	C	0.566910	0.203843	0.000272
N99	N	0.562540	0.069801	0.254487
N100	N	0.578540	0.053764	-0.253956
C101	C	0.555664	0.076698	0.473600
C102	C	0.585414	0.046869	0.526939
C103	C	0.581588	0.050707	0.648860
C104	C	0.559489	0.072861	0.351667
H105	H	-0.185725	0.053531	-0.176387
H106	H	0.653169	-0.187460	0.000270
H107	H	0.527325	0.105115	0.519496
H108	H	0.613756	0.018451	0.481037
F109	F	0.434162	-0.547205	0.000200
H110	H	-0.277178	0.052605	-0.176362
H111	H	0.647859	-0.711056	0.000304
F112	F	0.103481	0.052611	-0.298160
H113	H	0.694291	-0.485261	0.000261
F114	F	-0.047755	0.051067	-0.298136
H115	H	0.693361	-0.576712	0.000250
H116	H	0.049231	0.052831	-0.273801
H117	H	0.337874	0.058896	-0.176470
H118	H	0.429339	0.059831	-0.176473
H119	H	0.646928	-0.802523	0.000304
F120	F	0.423789	0.071805	0.201227
H121	H	0.326803	0.070024	0.176897
F122	F	0.037581	0.070928	0.298673
H123	H	-0.059408	0.069160	0.274330
H124	H	-0.196793	0.064680	0.176982
H125	H	-0.288259	0.063739	0.176988
F126	F	0.483188	-0.066078	0.000215
F127	F	0.188826	0.072483	0.298633
F128	F	0.084774	0.071422	0.298648
F129	F	0.207547	0.053674	-0.298162
H130	H	0.446782	-0.391190	0.000195
H131	H	0.486980	-0.780423	0.000253
H132	H	0.487903	-0.688971	0.000226
F133	F	0.435218	-0.443155	0.000192
F134	F	0.705848	-0.433286	0.000284
F135	F	0.482127	-0.170148	0.000223
H136	H	0.654094	-0.096009	0.000290
F137	F	0.436758	-0.291904	0.000183
H138	H	0.695818	-0.334014	0.000276
