data_functionalizedCrystal
_audit_creation_method	'MofGen! by Chris Wilmer'
_symmetry_space_group_name_H-M	'P1'
_symmetry_Int_Tables_number	1
_symmetry_cell_setting	triclinic
loop_
_symmetry_equiv_pos_as_xyz
  x,y,z
_cell_length_a	23.532407
_cell_length_b	23.532357
_cell_length_c	14.586319
_cell_angle_alpha	89.990687
_cell_angle_beta	89.999179
_cell_angle_gamma	82.838519
loop_
_atom_site_label
_atom_site_type_symbol
_atom_site_fract_x
_atom_site_fract_y
_atom_site_fract_z
O1	O	0.755246	0.069136	-0.076193
O2	O	0.589381	0.079140	-0.076209
O3	O	0.677330	-0.008796	-0.076182
O4	O	0.667297	0.157072	-0.076221
O5	O	0.677324	-0.008797	0.076299
O6	O	0.589375	0.079138	0.076271
O7	O	0.755240	0.069135	0.076287
Cu8	Cu	0.672307	0.074137	0.090202
Cu9	Cu	0.672314	0.074138	-0.090124
O10	O	0.667291	0.157070	0.076260
C11	C	0.568162	0.078884	0.000029
C12	C	0.504945	0.078118	0.000024
C13	C	0.677076	-0.030013	0.000061
C14	C	0.676322	-0.093232	0.000070
C15	C	0.238788	0.022922	0.000062
C16	C	0.298188	0.023633	0.000061
O17	O	0.334940	-0.020154	0.000103
N18	N	0.320805	0.075911	0.000043
C19	C	0.284018	0.127480	0.000034
O20	O	0.308710	0.172012	0.000019
C21	C	0.224619	0.126768	0.000041
C22	C	0.202006	0.074487	0.000050
C23	C	0.216174	-0.029355	0.000072
C24	C	0.156778	-0.030066	0.000070
C25	C	0.119996	0.021499	0.000059
C26	C	0.142610	0.073776	0.000049
C27	C	0.187833	0.178337	0.000039
C28	C	0.128431	0.177620	0.000047
C29	C	0.105818	0.125339	0.000056
C30	C	0.046431	0.124630	0.000036
N31	N	0.023815	0.072353	0.000055
C32	C	0.060597	0.020787	0.000066
C33	C	0.408760	0.128971	0.000021
C34	C	0.468158	0.129684	0.000008
C35	C	0.482324	0.025837	0.000036
C36	C	0.422925	0.025125	0.000043
C37	C	0.386143	0.076694	0.000040
C38	C	-0.064140	0.019297	0.000063
C39	C	-0.123542	0.018591	0.000057
C40	C	-0.137702	0.122438	0.000033
C41	C	-0.078306	0.123145	0.000034
C42	C	-0.041525	0.071570	0.000051
O43	O	0.009644	0.168394	-0.000002
O44	O	0.035897	-0.023737	0.000093
C45	C	0.671588	-0.485242	-0.083098
C46	C	0.670871	-0.544642	-0.083103
O47	O	0.670484	-0.575357	-0.153791
N48	N	0.670512	-0.574354	0.000013
C49	C	0.670865	-0.544662	0.083140
O50	O	0.670493	-0.575389	0.153836
C51	C	0.671578	-0.485263	0.083144
C52	C	0.671942	-0.455555	0.000023
C53	C	0.671952	-0.455534	-0.166212
C54	C	0.672671	-0.396139	-0.166207
C55	C	0.673025	-0.366452	-0.083086
C56	C	0.672661	-0.396160	0.000028
C57	C	0.671926	-0.455572	0.166270
C58	C	0.672639	-0.396169	0.166267
C59	C	0.673004	-0.366461	0.083146
C60	C	0.673733	-0.307078	0.083155
N61	N	0.674092	-0.277366	0.000038
C62	C	0.673738	-0.307053	-0.083082
C63	C	0.669366	-0.669404	0.083125
C64	C	0.668657	-0.728802	0.083121
C65	C	0.668662	-0.728777	-0.083122
C66	C	0.669375	-0.669378	-0.083118
C67	C	0.669725	-0.639692	0.000008
C68	C	0.675247	-0.182319	-0.083064
C69	C	0.675968	-0.122919	-0.083051
C70	C	0.675959	-0.122948	0.083192
C71	C	0.675241	-0.182343	0.083179
C72	C	0.674883	-0.212027	0.000044
O73	O	0.674119	-0.276324	0.153807
O74	O	0.674102	-0.276318	-0.153766
C75	C	0.776459	0.069390	0.000047
C76	C	0.839676	0.070156	0.000046
C77	C	0.667545	0.178288	0.000015
C78	C	0.668300	0.241506	0.000000
N79	N	0.672306	0.074135	0.217034
N80	N	0.672320	0.074135	-0.216956
C81	C	0.711263	0.035210	0.452052
C82	C	0.711264	0.035209	0.548034
C83	C	0.633359	0.113062	0.548019
C84	C	0.633355	0.113060	0.452039
C85	C	0.672310	0.074135	0.404059
C86	C	0.672316	0.074135	0.596019
C87	C	0.672317	0.074134	0.700086
C88	C	0.672308	0.074135	0.299985
H89	H	-0.034199	-0.022700	0.000077
H90	H	0.676266	-0.098733	-0.150741
C91	C	0.754108	-0.007611	0.399273
C92	C	0.797532	0.014417	0.333279
C93	C	0.840377	-0.028407	0.280503
C94	C	0.839798	-0.093258	0.293721
C95	C	0.796373	-0.115288	0.359718
C96	C	0.753528	-0.072464	0.412494
H97	H	0.797961	0.062426	0.323491
H98	H	0.872523	-0.012098	0.231648
H99	H	0.871515	-0.124958	0.254653
H100	H	0.795943	-0.163297	0.369506
H101	H	0.721381	-0.088773	0.461350
C102	C	0.673025	-0.363515	0.257710
C103	C	0.624056	-0.315931	0.280570
C104	C	0.624444	-0.283277	0.372011
C105	C	0.673802	-0.298208	0.440591
C106	C	0.722775	-0.345794	0.417733
C107	C	0.722387	-0.378447	0.326292
H108	H	0.587515	-0.304876	0.229801
H109	H	0.588191	-0.248051	0.388932
H110	H	0.674089	-0.274036	0.508281
H111	H	0.759316	-0.356849	0.468502
H112	H	0.758640	-0.413674	0.309371
C113	C	-0.148415	-0.038922	0.000070
C114	C	-0.134402	-0.081658	0.079262
C115	C	-0.159273	-0.139169	0.079277
C116	C	-0.198156	-0.153943	0.000100
C117	C	-0.212170	-0.111205	-0.079098
C118	C	-0.187299	-0.053695	-0.079113
H119	H	-0.105617	-0.070723	0.137879
H120	H	-0.148898	-0.170806	0.137905
H121	H	-0.216566	-0.196516	0.000110
H122	H	-0.240955	-0.122141	-0.137715
H123	H	-0.197674	-0.022058	-0.137741
C124	C	0.668268	-0.761438	-0.174559
C125	C	0.717828	-0.760021	-0.243132
C126	C	0.717433	-0.792683	-0.334564
C127	C	0.667479	-0.826763	-0.357423
C128	C	0.617915	-0.828181	-0.288849
C129	C	0.618309	-0.795519	-0.197417
H130	H	0.754810	-0.734793	-0.226212
H131	H	0.754124	-0.791633	-0.385327
H132	H	0.667187	-0.850941	-0.425106
H133	H	0.580933	-0.853410	-0.305769
H134	H	0.581619	-0.796569	-0.146654
H135	H	0.601643	0.144754	0.587094
C136	C	0.590505	0.155880	0.399238
C137	C	0.547677	0.198718	0.452009
C138	C	0.504827	0.241534	0.399206
C139	C	0.504806	0.241512	0.293632
C140	C	0.547637	0.198673	0.240855
C141	C	0.590486	0.155857	0.293658
H142	H	0.547690	0.198735	0.530166
H143	H	0.473122	0.273246	0.438275
H144	H	0.473087	0.273207	0.254544
H145	H	0.547623	0.198655	0.162698
H146	H	0.622191	0.124144	0.254588
C147	C	0.131911	-0.087578	0.000089
C148	C	0.145932	-0.130311	0.079283
C149	C	0.121071	-0.187827	0.079305
C150	C	0.082189	-0.202609	0.000133
C151	C	0.068165	-0.159875	-0.079067
C152	C	0.093026	-0.102359	-0.079088
H153	H	0.174718	-0.119370	0.137896
H154	H	0.131453	-0.219462	0.137934
H155	H	0.063785	-0.245186	0.000149
H156	H	0.039379	-0.170817	-0.137679
H157	H	0.082644	-0.070725	-0.137717
C158	C	0.256628	-0.086084	0.000078
C159	C	0.254301	-0.129022	0.079261
C160	C	0.294750	-0.185755	0.079258
C161	C	0.337526	-0.199550	0.000073
C162	C	0.339855	-0.156611	-0.079116
C163	C	0.299406	-0.099878	-0.079113
H164	H	0.222633	-0.118811	0.137884
H165	H	0.293026	-0.217542	0.137879
H166	H	0.367469	-0.241548	0.000070
H167	H	0.371522	-0.166822	-0.137740
H168	H	0.301130	-0.068092	-0.137735
H169	H	0.512283	-0.016151	0.000046
C170	C	0.493027	0.187195	-0.000012
C171	C	0.479009	0.229930	0.079157
C172	C	0.503876	0.287443	0.079144
C173	C	0.542760	0.302220	-0.000039
C174	C	0.556780	0.259483	-0.079214
C175	C	0.531914	0.201971	-0.079201
H176	H	0.450223	0.218992	0.137778
H177	H	0.493497	0.319080	0.137755
H178	H	0.561167	0.344795	-0.000048
H179	H	0.585566	0.270421	-0.137835
H180	H	0.542293	0.170334	-0.137812
C181	C	0.671567	-0.488183	-0.257656
C182	C	0.721134	-0.486745	-0.326210
C183	C	0.720754	-0.519389	-0.417660
C184	C	0.670807	-0.553470	-0.440557
C185	C	0.621237	-0.554909	-0.372001
C186	C	0.621616	-0.522265	-0.280551
H187	H	0.758110	-0.461515	-0.309262
H188	H	0.757449	-0.518324	-0.468410
H189	H	0.670526	-0.577635	-0.508254
H190	H	0.584260	-0.580140	-0.388949
H191	H	0.584921	-0.523331	-0.229801
C192	C	0.668267	-0.761476	0.174559
C193	C	0.618905	-0.746560	0.243131
C194	C	0.618514	-0.779230	0.334573
C195	C	0.667485	-0.826816	0.357442
C196	C	0.716850	-0.841734	0.288868
C197	C	0.717241	-0.809064	0.197426
H198	H	0.582651	-0.711332	0.226204
H199	H	0.581970	-0.768187	0.385337
H200	H	0.667195	-0.851001	0.425133
H201	H	0.753104	-0.876962	0.305795
H202	H	0.753785	-0.820108	0.146663
H203	H	0.404518	-0.017447	0.000051
C204	C	0.669761	-0.636753	0.174571
C205	C	0.620203	-0.638184	0.243144
C206	C	0.620598	-0.605537	0.334590
C207	C	0.670550	-0.571459	0.357463
C208	C	0.720112	-0.570025	0.288889
C209	C	0.719717	-0.602673	0.197443
H210	H	0.583222	-0.663413	0.226213
H211	H	0.583909	-0.606598	0.385353
H212	H	0.670842	-0.547291	0.425157
H213	H	0.757093	-0.544797	0.305819
H214	H	0.756406	-0.601612	0.146680
H215	H	0.742982	0.003512	0.587108
H216	H	0.378815	0.170968	0.000011
H217	H	0.206234	0.220910	0.000027
C218	C	0.087971	0.234349	0.000038
C219	C	0.090297	0.277283	-0.079151
C220	C	0.049838	0.334010	-0.079164
C221	C	0.007055	0.347803	0.000013
C222	C	0.004728	0.304868	0.079208
C223	C	0.045186	0.248141	0.079220
H224	H	0.121969	0.267074	-0.137768
H225	H	0.051561	0.365794	-0.137789
H226	H	-0.022895	0.389796	0.000004
H227	H	-0.026945	0.315077	0.137824
H228	H	0.043463	0.216357	0.137846
H229	H	-0.167661	0.164421	0.000020
C230	C	0.674857	-0.214966	-0.174511
C231	C	0.724424	-0.213537	-0.243069
C232	C	0.724039	-0.246185	-0.334515
C233	C	0.674088	-0.280262	-0.357404
C234	C	0.624518	-0.281692	-0.288845
C235	C	0.624902	-0.249044	-0.197399
H236	H	0.761404	-0.188310	-0.226127
H237	H	0.760734	-0.245125	-0.385267
H238	H	0.673803	-0.304429	-0.425098
H239	H	0.587537	-0.306919	-0.305787
H240	H	0.588207	-0.250103	-0.146647
H241	H	-0.059893	0.165716	0.000025
H242	H	0.672966	-0.371956	-0.233893
H243	H	0.669672	-0.645194	-0.150803
H244	H	0.671630	-0.479750	0.233957
H245	H	0.676250	-0.098767	0.150866
H246	H	0.674950	-0.206534	0.150864
