data_functionalizedCrystal
_audit_creation_method	'MofGen! by Chris Wilmer'
_symmetry_space_group_name_H-M	'P1'
_symmetry_Int_Tables_number	1
_symmetry_cell_setting	triclinic
loop_
_symmetry_equiv_pos_as_xyz
  x,y,z
_cell_length_a	22.610064
_cell_length_b	16.109301
_cell_length_c	16.109304
_cell_angle_alpha	96.537941
_cell_angle_beta	89.993120
_cell_angle_gamma	89.994491
loop_
_atom_site_label
_atom_site_type_symbol
_atom_site_fract_x
_atom_site_fract_y
_atom_site_fract_z
O1	O	0.049143	-1.103139	0.106856
O2	O	0.049152	-0.861077	0.120155
O3	O	0.049148	-0.988756	-0.007525
O4	O	0.049148	-0.975459	0.234536
O5	O	-0.049221	-0.988734	-0.007507
O6	O	-0.049217	-0.861054	0.120174
O7	O	-0.049226	-1.103116	0.106874
Zn8	Zn	-0.064840	-0.982082	0.113527
Zn9	Zn	0.064766	-0.982111	0.113502
O10	O	-0.049221	-0.975437	0.234555
C11	C	-0.000031	-0.830091	0.119626
C12	C	-0.000027	-0.737795	0.118010
N13	N	-0.153292	-0.982067	0.113543
C14	C	-0.000035	-0.988206	-0.038491
C15	C	-0.000031	-0.986590	-0.130786
C16	C	-0.561935	-1.038650	0.056974
C17	C	-0.623855	-1.038655	0.056968
O18	O	-0.655876	-1.086728	0.008883
N19	N	-0.654829	-0.982111	0.113485
C20	C	-0.623880	-0.925553	0.170006
O21	O	-0.655911	-0.877458	0.218077
C22	C	-0.561961	-0.925546	0.170008
C23	C	-0.530990	-0.982099	0.113493
C24	C	-0.530965	-1.095198	0.000463
C25	C	-0.469049	-1.095195	0.000470
C26	C	-0.438104	-1.038644	0.056989
C27	C	-0.469075	-0.982096	0.113500
C28	C	-0.531013	-0.868985	0.226524
C29	C	-0.469090	-0.868982	0.226520
C30	C	-0.438119	-0.925535	0.170005
C31	C	-0.376214	-0.925541	0.170026
N32	N	-0.345240	-0.982085	0.113508
C33	C	-0.376185	-1.038636	0.056990
C34	C	-0.753914	-0.925572	0.169998
C35	C	-0.815831	-0.925583	0.170001
C36	C	-0.815802	-1.038684	0.056962
C37	C	-0.753883	-1.038676	0.056963
C38	C	-0.722940	-0.982116	0.113481
C39	C	-0.246158	-1.038625	0.057010
C40	C	-0.184237	-1.038619	0.057025
C41	C	-0.184271	-0.925516	0.170061
C42	C	-0.246187	-0.925524	0.170050
C43	C	-0.277129	-0.982082	0.113517
O44	O	-0.344155	-0.877489	0.218083
O45	O	-0.344146	-1.086716	0.008920
N46	N	0.153219	-0.982132	0.113480
C47	C	-0.000041	-1.134102	0.107404
C48	C	-0.000041	-1.226398	0.109019
C49	C	-0.000034	-0.515524	0.190018
C50	C	-0.000038	-0.428803	0.188494
C51	C	-0.000036	-0.448676	0.037005
C52	C	-0.000036	-0.535395	0.038530
C53	C	-0.000032	-0.568816	0.115039
C54	C	-0.000036	-0.395377	0.111990
C55	C	-0.000040	-0.301351	0.110337
C56	C	-0.000029	-0.662848	0.116693
C57	C	0.053588	-0.982869	-0.343134
C58	C	0.053587	-0.981342	-0.429854
C59	C	-0.053660	-0.981322	-0.429831
C60	C	-0.053659	-0.982842	-0.343111
C61	C	-0.000033	-0.983620	-0.299766
C62	C	-0.000035	-0.980573	-0.473205
C63	C	-0.000036	-0.978919	-0.567231
C64	C	-0.000032	-0.985273	-0.205734
C65	C	-0.000037	-0.975987	0.265520
C66	C	-0.000037	-0.977603	0.357816
H67	H	-0.159022	-1.084674	0.011003
H68	H	0.097253	-0.983499	-0.307844
C69	C	-0.000065	-0.370805	0.269811
C70	C	-0.000082	-0.287705	0.252106
C71	C	-0.000115	-0.234254	0.326997
H72	H	0.034230	-0.380831	0.301234
H73	H	-0.034382	-0.380881	0.301197
H74	H	0.034230	-0.277633	0.220733
H75	H	-0.034375	-0.277652	0.220695
H76	H	-0.034431	-0.244331	0.358383
H77	H	0.034181	-0.244288	0.358415
H78	H	-0.000132	-0.177866	0.314994
H79	H	-0.443899	-0.822921	0.272543
C80	C	-0.279639	-1.100123	-0.004405
C81	C	-0.239253	-1.149651	-0.053873
C82	C	-0.270074	-1.206320	-0.110447
H83	H	-0.303793	-1.070330	-0.039110
H84	H	-0.303782	-1.134772	0.025487
H85	H	-0.215121	-1.115006	-0.083762
H86	H	-0.215098	-1.179462	-0.019190
H87	H	-0.294216	-1.240970	-0.080556
H88	H	-0.294227	-1.176521	-0.145147
H89	H	-0.242677	-1.239937	-0.144013
C90	C	0.000056	-0.551695	0.273143
C91	C	0.050655	-0.524594	0.318472
C92	C	0.050752	-0.557885	0.395056
H93	H	0.000087	-0.610972	0.263435
H94	H	-0.034232	-0.533371	0.304062
H95	H	0.084933	-0.542923	0.287560
H96	H	0.050634	-0.465322	0.328201
H97	H	0.016465	-0.539561	0.425975
H98	H	0.050782	-0.617161	0.385341
H99	H	0.085080	-0.539496	0.425825
H100	H	-0.000036	-0.578788	-0.022530
C101	C	0.111867	-0.980573	-0.476795
C102	C	0.158827	-0.981599	-0.420273
C103	C	0.212525	-0.980900	-0.463485
H104	H	0.114182	-0.931538	-0.504273
H105	H	0.114128	-1.028453	-0.516966
H106	H	0.156568	-0.933724	-0.380117
H107	H	0.156532	-1.030631	-0.392793
H108	H	0.214785	-1.028780	-0.503656
H109	H	0.214834	-0.931864	-0.490962
H110	H	0.244394	-0.981604	-0.425143
C111	C	-0.111942	-0.980447	-0.476740
C112	C	-0.158901	-0.981408	-0.420192
C113	C	-0.212600	-0.980594	-0.463371
H114	H	-0.114256	-1.028296	-0.516922
H115	H	-0.114204	-0.931382	-0.504196
H116	H	-0.156640	-1.030468	-0.392750
H117	H	-0.156607	-0.933563	-0.380008
H118	H	-0.214862	-0.931528	-0.490827
H119	H	-0.214907	-1.028443	-0.503552
H120	H	-0.244468	-0.981238	-0.425009
C121	C	-0.564701	-0.807535	0.287748
C122	C	-0.600257	-0.756672	0.243439
C123	C	-0.631303	-0.700055	0.299813
H124	H	-0.537462	-0.773776	0.321422
H125	H	-0.588892	-0.837396	0.322365
H126	H	-0.576068	-0.726813	0.208836
H127	H	-0.627508	-0.790407	0.209768
H128	H	-0.655494	-0.729916	0.334430
H129	H	-0.604059	-0.666303	0.333483
H130	H	-0.655435	-0.665543	0.269757
C131	C	-0.564586	-1.156473	-0.060999
C132	C	-0.600125	-1.112224	-0.111936
C133	C	-0.631094	-1.168651	-0.168571
H134	H	-0.588785	-1.191100	-0.031180
H135	H	-0.537283	-1.190132	-0.094698
H136	H	-0.627425	-1.078580	-0.078242
H137	H	-0.575941	-1.077601	-0.141774
H138	H	-0.603791	-1.202310	-0.202270
H139	H	-0.655290	-1.203275	-0.138745
H140	H	-0.655207	-1.138637	-0.203144
H141	H	-0.097326	-0.983449	-0.307799
C142	C	-0.720368	-1.100109	-0.004494
C143	C	-0.760729	-1.149620	-0.053999
C144	C	-0.729880	-1.206214	-0.110634
H145	H	-0.696208	-1.134785	0.025324
H146	H	-0.696229	-1.070233	-0.039163
H147	H	-0.784858	-1.179493	-0.019334
H148	H	-0.784890	-1.114966	-0.083835
H149	H	-0.705741	-1.176338	-0.145302
H150	H	-0.705721	-1.240884	-0.080808
H151	H	-0.757260	-1.239808	-0.144234
H152	H	-0.000042	-0.421454	-0.025285
H153	H	-0.443836	-1.141243	-0.045551
C154	C	-0.849346	-0.864095	0.231404
C155	C	-0.808985	-0.814560	0.280884
C156	C	-0.839834	-0.757894	0.337448
H157	H	-0.873504	-0.893890	0.266104
H158	H	-0.873486	-0.829449	0.201505
H159	H	-0.784855	-0.849201	0.310781
H160	H	-0.784824	-0.784746	0.246208
H161	H	-0.863974	-0.723249	0.307549
H162	H	-0.863992	-0.787696	0.372141
H163	H	-0.812454	-0.724273	0.371022
H164	H	-0.841009	-1.084730	0.010940
C165	C	-0.720245	-0.864303	0.231418
C166	C	-0.684688	-0.908569	0.282317
C167	C	-0.653663	-0.852157	0.338899
H168	H	-0.747497	-0.830611	0.265155
H169	H	-0.696056	-0.829708	0.201530
H170	H	-0.708875	-0.943150	0.312202
H171	H	-0.657426	-0.942258	0.248603
H172	H	-0.629474	-0.817561	0.309011
H173	H	-0.680919	-0.818468	0.372630
H174	H	-0.629530	-0.882183	0.373435
H175	H	-0.271404	-0.879482	0.216077
H176	H	-0.159066	-0.879475	0.216080
