data_functionalizedCrystal
_audit_creation_method	'MofGen! by Chris Wilmer'
_symmetry_space_group_name_H-M	'P1'
_symmetry_Int_Tables_number	1
_symmetry_cell_setting	triclinic
loop_
_symmetry_equiv_pos_as_xyz
  x,y,z
_cell_length_a	13.930277
_cell_length_b	14.853567
_cell_length_c	14.853567
_cell_angle_alpha	96.365070
_cell_angle_beta	90.009495
_cell_angle_gamma	90.004156
loop_
_atom_site_label
_atom_site_type_symbol
_atom_site_fract_x
_atom_site_fract_y
_atom_site_fract_z
O1	O	-0.079756	-1.196370	0.117690
O2	O	0.420244	-0.696370	0.617690
O3	O	-0.079772	-0.933910	0.131711
O4	O	0.420228	-0.433910	0.631711
O5	O	-0.079767	-1.072151	-0.006529
O6	O	0.420233	-0.572151	0.493471
O7	O	-0.079762	-1.058129	0.255930
O8	O	0.420238	-0.558129	0.755930
O9	O	0.079895	-1.072129	-0.006505
O10	O	0.579895	-0.572129	0.493495
O11	O	0.079890	-0.933888	0.131735
O12	O	0.579890	-0.433888	0.631735
O13	O	0.079905	-1.196348	0.117714
O14	O	0.579905	-0.696348	0.617714
Zn15	Zn	0.105247	-1.065115	0.124729
Zn16	Zn	0.605247	-0.565115	0.624729
Zn17	Zn	-0.105114	-1.065143	0.124697
Zn18	Zn	0.394886	-0.565143	0.624697
O19	O	0.079900	-1.058107	0.255955
O20	O	0.579900	-0.558107	0.755955
C21	C	0.000057	-0.900311	0.131088
C22	C	0.500057	-0.400311	0.631088
C23	C	0.000051	-0.800227	0.129184
C24	C	0.500051	-0.300227	0.629184
N25	N	0.248814	-1.065101	0.124750
N26	N	0.748814	-0.565101	0.624750
C27	C	0.000061	-1.071504	-0.040106
C28	C	0.500061	-0.571504	0.459894
C29	C	0.000053	-1.069601	-0.140189
C30	C	0.500053	-0.569601	0.359811
C31	C	0.701077	-1.119891	0.179475
C32	C	1.201077	-0.619891	0.679475
C33	C	0.701058	-1.010407	0.069912
C34	C	1.201058	-0.510407	0.569912
C35	C	0.600562	-1.010394	0.069925
C36	C	1.100562	-0.510394	0.569925
C37	C	0.550319	-1.065132	0.124712
C38	C	1.050319	-0.565132	0.624712
C39	C	0.600572	-1.119882	0.179487
C40	C	1.100572	-0.619882	0.679487
C41	C	0.550302	-0.955652	0.015144
C42	C	1.050302	-0.455652	0.515144
C43	C	0.449800	-0.955638	0.015154
C44	C	0.949800	-0.455638	0.515154
C45	C	0.399555	-1.010371	0.069947
C46	C	0.899555	-0.510371	0.569947
C47	C	0.449814	-1.065123	0.124725
C48	C	0.949814	-0.565123	0.624725
C49	C	0.399571	-1.119860	0.179512
C50	C	0.899571	-0.619860	0.679512
C51	C	0.449829	-1.174608	0.234296
C52	C	0.949829	-0.674608	0.734296
C53	C	0.550328	-1.174615	0.234280
C54	C	1.050328	-0.674615	0.734280
C55	C	0.299056	-1.010364	0.069962
C56	C	0.799056	-0.510364	0.569962
C57	C	0.299066	-1.119851	0.179525
C58	C	0.799066	-0.619851	0.679525
N59	N	0.751320	-1.065153	0.124687
N60	N	1.251320	-0.565153	0.624687
C61	C	0.000075	-1.229947	0.118337
C62	C	0.500075	-0.729947	0.618337
C63	C	0.000075	-1.330031	0.120241
C64	C	0.500075	-0.830031	0.620241
C65	C	0.000070	-0.387693	0.039019
C66	C	0.500070	0.112307	0.539019
C67	C	0.000073	-0.366412	0.203251
C68	C	0.500073	0.133588	0.703251
C69	C	0.000070	-0.460446	0.205042
C70	C	0.500070	0.039554	0.705042
C71	C	0.000066	-0.518108	0.123819
C72	C	0.500066	-0.018108	0.623819
C73	C	0.000065	-0.481736	0.040806
C74	C	0.500065	0.018264	0.540806
C75	C	0.000061	-0.496825	0.288053
C76	C	0.500061	0.003175	0.788053
C77	C	0.000057	-0.590864	0.289846
C78	C	0.500057	-0.090864	0.789846
C79	C	0.000060	-0.648528	0.208623
C80	C	0.500060	-0.148528	0.708623
C81	C	0.000060	-0.612150	0.125607
C82	C	0.500060	-0.112150	0.625607
C83	C	0.000056	-0.669812	0.044384
C84	C	0.500056	-0.169812	0.544384
C85	C	0.000063	-0.633437	-0.038633
C86	C	0.500063	-0.133437	0.461367
C87	C	0.000067	-0.539399	-0.040417
C88	C	0.500067	-0.039399	0.459583
C89	C	0.000055	-0.742565	0.210407
C90	C	0.500055	-0.242565	0.710407
C91	C	0.000050	-0.763855	0.046172
C92	C	0.500050	-0.263855	0.546172
C93	C	0.000066	-0.979435	-0.552723
C94	C	0.500066	-0.479435	-0.052723
C95	C	0.000076	-1.143668	-0.574004
C96	C	0.500076	-0.643668	-0.074004
C97	C	0.000070	-1.145458	-0.479970
C98	C	0.500070	-0.645458	0.020030
C99	C	0.000064	-1.064235	-0.422309
C100	C	0.500064	-0.564235	0.077691
C101	C	0.000063	-0.981223	-0.458680
C102	C	0.500063	-0.481223	0.041320
C103	C	0.000080	-1.228469	-0.443591
C104	C	0.500080	-0.728469	0.056409
C105	C	0.000076	-1.230262	-0.349552
C106	C	0.500076	-0.730262	0.150448
C107	C	0.000063	-1.149039	-0.291889
C108	C	0.500063	-0.649039	0.208111
C109	C	0.000061	-1.066023	-0.328266
C110	C	0.500061	-0.566023	0.171734
C111	C	0.000055	-0.984800	-0.270604
C112	C	0.500055	-0.484800	0.229396
C113	C	0.000047	-0.901783	-0.306979
C114	C	0.500047	-0.401783	0.193021
C115	C	0.000050	-0.899999	-0.401017
C116	C	0.500050	-0.399999	0.098983
C117	C	0.000059	-1.150823	-0.197851
C118	C	0.500059	-0.650823	0.302149
C119	C	0.000052	-0.986588	-0.176561
C120	C	0.500052	-0.486588	0.323439
C121	C	0.000070	-1.058754	0.289531
C122	C	0.500070	-0.558754	0.789531
C123	C	0.000072	-1.060657	0.389615
C124	C	0.500072	-0.560657	0.889615
H125	H	0.258166	-1.164421	0.224144
H126	H	0.758166	-0.664421	0.724144
F127	F	0.000038	-0.811654	-0.439737
F128	F	0.500038	-0.311654	0.060263
F129	F	0.000051	-0.629569	0.378199
F130	F	0.500051	-0.129569	0.878199
F131	F	0.245573	-0.952116	0.011648
F132	F	0.745573	-0.452116	0.511648
F133	F	0.000071	-0.500679	-0.128762
F134	F	0.500071	-0.000679	0.371238
F135	F	0.000051	-0.435454	0.374489
F136	F	0.500051	0.064546	0.874489
H137	H	0.742001	-1.164462	0.224081
H138	H	1.242001	-0.664462	0.724081
F139	F	0.000082	-0.348980	-0.049330
F140	F	0.500082	0.151020	0.450670
H141	H	0.000072	-1.218414	-0.168238
H142	H	0.500072	-0.718414	0.331762
F143	F	0.000049	-0.891087	-0.591436
F144	F	0.500049	-0.391087	-0.091436
H145	H	0.000088	-1.209795	-0.620958
H146	H	0.500088	-0.709795	-0.120958
H147	H	0.000094	-1.294596	-0.490546
H148	H	0.500094	-0.794596	0.009454
F149	F	0.000040	-0.781275	0.298753
F150	F	0.500040	-0.281275	0.798753
F151	F	0.603821	-1.232874	0.292581
F152	F	1.103821	-0.732874	0.792581
F153	F	0.000052	-0.825217	-0.040279
F154	F	0.500052	-0.325217	0.459721
H155	H	0.408908	-1.219179	0.278900
H156	H	0.908908	-0.719179	0.778900
H157	H	0.000043	-0.920445	-0.129618
H158	H	0.500043	-0.420445	0.370382
F159	F	0.000051	-0.694815	-0.125073
F160	F	0.500051	-0.194815	0.374927
H161	H	0.000082	-1.297860	-0.319944
H162	H	0.500082	-0.797860	0.180056
H163	H	0.741972	-0.965848	0.025300
H164	H	1.241972	-0.465848	0.525300
H165	H	0.000048	-0.835652	-0.260019
H166	H	0.500048	-0.335652	0.239981
F167	F	0.000065	-0.305043	0.289689
F168	F	0.500065	0.194957	0.789689
H169	H	0.591217	-0.911096	-0.029469
H170	H	1.091217	-0.411096	0.470531
H171	H	0.408889	-0.911059	-0.029454
H172	H	0.908889	-0.411059	0.470546
