data_functionalizedCrystal
_audit_creation_method	'MofGen! by Chris Wilmer'
_symmetry_space_group_name_H-M	'P1'
_symmetry_Int_Tables_number	1
_symmetry_cell_setting	triclinic
loop_
_symmetry_equiv_pos_as_xyz
  x,y,z
_cell_length_a	31.640172
_cell_length_b	14.560438
_cell_length_c	14.560438
_cell_angle_alpha	90.000844
_cell_angle_beta	60.007218
_cell_angle_gamma	59.999297
loop_
_atom_site_label
_atom_site_type_symbol
_atom_site_fract_x
_atom_site_fract_y
_atom_site_fract_z
Zr1	Zr	0.462592	-0.120519	0.884890
O2	O	0.550757	-0.267162	0.738269
O3	O	0.374426	-0.075567	0.929819
O4	O	0.462591	-0.267166	0.929844
O5	O	0.462592	0.075575	0.738245
O6	O	0.462592	-0.267167	1.080982
O7	O	0.462591	-0.075563	0.738244
O8	O	0.304881	0.075569	1.080937
O9	O	0.620304	-0.267160	0.738290
O10	O	0.410691	-0.056394	1.061795
O11	O	0.410691	0.056399	0.949003
O12	O	0.514495	-0.169184	0.949033
O13	O	0.514495	-0.056390	0.836241
Zr14	Zr	0.462596	0.120527	1.125939
Zr15	Zr	0.462594	-0.120521	1.125938
Zr16	Zr	0.462594	0.120529	0.884891
Zr17	Zr	0.573512	-0.120517	0.884923
Zr18	Zr	0.351676	0.120524	1.125906
O19	O	0.550762	0.075575	1.081011
O20	O	0.550759	-0.267165	1.081009
O21	O	0.550759	0.075577	0.738271
O22	O	0.374431	0.267170	1.272560
O23	O	0.374429	-0.075569	1.272558
O24	O	0.374429	0.267173	0.929821
O25	O	0.462595	-0.075567	1.272585
O26	O	0.462597	0.267174	1.080985
O27	O	0.462595	0.267175	0.929847
O28	O	0.462597	0.075571	1.272585
O29	O	0.620306	-0.267162	0.929891
O30	O	0.304882	0.267170	1.080938
O31	O	0.304884	0.267168	1.272539
O32	O	0.304882	0.075567	1.272538
O33	O	0.620306	-0.075559	0.738291
O34	O	0.620307	-0.075561	0.929892
O35	O	0.410693	0.169191	1.061797
O36	O	0.410693	0.056398	1.174589
O37	O	0.514496	-0.056392	1.061826
O38	O	0.514496	0.056402	0.949034
C39	C	0.323850	0.000001	1.005373
C40	C	0.276761	-0.000001	1.005359
C41	C	0.462592	0.000006	0.703900
C42	C	0.462591	0.000007	0.601569
C43	C	0.462596	0.301518	1.005416
C44	C	0.462597	0.403850	1.005417
C45	C	-0.015281	-0.058863	1.064314
C46	C	-0.192277	-0.058862	1.064337
O47	O	-0.215181	-0.108895	1.114450
N48	N	-0.214406	0.000013	1.005459
C49	C	-0.192286	0.058898	0.946577
O50	O	-0.215174	0.108984	0.896508
C51	C	-0.015294	0.058903	0.946562
C52	C	0.006837	0.000015	1.005434
C53	C	0.006850	-0.117745	1.123182
C54	C	0.051098	-0.117750	1.123171
C55	C	0.073216	-0.058872	1.064291
C56	C	0.051086	0.000010	1.005422
C57	C	0.006822	0.117794	0.887687
C58	C	0.051072	0.117792	0.887691
C59	C	0.073203	0.058904	0.946563
C60	C	0.117452	0.058883	0.946531
N61	N	0.139581	0.000008	1.005409
C62	C	0.117463	-0.058869	1.064289
C63	C	-0.285208	0.058889	0.946588
C64	C	-0.329455	0.058886	0.946590
C65	C	-0.329444	-0.058872	1.064352
C66	C	-0.285193	-0.058875	1.064342
C67	C	-0.263079	0.000014	1.005466
C68	C	0.210389	-0.058875	1.064260
C69	C	0.254643	-0.058878	1.064239
C70	C	0.254626	0.058884	0.946483
C71	C	0.210377	0.058883	0.946498
C72	C	0.188259	0.000001	1.005395
O73	O	0.140380	0.108900	0.896454
O74	O	0.140349	-0.108927	1.114371
C75	C	-0.059529	-0.058858	1.064325
C76	C	-0.081660	0.000024	1.005457
C77	C	-0.059542	0.058902	0.946577
C78	C	-0.125907	0.000021	1.005459
C79	C	-0.148025	-0.058856	1.064339
C80	C	-0.125896	-0.117731	1.123216
C81	C	-0.081647	-0.117736	1.123205
C82	C	-0.081671	0.117776	0.887699
C83	C	-0.125919	0.117775	0.887714
C84	C	-0.148037	0.058898	0.946594
C85	C	0.601338	0.000007	1.005456
C86	C	0.648427	0.000008	1.005470
C87	C	0.462592	-0.301510	1.005413
C88	C	0.462591	-0.403842	1.005413
C89	C	0.516780	0.393053	0.946558
C90	C	0.516778	0.489208	0.946552
C91	C	0.408403	0.606953	1.064274
C92	C	0.408407	0.510799	1.064272
C93	C	0.408408	0.058878	0.612352
C94	C	0.408410	0.058878	0.516197
C95	C	0.516785	-0.058872	0.398480
C96	C	0.516781	-0.058865	0.494634
C97	C	0.462596	0.000002	1.306929
C98	C	0.462597	0.000001	1.409260
C99	C	0.323852	-0.000002	1.306888
C100	C	0.276764	-0.000004	1.409205
C101	C	0.323852	0.301515	1.005375
C102	C	0.276764	0.403845	1.005361
C103	C	0.323854	0.301513	1.306889
C104	C	0.276767	0.403842	1.409207
C105	C	0.601334	-0.301505	0.703940
C106	C	0.648421	-0.403834	0.601622
C107	C	0.601336	0.000010	0.703942
C108	C	0.648424	0.000011	0.601625
C109	C	0.601336	-0.301507	1.005455
C110	C	0.648424	-0.403837	1.005468
C111	C	0.254650	-0.058891	1.398377
C112	C	0.210413	-0.058915	1.494506
C113	C	0.188286	-0.000045	1.601461
C114	C	0.210405	0.058844	1.612287
C115	C	0.254645	0.058861	1.516159
C116	C	0.254652	0.510787	1.064232
C117	C	0.210415	0.606946	1.064215
C118	C	0.188287	0.596161	1.005333
C119	C	0.210403	0.489208	0.946456
C120	C	0.254643	0.393051	0.946467
C121	C	0.254655	0.393020	1.516143
C122	C	0.210418	0.489160	1.612291
C123	C	0.188291	0.596121	1.601500
C124	C	0.210408	0.606941	1.494553
C125	C	0.254647	0.510802	1.398407
C126	C	0.670538	-0.393012	0.494686
C127	C	0.714789	-0.489152	0.398539
C128	C	0.736918	-0.596113	0.409330
C129	C	0.714799	-0.606933	0.516277
C130	C	0.670552	-0.510794	0.612422
C131	C	0.670542	0.058889	0.612452
C132	C	0.714792	0.058886	0.516324
C133	C	0.736920	0.000013	0.409368
C134	C	0.714800	-0.058872	0.398543
C135	C	0.670553	-0.058875	0.494670
C136	C	0.670538	-0.393016	1.064361
C137	C	0.714776	-0.489157	1.064396
C138	C	0.736902	-0.596118	1.005530
C139	C	0.714784	-0.606936	0.946635
C140	C	0.670543	-0.510797	0.946608
H141	H	0.272662	-0.106836	1.112179
H142	H	-0.143909	-0.165677	1.171154
N143	N	-0.057780	-0.181253	1.186701
H144	H	-0.078511	-0.218545	1.223998
H145	H	-0.065473	-0.127199	1.245888
N146	N	-0.261360	0.122403	0.883066
H147	H	-0.216949	0.068407	0.823819
H148	H	-0.269097	0.181662	0.937122
N149	N	0.349969	0.122361	0.527830
H150	H	0.358191	0.113429	0.450692
H151	H	0.326302	0.204700	0.570344
H152	H	0.152269	0.674394	1.679797
H153	H	0.772947	-0.674387	0.331033
N154	N	0.349959	0.722305	1.127768
H155	H	0.315634	0.714551	1.165054
H156	H	0.347595	0.764767	1.073710
H157	H	0.732823	-0.106805	0.311447
H158	H	0.652546	-0.106817	0.485838
N159	N	0.738655	-0.722304	0.883139
H160	H	0.704906	-0.731332	0.914003
H161	H	0.770045	-0.781485	0.892117
N162	N	0.186530	0.477580	0.882961
H163	H	0.194226	0.514854	0.823718
H164	H	0.142124	0.514846	0.937043
N165	N	0.278492	0.122383	1.527846
H166	H	0.257758	0.159673	1.610190
H167	H	0.270786	0.181584	1.490528
H168	H	0.652523	-0.305928	0.485879
H169	H	0.560899	0.480407	0.898621
H170	H	-0.347459	-0.106815	1.112292
N171	N	0.186560	0.477487	1.727636
H172	H	0.220318	0.434998	1.736647
H173	H	0.168192	0.435052	1.736556
N174	N	0.575232	-0.122384	0.283149
H175	H	0.598921	-0.091496	0.274149
H176	H	0.566967	-0.113444	0.223936
H177	H	0.152263	-0.000067	1.679725
H178	H	0.652543	-0.519623	0.898645
H179	H	0.069113	-0.165697	1.171113
N180	N	0.186540	0.722309	1.482922
H181	H	0.155157	0.781561	1.560062
H182	H	0.168209	0.731223	1.440412
H183	H	0.364282	0.519598	1.112202
H184	H	0.192383	0.106774	1.699383
N185	N	0.646682	0.122392	0.727803
H186	H	0.667416	0.159680	0.720059
H187	H	0.654381	0.068326	0.770261
H188	H	-0.063669	0.165726	0.839754
N189	N	0.278492	0.522483	1.283071
H190	H	0.257758	0.604833	1.290835
H191	H	0.270785	0.485167	1.240615
N192	N	-0.353318	0.122390	0.883083
H193	H	-0.332591	0.159691	0.845790
H194	H	-0.397731	0.181582	0.937142
H195	H	0.364282	0.106827	0.699419
N196	N	0.738640	-0.477468	0.283199
H197	H	0.717900	-0.395118	0.290961
H198	H	0.730945	-0.514800	0.240730
N199	N	0.278507	-0.122389	1.283028
H200	H	0.322920	-0.181631	1.240517
H201	H	0.270760	-0.068309	1.240606
N202	N	0.738669	-0.722301	0.527907
H203	H	0.770052	-0.781553	0.450767
H204	H	0.704882	-0.731218	0.570401
H205	H	0.652544	-0.519619	0.699492
H206	H	-0.011190	0.165748	0.839748
N207	N	0.186563	-0.122435	1.482815
H208	H	0.207291	-0.159713	1.400471
H209	H	0.142149	-0.068383	1.520133
H210	H	-0.143931	0.165725	0.839762
N211	N	0.738653	0.122384	0.528008
H212	H	0.730967	0.181630	0.490731
H213	H	0.783056	0.068294	0.490780
N214	N	0.186536	-0.122381	1.127782
H215	H	0.207276	-0.159680	1.165067
H216	H	0.194230	-0.181573	1.073734
N217	N	0.784643	0.000022	0.305693
H218	H	0.795292	0.046260	0.328792
H219	H	0.769212	0.033508	0.259451
N220	N	0.646679	-0.277659	1.127855
H221	H	0.667404	-0.285410	1.165168
H222	H	0.602265	-0.235204	1.187029
N223	N	0.784615	-0.699797	1.005581
H224	H	0.821324	-0.699826	0.972093
H225	H	0.795232	-0.769152	0.959377
H226	H	0.732780	-0.480326	1.112353
N227	N	0.575223	-0.122368	0.483013
H228	H	0.598916	-0.091488	0.440547
H229	H	0.598865	-0.204721	0.440583
N230	N	-0.017002	-0.181253	1.186694
H231	H	0.003738	-0.218548	1.223981
H232	H	-0.009303	-0.240450	1.132641
N233	N	0.278512	0.522435	1.127748
H234	H	0.257788	0.604780	1.165031
H235	H	0.322926	0.485103	1.073699
H236	H	0.192413	0.694022	1.112164
H237	H	0.069075	0.165746	0.839743
N238	N	-0.261324	-0.122390	1.127838
H239	H	-0.282053	-0.159688	1.165133
H240	H	-0.269021	-0.068332	1.187027
H241	H	0.192364	0.106820	0.898545
N242	N	0.140570	0.699878	1.005328
H243	H	0.129921	0.769258	1.051564
H244	H	0.103885	0.699829	1.038804
N245	N	0.278521	0.277708	0.882900
H246	H	0.257797	0.285478	0.845580
H247	H	0.270840	0.235188	0.936900
N248	N	0.278510	0.277662	1.527798
H249	H	0.257784	0.285412	1.610138
H250	H	0.322924	0.235198	1.490478
H251	H	0.560906	0.305974	0.898631
N252	N	0.278485	0.122387	0.882980
H253	H	0.309873	0.113449	0.891917
H254	H	0.244694	0.204724	0.913898
