data_functionalizedCrystal
_audit_creation_method	'MofGen! by Chris Wilmer'
_symmetry_space_group_name_H-M	'P1'
_symmetry_Int_Tables_number	1
_symmetry_cell_setting	triclinic
loop_
_symmetry_equiv_pos_as_xyz
  x,y,z
_cell_length_a	15.297476
_cell_length_b	13.897441
_cell_length_c	15.297327
_cell_angle_alpha	99.644476
_cell_angle_beta	91.626159
_cell_angle_gamma	80.312072
loop_
_atom_site_label
_atom_site_type_symbol
_atom_site_fract_x
_atom_site_fract_y
_atom_site_fract_z
Zn1	Zn	1.278718	-0.889009	-0.580741
Zn2	Zn	1.253248	-0.750089	-0.727208
Zn3	Zn	1.132232	-0.695978	-0.555394
Zn4	Zn	1.106859	-0.879594	-0.701776
O5	O	1.192764	-0.803668	-0.641280
O6	O	1.397908	-0.897168	-0.621421
O7	O	1.237155	-0.607929	-0.704452
O8	O	1.172941	-0.702878	-0.436198
O9	O	1.379196	-0.795104	-0.729030
O10	O	1.280563	-0.844698	-0.454820
O11	O	1.148244	-0.568173	-0.578221
O12	O	1.006297	-0.693748	-0.553560
O13	O	1.129697	-1.015825	-0.685684
O14	O	0.987656	-0.828651	-0.661106
O15	O	1.255961	-1.022743	-0.596761
O16	O	1.212552	-0.785974	-0.846393
O17	O	1.105001	-0.881120	-0.827708
C18	C	0.965196	-0.754307	-0.601824
C19	C	0.867837	-0.733216	-0.584965
C20	C	0.831798	-0.653150	-0.520955
C21	C	0.740325	-0.633332	-0.505114
C22	C	0.684883	-0.693582	-0.553276
C23	C	0.720923	-0.773654	-0.617283
C24	C	0.812404	-0.793469	-0.633131
C25	C	0.665490	-0.833901	-0.665452
C26	C	0.701530	-0.913973	-0.729459
C27	C	0.793002	-0.933785	-0.745303
C28	C	0.848444	-0.873535	-0.697141
C29	C	0.574009	-0.814086	-0.649604
C30	C	0.554616	-0.954405	-0.761780
C31	C	0.646089	-0.974223	-0.777621
C32	C	1.192840	-1.055262	-0.641213
C33	C	1.192872	-1.162477	-0.641185
C34	C	1.192906	-1.358768	-0.641129
C35	C	1.192884	-1.249538	-0.641162
C36	C	1.421221	-0.853222	-0.680890
C37	C	1.518576	-0.874339	-0.697770
C38	C	1.153283	-0.838423	-0.868833
C39	C	1.136474	-0.853342	-0.966195
C40	C	1.192750	-0.553053	-0.641291
C41	C	1.192931	-0.445838	-0.641103
C42	C	1.313268	-0.697452	-1.279464
C43	C	1.329062	-0.683430	-1.187987
C44	C	1.280916	-0.725907	-1.132535
C45	C	1.216974	-0.782407	-1.168567
C46	C	1.201175	-0.796424	-1.260052
C47	C	1.168823	-0.824879	-1.113123
C48	C	1.104881	-0.881379	-1.149156
C49	C	1.089084	-0.895394	-1.240632
C50	C	1.137230	-0.852917	-1.296084
C51	C	1.184622	-0.810863	-1.021638
C52	C	1.072529	-0.909835	-1.002227
C53	C	1.056735	-0.923856	-1.093703
C54	C	1.232423	-0.768802	-0.412842
C55	C	1.249323	-0.753945	-0.315496
H56	H	0.822341	-0.998978	-0.797430
N57	N	1.297946	-0.710786	-1.033870
H58	H	1.345759	-0.668549	-1.019458
H59	H	1.317795	-0.777108	-1.014629
H60	H	0.544675	-0.748893	-0.597487
H61	H	1.004673	-0.969859	-1.123054
H62	H	1.124376	-0.864333	-1.370573
H63	H	1.037008	-0.941387	-1.269964
H64	H	0.610403	-0.677442	-0.540374
N65	N	0.701453	-0.546974	-0.436087
H66	H	0.750453	-0.511813	-0.407979
H67	H	0.670538	-0.571908	-0.389028
N68	N	1.020589	-0.955648	-0.942428
H69	H	1.040302	-0.938198	-0.879009
H70	H	1.031435	-1.029941	-0.960718
N71	N	1.253592	-0.749936	-0.982788
H72	H	1.300729	-0.792149	-0.951807
H73	H	1.224497	-0.691687	-0.938765
H74	H	1.352456	-0.662866	-1.324619
N75	N	0.947106	-0.894912	-0.714233
H76	H	0.979565	-0.908354	-0.657990
H77	H	0.966252	-0.835901	-0.734092
N78	N	0.891589	-0.588173	-0.469012
H79	H	0.873292	-0.517839	-0.479775
H80	H	0.954986	-0.612958	-0.488791
N81	N	0.684963	-1.060579	-0.846659
H82	H	0.751324	-1.063984	-0.849388
H83	H	0.658121	-1.051535	-0.906422
H84	H	0.509475	-1.003465	-0.800998
H85	H	1.381122	-0.637427	-1.158652
