data_functionalizedCrystal
_audit_creation_method	'MofGen! by Chris Wilmer'
_symmetry_space_group_name_H-M	'P1'
_symmetry_Int_Tables_number	1
_symmetry_cell_setting	triclinic
loop_
_symmetry_equiv_pos_as_xyz
  x,y,z
_cell_length_a	15.944493
_cell_length_b	15.944551
_cell_length_c	14.048226
_cell_angle_alpha	90.004563
_cell_angle_beta	90.004283
_cell_angle_gamma	83.486891
loop_
_atom_site_label
_atom_site_type_symbol
_atom_site_fract_x
_atom_site_fract_y
_atom_site_fract_z
O1	O	1.114555	0.108099	0.079150
O2	O	1.447888	0.441432	0.412483
O3	O	1.781222	0.774765	0.745817
O4	O	0.869999	0.121506	0.079155
O5	O	1.203332	0.454839	0.412488
O6	O	1.536665	0.788172	0.745822
O7	O	0.998955	-0.007474	0.079144
O8	O	1.332289	0.325859	0.412477
O9	O	1.665622	0.659193	0.745810
O10	O	0.985599	0.237078	0.079161
O11	O	1.318932	0.570412	0.412495
O12	O	1.652265	0.903745	0.745828
O13	O	0.998943	-0.007475	-0.079178
O14	O	1.332276	0.325858	0.254156
O15	O	1.665610	0.659192	0.587489
O16	O	0.869986	0.121505	-0.079166
O17	O	1.203320	0.454838	0.254167
O18	O	1.536653	0.788171	0.587500
O19	O	1.114543	0.108098	-0.079171
O20	O	1.447876	0.441431	0.254162
O21	O	1.781209	0.774764	0.587495
Zn22	Zn	0.992263	0.114801	-0.104306
Zn23	Zn	1.325596	0.448134	0.229028
Zn24	Zn	1.658929	0.781468	0.562361
Zn25	Zn	0.992279	0.114802	0.104289
Zn26	Zn	1.325612	0.448136	0.437623
Zn27	Zn	1.658946	0.781469	0.770956
O28	O	0.985586	0.237077	-0.079160
O29	O	1.318920	0.570411	0.254173
O30	O	1.652253	0.903744	0.587507
C31	C	0.838698	0.120957	-0.000005
C32	C	1.172031	0.454291	0.333328
C33	C	1.505364	0.787624	0.666662
C34	C	0.745449	0.119314	-0.000004
C35	C	1.078783	0.452648	0.333330
C36	C	1.412116	0.785981	0.666663
C37	C	0.509689	0.195235	0.000003
C38	C	0.843023	0.528568	0.333336
C39	C	1.176356	0.861902	0.666669
C40	C	0.459125	0.154293	-0.078065
C41	C	0.792458	0.487627	0.255268
C42	C	1.125792	0.820960	0.588601
C43	C	0.574728	0.116270	-0.000006
C44	C	0.908062	0.449604	0.333328
C45	C	1.241395	0.782937	0.666661
C46	C	0.459142	0.154276	0.078027
C47	C	0.792475	0.487609	0.411361
C48	C	1.125808	0.820942	0.744694
C49	C	0.409819	0.113336	-0.000003
C50	C	0.743152	0.446669	0.333330
C51	C	1.076485	0.780002	0.666663
C52	C	0.525392	0.075350	-0.078138
C53	C	0.858725	0.408684	0.255196
C54	C	1.192059	0.742017	0.588529
C55	C	0.525412	0.075344	0.078025
C56	C	0.858745	0.408677	0.411358
C57	C	1.192079	0.742011	0.744691
C58	C	0.474880	0.034345	-0.000062
C59	C	0.808214	0.367678	0.333271
C60	C	1.141547	0.701011	0.666605
C61	C	0.669728	0.117963	-0.000008
C62	C	1.003061	0.451296	0.333326
C63	C	1.336395	0.784630	0.666659
C64	C	0.314821	0.111637	-0.000008
C65	C	0.648155	0.444970	0.333325
C66	C	0.981488	0.778303	0.666658
C67	C	0.998395	-0.038768	-0.000017
C68	C	1.331728	0.294565	0.333316
C69	C	1.665061	0.627898	0.666650
C70	C	0.996732	-0.132014	-0.000018
C71	C	1.330066	0.201319	0.333316
C72	C	1.663399	0.534653	0.666649
C73	C	0.912826	-0.346853	-0.000003
C74	C	1.246159	-0.013520	0.333331
C75	C	1.579492	0.319813	0.666664
C76	C	0.951783	-0.407879	-0.078066
C77	C	1.285116	-0.074546	0.255268
C78	C	1.618450	0.258787	0.588601
C79	C	0.993725	-0.302739	-0.000010
C80	C	1.327058	0.030594	0.333323
C81	C	1.660392	0.363927	0.666657
C82	C	0.951814	-0.407862	0.078027
C83	C	1.285148	-0.074528	0.411360
C84	C	1.618481	0.258805	0.744694
C85	C	0.990814	-0.467651	0.000001
C86	C	1.324147	-0.134318	0.333334
C87	C	1.657481	0.199015	0.666668
C88	C	1.032704	-0.362537	-0.078137
C89	C	1.366038	-0.029204	0.255196
C90	C	1.699371	0.304130	0.588529
C91	C	1.032724	-0.362513	0.078025
C92	C	1.366058	-0.029180	0.411358
C93	C	1.699391	0.304154	0.744692
C94	C	1.071741	-0.423521	-0.000057
C95	C	1.405074	-0.090188	0.333277
C96	C	1.738407	0.243145	0.666610
C97	C	0.995399	-0.207737	-0.000017
C98	C	1.328733	0.125596	0.333316
C99	C	1.662066	0.458929	0.666649
C100	C	0.989146	-0.562652	0.000002
C101	C	1.322479	-0.229319	0.333335
C102	C	1.655812	0.104014	0.666668
C103	C	1.145844	0.108646	-0.000009
C104	C	1.479177	0.441979	0.333324
C105	C	1.812510	0.775313	0.666658
C106	C	1.239092	0.110289	-0.000004
C107	C	1.572426	0.443622	0.333329
C108	C	1.905759	0.776956	0.666662
C109	C	0.986147	0.268372	0.000003
C110	C	1.319480	0.601705	0.333336
C111	C	1.652814	0.935038	0.666669
C112	C	0.987809	0.361617	0.000010
C113	C	1.321143	0.694951	0.333343
C114	C	1.654476	1.028284	0.666676
N115	N	0.992258	0.114799	-0.246666
N116	N	1.325591	0.448133	0.086667
N117	N	1.658924	0.781466	0.420000
C118	C	1.043202	0.165768	-0.296478
C119	C	1.376535	0.499101	0.036856
C120	C	1.709868	0.832434	0.370189
C121	C	1.043213	0.165764	-0.396135
C122	C	1.376546	0.499098	-0.062802
C123	C	1.709879	0.832431	0.270531
C124	C	0.992274	0.114796	-0.445980
C125	C	1.325608	0.448129	-0.112647
C126	C	1.658941	0.781463	0.220687
C127	C	0.941328	0.063822	-0.396162
C128	C	1.274662	0.397155	-0.062828
C129	C	1.607995	0.730489	0.270505
C130	C	0.941322	0.063822	-0.296506
C131	C	1.274656	0.397155	0.036827
C132	C	1.607989	0.730488	0.370161
C133	C	0.941342	0.063828	-0.603876
C134	C	1.274676	0.397161	-0.270543
C135	C	1.608009	0.730494	0.062791
C136	C	0.941346	0.063829	-0.703539
C137	C	1.274680	0.397162	-0.370205
C138	C	1.608013	0.730496	-0.036872
C139	C	1.043232	0.165770	-0.703505
C140	C	1.376566	0.499103	-0.370172
C141	C	1.709899	0.832437	-0.036839
C142	C	1.043227	0.165770	-0.603849
C143	C	1.376560	0.499103	-0.270516
C144	C	1.709893	0.832437	0.062817
C145	C	0.992279	0.114797	-0.554038
C146	C	1.325612	0.448130	-0.220705
C147	C	1.658946	0.781463	0.112628
N148	N	0.992290	0.114797	0.246650
N149	N	1.325624	0.448131	0.579983
N150	N	1.658957	0.781464	0.913317
H151	H	0.845675	-0.313532	-0.000079
H152	H	1.179009	0.019802	0.333254
H153	H	1.512342	0.353135	0.666587
H154	H	0.554215	0.042022	-0.144203
H155	H	0.887548	0.375355	0.189130
H156	H	1.220881	0.708689	0.522463
H157	H	0.917561	-0.427981	-0.144060
H158	H	1.250894	-0.094648	0.189273
H159	H	1.584227	0.238686	0.522607
C160	C	1.078917	-0.335323	0.167186
C161	C	1.412250	-0.001990	0.500520
C162	C	1.745584	0.331344	0.833853
N163	N	1.113703	-0.314841	0.234350
N164	N	1.447036	0.018492	0.567684
N165	N	1.780370	0.351826	0.901017
H166	H	0.430182	0.187641	-0.144060
H167	H	0.763516	0.520974	0.189274
H168	H	1.096849	0.854308	0.522607
H169	H	0.554363	0.042022	0.144023
H170	H	0.887697	0.375355	0.477356
H171	H	1.221030	0.708688	0.810689
H172	H	0.430208	0.187640	0.144018
H173	H	0.763542	0.520974	0.477351
H174	H	1.096875	0.854307	0.810685
C175	C	0.885295	0.007756	-0.549086
C176	C	1.218628	0.341089	-0.215753
C177	C	1.551962	0.674423	0.117581
N178	N	0.843077	-0.034472	-0.507818
N179	N	1.176410	0.298861	-0.174485
N180	N	1.509744	0.632195	0.158849
H181	H	0.899867	0.022327	-0.744120
H182	H	1.233200	0.355661	-0.410786
H183	H	1.566534	0.688994	-0.077453
C184	C	1.162534	-0.468345	-0.000120
C185	C	1.495867	-0.135011	0.333213
C186	C	1.829200	0.198322	0.666546
N187	N	1.230917	-0.502109	-0.000174
N188	N	1.564251	-0.168775	0.333159
N189	N	1.897584	0.164558	0.666493
C190	C	1.078882	-0.335544	-0.167396
C191	C	1.412215	-0.002210	0.165937
C192	C	1.745548	0.331123	0.499271
N193	N	1.113658	-0.315209	-0.234626
N194	N	1.446991	0.018124	0.098707
N195	N	1.780324	0.351457	0.432040
H196	H	0.899858	0.022319	-0.436753
H197	H	1.233191	0.355652	-0.103420
H198	H	1.566524	0.688985	0.229913
C199	C	0.905578	-0.434986	0.167182
C200	C	1.238911	-0.101653	0.500516
C201	C	1.572244	0.231680	0.833849
N202	N	0.870747	-0.455412	0.234331
N203	N	1.204080	-0.122079	0.567664
N204	N	1.537413	0.211254	0.900998
H205	H	1.084677	0.207277	-0.255901
H206	H	1.418010	0.540610	0.077432
H207	H	1.751343	0.873944	0.410765
H208	H	1.084712	0.207278	-0.744066
H209	H	1.418045	0.540611	-0.410733
H210	H	1.751379	0.873944	-0.077400
C211	C	1.099222	0.221867	-0.450923
C212	C	1.432555	0.555200	-0.117590
C213	C	1.765888	0.888534	0.215744
N214	N	1.141399	0.264137	-0.492189
N215	N	1.474732	0.597471	-0.158855
N216	N	1.808065	0.930804	0.174478
C217	C	0.885278	0.007754	-0.241714
C218	C	1.218611	0.341088	0.091619
C219	C	1.551945	0.674421	0.424952
N220	N	0.843065	-0.034479	-0.200446
N221	N	1.176398	0.298855	0.132887
N222	N	1.509732	0.632188	0.466220
H223	H	0.459415	-0.033726	-0.000112
H224	H	0.792748	0.299607	0.333222
H225	H	1.126081	0.632941	0.666555
H226	H	0.525313	0.263254	-0.000066
H227	H	0.858646	0.596588	0.333268
H228	H	1.191980	0.929921	0.666601
H229	H	1.084701	0.207277	-0.563269
H230	H	1.418034	0.540610	-0.229935
H231	H	1.751368	0.873943	0.103398
