data_functionalizedCrystal
_audit_creation_method	'MofGen! by Chris Wilmer'
_symmetry_space_group_name_H-M	'P1'
_symmetry_Int_Tables_number	1
_symmetry_cell_setting	triclinic
loop_
_symmetry_equiv_pos_as_xyz
  x,y,z
_cell_length_a	16.120530
_cell_length_b	21.395361
_cell_length_c	21.395355
_cell_angle_alpha	89.978489
_cell_angle_beta	92.920957
_cell_angle_gamma	92.874023
loop_
_atom_site_label
_atom_site_type_symbol
_atom_site_fract_x
_atom_site_fract_y
_atom_site_fract_z
Zn1	Zn	1.274542	0.298157	0.402756
Zn2	Zn	1.774542	0.798157	0.902756
Zn3	Zn	1.274412	0.402911	0.297968
Zn4	Zn	1.774412	0.902911	0.797968
Zn5	Zn	1.135113	0.292835	0.292686
Zn6	Zn	1.635113	0.792835	0.792686
Zn7	Zn	1.135072	0.397577	0.397405
Zn8	Zn	1.635072	0.897577	0.897405
O9	O	1.204785	0.347870	0.347704
O10	O	1.704785	0.847870	0.847704
O11	O	1.391190	0.316512	0.393305
O12	O	1.891190	0.816512	0.893305
O13	O	1.255897	0.388315	0.209588
O14	O	1.755897	0.888315	0.709588
O15	O	1.153680	0.205866	0.307316
O16	O	1.653680	0.705866	0.807316
O17	O	1.391095	0.393475	0.316318
O18	O	1.891095	0.893475	0.816318
O19	O	1.256118	0.209776	0.388183
O20	O	1.756118	0.709776	0.888183
O21	O	1.153554	0.307442	0.205707
O22	O	1.653554	0.807442	0.705707
O23	O	1.018442	0.302270	0.302127
O24	O	1.518442	0.802270	0.802127
O25	O	1.153610	0.384383	0.485794
O26	O	1.653610	0.884383	0.985794
O27	O	1.018412	0.379223	0.379064
O28	O	1.518412	0.879223	0.879064
O29	O	1.256078	0.311340	0.489725
O30	O	1.756078	0.811340	0.989725
O31	O	1.255857	0.489879	0.311129
O32	O	1.755857	0.989879	0.811129
O33	O	1.153484	0.485960	0.384185
O34	O	1.653484	0.985960	0.884185
C35	C	1.204675	0.510654	0.347664
C36	C	1.704675	1.010654	0.847664
C37	C	1.204704	0.580296	0.347672
C38	C	1.704704	1.080296	0.847672
C39	C	0.988177	0.339591	0.339442
C40	C	1.488177	0.839591	0.839442
C41	C	0.895511	0.336064	0.335923
C42	C	1.395511	0.836064	0.835923
C43	C	1.204854	0.347860	0.511129
C44	C	1.704854	0.847860	1.011129
C45	C	1.204884	0.347856	0.580772
C46	C	1.704884	0.847856	1.080772
C47	C	0.725850	0.329610	0.329503
C48	C	1.225850	0.829610	0.829503
C49	C	0.684560	0.366176	0.365950
C50	C	1.184560	0.866176	0.865950
C51	C	0.590155	0.362585	0.362378
C52	C	1.090155	0.862585	0.862378
C53	C	0.820264	0.333200	0.333074
C54	C	1.320264	0.833200	0.833074
C55	C	1.422238	0.356182	0.355998
C56	C	1.922238	0.856182	0.855998
C57	C	1.514904	0.359724	0.359532
C58	C	2.014904	0.859724	0.859532
C59	C	1.204918	0.184452	0.347757
C60	C	1.704918	0.684452	0.847757
C61	C	1.204975	0.114813	0.347780
C62	C	1.704975	0.614813	0.847780
C63	C	1.258056	0.615031	0.309674
C64	C	1.758056	1.115031	0.809674
C65	C	1.258095	0.680468	0.309690
C66	C	1.758095	1.180468	0.809690
C67	C	1.204767	0.711167	0.347695
C68	C	1.704767	1.211167	0.847695
C69	C	1.151410	0.676424	0.385701
C70	C	1.651410	1.176424	0.885701
C71	C	1.151379	0.610988	0.385689
C72	C	1.651379	1.110988	0.885689
C73	C	1.129700	0.812017	0.349748
C74	C	1.629700	1.312017	0.849748
C75	C	1.129730	0.877451	0.349756
C76	C	1.629730	1.377451	0.849756
C77	C	1.204864	0.912991	0.347736
C78	C	1.704864	1.412991	0.847736
C79	C	1.279969	0.883089	0.345695
C80	C	1.779969	1.383089	0.845695
C81	C	1.279938	0.817654	0.345683
C82	C	1.779938	1.317654	0.845683
C83	C	1.204795	0.782120	0.347713
C84	C	1.704795	1.282120	0.847713
C85	C	1.258263	1.018680	0.309753
C86	C	1.758263	1.518680	0.809753
C87	C	1.258303	1.084118	0.309773
C88	C	1.758303	1.584118	0.809773
C89	C	1.151611	1.080073	0.385781
C90	C	1.651611	1.580073	0.885781
C91	C	1.151578	1.014636	0.385764
C92	C	1.651578	1.514636	0.885764
C93	C	1.204903	0.983944	0.347747
C94	C	1.704903	1.483944	0.847747
C95	C	1.204764	0.347837	0.184915
C96	C	1.704764	0.847837	0.684915
C97	C	1.204896	0.347671	0.115279
C98	C	1.704896	0.847671	0.615279
C99	C	1.258236	0.309820	0.615533
C100	C	1.758236	0.809820	1.115533
C101	C	1.258235	0.309793	0.680968
C102	C	1.758235	0.809793	1.180968
C103	C	1.204890	0.347813	0.711641
C104	C	1.704890	0.847813	1.211641
C105	C	1.151527	0.385851	0.676871
C106	C	1.651527	0.885851	1.176871
C107	C	1.151524	0.385873	0.611437
C108	C	1.651524	0.885873	1.111437
C109	C	1.198269	0.403976	0.815051
C110	C	1.698269	0.903976	1.315051
C111	C	1.198278	0.403956	0.880484
C112	C	1.698278	0.903956	1.380484
C113	C	1.204895	0.347747	0.913462
C114	C	1.704895	0.847747	1.413462
C115	C	1.211521	0.291558	0.880998
C116	C	1.711521	0.791558	1.380998
C117	C	1.211517	0.291579	0.815564
C118	C	1.711517	0.791579	1.315564
C119	C	1.204887	0.347794	0.782593
C120	C	1.704887	0.847794	1.282593
C121	C	1.258249	0.309679	1.019175
C122	C	1.758249	0.809679	1.519175
C123	C	1.258242	0.309651	1.084612
C124	C	1.758242	0.809651	1.584612
C125	C	1.151539	0.385715	1.080513
C126	C	1.651539	0.885715	1.580513
C127	C	1.151541	0.385737	1.015078
C128	C	1.651541	0.885737	1.515078
C129	C	1.204901	0.347721	0.984413
C130	C	1.704901	0.847721	1.484413
H131	H	0.720111	0.400177	0.399837
H132	H	1.220111	0.900177	0.899837
N133	N	1.218286	0.234132	0.914666
N134	N	1.718286	0.734132	1.414666
N135	N	1.280799	0.202546	0.909760
N136	N	1.780799	0.702546	1.409760
H137	H	1.285579	0.161991	0.933541
H138	H	1.785579	0.661991	1.433541
H139	H	0.690301	0.295612	0.295619
H140	H	1.190301	0.795612	0.795619
H141	H	1.301479	0.590043	0.278720
H142	H	1.801479	1.090043	0.778720
H143	H	1.301544	0.708754	0.278748
H144	H	1.801544	1.208754	0.778748
H145	H	1.301685	0.278863	0.590570
H146	H	1.801685	0.778863	1.090570
H147	H	1.341091	0.793309	0.344024
H148	H	1.841091	1.293309	0.844024
N149	N	1.096934	0.707789	0.424513
N150	N	1.596934	1.207789	0.924513
N151	N	1.043841	0.742322	0.400414
N152	N	1.543841	1.242322	0.900414
H153	H	1.005367	0.764475	0.427827
H154	H	1.505367	1.264475	0.927827
H155	H	1.301693	0.278720	0.994206
H156	H	1.801693	0.778720	1.494206
N157	N	1.097013	0.424720	0.575926
N158	N	1.597013	0.924720	1.075926
N159	N	1.020088	0.417617	0.580281
N160	N	1.520088	0.917617	1.080281
H161	H	0.981588	0.445054	0.555201
H162	H	1.481588	0.945054	1.055201
H163	H	1.341150	0.912025	0.344051
H164	H	1.841150	1.412025	0.844051
N165	N	1.097044	0.424586	0.979559
N166	N	1.597044	0.924586	1.479559
N167	N	1.043936	0.400520	0.941012
N168	N	1.543936	0.900520	1.441012
H169	H	1.005441	0.427955	0.915926
H170	H	1.505441	0.927955	1.415926
N171	N	1.053014	0.907990	0.351829
N172	N	1.553014	1.407990	0.851829
N173	N	0.997653	0.898626	0.309342
N174	N	1.497653	1.398626	0.809342
H175	H	0.943469	0.920193	0.310806
H176	H	1.443469	1.420193	0.810806
N177	N	1.312755	0.270805	1.120122
N178	N	1.812755	0.770805	1.620122
N179	N	1.365860	0.294871	1.158672
N180	N	1.865860	0.794871	1.658672
H181	H	1.404362	0.267437	1.183753
H182	H	1.904362	0.767437	1.683753
N183	N	1.191456	0.461349	0.913630
N184	N	1.691456	0.961349	1.413630
N185	N	1.185496	0.511526	0.884179
N186	N	1.685496	1.011526	1.384179
H187	H	1.180654	0.552060	0.907586
H188	H	1.680654	1.052060	1.407586
N189	N	1.312735	0.987334	0.270919
N190	N	1.812735	1.487334	0.770919
N191	N	1.360375	1.018358	0.236998
N192	N	1.860375	1.518358	0.736998
H193	H	1.398847	0.996222	0.209569
H194	H	1.898847	1.496222	0.709569
H195	H	1.107932	0.582706	0.416631
H196	H	1.607932	1.082706	0.916631
H197	H	1.301679	0.278816	0.709276
H198	H	1.801679	0.778816	1.209276
N199	N	1.218286	0.234182	0.782412
N200	N	1.718286	0.734182	1.282412
N201	N	1.224197	0.183998	0.811857
N202	N	1.724197	0.683998	1.311857
H203	H	1.228975	0.143459	0.788444
H204	H	1.728975	0.643459	1.288444
H205	H	1.301754	1.112399	0.278833
H206	H	1.801754	1.612399	0.778833
N207	N	1.097146	1.111433	0.424604
N208	N	1.597146	1.611433	0.924604
N209	N	1.097182	1.169857	0.424612
N210	N	1.597182	1.669857	0.924612
H211	H	1.058717	1.192009	0.452033
H212	H	1.558717	1.692009	0.952033
N213	N	1.097072	0.979161	0.424581
N214	N	1.597072	1.479161	0.924581
N215	N	1.049463	1.006576	0.458515
N216	N	1.549463	1.506576	0.958515
H217	H	1.010967	0.981522	0.485933
H218	H	1.510967	1.481522	0.985933
N219	N	1.097021	0.424681	0.708192
N220	N	1.597021	0.924681	1.208192
N221	N	1.020096	0.417577	0.697934
N222	N	1.520096	0.917577	1.197934
H223	H	0.981593	0.444998	0.720054
H224	H	1.481593	0.944998	1.220054
N225	N	1.052941	0.775726	0.351819
N226	N	1.552941	1.275726	0.851819
N227	N	0.985891	0.802429	0.353636
N228	N	1.485891	1.302429	0.853636
H229	H	0.931681	0.776800	0.355100
H230	H	1.431681	1.276800	0.855100
N231	N	1.191553	0.461407	0.781381
N232	N	1.691553	0.961407	1.281381
N233	N	1.248179	0.479990	0.747055
N234	N	1.748179	0.979990	1.247055
H235	H	1.243447	0.520552	0.723280
H236	H	1.743447	1.020552	1.223280
N237	N	1.097044	0.424542	1.111846
N238	N	1.597044	0.924542	1.611846
N239	N	1.097049	0.424516	1.170269
N240	N	1.597049	0.924516	1.670269
H241	H	1.058558	0.451936	1.192400
H242	H	1.558558	0.951936	1.692400
