data_functionalizedCrystal
_audit_creation_method	'MofGen! by Chris Wilmer'
_symmetry_space_group_name_H-M	'P1'
_symmetry_Int_Tables_number	1
_symmetry_cell_setting	triclinic
loop_
_symmetry_equiv_pos_as_xyz
  x,y,z
_cell_length_a	10.723024
_cell_length_b	13.101039
_cell_length_c	14.044220
_cell_angle_alpha	86.332523
_cell_angle_beta	88.828373
_cell_angle_gamma	93.389393
loop_
_atom_site_label
_atom_site_type_symbol
_atom_site_fract_x
_atom_site_fract_y
_atom_site_fract_z
O1	O	1.676785	0.085211	0.127851
O2	O	1.314907	0.085215	0.140586
O3	O	1.490414	0.085203	-0.003801
O4	O	1.501279	0.085223	0.272238
O5	O	1.477823	-0.085226	0.006576
O6	O	1.302317	-0.085214	0.150963
O7	O	1.664195	-0.085218	0.138228
Zn8	Zn	1.481257	-0.112275	0.146243
Zn9	Zn	1.497845	0.112272	0.132571
O10	O	1.488688	-0.085206	0.282615
C11	C	1.262020	0.000001	0.144847
C12	C	1.123188	0.000002	0.142075
N13	N	1.469945	-0.265523	0.155573
C14	C	1.056289	0.000008	0.222866
C15	C	0.912799	0.000010	0.220002
C16	C	1.454555	-0.474565	0.168276
C17	C	1.524552	-0.525445	0.110534
C18	C	1.515989	-0.641763	0.117602
C19	C	1.463117	-0.358236	0.161209
C20	C	1.717083	-0.000002	0.133966
C21	C	1.855915	0.000004	0.136739
C22	C	1.479363	-0.000012	-0.033958
C23	C	1.465179	-0.000013	-0.139276
N24	N	1.509167	0.265520	0.123233
C25	C	1.439248	0.000002	-0.332107
C26	C	1.539850	0.000004	-0.389086
C27	C	1.525421	0.000012	-0.496383
C28	C	1.453674	-0.000007	-0.224799
C29	C	1.499739	0.000011	0.312772
C30	C	1.513924	0.000019	0.418089
H31	H	1.105243	0.000008	0.294154
C32	C	1.614206	-0.466291	0.036584
H33	H	1.656994	-0.513513	0.001282
H34	H	1.673090	-0.424430	0.068495
H35	H	1.567832	-0.424442	-0.005658
C36	C	0.933586	0.000002	0.043294
H37	H	0.879284	0.000007	-0.009316
H38	H	0.980310	-0.059428	0.044386
H39	H	0.989079	0.059444	0.037155
C40	C	1.308265	-0.000005	-0.375061
H41	H	1.315630	-0.000011	-0.442588
H42	H	1.268560	0.059421	-0.358170
H43	H	1.259804	-0.059451	-0.350943
H44	H	1.388203	-0.518357	0.223016
C45	C	1.670839	-0.000020	-0.346130
H46	H	1.663481	-0.000037	-0.278602
H47	H	1.719328	0.059405	-0.370244
H48	H	1.710508	-0.059467	-0.363029
H49	H	0.855287	0.000019	0.289165
H50	H	1.074235	0.000023	0.070785
