data_functionalizedCrystal
_audit_creation_method	'MofGen! by Chris Wilmer'
_symmetry_space_group_name_H-M	'P1'
_symmetry_Int_Tables_number	1
_symmetry_cell_setting	triclinic
loop_
_symmetry_equiv_pos_as_xyz
  x,y,z
_cell_length_a	16.109301
_cell_length_b	10.654550
_cell_length_c	9.130313
_cell_angle_alpha	90.000110
_cell_angle_beta	89.997515
_cell_angle_gamma	83.973192
loop_
_atom_site_label
_atom_site_type_symbol
_atom_site_fract_x
_atom_site_fract_y
_atom_site_fract_z
O1	O	-1.104087	-0.161415	-0.121703
O2	O	-0.862144	-0.181503	-0.121726
O3	O	-0.988678	0.011356	-0.121708
O4	O	-0.977553	-0.354274	-0.121720
O5	O	-0.988677	0.011350	0.121890
O6	O	-0.862143	-0.181508	0.121873
O7	O	-1.104085	-0.161420	0.121896
Cu8	Cu	-0.983114	-0.171465	0.144127
Cu9	Cu	-0.983116	-0.171459	-0.143957
O10	O	-0.977551	-0.354279	0.121879
C11	C	-0.831164	-0.180692	0.000071
C12	C	-0.738854	-0.178253	0.000062
C13	C	-0.987861	0.058140	0.000089
C14	C	-0.985417	0.197550	0.000084
C15	C	-1.135066	-0.162231	0.000096
C16	C	-1.227376	-0.164671	0.000095
C17	C	-0.517228	-0.287019	0.000075
C18	C	-0.430494	-0.284717	0.000085
C19	C	-0.449008	-0.055896	0.000086
C20	C	-0.535741	-0.058199	0.000087
C21	C	-0.569848	-0.173764	0.000074
C22	C	-0.396382	-0.169159	0.000083
C23	C	-0.302341	-0.166662	0.000093
C24	C	-0.663895	-0.176262	0.000067
C25	C	-0.978369	-0.401063	0.000078
C26	C	-0.980813	-0.540473	0.000074
N27	N	-0.983119	-0.171468	0.346750
C28	C	-1.059918	0.278046	0.000095
C29	C	-1.057616	0.409036	0.000085
C30	C	-0.906306	0.379020	0.000058
C31	C	-0.908608	0.248033	0.000058
C32	C	-1.147276	0.295377	0.000117
C33	C	-1.144974	0.426367	0.000107
N34	N	-0.983117	-0.171445	-0.346579
C35	C	-1.039162	-0.086099	0.423409
C36	C	-1.039160	-0.086084	0.576746
C37	C	-0.927068	-0.256818	0.576750
C38	C	-0.927067	-0.256826	0.423416
C39	C	-1.103881	0.012469	0.423408
C40	C	-1.103878	0.012484	0.576745
H41	H	-0.544995	-0.381119	0.000076
C42	C	-1.084698	0.142615	0.367176
N43	N	-1.070248	0.240637	0.324823
H44	H	-1.175093	0.260125	0.105301
H45	H	-0.843771	0.420139	0.000035
C46	C	-1.189432	0.483387	0.137836
N47	N	-1.222914	0.526334	0.241572
C48	C	-1.185429	-0.027739	0.359158
N49	N	-1.246852	-0.058025	0.310764
C50	C	-0.372616	-0.409306	0.000093
N51	N	-0.329022	-0.503152	0.000103
C52	C	-1.193432	0.256338	-0.137595
N53	N	-1.228194	0.226933	-0.241319
H54	H	-0.847942	0.182496	0.000028
H55	H	-1.083679	0.103433	0.624293
C56	C	-0.411481	0.071219	0.000087
N57	N	-0.383217	0.166965	0.000081
H58	H	-0.578586	0.034032	0.000091
C59	C	-1.180657	0.488525	-0.141966
N60	N	-1.207537	0.535345	-0.248969
C61	C	-0.865413	-0.350705	0.661098
N62	N	-0.818972	-0.421423	0.724627
H63	H	-0.881424	-0.326330	0.361001
C64	C	-1.190168	-0.015511	0.632981
N65	N	-1.255151	-0.036634	0.675337
