data_functionalizedCrystal
_audit_creation_method	'MofGen! by Chris Wilmer'
_symmetry_space_group_name_H-M	'P1'
_symmetry_Int_Tables_number	1
_symmetry_cell_setting	triclinic
loop_
_symmetry_equiv_pos_as_xyz
  x,y,z
_cell_length_a	19.121215
_cell_length_b	19.121063
_cell_length_c	12.759393
_cell_angle_alpha	92.404035
_cell_angle_beta	87.531628
_cell_angle_gamma	95.002544
loop_
_atom_site_label
_atom_site_type_symbol
_atom_site_fract_x
_atom_site_fract_y
_atom_site_fract_z
Zn1	Zn	1.063777	-0.234300	-0.677042
Zn2	Zn	1.058657	-0.351984	-0.508522
Zn3	Zn	0.946100	-0.239343	-0.494163
Zn4	Zn	0.941052	-0.356938	-0.676945
O5	O	1.002396	-0.295641	-0.589168
O6	O	1.161564	-0.245727	-0.660737
O7	O	1.043696	-0.337080	-0.359597
O8	O	0.965966	-0.140209	-0.512453
O9	O	1.157802	-0.332190	-0.536927
O10	O	1.052422	-0.136503	-0.646813
O11	O	0.961001	-0.254322	-0.349047
O12	O	0.846964	-0.259126	-0.512359
O13	O	0.957361	-0.340632	-0.823978
O14	O	0.843255	-0.345522	-0.646648
O15	O	1.047527	-0.250531	-0.824049
O16	O	1.038801	-0.451107	-0.536833
O17	O	0.952397	-0.454746	-0.660572
C18	C	0.819579	-0.303409	-0.577936
C19	C	0.741368	-0.306750	-0.573157
C20	C	0.298923	-0.327895	-0.542922
C21	C	0.372411	-0.324753	-0.547404
C22	C	0.411112	-0.278239	-0.614221
C23	C	0.376322	-0.234860	-0.676551
C24	C	0.302836	-0.237999	-0.672063
C25	C	0.633091	-0.266509	-0.630998
C26	C	0.706582	-0.263375	-0.635485
C27	C	0.702666	-0.353268	-0.506336
C28	C	0.629179	-0.356406	-0.501858
C29	C	0.594395	-0.313024	-0.564184
C30	C	0.486228	-0.275028	-0.618806
C31	C	0.519280	-0.316232	-0.559592
C32	C	0.994515	-0.478457	-0.600274
C33	C	0.991207	-0.556663	-0.605065
C34	C	1.034674	-0.591485	-0.542949
C35	C	1.031568	-0.664968	-0.547461
C36	C	0.984990	-0.703628	-0.614084
C37	C	0.941521	-0.668801	-0.676207
C38	C	0.944632	-0.595319	-0.671700
C39	C	0.973350	-0.925593	-0.630917
C40	C	0.970241	-0.999080	-0.635417
C41	C	1.060289	-0.995241	-0.506672
C42	C	1.063392	-0.921758	-0.502166
C43	C	1.019926	-0.886938	-0.564293
C44	C	0.981812	-0.778740	-0.618695
C45	C	1.023108	-0.811827	-0.559687
C46	C	1.185928	-0.287843	-0.600445
C47	C	1.264138	-0.284520	-0.605250
C48	C	1.002452	-0.295571	-0.863200
C49	C	1.002476	-0.295542	-0.979977
C50	C	1.010328	-0.112111	-0.578042
C51	C	1.013708	-0.033902	-0.573301
C52	C	1.049428	-0.248618	-1.034877
C53	C	1.049442	-0.248588	-1.144600
C54	C	0.955547	-0.342410	-1.144513
C55	C	0.955531	-0.342436	-1.034792
C56	C	1.002384	-0.295658	-0.316201
C57	C	1.002505	-0.295484	-0.199421
H58	H	0.597673	-0.394281	-0.447447
H59	H	0.932320	-1.030555	-0.689688
N60	N	1.075959	-0.700533	-0.483989
N61	N	1.049489	-0.742644	-0.418005
H62	H	1.080842	-0.767760	-0.373174
H63	H	0.917291	-0.380647	-0.990090
H64	H	1.101319	-0.890283	-0.447917
N65	N	0.746124	-0.215864	-0.703738
N66	N	0.786085	-0.238922	-0.774641
H67	H	0.814012	-0.205370	-0.822844
N68	N	1.097364	-0.200703	-0.978883
N69	N	1.074532	-0.156931	-0.913420
H70	H	1.108386	-0.123087	-0.873875
N71	N	0.597589	-0.222184	-0.694670
N72	N	0.605632	-0.226564	-0.792395
H73	H	0.580561	-0.195251	-0.837363
N74	N	0.907591	-0.390297	-1.200516
N75	N	0.863838	-0.367418	-1.257480
H76	H	0.829968	-0.401238	-1.297035
H77	H	0.730995	-0.388586	-0.455592
N78	N	0.415863	-0.187345	-0.744789
N79	N	0.481475	-0.184547	-0.748789
H80	H	0.509400	-0.150990	-0.796985
N81	N	0.479763	-0.363742	-0.491329
N82	N	0.488139	-0.358651	-0.394606
H83	H	0.460225	-0.392207	-0.346395
H84	H	0.267418	-0.365775	-0.488518
H85	H	0.274515	-0.202676	-0.722813
H86	H	0.943887	-0.810225	-0.672937
H87	H	0.400730	-0.360072	-0.496648
N88	N	0.525765	-0.227510	-0.687045
N89	N	0.568685	-0.180893	-0.649963
H90	H	0.596610	-0.147331	-0.698153
N91	N	1.097395	-0.200648	-1.200678
N92	N	1.095533	-0.135922	-1.184197
H93	H	1.129400	-0.102061	-1.223802
N94	N	1.082251	-0.552009	-0.474879
N95	N	1.121057	-0.583113	-0.419424
H96	H	1.154661	-0.555235	-0.371348
H97	H	1.095677	-1.023600	-0.456094
H98	H	0.937956	-0.897247	-0.681501
N99	N	0.893953	-0.708300	-0.744265
N100	N	0.891182	-0.773908	-0.748282
H101	H	0.857585	-0.801804	-0.796349
N102	N	0.900231	-0.559758	-0.735164
N103	N	0.858648	-0.594282	-0.794647
H104	H	0.827290	-0.569168	-0.839476
H105	H	1.061034	-0.780348	-0.505447
