data_functionalizedCrystal
_audit_creation_method	'MofGen! by Chris Wilmer'
_symmetry_space_group_name_H-M	'P1'
_symmetry_Int_Tables_number	1
_symmetry_cell_setting	triclinic
loop_
_symmetry_equiv_pos_as_xyz
  x,y,z
_cell_length_a	10.654562
_cell_length_b	16.109301
_cell_length_c	15.186229
_cell_angle_alpha	90.005167
_cell_angle_beta	90.006174
_cell_angle_gamma	83.975792
loop_
_atom_site_label
_atom_site_type_symbol
_atom_site_fract_x
_atom_site_fract_y
_atom_site_fract_z
O1	O	1.666245	0.116823	0.073290
O2	O	1.300618	0.127938	0.073279
O3	O	1.493476	0.001409	0.073276
O4	O	1.473387	0.243351	0.073293
O5	O	1.493463	0.001407	-0.073182
O6	O	1.300605	0.127936	-0.073178
O7	O	1.666232	0.116821	-0.073168
Zn8	Zn	1.483417	0.122378	-0.096426
Zn9	Zn	1.483434	0.122381	0.096538
O10	O	1.473375	0.243349	-0.073164
C11	C	1.253825	0.127118	0.000049
C12	C	1.114416	0.124670	0.000044
C13	C	1.048893	0.123527	-0.079783
C14	C	0.917902	0.121233	-0.079768
C15	C	0.917967	0.121229	0.079908
C16	C	1.048956	0.123517	0.079892
C17	C	1.048855	0.123533	-0.171970
C18	C	0.917863	0.121239	-0.171956
C19	C	1.492656	-0.029571	0.000047
C20	C	1.490216	-0.121881	0.000045
C21	C	1.598981	-0.343504	0.000062
C22	C	1.596679	-0.430238	0.000069
C23	C	1.367860	-0.411731	0.000059
C24	C	1.370164	-0.324998	0.000058
C25	C	1.485728	-0.290887	0.000055
C26	C	1.481122	-0.464354	0.000064
C27	C	1.478626	-0.558395	0.000071
C28	C	1.488225	-0.196840	0.000049
C29	C	1.713025	0.117640	0.000064
C30	C	1.852435	0.120089	0.000075
C31	C	1.474195	0.274330	0.000067
C32	C	1.476634	0.366640	0.000074
N33	N	1.483414	0.122376	-0.228119
C34	C	1.568841	0.066368	-0.453843
C35	C	1.568845	0.066367	-0.546033
C36	C	1.398010	0.178386	-0.546039
C37	C	1.398001	0.178384	-0.453851
C38	C	1.483424	0.122376	-0.407756
C39	C	1.483437	0.122376	-0.592133
C40	C	1.483440	0.122375	-0.692089
C41	C	1.483419	0.122376	-0.307793
N42	N	1.483446	0.122376	0.228230
H43	H	0.889095	0.060605	-0.200566
C44	C	1.121041	0.124759	0.167701
C45	C	1.196841	0.198390	0.189666
C46	C	1.268929	0.199628	0.277477
C47	C	1.265217	0.127236	0.343324
C48	C	1.189414	0.053599	0.321360
C49	C	1.117326	0.052361	0.233549
H50	H	1.199592	0.251984	0.140921
H51	H	1.325044	0.254139	0.293736
H52	H	1.318581	0.128152	0.408327
H53	H	1.186663	0.000005	0.370105
H54	H	1.061211	-0.002150	0.217290
H55	H	0.864654	0.120290	0.144917
C56	C	1.304038	0.239996	-0.403146
C57	C	1.210122	0.301635	-0.453844
C58	C	1.116160	0.363241	-0.403138
C59	C	1.116114	0.363208	-0.301735
C60	C	1.210033	0.301568	-0.251032
C61	C	1.303995	0.239961	-0.301737
H62	H	1.210154	0.301661	-0.528914
H63	H	1.046635	0.408871	-0.440673
H64	H	1.046558	0.408813	-0.264200
H65	H	1.210002	0.301542	-0.175962
H66	H	1.373520	0.194331	-0.264203
H67	H	1.688902	-0.473075	0.000077
C68	C	1.112411	0.045913	-0.219794
C69	C	1.031302	-0.018977	-0.258329
C70	C	1.094858	-0.096595	-0.306150
C71	C	1.239524	-0.109322	-0.315436
C72	C	1.320642	-0.044430	-0.276900
C73	C	1.257085	0.033188	-0.229079
H74	H	0.924204	-0.009557	-0.251455
H75	H	1.034809	-0.144632	-0.334677
H76	H	1.286572	-0.166780	-0.350836
H77	H	1.427739	-0.053850	-0.283774
H78	H	1.317134	0.081225	-0.200553
H79	H	1.638395	0.020762	-0.416314
H80	H	1.077604	0.184168	-0.200570
C81	C	1.726099	-0.305981	0.000069
C82	C	1.759148	-0.248891	0.076121
C83	C	1.886269	-0.211372	0.076131
C84	C	1.980341	-0.230942	0.000089
C85	C	1.947294	-0.288034	-0.075969
C86	C	1.820173	-0.325554	-0.075979
H87	H	1.689509	-0.234401	0.132417
H88	H	1.910733	-0.169108	0.132435
H89	H	2.074444	-0.203168	0.000096
H90	H	2.016934	-0.302524	-0.132265
H91	H	1.795710	-0.367818	-0.132282
H92	H	0.870795	0.178697	-0.207343
H93	H	1.277933	-0.282156	0.000056
C94	C	1.662808	0.004760	-0.596731
C95	C	1.756776	-0.056837	-0.546025
C96	C	1.850742	-0.118447	-0.596723
C97	C	1.850741	-0.118459	-0.698126
C98	C	1.756769	-0.056860	-0.748837
C99	C	1.662803	0.004750	-0.698139
H100	H	1.756781	-0.056829	-0.470955
H101	H	1.920306	-0.164046	-0.559183
H102	H	1.920300	-0.164067	-0.735656
H103	H	1.756764	-0.056868	-0.823907
H104	H	1.593239	0.050350	-0.735680
C105	C	1.240744	-0.449256	0.000061
C106	C	1.238203	-0.544657	0.000062
C107	C	1.111084	-0.582179	0.000064
C108	C	0.986506	-0.524300	0.000065
C109	C	0.989043	-0.428893	0.000063
C110	C	1.116162	-0.391370	0.000061
H111	H	1.330428	-0.587508	0.000061
H112	H	1.109207	-0.652807	0.000065
H113	H	0.892405	-0.552076	0.000066
H114	H	0.896818	-0.386042	0.000064
H115	H	1.118039	-0.320743	0.000060
H116	H	1.328463	0.223988	-0.583579
