data_functionalizedCrystal
_audit_creation_method	'MofGen! by Chris Wilmer'
_symmetry_space_group_name_H-M	'P1'
_symmetry_Int_Tables_number	1
_symmetry_cell_setting	triclinic
loop_
_symmetry_equiv_pos_as_xyz
  x,y,z
_cell_length_a	17.019383
_cell_length_b	17.019294
_cell_length_c	13.596369
_cell_angle_alpha	86.115041
_cell_angle_beta	86.118699
_cell_angle_gamma	83.133350
loop_
_atom_site_label
_atom_site_type_symbol
_atom_site_fract_x
_atom_site_fract_y
_atom_site_fract_z
O1	O	1.046555	0.100560	-0.178861
O2	O	1.546555	0.600560	0.321139
O3	O	0.816878	0.113362	-0.160513
O4	O	1.316878	0.613362	0.339487
O5	O	0.938124	-0.007879	-0.160498
O6	O	1.438124	0.492121	0.339502
O7	O	0.925309	0.221801	-0.178876
O8	O	1.425309	0.721801	0.321124
O9	O	0.938112	-0.007885	0.003087
O10	O	1.438112	0.492115	0.503087
O11	O	0.816866	0.113356	0.003072
O12	O	1.316866	0.613356	0.503072
O13	O	1.046543	0.100553	-0.015276
O14	O	1.546543	0.600553	0.484724
Zn15	Zn	0.931703	0.106953	0.019870
Zn16	Zn	1.431703	0.606953	0.519870
Zn17	Zn	0.931718	0.106962	-0.195659
Zn18	Zn	1.431718	0.606962	0.304341
O19	O	0.925297	0.221794	-0.015291
O20	O	1.425297	0.721794	0.484709
C21	C	0.787484	0.112871	-0.076193
C22	C	1.287484	0.612871	0.423807
C23	C	0.699916	0.111409	-0.068660
C24	C	1.199916	0.611409	0.431340
C25	C	0.658776	0.110727	-0.154284
C26	C	1.158776	0.610727	0.345716
C27	C	0.576495	0.109366	-0.147193
C28	C	1.076495	0.609366	0.352807
C29	C	0.535357	0.108680	-0.054476
C30	C	1.035357	0.608680	0.445524
C31	C	0.576503	0.109364	0.031154
C32	C	1.076503	0.609364	0.531154
C33	C	0.658781	0.110732	0.024061
C34	C	1.158781	0.610732	0.524061
C35	C	0.286929	0.104558	-0.028600
C36	C	0.786929	0.604558	0.471400
C37	C	0.204645	0.103188	-0.021514
C38	C	0.704645	0.603188	0.478486
C39	C	0.204643	0.103191	-0.199861
C40	C	0.704643	0.603191	0.300139
C41	C	0.286924	0.104553	-0.206946
C42	C	0.786924	0.604553	0.293054
C43	C	0.328062	0.105242	-0.121316
C44	C	0.828062	0.605242	0.378684
C45	C	0.451253	0.107286	-0.047225
C46	C	0.951253	0.607286	0.452775
C47	C	0.412163	0.106641	-0.128568
C48	C	0.912163	0.606641	0.371432
C49	C	0.937632	-0.037271	-0.076176
C50	C	1.437632	0.462729	0.423824
C51	C	0.936174	-0.124840	-0.068639
C52	C	1.436174	0.375160	0.431361
C53	C	0.935497	-0.165972	-0.154267
C54	C	1.435497	0.334028	0.345733
C55	C	0.934123	-0.248252	-0.147182
C56	C	1.434123	0.251748	0.352818
C57	C	0.933430	-0.289399	-0.054467
C58	C	1.433430	0.210601	0.445533
C59	C	0.934104	-0.248260	0.031168
C60	C	1.434104	0.251740	0.531168
C61	C	0.935473	-0.165981	0.024082
C62	C	1.435473	0.334019	0.524082
C63	C	0.929291	-0.537828	-0.028610
C64	C	1.429291	-0.037828	0.471390
C65	C	0.927924	-0.620113	-0.021531
C66	C	1.427924	-0.120113	0.478469
C67	C	0.927941	-0.620098	-0.199881
C68	C	1.427941	-0.120098	0.300119
C69	C	0.929315	-0.537818	-0.206959
C70	C	1.429315	-0.037818	0.293041
C71	C	0.929985	-0.496687	-0.121324
C72	C	1.429985	0.003313	0.378676
C73	C	0.932027	-0.373502	-0.047223
C74	C	1.432027	0.126498	0.452777
C75	C	0.931382	-0.412584	-0.128569
C76	C	1.431382	0.087416	0.371431
C77	C	1.075937	0.101044	-0.099599
C78	C	1.575937	0.601044	0.400401
C79	C	1.163505	0.102507	-0.107138
C80	C	1.663505	0.602507	0.392862
C81	C	0.925789	0.251186	-0.099615
C82	C	1.425789	0.751186	0.400385
C83	C	0.927247	0.338755	-0.107159
C84	C	1.427247	0.838755	0.392841
N85	N	0.931697	0.106947	0.166963
N86	N	1.431697	0.606947	0.666963
N87	N	0.931730	0.106962	-0.342752
N88	N	1.431730	0.606962	0.157248
C89	C	0.931717	0.106963	0.568251
C90	C	1.431717	0.606963	1.068251
C91	C	0.931710	0.106961	0.456600
C92	C	1.431710	0.606961	0.956600
C93	C	0.931708	0.106956	0.367610
C94	C	1.431708	0.606956	0.867610
C95	C	0.931699	0.106953	0.255953
C96	C	1.431699	0.606953	0.755953
H97	H	0.543003	0.108811	-0.216917
H98	H	1.043003	0.608811	0.283083
H99	H	0.543001	0.108811	0.106645
H100	H	1.043001	0.608811	0.606645
Br101	Br	0.148817	0.102237	0.104326
Br102	Br	0.648817	0.602237	0.604326
Br103	Br	0.930183	-0.482014	0.087611
Br104	Br	1.430183	0.017986	0.587611
H105	H	0.927394	-0.653596	-0.269600
H106	H	1.427394	-0.153596	0.230400
H107	H	0.931940	-0.379078	-0.204056
H108	H	1.431940	0.120922	0.295944
Br109	Br	0.148811	0.102245	-0.316066
Br110	Br	0.648811	0.602245	0.183934
Br111	Br	0.342750	0.105475	-0.332779
Br112	Br	0.842750	0.605475	0.167221
H113	H	0.931466	-0.407013	0.028266
H114	H	1.431466	0.092987	0.528266
Br115	Br	0.342748	0.105493	0.087612
Br116	Br	0.842748	0.605493	0.587612
H117	H	0.692276	0.111290	0.093785
H118	H	1.192276	0.611290	0.593785
H119	H	0.936013	-0.132491	0.093810
H120	H	1.436013	0.367509	0.593810
Br121	Br	0.467994	0.107576	-0.254394
Br122	Br	0.967994	0.607576	0.245606
Br123	Br	0.933151	-0.304100	0.156997
Br124	Br	1.433151	0.195900	0.656997
H125	H	0.417750	0.106726	0.028265
H126	H	0.917750	0.606726	0.528265
H127	H	0.936066	-0.132477	-0.229766
H128	H	1.436066	0.367523	0.270234
Br129	Br	0.930260	-0.481982	-0.332791
Br130	Br	1.430260	0.018018	0.167209
H131	H	0.692265	0.111283	-0.229784
H132	H	1.192265	0.611283	0.270216
H133	H	0.933575	-0.281738	-0.216910
H134	H	1.433575	0.218262	0.283090
H135	H	0.927356	-0.653612	0.053973
H136	H	1.427356	-0.153612	0.553973
