data_functionalizedCrystal
_audit_creation_method	'MofGen! by Chris Wilmer'
_symmetry_space_group_name_H-M	'P1'
_symmetry_Int_Tables_number	1
_symmetry_cell_setting	triclinic
loop_
_symmetry_equiv_pos_as_xyz
  x,y,z
_cell_length_a	19.377369
_cell_length_b	19.377625
_cell_length_c	17.052862
_cell_angle_alpha	75.850219
_cell_angle_beta	81.153800
_cell_angle_gamma	44.223055
loop_
_atom_site_label
_atom_site_type_symbol
_atom_site_fract_x
_atom_site_fract_y
_atom_site_fract_z
Zr1	Zr	0.752810	0.562936	-0.098609
O2	O	0.886619	0.432147	-0.152749
O3	O	0.601695	0.626616	-0.107634
O4	O	0.716478	0.622625	-0.231172
O5	O	0.806531	0.412457	0.097385
O6	O	0.707505	0.746047	-0.263888
O7	O	0.771836	0.436138	-0.029211
O8	O	0.502180	0.753187	-0.042900
O9	O	1.011856	0.405318	-0.123604
O10	O	0.663565	0.717388	-0.104942
O11	O	0.696153	0.607606	0.013950
O12	O	0.831295	0.602907	-0.131501
O13	O	0.863884	0.493125	-0.012609
Zr14	Zr	0.793835	0.722012	0.051118
Zr15	Zr	0.738500	0.759781	-0.150787
Zr16	Zr	0.808145	0.525167	0.103296
Zr17	Zr	0.952550	0.520146	-0.052125
Zr18	Zr	0.594095	0.764802	0.004634
O19	O	0.944950	0.658332	0.060143
O20	O	0.866272	0.712035	-0.226939
O21	O	0.965297	0.378444	0.134333
O22	O	0.660026	0.852801	0.105259
O23	O	0.581348	0.906504	-0.181824
O24	O	0.680374	0.572913	0.179449
O25	O	0.740114	0.872491	-0.144875
O26	O	0.830167	0.662323	0.183682
O27	O	0.839140	0.538901	0.216397
O28	O	0.774809	0.848810	-0.018280
O29	O	1.000482	0.561783	-0.165078
O30	O	0.546163	0.723166	0.117587
O31	O	0.534789	0.879631	0.076113
O32	O	0.490805	0.909652	-0.084374
O33	O	1.055840	0.375296	0.036884
O34	O	1.044465	0.531761	-0.004591
O35	O	0.715350	0.682041	0.084011
O36	O	0.682761	0.791823	-0.034881
O37	O	0.850492	0.677342	-0.061440
O38	O	0.883080	0.567560	0.057452
C39	C	0.523479	0.695998	-0.081890
C40	C	0.438684	0.714164	-0.101624
C41	C	0.791222	0.396252	0.041521
C42	C	0.797297	0.312686	0.063672
C43	C	0.704107	0.689718	-0.276297
C44	C	0.680616	0.705752	-0.362011
C45	C	0.244595	0.487724	0.143940
C46	C	0.164836	0.504906	0.125431
C47	C	0.130826	0.619510	0.001317
C48	C	0.210580	0.602341	0.019818
C49	C	0.267460	0.536446	0.091130
C50	C	0.233446	0.651063	-0.032993
C51	C	0.313197	0.633891	-0.014495
C52	C	0.370083	0.567997	0.056812
C53	C	0.347212	0.519274	0.109627
C54	C	0.176569	0.716952	-0.104307
C55	C	0.199434	0.765675	-0.157118
C56	C	0.279182	0.748508	-0.138618
C57	C	0.336068	0.682614	-0.067310
C58	C	0.302053	0.797231	-0.191433
C59	C	0.381804	0.780059	-0.172936
C60	C	0.415819	0.665442	-0.048813
C61	C	1.023166	0.588950	0.034399
C62	C	1.107961	0.570784	0.054133
C63	C	0.721680	0.103072	-0.212146
C64	C	0.727388	0.024550	-0.191305
C65	C	0.765613	-0.001521	-0.051830
C66	C	0.759913	0.076998	-0.072659
C67	C	0.737945	0.129289	-0.152818
C68	C	0.776178	0.103215	-0.013332
C69	C	0.770474	0.181730	-0.034159
C70	C	0.748504	0.234028	-0.114314
C71	C	0.732241	0.207804	-0.173646
C72	C	0.798139	0.050927	0.066828
C73	C	0.814404	0.077144	0.126155
C74	C	0.808707	0.155656	0.105327
C75	C	0.786737	0.207954	0.025172
C76	C	0.824970	0.181879	0.164659
C77	C	0.819265	0.260394	0.143831
C78	C	0.781032	0.286469	0.004345
C79	C	0.755423	0.888697	-0.089012
C80	C	0.749348	0.972262	-0.111163
C81	C	0.964623	0.511901	-0.659077
C82	C	0.986697	0.496831	-0.578544
C83	C	0.910179	0.549060	-0.524407
C84	C	0.811583	0.616362	-0.550811
C85	C	0.789506	0.631428	-0.631350
C86	C	0.735063	0.668586	-0.496680
C87	C	0.636466	0.735888	-0.523083
C88	C	0.614394	0.750952	-0.603615
C89	C	0.690912	0.698723	-0.657752
C90	C	0.757139	0.653520	-0.416141
C91	C	0.582022	0.773047	-0.388413
C92	C	0.559948	0.788117	-0.468946
C93	C	0.842538	0.595231	0.228807
C94	C	0.866029	0.579197	0.314521
C95	C	0.505579	0.942221	-0.147156
C96	C	0.414709	1.043952	-0.189041
C97	C	0.592694	0.648755	0.170662
C98	C	0.531390	0.650886	0.236642
C99	C	0.574794	0.894977	0.105396
C100	C	0.507415	0.980675	0.149225
C101	C	0.971851	0.389971	-0.152886
C102	C	1.039230	0.304274	-0.196716
C103	C	1.041066	0.342727	0.099666
C104	C	1.131936	0.240996	0.141550
C105	C	0.953951	0.636193	-0.218153
C106	C	1.015255	0.634062	-0.284133
C107	C	0.362013	1.052873	-0.245290
C108	C	0.276638	1.148454	-0.284659
C109	C	0.243956	1.235113	-0.267774
C110	C	0.296661	1.226188	-0.211521
C111	C	0.382038	1.130608	-0.172157
C112	C	0.512624	0.690740	0.304207
C113	C	0.455036	0.692736	0.366214
C114	C	0.416210	0.654884	0.360651
C115	C	0.434982	0.615024	0.293081
C116	C	0.492574	0.613022	0.231078
C117	C	0.458762	1.078232	0.107745
C118	C	0.395461	1.158761	0.148920
C119	C	0.380809	1.141730	0.231574
C120	C	0.429470	1.044162	0.273056
C121	C	0.492776	0.963635	0.231882
C122	C	1.087893	0.206714	-0.155234
C123	C	1.151219	0.126180	-0.196403
C124	C	1.165875	0.143210	-0.279056
C125	C	1.117208	0.240779	-0.320539
C126	C	1.053889	0.321309	-0.279368
C127	C	1.184638	0.232075	0.197793
C128	C	1.270029	0.136493	0.237145
C129	C	1.302713	0.049834	0.220258
C130	C	1.250006	0.058759	0.164008
C131	C	1.164620	0.154339	0.124652
C132	C	1.054064	0.671923	-0.278549
C133	C	1.111655	0.669939	-0.340544
C134	C	1.130443	0.630087	-0.408119
C135	C	1.091627	0.592225	-0.413703
C136	C	1.034030	0.594216	-0.351712
H137	H	0.462134	0.611784	0.009257
H138	H	0.832287	0.034562	0.191422
H139	H	0.369316	0.656519	0.411143
H140	H	0.355845	1.238199	0.115131
Br141	Br	0.053631	0.708930	-0.095463
H142	H	1.276630	-0.011812	0.150265
Br143	Br	0.252292	1.343807	-0.188612
Br144	Br	0.453541	1.118519	-0.095815
H145	H	0.763154	0.329040	-0.060931
H146	H	1.014265	0.400746	-0.313155
Br147	Br	0.940138	0.528608	-0.415111
Br148	Br	1.137107	0.263874	-0.432712
H149	H	0.329259	1.207310	0.265091
H150	H	0.743855	0.297962	-0.131270
H151	H	0.672945	0.710992	-0.723330
H152	H	0.111636	0.730926	-0.119368
H153	H	0.417531	1.030310	0.340357
Br154	Br	0.702446	0.278762	-0.282439
H155	H	1.312931	0.129246	0.282945
Br156	Br	0.518030	0.558934	0.139384
Br157	Br	1.120503	0.405463	-0.542707
H158	H	0.388617	0.982322	-0.259056
H159	H	0.174434	1.312934	-0.299832
Br160	Br	0.480586	0.842272	-0.639442
H161	H	1.190834	0.046743	-0.162613
H162	H	1.177343	0.628471	-0.458591
Br163	Br	0.981376	0.542817	-0.359299
H164	H	0.470679	1.092118	0.040444
Br165	Br	0.478325	0.544682	0.081913
Br166	Br	1.093101	0.166429	0.048327
Br167	Br	0.558795	0.831238	0.288190
Br168	Br	0.565300	0.742124	0.311773
Br169	Br	0.429572	0.746837	0.457906
Br170	Br	0.382280	0.563657	0.285544
H171	H	1.075965	0.192830	-0.087935
H172	H	1.217435	0.077628	-0.312570
H173	H	0.393527	0.465616	0.167697
Br174	Br	0.691886	0.174030	-0.320939
Br175	Br	0.224864	0.886641	-0.288218
H176	H	1.158037	0.302626	0.211557
Br177	Br	1.028582	0.726015	-0.186847
Br178	Br	1.068458	0.441009	-0.732544
H179	H	1.372241	-0.027987	0.252309
H180	H	0.290911	0.434066	0.202010
Br181	Br	0.122239	0.855095	-0.253898
Br182	Br	0.426143	0.879452	-0.504789
H183	H	1.143256	0.700769	-0.335982
Br184	Br	1.117143	0.538131	-0.505414
H185	H	0.146227	0.465223	0.168440
H186	H	0.842847	0.139301	0.229926
H187	H	0.400420	0.819733	-0.215940
H188	H	0.714140	0.003211	-0.239623
H189	H	0.783496	-0.044103	0.013437
Br190	Br	0.841332	0.295982	0.224351
Br191	Br	0.478170	0.843926	-0.314946
Br192	Br	0.205126	1.160542	-0.360996
Br193	Br	0.805870	-0.055623	0.095092
H194	H	0.837418	0.598720	-0.394651
