data_functionalizedCrystal
_audit_creation_method	'MofGen! by Chris Wilmer'
_symmetry_space_group_name_H-M	'P1'
_symmetry_Int_Tables_number	1
_symmetry_cell_setting	triclinic
loop_
_symmetry_equiv_pos_as_xyz
  x,y,z
_cell_length_a	15.944551
_cell_length_b	23.532407
_cell_length_c	14.421503
_cell_angle_alpha	89.999621
_cell_angle_beta	89.996859
_cell_angle_gamma	83.173708
loop_
_atom_site_label
_atom_site_type_symbol
_atom_site_fract_x
_atom_site_fract_y
_atom_site_fract_z
O1	O	1.113910	0.073442	-0.077025
O2	O	0.869284	0.082498	-0.077049
O3	O	0.998974	-0.004933	-0.077019
O4	O	0.984221	0.160873	-0.077055
O5	O	0.998953	-0.004920	0.077204
O6	O	0.869263	0.082511	0.077174
O7	O	1.113889	0.073455	0.077199
Cu8	Cu	0.991574	0.077984	0.091268
Cu9	Cu	0.991599	0.077969	-0.091119
O10	O	0.984199	0.160886	0.077169
C11	C	0.837983	0.082128	0.000060
C12	C	0.744746	0.081001	0.000051
C13	C	0.998588	-0.026144	0.000095
C14	C	0.997458	-0.089366	0.000102
C15	C	0.530369	0.024113	0.000081
C16	C	0.469137	0.050524	-0.075964
C17	C	0.574038	0.078962	0.000063
C18	C	0.469138	0.050550	0.076088
C19	C	0.409142	0.076989	0.000078
C20	C	0.514034	0.105388	-0.076046
C21	C	0.514041	0.105406	0.076075
C22	C	0.452826	0.131856	0.000010
C23	C	0.669030	0.080097	0.000053
C24	C	0.314150	0.075858	0.000081
C25	C	1.067121	-0.488199	0.000058
C26	C	1.066072	-0.547603	0.000051
O27	O	1.130650	-0.584098	0.000023
N28	N	0.988971	-0.570528	0.000044
C29	C	0.912915	-0.534045	0.000035
O30	O	0.847239	-0.558999	0.000027
C31	C	0.913965	-0.474642	0.000035
C32	C	0.991071	-0.451721	0.000052
C33	C	1.144220	-0.465277	0.000073
C34	C	1.145269	-0.405877	0.000082
C35	C	1.069219	-0.369399	0.000076
C36	C	0.992120	-0.392320	0.000060
C37	C	0.837910	-0.438160	0.000019
C38	C	0.838967	-0.378754	0.000019
C39	C	0.916072	-0.355832	0.000035
C40	C	0.917118	-0.296442	0.000063
N41	N	0.994219	-0.273517	0.000070
C42	C	1.070269	-0.309995	0.000076
C43	C	0.910716	-0.658796	0.000032
C44	C	0.909664	-0.718198	0.000038
C45	C	1.062821	-0.731752	0.000053
C46	C	1.063872	-0.672349	0.000053
C47	C	0.987816	-0.635871	0.000039
C48	C	1.072466	-0.185250	0.000096
C49	C	1.073508	-0.125844	0.000108
C50	C	0.920352	-0.112295	0.000089
C51	C	0.919309	-0.171696	0.000081
C52	C	0.995373	-0.208173	0.000081
O53	O	0.852574	-0.259913	0.000087
O54	O	1.135935	-0.285033	0.000072
C55	C	1.145190	0.073824	0.000088
C56	C	1.238427	0.074951	0.000090
C57	C	0.984586	0.182097	0.000053
C58	C	0.985715	0.245318	0.000040
N59	N	0.991562	0.077994	0.219550
N60	N	0.991618	0.077954	-0.219400
C61	C	0.931583	0.118404	0.469190
C62	C	1.007390	0.129461	0.530997
C63	C	0.991583	0.077981	0.408711
C64	C	0.915795	0.066938	0.530998
C65	C	0.991596	0.077969	0.591433
C66	C	1.067428	0.089063	0.469158
C67	C	0.975783	0.026517	0.469153
C68	C	1.051645	0.037552	0.530932
C69	C	0.991574	0.077989	0.303450
C70	C	0.991613	0.077960	0.696691
H71	H	0.564086	-0.021407	-0.000003
O72	O	1.218047	-0.500766	0.000204
C73	C	1.222026	-0.535521	0.080092
H74	H	1.155379	-0.538543	0.106710
H75	H	1.253714	-0.580159	0.062135
H76	H	1.260202	-0.515965	0.136028
O77	O	1.023206	0.181413	0.563369
C78	C	0.959810	0.223918	0.531899
H79	H	0.900385	0.203495	0.514556
H80	H	0.944902	0.257434	0.588472
H81	H	0.982877	0.245196	0.467224
O82	O	0.871216	0.159247	0.436724
C83	C	0.909320	0.198519	0.381630
H84	H	0.972541	0.177265	0.354492
H85	H	0.866264	0.212590	0.320678
H86	H	0.919965	0.237459	0.425165
H87	H	0.856524	-0.190359	0.000094
H88	H	0.449238	0.027346	0.140377
O89	O	0.412840	0.186224	-0.000212
C90	C	0.435738	0.214918	-0.080484
H91	H	0.457924	0.182218	-0.136260
H92	H	0.378803	0.244303	-0.107028
H93	H	0.489001	0.241436	-0.063074
H94	H	1.131539	0.098450	0.442108
O95	O	1.220244	-0.383710	0.000049
C96	C	1.287133	-0.428654	0.000075
H97	H	1.263927	-0.469008	-0.029125
H98	H	1.341003	-0.416238	-0.044696
H99	H	1.310558	-0.437059	0.074065
H100	H	0.851698	0.057603	0.558164
H101	H	0.449231	0.027320	-0.140246
O102	O	0.834817	-0.740527	-0.000093
C103	C	0.829623	-0.774466	-0.079984
H104	H	0.895955	-0.789255	-0.106606
H105	H	0.796464	-0.813367	-0.062031
H106	H	0.792251	-0.748222	-0.135916
H107	H	0.533835	0.128563	-0.140407
O108	O	1.112354	-0.003178	0.563037
C109	C	1.192106	0.008668	0.531336
H110	H	1.189307	0.056132	0.514084
H111	H	1.241310	-0.002798	0.587735
H112	H	1.210190	-0.017749	0.466558
H113	H	1.136300	-0.107185	0.000124
H114	H	0.533968	0.128591	0.140359
O115	O	0.846426	-0.076911	-0.000046
C116	C	0.799612	-0.087289	-0.079944
H117	H	0.820620	-0.132349	-0.106567
H118	H	0.729516	-0.083112	-0.062000
H119	H	0.810843	-0.054799	-0.135872
H120	H	1.134405	-0.214943	0.000092
O121	O	1.136777	-0.767112	0.000091
C122	C	1.205061	-0.734148	0.000075
H123	H	1.183367	-0.689816	0.029278
H124	H	1.258308	-0.756059	0.044849
H125	H	1.228725	-0.729914	-0.073912
H126	H	1.126658	-0.653691	0.000066
O127	O	0.959698	-0.025331	0.436599
C128	C	0.886164	-0.018367	0.381476
H129	H	0.875347	0.027432	0.354404
H130	H	0.894085	-0.049355	0.320481
H131	H	0.829600	-0.027546	0.424967
O132	O	0.836752	-0.623445	0.000072
C133	C	0.768485	-0.656423	0.000044
H134	H	0.790192	-0.700754	0.029240
H135	H	0.715222	-0.634525	0.044817
H136	H	0.744836	-0.660658	-0.073947
O137	O	0.762935	-0.460322	-0.000042
C138	C	0.696048	-0.415376	-0.000031
H139	H	0.719266	-0.375022	-0.029217
H140	H	0.642193	-0.427789	-0.044821
H141	H	0.672597	-0.406973	0.073953
O142	O	0.765106	-0.343296	-0.000156
C143	C	0.761152	-0.308516	-0.080015
H144	H	0.804303	-0.330261	-0.135837
H145	H	0.693440	-0.301849	-0.106836
H146	H	0.782513	-0.265316	-0.061947
