data_functionalizedCrystal
_audit_creation_method	'MofGen! by Chris Wilmer'
_symmetry_space_group_name_H-M	'P1'
_symmetry_Int_Tables_number	1
_symmetry_cell_setting	triclinic
loop_
_symmetry_equiv_pos_as_xyz
  x,y,z
_cell_length_a	11.792241
_cell_length_b	19.288865
_cell_length_c	17.766277
_cell_angle_alpha	89.992086
_cell_angle_beta	90.006477
_cell_angle_gamma	96.335169
loop_
_atom_site_label
_atom_site_type_symbol
_atom_site_fract_x
_atom_site_fract_y
_atom_site_fract_z
O1	O	-0.141582	0.922157	-0.062569
O2	O	-0.160681	0.720005	-0.062576
O3	O	0.014113	0.825987	-0.062567
O4	O	-0.316377	0.816176	-0.062578
O5	O	0.014122	0.825968	0.062622
O6	O	-0.160673	0.719986	0.062613
O7	O	-0.141573	0.922138	0.062620
Cu8	Cu	-0.151122	0.821061	0.074047
Cu9	Cu	-0.151133	0.821083	-0.074003
O10	O	-0.316368	0.816157	0.062611
C11	C	0.056399	0.825361	0.000027
C12	C	0.182385	0.823517	0.000026
C13	C	-0.142192	0.948028	0.000025
C14	C	-0.144037	1.025142	0.000022
C15	C	-0.358654	0.816782	0.000015
C16	C	-0.484640	0.818627	0.000011
C17	C	0.413046	0.820125	0.000014
C18	C	0.284689	0.822009	0.000020
C19	C	-0.160063	0.694116	0.000017
C20	C	-0.158218	0.617002	0.000015
N21	N	-0.151114	0.821050	0.178177
C22	C	-0.041476	1.069256	0.000019
C23	C	-0.043209	1.141712	0.000024
C24	C	-0.147509	1.170053	0.000016
C25	C	-0.250084	1.125929	0.000023
C26	C	-0.248348	1.053474	0.000027
C27	C	-0.229505	1.278802	-0.043850
C28	C	-0.231236	1.351256	-0.043858
C29	C	-0.152868	1.393529	0.000009
C30	C	-0.072749	1.363339	0.043875
C31	C	-0.071013	1.290884	0.043878
C32	C	-0.149403	1.248617	0.000013
C33	C	-0.052179	1.516209	0.000012
C34	C	-0.053916	1.588667	0.000021
C35	C	-0.260795	1.572882	0.000013
C36	C	-0.259054	1.500425	0.000012
C37	C	-0.154743	1.472094	0.000008
N38	N	-0.151132	0.821099	-0.178133
C39	C	-0.073753	0.867994	0.217568
C40	C	-0.073748	0.867998	0.296370
C41	C	-0.151123	0.821065	0.335778
C42	C	-0.228490	0.774112	0.296377
C43	C	-0.228486	0.774104	0.217577
C44	C	-0.254534	0.812353	0.460612
C45	C	-0.254540	0.812366	0.539411
C46	C	-0.151137	0.821083	0.578824
C47	C	-0.047723	0.829804	0.539429
C48	C	-0.047719	0.829796	0.460628
C49	C	-0.151136	0.821067	0.421223
C50	C	-0.073764	0.868035	0.703661
C51	C	-0.073757	0.868034	0.782464
C52	C	-0.228509	0.774151	0.782470
C53	C	-0.228506	0.774148	0.703668
C54	C	-0.151134	0.821094	0.664268
H55	H	0.043462	1.046193	0.000018
Br56	Br	-0.394884	0.800539	0.592868
Br57	Br	0.095991	1.201593	0.000019
Br58	Br	0.031252	0.931702	0.164096
H59	H	-0.005779	1.266307	0.079597
Br60	Br	-0.402348	1.611335	0.000019
Br61	Br	-0.398253	1.440553	0.000010
Br62	Br	-0.335882	1.221438	-0.103382
Br63	Br	-0.391636	1.164388	0.000019
H64	H	-0.008929	1.397757	0.079592
Br65	Br	-0.339955	1.392221	-0.103398
H66	H	0.032757	1.493140	0.000012
Br67	Br	0.085287	1.648538	0.000028
Br68	Br	0.092620	0.841644	0.592907
Br69	Br	-0.387550	0.993601	0.000031
Br70	Br	-0.333508	0.710447	0.835946
H71	H	-0.010749	0.906227	0.328448
H72	H	-0.010759	0.906259	0.671580
Br73	Br	0.092620	0.841624	0.407165
H74	H	-0.010754	0.906259	0.814537
H75	H	-0.291505	0.735924	0.671594
Br76	Br	-0.394883	0.800591	0.407131
H77	H	-0.291489	0.735897	0.328467
H78	H	-0.291484	0.735876	0.185504
