data_functionalizedCrystal
_audit_creation_method	'MofGen! by Chris Wilmer'
_symmetry_space_group_name_H-M	'P1'
_symmetry_Int_Tables_number	1
_symmetry_cell_setting	triclinic
loop_
_symmetry_equiv_pos_as_xyz
  x,y,z
_cell_length_a	11.169417
_cell_length_b	12.645323
_cell_length_c	11.169416
_cell_angle_alpha	90.023467
_cell_angle_beta	89.988411
_cell_angle_gamma	89.981174
loop_
_atom_site_label
_atom_site_type_symbol
_atom_site_fract_x
_atom_site_fract_y
_atom_site_fract_z
Zn1	Zn	1.834954	-0.599348	0.477758
Zn2	Zn	1.834846	-0.422092	0.678472
Zn3	Zn	1.634242	-0.422104	0.477806
Zn4	Zn	1.634248	-0.599319	0.678402
O5	O	1.734573	-0.510716	0.578109
O6	O	2.002889	-0.575841	0.504392
O7	O	1.808188	-0.273746	0.651903
O8	O	1.660910	-0.445633	0.309850
O9	O	2.002810	-0.445612	0.651856
O10	O	1.808372	-0.575853	0.309814
O11	O	1.660806	-0.273755	0.504475
O12	O	1.466293	-0.445605	0.504406
O13	O	1.660919	-0.747671	0.651736
O14	O	1.466297	-0.575805	0.651783
O15	O	1.808377	-0.747691	0.504324
O16	O	1.808193	-0.445585	0.846413
O17	O	1.660814	-0.575793	0.846361
C18	C	1.422748	-0.510704	0.578093
C19	C	1.289348	-0.510724	0.578115
C20	C	1.734661	-0.787221	0.578017
C21	C	1.734699	-0.905051	0.577977
C22	C	1.641646	-1.072602	0.670277
C23	C	1.641890	-0.950043	0.670734
C24	C	1.861163	-0.949565	0.612299
C25	C	1.860652	-1.072163	0.612878
C26	C	1.702483	-1.072248	0.450839
C27	C	1.699661	-0.949642	0.451601
C28	C	2.047615	-0.510729	0.578127
C29	C	2.181015	-0.510734	0.578134
C30	C	1.734525	-0.510708	0.889934
C31	C	1.734614	-0.510740	1.023334
C32	C	1.734554	-0.235286	0.578115
C33	C	1.734748	-0.117457	0.577817
C34	C	1.734653	-0.510747	0.265067
C35	C	1.734687	-0.510761	0.131667
H36	H	1.547592	-1.102081	0.649006
H37	H	1.662740	-1.103422	0.763823
O38	O	1.670105	-0.911128	0.795394
H39	H	1.594492	-0.862403	0.828862
O40	O	1.896856	-1.110076	0.735833
H41	H	1.914558	-1.040845	0.794322
O42	O	1.898006	-0.908918	0.733967
H43	H	1.982382	-0.863175	0.725541
H44	H	1.932373	-1.101836	0.548457
O45	O	1.955530	-0.910954	0.525940
H46	H	1.913194	-0.859503	0.457479
H47	H	1.611870	-1.103157	0.419553
O48	O	1.782940	-0.909092	0.355531
H49	H	1.828364	-0.976906	0.311675
H50	H	1.606595	-0.920548	0.425717
O51	O	1.792296	-1.110667	0.359579
H52	H	1.790685	-1.198383	0.356302
O53	O	1.517685	-0.910162	0.642248
H54	H	1.456902	-0.978442	0.628031
