data_functionalizedCrystal
_audit_creation_method	'MofGen! by Chris Wilmer'
_symmetry_space_group_name_H-M	'P1'
_symmetry_Int_Tables_number	1
_symmetry_cell_setting	triclinic
loop_
_symmetry_equiv_pos_as_xyz
  x,y,z
_cell_length_a	11.169417
_cell_length_b	12.594516
_cell_length_c	11.169409
_cell_angle_alpha	89.968704
_cell_angle_beta	89.979747
_cell_angle_gamma	90.017302
loop_
_atom_site_label
_atom_site_type_symbol
_atom_site_fract_x
_atom_site_fract_y
_atom_site_fract_z
Zn1	Zn	1.834923	-0.423621	-0.678541
Zn2	Zn	1.834790	-0.601647	-0.477861
Zn3	Zn	1.634207	-0.423687	-0.477876
Zn4	Zn	1.634197	-0.601562	-0.678507
O5	O	1.734529	-0.512629	-0.578196
O6	O	2.002855	-0.447245	-0.651928
O7	O	1.808131	-0.578104	-0.309913
O8	O	1.660892	-0.274732	-0.504515
O9	O	2.002758	-0.578040	-0.504490
O10	O	1.808358	-0.274684	-0.651943
O11	O	1.660763	-0.447357	-0.309925
O12	O	1.466256	-0.447274	-0.504483
O13	O	1.660875	-0.577894	-0.846462
O14	O	1.466248	-0.577958	-0.651885
O15	O	1.808348	-0.447162	-0.846486
O16	O	1.808121	-0.750582	-0.504457
O17	O	1.660746	-0.750519	-0.651871
C18	C	1.422705	-0.512615	-0.578183
C19	C	1.289305	-0.512634	-0.578205
C20	C	1.734451	-0.789170	-0.578185
C21	C	1.734527	-0.907476	-0.578220
C22	C	1.654362	-0.976733	-0.658342
C23	C	1.625114	-1.047608	-0.548829
C24	C	1.763884	-1.047400	-0.687752
C25	C	1.705221	-0.976792	-0.468649
C26	C	1.844042	-0.976578	-0.607646
C27	C	1.814836	-1.047420	-0.498057
C28	C	2.047572	-0.512644	-0.578211
C29	C	2.180972	-0.512651	-0.578217
C30	C	1.734625	-0.512511	-0.891239
C31	C	1.734666	-0.512461	-1.024639
C32	C	1.734641	-0.235008	-0.578235
C33	C	1.734689	-0.116703	-0.578251
C34	C	1.734503	-0.512670	-0.266372
C35	C	1.734694	-0.512420	-0.132972
H36	H	1.586447	-0.945695	-0.726000
F37	F	1.672715	-0.936424	-0.347556
H38	H	1.532574	-1.078831	-0.523966
F39	F	1.903540	-1.087734	-0.409413
F40	F	1.964972	-0.935768	-0.640211
F41	F	1.796253	-1.087945	-0.808807
