data_functionalizedCrystal
_audit_creation_method	'MofGen! by Chris Wilmer'
_symmetry_space_group_name_H-M	'P1'
_symmetry_Int_Tables_number	1
_symmetry_cell_setting	triclinic
loop_
_symmetry_equiv_pos_as_xyz
  x,y,z
_cell_length_a	15.944551
_cell_length_b	23.532407
_cell_length_c	14.421503
_cell_angle_alpha	89.999621
_cell_angle_beta	89.996859
_cell_angle_gamma	83.173708
loop_
_atom_site_label
_atom_site_type_symbol
_atom_site_fract_x
_atom_site_fract_y
_atom_site_fract_z
O1	O	1.113910	0.073442	-0.077025
O2	O	0.869284	0.082498	-0.077049
O3	O	0.998974	-0.004933	-0.077019
O4	O	0.984221	0.160873	-0.077055
O5	O	0.998953	-0.004920	0.077204
O6	O	0.869263	0.082511	0.077174
O7	O	1.113889	0.073455	0.077199
Cu8	Cu	0.991574	0.077984	0.091268
Cu9	Cu	0.991599	0.077969	-0.091119
O10	O	0.984199	0.160886	0.077169
C11	C	0.837983	0.082128	0.000060
C12	C	0.744746	0.081001	0.000051
C13	C	0.530369	0.024113	0.000081
C14	C	0.469137	0.050524	-0.075964
C15	C	0.574038	0.078962	0.000063
C16	C	0.469138	0.050550	0.076088
C17	C	0.409142	0.076989	0.000078
C18	C	0.514034	0.105388	-0.076046
C19	C	0.514041	0.105406	0.076075
C20	C	0.452826	0.131856	0.000010
C21	C	0.669030	0.080097	0.000053
C22	C	0.314150	0.075858	0.000081
C23	C	0.998588	-0.026144	0.000095
C24	C	0.997458	-0.089366	0.000102
C25	C	1.067121	-0.488199	0.000058
C26	C	1.066072	-0.547603	0.000051
O27	O	1.130650	-0.584098	0.000023
N28	N	0.988971	-0.570528	0.000044
C29	C	0.912915	-0.534045	0.000035
O30	O	0.847239	-0.558999	0.000027
C31	C	0.913965	-0.474642	0.000035
C32	C	0.991071	-0.451721	0.000052
C33	C	1.144220	-0.465277	0.000073
C34	C	1.145269	-0.405877	0.000082
C35	C	1.069219	-0.369399	0.000076
C36	C	0.992120	-0.392320	0.000060
C37	C	0.837910	-0.438160	0.000019
C38	C	0.838967	-0.378754	0.000019
C39	C	0.916072	-0.355832	0.000035
C40	C	0.917118	-0.296442	0.000063
N41	N	0.994219	-0.273517	0.000070
C42	C	1.070269	-0.309995	0.000076
C43	C	0.910716	-0.658796	0.000032
C44	C	0.909664	-0.718198	0.000038
C45	C	1.062821	-0.731752	0.000053
C46	C	1.063872	-0.672349	0.000053
C47	C	0.987816	-0.635871	0.000039
C48	C	1.072466	-0.185250	0.000096
C49	C	1.073508	-0.125844	0.000108
C50	C	0.920352	-0.112295	0.000089
C51	C	0.919309	-0.171696	0.000081
C52	C	0.995373	-0.208173	0.000081
O53	O	0.852574	-0.259913	0.000087
O54	O	1.135935	-0.285033	0.000072
C55	C	1.145190	0.073824	0.000088
C56	C	1.238427	0.074951	0.000090
C57	C	0.984586	0.182097	0.000053
C58	C	0.985715	0.245318	0.000040
N59	N	0.991562	0.077994	0.219550
N60	N	0.991618	0.077954	-0.219400
C61	C	0.931583	0.118404	0.469190
C62	C	1.007390	0.129461	0.530997
C63	C	0.991583	0.077981	0.408711
C64	C	0.915795	0.066938	0.530998
C65	C	0.991596	0.077969	0.591433
C66	C	1.067428	0.089063	0.469158
C67	C	0.975783	0.026517	0.469153
C68	C	1.051645	0.037552	0.530932
C69	C	0.991574	0.077989	0.303450
C70	C	0.991613	0.077960	0.696691
H71	H	0.564086	-0.021407	-0.000003
H72	H	0.449231	0.027320	-0.140246
H73	H	1.126658	-0.653691	0.000066
H74	H	0.858434	-0.082584	0.000087
H75	H	0.419284	0.177423	-0.000042
C76	C	1.145368	-0.771391	-0.000144
C77	C	1.149248	-0.805875	-0.079506
C78	C	1.225277	-0.842393	-0.079725
H79	H	1.148218	-0.794904	0.053571
H80	H	1.191466	-0.749255	-0.000189
H81	H	1.103163	-0.828010	-0.079452
H82	H	1.146413	-0.782379	-0.133233
H83	H	1.271374	-0.820256	-0.079771
H84	H	1.228119	-0.865901	-0.026007
H85	H	1.227922	-0.865791	-0.133575
C86	C	0.540602	0.136243	-0.161836
C87	C	0.628288	0.136903	-0.160874
C88	C	0.652796	0.165314	-0.239894
H89	H	0.513435	0.174421	-0.162145
H90	H	0.524923	0.116881	-0.215789
H91	H	0.643959	0.156267	-0.106936
H92	H	0.655476	0.098733	-0.160579
H93	H	0.637118	0.145951	-0.293847
H94	H	0.625624	0.203490	-0.240196
H95	H	0.712294	0.165760	-0.239256
C96	C	0.863880	0.163982	0.433158
C97	C	0.784782	0.152831	0.465851
C98	C	0.722401	0.194809	0.432687
H99	H	0.863897	0.163478	0.367297
H100	H	0.875196	0.200528	0.454362
H101	H	0.773469	0.116294	0.444642
H102	H	0.784737	0.153339	0.531709
H103	H	0.733717	0.231355	0.453891
H104	H	0.722426	0.194302	0.366826
H105	H	0.668727	0.187251	0.454871
C106	C	1.152916	0.101688	0.433258
C107	C	1.169381	0.155400	0.465403
C108	C	1.248128	0.167054	0.432373
H109	H	1.152500	0.101684	0.367394
H110	H	1.195588	0.073165	0.454930
H111	H	1.126720	0.183917	0.443726
H112	H	1.169815	0.155418	0.531263
H113	H	1.290800	0.138530	0.454045
H114	H	1.247704	0.167047	0.366510
H115	H	1.259313	0.203496	0.454185
C116	C	0.540598	0.136222	0.161900
C117	C	0.518143	0.107317	0.241313
C118	C	0.542608	0.135678	0.320400
H119	H	0.513001	0.174284	0.162569
H120	H	0.600031	0.136997	0.161015
H121	H	0.458722	0.106548	0.242198
H122	H	0.545738	0.069256	0.240675
H123	H	0.602041	0.136453	0.319515
H124	H	0.515009	0.173740	0.321060
H125	H	0.527383	0.116067	0.374291
C126	C	0.825863	-0.742970	-0.000016
C127	C	0.759492	-0.698302	-0.000043
C128	C	0.682279	-0.721097	-0.000111
H129	H	0.822137	-0.765855	0.053746
H130	H	0.822228	-0.765842	-0.053823
H131	H	0.763125	-0.675440	0.053759
H132	H	0.763189	-0.675414	-0.053801
H133	H	0.678645	-0.743969	-0.053918
H134	H	0.678563	-0.743982	0.053652
H135	H	0.637238	-0.690794	-0.000137
C136	C	0.442735	0.019524	0.161780
C137	C	0.482400	-0.036848	0.161431
C138	C	0.458109	-0.065448	0.240355
H139	H	0.383206	0.019273	0.161539
H140	H	0.458896	0.038610	0.215800
H141	H	0.466234	-0.055930	0.107424
H142	H	0.541929	-0.036614	0.161685
H143	H	0.474271	-0.046362	0.294375
H144	H	0.398580	-0.065695	0.240107
H145	H	0.485024	-0.103698	0.240133
C146	C	1.119248	-0.008110	0.566913
C147	C	1.081365	-0.047723	0.620299
C148	C	1.143613	-0.089796	0.653449
H149	H	1.158280	0.009277	0.604058
H150	H	1.148130	-0.027175	0.516034
H151	H	1.052496	-0.028660	0.671170
H152	H	1.042338	-0.065125	0.583173
H153	H	1.172496	-0.108862	0.602571
H154	H	1.182642	-0.072404	0.690591
H155	H	1.117918	-0.116681	0.689668
C156	C	0.958092	-0.031512	0.432839
C157	C	1.026671	-0.055532	0.379478
C158	C	1.010398	-0.108991	0.346017
H159	H	0.908605	-0.026961	0.395610
H160	H	0.950036	-0.056039	0.483575
H161	H	1.034717	-0.031011	0.328749
H162	H	1.076166	-0.060098	0.416687
H163	H	1.002341	-0.133518	0.396754
H164	H	0.960909	-0.104434	0.308792
H165	H	1.056928	-0.125298	0.309815
H166	H	0.851698	0.057603	0.558164
H167	H	1.136300	-0.107185	0.000124
H168	H	1.134405	-0.214943	0.000092
C169	C	1.229012	-0.381030	-0.000102
C170	C	1.274948	-0.399564	-0.079457
C171	C	1.352096	-0.376685	-0.079669
H172	H	1.260399	-0.393539	0.053617
H173	H	1.218795	-0.340424	-0.000152
H174	H	1.285168	-0.440161	-0.079400
H175	H	1.243587	-0.387055	-0.133189
H176	H	1.341878	-0.336080	-0.079718
H177	H	1.383474	-0.389197	-0.025946
H178	H	1.383269	-0.389253	-0.133514
C179	C	1.226773	-0.504903	-0.000108
C180	C	1.230683	-0.539395	-0.079462
C181	C	1.306729	-0.575896	-0.079660
H182	H	1.229626	-0.528411	0.053611
H183	H	1.272856	-0.482754	-0.000150
H184	H	1.184612	-0.561542	-0.079412
H185	H	1.227845	-0.515903	-0.133195
H186	H	1.352812	-0.553747	-0.079702
H187	H	1.309575	-0.599399	-0.025937
H188	H	1.309396	-0.599299	-0.133505
C189	C	0.828198	-0.619126	0.000175
C190	C	0.824321	-0.584617	0.079509
C191	C	0.748325	-0.548065	0.079664
H192	H	0.782065	-0.641220	0.000220
H193	H	0.825418	-0.595637	-0.053577
H194	H	0.827093	-0.608104	0.133248
H195	H	0.870436	-0.562512	0.079481
H196	H	0.745545	-0.524576	0.025912
H197	H	0.702197	-0.570163	0.079706
H198	H	0.745688	-0.524643	0.133486
C199	C	0.754253	-0.463112	-0.000154
C200	C	0.749197	-0.496825	-0.079495
C201	C	0.672144	-0.519823	-0.079684
H202	H	0.709048	-0.432929	-0.000213
H203	H	0.750626	-0.486037	0.053594
H204	H	0.752816	-0.473901	-0.133229
H205	H	0.794384	-0.527016	-0.079453
H206	H	0.668517	-0.542748	-0.025936
H207	H	0.626945	-0.489637	-0.079740
H208	H	0.668707	-0.542704	-0.133511
C209	C	0.756299	-0.339245	0.000052
C210	C	0.688557	-0.372038	0.000059
C211	C	0.612392	-0.335664	0.000103
H212	H	0.753413	-0.315775	-0.053713
H213	H	0.753465	-0.315799	0.053856
H214	H	0.691389	-0.395474	-0.053740
H215	H	0.691414	-0.395506	0.053819
H216	H	0.609558	-0.312219	0.053907
H217	H	0.609515	-0.312196	-0.053663
H218	H	0.566420	-0.357909	0.000116
H219	H	0.856524	-0.190359	0.000094
C220	C	1.025060	0.187530	0.567176
C221	C	0.962043	0.229695	0.535919
C222	C	0.978281	0.283194	0.569235
H223	H	1.078456	0.195728	0.545114
H224	H	1.025410	0.187023	0.633048
H225	H	0.961702	0.230203	0.470061
H226	H	0.908641	0.221516	0.557979
H227	H	0.978630	0.282687	0.635107
H228	H	1.031678	0.291386	0.547171
H229	H	0.935523	0.311809	0.548039
