data_functionalizedCrystal
_audit_creation_method	'MofGen! by Chris Wilmer'
_symmetry_space_group_name_H-M	'P1'
_symmetry_Int_Tables_number	1
_symmetry_cell_setting	triclinic
loop_
_symmetry_equiv_pos_as_xyz
  x,y,z
_cell_length_a	10.540539
_cell_length_b	19.188930
_cell_length_c	9.016244
_cell_angle_alpha	89.992636
_cell_angle_beta	89.994699
_cell_angle_gamma	83.835137
loop_
_atom_site_label
_atom_site_type_symbol
_atom_site_fract_x
_atom_site_fract_y
_atom_site_fract_z
O1	O	1.683725	0.098388	-0.123289
O2	O	1.314108	0.107659	-0.123309
O3	O	1.509583	0.001439	-0.123270
O4	O	1.488250	0.204608	-0.123329
O5	O	1.509554	0.001441	0.123411
O6	O	1.314079	0.107661	0.123372
O7	O	1.683697	0.098391	0.123392
Cu8	Cu	1.498885	0.103026	0.145905
Cu9	Cu	1.498919	0.103023	-0.145823
O10	O	1.488222	0.204611	0.123352
C11	C	1.266806	0.106965	0.000029
C12	C	1.125904	0.104885	0.000023
C13	C	0.944233	0.025184	0.000622
C14	C	1.090805	0.027292	0.000050
C15	C	1.063424	0.142224	-0.140849
C16	C	0.916938	0.139576	-0.140951
C17	C	0.916383	0.141157	0.139570
C18	C	1.063349	0.141872	0.141417
C19	C	1.508878	-0.024575	0.000075
C20	C	1.506804	-0.102094	0.000088
C21	C	1.621502	-0.146253	0.000101
C22	C	1.619554	-0.219090	0.000077
C23	C	1.502901	-0.247764	0.000070
C24	C	1.388187	-0.203595	0.000048
C25	C	1.390139	-0.130760	0.000057
N26	N	1.413724	-0.356363	0.084015
N27	N	1.411878	-0.425553	0.084010
C28	C	1.497014	-0.467212	0.000039
N29	N	1.584085	-0.437067	-0.083907
N30	N	1.585935	-0.367870	-0.083895
C31	C	1.500772	-0.326741	0.000059
C32	C	1.609608	-0.590350	0.000025
C33	C	1.607655	-0.663188	-0.000008
C34	C	1.376285	-0.647691	-0.000023
C35	C	1.378241	-0.574855	-0.000004
C36	C	1.494906	-0.546189	0.000026
C37	C	1.730998	0.099085	0.000050
C38	C	1.871901	0.101165	0.000047
C39	C	1.488927	0.230625	0.000004
C40	C	1.491000	0.308143	-0.000018
N41	N	1.498871	0.103028	0.351092
N42	N	1.498944	0.103016	-0.351009
C43	C	1.393992	0.159658	0.586103
C44	C	1.394216	0.159870	0.414212
C45	C	1.631229	0.119601	0.413432
C46	C	1.630654	0.120002	0.585376
C47	C	1.472714	0.029640	0.585655
C48	C	1.469658	0.030115	0.413700
H49	H	1.104900	0.114594	0.245633
H50	H	1.281303	-0.671037	-0.000036
O51	O	1.266418	-0.083129	0.000052
H52	H	1.287374	-0.027665	0.000056
H53	H	0.916311	-0.005469	0.101650
O54	O	1.661350	0.190912	0.638466
H55	H	1.661252	0.191901	0.761553
H56	H	1.295283	0.149839	0.627495
H57	H	1.410466	0.213789	0.629282
H58	H	0.914710	-0.005341	-0.099826
O59	O	1.735430	-0.559422	0.000028
H60	H	1.814863	-0.602369	0.000005
O61	O	1.093786	0.216806	0.152685
H62	H	1.154233	0.228913	0.057249
H63	H	1.133214	-0.002297	-0.101092
H64	H	1.712958	-0.255051	0.000082
O65	O	1.148095	-0.011618	0.133825
H66	H	1.126234	-0.066892	0.129688
O67	O	1.416344	0.231977	0.359667
H68	H	1.426939	0.266830	0.456102
H69	H	0.889348	0.111977	-0.246239
O70	O	1.737185	0.067488	0.640498
H71	H	1.788891	0.041923	0.544338
O72	O	0.851754	0.213489	-0.149473
H73	H	0.924902	0.250964	-0.153514
H74	H	1.701060	-0.699142	-0.000006
O75	O	1.120585	0.107863	-0.279714
H76	H	1.193475	0.064198	-0.248753
H77	H	1.284841	-0.538899	-0.000007
O78	O	1.662666	0.189712	0.356363
H79	H	1.756462	0.200844	0.401203
H80	H	0.867921	0.197202	0.140506
O81	O	1.262364	-0.234515	0.000057
H82	H	1.280275	-0.292582	0.000073
O83	O	1.747327	-0.115332	0.000092
H84	H	1.826758	-0.158281	0.000076
H85	H	1.711168	0.079472	0.372542
O86	O	1.347657	0.008755	0.643139
H87	H	1.302798	0.050447	0.717502
H88	H	1.084522	0.199206	-0.146107
H89	H	0.885377	0.116048	0.246350
H90	H	1.372297	0.017553	0.372957
O91	O	1.263876	0.146676	0.358365
H92	H	1.200113	0.140089	0.454171
O93	O	1.564383	-0.028404	0.356839
H94	H	1.634076	-0.006335	0.282740
O95	O	1.574083	-0.026211	0.639532
H96	H	1.642822	-0.001872	0.711071
