data_functionalizedCrystal
_audit_creation_method	'MofGen! by Chris Wilmer'
_symmetry_space_group_name_H-M	'P1'
_symmetry_Int_Tables_number	1
_symmetry_cell_setting	triclinic
loop_
_symmetry_equiv_pos_as_xyz
  x,y,z
_cell_length_a	25.639242
_cell_length_b	25.639239
_cell_length_c	25.639233
_cell_angle_alpha	89.981253
_cell_angle_beta	89.977834
_cell_angle_gamma	90.034213
loop_
_atom_site_label
_atom_site_type_symbol
_atom_site_fract_x
_atom_site_fract_y
_atom_site_fract_z
Zn1	Zn	0.799225	-0.208277	-0.295742
Zn2	Zn	1.299225	0.291723	0.204258
Zn3	Zn	0.799149	-0.295696	-0.208307
Zn4	Zn	1.299149	0.204304	0.291693
Zn5	Zn	0.711801	-0.208269	-0.208306
Zn6	Zn	1.211801	0.291731	0.291694
Zn7	Zn	0.711746	-0.295676	-0.295696
Zn8	Zn	1.211746	0.204324	0.204304
O9	O	0.755480	-0.251979	-0.252013
O10	O	1.255480	0.248021	0.247987
O11	O	0.872380	-0.219884	-0.284163
O12	O	1.372380	0.280116	0.215837
O13	O	0.787553	-0.284103	-0.135141
O14	O	1.287553	0.215897	0.364859
O15	O	0.723453	-0.135105	-0.219924
O16	O	1.223453	0.364895	0.280076
O17	O	0.872324	-0.284111	-0.219924
O18	O	1.372324	0.215889	0.280076
O19	O	0.787683	-0.135111	-0.284163
O20	O	1.287683	0.364889	0.215837
O21	O	0.723379	-0.219871	-0.135141
O22	O	1.223379	0.280129	0.364859
O23	O	0.638629	-0.219853	-0.219880
O24	O	1.138629	0.280147	0.280120
O25	O	0.723360	-0.284078	-0.368868
O26	O	1.223360	0.215922	0.131132
O27	O	0.638589	-0.284070	-0.284085
O28	O	1.138589	0.215930	0.215915
O29	O	0.787630	-0.219866	-0.368901
O30	O	1.287630	0.280134	0.131099
O31	O	0.787499	-0.368858	-0.219880
O32	O	1.287499	0.131142	0.280120
O33	O	0.723286	-0.368844	-0.284085
O34	O	1.223286	0.131156	0.215915
C35	C	0.619638	-0.251959	-0.251977
C36	C	1.119638	0.248041	0.248023
C37	C	0.561524	-0.251963	-0.251975
C38	C	1.061524	0.248037	0.248025
C39	C	0.201149	-0.285473	-0.285413
C40	C	0.701149	0.214527	0.214587
C41	C	0.146544	-0.285477	-0.285421
C42	C	0.646544	0.214523	0.214579
O43	O	0.118297	-0.313943	-0.313821
O44	O	0.618297	0.186057	0.186179
N45	N	0.119241	-0.251994	-0.252047
N46	N	0.619241	0.248006	0.247953
C47	C	0.146545	-0.218502	-0.218666
C48	C	0.646545	0.281498	0.281334
O49	O	0.118308	-0.190022	-0.190280
O50	O	0.618308	0.309978	0.309720
C51	C	0.201149	-0.218496	-0.218661
C52	C	0.701149	0.281504	0.281339
C53	C	0.228449	-0.251985	-0.252034
C54	C	0.728449	0.248015	0.247966
C55	C	0.228449	-0.318959	-0.318783
C56	C	0.728449	0.181041	0.181217
C57	C	0.283049	-0.318956	-0.318774
C58	C	0.783049	0.181044	0.181226
C59	C	0.310350	-0.285468	-0.285395
C60	C	0.810350	0.214532	0.214605
C61	C	0.283049	-0.251983	-0.252024
C62	C	0.783049	0.248017	0.247976
C63	C	0.228452	-0.185002	-0.185283
C64	C	0.728452	0.314998	0.314717
C65	C	0.283059	-0.185000	-0.185281
C66	C	0.783059	0.315000	0.314719
C67	C	0.310359	-0.218488	-0.218654
C68	C	0.810359	0.281512	0.281346
C69	C	0.364950	-0.218492	-0.218636
C70	C	0.864950	0.281508	0.281364
N71	N	0.392253	-0.251974	-0.252010
N72	N	0.892253	0.248026	0.247990
C73	C	0.364953	-0.285463	-0.285389
C74	C	0.864953	0.214537	0.214611
C75	C	0.031875	-0.218515	-0.218680
C76	C	0.531875	0.281485	0.281320
C77	C	-0.022728	-0.218523	-0.218683
C78	C	0.477272	0.281477	0.281317
C79	C	-0.022725	-0.285497	-0.285438
C80	C	0.477275	0.214503	0.214562
C81	C	0.031878	-0.285492	-0.285433
C82	C	0.531878	0.214508	0.214567
C83	C	0.059178	-0.251998	-0.252054
C84	C	0.559178	0.248002	0.247946
C85	C	0.479618	-0.285455	-0.285368
C86	C	0.979618	0.214545	0.214632
C87	C	0.534223	-0.285451	-0.285354
C88	C	1.034223	0.214549	0.214646
C89	C	0.534216	-0.218475	-0.218601
C90	C	1.034216	0.281525	0.281399
C91	C	0.479615	-0.218481	-0.218612
C92	C	0.979615	0.281519	0.281388
C93	C	0.452318	-0.251972	-0.252000
C94	C	0.952318	0.248028	0.248000
O95	O	0.393232	-0.190038	-0.190252
O96	O	0.893232	0.309962	0.309748
O97	O	0.393197	-0.313933	-0.313776
O98	O	0.893197	0.186067	0.186224
C99	C	0.755392	-0.387822	-0.251989
C100	C	1.255392	0.112178	0.248011
C101	C	0.755403	-0.445936	-0.251996
C102	C	1.255403	0.054064	0.248004
C103	C	0.789004	-0.806294	-0.218638
C104	C	1.289004	-0.306294	0.281362
C105	C	0.789024	-0.860898	-0.218645
C106	C	1.289024	-0.360898	0.281355
O107	O	0.817502	-0.889131	-0.190257
O108	O	1.317502	-0.389131	0.309743
N109	N	0.755572	-0.888218	-0.252048
N110	N	1.255572	-0.388218	0.247952
C111	C	0.722102	-0.860932	-0.285449
C112	C	1.222102	-0.360932	0.214551
O113	O	0.693651	-0.889184	-0.313861
O114	O	1.193651	-0.389184	0.186139
C115	C	0.722085	-0.806328	-0.285444
C116	C	1.222085	-0.306328	0.214556
C117	C	0.755535	-0.779011	-0.252036
C118	C	1.255535	-0.279011	0.247964
C119	C	0.822452	-0.778976	-0.185233
C120	C	1.322452	-0.278976	0.314767
C121	C	0.822431	-0.724376	-0.185226
C122	C	1.322431	-0.224376	0.314774
C123	C	0.788962	-0.697093	-0.218623
C124	C	1.288962	-0.197093	0.281377
C125	C	0.755514	-0.724410	-0.252028
C126	C	1.255514	-0.224410	0.247972
C127	C	0.688617	-0.779042	-0.318847
C128	C	1.188617	-0.279042	0.181153
C129	C	0.688603	-0.724435	-0.318840
C130	C	1.188603	-0.224435	0.181160
C131	C	0.722053	-0.697118	-0.285432
C132	C	1.222053	-0.197118	0.214568
C133	C	0.722024	-0.642527	-0.285418
C134	C	1.222024	-0.142527	0.214582
N135	N	0.755475	-0.615206	-0.252016
N136	N	1.255475	-0.115206	0.247984
C137	C	0.788944	-0.642490	-0.218618
C138	C	1.288944	-0.142490	0.281382
C139	C	0.722141	-0.975602	-0.285457
C140	C	1.222141	-0.475602	0.214543
C141	C	0.722155	-1.030204	-0.285459
C142	C	1.222155	-0.530204	0.214541
C143	C	0.789078	-1.030167	-0.218656
C144	C	1.289078	-0.530167	0.281344
C145	C	0.789061	-0.975564	-0.218652
C146	C	1.289061	-0.475564	0.281348
C147	C	0.755593	-0.948282	-0.252055
C148	C	1.255593	-0.448282	0.247945
C149	C	0.788897	-0.527824	-0.218605
C150	C	1.288897	-0.027824	0.281395
C151	C	0.788872	-0.473219	-0.218599
C152	C	1.288872	0.026781	0.281401
C153	C	0.721951	-0.473261	-0.285403
C154	C	1.221951	0.026739	0.214597
C155	C	0.721974	-0.527862	-0.285408
C156	C	1.221974	-0.027862	0.214592
C157	C	0.755452	-0.555142	-0.252007
C158	C	1.255452	-0.055142	0.247993
O159	O	0.693562	-0.614260	-0.313793
O160	O	1.193562	-0.114260	0.186207
O161	O	0.817396	-0.614231	-0.190216
O162	O	1.317396	-0.114231	0.309784
C163	C	0.891853	-0.252000	-0.252049
C164	C	1.391853	0.248000	0.247951
C165	C	0.949967	-0.252009	-0.252064
C166	C	1.449967	0.247991	0.247936
C167	C	0.755497	-0.251970	-0.388386
C168	C	1.255497	0.248030	0.111614
C169	C	0.755504	-0.251966	-0.446500
C170	C	1.255504	0.248034	0.053500
C171	C	0.755583	-0.115606	-0.252048
C172	C	1.255583	0.384394	0.247952
C173	C	0.755627	-0.057492	-0.252064
C174	C	1.255627	0.442508	0.247936
C175	C	0.789012	-0.218432	-0.806886
C176	C	1.289012	0.281568	-0.306886
C177	C	0.789019	-0.218417	-0.861491
C178	C	1.289019	0.281583	-0.361491
O179	O	0.817466	-0.189967	-0.889747
O180	O	1.317466	0.310033	-0.389747
N181	N	0.755562	-0.251844	-0.888783
N182	N	1.255562	0.248156	-0.388783
C183	C	0.722093	-0.285283	-0.861468
C184	C	1.222093	0.214717	-0.361468
O185	O	0.693636	-0.313713	-0.889695
O186	O	1.193636	0.186287	-0.389695
C187	C	0.722084	-0.285294	-0.806864
C188	C	1.222084	0.214706	-0.306864
C189	C	0.755547	-0.251870	-0.779575
C190	C	1.255547	0.248130	-0.279575
C191	C	0.822472	-0.185009	-0.779597
C192	C	1.322472	0.314991	-0.279597
C193	C	0.822466	-0.185025	-0.724997
C194	C	1.322466	0.314975	-0.224997
C195	C	0.789000	-0.218462	-0.697685
C196	C	1.289000	0.281538	-0.197685
C197	C	0.755541	-0.251885	-0.724974
C198	C	1.255541	0.248115	-0.224974
C199	C	0.688613	-0.318731	-0.779550
C200	C	1.188613	0.181269	-0.279550
C201	C	0.688607	-0.318739	-0.724943
C202	C	1.188607	0.181261	-0.224943
C203	C	0.722069	-0.285314	-0.697654
C204	C	1.222069	0.214686	-0.197654
C205	C	0.722070	-0.285338	-0.643063
C206	C	1.222070	0.214662	-0.143063
N207	N	0.755526	-0.251912	-0.615771
N208	N	1.255526	0.248088	-0.115771
C209	C	0.788992	-0.218474	-0.643082
C210	C	1.288992	0.281526	-0.143082
C211	C	0.722113	-0.285256	-0.976138
C212	C	1.222113	0.214744	-0.476138
C213	C	0.722124	-0.285247	-1.030741
C214	C	1.222124	0.214753	-0.530741
C215	C	0.789049	-0.218381	-1.030760
C216	C	1.289049	0.281619	-0.530760
C217	C	0.789041	-0.218392	-0.976157
C218	C	1.289041	0.281608	-0.476157
C219	C	0.755570	-0.251829	-0.948846
C220	C	1.255570	0.248171	-0.448846
C221	C	0.788977	-0.218509	-0.528417
C222	C	1.288977	0.281491	-0.028417
C223	C	0.788970	-0.218529	-0.473811
C224	C	1.288970	0.281471	0.026189
C225	C	0.722043	-0.285393	-0.473797
C226	C	1.222043	0.214607	0.026203
C227	C	0.722052	-0.285375	-0.528397
C228	C	1.222052	0.214625	-0.028397
C229	C	0.755521	-0.251929	-0.555706
C230	C	1.255521	0.248071	-0.055706
O231	O	0.693635	-0.313773	-0.614771
O232	O	1.193635	0.186227	-0.114771
O233	O	0.817439	-0.190044	-0.614847
O234	O	1.317439	0.309956	-0.114847
C235	C	0.755494	-0.251951	-0.116170
C236	C	1.255494	0.248049	0.383830
C237	C	0.755588	-0.251807	-0.058057
C238	C	1.255588	0.248193	0.441943
H239	H	0.054099	-0.191241	-0.191496
H240	H	0.554099	0.308759	0.308504
H241	H	0.849670	-0.702137	-0.158024
H242	H	1.349670	-0.202137	0.341976
C243	C	0.888627	-0.118926	-0.774117
C244	C	1.388627	0.381074	-0.274117
C245	C	0.859265	-0.148253	-0.809612
C246	C	1.359265	0.351747	-0.309612
H247	H	0.911347	-0.096237	-0.792645
H248	H	1.411347	0.403763	-0.292645
H249	H	0.865857	-0.098928	-0.752821
H250	H	1.365857	0.401072	-0.252821
H251	H	0.908598	-0.141724	-0.752819
H252	H	1.408598	0.358276	-0.252819
H253	H	0.839291	-0.125455	-0.830907
H254	H	1.339291	0.374545	-0.330907
H255	H	0.882038	-0.168253	-0.830917
H256	H	1.382038	0.331747	-0.330917
C257	C	0.855192	-0.152297	-0.981673
C258	C	1.355192	0.347703	-0.481673
C259	C	0.825819	-0.181647	-0.946163
C260	C	1.325819	0.318353	-0.446163
H261	H	0.877895	-0.129609	-0.963157
H262	H	1.377895	0.370391	-0.463157
H263	H	0.875176	-0.175078	-1.002969
H264	H	1.375176	0.324922	-0.502969
H265	H	0.832423	-0.132294	-1.002970
H266	H	1.332423	0.367706	-0.502970
H267	H	0.848587	-0.201653	-0.924868
H268	H	1.348587	0.298347	-0.424868
H269	H	0.805833	-0.158863	-0.924858
H270	H	1.305833	0.341137	-0.424858
H271	H	0.694912	-1.052442	-0.312659
H272	H	1.194912	-0.552442	0.187341
H273	H	0.816300	-0.953325	-0.191448
H274	H	1.316300	-0.453325	0.308552
H275	H	0.556449	-0.312723	-0.312530
H276	H	1.056449	0.187277	0.187470
C277	C	0.485120	-0.351658	-0.351350
C278	C	0.985120	0.148342	0.148650
C279	C	0.449618	-0.322270	-0.322067
C280	C	0.949618	0.177730	0.177933
H281	H	0.466598	-0.374388	-0.374003
H282	H	0.966598	0.125612	0.125997
H283	H	0.506439	-0.328904	-0.371384
H284	H	1.006439	0.171096	0.128616
H285	H	0.506395	-0.371618	-0.328522
H286	H	1.006395	0.128382	0.171478
H287	H	0.428346	-0.302306	-0.344895
H288	H	0.928346	0.197694	0.155105
H289	H	0.428290	-0.345026	-0.302031
H290	H	0.928290	0.154974	0.197969
H291	H	0.694881	-0.312471	-1.052955
H292	H	1.194881	0.187529	-0.552955
C293	C	0.299835	-0.159398	-0.096790
C294	C	0.799835	0.340602	0.403210
C295	C	0.313068	-0.148186	-0.148586
C296	C	0.813068	0.351814	0.351414
H297	H	0.318364	-0.136675	-0.074136
H298	H	0.818364	0.363325	0.425864
H299	H	0.263412	-0.154606	-0.092024
H300	H	0.763412	0.345394	0.407976
H301	H	0.308762	-0.194517	-0.089080
H302	H	0.808762	0.305483	0.410920
H303	H	0.304137	-0.113068	-0.156297
H304	H	0.804137	0.386932	0.343703
H305	H	0.349499	-0.152975	-0.153354
H306	H	0.849499	0.347025	0.346646
C307	C	0.714788	-0.355604	-0.914726
C308	C	1.214788	0.144396	-0.414726
C309	C	0.685327	-0.322019	-0.946118
C310	C	1.185327	0.177981	-0.446118
H311	H	0.692077	-0.378297	-0.896193
H312	H	1.192077	0.121703	-0.396193
H313	H	0.737553	-0.375597	-0.936032
H314	H	1.237553	0.124403	-0.436032
H315	H	0.734708	-0.335694	-0.890658
H316	H	1.234708	0.164306	-0.390658
H317	H	0.665410	-0.341930	-0.970190
H318	H	1.165410	0.158070	-0.470190
H319	H	0.662552	-0.302024	-0.924811
H320	H	1.162552	0.197976	-0.424811
H321	H	0.816298	-0.191153	-1.053007
H322	H	1.316298	0.308847	-0.553007
C323	C	0.818558	-0.389502	-0.188915
C324	C	1.318558	0.110498	0.311085
C325	C	0.825642	-0.443192	-0.181874
C326	C	1.325642	0.056808	0.318126
H327	H	0.841256	-0.370967	-0.166241
H328	H	1.341256	0.129033	0.333759
H329	H	0.826184	-0.380531	-0.224046
H330	H	1.326184	0.119469	0.275954
H331	H	0.783429	-0.380596	-0.181223
H332	H	1.283429	0.119404	0.318777
H333	H	0.860771	-0.452099	-0.189570
H334	H	1.360771	0.047901	0.310430
H335	H	0.818020	-0.452167	-0.146735
H336	H	1.318020	0.047833	0.353265
C337	C	0.818885	-1.113859	-0.189076
C338	C	1.318885	-0.613859	0.310924
C339	C	0.825916	-1.060164	-0.181991
C340	C	1.325916	-0.560164	0.318009
H341	H	0.841641	-1.132377	-0.166456
H342	H	1.341641	-0.632377	0.333544
H343	H	0.783783	-1.122862	-0.181344
H344	H	1.283783	-0.622862	0.318656
H345	H	0.826473	-1.122753	-0.224233
H346	H	1.326473	-0.622753	0.275767
H347	H	0.818324	-1.051269	-0.146835
H348	H	1.318324	-0.551269	0.353165
H349	H	0.861026	-1.051158	-0.189719
H350	H	1.361026	-0.551158	0.310281
C351	C	0.855040	-0.522288	-0.152566
C352	C	1.355040	-0.022288	0.347434
C353	C	0.825692	-0.557806	-0.181887
C354	C	1.325692	-0.057806	0.318113
H355	H	0.877751	-0.540798	-0.129894
H356	H	1.377751	-0.040798	0.370106
H357	H	0.875015	-0.500964	-0.175366
H358	H	1.375015	-0.000964	0.324634
H359	H	0.832256	-0.501020	-0.132546
H360	H	1.332256	-0.001020	0.367454
H361	H	0.848476	-0.579071	-0.201909
H362	H	1.348476	-0.079071	0.298091
H363	H	0.805715	-0.579139	-0.159084
H364	H	1.305715	-0.079139	0.340916
C365	C	0.714734	-0.355687	-0.589806
C366	C	1.214734	0.144313	-0.089806
C367	C	0.685272	-0.322116	-0.558399
C368	C	1.185272	0.177884	-0.058399
H369	H	0.692023	-0.378367	-0.608322
H370	H	1.192023	0.121633	-0.108322
H371	H	0.734660	-0.335768	-0.613884
H372	H	1.234660	0.164232	-0.113884
H373	H	0.737495	-0.375698	-0.568508
H374	H	1.237495	0.124302	-0.068508
H375	H	0.662514	-0.302101	-0.579697
H376	H	1.162514	0.197899	-0.079697
H377	H	0.665337	-0.342036	-0.534318
H378	H	1.165337	0.157964	-0.034318
H379	H	0.816229	-0.191272	-0.550645
H380	H	1.316229	0.308728	-0.050645
C381	C	0.814499	-0.129999	-0.457021
C382	C	1.314499	0.370001	0.042979
C383	C	0.825751	-0.181780	-0.443818
C384	C	1.325751	0.318220	0.056182
H385	H	0.837204	-0.107312	-0.438504
H386	H	1.337204	0.392688	0.061496
H387	H	0.819291	-0.125213	-0.493446
H388	H	1.319291	0.374787	0.006554
H389	H	0.779374	-0.122352	-0.448058
H390	H	1.279374	0.377648	0.051942
H391	H	0.860876	-0.189428	-0.452785
H392	H	1.360876	0.310572	0.047215
H393	H	0.820964	-0.186569	-0.407385
H394	H	1.320964	0.313431	0.092615
H395	H	0.457387	-0.191213	-0.191436
H396	H	0.957387	0.308787	0.308564
H397	H	0.661364	-0.345949	-0.801759
H398	H	1.161364	0.154051	-0.301759
H399	H	0.694883	-0.953392	-0.312656
H400	H	1.194883	-0.453392	0.187344
H401	H	0.694738	-0.550105	-0.312613
H402	H	1.194738	-0.050105	0.187387
H403	H	-0.044951	-0.191258	-0.191502
H404	H	0.455049	0.308742	0.308498
H405	H	0.661350	-0.702225	-0.346042
H406	H	1.161350	-0.202225	0.153958
H407	H	0.849709	-0.801185	-0.158037
H408	H	1.349709	-0.301185	0.341963
H409	H	0.206227	-0.346229	-0.345967
H410	H	0.706227	0.153771	0.154033
H411	H	0.661345	-0.345963	-0.702710
H412	H	1.161345	0.154037	-0.202710
H413	H	0.661376	-0.801275	-0.346049
H414	H	1.161376	-0.301275	0.153951
H415	H	0.556454	-0.191211	-0.191422
H416	H	1.056454	0.308789	0.308578
H417	H	0.694699	-0.451039	-0.312594
H418	H	1.194699	0.048961	0.187406
H419	H	0.054103	-0.312760	-0.312609
H420	H	0.554103	0.187240	0.187391
C421	C	0.829756	-0.114692	-0.663622
C422	C	1.329756	0.385308	-0.163622
C423	C	0.859236	-0.148264	-0.695011
C424	C	1.359236	0.351736	-0.195011
H425	H	0.852455	-0.091993	-0.645113
H426	H	1.352455	0.408007	-0.145113
H427	H	0.806988	-0.094705	-0.684926
H428	H	1.306988	0.405295	-0.184926
H429	H	0.809837	-0.134612	-0.639532
H430	H	1.309837	0.365388	-0.139532
H431	H	0.879152	-0.128344	-0.719104
H432	H	1.379152	0.371656	-0.219104
H433	H	0.882012	-0.168253	-0.673705
H434	H	1.382012	0.331747	-0.173705
H435	H	-0.044963	-0.312763	-0.312619
H436	H	0.455037	0.187237	0.187381
C437	C	0.692318	-0.315091	-0.390080
C438	C	1.192318	0.184909	0.109920
C439	C	0.685256	-0.322144	-0.443769
C440	C	1.185256	0.177856	0.056231
H441	H	0.669602	-0.337775	-0.371542
H442	H	1.169602	0.162225	0.128458
H443	H	0.727435	-0.322755	-0.381144
H444	H	1.227435	0.177245	0.118856
H445	H	0.684696	-0.279958	-0.381142
H446	H	1.184696	0.220042	0.118858
H447	H	0.692882	-0.357275	-0.452707
H448	H	1.192882	0.142725	0.047293
H449	H	0.650130	-0.314483	-0.452708
H450	H	1.150130	0.185517	0.047292
H451	H	0.206233	-0.157734	-0.158106
H452	H	0.706233	0.342266	0.341894
H453	H	0.305272	-0.346225	-0.345950
H454	H	0.805272	0.153775	0.154050
