data_functionalizedCrystal
_audit_creation_method	'MofGen! by Chris Wilmer'
_symmetry_space_group_name_H-M	'P1'
_symmetry_Int_Tables_number	1
_symmetry_cell_setting	triclinic
loop_
_symmetry_equiv_pos_as_xyz
  x,y,z
_cell_length_a	13.032831
_cell_length_b	15.297327
_cell_length_c	13.033429
_cell_angle_alpha	91.279548
_cell_angle_beta	89.091437
_cell_angle_gamma	93.742008
loop_
_atom_site_label
_atom_site_type_symbol
_atom_site_fract_x
_atom_site_fract_y
_atom_site_fract_z
Zn1	Zn	1.405146	-0.419820	-0.853129
Zn2	Zn	1.905146	0.080180	-0.353129
Zn3	Zn	1.390163	-0.584810	-0.709533
Zn4	Zn	1.890163	-0.084810	-0.209533
Zn5	Zn	1.253960	-0.424431	-0.660152
Zn6	Zn	1.753960	0.075569	-0.160152
Zn7	Zn	1.204488	-0.548574	-0.853431
Zn8	Zn	1.704488	-0.048574	-0.353431
O9	O	1.313439	-0.494409	-0.769061
O10	O	1.813439	0.005591	-0.269061
O11	O	1.544136	-0.454942	-0.854620
O12	O	2.044136	0.045058	-0.354620
O13	O	1.386530	-0.580630	-0.561999
O14	O	1.886530	-0.080630	-0.061999
O15	O	1.300990	-0.302816	-0.664959
O16	O	1.800990	0.197184	-0.164959
O17	O	1.533128	-0.576159	-0.749121
O18	O	2.033128	-0.076159	-0.249121
O19	O	1.412066	-0.299429	-0.806738
O20	O	1.912066	0.200571	-0.306738
O21	O	1.286462	-0.462800	-0.525719
O22	O	1.786462	0.037200	-0.025719
O23	O	1.106420	-0.427664	-0.665251
O24	O	1.606420	0.072336	-0.165251
O25	O	1.216671	-0.514400	-0.994374
O26	O	1.716671	-0.014400	-0.494374
O27	O	1.070073	-0.518871	-0.807252
O28	O	1.570073	-0.018871	-0.307252
O29	O	1.364094	-0.419805	-0.994152
O30	O	1.864094	0.080195	-0.494152
O31	O	1.338558	-0.701006	-0.749413
O32	O	1.838558	-0.201006	-0.249413
O33	O	1.202143	-0.674384	-0.855134
O34	O	1.702143	-0.174384	-0.355134
C35	C	1.051692	-0.469836	-0.730927
C36	C	1.551692	0.030164	-0.230927
C37	C	0.939709	-0.459342	-0.714640
C38	C	1.439709	0.040658	-0.214640
C39	C	1.263381	-0.719070	-0.807691
C40	C	1.763381	-0.219070	-0.307691
C41	C	1.242055	-0.815185	-0.824264
C42	C	1.742055	-0.315185	-0.324264
C43	C	0.871817	-0.499886	-0.777561
C44	C	1.371817	0.000114	-0.277561
C45	C	0.756076	-0.489041	-0.760730
C46	C	1.256076	0.010959	-0.260730
C47	C	1.466242	-1.141437	-0.651014
C48	C	1.966242	-0.641437	-0.151014
C49	C	1.486279	-1.051132	-0.635438
C50	C	1.986279	-0.551132	-0.135438
C51	C	1.425225	-0.992141	-0.682643
C52	C	1.925225	-0.492141	-0.182643
C53	C	1.344130	-1.023463	-0.745427
C54	C	1.844130	-0.523463	-0.245427
C55	C	1.324086	-1.113777	-0.760999
C56	C	1.824086	-0.613777	-0.260999
C57	C	1.283069	-0.964481	-0.792628
C58	C	1.783069	-0.464481	-0.292628
C59	C	1.201974	-0.995804	-0.855412
C60	C	1.701974	-0.495804	-0.355412
C61	C	1.181934	-1.086109	-0.870982
C62	C	1.681934	-0.586109	-0.370982
C63	C	1.242988	-1.145100	-0.823776
C64	C	1.742988	-0.645100	-0.323776
C65	C	1.303113	-0.874168	-0.777056
C66	C	1.803113	-0.374168	-0.277056
C67	C	1.160957	-0.846508	-0.887041
C68	C	1.660957	-0.346508	-0.387041
C69	C	1.140920	-0.936813	-0.902618
C70	C	1.640920	-0.436813	-0.402618
C71	C	1.576208	-0.519078	-0.807345
C72	C	2.076208	-0.019078	-0.307345
C73	C	1.688185	-0.529591	-0.823659
C74	C	2.188185	-0.029591	-0.323659
C75	C	1.286536	-0.462546	-1.031840
C76	C	1.786536	0.037454	-0.531840
C77	C	1.275071	-0.448969	-1.143821
C78	C	1.775071	0.051031	-0.643821
C79	C	1.363718	-0.268870	-0.730306
C80	C	1.863718	0.231130	-0.230306
C81	C	1.385144	-0.172759	-0.713791
C82	C	1.885144	0.327241	-0.213791
C83	C	1.307625	-0.487195	-1.327434
C84	C	1.807625	0.012805	-0.827434
C85	C	1.319476	-0.501224	-1.211695
C86	C	1.819476	-0.001224	-0.711695
C87	C	1.340310	-0.526090	-0.507302
C88	C	1.840310	-0.026090	-0.007302
C89	C	1.352025	-0.539443	-0.395308
C90	C	1.852025	-0.039443	0.104692
H91	H	0.899380	-0.542623	-0.843894
H92	H	1.399380	-0.042623	-0.343894
F93	F	1.213920	-0.376916	-1.179851
F94	F	1.713920	0.123084	-0.679851
F95	F	1.221379	-1.241223	-0.839983
F96	F	1.721379	-0.741223	-0.339983
F97	F	1.095621	-1.119442	-0.937797
F98	F	1.595621	-0.619442	-0.437797
F99	F	0.720062	-0.433166	-0.674029
F100	F	1.220062	0.066834	-0.174029
F101	F	0.724198	-0.585448	-0.910376
F102	F	1.224198	-0.085448	-0.410376
H103	H	0.912147	-0.416597	-0.648314
H104	H	1.412147	0.083403	-0.148314
H105	H	1.074892	-0.962329	-0.953737
H106	H	1.574892	-0.462329	-0.453737
F107	F	1.531207	-1.204222	-0.600780
F108	F	2.031207	-0.704222	-0.100780
F109	F	1.389418	-0.840842	-0.710238
F110	F	1.889418	-0.340842	-0.210238
H111	H	1.441543	-0.918612	-0.669956
H112	H	1.941543	-0.418612	-0.169956
F113	F	1.572589	-1.017802	-0.568629
F114	F	2.072589	-0.517802	-0.068629
H115	H	1.111240	-0.798477	-0.925478
H116	H	1.611240	-0.298477	-0.425478
F117	F	1.246478	-0.415147	-1.363471
F118	F	1.746478	0.084853	-0.863471
F119	F	1.380639	-0.573268	-1.175663
F120	F	1.880639	-0.073268	-0.675663
H121	H	1.398814	-0.594557	-1.367732
H122	H	1.898814	-0.094557	-0.867732
