data_functionalizedCrystal
_audit_creation_method	'MofGen! by Chris Wilmer'
_symmetry_space_group_name_H-M	'P1'
_symmetry_Int_Tables_number	1
_symmetry_cell_setting	triclinic
loop_
_symmetry_equiv_pos_as_xyz
  x,y,z
_cell_length_a	19.188930
_cell_length_b	17.666332
_cell_length_c	19.188930
_cell_angle_alpha	89.988397
_cell_angle_beta	96.855221
_cell_angle_gamma	90.023234
loop_
_atom_site_label
_atom_site_type_symbol
_atom_site_fract_x
_atom_site_fract_y
_atom_site_fract_z
O1	O	0.926150	0.063200	-0.087169
O2	O	0.722838	0.063149	-0.098903
O3	O	0.830361	0.063161	0.008620
O4	O	0.818627	0.063188	-0.194692
O5	O	0.830342	-0.062735	0.008625
O6	O	0.722820	-0.062747	-0.098897
O7	O	0.926131	-0.062697	-0.087163
Cu8	Cu	0.824473	-0.074217	-0.093030
Cu9	Cu	0.824496	0.074670	-0.093036
O10	O	0.818608	-0.062709	-0.194686
C11	C	0.696818	0.000194	-0.098520
C12	C	0.619313	0.000174	-0.097380
C13	C	0.574389	0.000194	-0.160470
C14	C	0.501566	0.000203	-0.159399
C15	C	0.473669	0.000206	-0.095233
C16	C	0.518603	0.000181	-0.032133
C17	C	0.591425	0.000166	-0.033207
N18	N	0.365695	0.043078	-0.046188
N19	N	0.296517	0.043095	-0.045172
C20	C	0.254260	0.000252	-0.091994
N21	N	0.283795	-0.042599	-0.139881
N22	N	0.352979	-0.042612	-0.140899
C23	C	0.394707	0.000222	-0.094062
C24	C	0.130372	0.000280	-0.153928
C25	C	0.057547	0.000283	-0.152853
C26	C	0.074586	0.000270	-0.025586
C27	C	0.147409	0.000258	-0.026662
C28	C	0.175298	0.000267	-0.090835
N29	N	0.824463	-0.178937	-0.093025
C30	C	0.872089	-0.218541	-0.045437
C31	C	0.872093	-0.297789	-0.045433
C32	C	0.824478	-0.337429	-0.093030
C33	C	0.776842	-0.297815	-0.140621
C34	C	0.776835	-0.218569	-0.140619
N35	N	0.815401	-0.461841	-0.154837
N36	N	0.815413	-0.537121	-0.154837
C37	C	0.824496	-0.576193	-0.093040
N38	N	0.833582	-0.537140	-0.031239
N39	N	0.833574	-0.461853	-0.031240
C40	C	0.824480	-0.423358	-0.093038
C41	C	0.872130	-0.701727	-0.045444
C42	C	0.872129	-0.780976	-0.045440
C43	C	0.776881	-0.781000	-0.140634
C44	C	0.776878	-0.701753	-0.140632
C45	C	0.824506	-0.662121	-0.093038
C46	C	0.952151	0.000260	-0.087546
C47	C	1.029656	0.000285	-0.088687
C48	C	0.829972	0.000211	0.034634
C49	C	0.828831	0.000204	0.112138
N50	N	0.824512	0.179390	-0.093036
C51	C	0.818997	0.000244	-0.220700
C52	C	0.820138	0.000255	-0.298204
C53	C	0.891922	0.000216	0.157062
C54	C	0.890850	0.000228	0.229886
C55	C	0.826684	0.000212	0.257782
C56	C	0.763585	0.000205	0.212849
C57	C	0.764658	0.000200	0.140026
N58	N	0.777630	-0.042645	0.365789
N59	N	0.776615	-0.042642	0.434968
C60	C	0.823446	0.000227	0.477191
N61	N	0.871341	0.043084	0.447624
N62	N	0.872359	0.043079	0.378439
C63	C	0.825513	0.000218	0.336745
C64	C	0.885379	0.000253	0.601079
C65	C	0.884305	0.000270	0.673904
C66	C	0.757038	0.000239	0.656865
C67	C	0.758114	0.000230	0.584042
C68	C	0.822287	0.000233	0.556154
H69	H	0.153080	0.000276	-0.206181
C70	C	0.682690	-0.289881	-0.234707
C71	C	0.724499	-0.341383	-0.192939
H72	H	0.650370	-0.316780	-0.267001
H73	H	0.711668	-0.258952	-0.259752
H74	H	0.657669	-0.258993	-0.205694
H75	H	0.749524	-0.372269	-0.221951
H76	H	0.695518	-0.372326	-0.167892
H77	H	0.738051	-0.186322	-0.179371
C78	C	0.655894	-0.805449	-0.181932
C79	C	0.724538	-0.824564	-0.192952
H80	H	0.623579	-0.832350	-0.214228
H81	H	0.649080	-0.752591	-0.188745
H82	H	0.648468	-0.818456	-0.135350
H83	H	0.731966	-0.811551	-0.239533
H84	H	0.731355	-0.877434	-0.186145
H85	H	0.020970	0.000295	-0.204232
C86	C	0.649979	0.064914	0.547090
C87	C	0.688760	0.000205	0.534659
H88	H	0.607159	0.064896	0.516606
H89	H	0.676305	0.108814	0.538640
H90	H	0.640164	0.064907	0.594455
H91	H	0.698580	0.000215	0.487295
H92	H	0.662429	-0.043707	0.543103
C93	C	0.914489	-0.580234	-0.003250
C94	C	0.924525	-0.658156	0.006824
H95	H	0.946854	-0.553339	0.029001
H96	H	0.867944	-0.567247	0.004270
H97	H	0.921877	-0.567272	-0.049853
H98	H	0.917132	-0.671119	0.053426
H99	H	0.971082	-0.671149	-0.000691
C100	C	0.966290	-0.772986	0.048639
C101	C	0.924487	-0.824512	0.006870
H102	H	0.998617	-0.799866	0.080929
H103	H	0.937309	-0.742102	0.073688
H104	H	0.991303	-0.742055	0.019625
H105	H	0.899470	-0.855440	0.035884
H106	H	0.953472	-0.855410	-0.018180
H107	H	0.910869	-0.186275	-0.006681
C108	C	0.654767	-0.064536	0.220757
C109	C	0.693050	0.000188	0.243507
H110	H	0.611219	-0.064539	0.239680
H111	H	0.680726	-0.108426	0.236204
H112	H	0.646383	-0.064531	0.170956
H113	H	0.701439	0.000180	0.293308
H114	H	0.667086	0.044089	0.228063
H115	H	0.464982	0.000217	-0.210776
H116	H	0.713281	0.000190	0.103448
C117	C	0.628402	0.064870	0.074931
C118	C	0.640812	0.000152	0.036147
H119	H	0.658896	0.064864	0.117745
H120	H	0.581047	0.064870	0.084754
H121	H	0.636860	0.108769	0.048599
H122	H	0.632349	-0.043747	0.062477
H123	H	0.688179	0.000145	0.026326
C124	C	0.735512	-0.677346	-0.261606
C125	C	0.724533	-0.658215	-0.192952
H126	H	0.703196	-0.650464	-0.293906
H127	H	0.728699	-0.730208	-0.268413
H128	H	0.782085	-0.664327	-0.269063
H129	H	0.677961	-0.671239	-0.185493
H130	H	0.731340	-0.605341	-0.186142
H131	H	0.495885	0.000194	0.020111
H132	H	0.942228	0.000241	0.266470
C133	C	1.011068	0.000303	0.625233
C134	C	0.955915	0.000275	0.570419
H135	H	1.054613	0.000324	0.606304
H136	H	1.008002	-0.043597	0.653290
H137	H	1.007998	0.044209	0.653273
H138	H	0.958983	-0.043634	0.542382
H139	H	0.958983	0.044180	0.542349
C140	C	0.950081	0.000225	0.053001
C141	C	0.962459	0.000231	0.126407
H142	H	0.993629	0.000231	0.034076
H143	H	0.924124	0.044118	0.037563
H144	H	0.924106	-0.043688	0.037580
H145	H	0.988430	0.044147	0.141828
H146	H	0.988428	-0.043667	0.141851
C147	C	0.156934	0.000255	0.099239
C148	C	0.196795	0.000248	0.042690
H149	H	0.187424	0.000252	0.142055
H150	H	0.128155	-0.043639	0.097015
H151	H	0.128197	0.044167	0.097002
H152	H	0.225528	-0.043667	0.044924
H153	H	0.225586	0.044147	0.044915
C154	C	0.966245	-0.289813	0.048658
C155	C	0.924446	-0.341334	0.006881
H156	H	0.998566	-0.316696	0.080952
H157	H	0.937261	-0.258927	0.073702
H158	H	0.991266	-0.258882	0.019651
H159	H	0.899421	-0.372262	0.035888
H160	H	0.953434	-0.372233	-0.018165
H161	H	0.935683	0.000284	0.710481
H162	H	0.051874	0.000319	0.026659
C163	C	0.550227	0.000207	-0.286159
C164	C	0.605043	0.000191	-0.231008
H165	H	0.569154	0.000199	-0.329705
H166	H	0.522207	0.044115	-0.283096
H167	H	0.522151	-0.043692	-0.283084
H168	H	0.633116	0.044093	-0.234080
H169	H	0.633076	-0.043721	-0.234072
C170	C	0.648221	-0.064503	0.664775
C171	C	0.686503	0.000224	0.687520
H172	H	0.604674	-0.064506	0.683699
H173	H	0.674182	-0.108391	0.680224
H174	H	0.639836	-0.064502	0.614974
H175	H	0.694893	0.000220	0.737320
H176	H	0.660537	0.044123	0.672074
