data_functionalizedCrystal
_audit_creation_method	'MofGen! by Chris Wilmer'
_symmetry_space_group_name_H-M	'P1'
_symmetry_Int_Tables_number	1
_symmetry_cell_setting	triclinic
loop_
_symmetry_equiv_pos_as_xyz
  x,y,z
_cell_length_a	15.944493
_cell_length_b	18.266242
_cell_length_c	15.944493
_cell_angle_alpha	90.000472
_cell_angle_beta	83.475044
_cell_angle_gamma	90.008470
loop_
_atom_site_label
_atom_site_type_symbol
_atom_site_fract_x
_atom_site_fract_y
_atom_site_fract_z
O1	O	1.114537	0.060862	0.108104
O2	O	0.869978	0.060864	0.121512
O3	O	0.998962	0.060869	-0.007471
O4	O	0.985554	0.060857	0.237088
O5	O	0.998940	-0.060893	-0.007478
O6	O	0.869956	-0.060898	0.121505
O7	O	1.114515	-0.060900	0.108098
Zn8	Zn	0.992232	-0.080232	0.114800
Zn9	Zn	0.992261	0.080195	0.114809
O10	O	0.985532	-0.060905	0.237081
C11	C	0.838673	-0.000017	0.120961
C12	C	0.745424	-0.000015	0.119318
N13	N	0.992219	-0.189718	0.114794
C14	C	0.509649	-0.000018	0.195240
C15	C	0.459088	-0.060055	0.154295
C16	C	0.574704	-0.000016	0.116273
C17	C	0.459114	0.059993	0.154283
C18	C	0.409795	-0.000014	0.113339
C19	C	0.525372	-0.060102	0.075350
C20	C	0.525401	0.060000	0.075349
C21	C	0.474873	-0.000051	0.034346
C22	C	0.669704	-0.000018	0.117966
C23	C	0.314798	-0.000018	0.111640
C24	C	1.049351	-0.228025	0.057708
C25	C	1.049357	-0.304670	0.057704
C26	C	0.992238	-0.343005	0.114801
C27	C	0.935094	-0.304689	0.171891
C28	C	0.935085	-0.228046	0.171887
N29	N	0.981535	-0.463341	0.189128
N30	N	0.981549	-0.536149	0.189129
C31	C	0.992261	-0.573928	0.114813
N32	N	1.002976	-0.536148	0.040494
N33	N	1.002966	-0.463333	0.040494
C34	C	0.992241	-0.426112	0.114810
C35	C	1.049403	-0.695342	0.057718
C36	C	1.049402	-0.771988	0.057713
C37	C	0.935144	-0.772006	0.171907
C38	C	0.935140	-0.695361	0.171905
C39	C	0.992274	-0.657033	0.114811
C40	C	1.145821	-0.000018	0.108649
C41	C	1.239069	-0.000015	0.110292
C42	C	0.998403	-0.000009	-0.038769
C43	C	0.996760	0.000000	-0.132018
N44	N	0.992281	0.189682	0.114809
C45	C	1.072682	-0.000014	-0.367793
C46	C	1.031751	0.060021	-0.418350
C47	C	0.993716	-0.000009	-0.302738
C48	C	1.031711	-0.060027	-0.418332
C49	C	0.990781	-0.000021	-0.467647
C50	C	0.952806	0.060076	-0.352066
C51	C	0.952777	-0.060026	-0.352045
C52	C	0.911788	0.000024	-0.402569
C53	C	0.995408	-0.000001	-0.207739
C54	C	0.989082	-0.000023	-0.562644
C55	C	0.986091	-0.000026	0.268379
C56	C	0.987734	-0.000030	0.361627
H57	H	0.525258	-0.000078	0.263261
F58	F	0.563269	0.126348	0.031803
H59	H	0.554197	-0.110908	0.042018
F60	F	1.075307	-0.126364	-0.456158
H61	H	0.919485	0.110885	-0.323237
F62	F	0.874336	-0.654589	0.232667
F63	F	0.421242	-0.126399	0.197879
F64	F	1.110168	-0.345446	-0.003057
H65	H	0.459422	-0.000082	-0.033727
H66	H	1.065109	0.110776	-0.447300
H67	H	0.919448	-0.110783	-0.323080
F68	F	1.110209	-0.812758	-0.003053
F69	F	0.874348	-0.812801	0.232668
F70	F	0.874274	-0.187275	0.232649
H71	H	1.140702	0.000045	-0.352179
H72	H	0.430178	0.110742	0.187650
F73	F	1.110206	-0.654550	-0.003049
H74	H	1.095871	-0.196821	0.011217
H75	H	0.888586	-0.335906	0.218378
F76	F	0.822813	0.000066	-0.422768
