data_functionalizedCrystal
_audit_creation_method	'MofGen! by Chris Wilmer'
_symmetry_space_group_name_H-M	'P1'
_symmetry_Int_Tables_number	1
_symmetry_cell_setting	triclinic
loop_
_symmetry_equiv_pos_as_xyz
  x,y,z
_cell_length_a	11.169417
_cell_length_b	16.625545
_cell_length_c	11.169417
_cell_angle_alpha	90.011410
_cell_angle_beta	90.000551
_cell_angle_gamma	90.026807
loop_
_atom_site_label
_atom_site_type_symbol
_atom_site_fract_x
_atom_site_fract_y
_atom_site_fract_z
Zn1	Zn	1.834611	-0.321106	0.678500
Zn2	Zn	2.167944	0.012227	1.011834
Zn3	Zn	2.501277	0.345560	1.345167
Zn4	Zn	1.834513	-0.455910	0.477804
Zn5	Zn	2.167847	-0.122577	0.811138
Zn6	Zn	2.501180	0.210757	1.144471
Zn7	Zn	1.633963	-0.321098	0.477836
Zn8	Zn	1.967296	0.012235	0.811169
Zn9	Zn	2.300630	0.345569	1.144503
Zn10	Zn	1.633851	-0.455903	0.678450
Zn11	Zn	1.967184	-0.122570	1.011783
Zn12	Zn	2.300517	0.210763	1.345117
O13	O	1.734234	-0.388504	0.578148
O14	O	2.067568	-0.055171	0.911481
O15	O	2.400901	0.278162	1.244814
O16	O	2.002547	-0.338994	0.651885
O17	O	2.335881	-0.005661	0.985219
O18	O	2.669214	0.327672	1.318552
O19	O	1.807916	-0.438026	0.309859
O20	O	2.141249	-0.104693	0.643192
O21	O	2.474583	0.228640	0.976525
O22	O	1.660667	-0.208267	0.504489
O23	O	1.994000	0.125067	0.837822
O24	O	2.327334	0.458400	1.171156
O25	O	2.002476	-0.438034	0.504435
O26	O	2.335809	-0.104701	0.837768
O27	O	2.669143	0.228632	1.171101
O28	O	1.808082	-0.208273	0.651916
O29	O	2.141415	0.125061	0.985250
O30	O	2.474749	0.458394	1.318583
O31	O	1.660573	-0.338981	0.309882
O32	O	1.993906	-0.005647	0.643216
O33	O	2.327239	0.327686	0.976549
O34	O	1.465998	-0.338974	0.504440
O35	O	1.799332	-0.005641	0.837774
O36	O	2.132665	0.327693	1.171107
O37	O	1.660476	-0.438023	0.846406
O38	O	1.993809	-0.104690	1.179740
O39	O	2.327143	0.228644	1.513073
O40	O	1.465916	-0.438015	0.651830
O41	O	1.799249	-0.104682	0.985164
O42	O	2.132583	0.228652	1.318497
O43	O	1.807973	-0.338988	0.846443
O44	O	2.141307	-0.005655	1.179777
O45	O	2.474640	0.327679	1.513110
O46	O	1.807807	-0.568742	0.504386
O47	O	2.141141	-0.235408	0.837719
O48	O	2.474474	0.097925	1.171053
O49	O	1.660381	-0.568737	0.651799
O50	O	1.993715	-0.235403	0.985133
O51	O	2.327048	0.097930	1.318466
C52	C	1.422410	-0.388494	0.578134
C53	C	1.755743	-0.055160	0.911467
C54	C	2.089076	0.278173	1.244801
C55	C	1.289010	-0.388508	0.578157
C56	C	1.622343	-0.055175	0.911490
C57	C	1.955676	0.278158	1.244823
C58	C	1.734104	-0.597995	0.578110
C59	C	2.067437	-0.264662	0.911443
C60	C	2.400771	0.068671	1.244777
C61	C	1.734158	-0.687616	0.578134
C62	C	2.067491	-0.354283	0.911467
C63	C	2.400825	-0.020950	1.244801
C64	C	1.734205	-0.760399	0.578158
C65	C	2.067538	-0.427066	0.911491
C66	C	2.400871	-0.093732	1.244824
C67	C	1.734275	-0.851707	0.578184
C68	C	2.067608	-0.518374	0.911518
C69	C	2.400941	-0.185041	1.244851
C70	C	1.734337	-0.924484	0.578199
C71	C	2.067670	-0.591150	0.911533
C72	C	2.401004	-0.257817	1.244866
C73	C	1.734405	-1.015798	0.578224
C74	C	2.067739	-0.682465	0.911557
C75	C	2.401072	-0.349131	1.244891
C76	C	2.047277	-0.388516	0.578162
C77	C	2.380610	-0.055183	0.911496
C78	C	2.713943	0.278151	1.244829
C79	C	2.180677	-0.388521	0.578168
C80	C	2.514010	-0.055188	0.911502
C81	C	2.847343	0.278146	1.244835
C82	C	1.734223	-0.388506	0.891190
C83	C	2.067556	-0.055172	1.224523
C84	C	2.400890	0.278161	1.557857
C85	C	1.734218	-0.388506	1.024590
C86	C	2.067551	-0.055173	1.357923
C87	C	2.400885	0.278160	1.691257
C88	C	1.734398	-0.178196	0.578212
C89	C	2.067731	0.155138	0.911545
C90	C	2.401065	0.488471	1.244879
C91	C	1.734468	-0.088574	0.578239
C92	C	2.067801	0.244759	0.911573
C93	C	2.401134	0.578092	1.244906
C94	C	1.734232	-0.388518	1.266323
C95	C	2.067565	-0.055185	1.599656
C96	C	2.400898	0.278149	1.932990
C97	C	1.734221	-0.388507	1.132923
C98	C	2.067555	-0.055174	1.466256
C99	C	2.400888	0.278159	1.799590
