data_functionalizedCrystal
_audit_creation_method	'MofGen! by Chris Wilmer'
_symmetry_space_group_name_H-M	'P1'
_symmetry_Int_Tables_number	1
_symmetry_cell_setting	triclinic
loop_
_symmetry_equiv_pos_as_xyz
  x,y,z
_cell_length_a	10.967819
_cell_length_b	10.489716
_cell_length_c	10.065875
_cell_angle_alpha	98.882384
_cell_angle_beta	69.228723
_cell_angle_gamma	84.622748
loop_
_atom_site_label
_atom_site_type_symbol
_atom_site_fract_x
_atom_site_fract_y
_atom_site_fract_z
O1	O	1.740669	0.093298	-0.522881
O2	O	1.363372	0.124950	-0.434143
O3	O	1.560623	-0.076813	-0.480540
O4	O	1.543418	0.295061	-0.476484
O5	O	1.523012	-0.038190	-0.244704
O6	O	1.325761	0.163574	-0.198308
O7	O	1.703057	0.131921	-0.287045
Zn8	Zn	1.508437	0.153880	-0.205232
Zn9	Zn	1.557992	0.102992	-0.515956
O10	O	1.505806	0.333685	-0.240648
C11	C	1.540526	-0.104984	-0.362323
C12	C	1.536660	-0.246465	-0.361426
C13	C	1.296254	0.144876	-0.304863
C14	C	1.152298	0.146690	-0.271006
C15	C	0.958826	0.129375	-0.343116
C16	C	1.107612	0.127492	-0.378100
C17	C	1.657618	-0.348869	-0.389862
C18	C	1.612244	-0.442772	-0.491105
C19	C	1.575134	-0.404655	-0.258582
C20	C	1.491352	-0.338521	-0.462776
C21	C	1.454243	-0.300382	-0.230154
C22	C	1.408785	-0.394237	-0.331404
C23	C	1.770176	0.111995	-0.416328
C24	C	1.914134	0.110179	-0.450195
C25	C	1.525905	0.361855	-0.358869
C26	C	1.529771	0.503335	-0.359775
N27	N	1.474627	0.188608	0.006826
N28	N	1.591813	0.068253	-0.728017
C29	C	1.546220	0.115067	0.057765
C30	C	1.520209	0.141805	0.221050
H31	H	1.179495	0.109670	-0.495682
O32	O	1.698511	-0.041385	0.169643
H33	H	1.795310	-0.023794	0.174206
O34	O	0.863861	0.153222	-0.187244
H35	H	0.869488	0.250230	-0.129468
O36	O	1.057070	0.170530	-0.115242
H37	H	0.955138	0.168376	-0.112199
O38	O	1.622021	-0.443526	-0.144264
H39	H	1.541711	-0.480110	-0.063843
O40	O	1.269313	-0.421124	-0.298666
H41	H	1.266813	-0.493569	-0.390152
H42	H	1.394071	0.271360	0.084100
O43	O	1.797007	-0.321646	-0.422803
H44	H	1.832379	-0.349565	-0.339145
H45	H	0.986021	0.092359	-0.567768
O46	O	1.700639	-0.524386	-0.637215
H47	H	1.803810	-0.506763	-0.661250
O48	O	1.652886	0.005416	-0.044588
H49	H	1.727294	0.045994	-0.127219
O50	O	1.413511	0.251450	0.323374
H51	H	1.339108	0.210865	0.406001
O52	O	1.444557	-0.299888	-0.577254
H53	H	1.447888	-0.194436	-0.577092
H54	H	1.387547	-0.238768	-0.119847
