data_functionalizedCrystal
_audit_creation_method	'MofGen! by Chris Wilmer'
_symmetry_space_group_name_H-M	'P1'
_symmetry_Int_Tables_number	1
_symmetry_cell_setting	triclinic
loop_
_symmetry_equiv_pos_as_xyz
  x,y,z
_cell_length_a	19.077236
_cell_length_b	19.076808
_cell_length_c	17.077396
_cell_angle_alpha	87.670636
_cell_angle_beta	87.678825
_cell_angle_gamma	94.519737
loop_
_atom_site_label
_atom_site_type_symbol
_atom_site_fract_x
_atom_site_fract_y
_atom_site_fract_z
Zn1	Zn	1.066467	-0.237459	-0.481060
Zn2	Zn	1.061642	-0.355362	-0.344287
Zn3	Zn	0.948576	-0.242210	-0.344303
Zn4	Zn	0.943808	-0.360045	-0.470012
O5	O	1.005123	-0.298769	-0.409915
O6	O	1.164479	-0.249151	-0.467534
O7	O	1.046620	-0.340381	-0.234440
O8	O	0.968229	-0.142922	-0.367074
O9	O	1.160934	-0.335775	-0.367048
O10	O	1.054844	-0.139431	-0.467548
O11	O	0.963550	-0.257248	-0.234451
O12	O	0.849291	-0.261788	-0.356361
O13	O	0.960103	-0.343755	-0.581327
O14	O	0.845788	-0.348361	-0.448719
O15	O	1.050220	-0.253691	-0.589443
O16	O	1.041996	-0.454641	-0.356335
O17	O	0.955424	-0.458081	-0.448704
C18	C	0.821961	-0.306099	-0.401343
C19	C	0.743602	-0.309252	-0.397694
C20	C	0.708633	-0.265704	-0.448370
C21	C	0.635006	-0.268663	-0.444935
C22	C	0.596351	-0.315174	-0.390826
C23	C	0.631326	-0.358723	-0.340144
C24	C	0.704950	-0.355760	-0.343577
C25	C	0.375959	-0.328861	-0.374939
C26	C	0.302329	-0.331822	-0.371512
C27	C	0.306015	-0.241761	-0.476302
C28	C	0.379641	-0.238805	-0.479733
C29	C	0.414609	-0.282352	-0.429048
N30	N	0.521093	-0.318201	-0.387315
N31	N	0.489865	-0.279321	-0.432557
C32	C	0.997688	-0.481941	-0.401337
C33	C	0.994572	-0.560300	-0.397697
C34	C	1.038170	-0.595237	-0.448337
C35	C	1.035239	-0.668864	-0.444918
C36	C	0.988713	-0.707553	-0.390854
C37	C	0.945111	-0.672611	-0.340211
C38	C	0.948038	-0.598986	-0.343635
C39	C	0.975121	-0.927951	-0.375004
C40	C	0.972198	-1.001582	-0.371582
C41	C	1.062325	-0.997830	-0.476291
C42	C	1.065252	-0.924203	-0.479706
C43	C	1.021647	-0.889267	-0.429066
N44	N	0.985718	-0.782811	-0.387355
N45	N	1.024640	-0.814010	-0.432569
C46	C	1.189001	-0.291411	-0.418521
C47	C	1.267359	-0.288275	-0.422189
C48	C	1.005168	-0.298715	-0.614664
C49	C	1.005187	-0.298692	-0.701916
C50	C	1.012607	-0.114881	-0.418545
C51	C	1.015796	-0.036518	-0.422223
C52	C	1.052113	-0.251793	-0.747134
C53	C	1.052123	-0.251769	-0.829116
C54	C	1.005209	-0.298649	-0.865878
C55	C	0.958278	-0.345551	-0.820654
C56	C	0.958266	-0.345571	-0.738674
C57	C	0.958308	-0.345507	-0.991528
C58	C	0.958321	-0.345488	-1.073514
C59	C	1.052165	-0.251705	-1.081970
C60	C	1.052153	-0.251725	-0.999989
C61	C	1.005222	-0.298628	-0.954771
C62	C	1.005121	-0.298770	-0.205967
C63	C	1.005247	-0.298589	-0.118732
H64	H	0.599847	-0.396590	-0.296084
F65	F	0.742167	-0.402110	-0.289640
F66	F	1.102113	-0.201788	-1.130095
H67	H	1.076059	-0.563741	-0.492359
F68	F	0.908385	-0.395378	-1.112637
H69	H	0.920082	-0.383690	-0.954713
H70	H	1.090318	-0.213619	-0.717208
F71	F	0.895588	-0.713789	-0.282678
H72	H	1.070746	-0.697306	-0.486149
F73	F	1.114770	-0.883033	-0.537250
H74	H	0.740101	-0.227832	-0.492434
F75	F	1.102087	-0.201834	-0.960866
H76	H	0.404421	-0.364320	-0.333669
H77	H	1.090336	-0.213580	-0.865929
F78	F	0.908319	-0.395486	-0.690549
H79	H	0.277536	-0.206307	-0.517566
F80	F	1.108728	-1.035016	-0.530183
F81	F	0.922679	-1.042756	-0.314034
H82	H	0.270857	-0.369700	-0.327450
H83	H	0.606538	-0.233204	-0.486202
H84	H	0.939618	-0.899512	-0.333769
H85	H	0.411109	-0.200934	-0.523797
F86	F	0.901635	-0.561804	-0.289737
F87	F	0.908346	-0.395441	-0.859782
