data_functionalizedCrystal
_audit_creation_method	'MofGen! by Chris Wilmer'
_symmetry_space_group_name_H-M	'P1'
_symmetry_Int_Tables_number	1
_symmetry_cell_setting	triclinic
loop_
_symmetry_equiv_pos_as_xyz
  x,y,z
_cell_length_a	21.395364
_cell_length_b	16.625546
_cell_length_c	21.395355
_cell_angle_alpha	90.018476
_cell_angle_beta	90.024552
_cell_angle_gamma	90.037419
loop_
_atom_site_label
_atom_site_type_symbol
_atom_site_fract_x
_atom_site_fract_y
_atom_site_fract_z
Zn1	Zn	0.957895	-0.320773	0.354262
Zn2	Zn	0.957813	-0.455588	0.249484
Zn3	Zn	0.853110	-0.320809	0.249498
Zn4	Zn	0.853094	-0.455603	0.354224
O5	O	0.905478	-0.388193	0.301867
O6	O	1.045562	-0.338636	0.340372
O7	O	0.943896	-0.437718	0.161808
O8	O	0.867051	-0.207972	0.263417
O9	O	1.045501	-0.437684	0.263393
O10	O	0.944036	-0.207946	0.340386
O11	O	0.866971	-0.338696	0.161819
O12	O	0.765430	-0.338710	0.263381
O13	O	0.867024	-0.437709	0.441907
O14	O	0.765418	-0.437743	0.340323
O15	O	0.944021	-0.338650	0.441935
O16	O	0.943880	-0.568423	0.263357
O17	O	0.866944	-0.568433	0.340309
C18	C	0.742690	-0.388233	0.301850
C19	C	0.673049	-0.388269	0.301857
C20	C	0.640390	-0.336779	0.342002
C21	C	0.574954	-0.336757	0.342005
C22	C	0.542181	-0.388240	0.301868
C23	C	0.574848	-0.439734	0.261715
C24	C	0.640282	-0.439748	0.261710
C25	C	0.438465	-0.460853	0.296831
C26	C	0.373032	-0.460840	0.296841
C27	C	0.340360	-0.388196	0.301882
C28	C	0.373130	-0.315562	0.306927
C29	C	0.438564	-0.315577	0.306921
C30	C	0.471228	-0.388230	0.301870
C31	C	0.236748	-0.336678	0.342032
C32	C	0.171312	-0.336656	0.342030
C33	C	0.171206	-0.439639	0.261744
C34	C	0.236642	-0.439655	0.261743
C35	C	0.269409	-0.388175	0.301890
C36	C	0.905419	-0.597684	0.301841
C37	C	0.905451	-0.687305	0.301851
C38	C	0.905560	-1.015481	0.301916
C39	C	0.905528	-0.924172	0.301900
C40	C	0.905505	-0.851396	0.301883
C41	C	0.905473	-0.760082	0.301867
C42	C	1.068901	-0.388155	0.301885
C43	C	1.138543	-0.388138	0.301893
C44	C	0.905530	-0.388177	0.465291
C45	C	0.905552	-0.388170	0.534932
C46	C	0.905555	-0.177884	0.301907
C47	C	0.905587	-0.088263	0.301924
C48	C	0.905462	-0.388151	0.139080
C49	C	0.905561	-0.387931	0.069439
C50	C	0.945643	-0.336588	0.567660
C51	C	0.945642	-0.336553	0.633096
C52	C	0.905557	-0.388115	0.665800
C53	C	0.865459	-0.439701	0.633064
C54	C	0.865456	-0.439728	0.567630
C55	C	0.900589	-0.460717	0.769466
C56	C	0.900596	-0.460691	0.834899
C57	C	0.905561	-0.388030	0.867621
C58	C	0.910532	-0.315392	0.834902
C59	C	0.910530	-0.315420	0.769468
C60	C	0.905555	-0.388091	0.736753
C61	C	0.945653	-0.336406	0.971302
C62	C	0.945647	-0.336370	1.036739
C63	C	0.865468	-0.439524	1.036706
C64	C	0.865470	-0.439553	0.971270
C65	C	0.905565	-0.387995	0.938572
H66	H	0.667065	-0.294860	0.374693
H67	H	0.263429	-0.294756	0.374719
N68	N	0.471846	-0.535053	0.291678
N69	N	0.508332	-0.546269	0.246906
H70	H	0.531909	-0.598670	0.243266
N71	N	0.339756	-0.241359	0.312084
N72	N	0.281333	-0.241353	0.312087
H73	H	0.257760	-0.188950	0.315732
N74	N	0.137959	-0.284039	0.383034
N75	N	0.167226	-0.238077	0.418869
H76	H	0.143670	-0.200912	0.447827
H77	H	0.914576	-0.256224	0.861543
N78	N	0.137728	-0.492214	0.220742
N79	N	0.079305	-0.492190	0.220747
H80	H	0.055657	-0.529318	0.191785
N81	N	0.824513	-0.492423	0.534186
N82	N	0.824519	-0.492443	0.475763
H83	H	0.795603	-0.529659	0.452140
H84	H	0.548358	-0.294824	0.374695
N85	N	0.824525	-0.492209	1.070095
N86	N	0.788738	-0.538271	1.040861
H87	H	0.759820	-0.575482	1.064444
H88	H	0.978297	-0.294420	0.944678
H89	H	0.832827	-0.481562	0.944623
N90	N	0.895477	-0.534887	0.868307
N91	N	0.891005	-0.599754	0.839086
H92	H	0.887372	-0.652155	0.862679
N93	N	0.269996	-0.492258	0.220732
N94	N	0.240730	-0.538220	0.184897
H95	H	0.264286	-0.575372	0.155929
H96	H	0.548159	-0.481651	0.229036
H97	H	0.896379	-0.519872	0.742829
N98	N	0.339571	-0.535037	0.291697
N99	N	0.368747	-0.599892	0.287189
H100	H	0.345118	-0.652297	0.283557
H101	H	0.465242	-0.256436	0.311026
N102	N	0.824507	-0.492373	0.666458
N103	N	0.788711	-0.538423	0.637225
H104	H	0.759783	-0.575620	0.660808
H105	H	0.666873	-0.481679	0.229018
H106	H	0.978293	-0.294361	1.063385
H107	H	0.978291	-0.294604	0.541042
H108	H	0.914576	-0.256276	0.742831
H109	H	0.978287	-0.294545	0.659748
