data_functionalizedCrystal
_audit_creation_method	'MofGen! by Chris Wilmer'
_symmetry_space_group_name_H-M	'P1'
_symmetry_Int_Tables_number	1
_symmetry_cell_setting	triclinic
loop_
_symmetry_equiv_pos_as_xyz
  x,y,z
_cell_length_a	16.120484
_cell_length_b	17.640112
_cell_length_c	17.640968
_cell_angle_alpha	92.139080
_cell_angle_beta	82.192558
_cell_angle_gamma	103.499326
loop_
_atom_site_label
_atom_site_type_symbol
_atom_site_fract_x
_atom_site_fract_y
_atom_site_fract_z
Zn1	Zn	-0.023860	1.246898	-0.196404
Zn2	Zn	0.476140	1.746898	0.303596
Zn3	Zn	-0.195187	1.214806	-0.078925
Zn4	Zn	0.304813	1.714806	0.421075
Zn5	Zn	-0.077878	1.092236	-0.098046
Zn6	Zn	0.422122	1.592236	0.401954
Zn7	Zn	-0.184256	1.113950	-0.230901
Zn8	Zn	0.315744	1.613950	0.269099
O9	O	-0.120295	1.166972	-0.151069
O10	O	0.379705	1.666972	0.348931
O11	O	-0.028555	1.349575	-0.158380
O12	O	0.471445	1.849575	0.341620
O13	O	-0.206807	1.176029	0.023304
O14	O	0.293193	1.676029	0.523304
O15	O	0.045508	1.117096	-0.104658
O16	O	0.545508	1.617096	0.395342
O17	O	-0.154428	1.325997	-0.072070
O18	O	0.345572	1.825997	0.427930
O19	O	0.085195	1.230725	-0.176921
O20	O	0.585195	1.730725	0.323079
O21	O	-0.120621	1.085978	0.009256
O22	O	0.379379	1.585978	0.509256
O23	O	-0.110021	0.988182	-0.138109
O24	O	0.389979	1.488182	0.361891
O25	O	-0.135798	1.154104	-0.331090
O26	O	0.364202	1.654104	0.168910
O27	O	-0.188177	1.004135	-0.235717
O28	O	0.311823	1.504135	0.264283
O29	O	-0.017955	1.251780	-0.305745
O30	O	0.482045	1.751780	0.194255
O31	O	-0.309958	1.197083	-0.105520
O32	O	0.190042	1.697083	0.394480
O33	O	-0.301927	1.122985	-0.217176
O34	O	0.198073	1.622985	0.282824
C35	C	-0.153775	0.968432	-0.192732
C36	C	0.346225	1.468432	0.307268
C37	C	-0.168113	0.883498	-0.210574
C38	C	0.331887	1.383498	0.289426
C39	C	-0.336069	1.158932	-0.163028
C40	C	0.163931	1.658932	0.336972
C41	C	-0.428360	1.155568	-0.168155
C42	C	0.071640	1.655568	0.331845
C43	C	-0.011353	0.562620	-0.015528
C44	C	0.488647	1.062620	0.484472
C45	C	-0.024840	0.482814	-0.032305
C46	C	0.475160	0.982814	0.467695
C47	C	-0.106413	0.499439	-0.133786
C48	C	0.393587	0.999439	0.366214
C49	C	-0.092929	0.579249	-0.117021
C50	C	0.407071	1.079249	0.382979
C51	C	-0.045399	0.610833	-0.057890
C52	C	0.454601	1.110833	0.442110
C53	C	-0.126975	0.627462	-0.159383
C54	C	0.373025	1.127462	0.340617
C55	C	-0.113496	0.707264	-0.142616
C56	C	0.386504	1.207264	0.357384
C57	C	-0.065971	0.738854	-0.083486
C58	C	0.434029	1.238854	0.416514
C59	C	-0.031920	0.690635	-0.041123
C60	C	0.468080	1.190635	0.458877
C61	C	-0.174510	0.595875	-0.218510
C62	C	0.325490	1.095875	0.281490
C63	C	-0.208556	0.644088	-0.260872
C64	C	0.291444	1.144088	0.239128
C65	C	-0.195072	0.723893	-0.244108
C66	C	0.304928	1.223893	0.255892
C67	C	-0.147546	0.755483	-0.184979
C68	C	0.352454	1.255483	0.315021
C69	C	-0.229122	0.772112	-0.286472
C70	C	0.270878	1.272112	0.213528
C71	C	-0.215643	0.851914	-0.269705
C72	C	0.284357	1.351914	0.230295
C73	C	-0.134067	0.835285	-0.168212
C74	C	0.365933	1.335285	0.331788
C75	C	-0.597332	1.149433	-0.177530
C76	C	-0.097332	1.649433	0.322470
C77	C	-0.642392	1.184651	-0.124592
C78	C	-0.142392	1.684651	0.375408
C79	C	-0.736414	1.181238	-0.129808
C80	C	-0.236414	1.681238	0.370192
C81	C	-0.503302	1.152846	-0.172315
C82	C	-0.003302	1.652846	0.327685
C83	C	0.096329	1.175068	-0.139075
C84	C	0.596329	1.675068	0.360925
C85	C	0.188641	1.178518	-0.133963
C86	C	0.688641	1.678518	0.366037
C87	C	-0.069632	1.208944	-0.346341
C88	C	0.430368	1.708944	0.153659
C89	C	-0.048042	1.226829	-0.429555
C90	C	0.451958	1.726829	0.070445
C91	C	-0.086685	1.366289	-0.109244
C92	C	0.413315	1.866289	0.390756
C93	C	-0.072363	1.451225	-0.091421
C94	C	0.427637	1.951225	0.408579
C95	C	-0.283809	1.031408	-0.769207
C96	C	0.216191	1.531408	-0.269207
C97	C	-0.263509	1.048230	-0.847394
C98	C	0.236491	1.548230	-0.347394
C99	C	-0.140810	1.149932	-0.820995
C100	C	0.359190	1.649932	-0.320995
C101	C	-0.161098	1.133115	-0.742803
C102	C	0.338902	1.633115	-0.242803
C103	C	-0.232599	1.073853	-0.716916
C104	C	0.267401	1.573853	-0.216916
C105	C	-0.109887	1.175560	-0.690513
C106	C	0.390113	1.675560	-0.190513
C107	C	-0.130176	1.158747	-0.612328
C108	C	0.369824	1.658747	-0.112328
C109	C	-0.201675	1.099489	-0.586434
C110	C	0.298325	1.599489	-0.086434
C111	C	-0.252888	1.057040	-0.638731
C112	C	0.247112	1.557040	-0.138731
C113	C	-0.038390	1.234826	-0.716401
C114	C	0.461610	1.734826	-0.216401
C115	C	0.012820	1.277271	-0.664110
C116	C	0.512820	1.777271	-0.164110
C117	C	-0.007464	1.260455	-0.585924
C118	C	0.492536	1.760455	-0.085924
C119	C	-0.078964	1.201197	-0.560030
C120	C	0.421036	1.701197	-0.060030
C121	C	0.043748	1.302904	-0.533627
C122	C	0.543748	1.802904	-0.033627
C123	C	0.023459	1.286092	-0.455442
C124	C	0.523459	1.786092	0.044558
C125	C	-0.099252	1.184384	-0.481846
C126	C	0.400748	1.684384	0.018154
C127	C	-0.170694	1.125211	0.043456
C128	C	0.329306	1.625211	0.543456
C129	C	-0.192025	1.107482	0.126714
C130	C	0.307975	1.607482	0.626714
H131	H	-0.054999	0.803834	-0.069834
H132	H	0.445001	1.303834	0.430166
C133	C	-0.062161	1.215112	-0.849476
C134	C	0.437839	1.715112	-0.349476
H135	H	-0.057407	1.219043	-0.903530
H136	H	0.442593	1.719043	-0.403530
H137	H	-0.068974	1.263247	-0.826557
H138	H	0.431026	1.763247	-0.326557
H139	H	-0.011571	1.203246	-0.835922
H140	H	0.488429	1.703246	-0.335922
H141	H	-0.629366	1.116721	-0.226764
H142	H	-0.129366	1.616721	0.273236
H143	H	0.006798	0.716355	0.007017
H144	H	0.506798	1.216355	0.507017
H145	H	-0.021875	1.248515	-0.780065
H146	H	0.478125	1.748515	-0.280065
H147	H	0.027365	0.588340	0.032612
H148	H	0.527365	1.088340	0.532612
C149	C	0.091470	1.342451	-0.692592
C150	C	0.591470	1.842451	-0.192592
H151	H	0.096224	1.346383	-0.746646
H152	H	0.596224	1.846383	-0.246646
H153	H	0.084657	1.390586	-0.669673
H154	H	0.584657	1.890586	-0.169673
H155	H	0.142060	1.330585	-0.679038
H156	H	0.642060	1.830585	-0.179038
C157	C	-0.281404	0.737362	-0.351509
C158	C	0.218596	1.237362	0.148491
H159	H	-0.284553	0.682930	-0.355428
H160	H	0.215447	1.182930	0.144572
H161	H	-0.337837	0.746000	-0.340815
H162	H	0.162163	1.246000	0.159185
H163	H	-0.254062	0.761713	-0.398413
H164	H	0.245938	1.261713	0.101587
H165	H	-0.218196	1.085804	-0.522770
H166	H	0.281804	1.585804	-0.022770
H167	H	0.065161	1.320654	-0.412865
H168	H	0.565161	1.820654	0.087135
C169	C	0.012606	0.429777	0.014300
C170	C	0.512606	0.929777	0.514300
H171	H	-0.002236	0.377724	-0.004148
H172	H	0.497764	0.877724	0.495852
H173	H	0.073459	0.447294	0.009108
H174	H	0.573459	0.947294	0.509108
H175	H	-0.010325	0.431583	0.066696
H176	H	0.489675	0.931583	0.566696
C177	C	-0.177897	1.119192	-0.453361
C178	C	0.322103	1.619192	0.046639
H179	H	-0.182639	1.115257	-0.399308
H180	H	0.317361	1.615257	0.100692
H181	H	-0.228492	1.131038	-0.466916
H182	H	0.271508	1.631038	0.033084
H183	H	-0.171065	1.071057	-0.476278
H184	H	0.328935	1.571057	0.023722
H185	H	-0.342016	0.983133	-0.748131
H186	H	0.157984	1.483133	-0.248131
H187	H	-0.305217	1.013662	-0.889969
H188	H	0.194783	1.513662	-0.389969
C189	C	-0.081780	0.870038	-0.103174
C190	C	0.418220	1.370038	0.396826
H191	H	-0.078626	0.924471	-0.099261
H192	H	0.421374	1.424471	0.400739
H193	H	-0.109107	0.845686	-0.056270
H194	H	0.390893	1.345686	0.443730
H195	H	-0.025340	0.861407	-0.113878
H196	H	0.474660	1.361407	0.386122
H197	H	-0.311094	1.008765	-0.617656
H198	H	0.188906	1.508765	-0.117656
C199	C	-0.158688	0.464692	-0.198828
C200	C	0.341312	0.964692	0.301172
H201	H	-0.161835	0.410261	-0.202752
H202	H	0.338165	0.910261	0.297248
H203	H	-0.215122	0.473329	-0.188139
H204	H	0.284878	0.973329	0.311861
H205	H	-0.131340	0.489047	-0.245730
H206	H	0.368660	0.989047	0.254270
C207	C	-0.260830	0.609342	-0.325914
C208	C	0.239170	1.109342	0.174086
H209	H	-0.263978	0.554910	-0.329837
H210	H	0.236022	1.054910	0.170163
H211	H	-0.317265	0.617978	-0.315225
H212	H	0.182735	1.117978	0.184775
H213	H	-0.233483	0.633696	-0.372815
H214	H	0.266517	1.133696	0.127185
C215	C	-0.253088	0.904952	-0.316304
C216	C	0.246912	1.404952	0.183696
H217	H	-0.283318	0.874714	-0.353926
H218	H	0.216682	1.374714	0.146074
H219	H	-0.291410	0.928570	-0.283075
H220	H	0.208590	1.428570	0.216925
H221	H	-0.207633	0.944287	-0.340671
H222	H	0.292367	1.444287	0.159329
C223	C	-0.599129	1.228819	-0.058057
C224	C	-0.099129	1.728819	0.441943
H225	H	-0.540701	1.225332	-0.063224
H226	H	-0.040701	1.725332	0.436776
H227	H	-0.601716	1.282018	-0.059024
H228	H	-0.101716	1.782018	0.440976
H229	H	-0.628277	1.206332	-0.010867
H230	H	-0.128277	1.706332	0.489133
H231	H	-0.185483	0.530894	-0.232159
H232	H	0.314517	1.030894	0.267841
C233	C	0.122391	1.368090	-0.562110
C234	C	0.622391	1.868090	-0.062110
H235	H	0.127141	1.372022	-0.616164
H236	H	0.627141	1.872022	-0.116164
H237	H	0.115572	1.416222	-0.539188
H238	H	0.615572	1.916222	-0.039188
H239	H	0.172986	1.356230	-0.548559
H240	H	0.672986	1.856230	-0.048559
