data_functionalizedCrystal
_audit_creation_method	'MofGen! by Chris Wilmer'
_symmetry_space_group_name_H-M	'P1'
_symmetry_Int_Tables_number	1
_symmetry_cell_setting	triclinic
loop_
_symmetry_equiv_pos_as_xyz
  x,y,z
_cell_length_a	12.759401
_cell_length_b	12.594516
_cell_length_c	12.759393
_cell_angle_alpha	90.030800
_cell_angle_beta	90.018496
_cell_angle_gamma	90.011977
loop_
_atom_site_label
_atom_site_type_symbol
_atom_site_fract_x
_atom_site_fract_y
_atom_site_fract_z
Zn1	Zn	1.606276	-0.423675	0.593987
Zn2	Zn	1.606180	-0.601694	0.418309
Zn3	Zn	1.430578	-0.423730	0.418326
Zn4	Zn	1.430576	-0.601612	0.593951
O5	O	1.518403	-0.512678	0.506143
O6	O	1.753285	-0.447300	0.570691
O7	O	1.582846	-0.578144	0.271291
O8	O	1.453927	-0.274777	0.441650
O9	O	1.753213	-0.578090	0.441621
O10	O	1.583011	-0.274736	0.570707
O11	O	1.453833	-0.447395	0.271303
O12	O	1.283557	-0.447316	0.441615
O13	O	1.453922	-0.577951	0.740977
O14	O	1.283555	-0.578005	0.570646
O15	O	1.583009	-0.447221	0.741003
O16	O	1.582844	-0.750629	0.441586
O17	O	1.453829	-0.750569	0.570629
C18	C	1.245435	-0.512658	0.506129
C19	C	1.128659	-0.512676	0.506148
C20	C	1.073823	-0.580834	0.573223
C21	C	0.964099	-0.580848	0.573234
C22	C	0.964056	-0.444541	0.439087
C23	C	1.073778	-0.444523	0.439081
C24	C	1.128704	-0.648987	0.640290
C25	C	1.073868	-0.717152	0.707369
C26	C	0.964144	-0.717165	0.707381
C27	C	0.909256	-0.649014	0.640313
C28	C	1.518354	-0.789219	0.506125
C29	C	1.518429	-0.907524	0.506152
C30	C	1.588682	-0.976771	0.436041
C31	C	1.614358	-1.047463	0.531933
C32	C	1.492885	-1.047632	0.410321
C33	C	1.544154	-0.976657	0.602095
C34	C	1.422637	-0.976820	0.480418
C35	C	1.448276	-1.047480	0.576377
C36	C	1.792436	-0.512698	0.506158
C37	C	1.909212	-0.512707	0.506165
C38	C	1.518476	-0.512570	0.780177
C39	C	1.518507	-0.512525	0.896954
C40	C	1.518480	-0.235057	0.506185
C41	C	1.518513	-0.116752	0.506202
C42	C	1.518390	-0.512708	0.233176
C43	C	1.518562	-0.512454	0.116400
C44	C	1.585732	-0.444447	0.951831
C45	C	1.585757	-0.444409	1.061555
C46	C	1.451330	-0.580534	1.061515
C47	C	1.451300	-0.580567	0.951793
C48	C	1.652939	-0.376405	0.896992
C49	C	1.720170	-0.308323	0.951870
C50	C	1.720195	-0.308284	1.061594
C51	C	1.652989	-0.376328	1.116440
H52	H	1.218047	-0.648985	0.640286
H53	H	0.919500	-0.772661	0.762008
H54	H	1.648102	-0.945723	0.376803
O55	O	1.466875	-1.084769	0.313645
C56	C	1.366540	-1.047209	0.285929
H57	H	1.320977	-1.026214	0.359929
H58	H	1.374768	-0.973540	0.234706
C59	C	1.363335	-1.159845	0.133994
C60	C	1.307370	-1.134067	0.224884
H61	H	1.326836	-1.213419	0.096335
H62	H	1.430934	-1.185147	0.152664
H63	H	1.370187	-1.098446	0.091321
H64	H	1.300530	-1.195461	0.267561
H65	H	1.239768	-1.108777	0.206219
H66	H	1.774930	-0.252841	1.106272
O67	O	1.127019	-0.783381	0.772618
C68	C	1.055087	-0.843559	0.831808
H69	H	0.976879	-0.799976	0.835526
H70	H	1.043395	-0.924351	0.793198
C71	C	1.194011	-0.912556	0.939029
C72	C	1.097956	-0.859023	0.943603
H73	H	1.220455	-0.922100	1.007988
H74	H	1.242474	-0.872017	0.899150
H75	H	1.184254	-0.979878	0.906850
H76	H	1.107716	-0.791698	0.975769
H77	H	1.049496	-0.899551	0.983490
O78	O	0.910578	-0.378454	0.373964
C79	C	0.801976	-0.393072	0.388367
H80	H	0.787003	-0.475254	0.422645
H81	H	0.770856	-0.330006	0.444416
C82	C	0.763995	-0.282279	0.239980
C83	C	0.745606	-0.383220	0.282073
H84	H	0.729222	-0.276197	0.174414
H85	H	0.837162	-0.272427	0.230278
H86	H	0.738062	-0.229735	0.286697
H87	H	0.771551	-0.435761	0.235362
H88	H	0.672441	-0.393081	0.291765
H89	H	1.565714	-0.945615	0.683229
H90	H	0.819911	-0.649021	0.640336
O91	O	1.386158	-0.646601	1.114952
C92	C	1.400583	-0.631958	1.223563
H93	H	1.481676	-0.597097	1.238558
H94	H	1.338289	-0.575266	1.254714
C95	C	1.291348	-0.782451	1.261452
C96	C	1.390951	-0.739643	1.279869
H97	H	1.285402	-0.848875	1.296186
H98	H	1.281625	-0.792315	1.188278
H99	H	1.239447	-0.735198	1.287411
H100	H	1.442849	-0.786890	1.253898
H101	H	1.400683	-0.729790	1.353040
H102	H	1.118426	-0.389014	0.384471
O103	O	1.711105	-1.084445	0.557763
C104	C	1.784899	-1.048405	0.483639
H105	H	1.743152	-1.028627	0.407097
H106	H	1.825637	-0.974298	0.514902
C107	C	1.918146	-1.160155	0.557842
C108	C	1.866872	-1.135871	0.463830
H109	H	1.968714	-1.214104	0.545626
H110	H	1.868431	-1.184432	0.607784
H111	H	1.952085	-1.098391	0.583886
H112	H	1.832923	-1.197630	0.437795
H113	H	1.916583	-1.111605	0.413883
O114	O	1.325930	-0.939939	0.454325
C115	C	1.258347	-1.026383	0.435152
H116	H	1.306644	-1.099296	0.413480
H117	H	1.210566	-1.043819	0.508641
C118	C	1.124508	-0.909208	0.370826
C119	C	1.183827	-0.998759	0.344200
H120	H	1.078537	-0.892169	0.314727
H121	H	1.170038	-0.850969	0.383747
H122	H	1.084700	-0.923750	0.432069
H123	H	1.223644	-0.984212	0.282967
H124	H	1.138302	-1.056996	0.331267
H125	H	1.388901	-1.078331	0.635758
H126	H	1.652929	-0.376431	0.807649
H127	H	1.396544	-0.635985	0.907110
O128	O	1.785410	-0.242323	0.898435
C129	C	1.770955	-0.256932	0.789823
H130	H	1.736523	-0.339076	0.774815
H131	H	1.715014	-0.193806	0.758696
C132	C	1.919536	-0.146307	0.751933
C133	C	1.877254	-0.247203	0.733500
H134	H	1.985104	-0.140301	0.717188
H135	H	1.929272	-0.136461	0.825106
H136	H	1.872908	-0.093713	0.725994
H137	H	1.923875	-0.299793	0.759450
H138	H	1.867527	-0.257057	0.660329
H139	H	1.653003	-0.376279	1.205785
