data_functionalizedCrystal
_audit_creation_method	'MofGen! by Chris Wilmer'
_symmetry_space_group_name_H-M	'P1'
_symmetry_Int_Tables_number	1
_symmetry_cell_setting	triclinic
loop_
_symmetry_equiv_pos_as_xyz
  x,y,z
_cell_length_a	10.654562
_cell_length_b	10.540510
_cell_length_c	9.130313
_cell_angle_alpha	90.001199
_cell_angle_beta	89.996930
_cell_angle_gamma	84.501707
loop_
_atom_site_label
_atom_site_type_symbol
_atom_site_fract_x
_atom_site_fract_y
_atom_site_fract_z
O1	O	1.667869	0.178374	-0.121887
O2	O	1.302396	0.195345	-0.121868
O3	O	1.493490	0.002148	-0.121877
O4	O	1.476775	0.371571	-0.121878
O5	O	1.493488	0.002153	0.121721
O6	O	1.302394	0.195350	0.121731
O7	O	1.667866	0.178379	0.121712
Cu8	Cu	1.485130	0.186865	0.143964
Cu9	Cu	1.485133	0.186859	-0.144120
O10	O	1.476773	0.371576	0.121721
C11	C	1.255597	0.194098	-0.000066
C12	C	1.116154	0.190360	-0.000059
C13	C	1.050621	0.188619	0.132715
C14	C	0.919598	0.185117	0.132691
C15	C	0.919651	0.185101	-0.132894
C16	C	1.050673	0.188595	-0.132868
C17	C	1.050589	0.188633	0.286049
C18	C	0.919566	0.185131	0.286024
C19	C	1.492243	-0.045153	-0.000081
C20	C	1.488517	-0.186101	-0.000090
C21	C	1.621269	-0.403599	0.000461
C22	C	1.625244	-0.257004	-0.000095
C23	C	1.418527	-0.230841	-0.139190
C24	C	1.415520	-0.377601	-0.139299
C25	C	1.412670	-0.377403	0.137719
C26	C	1.419155	-0.231064	0.139550
C27	C	1.714666	0.179626	-0.000093
C28	C	1.854109	0.183364	-0.000110
C29	C	1.478019	0.418877	-0.000079
C30	C	1.481746	0.559825	-0.000079
N31	N	1.485137	0.186869	0.346586
N32	N	1.485135	0.186845	-0.346743
C33	C	1.569775	0.101350	0.423234
C34	C	1.569772	0.101335	0.576571
C35	C	1.400488	0.272368	0.576599
C36	C	1.400487	0.272376	0.423265
C37	C	1.667514	0.002610	0.423220
C38	C	1.667510	0.002595	0.576556
H39	H	1.080186	0.281219	0.333625
F40	F	0.880843	0.064221	0.348460
F41	F	0.859089	0.299803	0.362963
F42	F	1.696797	-0.218662	0.130252
H43	H	1.758705	0.033533	0.375656
H44	H	1.463353	-0.417834	-0.243283
F45	F	1.690897	-0.458454	0.130851
F46	F	1.310390	0.363379	0.341691
F47	F	1.627590	-0.117922	0.638714
F48	F	1.690497	-0.460485	-0.129195
H49	H	1.310014	-0.399521	0.138662
H50	H	1.456119	-0.419596	0.243158
H51	H	1.319334	-0.181966	0.147955
H52	H	1.680326	-0.228618	-0.099985
H53	H	1.317871	-0.183421	-0.144357
F54	F	1.120416	0.190423	-0.274184
F55	F	0.849952	0.183211	-0.274231
F56	F	1.111031	0.073968	0.363013
H57	H	1.313256	-0.400564	-0.145596
F58	F	1.485712	-0.193676	0.274058
H59	H	1.331567	0.341984	0.639047
F60	F	1.482061	-0.190539	-0.274505
F61	F	1.639455	-0.124925	0.368814
F62	F	1.793663	0.031020	0.630953
