data_functionalizedCrystal
_audit_creation_method	'MofGen! by Chris Wilmer'
_symmetry_space_group_name_H-M	'P1'
_symmetry_Int_Tables_number	1
_symmetry_cell_setting	triclinic
loop_
_symmetry_equiv_pos_as_xyz
  x,y,z
_cell_length_a	10.654549
_cell_length_b	15.625429
_cell_length_c	14.750522
_cell_angle_alpha	58.265582
_cell_angle_beta	75.913635
_cell_angle_gamma	84.352596
loop_
_atom_site_label
_atom_site_type_symbol
_atom_site_fract_x
_atom_site_fract_y
_atom_site_fract_z
O1	O	1.707455	0.156223	-0.134181
O2	O	1.343240	0.169292	-0.138736
O3	O	1.520028	0.020671	-0.086999
O4	O	1.530667	0.304845	-0.185918
O5	O	1.467258	-0.017483	0.085940
O6	O	1.290471	0.131138	0.034202
O7	O	1.654685	0.118069	0.038758
Zn8	Zn	1.464200	0.118546	0.063937
Zn9	Zn	1.533726	0.168816	-0.163916
O10	O	1.477897	0.266690	-0.012980
C11	C	1.269965	0.149256	-0.051934
C12	C	1.130245	0.146386	-0.050938
C13	C	1.488896	-0.034793	0.012134
C14	C	1.474734	-0.143214	0.049869
C15	C	0.927920	0.231186	-0.080452
C16	C	1.059203	0.233892	-0.081400
C17	C	1.070001	0.056171	-0.019536
C18	C	0.938722	0.053468	-0.018596
C19	C	1.250616	0.357708	-0.180436
C20	C	1.310851	0.447918	-0.211822
C21	C	1.244987	0.512126	-0.178227
C22	C	1.118882	0.486122	-0.113222
C23	C	1.058650	0.395908	-0.081827
C24	C	1.124519	0.331709	-0.115447
C25	C	0.747304	-0.070344	0.080446
C26	C	0.687068	-0.160560	0.111850
C27	C	0.752928	-0.224778	0.078264
C28	C	0.879033	-0.198787	0.013278
C29	C	0.939270	-0.108570	-0.018125
C30	C	0.873401	-0.044352	0.015458
C31	C	1.571936	-0.395817	-0.297331
C32	C	1.558614	-0.497701	-0.261842
C33	C	1.501089	-0.539281	-0.073317
C34	C	1.514412	-0.437398	-0.108790
C35	C	1.549835	-0.365673	-0.220799
C36	C	1.492311	-0.407255	-0.032258
C37	C	1.505626	-0.305381	-0.067729
C38	C	1.541044	-0.233650	-0.179733
C39	C	1.563151	-0.263799	-0.256270
C40	C	1.456879	-0.478981	0.079750
C41	C	1.434778	-0.448837	0.156282
C42	C	1.448102	-0.346962	0.120812
C43	C	1.483520	-0.275231	0.008808
C44	C	1.425996	-0.316813	0.197349
C45	C	1.439312	-0.214939	0.161878
C46	C	1.496836	-0.173357	-0.026663
C47	C	1.727961	0.138106	-0.048047
C48	C	1.867683	0.140977	-0.049050
C49	C	1.509031	0.322155	-0.112115
C50	C	1.523194	0.430577	-0.149857
N51	N	1.416759	0.084237	0.219442
N52	N	1.581176	0.203116	-0.319418
C53	C	1.713570	0.298961	0.496479
C54	C	1.680355	0.274905	0.605356
C55	C	1.515168	0.155359	0.646952
C56	C	1.548366	0.179409	0.538075
C57	C	1.647568	0.251210	0.462847
C58	C	1.482364	0.131657	0.504443
C59	C	1.515564	0.155701	0.395577
C60	C	1.614765	0.227497	0.320343
C61	C	1.680768	0.275254	0.353981
C62	C	1.383168	0.059852	0.579676
C63	C	1.317167	0.012100	0.546043
C64	C	1.350360	0.036149	0.437174
C65	C	1.449561	0.107945	0.361940
C66	C	1.284357	-0.011608	0.403536
C67	C	1.317556	0.012437	0.294670
C68	C	1.482760	0.131989	0.253074
H69	H	0.870083	0.302443	-0.105250
H70	H	1.576603	-0.522236	-0.324173
O71	O	0.564656	-0.185939	0.175143
C72	C	0.564908	-0.278017	0.273875
H73	H	0.666076	-0.290351	0.290697
H74	H	0.493044	-0.275906	0.343879
H75	H	0.535808	-0.342250	0.266889
H76	H	0.693666	-0.018057	0.107800
O77	O	1.061684	-0.083274	-0.081421
C78	C	1.064520	-0.075938	-0.181348
H79	H	0.963252	-0.060883	-0.198129
H80	H	1.133956	-0.011502	-0.250414
H81	H	1.098646	-0.149493	-0.176306
H82	H	1.236399	-0.046364	0.607310
O83	O	1.531050	-0.103677	-0.135483
C84	C	1.437759	-0.105577	-0.187809
H85	H	1.342063	-0.138538	-0.125437
H86	H	1.423469	-0.025671	-0.255086
H87	H	1.472308	-0.154056	-0.225216
H88	H	1.203594	-0.070075	0.464805
H89	H	0.955982	0.374732	-0.028893
H90	H	1.405932	-0.507248	0.247480
H91	H	1.592006	-0.205396	-0.347478
O92	O	1.810026	0.368599	0.423328
C93	C	1.908592	0.323579	0.380867
H94	H	1.866658	0.254441	0.389867
H95	H	1.950161	0.379839	0.290620
H96	H	1.988660	0.300052	0.427776
H97	H	1.413529	0.469086	-0.264753
O98	O	1.646819	0.250953	0.214556
C99	C	1.538193	0.288674	0.167865
H100	H	1.468511	0.319551	0.215048
H101	H	1.571020	0.351497	0.078778
H102	H	1.487211	0.225479	0.172013
H103	H	1.761536	0.333732	0.292720
H104	H	1.065268	0.538404	-0.085859
O105	O	1.253274	-0.034006	0.262162
C106	C	1.158616	-0.102550	0.351910
H107	H	1.131963	-0.079322	0.415474
H108	H	1.068734	-0.102371	0.322812
H109	H	1.198605	-0.181382	0.390015
H110	H	1.600792	-0.337414	-0.388539
O111	O	1.579056	0.201747	0.179835
C112	C	1.594225	0.212702	0.076546
H113	H	1.500573	0.187457	0.071613
H114	H	1.617887	0.295049	0.009698
H115	H	1.676481	0.164462	0.064803
O116	O	1.303523	0.599684	-0.208528
C117	C	1.311815	0.599276	-0.114351
H118	H	1.307346	0.518270	-0.042874
H119	H	1.407178	0.637623	-0.130538
H120	H	1.227630	0.641605	-0.093488
O121	O	1.553984	-0.134641	-0.214384
C122	C	1.590021	-0.077806	-0.329652
H123	H	1.559306	-0.120969	-0.363903
H124	H	1.540374	-0.002597	-0.361130
H125	H	1.699520	-0.063891	-0.357133
O126	O	1.744583	0.321142	0.638124
C127	C	1.804694	0.248309	0.721606
H128	H	1.819831	0.177951	0.715791
H129	H	1.902345	0.279926	0.711745
H130	H	1.740517	0.228157	0.804787
O131	O	1.314800	0.295434	-0.213135
C132	C	1.439004	0.337741	-0.277250
H133	H	1.468731	0.392644	-0.256796
H134	H	1.511627	0.275310	-0.259143
H135	H	1.437089	0.379477	-0.367652
H136	H	0.932662	-0.251079	-0.014068
H137	H	1.472243	-0.597692	0.017881
H138	H	1.434401	0.096895	0.708218
H139	H	1.127856	-0.015077	0.005261
H140	H	1.356147	0.040271	0.668322
H141	H	0.703871	-0.298239	0.103843
O142	O	1.391423	-0.386568	0.306114
C143	C	1.274397	-0.436389	0.328678
H144	H	1.261507	-0.430151	0.250943
H145	H	1.277050	-0.519151	0.394325
H146	H	1.190007	-0.400155	0.359013
O147	O	1.443689	-0.577936	0.114274
C148	C	1.315882	-0.613031	0.174257
H149	H	1.248888	-0.546727	0.149614
H150	H	1.283241	-0.668773	0.156186
H151	H	1.312169	-0.651970	0.265472
H152	H	1.421288	-0.190394	0.224197
