data_functionalizedCrystal
_audit_creation_method	'MofGen! by Chris Wilmer'
_symmetry_space_group_name_H-M	'P1'
_symmetry_Int_Tables_number	1
_symmetry_cell_setting	triclinic
loop_
_symmetry_equiv_pos_as_xyz
  x,y,z
_cell_length_a	16.959455
_cell_length_b	18.101397
_cell_length_c	16.959455
_cell_angle_alpha	90.017750
_cell_angle_beta	90.005975
_cell_angle_gamma	90.019893
loop_
_atom_site_label
_atom_site_type_symbol
_atom_site_fract_x
_atom_site_fract_y
_atom_site_fract_z
Zn1	Zn	1.208314	-0.294943	0.446898
Zn2	Zn	1.208255	-0.418761	0.314712
Zn3	Zn	1.076162	-0.294937	0.314735
Zn4	Zn	1.076106	-0.418746	0.446849
O5	O	1.142209	-0.356847	0.380798
O6	O	1.318917	-0.311376	0.429374
O7	O	1.190732	-0.402340	0.204104
O8	O	1.093740	-0.191305	0.332296
O9	O	1.318874	-0.402345	0.332257
O10	O	1.190831	-0.191309	0.429396
O11	O	1.093684	-0.311366	0.204121
O12	O	0.965544	-0.311351	0.332249
O13	O	1.093644	-0.402319	0.557467
O14	O	0.965502	-0.402313	0.429313
O15	O	1.190777	-0.311361	0.557502
O16	O	1.190677	-0.522392	0.332210
O17	O	1.093588	-0.522381	0.429291
C18	C	0.936843	-0.356830	0.380779
C19	C	0.848986	-0.356841	0.380789
C20	C	0.807688	-0.404137	0.330153
C21	C	0.807731	-0.309551	0.431432
C22	C	0.725185	-0.309557	0.431441
C23	C	0.683887	-0.356853	0.380805
C24	C	0.725135	-0.404143	0.330160
C25	C	0.683931	-0.262263	0.482080
C26	C	0.601380	-0.262266	0.482091
C27	C	0.560081	-0.309566	0.431458
C28	C	0.601333	-0.356859	0.380811
C29	C	0.560035	-0.404155	0.330175
C30	C	0.601287	-0.451451	0.279532
C31	C	0.683835	-0.451443	0.279527
C32	C	0.477532	-0.309575	0.431463
C33	C	0.477482	-0.404160	0.330181
C34	C	1.142142	-0.549257	0.380760
C35	C	1.142185	-0.631571	0.380770
C36	C	1.142286	-0.930662	0.380842
C37	C	1.203202	-0.899313	0.319598
C38	C	1.203413	-0.813695	0.319757
C39	C	1.142236	-0.782280	0.380806
C40	C	1.164798	-0.813305	0.464122
C41	C	1.165270	-0.898949	0.463789
C42	C	1.058645	-0.899166	0.359491
C43	C	1.059058	-0.813516	0.357632
C44	C	1.142206	-0.698420	0.380790
C45	C	1.142317	-1.014522	0.380863
C46	C	1.348377	-0.356863	0.380818
C47	C	1.436234	-0.356870	0.380827
C48	C	1.142211	-0.356839	0.586967
C49	C	1.142211	-0.356836	0.674823
C50	C	1.142299	-0.163685	0.380854
C51	C	1.142337	-0.081371	0.380878
C52	C	1.091679	-0.309489	1.046314
C53	C	1.192736	-0.404221	1.046284
C54	C	1.192738	-0.404216	0.963738
C55	C	1.142210	-0.356849	0.922476
C56	C	1.091678	-0.309485	0.963760
C57	C	1.243263	-0.451584	0.922448
C58	C	1.243267	-0.451582	0.839897
C59	C	1.192742	-0.404210	0.798633
C60	C	1.142209	-0.356844	0.839923
C61	C	1.091680	-0.309477	0.798661
C62	C	1.041151	-0.262106	0.839949
C63	C	1.041153	-0.262113	0.922497
C64	C	1.192740	-0.404204	0.716085
C65	C	1.091680	-0.309472	0.716107
C66	C	1.142203	-0.356867	1.175432
C67	C	1.142208	-0.356857	1.087576
H68	H	0.717429	-0.489948	0.238294
H69	H	0.567800	-0.223755	0.523329
H70	H	1.038115	-0.920814	0.299791
H71	H	0.443863	-0.442678	0.288950
C72	C	0.555857	-0.503474	0.223833
H73	H	0.592243	-0.531639	0.193667
H74	H	0.523645	-0.535779	0.254012
H75	H	0.523662	-0.475092	0.189445
H76	H	1.284411	-0.490155	0.806287
H77	H	0.841361	-0.271042	0.472654
C78	C	0.853059	-0.456157	0.274447
H79	H	0.908138	-0.449380	0.281690
H80	H	0.839515	-0.505932	0.285921
H81	H	0.839524	-0.445241	0.221358
H82	H	0.717562	-0.223754	0.523302
H83	H	0.443949	-0.271061	0.472691
H84	H	1.233868	-0.442791	1.079884
C85	C	1.298839	-0.503684	0.967835
H86	H	1.291608	-0.496895	1.022911
H87	H	1.287248	-0.553441	0.954291
H88	H	1.351955	-0.492847	0.954315
H89	H	1.189259	-0.919943	0.257635
H90	H	1.000013	-0.223548	0.956121
C91	C	1.286445	-0.928317	0.338452
H92	H	1.322884	-0.909117	0.301169
H93	H	1.301241	-0.912991	0.389946
H94	H	1.286564	-0.980743	0.335858
H95	H	1.225251	-0.791802	0.482514
C96	C	0.985573	-0.210005	0.794555
H97	H	0.992815	-0.216789	0.739480
H98	H	0.932458	-0.220834	0.808074
H99	H	0.997172	-0.160244	0.808097
C100	C	1.287108	-0.785942	0.338845
H101	H	1.321110	-0.827011	0.346541
H102	H	1.306075	-0.756809	0.296299
H103	H	1.285775	-0.756892	0.385488
C104	C	1.248311	-0.456307	0.670672
H105	H	1.278404	-0.484517	0.707069
H106	H	1.218056	-0.488565	0.638453
H107	H	1.282772	-0.427978	0.638486
H108	H	1.189299	-0.792720	0.257979
H109	H	1.122844	-0.919686	0.510993
C110	C	1.247860	-0.925872	0.488210
H111	H	1.248875	-0.978347	0.488224
H112	H	1.285864	-0.907735	0.451905
H113	H	1.259788	-0.908150	0.539577
C114	C	1.106701	-0.785812	0.527429
H115	H	1.068078	-0.755091	0.503554
H116	H	1.081603	-0.826937	0.551526
H117	H	1.134582	-0.758429	0.566259
H118	H	1.050536	-0.270896	0.682518
C119	C	1.036067	-0.786127	0.274806
H120	H	1.076980	-0.755778	0.254430
H121	H	1.028403	-0.827309	0.240927
H122	H	0.988636	-0.758378	0.277970
H123	H	1.013258	-0.919441	0.404098
C124	C	0.994445	-0.784640	0.413476
H125	H	1.017454	-0.753019	0.451831
H126	H	0.956315	-0.757933	0.383983
H127	H	0.969714	-0.825159	0.439085
C128	C	1.036098	-0.257389	1.091725
H129	H	1.043329	-0.264175	1.146798
H130	H	1.047686	-0.207631	1.078214
H131	H	0.982982	-0.268229	1.078187
