data_functionalizedCrystal
_audit_creation_method	'MofGen! by Chris Wilmer'
_symmetry_space_group_name_H-M	'P1'
_symmetry_Int_Tables_number	1
_symmetry_cell_setting	triclinic
loop_
_symmetry_equiv_pos_as_xyz
  x,y,z
_cell_length_a	12.759401
_cell_length_b	12.759400
_cell_length_c	12.759393
_cell_angle_alpha	89.974992
_cell_angle_beta	90.019011
_cell_angle_gamma	89.998021
loop_
_atom_site_label
_atom_site_type_symbol
_atom_site_fract_x
_atom_site_fract_y
_atom_site_fract_z
Zn1	Zn	-1.606337	-0.418245	-0.594045
Zn2	Zn	-1.606266	-0.593964	-0.418386
Zn3	Zn	-1.430639	-0.418295	-0.418383
Zn4	Zn	-1.430662	-0.593878	-0.594025
O5	O	-1.518476	-0.506095	-0.506210
O6	O	-1.753349	-0.441569	-0.570753
O7	O	-1.582929	-0.570718	-0.271364
O8	O	-1.453966	-0.271267	-0.441692
O9	O	-1.753297	-0.570669	-0.441697
O10	O	-1.583050	-0.271230	-0.570750
O11	O	-1.453897	-0.441655	-0.271362
O12	O	-1.283621	-0.441571	-0.441673
O13	O	-1.454005	-0.570523	-0.741049
O14	O	-1.283638	-0.570571	-0.570717
O15	O	-1.583073	-0.441486	-0.741064
O16	O	-1.582952	-0.740973	-0.441677
O17	O	-1.453936	-0.740910	-0.570719
C18	C	-1.245509	-0.506068	-0.506193
C19	C	-1.128732	-0.506082	-0.506211
C20	C	-0.964175	-0.573365	-0.573304
C21	C	-1.073899	-0.573357	-0.573294
C22	C	-1.073835	-0.438818	-0.439125
C23	C	-0.964113	-0.438833	-0.439131
C24	C	-1.518467	-0.779063	-0.506219
C25	C	-1.518560	-0.895839	-0.506259
C26	C	-1.518549	-0.505989	-0.780243
C27	C	-1.518581	-0.505944	-0.897020
C28	C	-0.792509	-0.506116	-0.506225
C29	C	-0.909286	-0.506105	-0.506226
C30	C	-1.518514	-0.232062	-0.506223
C31	C	-1.518530	-0.115285	-0.506229
C32	C	-1.451333	-0.060441	-0.439041
C33	C	-1.451345	0.049283	-0.439058
C34	C	-1.585759	0.049309	-0.573454
C35	C	-1.585741	-0.060413	-0.573442
C36	C	-1.451418	-0.438728	-0.951880
C37	C	-1.451442	-0.438696	-1.061605
C38	C	-1.585802	-0.573098	-1.061598
C39	C	-1.585771	-0.573134	-0.951876
C40	C	-1.518464	-0.506125	-0.233242
C41	C	-1.518636	-0.505875	-0.116466
H42	H	-0.919538	-0.628143	-0.627936
N43	N	-1.658283	-0.645556	-1.120757
H44	H	-1.641947	-0.720626	-1.101654
H45	H	-1.648087	-0.635247	-1.198573
N46	N	-1.132970	-0.366261	-0.366764
H47	H	-1.210808	-0.376454	-0.376940
H48	H	-1.113788	-0.291249	-0.383239
H49	H	-1.396603	-0.105115	-0.384314
H50	H	-0.919421	-0.384060	-0.384503
N51	N	-1.378870	0.108438	-0.366591
H52	H	-1.336293	0.057024	-0.324013
H53	H	-1.421634	0.153943	-0.317983
N54	N	-1.658246	0.108492	-0.645947
H55	H	-1.648063	0.186323	-0.635761
H56	H	-1.733274	0.089299	-0.629604
H57	H	-1.640460	-0.105069	-0.628161
H58	H	-1.396750	-0.383963	-1.106267
N59	N	-1.133103	-0.645907	-0.645636
H60	H	-1.081717	-0.688523	-0.688137
H61	H	-1.178646	-0.603195	-0.694322
N62	N	-1.378954	-0.366260	-0.892712
H63	H	-1.336411	-0.323675	-0.944120
H64	H	-1.330314	-0.409031	-0.847177
N65	N	-1.658209	-0.645641	-0.892696
H66	H	-1.700783	-0.688195	-0.944096
H67	H	-1.706823	-0.602898	-0.847176
