data_functionalizedCrystal
_audit_creation_method	'MofGen! by Chris Wilmer'
_symmetry_space_group_name_H-M	'P1'
_symmetry_Int_Tables_number	1
_symmetry_cell_setting	triclinic
loop_
_symmetry_equiv_pos_as_xyz
  x,y,z
_cell_length_a	12.759401
_cell_length_b	21.395362
_cell_length_c	21.395355
_cell_angle_alpha	89.979451
_cell_angle_beta	89.977260
_cell_angle_gamma	90.031316
loop_
_atom_site_label
_atom_site_type_symbol
_atom_site_fract_x
_atom_site_fract_y
_atom_site_fract_z
Zn1	Zn	1.606175	-0.249486	-0.354222
Zn2	Zn	1.606014	-0.354245	-0.249441
Zn3	Zn	1.430468	-0.249489	-0.249462
Zn4	Zn	1.430419	-0.354232	-0.354185
O5	O	1.518269	-0.301863	-0.301828
O6	O	1.753174	-0.263387	-0.340330
O7	O	1.582681	-0.340356	-0.161766
O8	O	1.453864	-0.161810	-0.263384
O9	O	1.753056	-0.340353	-0.263347
O10	O	1.582955	-0.161808	-0.340350
O11	O	1.453708	-0.263392	-0.161782
O12	O	1.283441	-0.263379	-0.263347
O13	O	1.453780	-0.340330	-0.441867
O14	O	1.283405	-0.340333	-0.340286
O15	O	1.582907	-0.263374	-0.441895
O16	O	1.582633	-0.441922	-0.263311
O17	O	1.453624	-0.441912	-0.340265
C18	C	1.245302	-0.301855	-0.301815
C19	C	1.128525	-0.301867	-0.301825
C20	C	1.073672	-0.341998	-0.341824
C21	C	0.963948	-0.342001	-0.341836
C22	C	0.963940	-0.261739	-0.261845
C23	C	1.073662	-0.261734	-0.261836
C24	C	1.518135	-0.464651	-0.301795
C25	C	1.518173	-0.534292	-0.301803
C26	C	1.585352	-0.566947	-0.341908
C27	C	1.585389	-0.632382	-0.341923
C28	C	1.518258	-0.665160	-0.301822
C29	C	1.451066	-0.632497	-0.261714
C30	C	1.451024	-0.567063	-0.261704
C31	C	1.510080	-0.768861	-0.245383
C32	C	1.510130	-0.834293	-0.245392
C33	C	1.518383	-0.866981	-0.301852
C34	C	1.526608	-0.834227	-0.358306
C35	C	1.526566	-0.768793	-0.358296
C36	C	1.518296	-0.736112	-0.301828
C37	C	1.585606	-0.970588	-0.341977
C38	C	1.585635	-1.036025	-0.341994
C39	C	1.451317	-1.036139	-0.261779
C40	C	1.451282	-0.970703	-0.261769
C41	C	1.518432	-0.937932	-0.301867
C42	C	1.792302	-0.301871	-0.301840
C43	C	1.909079	-0.301875	-0.301846
C44	C	1.518356	-0.301850	-0.465251
C45	C	1.518393	-0.301845	-0.534892
C46	C	1.518432	-0.138440	-0.301874
C47	C	1.518502	-0.068798	-0.301893
C48	C	1.585627	-0.261772	-0.567621
C49	C	1.585625	-0.261745	-0.633056
C50	C	1.518402	-0.301802	-0.665761
C51	C	1.451155	-0.341878	-0.633024
C52	C	1.451151	-0.341899	-0.567590
C53	C	1.510059	-0.358218	-0.769424
C54	C	1.510071	-0.358197	-0.834857
C55	C	1.518408	-0.301736	-0.867581
C56	C	1.526756	-0.245293	-0.834865
C57	C	1.526752	-0.245314	-0.769430
C58	C	1.518398	-0.301783	-0.736713
C59	C	1.585644	-0.261630	-0.971263
C60	C	1.585635	-0.261602	-1.036699
C61	C	1.451170	-0.341741	-1.036666
C62	C	1.451173	-0.341763	-0.971231
C63	C	1.518416	-0.301709	-0.938533
C64	C	1.518243	-0.301830	-0.139040
C65	C	1.518409	-0.301659	-0.069399
H66	H	0.919257	-0.229065	-0.229287
H67	H	1.640391	-0.229012	-0.944639
H68	H	1.396418	-0.374491	-0.659656
H69	H	1.396651	-1.062826	-0.229132
H70	H	1.396431	-0.374399	-0.944583
C71	C	1.134004	-0.217588	-0.217834
H72	H	1.085617	-0.193693	-0.194014
H73	H	1.176850	-0.190324	-0.241850
H74	H	1.176763	-0.241518	-0.190485
H75	H	1.533546	-0.199357	-0.742795
C76	C	1.134023	-0.386141	-0.385808
H77	H	1.207226	-0.380397	-0.380071
H78	H	1.116089	-0.377038	-0.427925
H79	H	1.115995	-0.428226	-0.376555
H80	H	1.533547	-0.199317	-0.861507
C81	C	1.501083	-0.870317	-0.183297
H82	H	1.496142	-0.841479	-0.149671
H83	H	1.561314	-0.895811	-0.177821
H84	H	1.440192	-0.895876	-0.184088
H85	H	1.640086	-0.658975	-0.374589
C86	C	1.377197	-0.385983	-0.531584
H87	H	1.386821	-0.380257	-0.487931
H88	H	1.392527	-0.428078	-0.542311
H89	H	1.306612	-0.376802	-0.542290
C90	C	1.659213	-0.530902	-0.386014
H91	H	1.699225	-0.559726	-0.409904
H92	H	1.704990	-0.505363	-0.362065
H93	H	1.618986	-0.505385	-0.413295
H94	H	1.503280	-0.404156	-0.861490
H95	H	1.502989	-0.404183	-0.742786
C96	C	1.535600	-0.732766	-0.420389
H97	H	1.540514	-0.761601	-0.454019
H98	H	1.596481	-0.707205	-0.419605
H99	H	1.475357	-0.707273	-0.425856
H100	H	1.533330	-0.860840	-0.404281
C101	C	0.903614	-0.386144	-0.385837
H102	H	0.952006	-0.410045	-0.409647
H103	H	0.860859	-0.362218	-0.413185
H104	H	0.860765	-0.413412	-0.361821
C105	C	1.659433	-0.934538	-0.386102
H106	H	1.699432	-0.963360	-0.410001
H107	H	1.705224	-0.908993	-0.362168
H108	H	1.619176	-0.909027	-0.413372
C109	C	1.659596	-0.217520	-1.072701
H110	H	1.699647	-0.193674	-1.043853
H111	H	1.619442	-0.190207	-1.098218
H112	H	1.705349	-0.241487	-1.098236
C113	C	1.659537	-1.071946	-0.386112
H114	H	1.699526	-1.043054	-0.409985
H115	H	1.619346	-1.097479	-0.413397
H116	H	1.705348	-1.097459	-0.362166
C117	C	1.377232	-0.385808	-1.072633
H118	H	1.386868	-0.380060	-1.116291
H119	H	1.306647	-0.376645	-1.061895
H120	H	1.392580	-0.427910	-1.061909
C121	C	1.377392	-0.934778	-0.217650
H122	H	1.386975	-0.891114	-0.223391
H123	H	1.392805	-0.945513	-0.175562
H124	H	1.306798	-0.945537	-0.226790
C125	C	1.501001	-0.732911	-0.183273
H126	H	1.496124	-0.761787	-0.149654
H127	H	1.440084	-0.707418	-0.184049
H128	H	1.561209	-0.707355	-0.177796
H129	H	1.396405	-0.659189	-0.229065
C130	C	1.377130	-0.531141	-0.217583
H131	H	1.337156	-0.560031	-0.193699
H132	H	1.331320	-0.505625	-0.241520
H133	H	1.417336	-0.505610	-0.190298
H134	H	1.640380	-0.229155	-0.541002
H135	H	1.640373	-0.229109	-0.659709
