data_functionalizedCrystal
_audit_creation_method	'MofGen! by Chris Wilmer'
_symmetry_space_group_name_H-M	'P1'
_symmetry_Int_Tables_number	1
_symmetry_cell_setting	triclinic
loop_
_symmetry_equiv_pos_as_xyz
  x,y,z
_cell_length_a	18.215407
_cell_length_b	16.120484
_cell_length_c	18.215399
_cell_angle_alpha	92.867230
_cell_angle_beta	89.983176
_cell_angle_gamma	92.926015
loop_
_atom_site_label
_atom_site_type_symbol
_atom_site_fract_x
_atom_site_fract_y
_atom_site_fract_z
Zn1	Zn	1.110191	-0.331886	-0.430959
Zn2	Zn	1.610191	0.168114	0.069041
Zn3	Zn	1.103863	-0.471313	-0.314128
Zn4	Zn	1.603863	0.028687	0.185872
Zn5	Zn	0.987128	-0.331919	-0.307908
Zn6	Zn	1.487128	0.168081	0.192092
Zn7	Zn	0.980849	-0.471261	-0.437151
Zn8	Zn	1.480849	0.028739	0.062849
O9	O	1.045508	-0.401595	-0.372536
O10	O	1.545508	0.098405	0.127464
O11	O	1.212335	-0.350389	-0.415473
O12	O	1.712335	0.149611	0.084527
O13	O	1.088358	-0.452858	-0.210320
O14	O	1.588358	0.047142	0.289680
O15	O	1.008729	-0.215249	-0.319036
O16	O	1.508729	0.284751	0.180964
O17	O	1.207687	-0.452826	-0.329638
O18	O	1.707687	0.047174	0.170362
O19	O	1.099142	-0.215225	-0.409441
O20	O	1.599142	0.284775	0.090559
O21	O	1.002593	-0.350446	-0.205750
O22	O	1.502593	0.149554	0.294250
O23	O	0.883312	-0.350395	-0.325040
O24	O	1.383312	0.149605	0.174960
O25	O	0.998027	-0.452737	-0.539312
O26	O	1.498027	0.047263	-0.039312
O27	O	0.878698	-0.452769	-0.419995
O28	O	1.378698	0.047231	0.080005
O29	O	1.093054	-0.350339	-0.534763
O30	O	1.593054	0.149661	-0.034763
O31	O	1.082269	-0.587972	-0.335642
O32	O	1.582269	-0.087972	0.164358
O33	O	0.991891	-0.587933	-0.426026
O34	O	1.491891	-0.087933	0.073974
C35	C	0.854302	-0.401580	-0.372515
C36	C	1.354302	0.098420	0.127485
C37	C	0.772503	-0.401594	-0.372524
C38	C	1.272503	0.098406	0.127476
C39	C	1.035732	-0.618203	-0.382197
C40	C	1.535732	-0.118203	0.117803
C41	C	1.031617	-0.710869	-0.386355
C42	C	1.531617	-0.210869	0.113645
C43	C	0.581922	-0.454984	-0.421911
C44	C	1.081922	0.045016	0.078089
C45	C	0.505063	-0.454987	-0.421920
C46	C	1.005063	0.045013	0.078080
C47	C	0.509845	-0.348220	-0.323179
C48	C	1.009845	0.151780	0.176821
C49	C	0.586703	-0.348214	-0.323173
C50	C	1.086703	0.151786	0.176827
C51	C	0.622739	-0.401601	-0.372539
C52	C	1.122739	0.098399	0.127461
C53	C	0.469023	-0.401610	-0.372553
C54	C	0.969023	0.098390	0.127447
C55	C	0.385689	-0.401612	-0.372563
C56	C	0.885689	0.098388	0.127437
C57	C	0.706078	-0.401597	-0.372530
C58	C	1.206078	0.098403	0.127470
C59	C	1.024109	-0.880530	-0.393960
C60	C	1.524109	-0.380530	0.106040
C61	C	1.067038	-0.921819	-0.351125
C62	C	1.567038	-0.421819	0.148875
C63	C	1.062861	-1.016224	-0.355356
C64	C	1.562861	-0.516224	0.144644
C65	C	1.028286	-0.786116	-0.389729
C66	C	1.528286	-0.286116	0.110271
C67	C	1.237460	-0.401610	-0.372559
C68	C	1.737460	0.098390	0.127441
C69	C	1.319259	-0.401616	-0.372568
C70	C	1.819259	0.098384	0.127432
C71	C	1.045546	-0.401528	-0.564487
C72	C	1.545546	0.098472	-0.064487
C73	C	1.045562	-0.401500	-0.646284
C74	C	1.545562	0.098500	-0.146284
C75	C	1.055342	-0.184141	-0.362854
C76	C	1.555342	0.315859	0.137146
C77	C	1.059533	-0.091475	-0.358728
C78	C	1.559533	0.408525	0.141272
C79	C	1.000946	-0.348138	-0.832098
C80	C	1.500946	0.151862	-0.332098
C81	C	1.000959	-0.348121	-0.908956
C82	C	1.500959	0.151879	-0.408956
C83	C	1.090270	-0.454762	-0.913704
C84	C	1.590270	0.045238	-0.413704
C85	C	1.090252	-0.454783	-0.836848
C86	C	1.590252	0.045217	-0.336848
C87	C	1.045591	-0.401466	-0.796046
C88	C	1.545591	0.098534	-0.296046
C89	C	1.045623	-0.401428	-0.949761
C90	C	1.545623	0.098572	-0.449761
C91	C	1.045638	-0.401411	-1.033094
C92	C	1.545638	0.098589	-0.533094
C93	C	1.045575	-0.401484	-0.712708
C94	C	1.545575	0.098516	-0.212708
C95	C	1.045515	-0.401601	-0.181331
C96	C	1.545515	0.098399	0.318669
C97	C	1.045652	-0.401394	-0.099523
C98	C	1.545652	0.098606	0.400477
H99	H	0.611261	-0.498453	-0.462109
H100	H	1.111261	0.001547	0.037891
Br101	Br	0.940333	-0.275781	-0.776727
Br102	Br	1.440333	0.224219	-0.276727
Br103	Br	0.940352	-0.275758	-0.957881
Br104	Br	1.440352	0.224242	-0.457881
H105	H	0.471834	-0.498456	-0.462125
H106	H	0.971834	0.001544	0.037875
H107	H	0.619937	-0.304738	-0.282968
H108	H	1.119937	0.195262	0.217032
Br109	Br	0.460934	-0.275771	-0.256186
Br110	Br	0.960934	0.224229	0.243814
H111	H	1.106928	-0.886266	-0.311273
H112	H	1.606928	-0.386266	0.188727
H113	H	0.984221	-0.916080	-0.433808
H114	H	1.484221	-0.416080	0.066192
H115	H	1.126633	-0.498170	-0.946934
H116	H	1.626633	0.001830	-0.446934
H117	H	1.126610	-0.498212	-0.807494
H118	H	1.626610	0.001788	-0.307494
