data_functionalizedCrystal
_audit_creation_method	'MofGen! by Chris Wilmer'
_symmetry_space_group_name_H-M	'P1'
_symmetry_Int_Tables_number	1
_symmetry_cell_setting	triclinic
loop_
_symmetry_equiv_pos_as_xyz
  x,y,z
_cell_length_a	10.489741
_cell_length_b	10.489716
_cell_length_c	9.730223
_cell_angle_alpha	89.999635
_cell_angle_beta	89.999406
_cell_angle_gamma	84.534155
loop_
_atom_site_label
_atom_site_type_symbol
_atom_site_fract_x
_atom_site_fract_y
_atom_site_fract_z
O1	O	1.694036	0.179969	-0.114191
O2	O	1.322838	0.196862	-0.114211
O3	O	1.516900	0.002816	-0.114206
O4	O	1.499974	0.374016	-0.114197
O5	O	1.516887	0.002811	0.114374
O6	O	1.322826	0.196857	0.114368
O7	O	1.694023	0.179964	0.114389
Zn8	Zn	1.508423	0.188410	0.150671
Zn9	Zn	1.508439	0.188417	-0.150493
O10	O	1.499962	0.374010	0.114383
C11	C	1.275301	0.195584	0.000076
C12	C	1.133672	0.191767	0.000067
C13	C	1.515622	-0.044719	0.000080
C14	C	1.511817	-0.186350	0.000067
C15	C	1.065542	0.068301	0.000077
C16	C	0.973417	0.126627	-0.112620
C17	C	0.973438	0.126652	0.112742
C18	C	1.043411	0.250144	-0.112723
C19	C	1.043442	0.250151	0.112740
C20	C	0.951344	0.308568	0.000015
C21	C	1.630822	-0.284024	0.000086
C22	C	1.567943	-0.361382	-0.112616
C23	C	1.567903	-0.361351	0.112746
C24	C	1.448988	-0.261842	-0.112728
C25	C	1.448966	-0.261806	0.112735
C26	C	1.386000	-0.339115	0.000006
C27	C	1.741561	0.181243	0.000098
C28	C	1.883190	0.185060	0.000098
C29	C	1.501240	0.421545	0.000094
C30	C	1.505044	0.563176	0.000098
N31	N	1.508421	0.188404	0.356207
N32	N	1.508451	0.188412	-0.356030
C33	C	1.594380	0.102517	0.428135
C34	C	1.594393	0.102518	0.572018
C35	C	1.422482	0.274303	0.572032
C36	C	1.422464	0.274296	0.428151
H37	H	0.942412	0.074389	-0.207902
C38	C	1.548778	-0.482949	-0.319439
C39	C	1.635756	-0.420097	-0.241241
H40	H	1.590649	-0.519185	-0.398848
H41	H	1.517255	-0.548919	-0.266001
H42	H	1.479453	-0.423359	-0.346520
H43	H	1.705078	-0.479690	-0.214152
H44	H	1.667299	-0.354120	-0.294689
H45	H	1.618160	-0.404826	0.208024
H46	H	1.074478	0.302347	0.208026
C47	C	1.184159	-0.321402	-0.118183
C48	C	1.246161	-0.372111	-0.000078
H49	H	1.097833	-0.341783	-0.118240
H50	H	1.185860	-0.231035	-0.118935
H51	H	1.226728	-0.357019	-0.197471
H52	H	1.203598	-0.336487	0.079212
H53	H	1.244452	-0.462496	0.000688
H54	H	0.901911	0.410172	-0.000044
C55	C	1.249101	0.300276	0.266368
C56	C	1.327973	0.368713	0.349075
H57	H	1.190764	0.358562	0.217557
H58	H	1.300285	0.249128	0.202940
H59	H	1.202747	0.246739	0.322525
H60	H	1.374334	0.422243	0.292917
H61	H	1.276782	0.419883	0.412511
H62	H	1.398784	-0.218536	-0.208114
H63	H	1.398768	-0.218290	0.208016
H64	H	1.664388	0.032579	0.630578
C65	C	1.265512	-0.063733	0.001141
C66	C	1.132599	-0.068730	-0.000065
H67	H	1.306910	-0.148327	0.001058
H68	H	1.290462	-0.019439	-0.078109
H69	H	1.289304	-0.020060	0.081307
H70	H	1.108806	-0.112394	-0.080236
H71	H	1.107639	-0.113042	0.079193
H72	H	1.734335	-0.259347	-0.000023
H73	H	1.074240	0.302347	-0.208108
C74	C	1.249169	0.300292	0.733879
C75	C	1.328013	0.368719	0.651125
H76	H	1.190855	0.358585	0.782712
H77	H	1.202800	0.246755	0.677762
H78	H	1.300384	0.249145	0.797302
H79	H	1.276799	0.419859	0.587695
H80	H	1.374386	0.422278	0.707246
H81	H	0.942459	0.074386	0.208019
C82	C	1.764296	-0.067295	0.442579
C83	C	1.688850	0.008094	0.349053
H84	H	1.822611	-0.125596	0.393757
H85	H	1.810665	-0.013746	0.498681
H86	H	1.710777	-0.113690	0.498714
H87	H	1.742369	0.054497	0.292924
H88	H	1.642478	-0.045462	0.292927
