data_functionalizedCrystal
_audit_creation_method	'MofGen! by Chris Wilmer'
_symmetry_space_group_name_H-M	'P1'
_symmetry_Int_Tables_number	1
_symmetry_cell_setting	triclinic
loop_
_symmetry_equiv_pos_as_xyz
  x,y,z
_cell_length_a	10.723022
_cell_length_b	10.654550
_cell_length_c	9.730223
_cell_angle_alpha	90.001139
_cell_angle_beta	90.002551
_cell_angle_gamma	95.523935
loop_
_atom_site_label
_atom_site_type_symbol
_atom_site_fract_x
_atom_site_fract_y
_atom_site_fract_z
O1	O	1.657214	-0.176132	0.114277
O2	O	1.294064	-0.192995	0.114282
O3	O	1.483988	-0.001823	0.114274
O4	O	1.467289	-0.367304	0.114285
O5	O	1.483976	-0.001833	-0.114306
O6	O	1.294051	-0.193005	-0.114298
O7	O	1.657201	-0.176142	-0.114303
Zn8	Zn	1.475624	-0.184576	-0.150593
Zn9	Zn	1.475641	-0.184561	0.150571
O10	O	1.467277	-0.367314	-0.114295
C11	C	1.247558	-0.191773	-0.000008
C12	C	1.109003	-0.188103	-0.000006
C13	C	0.890840	-0.291276	-0.000001
C14	C	1.034043	-0.295072	-0.000002
C15	C	1.482756	0.044970	-0.000014
C16	C	1.479087	0.184412	-0.000009
C17	C	1.703707	-0.177364	-0.000010
C18	C	1.842262	-0.181034	-0.000003
C19	C	1.468509	-0.414107	-0.000004
C20	C	1.472177	-0.553550	0.000000
N21	N	1.475622	-0.184584	-0.356129
C22	C	1.590912	0.263916	-0.000015
C23	C	1.587458	0.394936	-0.000005
C24	C	1.360344	0.366937	0.000010
C25	C	1.363800	0.235919	0.000010
C26	C	1.722034	0.280082	-0.000029
C27	C	1.718580	0.411102	-0.000020
C28	C	1.551963	-0.261447	-0.428067
C29	C	1.551981	-0.261423	-0.571950
C30	C	1.399309	-0.107671	-0.571944
C31	C	1.399298	-0.107689	-0.428064
C32	C	1.640103	-0.350219	-0.428071
C33	C	1.640122	-0.350195	-0.571954
N34	N	1.475652	-0.184543	0.356108
H35	H	0.906691	-0.089462	0.000002
C36	C	1.052525	-0.060579	-0.000010
H37	H	1.118131	0.006039	-0.000022
H38	H	1.002304	-0.054543	0.079698
H39	H	1.002303	-0.054553	-0.079733
H40	H	1.272741	0.171191	0.000033
C41	C	1.791312	0.240427	0.129189
H42	H	1.817448	0.313026	0.182340
H43	H	1.862515	0.199655	0.102619
H44	H	1.736693	0.184146	0.182341
C45	C	0.803814	-0.414988	0.000000
H46	H	0.718981	-0.396207	-0.000009
H47	H	0.819384	-0.462539	0.079709
H48	H	0.819376	-0.462535	-0.079723
H49	H	1.767980	0.452865	-0.095679
H50	H	1.758212	0.456756	0.098674
C51	C	1.598598	-0.483976	-0.624753
H52	H	1.598626	-0.483956	-0.722390
H53	H	1.516584	-0.509731	-0.592241
H54	H	1.654991	-0.540771	-0.592216
H55	H	1.763783	0.244457	-0.098726
C56	C	1.773050	-0.308503	-0.375289
H57	H	1.827733	-0.291322	-0.451219
H58	H	1.802102	-0.373874	-0.321059
H59	H	1.771332	-0.234554	-0.321041
C60	C	1.587063	-0.477979	-0.367793
H61	H	1.588862	-0.473635	-0.270282
H62	H	1.636476	-0.542041	-0.397950
H63	H	1.503113	-0.497070	-0.397944
C64	C	1.315332	-0.023133	-0.348936
H65	H	1.269872	0.022654	-0.412388
H66	H	1.365971	0.034185	-0.292791
H67	H	1.258329	-0.074081	-0.292827
C68	C	1.767084	-0.296856	-0.632229
H69	H	1.762761	-0.298647	-0.729740
H70	H	1.830721	-0.346615	-0.602088
H71	H	1.786081	-0.212376	-0.602063
H72	H	1.337168	-0.045066	-0.630531
C73	C	1.090536	-0.422588	0.000006
H74	H	1.179373	-0.408411	0.000015
H75	H	1.063546	-0.469019	-0.079699
H76	H	1.063556	-0.468999	0.079732
C77	C	1.233539	0.423600	0.000020
H78	H	1.247494	0.513016	0.000012
H79	H	1.187451	0.396375	0.079730
H80	H	1.187445	0.396377	-0.079702
