data_functionalizedCrystal
_audit_creation_method	'MofGen! by Chris Wilmer'
_symmetry_space_group_name_H-M	'P1'
_symmetry_Int_Tables_number	1
_symmetry_cell_setting	triclinic
loop_
_symmetry_equiv_pos_as_xyz
  x,y,z
_cell_length_a	14.519731
_cell_length_b	27.732025
_cell_length_c	13.596369
_cell_angle_alpha	90.008546
_cell_angle_beta	89.994584
_cell_angle_gamma	83.161162
loop_
_atom_site_label
_atom_site_type_symbol
_atom_site_fract_x
_atom_site_fract_y
_atom_site_fract_z
O1	O	1.222743	0.063412	-0.081761
O2	O	0.954138	0.070863	-0.081758
O3	O	1.096794	-0.003220	-0.081789
O4	O	1.080088	0.137495	-0.081729
O5	O	1.096780	-0.003224	0.081793
O6	O	0.954124	0.070859	0.081825
O7	O	1.222729	0.063408	0.081822
Zn8	Zn	1.088425	0.067133	0.107796
Zn9	Zn	1.088443	0.067138	-0.107732
O10	O	1.080074	0.137491	0.081853
C11	C	0.919778	0.070512	0.000033
C12	C	0.817416	0.069465	0.000032
C13	C	1.096439	-0.021231	-0.000008
C14	C	1.095393	-0.074891	-0.000037
C15	C	0.734287	0.068615	0.000028
C16	C	0.629997	0.067553	0.000027
C17	C	0.546873	0.066710	0.000026
C18	C	0.442576	0.065648	0.000024
C19	C	1.087967	-0.458090	-0.089149
C20	C	1.091882	-0.256412	-0.089180
O21	O	1.092432	-0.230340	-0.165018
N22	N	1.092364	-0.231191	-0.000014
C23	C	1.091873	-0.256392	0.089167
O24	O	1.092383	-0.230313	0.165007
C25	C	1.087964	-0.458070	0.089197
C26	C	1.087473	-0.483288	0.000025
C27	C	1.087477	-0.483309	-0.178314
C28	C	1.086493	-0.533725	-0.178305
C29	C	1.085999	-0.558923	-0.089131
C30	C	1.086489	-0.533705	0.000034
C31	C	1.087480	-0.483271	0.178377
C32	C	1.086505	-0.533694	0.178377
C33	C	1.086014	-0.558912	0.089205
C34	C	1.085011	-0.609319	0.089217
N35	N	1.084529	-0.634540	0.000050
C36	C	1.085023	-0.609342	-0.089124
C37	C	1.093924	-0.150509	0.089144
C38	C	1.094899	-0.100089	0.089137
C39	C	1.094910	-0.100113	-0.089211
C40	C	1.093928	-0.150532	-0.089202
C41	C	1.093442	-0.175730	-0.000022
C42	C	1.082956	-0.715220	-0.089098
C43	C	1.081968	-0.765640	-0.089082
C44	C	1.081962	-0.765613	0.089265
C45	C	1.082945	-0.715196	0.089249
C46	C	1.083445	-0.690001	0.000059
O47	O	1.084471	-0.635422	0.165014
O48	O	1.084534	-0.635432	-0.164953
C49	C	1.088951	-0.407674	-0.089157
C50	C	1.089441	-0.382456	0.000008
C51	C	1.088947	-0.407654	0.089181
C52	C	1.090416	-0.332037	0.000000
C53	C	1.090910	-0.306839	-0.089174
C54	C	1.090428	-0.332060	-0.178340
C55	C	1.089444	-0.382476	-0.178331
C56	C	1.089429	-0.382432	0.178348
C57	C	1.090412	-0.332016	0.178332
C58	C	1.090906	-0.306818	0.089158
C59	C	1.257090	0.063759	0.000029
C60	C	1.359452	0.064805	0.000024
C61	C	1.080428	0.155501	0.000070
C62	C	1.081474	0.209162	0.000092
N63	N	1.088419	0.067129	0.254888
N64	N	1.088456	0.067138	-0.254824
C65	C	1.088442	0.067138	0.656179
C66	C	1.088433	0.067137	0.544527
C67	C	1.088431	0.067134	0.455537
C68	C	1.088421	0.067132	0.343878
H69	H	1.081565	-0.786170	-0.161699
H70	H	1.083364	-0.694712	-0.161725
H71	H	1.093528	-0.171020	0.161770
H72	H	1.086099	-0.554254	-0.250918
H73	H	1.087882	-0.462798	-0.250934
C74	C	1.088877	-0.410143	0.276452
N75	N	1.088453	-0.431011	0.350350
H76	H	1.093526	-0.171062	-0.161814
H77	H	1.090803	-0.311487	0.250952
C78	C	1.081416	-0.793340	0.187352
N79	N	1.081009	-0.814226	0.261231
C80	C	1.085966	-0.561408	0.276485
N81	N	1.085556	-0.582281	0.350379
H82	H	1.095306	-0.079587	-0.161819
C83	C	1.095427	-0.072354	0.187233
N84	N	1.095830	-0.051466	0.261123
C85	C	1.090977	-0.304333	-0.276432
N86	N	1.091398	-0.283447	-0.350310
C87	C	1.083481	-0.687455	0.187342
N88	N	1.083894	-0.666565	0.261228
H89	H	1.087890	-0.462748	0.250991
H90	H	1.089044	-0.403005	-0.250945
