data_functionalizedCrystal
_audit_creation_method	'MofGen! by Chris Wilmer'
_symmetry_space_group_name_H-M	'P1'
_symmetry_Int_Tables_number	1
_symmetry_cell_setting	triclinic
loop_
_symmetry_equiv_pos_as_xyz
  x,y,z
_cell_length_a	17.699083
_cell_length_b	15.072220
_cell_length_c	17.699083
_cell_angle_alpha	90.002035
_cell_angle_beta	83.283015
_cell_angle_gamma	90.006459
loop_
_atom_site_label
_atom_site_type_symbol
_atom_site_fract_x
_atom_site_fract_y
_atom_site_fract_z
O1	O	1.004085	0.073660	0.095706
O2	O	0.783707	0.073689	0.108159
O3	O	0.900122	0.073666	-0.008257
O4	O	0.887670	0.073683	0.212122
O5	O	0.900093	-0.073899	-0.008250
O6	O	0.783678	-0.073876	0.108165
O7	O	1.004056	-0.073905	0.095713
Zn8	Zn	0.893863	-0.097320	0.101940
Zn9	Zn	0.893901	0.097104	0.101931
O10	O	0.887641	-0.073882	0.212128
C11	C	0.755495	-0.000090	0.107716
C12	C	0.671477	-0.000079	0.106377
N13	N	0.893842	-0.230009	0.101945
C14	C	0.622856	-0.000074	0.174710
C15	C	0.543913	-0.000085	0.173448
C16	C	0.513592	-0.000096	0.103852
C17	C	0.562219	-0.000103	0.035513
C18	C	0.641161	-0.000098	0.036776
C19	C	0.243856	-0.000126	0.030418
C20	C	0.164908	-0.000128	0.029160
C21	C	0.146608	-0.000113	0.167090
C22	C	0.225550	-0.000108	0.168353
C23	C	0.274170	-0.000120	0.100015
C24	C	0.359769	-0.000109	0.101384
C25	C	0.427995	-0.000100	0.102481
C26	C	0.893899	-0.589210	0.101928
C27	C	0.831399	-0.551591	0.164012
C28	C	0.831542	-0.448765	0.164238
C29	C	0.893870	-0.411006	0.101937
C30	C	0.972810	-0.448306	0.119040
C31	C	0.972460	-0.551164	0.119481
C32	C	0.878163	-0.551314	0.022557
C33	C	0.876350	-0.448450	0.023090
C34	C	0.893859	-0.310293	0.101940
C35	C	0.893915	-0.689923	0.101927
C36	C	1.032268	-0.000124	0.096156
C37	C	1.116286	-0.000130	0.097494
C38	C	0.899662	-0.000117	-0.036451
C39	C	0.898323	-0.000117	-0.120469
N40	N	0.893927	0.229792	0.101920
C41	C	0.966656	-0.000127	-0.169090
C42	C	0.965394	-0.000119	-0.248033
C43	C	0.895798	-0.000107	-0.278354
C44	C	0.827459	-0.000094	-0.229727
C45	C	0.828722	-0.000096	-0.150785
C46	C	0.822364	-0.000086	-0.548090
C47	C	0.821106	-0.000087	-0.627038
C48	C	0.959036	-0.000110	-0.645338
C49	C	0.960299	-0.000111	-0.566396
C50	C	0.891961	-0.000094	-0.517776
C51	C	0.893330	-0.000101	-0.432177
C52	C	0.894427	-0.000107	-0.363951
C53	C	0.888102	-0.000097	0.240322
C54	C	0.889440	-0.000091	0.324340
H55	H	0.647537	-0.000065	0.231384
C56	C	1.084623	0.075720	-0.160382
C57	C	1.043159	-0.000136	-0.135762
H58	H	1.131851	0.075719	-0.139804
H59	H	1.093649	0.075713	-0.214349
H60	H	1.056492	0.127175	-0.143678
H61	H	1.071288	-0.051591	-0.152471
H62	H	1.034135	-0.000136	-0.081784
C63	C	0.086759	0.075714	-0.052292
C64	C	0.131580	-0.000144	-0.047347
H65	H	0.066187	0.075706	-0.099524
H66	H	0.046509	0.075715	-0.011779
H67	H	0.117189	0.127168	-0.048940
H68	H	0.101148	-0.051598	-0.050693
H69	H	0.171835	-0.000153	-0.087872
C70	C	0.533753	-0.000056	0.309916
C71	C	0.490469	-0.000075	0.248563
H72	H	0.500757	-0.000046	0.356289
H73	H	0.564921	-0.051509	0.307544
H74	H	0.564927	0.051410	0.307528
H75	H	0.459298	-0.051545	0.250948
H76	H	0.459288	0.051383	0.250935
C77	C	0.343238	-0.075984	-0.048186
C78	C	0.297295	-0.000128	-0.044697
H79	H	0.376229	-0.075985	-0.094563
H80	H	0.372591	-0.075975	-0.006562
H81	H	0.312051	-0.127439	-0.045811
H82	H	0.328483	0.051327	-0.047066
H83	H	0.267940	-0.000130	-0.086332
H84	H	0.764429	-0.000079	-0.651721
H85	H	0.986348	-0.575143	0.177362
H86	H	0.537526	-0.000124	-0.021154
H87	H	0.680748	-0.000102	-0.018868
C88	C	0.704301	-0.486971	0.142030
C89	C	0.752320	-0.414715	0.150525
H90	H	0.655389	-0.465951	0.133572
H91	H	0.724868	-0.521859	0.099876
H92	H	0.700070	-0.522098	0.186889
H93	H	0.756555	-0.379591	0.105664
H94	H	0.731748	-0.379812	0.192683
C95	C	0.841078	-0.679262	0.243436
C96	C	0.844758	-0.586459	0.243084
H97	H	0.849333	-0.700786	0.292251
H98	H	0.792338	-0.697644	0.232049
H99	H	0.879078	-0.702293	0.206256
H100	H	0.806754	-0.563427	0.280261
H101	H	0.893504	-0.568069	0.254481
C102	C	0.978095	-0.511238	-0.075101
C103	C	0.939688	-0.584158	-0.039814
H104	H	1.016081	-0.531521	-0.113598
H105	H	0.942965	-0.474616	-0.097256
H106	H	1.001297	-0.478133	-0.038380
H107	H	0.916481	-0.617260	-0.076535
H108	H	0.974823	-0.620796	-0.017660
C109	C	0.691244	-0.000060	-0.203702
C110	C	0.750956	-0.000075	-0.263052
H111	H	0.644013	-0.000043	-0.224276
H112	H	0.694592	-0.051517	-0.173295
H113	H	0.694624	0.051402	-0.173291
H114	H	0.747578	-0.051540	-0.293460
H115	H	0.747606	0.051388	-0.293471
H116	H	1.021038	-0.000130	-0.287618
H117	H	0.772527	-0.576345	0.154012
H118	H	1.014680	-0.000120	-0.684934
C119	C	1.037447	-0.677667	0.060571
C120	C	1.037120	-0.584766	0.060756
H121	H	1.077365	-0.698406	0.024317
H122	H	1.045108	-0.698736	0.109675
H123	H	0.990091	-0.698861	0.047583
H124	H	1.084474	-0.563571	0.073750
H125	H	1.029465	-0.563687	0.011641
H126	H	0.918926	-0.422751	-0.025263
C127	C	0.783065	-0.363965	0.274168
C128	C	0.845086	-0.415528	0.243755
H129	H	0.791428	-0.343454	0.323262
H130	H	0.777629	-0.314627	0.241859
H131	H	0.738076	-0.398854	0.278018
H132	H	0.890075	-0.380638	0.239899
H133	H	0.850531	-0.464874	0.276072
H134	H	0.250232	-0.000095	0.225025
C135	C	0.750107	-0.075939	-0.051384
C136	C	0.753609	-0.000086	-0.097336
H137	H	0.703735	-0.075925	-0.018385
H138	H	0.752465	-0.127390	-0.082560
H139	H	0.791741	-0.075937	-0.022033
H140	H	0.711978	-0.000092	-0.126690
H141	H	0.751243	0.051379	-0.066156
C142	C	0.047212	0.075742	0.245689
C143	C	0.093160	-0.000109	0.242210
H144	H	0.014215	0.075742	0.292062
H145	H	0.078391	0.127194	0.243312
H146	H	0.017860	0.075722	0.204057
H147	H	0.122517	-0.000086	0.283840
H148	H	0.061978	-0.051575	0.244594
C149	C	1.006481	-0.360860	0.006754
C150	C	1.037092	-0.415284	0.059620
H151	H	1.046167	-0.340469	-0.029926
H152	H	0.970697	-0.393709	-0.017952
H153	H	0.981829	-0.311483	0.032288
H154	H	1.061740	-0.464664	0.034087
H155	H	1.072890	-0.382434	0.084329
H156	H	0.987034	-0.422535	0.176260
H157	H	0.821858	-0.577298	0.006074
H158	H	1.016971	-0.000126	-0.541714
H159	H	0.818282	-0.424072	0.010107
H160	H	0.766718	-0.000072	-0.508512
