data_functionalizedCrystal
_audit_creation_method	'MofGen! by Chris Wilmer'
_symmetry_space_group_name_H-M	'P1'
_symmetry_Int_Tables_number	1
_symmetry_cell_setting	triclinic
loop_
_symmetry_equiv_pos_as_xyz
  x,y,z
_cell_length_a	14.519710
_cell_length_b	14.519709
_cell_length_c	12.996460
_cell_angle_alpha	90.005823
_cell_angle_beta	90.007695
_cell_angle_gamma	96.319855
loop_
_atom_site_label
_atom_site_type_symbol
_atom_site_fract_x
_atom_site_fract_y
_atom_site_fract_z
O1	O	1.223852	-0.120893	-0.085547
O2	O	1.557186	0.212440	0.247787
O3	O	1.890519	0.545774	0.581120
O4	O	0.955375	-0.135130	-0.085554
O5	O	1.288709	0.198204	0.247779
O6	O	1.622042	0.531537	0.581113
O7	O	1.096732	0.006227	-0.085541
O8	O	1.430065	0.339560	0.247793
O9	O	1.763399	0.672894	0.581126
O10	O	1.082496	-0.262250	-0.085560
O11	O	1.415829	0.071084	0.247774
O12	O	1.749162	0.404417	0.581107
O13	O	1.096750	0.006235	0.085593
O14	O	1.430084	0.339569	0.418926
O15	O	1.763417	0.672902	0.752260
O16	O	0.955394	-0.135122	0.085580
O17	O	1.288727	0.198212	0.418913
O18	O	1.622060	0.531545	0.752247
O19	O	1.223871	-0.120885	0.085587
O20	O	1.557204	0.212448	0.418921
O21	O	1.890537	0.545782	0.752254
Cu22	Cu	1.089634	-0.128002	0.101209
Cu23	Cu	1.422967	0.205331	0.434543
Cu24	Cu	1.756300	0.538664	0.767876
Cu25	Cu	1.089612	-0.128012	-0.101176
Cu26	Cu	1.422945	0.205321	0.232157
Cu27	Cu	1.756279	0.538655	0.565491
O28	O	1.082514	-0.262242	0.085574
O29	O	1.415847	0.071092	0.418907
O30	O	1.749180	0.404425	0.752241
C31	C	0.921025	-0.134462	0.000012
C32	C	1.254358	0.198871	0.333346
C33	C	1.587691	0.532205	0.666679
C34	C	0.818643	-0.132474	0.000010
C35	C	1.151977	0.200859	0.333343
C36	C	1.485310	0.534193	0.666676
C37	C	1.096078	0.040591	0.000026
C38	C	1.429411	0.373924	0.333360
C39	C	1.762744	0.707258	0.666693
C40	C	1.094090	0.142972	0.000027
C41	C	1.427423	0.476306	0.333360
C42	C	1.760756	0.809639	0.666693
N43	N	1.089598	-0.128012	-0.243523
N44	N	1.422931	0.205321	0.089810
N45	N	1.756264	0.538655	0.423143
C46	C	1.258221	-0.121553	0.000019
C47	C	1.591554	0.211781	0.333352
C48	C	1.924888	0.545114	0.666686
C49	C	1.360602	-0.123541	0.000015
C50	C	1.693936	0.209793	0.333348
C51	C	2.027269	0.543126	0.666681
C52	C	1.735498	-0.130860	0.000014
C53	C	2.068832	0.202473	0.333347
C54	C	2.402165	0.535807	0.666680
C55	C	1.631190	-0.128828	0.000014
C56	C	1.964524	0.204506	0.333347
C57	C	2.297857	0.537839	0.666680
C58	C	1.548054	-0.127201	0.000013
C59	C	1.881387	0.206133	0.333346
C60	C	2.214720	0.539466	0.666680
C61	C	1.443739	-0.125168	0.000015
C62	C	1.777072	0.208166	0.333348
C63	C	2.110406	0.541499	0.666682
C64	C	1.083168	-0.296606	0.000005
C65	C	1.416501	0.036728	0.333338
C66	C	1.749835	0.370061	0.666671
C67	C	1.085156	-0.398987	-0.000002
C68	C	1.418490	-0.065653	0.333331
C69	C	1.751823	0.267680	0.666664
C70	C	1.086770	0.517868	-0.000000
C71	C	1.420103	0.851201	0.333333
C72	C	1.753437	1.184535	0.666667
C73	C	1.088803	0.413560	0.000008
C74	C	1.422136	0.746893	0.333341
C75	C	1.755469	1.080227	0.666674
C76	C	1.090430	0.330423	0.000014
C77	C	1.423763	0.663757	0.333348
C78	C	1.757096	0.997090	0.666681
C79	C	1.092463	0.226109	0.000020
C80	C	1.425796	0.559442	0.333354
C81	C	1.759129	0.892776	0.666687
C82	C	1.089600	-0.128013	-0.336629
C83	C	1.422934	0.205320	-0.003296
C84	C	1.756267	0.538654	0.330037
C85	C	1.089613	-0.128011	-0.453434
C86	C	1.422946	0.205322	-0.120101
C87	C	1.756280	0.538655	0.213232
C88	C	1.089628	-0.128005	-0.546533
C89	C	1.422962	0.205328	-0.213199
C90	C	1.756295	0.538662	0.120134
C91	C	1.089640	-0.128002	-0.663345
C92	C	1.422974	0.205332	-0.330012
C93	C	1.756307	0.538665	0.003322
N94	N	1.089656	-0.127995	0.243557
N95	N	1.422989	0.205338	0.576890
N96	N	1.756322	0.538671	0.910223
