data_functionalizedCrystal
_audit_creation_method	'MofGen! by Chris Wilmer'
_symmetry_space_group_name_H-M	'P1'
_symmetry_Int_Tables_number	1
_symmetry_cell_setting	triclinic
loop_
_symmetry_equiv_pos_as_xyz
  x,y,z
_cell_length_a	18.215407
_cell_length_b	12.759394
_cell_length_c	18.215399
_cell_angle_alpha	90.023313
_cell_angle_beta	90.019833
_cell_angle_gamma	90.015089
loop_
_atom_site_label
_atom_site_type_symbol
_atom_site_fract_x
_atom_site_fract_y
_atom_site_fract_z
Zn1	Zn	1.125124	-0.418265	0.416140
Zn2	Zn	1.458458	-0.084931	0.749473
Zn3	Zn	1.791791	0.248402	1.082806
Zn4	Zn	1.125055	-0.593962	0.293083
Zn5	Zn	1.458388	-0.260629	0.626417
Zn6	Zn	1.791721	0.072705	0.959750
Zn7	Zn	1.002057	-0.418299	0.293087
Zn8	Zn	1.335390	-0.084966	0.626420
Zn9	Zn	1.668724	0.248368	0.959754
Zn10	Zn	1.002045	-0.593904	0.416108
Zn11	Zn	1.335378	-0.260570	0.749442
Zn12	Zn	1.668711	0.072763	1.082775
O13	O	1.063570	-0.506107	0.354604
O14	O	1.396904	-0.172774	0.687938
O15	O	1.730237	0.160559	1.021271
O16	O	1.228099	-0.441581	0.399828
O17	O	1.561433	-0.108248	0.733161
O18	O	1.894766	0.225085	1.066494
O19	O	1.108715	-0.570699	0.190099
O20	O	1.442048	-0.237366	0.523433
O21	O	1.775381	0.095968	0.856766
O22	O	1.018416	-0.271273	0.309425
O23	O	1.351750	0.062060	0.642758
O24	O	1.685083	0.395393	0.976092
O25	O	1.228048	-0.570666	0.309419
O26	O	1.561382	-0.237332	0.642752
O27	O	1.894715	0.096001	0.976085
O28	O	1.108833	-0.271248	0.399831
O29	O	1.442167	0.062085	0.733164
O30	O	1.775500	0.395419	1.066498
O31	O	1.018349	-0.441640	0.190102
O32	O	1.351682	-0.108307	0.523435
O33	O	1.685015	0.225027	0.856769
O34	O	0.899071	-0.441583	0.309394
O35	O	1.232404	-0.108250	0.642728
O36	O	1.565738	0.225083	0.976061
O37	O	1.018396	-0.570566	0.519097
O38	O	1.351729	-0.237233	0.852430
O39	O	1.685062	0.096101	1.185763
O40	O	0.899062	-0.570599	0.399778
O41	O	1.232395	-0.237266	0.733111
O42	O	1.565729	0.096067	1.066444
O43	O	1.108822	-0.441525	0.519120
O44	O	1.442155	-0.108191	0.852453
O45	O	1.775488	0.225142	1.185786
O46	O	1.108703	-0.740975	0.309388
O47	O	1.442036	-0.407642	0.642721
O48	O	1.775370	-0.074309	0.976055
O49	O	1.018328	-0.740932	0.399774
O50	O	1.351661	-0.407599	0.733107
O51	O	1.684995	-0.074266	1.066441
C52	C	0.872364	-0.506089	0.354583
C53	C	1.205697	-0.172756	0.687917
C54	C	1.539031	0.160577	1.021250
C55	C	0.790565	-0.506107	0.354592
C56	C	1.123898	-0.172774	0.687925
C57	C	1.457232	0.160560	1.021258
C58	C	0.602386	-0.573391	0.401595
C59	C	0.935719	-0.240058	0.734929
C60	C	1.269052	0.093275	1.068262
C61	C	0.525527	-0.573395	0.401604
C62	C	0.858860	-0.240061	0.734938
C63	C	1.192194	0.093272	1.068271
C64	C	0.525507	-0.438843	0.307630
C65	C	0.858840	-0.105509	0.640963
C66	C	1.192173	0.227824	0.974296
C67	C	0.602364	-0.438835	0.307625
C68	C	0.935697	-0.105501	0.640958
C69	C	1.269031	0.227832	0.974292
C70	C	0.640802	-0.506115	0.354607
C71	C	0.974135	-0.172782	0.687940
C72	C	1.307468	0.160552	1.021273
C73	C	0.487085	-0.506126	0.354621
C74	C	0.820419	-0.172793	0.687954
C75	C	1.153752	0.160541	1.021287
C76	C	0.403752	-0.506129	0.354630
C77	C	0.737085	-0.172796	0.687964
C78	C	1.070418	0.160537	1.021297
C79	C	0.724141	-0.506111	0.354598
C80	C	1.057474	-0.172778	0.687931
C81	C	1.390807	0.160556	1.021265
C82	C	1.063527	-0.779075	0.354593
C83	C	1.396860	-0.445742	0.687927
C84	C	1.730193	-0.112408	1.021260
C85	C	1.063575	-0.895852	0.354613
C86	C	1.396909	-0.562518	0.687946
C87	C	1.730242	-0.229185	1.021280
C88	C	1.157839	-1.115266	0.260595
C89	C	1.491172	-0.781933	0.593928
C90	C	1.824506	-0.448600	0.927262
C91	C	1.204910	-1.060390	0.213566
C92	C	1.538243	-0.727057	0.546899
C93	C	1.871577	-0.393724	0.880233
C94	C	1.204872	-0.950669	0.213551
C95	C	1.538205	-0.617335	0.546885
C96	C	1.871539	-0.284002	0.880218
C97	C	1.157756	-0.895821	0.260570
C98	C	1.491089	-0.562487	0.593903
C99	C	1.824423	-0.229154	0.927236
C100	C	1.110685	-0.950697	0.307599
C101	C	1.444018	-0.617364	0.640932
C102	C	1.777351	-0.284030	0.974265
C103	C	1.110730	-1.060421	0.307610
C104	C	1.444063	-0.727088	0.640943
C105	C	1.777396	-0.393754	0.974276
C106	C	1.016504	-0.950728	0.401642
C107	C	1.349838	-0.617394	0.734975
C108	C	1.683171	-0.284061	1.068309
C109	C	1.016545	-1.060449	0.401662
C110	C	1.349878	-0.727116	0.734995
C111	C	1.683212	-0.393783	1.068328
C112	C	0.969388	-0.895880	0.448660
C113	C	1.302722	-0.562546	0.781994
C114	C	1.636055	-0.229213	1.115327
C115	C	0.922320	-0.950756	0.495694
C116	C	1.255653	-0.617423	0.829027
C117	C	1.588986	-0.284089	1.162361
C118	C	0.922360	-1.060484	0.495707
C119	C	1.255694	-0.727151	0.829041
C120	C	1.589027	-0.393818	1.162374
C121	C	0.969474	-1.115325	0.448691
C122	C	1.302807	-0.781992	0.782024
C123	C	1.636141	-0.448659	1.115357
C124	C	1.255523	-0.506126	0.354626
C125	C	1.588856	-0.172793	0.687959
C126	C	1.922190	0.160540	1.021293
C127	C	1.337322	-0.506134	0.354635
C128	C	1.670655	-0.172801	0.687969
C129	C	2.003989	0.160532	1.021302
C130	C	1.063615	-0.506035	0.546558
C131	C	1.396948	-0.172702	0.879891
C132	C	1.730282	0.160632	1.213224
C133	C	1.063634	-0.506004	0.628356
C134	C	1.396967	-0.172671	0.961690
C135	C	1.730301	0.160663	1.295023
C136	C	1.063634	-0.232074	0.354632
C137	C	1.396967	0.101259	0.687965
C138	C	1.730301	0.434593	1.021299
C139	C	1.063661	-0.115297	0.354644
C140	C	1.396994	0.218036	0.687977
C141	C	1.730328	0.551369	1.021310
C142	C	1.063568	-0.506104	0.163398
C143	C	1.396901	-0.172770	0.496732
C144	C	1.730235	0.160563	0.830065
C145	C	1.063691	-0.505839	0.081600
C146	C	1.397025	-0.172505	0.414933
C147	C	1.730358	0.160828	0.748266
C148	C	1.110736	-0.438749	0.816564
C149	C	1.444069	-0.105416	1.149897
C150	C	1.777403	0.227917	1.483230
C151	C	1.110745	-0.438719	0.893422
C152	C	1.444078	-0.105386	1.226756
C153	C	1.777411	0.227948	1.560089
C154	C	1.016584	-0.573096	0.893387
C155	C	1.349918	-0.239763	1.226720
C156	C	1.683251	0.093571	1.560054
C157	C	1.016572	-0.573121	0.816530
C158	C	1.349906	-0.239787	1.149863
C159	C	1.683239	0.093546	1.483196
C160	C	1.063652	-0.505949	0.778120
C161	C	1.396986	-0.172616	1.111453
C162	C	1.730319	0.160718	1.444787
C163	C	1.063673	-0.505894	0.931836
C164	C	1.397006	-0.172560	1.265170
C165	C	1.730340	0.160773	1.598503
C166	C	1.063682	-0.505861	1.015170
C167	C	1.397016	-0.172528	1.348503
C168	C	1.730349	0.160806	1.681837
C169	C	1.063642	-0.505980	0.694781
C170	C	1.396976	-0.172647	1.028114
C171	C	1.730309	0.160687	1.361448
H172	H	0.494201	-0.384067	0.269378
H173	H	0.827535	-0.050734	0.602711
H174	H	1.160868	0.282600	0.936045
F175	F	0.643251	-0.367221	0.257614
F176	F	0.976585	-0.033887	0.590948
F177	F	1.309918	0.299446	0.924281
F178	F	1.160862	-0.367203	0.934334
F179	F	1.494196	-0.033869	1.267667
F180	F	1.827529	0.299464	1.601000
F181	F	0.484645	-0.644997	0.451618
F182	F	0.817979	-0.311664	0.784951
F183	F	1.151312	0.021669	1.118284
F184	F	0.872255	-1.118879	0.545759
F185	F	1.205589	-0.785546	0.879092
F186	F	1.538922	-0.452213	1.212425
F187	F	0.966484	-0.644585	0.934272
F188	F	1.299818	-0.311252	1.267605
F189	F	1.633151	0.022082	1.600939
H190	H	0.978226	-0.627842	0.785228
H191	H	1.311560	-0.294508	1.118561
H192	H	1.644893	0.038825	1.451895
F193	F	0.969307	-1.232100	0.448486
F194	F	1.302641	-0.898767	0.781820
F195	F	1.635974	-0.565434	1.115153
F196	F	1.157660	-1.232041	0.260383
F197	F	1.490993	-0.898708	0.593716
F198	F	1.824327	-0.565375	0.927049
F199	F	1.255053	-1.118770	0.163529
F200	F	1.588386	-0.785437	0.496863
F201	F	1.921719	-0.452104	0.830196
H202	H	1.243198	-0.905988	0.175254
H203	H	1.576532	-0.572655	0.508587
H204	H	1.909865	-0.239322	0.841920
F205	F	0.643291	-0.644994	0.451599
F206	F	0.976625	-0.311661	0.784933
F207	F	1.309958	0.021673	1.118266
H208	H	1.157723	-0.806480	0.260547
H209	H	1.491056	-0.473146	0.593881
H210	H	1.824389	-0.139813	0.927214
F211	F	0.969494	-0.779104	0.448789
F212	F	1.302827	-0.445771	0.782122
F213	F	1.636160	-0.112438	1.115455
F214	F	0.872179	-0.892378	0.545726
F215	F	1.205512	-0.559044	0.879059
F216	F	1.538845	-0.225711	1.212392
F217	F	1.160841	-0.367257	0.775688
F218	F	1.494174	-0.033923	1.109021
F219	F	1.827507	0.299410	1.442354
