data_functionalizedCrystal
_audit_creation_method	'MofGen! by Chris Wilmer'
_symmetry_space_group_name_H-M	'P1'
_symmetry_Int_Tables_number	1
_symmetry_cell_setting	triclinic
loop_
_symmetry_equiv_pos_as_xyz
  x,y,z
_cell_length_a	15.698487
_cell_length_b	27.440280
_cell_length_c	15.698487
_cell_angle_alpha	120.006758
_cell_angle_beta	90.001637
_cell_angle_gamma	119.989430
loop_
_atom_site_label
_atom_site_type_symbol
_atom_site_fract_x
_atom_site_fract_y
_atom_site_fract_z
Zr1	Zr	0.820800	-0.533391	-0.111845
O2	O	0.684815	-0.635056	-0.247881
O3	O	0.862464	-0.431727	-0.070130
O4	O	0.862498	-0.533389	-0.247858
O5	O	0.684780	-0.533396	0.070027
O6	O	1.002682	-0.533387	-0.247853
O7	O	0.684782	-0.533394	-0.070154
O8	O	1.002622	-0.351532	0.070069
O9	O	0.684841	-0.715250	-0.247894
O10	O	0.984879	-0.473542	-0.052350
O11	O	0.880260	-0.473544	0.052262
O12	O	0.880299	-0.593238	-0.156989
O13	O	0.775680	-0.593241	-0.052378
Zr14	Zr	1.044376	-0.533391	0.111736
Zr15	Zr	1.044378	-0.533388	-0.111836
Zr16	Zr	0.820798	-0.533394	0.111728
Zr17	Zr	0.820840	-0.661292	-0.111866
Zr18	Zr	1.044336	-0.405490	0.111757
O19	O	1.002712	-0.635056	0.070022
O20	O	1.002714	-0.635051	-0.247869
O21	O	0.684813	-0.635060	0.070011
O22	O	1.180361	-0.431727	0.247773
O23	O	1.180363	-0.431723	-0.070119
O24	O	0.862462	-0.431731	0.247761
O25	O	1.180396	-0.533387	-0.070136
O26	O	1.002678	-0.533394	0.247749
O27	O	0.862494	-0.533396	0.247744
O28	O	1.180394	-0.533389	0.070046
O29	O	0.862555	-0.715248	-0.247888
O30	O	1.002621	-0.351535	0.247780
O31	O	1.180335	-0.351532	0.247786
O32	O	1.180337	-0.351530	0.070076
O33	O	0.684839	-0.715253	-0.070184
O34	O	0.862554	-0.715250	-0.070177
O35	O	0.984877	-0.473544	0.156881
O36	O	1.089496	-0.473542	0.052269
O37	O	0.984916	-0.593238	-0.052370
O38	O	0.880298	-0.593241	0.052242
C39	C	0.932537	-0.373407	-0.000028
C40	C	0.932520	-0.319109	-0.000019
C41	C	1.009785	-0.040230	0.077193
C42	C	1.009778	-0.091251	0.077196
O43	O	1.075462	-0.080074	0.142863
N44	N	0.932555	-0.160941	-0.000038
C45	C	0.855339	-0.179610	-0.077286
O46	O	0.789654	-0.243572	-0.142980
C47	C	0.855351	-0.128589	-0.077293
C48	C	0.932573	-0.058899	-0.000048
C49	C	1.087002	0.029457	0.154431
C50	C	1.087007	0.080474	0.154428
C51	C	1.009795	0.061805	0.077188
C52	C	0.932578	-0.007881	-0.000050
C53	C	0.778140	-0.147259	-0.154545
C54	C	0.778158	-0.096231	-0.154545
C55	C	0.855381	-0.026540	-0.077300
C56	C	0.855371	0.024467	-0.077294
N57	N	0.932595	0.094157	-0.000060
C58	C	1.009806	0.112826	0.077181
C59	C	0.855321	-0.286754	-0.077267
C60	C	0.855305	-0.337774	-0.077257
C61	C	1.009746	-0.249411	0.077225
C62	C	1.009757	-0.198391	0.077218
C63	C	0.932545	-0.217064	-0.000033
C64	C	1.009811	0.219963	0.077170
C65	C	1.009806	0.270981	0.077163
C66	C	0.855369	0.182615	-0.077321
C67	C	0.855370	0.131601	-0.077311
C68	C	0.932599	0.150280	-0.000061
O69	O	0.789724	0.013342	-0.142929
O70	O	1.075488	0.176788	0.142855
C71	C	0.652926	-0.533395	-0.000064
C72	C	0.558011	-0.533396	-0.000068
C73	C	0.480929	-0.533398	-0.000066
C74	C	0.384232	-0.533394	-0.000054
C75	C	1.212250	-0.533388	-0.000044
C76	C	1.307165	-0.533386	-0.000040
C77	C	0.932623	0.306620	-0.000078
C78	C	0.932594	0.252312	-0.000078
C79	C	0.932590	-0.533388	-0.279709
C80	C	0.932591	-0.533386	-0.374622
C81	C	0.932591	-0.533384	-0.451701
C82	C	0.932590	-0.533388	-0.548405
C83	C	0.932586	-0.533395	0.279601
C84	C	0.932585	-0.533396	0.374514
C85	C	1.212199	-0.373403	-0.000017
C86	C	1.307097	-0.319104	-0.000005
C87	C	0.932535	-0.373410	0.279628
C88	C	0.932517	-0.319114	0.374549
C89	C	1.212197	-0.373407	0.279638
C90	C	1.307094	-0.319109	0.374563
C91	C	0.652979	-0.693376	-0.279746
C92	C	0.558082	-0.747674	-0.374671
C93	C	0.652977	-0.693380	-0.000091
C94	C	0.558079	-0.747679	-0.000103
C95	C	0.932641	-0.693372	-0.279736
C96	C	0.932659	-0.747668	-0.374657
C97	C	1.297053	-0.293605	-0.054619
C98	C	1.386211	-0.242592	-0.054628
C99	C	1.485412	-0.217077	-0.000017
C100	C	1.495454	-0.242581	0.054599
C101	C	1.406297	-0.293596	0.054601
C102	C	0.987118	-0.293616	0.473745
C103	C	0.987097	-0.242606	0.562942
C104	C	0.932481	-0.217092	0.552942
C105	C	0.877874	-0.242595	0.453735
C106	C	0.877889	-0.293608	0.364540
C107	C	1.406278	-0.293609	0.364534
C108	C	1.495452	-0.242598	0.453718
C109	C	1.485440	-0.217084	0.552929
C110	C	1.386246	-0.242590	0.562955
C111	C	1.297074	-0.293603	0.473773
C112	C	0.458898	-0.773180	-0.364642
C113	C	0.369724	-0.824207	-0.453826
C114	C	0.379736	-0.849723	-0.553037
C115	C	0.478930	-0.824215	-0.563063
C116	C	0.568102	-0.773192	-0.473881
C117	C	0.568123	-0.773183	0.054501
C118	C	0.478966	-0.824210	0.054486
C119	C	0.379765	-0.849727	-0.000129
C120	C	0.369722	-0.824220	-0.054740
C121	C	0.458879	-0.773198	-0.054730
C122	C	0.987286	-0.773167	-0.364623
C123	C	0.987323	-0.824177	-0.453803
C124	C	0.932727	-0.849691	-0.553017
C125	C	0.878098	-0.824188	-0.563049
C126	C	0.878068	-0.773175	-0.473870
H127	H	1.149882	0.044670	0.217331
H128	H	0.307176	-0.891273	-0.000128
H129	H	1.576235	-0.221799	0.099061
H130	H	0.648890	-0.752411	0.098982
H131	H	1.031806	-0.844936	-0.445615
H132	H	1.558000	-0.175537	-0.000026
H133	H	0.487162	-0.844969	0.098961
H134	H	0.833580	-0.752420	-0.482054
H135	H	0.450686	-0.752434	-0.099192
H136	H	0.288964	-0.844967	-0.445642
H137	H	0.932760	-0.891229	-0.625624
H138	H	1.031744	-0.752401	-0.283847
H139	H	0.792411	-0.394516	-0.140146
H140	H	1.031569	-0.221848	0.643711
H141	H	0.932477	-0.175555	0.625578
H142	H	0.307118	-0.891269	-0.625647
H143	H	0.792463	0.074854	-0.140185
H144	H	0.288941	-0.845005	-0.099205
H145	H	1.414490	-0.314351	0.099080
H146	H	0.833648	-0.844970	-0.643840
H147	H	1.072616	-0.234218	0.140118
H148	H	0.648860	-0.752425	-0.482059
H149	H	1.072691	0.327728	0.140070
H150	H	0.792502	0.167424	-0.140205
H151	H	0.833407	-0.221814	0.445608
H152	H	1.576212	-0.221837	0.445535
H153	H	1.216286	-0.314379	-0.099103
H154	H	0.833430	-0.314361	0.283774
H155	H	1.031593	-0.314384	0.481908
H156	H	1.072698	0.235182	0.140075
H157	H	1.378014	-0.221833	-0.099102
H158	H	0.450726	-0.752407	-0.283868
H159	H	1.072639	-0.141648	0.140118
H160	H	1.149892	0.137216	0.217326
H161	H	0.715264	-0.203996	-0.217453
H162	H	0.792438	-0.301968	-0.140173
H163	H	1.216317	-0.314359	0.481953
H164	H	1.414450	-0.314375	0.283760
H165	H	1.558058	-0.175546	0.625538
H166	H	1.378109	-0.221809	0.643745
H167	H	0.715284	-0.111443	-0.217457
H168	H	0.487070	-0.844996	-0.643852
