data_functionalizedCrystal
_audit_creation_method	'MofGen! by Chris Wilmer'
_symmetry_space_group_name_H-M	'P1'
_symmetry_Int_Tables_number	1
_symmetry_cell_setting	triclinic
loop_
_symmetry_equiv_pos_as_xyz
  x,y,z
_cell_length_a	14.971482
_cell_length_b	16.992695
_cell_length_c	14.048226
_cell_angle_alpha	89.993436
_cell_angle_beta	89.994098
_cell_angle_gamma	87.140416
loop_
_atom_site_label
_atom_site_type_symbol
_atom_site_fract_x
_atom_site_fract_y
_atom_site_fract_z
O1	O	1.194128	0.102176	-0.079149
O2	O	1.694128	0.602176	0.420851
O3	O	0.934587	0.114416	-0.079154
O4	O	1.434587	0.614416	0.420846
O5	O	1.063317	-0.005848	-0.079144
O6	O	1.563317	0.494152	0.420856
O7	O	1.065398	0.222440	-0.079159
O8	O	1.565398	0.722440	0.420841
O9	O	1.063300	-0.005855	0.079177
O10	O	1.563300	0.494145	0.579177
O11	O	0.934570	0.114409	0.079167
O12	O	1.434570	0.614409	0.579167
O13	O	1.194111	0.102169	0.079172
O14	O	1.694111	0.602169	0.579172
Zn15	Zn	1.064338	0.108288	0.104307
Zn16	Zn	1.564338	0.608288	0.604307
Zn17	Zn	1.064360	0.108297	-0.104289
Zn18	Zn	1.564360	0.608297	0.395711
O19	O	1.065381	0.222432	0.079162
O20	O	1.565381	0.722432	0.579162
C21	C	0.901216	0.113866	0.000006
C22	C	1.401216	0.613866	0.500006
C23	C	0.801803	0.112227	0.000004
C24	C	1.301803	0.612227	0.500004
C25	C	0.755095	0.111451	0.086306
C26	C	1.255095	0.611451	0.586306
C27	C	0.661688	0.109899	0.086308
C28	C	1.161688	0.609899	0.586308
C29	C	0.614990	0.109128	0.000006
C30	C	1.114990	0.609128	0.500006
C31	C	0.661704	0.109901	-0.086303
C32	C	1.161704	0.609901	0.413697
C33	C	0.755111	0.111448	-0.086303
C34	C	1.255111	0.611448	0.413697
C35	C	0.467016	0.106679	-0.086297
C36	C	0.967016	0.606679	0.413703
C37	C	0.373603	0.105134	-0.086297
C38	C	0.873603	0.605134	0.413703
C39	C	0.373593	0.105130	0.086314
C40	C	0.873593	0.605130	0.586314
C41	C	0.466999	0.106677	0.086314
C42	C	0.966999	0.606677	0.586314
C43	C	0.513708	0.107451	0.000005
C44	C	1.013708	0.607451	0.500005
C45	C	1.060632	-0.035066	0.000016
C46	C	1.560632	0.464934	0.500016
C47	C	1.052645	-0.122118	0.000016
C48	C	1.552645	0.377882	0.500016
C49	C	1.129709	-0.172287	0.000018
C50	C	1.629709	0.327713	0.500018
C51	C	1.122199	-0.254080	0.000009
C52	C	1.622199	0.245920	0.500009
C53	C	1.037624	-0.285703	0.000004
C54	C	1.537624	0.214297	0.500004
C55	C	0.960554	-0.235528	-0.000001
C56	C	1.460554	0.264472	0.499999
C57	C	0.968065	-0.153736	0.000002
C58	C	1.468065	0.346264	0.500002
C59	C	1.006494	-0.529330	-0.000009
C60	C	1.506494	-0.029330	0.499991
C61	C	0.998989	-0.611128	-0.000009
C62	C	1.498989	-0.111128	0.499991
C63	C	1.160636	-0.629675	-0.000001
C64	C	1.660636	-0.129675	0.499999
C65	C	1.168139	-0.547881	0.000008
C66	C	1.668139	-0.047881	0.500008
C67	C	1.091069	-0.497713	-0.000003
C68	C	1.591069	0.002287	0.499997
N69	N	1.029945	-0.369309	-0.000002
N70	N	1.529945	0.130691	0.499998
N71	N	1.098748	-0.414108	-0.000003
N72	N	1.598748	0.085892	0.499997
C73	C	1.227483	0.102719	0.000010
C74	C	1.727483	0.602719	0.500010
C75	C	1.326895	0.104358	0.000005
C76	C	1.826895	0.604358	0.500005
C77	C	1.068067	0.251651	-0.000001
C78	C	1.568067	0.751651	0.499999
C79	C	1.076054	0.338703	-0.000006
C80	C	1.576054	0.838703	0.499994
N81	N	1.064329	0.108281	0.246667
N82	N	1.564329	0.608281	0.746667
N83	N	1.064376	0.108298	-0.246649
N84	N	1.564376	0.608298	0.253351
C85	C	1.121351	0.055050	0.296490
C86	C	1.621351	0.555050	0.796490
C87	C	1.121357	0.055050	0.396147
C88	C	1.621357	0.555050	0.896147
C89	C	1.064345	0.108284	0.445981
C90	C	1.564345	0.608284	0.945981
C91	C	1.007317	0.161518	0.396151
C92	C	1.507317	0.661518	0.896151
C93	C	1.007307	0.161514	0.296495
C94	C	1.507307	0.661514	0.796495
C95	C	1.007343	0.161523	0.603866
C96	C	1.507343	0.661523	1.103866
C97	C	1.007354	0.161529	0.703528
C98	C	1.507354	0.661529	1.203528
C99	C	1.121394	0.055059	0.703517
C100	C	1.621394	0.555059	1.203517
C101	C	1.121384	0.055055	0.603862
C102	C	1.621384	0.555055	1.103862
C103	C	1.064356	0.108290	0.554039
C104	C	1.564356	0.608290	1.054039
H105	H	0.793139	0.112081	-0.156579
H106	H	1.293139	0.612081	0.343421
Cl107	Cl	0.909605	-0.466272	-0.000025
Cl108	Cl	1.409605	0.033728	0.499975
Cl109	Cl	0.892658	-0.650881	-0.000009
Cl110	Cl	1.392658	-0.150881	0.499991
Cl111	Cl	0.854230	-0.275282	-0.000019
Cl112	Cl	1.354230	0.224718	0.499981
H113	H	0.623663	0.109254	0.156583
H114	H	1.123663	0.609254	0.656583
Cl115	Cl	0.935638	0.228439	0.458797
Cl116	Cl	1.435638	0.728439	0.958797
Cl117	Cl	1.193062	-0.011864	0.541212
Cl118	Cl	1.693062	0.488136	1.041212
Cl119	Cl	1.236038	-0.132541	0.000034
Cl120	Cl	1.736038	0.367459	0.500034
H121	H	1.167781	0.011703	0.255922
H122	H	1.667781	0.511703	0.755922
Cl123	Cl	0.314898	0.104162	-0.194792
Cl124	Cl	0.814898	0.604162	0.305208
H125	H	0.960927	0.204877	0.744098
H126	H	1.460927	0.704877	1.244098
Cl127	Cl	0.935615	0.228433	0.233862
Cl128	Cl	1.435615	0.728433	0.733862
H129	H	0.793110	0.112085	0.156584
H130	H	1.293110	0.612085	0.656584
H131	H	1.184953	-0.294926	0.000013
H132	H	1.684953	0.205074	0.500013
Cl133	Cl	0.935647	0.228447	0.541235
Cl134	Cl	1.435647	0.728447	1.041235
Cl135	Cl	0.525734	0.107651	-0.194801
Cl136	Cl	1.025734	0.607651	0.305199
Cl137	Cl	1.193085	-0.011862	0.766155
Cl138	Cl	1.693085	0.488138	1.266155
H139	H	0.623676	0.109268	-0.156571
H140	H	1.123676	0.609268	0.343429
Cl141	Cl	1.274466	-0.508133	-0.000017
Cl142	Cl	1.774466	-0.008133	0.499983
H143	H	0.905310	-0.112888	-0.000001
H144	H	1.405310	0.387112	0.499999
Cl145	Cl	1.257517	-0.692748	0.000010
Cl146	Cl	1.757517	-0.192748	0.500010
H147	H	1.167789	0.011705	0.436712
H148	H	1.667789	0.511705	0.936712
H149	H	0.335559	0.104499	0.156590
H150	H	0.835559	0.604499	0.656590
Cl151	Cl	0.525704	0.107655	0.194809
Cl152	Cl	1.025704	0.607655	0.694809
