data_functionalizedCrystal
_audit_creation_method	'MofGen! by Chris Wilmer'
_symmetry_space_group_name_H-M	'P1'
_symmetry_Int_Tables_number	1
_symmetry_cell_setting	triclinic
loop_
_symmetry_equiv_pos_as_xyz
  x,y,z
_cell_length_a	23.532407
_cell_length_b	23.532409
_cell_length_c	14.185569
_cell_angle_alpha	76.932260
_cell_angle_beta	103.075328
_cell_angle_gamma	82.849119
loop_
_atom_site_label
_atom_site_type_symbol
_atom_site_fract_x
_atom_site_fract_y
_atom_site_fract_z
O1	O	0.742288	0.082100	-0.083288
O2	O	0.576421	0.092108	-0.083316
O3	O	0.664355	0.004172	-0.083302
O4	O	0.654354	0.170035	-0.083302
O5	O	0.690332	-0.021802	0.083536
O6	O	0.602397	0.066134	0.083522
O7	O	0.768265	0.056126	0.083551
Cu8	Cu	0.687703	0.058758	0.098770
Cu9	Cu	0.656983	0.089475	-0.098536
O10	O	0.680330	0.144061	0.083537
C11	C	0.677089	-0.030030	0.000114
C12	C	0.676321	-0.093246	0.000107
C13	C	0.568192	0.078866	0.000099
C14	C	0.504974	0.078102	0.000088
C15	C	0.658901	-0.352332	-0.090842
C16	C	0.659613	-0.292932	-0.090842
O17	O	0.647959	-0.250166	-0.168183
N18	N	0.674125	-0.277388	0.000103
C19	C	0.687933	-0.321250	0.091055
O20	O	0.700343	-0.302575	0.168411
C21	C	0.687225	-0.380650	0.091054
C22	C	0.672706	-0.396188	0.000103
C23	C	0.644384	-0.367872	-0.181786
C24	C	0.643672	-0.427268	-0.181785
C25	C	0.657476	-0.471124	-0.090841
C26	C	0.671993	-0.455584	0.000103
C27	C	0.701036	-0.424510	0.182004
C28	C	0.700328	-0.483913	0.181995
C29	C	0.685809	-0.499451	0.091044
C30	C	0.685086	-0.558836	0.091048
N31	N	0.670573	-0.574380	0.000103
C32	C	0.656768	-0.530524	-0.090842
C33	C	0.689419	-0.196506	0.091050
C34	C	0.690123	-0.137107	0.091052
C35	C	0.661804	-0.108793	-0.090845
C36	C	0.661096	-0.168193	-0.090846
C37	C	0.674907	-0.212049	0.000105
C38	C	0.655273	-0.655261	-0.090834
C39	C	0.654559	-0.714663	-0.090825
C40	C	0.682881	-0.742972	0.091071
C41	C	0.683591	-0.683575	0.091063
C42	C	0.669788	-0.639719	0.000102
O43	O	0.696735	-0.601634	0.168350
O44	O	0.644368	-0.549209	-0.168185
C45	C	0.105878	0.125329	0.000134
C46	C	0.046479	0.124616	0.000140
O47	O	0.009740	0.168396	0.000177
N48	N	0.023852	0.072340	0.000138
C49	C	0.060629	0.020772	0.000140
O50	O	0.035929	-0.023759	0.000140
C51	C	0.120029	0.021484	0.000141
C52	C	0.142650	0.073765	0.000133
C53	C	0.128501	0.177605	0.000127
C54	C	0.187895	0.178318	0.000119
C55	C	0.224668	0.126753	0.000118
C56	C	0.202045	0.074477	0.000125
C57	C	0.156806	-0.030085	0.000151
C58	C	0.216209	-0.029369	0.000152
C59	C	0.238831	0.022912	0.000144
C60	C	0.298213	0.023625	0.000116
N61	N	0.320839	0.075901	0.000118
C62	C	0.284067	0.127465	0.000119
C63	C	-0.064113	0.019280	0.000140
C64	C	-0.123512	0.018569	0.000132
C65	C	-0.137659	0.122413	0.000133
C66	C	-0.078260	0.123125	0.000134
C67	C	-0.041486	0.071556	0.000142
C68	C	0.408801	0.128958	0.000101
C69	C	0.468201	0.129666	0.000089
C70	C	0.482343	0.025821	0.000093
C71	C	0.422947	0.025113	0.000100
C72	C	0.386178	0.076686	0.000107
O73	O	0.334986	-0.020132	0.000084
O74	O	0.308777	0.171986	0.000132
C75	C	0.776493	0.069367	0.000133
C76	C	0.839711	0.070133	0.000138
C77	C	0.667597	0.178264	0.000118
C78	C	0.668363	0.241481	0.000119
N79	N	0.709314	0.037153	0.237545
N80	N	0.635376	0.111076	-0.237310
C81	C	0.571882	0.174528	0.605173
C82	C	0.588256	0.158166	0.710197
C83	C	0.666138	0.080328	0.710170
C84	C	0.649769	0.096681	0.605144
C85	C	0.602641	0.143782	0.552654
C86	C	0.680527	0.065936	0.552625
C87	C	0.664161	0.082290	0.447608
C88	C	0.617036	0.129390	0.395110
C89	C	0.586274	0.160137	0.447637
C90	C	0.727658	0.018838	0.605117
C91	C	0.758416	-0.011908	0.552598
C92	C	0.742047	0.004444	0.447579
C93	C	0.694922	0.051544	0.395081
C94	C	0.772809	-0.026303	0.395052
C95	C	0.756442	-0.009948	0.290035
C96	C	0.678556	0.067898	0.290064
H97	H	0.644033	-0.619559	-0.164903
H98	H	0.533502	0.212878	0.562433
O99	O	0.697711	-0.668579	0.179500
C100	C	0.709715	-0.720024	0.259769
H101	H	0.723102	-0.760673	0.233120
H102	H	0.668286	-0.724467	0.287693
C103	C	0.744265	-0.665382	0.378458
C104	C	0.760712	-0.715307	0.345729
H105	H	0.775720	-0.662472	0.431485
H106	H	0.736175	-0.630721	0.324381
H107	H	0.709740	-0.669091	0.401722
H108	H	0.795231	-0.711594	0.322455
H109	H	0.768808	-0.749967	0.399805
H110	H	0.563205	0.183208	0.752953
H111	H	-0.167609	0.164399	0.000139
H112	H	0.246148	-0.071364	0.000159
H113	H	-0.141928	-0.024001	0.000123
O114	O	0.715190	-0.409533	0.270445
C115	C	0.727215	-0.460988	0.350701
H116	H	0.740575	-0.501630	0.324016
H117	H	0.685805	-0.465432	0.378681
C118	C	0.761833	-0.406371	0.469396
C119	C	0.778247	-0.456288	0.436622
H120	H	0.793310	-0.403472	0.522399
H121	H	0.753730	-0.371705	0.415327
H122	H	0.727324	-0.410081	0.492706
H123	H	0.812751	-0.452574	0.413302
H124	H	0.786357	-0.490955	0.490690
O125	O	0.711871	0.034512	0.761057
C126	C	0.698918	-0.017823	0.735411
H127	H	0.665087	-0.005764	0.659164
H128	H	0.679876	-0.044489	0.794518
C129	C	0.797746	-0.070071	0.824197
C130	C	0.756198	-0.055260	0.730545
H131	H	0.833079	-0.093165	0.821199
H132	H	0.806473	-0.034812	0.841479
H133	H	0.781870	-0.092289	0.873443
H134	H	0.772071	-0.033035	0.681304
H135	H	0.747475	-0.090515	0.713255
H136	H	-0.034176	-0.022715	0.000137
H137	H	0.694118	-0.778690	0.165116
O138	O	0.490087	0.180497	0.000128
C139	C	0.444886	0.225858	0.000109
H140	H	0.409542	0.205208	0.031701
H141	H	0.423923	0.254207	-0.079931
C142	C	0.514984	0.290368	0.026734
C143	C	0.471576	0.265005	0.065543
H144	H	0.531448	0.314518	0.067092
H145	H	0.545437	0.259809	0.026743
H146	H	0.497508	0.313988	-0.039966
H147	H	0.489054	0.241379	0.132236
H148	H	0.441126	0.295561	0.065546
O149	O	0.743646	0.002996	0.707131
C150	C	0.803106	0.008825	0.742204
H151	H	0.815792	0.041760	0.681682
H152	H	0.833382	-0.036185	0.760827
C153	C	0.794445	-0.008949	0.911451
C154	C	0.810023	0.031507	0.837119
H155	H	0.798713	0.005040	0.970001
H156	H	0.754385	-0.012878	0.887823
H157	H	0.819677	-0.046454	0.926957
H158	H	0.784787	0.069008	0.821605
H159	H	0.850079	0.035443	0.860747
H160	H	0.796790	-0.050256	0.595348
O161	O	0.373009	0.179039	-0.000032
C162	C	0.324776	0.195196	-0.086451
H163	H	0.317526	0.154493	-0.115250
H164	H	0.334756	0.230506	-0.146962
C165	C	0.277304	0.270123	-0.024834
C166	C	0.268396	0.220129	-0.060201
H167	H	0.242527	0.285505	-0.008645
H168	H	0.309800	0.259239	0.033386
H169	H	0.285622	0.299541	-0.075266
H170	H	0.260085	0.190709	-0.009765
H171	H	0.235897	0.231009	-0.118413
H172	H	0.603713	0.142707	0.309598
H173	H	0.138399	-0.072658	0.000158
O174	O	0.401069	-0.025726	0.000138
C175	C	0.446260	-0.071079	0.000101
H176	H	0.491448	-0.060266	0.031679
H177	H	0.442280	-0.074504	-0.079942
C178	C	0.384459	-0.143880	0.026747
C179	C	0.439960	-0.130602	0.065539
H180	H	0.380572	-0.180598	0.067108
H181	H	0.354012	-0.113325	0.026768
H182	H	0.381149	-0.146731	-0.039955
H183	H	0.443266	-0.127744	0.132235
H184	H	0.470408	-0.161158	0.065530
H185	H	0.811184	-0.064649	0.437804
O186	O	0.518158	-0.024221	0.000140
C187	C	0.575430	-0.012372	0.000112
H188	H	0.582374	0.027435	0.031688
H189	H	0.580156	-0.002173	-0.079928
C190	C	0.613698	-0.115868	0.026769
C191	C	0.622228	-0.066980	0.065559
H192	H	0.642566	-0.149554	0.067135
H193	H	0.575113	-0.123852	0.026784
H194	H	0.617635	-0.107362	-0.039931
H195	H	0.618284	-0.075484	0.132252
H196	H	0.660815	-0.058999	0.065557
O197	O	0.786364	-0.039893	0.239167
C198	C	0.831478	-0.084964	0.308015
H199	H	0.819802	-0.097150	0.382882
H200	H	0.875417	-0.068425	0.319174
C201	C	0.851514	-0.125109	0.175059
C202	C	0.837171	-0.140080	0.267010
H203	H	0.855028	-0.159106	0.149765
H204	H	0.821121	-0.094743	0.128674
H205	H	0.888129	-0.111326	0.184371
H206	H	0.800553	-0.153855	0.257695
H207	H	0.867557	-0.170449	0.313393
H208	H	0.650561	-0.073074	-0.164897
H209	H	0.642733	-0.727309	-0.164892
H210	H	0.633144	-0.332169	-0.255848
O211	O	0.629600	-0.442262	-0.270226
C212	C	0.617564	-0.390807	-0.350484
H213	H	0.640243	-0.355074	-0.323793
H214	H	0.567590	-0.373914	-0.378486
C215	C	0.613436	-0.449580	-0.469167
C216	C	0.641295	-0.405693	-0.436386
H217	H	0.628072	-0.458762	-0.522158
H218	H	0.621542	-0.484246	-0.415096
H219	H	0.571792	-0.435496	-0.492495
H220	H	0.682937	-0.419780	-0.413047
H221	H	0.633196	-0.371029	-0.490455
O222	O	0.647079	-0.183363	-0.179135
C223	C	0.695156	-0.223579	-0.184601
H224	H	0.723793	-0.247022	-0.105641
H225	H	0.722984	-0.198399	-0.229469
C226	C	0.636226	-0.241063	-0.333604
C227	C	0.671395	-0.269859	-0.236623
H228	H	0.621570	-0.269609	-0.365698
H229	H	0.603836	-0.213967	-0.329925
H230	H	0.659421	-0.220081	-0.370982
H231	H	0.648198	-0.290834	-0.199244
H232	H	0.703781	-0.296960	-0.240298
H233	H	0.701935	-0.124461	0.165114
O234	O	0.702816	-0.239029	0.179496
C235	C	0.715789	-0.212567	0.259757
H236	H	0.694110	-0.163618	0.233078
H237	H	0.765915	-0.216828	0.287733
C238	C	0.718160	-0.304150	0.378443
C239	C	0.691529	-0.244030	0.345678
H240	H	0.703198	-0.323559	0.431446
H241	H	0.709422	-0.321978	0.324371
H242	H	0.759930	-0.307692	0.401750
H243	H	0.649761	-0.240488	0.322361
H244	H	0.700260	-0.226201	0.399749
O245	O	0.540555	0.205960	0.396681
C246	C	0.553478	0.258295	0.422360
H247	H	0.603568	0.253851	0.451225
H248	H	0.531313	0.265691	0.483320
C249	C	0.468353	0.316933	0.293618
C250	C	0.529874	0.311477	0.329062
H251	H	0.453790	0.349739	0.236070
H252	H	0.459644	0.281674	0.276319
H253	H	0.449890	0.323093	0.344427
H254	H	0.548336	0.305309	0.278258
H255	H	0.538585	0.346736	0.346350
H256	H	0.640176	0.106249	0.247324
H257	H	0.206308	0.220890	0.000112
O258	O	0.092858	0.227759	0.000080
C259	C	0.125580	0.274040	0.000100
H260	H	0.165076	0.264231	-0.031478
H261	H	0.142188	0.277623	0.080139
C262	C	0.037023	0.345054	-0.026554
C263	C	0.085531	0.333008	-0.065347
H264	H	0.012320	0.381429	-0.066921
H265	H	0.014978	0.313873	-0.026564
H266	H	0.050871	0.348036	0.040145
H267	H	0.071683	0.330019	-0.132039
H268	H	0.107573	0.364190	-0.065350
H269	H	-0.059845	0.165696	0.000133
H270	H	0.711575	-0.519620	0.256060
