data_functionalizedCrystal
_audit_creation_method	'MofGen! by Chris Wilmer'
_symmetry_space_group_name_H-M	'P1'
_symmetry_Int_Tables_number	1
_symmetry_cell_setting	triclinic
loop_
_symmetry_equiv_pos_as_xyz
  x,y,z
_cell_length_a	27.731994
_cell_length_b	27.732048
_cell_length_c	14.472310
_cell_angle_alpha	89.993924
_cell_angle_beta	89.993100
_cell_angle_gamma	82.631595
loop_
_atom_site_label
_atom_site_type_symbol
_atom_site_fract_x
_atom_site_fract_y
_atom_site_fract_z
O1	O	0.640951	0.057389	-0.076719
O2	O	0.500153	0.066162	-0.076751
O3	O	0.574925	-0.008622	-0.076716
O4	O	0.566179	0.132173	-0.076754
O5	O	0.574906	-0.008618	0.076966
O6	O	0.500134	0.066166	0.076931
O7	O	0.640932	0.057393	0.076963
Cu8	Cu	0.570531	0.061780	0.090979
Cu9	Cu	0.570554	0.061775	-0.090767
O10	O	0.566160	0.132177	0.076928
C11	C	0.482137	0.065984	0.000086
C12	C	0.428480	0.065442	0.000074
C13	C	0.095751	0.062028	0.083883
C14	C	-0.105907	0.059967	0.083894
O15	O	-0.131988	0.059681	0.155139
N16	N	-0.131111	0.059708	0.000122
C17	C	-0.105898	0.059962	-0.083658
O18	O	-0.131962	0.059690	-0.154911
C19	C	0.095760	0.062020	-0.083668
C20	C	0.120961	0.062283	0.000109
C21	C	0.120953	0.062291	0.167654
C22	C	0.171364	0.062809	0.167650
C23	C	0.196574	0.063064	0.083876
C24	C	0.171372	0.062801	0.000105
C25	C	0.120973	0.062270	-0.167448
C26	C	0.171391	0.062784	-0.167443
C27	C	0.196592	0.063047	-0.083666
C28	C	0.246993	0.063575	-0.083672
N29	N	0.272198	0.063833	0.000099
C30	C	0.246988	0.063578	0.083874
C31	C	-0.211771	0.058882	-0.083647
C32	C	-0.262185	0.058369	-0.083645
C33	C	-0.262191	0.058373	0.083908
C34	C	-0.211776	0.058890	0.083905
C35	C	-0.186566	0.059141	0.000125
C36	C	0.352855	0.064666	0.083860
C37	C	0.403270	0.065186	0.083849
C38	C	0.403272	0.065180	-0.083704
C39	C	0.352861	0.064663	-0.083693
C40	C	0.327654	0.064404	0.000096
O41	O	0.273107	0.063855	-0.154880
O42	O	0.273062	0.063839	0.155116
C43	C	0.045340	0.061510	0.083887
C44	C	0.020139	0.061247	0.000116
C45	C	0.045349	0.061503	-0.083658
C46	C	-0.030275	0.060734	0.000118
C47	C	-0.055485	0.060479	0.083893
C48	C	-0.030281	0.060737	0.167665
C49	C	0.020130	0.061255	0.167661
C50	C	0.020144	0.061244	-0.167430
C51	C	-0.030267	0.060727	-0.167420
C52	C	-0.055477	0.060471	-0.083645
C53	C	0.574732	-0.026627	0.000127
C54	C	0.574179	-0.080282	0.000134
C55	C	0.614884	-0.419105	0.000096
C56	C	0.612833	-0.620764	0.000083
O57	O	0.650055	-0.652027	0.000051
N58	N	0.568496	-0.639879	0.000074
C59	C	0.524670	-0.608576	0.000062
O60	O	0.486912	-0.629462	0.000044
C61	C	0.526721	-0.406918	0.000068
C62	C	0.571061	-0.387805	0.000087
C63	C	0.659220	-0.399992	0.000114
C64	C	0.659732	-0.349580	0.000122
C65	C	0.615908	-0.318281	0.000113
C66	C	0.571573	-0.337394	0.000095
C67	C	0.482895	-0.375615	0.000050
C68	C	0.483412	-0.325198	0.000049
C69	C	0.527751	-0.306086	0.000068
C70	C	0.528262	-0.255683	0.000095
N71	N	0.572598	-0.236567	0.000104
C72	C	0.616421	-0.267867	0.000113
C73	C	0.523596	-0.714450	0.000060
C74	C	0.523083	-0.764864	0.000060
C75	C	0.611246	-0.777049	0.000080
C76	C	0.611759	-0.726633	0.000086
C77	C	0.567932	-0.695335	0.000069
C78	C	0.617494	-0.161998	0.000132
C79	C	0.618002	-0.111581	0.000144
C80	C	0.529839	-0.099401	0.000119
C81	C	0.529331	-0.149813	0.000112
C82	C	0.573162	-0.181111	0.000115
O83	O	0.491060	-0.224391	0.000116
O84	O	0.654174	-0.246971	0.000110
C85	C	0.614372	-0.469517	0.000088
C86	C	0.570036	-0.488629	0.000070
C87	C	0.526213	-0.457330	0.000061
C88	C	0.569523	-0.539043	0.000070
C89	C	0.613346	-0.570343	0.000080
C90	C	0.657683	-0.551228	0.000089
C91	C	0.658195	-0.500816	0.000097
C92	C	0.481876	-0.476445	0.000052
C93	C	0.481367	-0.526857	0.000045
C94	C	0.525191	-0.558157	0.000054
C95	C	0.658949	0.057571	0.000124
C96	C	0.712605	0.058114	0.000129
C97	C	0.566353	0.150182	0.000083
C98	C	0.566906	0.203837	0.000069
N99	N	0.570519	0.061784	0.218810
N100	N	0.570570	0.061768	-0.218598
C101	C	0.570553	0.061773	0.592901
C102	C	0.530412	0.101656	0.553717
C103	C	0.530503	0.101800	0.446629
C104	C	0.570536	0.061778	0.407310
C105	C	0.620892	0.072408	0.446156
C106	C	0.620666	0.072691	0.553277
C107	C	0.560789	0.011139	0.553441
C108	C	0.559629	0.011486	0.446314
C109	C	0.570529	0.061780	0.302422
C110	C	0.570563	0.061772	0.697790
H111	H	-0.282725	0.058166	0.152120
C112	C	0.538663	0.152144	0.590058
N113	N	0.544879	0.190171	0.617431
H114	H	0.654110	-0.096023	0.000161
C115	C	0.432587	-0.547874	0.000025
N116	N	0.395847	-0.563702	0.000001
H117	H	0.536699	0.139382	0.420987
H118	H	-0.191250	0.059087	-0.151875
C119	C	0.480556	-0.170837	0.000098
N120	N	0.443817	-0.186669	0.000077
C121	C	0.665711	-0.196418	0.000143
N122	N	0.702028	-0.222344	0.000160
C123	C	0.632359	0.122565	0.587010
N124	N	0.641162	0.160133	0.612413
H125	H	0.590066	-0.018536	0.578781
C126	C	0.662215	0.034925	0.588296
N127	N	0.693514	0.006486	0.614668
C128	C	0.479663	0.093334	0.588568
N129	N	0.441438	0.087067	0.614829
H130	H	0.646929	-0.802541	0.000088
H131	H	-0.050782	0.060516	-0.235646
C132	C	0.662190	0.034188	0.411746
N133	N	0.693295	0.005400	0.385827
H134	H	0.040665	0.061451	-0.235651
H135	H	0.487905	-0.688970	0.000047
C136	C	0.199079	0.063092	0.259813
N137	N	0.219952	0.063302	0.329235
C138	C	-0.289901	0.058083	-0.175807
N139	N	-0.310775	0.057864	-0.245226
C140	C	0.474306	-0.785881	0.000051
N141	N	0.437566	-0.801709	0.000038
H142	H	0.446789	-0.391167	0.000029
C143	C	0.706972	-0.479800	0.000112
N144	N	0.743714	-0.463974	0.000120
H145	H	-0.191261	0.059105	0.152124
C146	C	0.093264	0.061973	-0.259612
N147	N	0.072396	0.061745	-0.329035
C148	C	0.430989	0.065474	0.176014
N149	N	0.451865	0.065689	0.245432
H150	H	0.446189	-0.450966	0.000042
H151	H	0.494160	-0.073908	0.000115
H152	H	0.629771	0.108900	0.419311
C153	C	0.435198	-0.290772	0.000034
N154	N	0.398883	-0.264843	0.000026
H155	H	0.694908	-0.425472	0.000118
C156	C	0.325134	0.064387	0.176032
N157	N	0.304254	0.064181	0.245456
C158	C	0.512276	-0.002789	0.589967
N159	N	0.475733	-0.013273	0.617479
C160	C	0.596608	-0.030447	0.410182
N161	N	0.624468	-0.062030	0.382975
C162	C	0.705889	-0.585666	0.000097
N163	N	0.742195	-0.611608	0.000098
H164	H	0.423807	0.065390	-0.151910
C165	C	0.093229	0.062017	0.259820
N166	N	0.072350	0.061816	0.329246
C167	C	0.479917	0.093330	0.411147
N168	N	0.441812	0.086953	0.384427
C169	C	0.509587	0.000577	0.412022
N170	N	0.471894	-0.007639	0.386189
H171	H	0.191914	0.062989	-0.235669
H172	H	0.040645	0.061469	0.235881
C173	C	0.325138	0.064378	-0.175852
N174	N	0.304261	0.064160	-0.245268
C175	C	0.708509	-0.328564	0.000133
N176	N	0.745250	-0.312738	0.000137
C177	C	0.660535	-0.705615	0.000099
N178	N	0.697275	-0.689787	0.000105
C179	C	-0.058021	0.060455	0.259816
N180	N	-0.078918	0.060240	0.329221
