data_functionalizedCrystal
_audit_creation_method	'MofGen! by Chris Wilmer'
_symmetry_space_group_name_H-M	'P1'
_symmetry_Int_Tables_number	1
_symmetry_cell_setting	triclinic
loop_
_symmetry_equiv_pos_as_xyz
  x,y,z
_cell_length_a	12.759400
_cell_length_b	12.759401
_cell_length_c	12.759393
_cell_angle_alpha	90.019902
_cell_angle_beta	89.968231
_cell_angle_gamma	89.986380
loop_
_atom_site_label
_atom_site_type_symbol
_atom_site_fract_x
_atom_site_fract_y
_atom_site_fract_z
Zn1	Zn	-0.418232	-1.606244	-0.594052
Zn2	Zn	-0.593952	-1.606142	-0.418372
Zn3	Zn	-0.418284	-1.430549	-0.418384
Zn4	Zn	-0.593866	-1.430535	-0.594006
O5	O	-0.506083	-1.518367	-0.506203
O6	O	-0.441556	-1.753251	-0.570762
O7	O	-0.570706	-1.582812	-0.271353
O8	O	-0.271256	-1.453905	-0.441711
O9	O	-0.570656	-1.753176	-0.441691
O10	O	-0.271218	-1.582987	-0.570773
O11	O	-0.441644	-1.453805	-0.271361
O12	O	-0.441561	-1.283526	-0.441666
O13	O	-0.570511	-1.453879	-0.741033
O14	O	-0.570561	-1.283516	-0.570695
O15	O	-0.441473	-1.582972	-0.741067
O16	O	-0.740961	-1.582798	-0.441646
O17	O	-0.740899	-1.453780	-0.570684
C18	C	-0.506058	-1.245400	-0.506177
C19	C	-0.506073	-1.128623	-0.506191
C20	C	-0.573186	-1.073726	-0.438890
C21	C	-0.573202	-0.964002	-0.438906
C22	C	-0.438981	-0.964082	-0.573525
C23	C	-0.438972	-1.073805	-0.573514
C24	C	-0.640287	-1.128545	-0.371567
C25	C	-0.707406	-1.073647	-0.304260
C26	C	-0.707421	-0.963923	-0.304276
C27	C	-0.640319	-0.909097	-0.371598
C28	C	-0.779051	-1.518305	-0.506182
C29	C	-0.895827	-1.518375	-0.506207
C30	C	-0.950687	-1.585629	-0.439092
C31	C	-1.060411	-1.585693	-0.439124
C32	C	-1.060406	-1.451240	-0.573391
C33	C	-0.950684	-1.451182	-0.573363
C34	C	-0.895831	-1.652821	-0.371937
C35	C	-0.950690	-1.720080	-0.304815
C36	C	-1.060414	-1.720144	-0.304847
C37	C	-1.115279	-1.652950	-0.372001
C38	C	-0.232050	-1.518459	-0.506248
C39	C	-0.115273	-1.518497	-0.506268
C40	C	-0.505976	-1.518436	-0.780237
C41	C	-0.505931	-1.518465	-0.897014
C42	C	-0.506104	-0.792401	-0.506224
C43	C	-0.506098	-0.909177	-0.506217
C44	C	-0.438716	-1.451319	-0.951886
C45	C	-0.438684	-1.451351	-1.061610
C46	C	-0.573086	-1.585683	-1.061580
C47	C	-0.573122	-1.585645	-0.951858
C48	C	-0.371524	-1.384139	-0.897042
C49	C	-0.304303	-1.316989	-0.951915
C50	C	-0.304272	-1.317021	-1.061639
C51	C	-0.371462	-1.384203	-1.116490
C52	C	-0.506114	-1.518360	-0.233236
C53	C	-0.505864	-1.518534	-0.116460
H54	H	-0.384348	-0.919434	-0.628335
F55	F	-0.779053	-1.652988	-0.372127
H56	H	-0.762045	-1.118294	-0.249456
F57	F	-0.371548	-1.384103	-0.780265
F58	F	-0.367543	-1.132234	-0.645144
F59	F	-1.118797	-1.791734	-0.233421
H60	H	-1.204623	-1.653016	-0.372031
H61	H	-1.105085	-1.396533	-0.628063
H62	H	-0.640344	-0.819752	-0.371612
F63	F	-0.644588	-1.657179	-1.119960
H64	H	-0.906014	-1.774793	-0.250146
F65	F	-0.644664	-1.657105	-0.893455
F66	F	-0.371430	-1.384228	-1.233270
H67	H	-0.640280	-1.217888	-0.371545
H68	H	-0.762079	-0.919228	-0.249479
H69	H	-0.906017	-1.396418	-0.628015
F70	F	-0.232802	-1.245491	-0.893537
H71	H	-0.249544	-1.262337	-1.106313
