data_functionalizedCrystal
_audit_creation_method	'MofGen! by Chris Wilmer'
_symmetry_space_group_name_H-M	'P1'
_symmetry_Int_Tables_number	1
_symmetry_cell_setting	triclinic
loop_
_symmetry_equiv_pos_as_xyz
  x,y,z
_cell_length_a	17.699083
_cell_length_b	17.699083
_cell_length_c	16.176319
_cell_angle_alpha	90.007566
_cell_angle_beta	90.001819
_cell_angle_gamma	83.283015
loop_
_atom_site_label
_atom_site_type_symbol
_atom_site_fract_x
_atom_site_fract_y
_atom_site_fract_z
O1	O	-1.004079	-0.095713	-0.068632
O2	O	-0.504079	0.404287	0.431368
O3	O	-0.783701	-0.108165	-0.068660
O4	O	-0.283701	0.391835	0.431340
O5	O	-0.900116	0.008250	-0.068638
O6	O	-0.400116	0.508250	0.431362
O7	O	-0.887664	-0.212128	-0.068654
O8	O	-0.387664	0.287872	0.431346
O9	O	-0.900099	0.008257	0.068855
O10	O	-0.400099	0.508257	0.568855
O11	O	-0.783684	-0.108158	0.068834
O12	O	-0.283684	0.391842	0.568834
O13	O	-1.004062	-0.095706	0.068861
O14	O	-0.504062	0.404294	0.568861
Cu15	Cu	-0.893872	-0.101932	0.081401
Cu16	Cu	-0.393872	0.398068	0.581401
Cu17	Cu	-0.893892	-0.101940	-0.081200
Cu18	Cu	-0.393892	0.398060	0.418800
O19	O	-0.887647	-0.212121	0.068839
O20	O	-0.387647	0.287879	0.568839
C21	C	-0.755495	-0.107716	0.000084
C22	C	-0.255495	0.392284	0.500084
C23	C	-0.671477	-0.106377	0.000073
C24	C	-0.171477	0.393623	0.500073
C25	C	-0.899662	0.036451	0.000109
C26	C	-0.399662	0.536451	0.500109
C27	C	-0.898323	0.120469	0.000109
C28	C	-0.398323	0.620469	0.500109
N29	N	-0.893863	-0.101925	0.195767
N30	N	-0.393863	0.398075	0.695767
C31	C	-1.032268	-0.096156	0.000116
C32	C	-0.532268	0.403844	0.500116
C33	C	-1.116286	-0.097494	0.000121
C34	C	-0.616286	0.402506	0.500121
C35	C	-0.622856	-0.174710	0.000069
C36	C	-0.122856	0.325290	0.500069
C37	C	-0.543913	-0.173448	0.000079
C38	C	-0.043913	0.326552	0.500079
C39	C	-0.513592	-0.103852	0.000089
C40	C	-0.013592	0.396148	0.500089
C41	C	-0.562219	-0.035513	0.000096
C42	C	-0.062219	0.464487	0.500096
C43	C	-0.641161	-0.036776	0.000091
C44	C	-0.141161	0.463224	0.500091
C45	C	-0.243856	-0.030418	0.000117
C46	C	0.256144	0.469582	0.500117
C47	C	-0.164908	-0.029160	0.000120
C48	C	0.335092	0.470840	0.500120
C49	C	-0.146608	-0.167090	0.000105
C50	C	0.353392	0.332910	0.500105
C51	C	-0.225550	-0.168353	0.000100
C52	C	0.274450	0.331647	0.500100
C53	C	-0.274170	-0.100015	0.000112
C54	C	0.225830	0.399985	0.500112
C55	C	-0.359769	-0.101384	0.000102
C56	C	0.140231	0.398616	0.500102
C57	C	-0.427995	-0.102481	0.000093
C58	C	0.072005	0.397519	0.500093
C59	C	-0.888102	-0.240322	0.000091
C60	C	-0.388102	0.259678	0.500091
C61	C	-0.889440	-0.324340	0.000085
C62	C	-0.389440	0.175660	0.500085
C63	C	-0.966656	0.169090	0.000119
C64	C	-0.466656	0.669090	0.500119
C65	C	-0.965394	0.248033	0.000111
C66	C	-0.465394	0.748033	0.500111
C67	C	-0.895798	0.278354	0.000100
C68	C	-0.395798	0.778354	0.500100
C69	C	-0.827459	0.229727	0.000088
C70	C	-0.327459	0.729727	0.500088
C71	C	-0.828722	0.150785	0.000089
C72	C	-0.328722	0.650785	0.500089
C73	C	-0.822364	0.548090	0.000080
C74	C	-0.322364	1.048090	0.500080
C75	C	-0.821106	0.627038	0.000081
C76	C	-0.321106	1.127038	0.500081
C77	C	-0.959036	0.645338	0.000102
C78	C	-0.459036	1.145338	0.500102
C79	C	-0.960299	0.566396	0.000104
C80	C	-0.460299	1.066396	0.500104
C81	C	-0.891961	0.517776	0.000087
C82	C	-0.391961	1.017776	0.500087
C83	C	-0.893330	0.432177	0.000094
C84	C	-0.393330	0.932177	0.500094
C85	C	-0.894427	0.363951	0.000099
C86	C	-0.394427	0.863951	0.500099
C87	C	-0.945427	-0.050398	0.239040
C88	C	-0.445427	0.449602	0.739040
C89	C	-0.945430	-0.050397	0.325588
C90	C	-0.445430	0.449603	0.825588
C91	C	-0.893872	-0.101928	0.368859
C92	C	-0.393872	0.398072	0.868859
C93	C	-0.842303	-0.153458	0.325579
C94	C	-0.342303	0.346542	0.825579
C95	C	-0.842297	-0.153455	0.239034
C96	C	-0.342297	0.346545	0.739034
C97	C	-0.842326	-0.153474	0.674608
C98	C	-0.342326	0.346526	1.174608
C99	C	-0.842338	-0.153475	0.761159
C100	C	-0.342338	0.346525	1.261159
C101	C	-0.945460	-0.050416	0.761161
C102	C	-0.445460	0.449584	1.261161
C103	C	-0.945453	-0.050412	0.674616
C104	C	-0.445453	0.449588	1.174616
C105	C	-0.893882	-0.101939	0.631344
C106	C	-0.393882	0.398061	1.131344
C107	C	-0.893878	-0.101938	0.537499
C108	C	-0.393878	0.398062	1.037499
C109	C	-0.893879	-0.101934	0.462702
C110	C	-0.393879	0.398066	0.962702
N111	N	-0.893899	-0.101943	0.804435
N112	N	-0.393899	0.398057	1.304435
H113	H	-0.647537	-0.231384	0.000060
H114	H	-0.147537	0.268616	0.500060
H115	H	-0.800351	-0.195439	0.796390
H116	H	-0.300351	0.304561	1.296390
Br117	Br	-0.266696	-0.262808	0.000079
Br118	Br	0.233304	0.237192	0.500079
H119	H	-1.023330	0.144409	0.000133
H120	H	-0.523330	0.644409	0.500133
Br121	Br	-0.772340	-0.223402	0.615886
Br122	Br	-0.272340	0.276598	1.115886
H123	H	-0.140225	0.027517	0.000128
H124	H	0.359775	0.527517	0.500128
H125	H	-0.987417	-0.008439	0.360821
H126	H	-0.487417	0.491561	0.860821
Br127	Br	-0.733005	0.270875	0.000059
Br128	Br	-0.233005	0.770875	0.500059
H129	H	-0.107012	-0.222734	0.000100
H130	H	0.392988	0.277266	0.500100
H131	H	-0.283434	0.025228	0.000127
H132	H	0.216566	0.525228	0.500127
H133	H	-0.504328	-0.229092	0.000075
H134	H	-0.004328	0.270908	0.500075
H135	H	-0.537526	0.021154	0.000116
H136	H	-0.037526	0.521154	0.500116
H137	H	-0.680748	0.018868	0.000095
H138	H	-0.180748	0.518868	0.500095
H139	H	-1.021038	0.287618	0.000121
H140	H	-0.521038	0.787618	0.500121
H141	H	-1.016971	0.541714	0.000117
H142	H	-0.516971	1.041714	0.500117
H143	H	-0.987439	-0.008453	0.639387
H144	H	-0.487439	0.491547	1.139387
H145	H	-1.014680	0.684934	0.000111
H146	H	-0.514680	1.184934	0.500111
H147	H	-0.764429	0.651721	0.000074
H148	H	-0.264429	1.151721	0.500074
H149	H	-0.800307	-0.195413	0.203801
H150	H	-0.300307	0.304587	0.703801
H151	H	-0.773078	0.111198	0.000081
H152	H	-0.273078	0.611198	0.500081
H153	H	-0.766718	0.508512	0.000067
H154	H	-0.266718	1.008512	0.500067
H155	H	-0.987450	-0.008457	0.796403
H156	H	-0.487450	0.491543	1.296403
Br157	Br	-0.772324	-0.223390	0.384302
Br158	Br	-0.272324	0.276610	0.884302
Br159	Br	-1.015408	0.019537	0.180324
Br160	Br	-0.515408	0.519537	0.680324
