data_functionalizedCrystal
_audit_creation_method	'MofGen! by Chris Wilmer'
_symmetry_space_group_name_H-M	'P1'
_symmetry_Int_Tables_number	1
_symmetry_cell_setting	triclinic
loop_
_symmetry_equiv_pos_as_xyz
  x,y,z
_cell_length_a	12.759401
_cell_length_b	13.897441
_cell_length_c	12.759400
_cell_angle_alpha	90.028132
_cell_angle_beta	89.984929
_cell_angle_gamma	89.981179
loop_
_atom_site_label
_atom_site_type_symbol
_atom_site_fract_x
_atom_site_fract_y
_atom_site_fract_z
Zn1	Zn	1.606258	-0.545348	0.418221
Zn2	Zn	1.606152	-0.384057	0.593931
Zn3	Zn	1.430559	-0.384072	0.418268
Zn4	Zn	1.430549	-0.545315	0.593860
O5	O	1.518379	-0.464698	0.506070
O6	O	1.753265	-0.523960	0.441539
O7	O	1.582819	-0.249077	0.570679
O8	O	1.453915	-0.405486	0.271241
O9	O	1.753187	-0.405460	0.570633
O10	O	1.583000	-0.523975	0.271206
O11	O	1.453812	-0.249088	0.441620
O12	O	1.283537	-0.405454	0.441551
O13	O	1.453897	-0.680301	0.570511
O14	O	1.283529	-0.523918	0.570557
O15	O	1.582990	-0.680326	0.441470
O16	O	1.582809	-0.405427	0.740943
O17	O	1.453794	-0.523903	0.740890
C18	C	1.245412	-0.464684	0.506052
C19	C	1.128635	-0.464702	0.506070
C20	C	1.073815	-0.526500	0.438972
C21	C	0.964091	-0.526506	0.438983
C22	C	0.964018	-0.402913	0.573198
C23	C	1.073740	-0.402903	0.573181
C24	C	1.518454	-0.716291	0.505977
C25	C	1.518486	-0.823505	0.505938
C26	C	1.518514	-1.019800	0.505867
C27	C	1.518495	-0.910568	0.505909
C28	C	1.792413	-0.464712	0.506089
C29	C	1.909189	-0.464718	0.506097
C30	C	1.518317	-0.464681	0.779037
C31	C	1.518387	-0.464706	0.895814
C32	C	1.518366	-0.214084	0.506087
C33	C	1.518537	-0.106870	0.505830
C34	C	1.518470	-0.464736	0.232037
C35	C	1.518509	-0.464753	0.115260
C36	C	1.585572	-0.526456	0.950568
C37	C	1.585631	-0.526482	1.060292
C38	C	1.451316	-0.403000	1.060498
C39	C	1.451253	-0.402980	0.950776
H40	H	0.919308	-0.352600	0.627838
O41	O	1.650747	-0.586566	1.113527
C42	C	1.590937	-0.648821	1.177013
H43	H	1.508168	-0.654711	1.144011
H44	H	1.587380	-0.619014	1.260197
C45	C	1.743871	-0.741901	1.219109
C46	C	1.642216	-0.749141	1.178570
H47	H	1.775504	-0.803782	1.220074
H48	H	1.784168	-0.699956	1.176340
H49	H	1.740894	-0.717058	1.288424
H50	H	1.645196	-0.773972	1.109251
H51	H	1.601921	-0.791092	1.221327
H52	H	1.118507	-0.576817	0.384322
O53	O	1.650887	-0.586284	0.897131
C54	C	1.718728	-0.531416	0.833628
H55	H	1.725284	-0.455455	0.866742
H56	H	1.686200	-0.528054	0.750500
C57	C	1.819862	-0.671928	0.791149
C58	C	1.827922	-0.578634	0.831825
H59	H	1.887218	-0.701056	0.790032
H60	H	1.774155	-0.708895	0.833929
H61	H	1.792752	-0.669114	0.721879
H62	H	1.855020	-0.581451	0.901097
H63	H	1.873637	-0.541669	0.789056
H64	H	0.919460	-0.576827	0.384343
O65	O	1.126837	-0.342838	0.638464
C66	C	1.054859	-0.288284	0.697689
H67	H	0.976663	-0.327793	0.701398
H68	H	1.043160	-0.215088	0.659118
C69	C	1.193712	-0.225674	0.804924
C70	C	1.097672	-0.274203	0.809486
H71	H	1.220122	-0.216984	0.873884
H72	H	1.242206	-0.262425	0.765020
H73	H	1.183950	-0.164683	0.772776
H74	H	1.107438	-0.335198	0.841621
H75	H	1.049181	-0.237462	0.849398
H76	H	1.396660	-0.352743	1.105262
H77	H	1.396538	-0.352696	0.906193
