data_functionalizedCrystal
_audit_creation_method	'MofGen! by Chris Wilmer'
_symmetry_space_group_name_H-M	'P1'
_symmetry_Int_Tables_number	1
_symmetry_cell_setting	triclinic
loop_
_symmetry_equiv_pos_as_xyz
  x,y,z
_cell_length_a	14.519709
_cell_length_b	14.044220
_cell_length_c	12.996460
_cell_angle_alpha	90.001035
_cell_angle_beta	90.000602
_cell_angle_gamma	88.434511
loop_
_atom_site_label
_atom_site_type_symbol
_atom_site_fract_x
_atom_site_fract_y
_atom_site_fract_z
O1	O	1.233894	0.124265	0.085435
O2	O	0.966597	0.138899	0.085466
O3	O	1.096233	-0.006410	0.085441
O4	O	1.104258	0.269573	0.085460
O5	O	1.096216	-0.006401	-0.085693
O6	O	0.966580	0.138908	-0.085667
O7	O	1.233876	0.124273	-0.085699
Cu8	Cu	1.100226	0.131591	-0.101309
Cu9	Cu	1.100247	0.131581	0.101076
O10	O	1.104240	0.269582	-0.085674
C11	C	0.932174	0.138221	-0.000097
C12	C	0.829628	0.136177	-0.000085
C13	C	1.092712	-0.041726	-0.000126
C14	C	1.082235	-0.146969	-0.000126
C15	C	0.454125	0.128653	-0.000132
C16	C	0.558601	0.130743	-0.000119
C17	C	0.641873	0.132415	-0.000107
C18	C	0.746356	0.134505	-0.000096
C19	C	1.063081	-0.339663	-0.000109
C20	C	1.137389	-0.397170	-0.000115
C21	C	1.126731	-0.504392	-0.000105
C22	C	1.073737	-0.232432	-0.000118
C23	C	1.268300	0.124951	-0.000134
C24	C	1.370846	0.126995	-0.000139
C25	C	1.107761	0.304898	-0.000104
C26	C	1.118238	0.410141	-0.000098
N27	N	1.100218	0.131597	-0.243656
C28	C	1.100223	0.131600	-0.336762
C29	C	1.100231	0.131593	-0.453567
C30	C	1.100241	0.131583	-0.546666
C31	C	1.100251	0.131578	-0.663478
N32	N	1.100262	0.131567	0.243424
H33	H	1.209010	-0.365878	-0.000054
C34	C	0.966329	-0.381936	-0.000111
N35	N	0.893457	-0.413788	-0.000121
