data_functionalizedCrystal
_audit_creation_method	'MofGen! by Chris Wilmer'
_symmetry_space_group_name_H-M	'P1'
_symmetry_Int_Tables_number	1
_symmetry_cell_setting	triclinic
loop_
_symmetry_equiv_pos_as_xyz
  x,y,z
_cell_length_a	16.992694
_cell_length_b	16.109301
_cell_length_c	14.586319
_cell_angle_alpha	89.998390
_cell_angle_beta	89.999540
_cell_angle_gamma	87.064852
loop_
_atom_site_label
_atom_site_type_symbol
_atom_site_fract_x
_atom_site_fract_y
_atom_site_fract_z
O1	O	-1.040348	-0.176284	0.076131
O2	O	-0.812064	-0.174350	0.076158
O3	O	-0.932477	-0.054704	0.076134
O4	O	-0.919935	-0.295929	0.076154
O5	O	-0.932462	-0.054711	-0.076347
O6	O	-0.812049	-0.174356	-0.076323
O7	O	-1.040334	-0.176290	-0.076350
Cu8	Cu	-0.926190	-0.175324	-0.090259
Cu9	Cu	-0.926207	-0.175316	0.090067
O10	O	-0.919920	-0.295936	-0.076327
C11	C	-0.782844	-0.171865	-0.000080
C12	C	-0.695802	-0.164441	-0.000070
C13	C	-0.931962	-0.023699	-0.000107
C14	C	-0.930439	0.068698	-0.000108
C15	C	-1.069553	-0.178775	-0.000111
C16	C	-1.156595	-0.186198	-0.000115
C17	C	-0.645543	-0.236067	-0.000064
C18	C	-0.563758	-0.229087	-0.000078
C19	C	-0.532234	-0.150481	-0.000090
C20	C	-0.582499	-0.078849	-0.000098
C21	C	-0.664282	-0.085830	-0.000091
C22	C	-0.288644	-0.121548	-0.000116
C23	C	-0.206854	-0.114572	-0.000120
C24	C	-0.188119	-0.264811	-0.000102
C25	C	-0.269904	-0.271785	-0.000090
C26	C	-0.320163	-0.200154	-0.000103
N27	N	-0.448637	-0.143344	-0.000100
N28	N	-0.403758	-0.207291	-0.000099
C29	C	-0.920435	-0.326941	-0.000084
C30	C	-0.921959	-0.419338	-0.000077
N31	N	-0.926183	-0.175329	-0.217091
C32	C	-0.998348	0.286439	-0.000101
C33	C	-0.996911	0.373256	-0.000094
C34	C	-0.854044	0.362915	-0.000080
C35	C	-0.855482	0.276100	-0.000082
C36	C	-0.927636	0.237865	-0.000097
C37	C	-0.924761	0.411496	-0.000088
C38	C	-0.923202	0.505626	-0.000080
C39	C	-0.929196	0.143729	-0.000103
C40	C	-0.973736	-0.228931	-0.452099
C41	C	-0.973745	-0.228926	-0.548080
C42	C	-0.878665	-0.121697	-0.548087
C43	C	-0.878662	-0.121698	-0.452107
C44	C	-0.926196	-0.175320	-0.404116
C45	C	-0.926208	-0.175313	-0.596077
C46	C	-0.926216	-0.175307	-0.700144
C47	C	-0.926189	-0.175325	-0.300042
N48	N	-0.926220	-0.175304	0.216898
H49	H	-0.671204	-0.300077	-0.000054
H50	H	-0.839964	-0.078041	-0.587173
O51	O	-1.019869	-0.281127	-0.405581
C52	C	-0.998112	-0.364061	-0.429019
H53	H	-0.967704	-0.365591	-0.498708
H54	H	-1.053000	-0.401788	-0.432302
H55	H	-0.956042	-0.391867	-0.375003
H56	H	-0.556826	-0.014846	-0.000120
H57	H	-0.295565	-0.335795	-0.000070
O58	O	-0.139218	-0.334329	0.000025
C59	C	-0.091360	-0.334796	0.079003
H60	H	-0.087240	-0.268530	0.105327
H61	H	-0.029886	-0.361682	0.061238
H62	H	-0.118253	-0.374554	0.134307
O63	O	-0.832590	-0.069539	-0.405445
C64	C	-0.880406	-0.016029	-0.349901
H65	H	-0.942797	-0.011270	-0.378826
H66	H	-0.855359	0.048275	-0.348801
H67	H	-0.881726	-0.041820	-0.277164
H68	H	-0.522840	-0.287413	-0.000072
O69	O	-0.783889	0.399925	-0.000031
C70	C	-0.721785	0.338432	-0.000048
H71	H	-0.743754	0.278062	0.028818
H72	H	-0.671414	0.359898	0.044227
H73	H	-0.699968	0.327611	-0.073198
O74	O	-1.065548	0.420529	-0.000222
C75	C	-1.068994	0.471048	-0.079200
H76	H	-1.006757	0.479567	-0.105522
H77	H	-1.098217	0.534283	-0.061436
H78	H	-1.104795	0.440146	-0.134505
H79	H	-0.797897	0.236549	-0.000075
H80	H	-1.012458	-0.272580	-0.587144
H81	H	-0.181191	-0.050558	-0.000129
H82	H	-0.705203	-0.027504	-0.000095
O83	O	-0.337422	-0.051941	0.000040
C84	C	-0.323117	-0.004525	0.078994
H85	H	-0.295157	-0.046559	0.134194
H86	H	-0.381147	0.024968	0.105500
H87	H	-0.281480	0.046357	0.061134
O88	O	-1.068504	0.249430	-0.000064
C89	C	-1.130606	0.310924	-0.000086
H90	H	-1.108638	0.371292	0.028780
H91	H	-1.180981	0.289458	0.044184
H92	H	-1.152417	0.321749	-0.073239
