data_functionalizedCrystal
_audit_creation_method	'MofGen! by Chris Wilmer'
_symmetry_space_group_name_H-M	'P1'
_symmetry_Int_Tables_number	1
_symmetry_cell_setting	triclinic
loop_
_symmetry_equiv_pos_as_xyz
  x,y,z
_cell_length_a	17.640112
_cell_length_b	12.645330
_cell_length_c	17.640968
_cell_angle_alpha	101.231500
_cell_angle_beta	87.860920
_cell_angle_gamma	101.237348
loop_
_atom_site_label
_atom_site_type_symbol
_atom_site_fract_x
_atom_site_fract_y
_atom_site_fract_z
Zn1	Zn	1.247782	-0.030458	0.195080
Zn2	Zn	1.222041	-0.249164	0.068097
Zn3	Zn	1.095123	-0.099414	0.093726
Zn4	Zn	1.120780	-0.235210	0.220679
O5	O	1.171432	-0.153562	0.144396
O6	O	1.350634	-0.036451	0.156796
O7	O	1.183695	-0.263998	-0.034776
O8	O	1.115409	0.058093	0.107183
O9	O	1.331722	-0.197134	0.063503
O10	O	1.227567	0.108755	0.181647
O11	O	1.090449	-0.153977	-0.015947
O12	O	0.992260	-0.140447	0.132006
O13	O	1.159137	-0.173351	0.323557
O14	O	1.011110	-0.240215	0.225278
O15	O	1.252445	-0.022921	0.304749
O16	O	1.208573	-0.395673	0.088325
O17	O	1.134177	-0.385421	0.200427
C18	C	0.974132	-0.196300	0.184201
C19	C	0.889730	-0.214603	0.201248
C20	C	0.563041	-0.014493	0.014898
C21	C	0.483734	-0.031710	0.030927
C22	C	0.503383	-0.135840	0.127883
C23	C	0.582694	-0.118628	0.111866
C24	C	0.612516	-0.057954	0.055372
C25	C	0.632168	-0.162089	0.152339
C26	C	0.711471	-0.144882	0.136320
C27	C	0.741299	-0.084214	0.079827
C28	C	0.691819	-0.040748	0.039352
C29	C	0.602344	-0.222768	0.208829
C30	C	0.651819	-0.266229	0.249302
C31	C	0.731124	-0.249017	0.233287
C32	C	0.760952	-0.188349	0.176794
C33	C	0.780605	-0.292483	0.273762
C34	C	0.859908	-0.275277	0.257742
C35	C	0.840255	-0.171142	0.160775
C36	C	1.171390	-0.429005	0.144385
C37	C	1.171447	-0.546818	0.144392
C38	C	1.218131	-0.720847	0.073769
C39	C	1.218351	-0.598198	0.073875
C40	C	1.209332	-0.560398	0.220067
C41	C	1.209733	-0.682997	0.219661
C42	C	1.087014	-0.738217	0.140134
C43	C	1.087036	-0.616115	0.138261
C44	C	1.369502	-0.110657	0.104435
C45	C	1.453908	-0.092374	0.087406
C46	C	1.211525	-0.088888	0.342479
C47	C	1.228610	-0.061327	0.426890
C48	C	1.171498	0.122968	0.144418
C49	C	1.171526	0.240808	0.144428
C50	C	1.131538	-0.217898	-0.052926
C51	C	1.114600	-0.245128	-0.137366
C52	C	1.041928	-0.362294	0.753463
C53	C	1.057998	-0.336380	0.832776
C54	C	1.155152	-0.179750	0.813183
C55	C	1.139087	-0.205648	0.733867
C56	C	1.082475	-0.296921	0.704013
C57	C	1.179634	-0.140275	0.684417
C58	C	1.163573	-0.166175	0.605106
C59	C	1.106965	-0.257446	0.575246
C60	C	1.066414	-0.322821	0.624702
C61	C	1.236249	-0.049006	0.714271
C62	C	1.276796	0.016366	0.664821
C63	C	1.260732	-0.009529	0.585510
C64	C	1.204124	-0.100800	0.555650
C65	C	1.301283	0.055846	0.536054
C66	C	1.285222	0.029946	0.456744
C67	C	1.188063	-0.126700	0.476340
H68	H	0.587326	0.034933	-0.031094
H69	H	1.141946	-0.201002	0.452035
H70	H	1.347381	0.130154	0.560372
N71	N	1.168926	-0.516634	0.287005
N72	N	1.163926	-0.417462	0.300304
H73	H	1.135388	-0.386550	0.347578
N74	N	1.295802	-0.737821	0.075614
N75	N	1.316981	-0.778036	0.128742
H76	H	1.371837	-0.790027	0.130048
H77	H	0.443454	0.003695	-0.002031
H78	H	1.322892	0.090678	0.689139
N79	N	0.472904	-0.197818	0.185582
N80	N	0.402097	-0.213178	0.199877
H81	H	0.380571	-0.256949	0.240629
H82	H	1.318238	0.083180	0.416480
H83	H	0.537770	-0.236776	0.221870
N84	N	1.090543	-0.283893	0.494235
N85	N	1.024142	-0.286121	0.470802
H86	H	1.012541	-0.304798	0.413588
N87	N	1.286669	-0.498755	0.227521
N88	N	1.314038	-0.444762	0.177213
H89	H	1.368658	-0.401226	0.182473
H90	H	0.627526	-0.315633	0.295298
H91	H	1.055684	-0.792203	0.086758
H92	H	0.756310	-0.341892	0.319753
H93	H	0.900192	-0.310666	0.290701
H94	H	0.995811	-0.436596	0.729158
H95	H	1.192773	-0.590490	0.017256
H96	H	1.058763	-0.609871	0.082650
N97	N	1.296465	-0.539583	0.075823
N98	N	1.350990	-0.589236	0.077115
H99	H	1.406163	-0.547840	0.078493
H100	H	1.020297	-0.397124	0.600398
H101	H	1.271988	-0.693116	0.225182
H102	H	1.192688	-0.772714	0.016942
N103	N	1.043209	-0.768928	0.204945
N104	N	1.073997	-0.806115	0.254125
H105	H	1.043066	-0.827807	0.299899
N106	N	1.170091	-0.712770	0.286856
N107	N	1.100832	-0.704685	0.297499
H108	H	1.072838	-0.725709	0.344955
H109	H	1.049126	-0.582506	0.187255
N110	N	1.016550	-0.403150	0.883283
N111	N	0.965995	-0.484623	0.856616
H112	H	0.936716	-0.531771	0.892287
H113	H	1.201247	-0.105437	0.837501
N114	N	1.252671	-0.022559	0.795282
N115	N	1.275694	-0.090263	0.827470
H116	H	1.287294	-0.071585	0.884684
H117	H	0.864540	-0.121716	0.114783
H118	H	0.805873	-0.070209	0.066783
H119	H	0.716103	0.008678	-0.006640
