data_functionalizedCrystal
_audit_creation_method	'MofGen! by Chris Wilmer'
_symmetry_space_group_name_H-M	'P1'
_symmetry_Int_Tables_number	1
_symmetry_cell_setting	triclinic
loop_
_symmetry_equiv_pos_as_xyz
  x,y,z
_cell_length_a	12.759401
_cell_length_b	12.645330
_cell_length_c	12.759393
_cell_angle_alpha	89.969748
_cell_angle_beta	89.982620
_cell_angle_gamma	90.017853
loop_
_atom_site_label
_atom_site_type_symbol
_atom_site_fract_x
_atom_site_fract_y
_atom_site_fract_z
Zn1	Zn	1.606222	-0.421970	-0.593992
Zn2	Zn	1.606111	-0.599275	-0.418317
Zn3	Zn	1.430527	-0.422026	-0.418332
Zn4	Zn	1.430503	-0.599193	-0.593959
O5	O	1.518341	-0.510616	-0.506150
O6	O	1.753228	-0.445501	-0.570697
O7	O	1.582782	-0.575820	-0.271298
O8	O	1.453890	-0.273672	-0.441654
O9	O	1.753146	-0.575766	-0.441629
O10	O	1.582972	-0.273630	-0.570711
O11	O	1.453782	-0.445597	-0.271309
O12	O	1.283503	-0.445517	-0.441621
O13	O	1.453849	-0.575626	-0.740984
O14	O	1.283486	-0.575680	-0.570653
O15	O	1.582949	-0.445421	-0.741009
O16	O	1.582759	-0.747611	-0.441596
O17	O	1.453741	-0.747551	-0.570639
C18	C	1.245373	-0.510596	-0.506136
C19	C	1.128597	-0.510614	-0.506155
C20	C	1.073753	-0.578498	-0.573231
C21	C	0.964029	-0.578512	-0.573242
C22	C	0.964002	-0.442753	-0.439092
C23	C	1.073724	-0.442735	-0.439087
C24	C	1.128626	-0.646377	-0.640298
C25	C	1.073782	-0.714268	-0.707379
C26	C	0.964058	-0.714281	-0.707390
C27	C	0.909178	-0.646404	-0.640321
C28	C	1.518264	-0.786046	-0.506135
C29	C	1.518327	-0.903876	-0.506164
C30	C	1.437497	-1.071446	-0.587595
C31	C	1.437084	-0.948886	-0.587334
C32	C	1.488356	-0.948480	-0.395443
C33	C	1.487863	-1.071079	-0.395937
C34	C	1.629624	-1.070962	-0.534556
C35	C	1.628942	-0.948355	-0.536977
C36	C	1.792374	-0.510636	-0.506165
C37	C	1.909151	-0.510645	-0.506171
C38	C	1.518409	-0.510508	-0.780183
C39	C	1.518438	-0.510462	-0.896960
C40	C	1.518446	-0.234111	-0.506188
C41	C	1.518491	-0.116281	-0.506204
C42	C	1.451296	-0.442642	-0.951834
C43	C	1.451328	-0.442610	-1.061558
C44	C	1.585653	-0.578222	-1.061525
C45	C	1.585615	-0.578258	-0.951803
C46	C	1.384119	-0.374846	-0.896991
C47	C	1.316973	-0.307020	-0.951865
C48	C	1.317005	-0.306988	-1.061589
C49	C	1.384183	-0.374783	-1.116439
C50	C	1.518333	-0.510647	-0.233183
C51	C	1.518508	-0.510394	-0.116407
H52	H	1.455835	-0.918724	-0.669433
F53	F	1.657071	-0.650444	-0.893399
H54	H	1.355624	-1.102349	-0.569052
H55	H	1.689966	-1.099955	-0.475275
F56	F	1.329395	-0.910672	-0.562787
F57	F	0.792398	-0.646413	-0.640345
H58	H	0.919310	-0.387491	-0.384487
F59	F	1.657145	-0.650367	-1.119904
F60	F	1.245403	-0.646371	-0.640288
F61	F	1.381679	-1.108587	-0.364543
F62	F	0.905692	-0.786527	-0.778790
F63	F	1.132191	-0.786498	-0.778760
F64	F	1.658488	-0.910244	-0.643485
F65	F	1.132096	-0.370485	-0.367697
F66	F	1.461776	-1.109881	-0.695260
H67	H	1.544296	-1.100742	-0.333226
F68	F	1.563017	-0.910379	-0.314009
H69	H	1.262324	-0.251768	-1.106264
H70	H	1.407965	-0.917872	-0.370989
H71	H	1.384088	-0.374862	-0.807648
F72	F	1.665361	-1.111266	-0.638293
F73	F	1.384209	-0.374750	-1.233219
F74	F	1.711975	-0.908293	-0.465141
F75	F	1.245478	-0.234875	-0.893488
