data_functionalizedCrystal
_audit_creation_method	'MofGen! by Chris Wilmer'
_symmetry_space_group_name_H-M	'P1'
_symmetry_Int_Tables_number	1
_symmetry_cell_setting	triclinic
loop_
_symmetry_equiv_pos_as_xyz
  x,y,z
_cell_length_a	18.050590
_cell_length_b	18.050590
_cell_length_c	18.050582
_cell_angle_alpha	89.976663
_cell_angle_beta	90.000767
_cell_angle_gamma	90.007719
loop_
_atom_site_label
_atom_site_type_symbol
_atom_site_fract_x
_atom_site_fract_y
_atom_site_fract_z
Zn1	Zn	1.135342	-0.295921	-0.419598
Zn2	Zn	1.135274	-0.420105	-0.295406
Zn3	Zn	1.011162	-0.295910	-0.295456
Zn4	Zn	1.011131	-0.420051	-0.419589
O5	O	1.073227	-0.357997	-0.357512
O6	O	1.239258	-0.312422	-0.403106
O7	O	1.118795	-0.403648	-0.191488
O8	O	1.027676	-0.191987	-0.311948
O9	O	1.239208	-0.403659	-0.311863
O10	O	1.118911	-0.191995	-0.403155
O11	O	1.027610	-0.312402	-0.191525
O12	O	0.907233	-0.312350	-0.311939
O13	O	1.027623	-0.403567	-0.523514
O14	O	0.907210	-0.403555	-0.403139
O15	O	1.118881	-0.312370	-0.523521
O16	O	1.118765	-0.524022	-0.311854
O17	O	1.027557	-0.523982	-0.403091
C18	C	0.880275	-0.357946	-0.357544
C19	C	0.797729	-0.357942	-0.357575
C20	C	0.598288	-0.407682	-0.407052
C21	C	0.548883	-0.339967	-0.425328
C22	C	0.646599	-0.357984	-0.357539
C23	C	0.548922	-0.425737	-0.339262
C24	C	0.500614	-0.358030	-0.357505
C25	C	0.598282	-0.290233	-0.375850
C26	C	0.598324	-0.376049	-0.289753
C27	C	0.548942	-0.308287	-0.308004
C28	C	0.730697	-0.357958	-0.357560
C29	C	0.416517	-0.358047	-0.357484
C30	C	1.073170	-0.550949	-0.357482
C31	C	1.073214	-0.633494	-0.357495
C32	C	1.122915	-0.832940	-0.307949
C33	C	1.141051	-0.882282	-0.375725
C34	C	1.073256	-0.784625	-0.357524
C35	C	1.055196	-0.882364	-0.289779
C36	C	1.073298	-0.930610	-0.357547
C37	C	1.091426	-0.832880	-0.425335
C38	C	1.005539	-0.832958	-0.339344
C39	C	1.023649	-0.882278	-0.407166
C40	C	1.073233	-0.700527	-0.357510
C41	C	1.073320	-1.014706	-0.357568
C42	C	1.266933	-0.358048	-0.357480
C43	C	1.349478	-0.358070	-0.357467
C44	C	1.073256	-0.357964	-0.551218
C45	C	1.073269	-0.357950	-0.633763
C46	C	1.073305	-0.164291	-0.357558
C47	C	1.073338	-0.081745	-0.357578
C48	C	1.023680	-0.407475	-0.833211
C49	C	1.091439	-0.425641	-0.882583
C50	C	1.073305	-0.357893	-0.784894
C51	C	1.005584	-0.339706	-0.882603
C52	C	1.073335	-0.357840	-0.930879
C53	C	1.141099	-0.376095	-0.833179
C54	C	1.055199	-0.290128	-0.833195
C55	C	1.123004	-0.308269	-0.882545
C56	C	1.073287	-0.357926	-0.700796
C57	C	1.073360	-0.357807	-1.014976
C58	C	1.073241	-0.357976	-0.164560
C59	C	1.073372	-0.357781	-0.082014
H60	H	0.620058	-0.391334	-0.232459
C61	C	0.519628	-0.503115	-0.318392
C62	C	0.470853	-0.513039	-0.249101
C63	C	0.441561	-0.590418	-0.228239
C64	C	0.461045	-0.657873	-0.276668
C65	C	0.509823	-0.647951	-0.345964
C66	C	0.539114	-0.570572	-0.366826
H67	H	0.456428	-0.463103	-0.213247
H68	H	0.405453	-0.597762	-0.176942
H69	H	0.439361	-0.715153	-0.261225
H70	H	0.524248	-0.697887	-0.381818
H71	H	0.575223	-0.563227	-0.418123
H72	H	0.948271	-0.811275	-0.323932
C73	C	1.112151	-0.503024	-0.911901
C74	C	1.063587	-0.570424	-0.892438
C75	C	1.084293	-0.647809	-0.921755
C76	C	1.153563	-0.657793	-0.970534
C77	C	1.202132	-0.590391	-0.990000
C78	C	1.181426	-0.513006	-0.960683
H79	H	1.012305	-0.563036	-0.856326
H80	H	1.048339	-0.697704	-0.907345
H81	H	1.168891	-0.715077	-0.992236
H82	H	1.253413	-0.597779	-1.026112
H83	H	1.217380	-0.463111	-0.975093
C84	C	0.519843	-0.251479	-0.251418
C85	C	0.435844	-0.241381	-0.240462
C86	C	0.406741	-0.184573	-0.183880
C87	C	0.461637	-0.137863	-0.138253
C88	C	0.545641	-0.147959	-0.149208
C89	C	0.574744	-0.204767	-0.205790
H90	H	0.395203	-0.275961	-0.274238
H91	H	0.344556	-0.177100	-0.175771
H92	H	0.440093	-0.095810	-0.096368
H93	H	0.586283	-0.113380	-0.115432
H94	H	0.636930	-0.212241	-0.213899
H95	H	1.165031	-0.266316	-0.904070
C96	C	1.179662	-0.803663	-0.251372
C97	C	1.172234	-0.824303	-0.168919
C98	C	1.228982	-0.795024	-0.112347
C99	C	1.293157	-0.745106	-0.138226
C100	C	1.300587	-0.724464	-0.220683
C101	C	1.243840	-0.753743	-0.277255
H102	H	1.124726	-0.861257	-0.149758
H103	H	1.223481	-0.810305	-0.051307
H104	H	1.335165	-0.723433	-0.096348
H105	H	1.348096	-0.687510	-0.239844
H106	H	1.249341	-0.738462	-0.338295
C107	C	0.967042	-0.464188	-0.803937
C108	C	0.884598	-0.456670	-0.824546
C109	C	0.827964	-0.513384	-0.795271
C110	C	0.853773	-0.577616	-0.745387
C111	C	0.936220	-0.585137	-0.724775
C112	C	0.992855	-0.528423	-0.754050
H113	H	0.865489	-0.409119	-0.861475
H114	H	0.766931	-0.507816	-0.810529
H115	H	0.811849	-0.619600	-0.723716
H116	H	0.955329	-0.632689	-0.687846
H117	H	1.053888	-0.533991	-0.738792
H118	H	1.106662	-0.811235	-0.482685
C119	C	0.966942	-0.911378	-0.463873
C120	C	0.884516	-0.890760	-0.456231
C121	C	0.827815	-0.919867	-0.512938
C122	C	0.853540	-0.969591	-0.577288
C123	C	0.935970	-0.990212	-0.584933
C124	C	0.992671	-0.961105	-0.528225
H125	H	0.865470	-0.853948	-0.408593
H126	H	0.766795	-0.904602	-0.507279
H127	H	0.811566	-0.991138	-0.619266
H128	H	0.955016	-1.027023	-0.632570
H129	H	1.053691	-0.976370	-0.533885
C130	C	1.218436	-0.911555	-0.396519
C131	C	1.261196	-0.961471	-0.342115
C132	C	1.338583	-0.990739	-0.362904
C133	C	1.373211	-0.970092	-0.438098
C134	C	1.330451	-0.920174	-0.492507
C135	C	1.253064	-0.890906	-0.471718
H136	H	1.235563	-0.976758	-0.286447
H137	H	1.370237	-1.027692	-0.322626
H138	H	1.430498	-0.991759	-0.453487
H139	H	1.356085	-0.904887	-0.548175
H140	H	1.221411	-0.853953	-0.511996
H141	H	1.039903	-0.904100	-0.232479
H142	H	1.039846	-0.232860	-0.811484
C143	C	1.218510	-0.396932	-0.803982
C144	C	1.232791	-0.400839	-0.719963
C145	C	1.310200	-0.421675	-0.690764
C146	C	1.373328	-0.438604	-0.745584
C147	C	1.359049	-0.434699	-0.829608
C148	C	1.281640	-0.413863	-0.858807
H149	H	1.186058	-0.388306	-0.679377
H150	H	1.320771	-0.424566	-0.628563
H151	H	1.430631	-0.454028	-0.723969
H152	H	1.405782	-0.447231	-0.870194
H153	H	1.271070	-0.410971	-0.921008
C154	C	0.928201	-0.318946	-0.911930
C155	C	0.864807	-0.302682	-0.857214
C156	C	0.787423	-0.281928	-0.886537
C157	C	0.773432	-0.277438	-0.970576
C158	C	0.836827	-0.293703	-1.025297
C159	C	0.914211	-0.314457	-0.995974
H160	H	0.875163	-0.306005	-0.794998
H161	H	0.740494	-0.269888	-0.846028
H162	H	0.716147	-0.262075	-0.992283
H163	H	0.826472	-0.290379	-1.087512
H164	H	0.961141	-0.326496	-1.036482
H165	H	0.527166	-0.324702	-0.482639
C166	C	0.627567	-0.464361	-0.463675
C167	C	0.608031	-0.456081	-0.546310
C168	C	0.637312	-0.512756	-0.602934
C169	C	0.686129	-0.577710	-0.576923
C170	C	0.705667	-0.585993	-0.494285
C171	C	0.676386	-0.529318	-0.437661
H172	H	0.571892	-0.407996	-0.565568
H173	H	0.622848	-0.506624	-0.664109
H174	H	0.707804	-0.619664	-0.618840
H175	H	0.741807	-0.634079	-0.475027
H176	H	0.690850	-0.535450	-0.376486
H177	H	0.619873	-0.232937	-0.391360
