data_functionalizedCrystal
_audit_creation_method	'MofGen! by Chris Wilmer'
_symmetry_space_group_name_H-M	'P1'
_symmetry_Int_Tables_number	1
_symmetry_cell_setting	triclinic
loop_
_symmetry_equiv_pos_as_xyz
  x,y,z
_cell_length_a	6.817900
_cell_length_b	7.190334
_cell_length_c	9.582889
_cell_angle_alpha	93.430809
_cell_angle_beta	111.207298
_cell_angle_gamma	60.611776
loop_
_atom_site_label
_atom_site_type_symbol
_atom_site_fract_x
_atom_site_fract_y
_atom_site_fract_z
V1	V	-4.262320	0.664615	-0.204670
V2	V	-3.762320	1.164615	0.295330
O3	O	-4.204366	0.652365	0.012291
O4	O	-3.704366	1.152365	0.512291
O5	O	-4.251643	0.659683	-0.408189
O6	O	-3.751643	1.159683	0.091811
O7	O	-4.298672	0.954652	-0.200444
O8	O	-3.798672	1.454652	0.299556
O9	O	-4.157011	0.355353	-0.196891
O10	O	-3.657011	0.855353	0.303109
V11	V	-4.730079	0.627671	-0.178846
V12	V	-4.230079	1.127671	0.321154
O13	O	-4.558161	0.745653	-0.261317
O14	O	-4.058161	1.245653	0.238683
O15	O	-4.884436	0.546634	-0.122200
O16	O	-4.384436	1.046634	0.377800
O17	O	-4.517549	0.632603	0.024672
O18	O	-4.017549	1.132603	0.524672
O19	O	-4.905430	0.639921	-0.395808
O20	O	-4.405430	1.139921	0.104192
O21	O	-4.952784	0.936933	-0.186625
O22	O	-4.452784	1.436933	0.313375
O23	O	-4.470520	0.337634	-0.183072
O24	O	-3.970520	0.837634	0.316928
C25	C	-4.103079	0.649098	-0.457836
C26	C	-3.603079	1.149098	0.042164
C27	C	-4.176201	0.646999	-0.624208
C28	C	-3.676201	1.146999	-0.124208
C29	C	-4.163078	1.025359	-0.192830
C30	C	-3.663078	1.525359	0.307170
C31	C	-4.276422	1.266920	-0.190680
C32	C	-3.776422	1.766920	0.309320
C33	C	-4.329455	0.643182	0.074311
C34	C	-3.829455	1.143182	0.574311
C35	C	-4.235576	0.645295	0.240682
C36	C	-3.735576	1.145295	0.740682
