data_functionalizedCrystal
_audit_creation_method	'MofGen! by Chris Wilmer'
_symmetry_space_group_name_H-M	'P1'
_symmetry_Int_Tables_number	1
_symmetry_cell_setting	triclinic
loop_
_symmetry_equiv_pos_as_xyz
  x,y,z
_cell_length_a	21.395362
_cell_length_b	25.639239
_cell_length_c	21.395355
_cell_angle_alpha	90.019334
_cell_angle_beta	90.043940
_cell_angle_gamma	90.054564
loop_
_atom_site_label
_atom_site_type_symbol
_atom_site_fract_x
_atom_site_fract_y
_atom_site_fract_z
Zn1	Zn	0.957825	-0.207990	0.354582
Zn2	Zn	1.207825	0.042010	0.604582
Zn3	Zn	1.457825	0.292010	0.854582
Zn4	Zn	1.707825	0.542010	1.104582
Zn5	Zn	0.957713	-0.295409	0.249803
Zn6	Zn	1.207713	-0.045409	0.499803
Zn7	Zn	1.457713	0.204591	0.749803
Zn8	Zn	1.707713	0.454591	0.999803
Zn9	Zn	0.853040	-0.208014	0.249783
Zn10	Zn	1.103040	0.041986	0.499783
Zn11	Zn	1.353040	0.291986	0.749783
Zn12	Zn	1.603040	0.541986	0.999783
Zn13	Zn	0.852994	-0.295420	0.354508
Zn14	Zn	1.102994	-0.045420	0.604508
Zn15	Zn	1.352994	0.204580	0.854508
Zn16	Zn	1.602994	0.454580	1.104508
O17	O	0.905393	-0.251708	0.302169
O18	O	1.155393	-0.001708	0.552169
O19	O	1.405393	0.248292	0.802169
O20	O	1.655393	0.498292	1.052169
O21	O	1.045488	-0.219571	0.340722
O22	O	1.295488	0.030429	0.590722
O23	O	1.545488	0.280429	0.840722
O24	O	1.795488	0.530429	1.090722
O25	O	0.943800	-0.283822	0.162122
O26	O	1.193800	-0.033822	0.412122
O27	O	1.443800	0.216178	0.662122
O28	O	1.693800	0.466178	0.912122
O29	O	0.867006	-0.134846	0.263708
O30	O	1.117006	0.115154	0.513708
O31	O	1.367006	0.365154	0.763708
O32	O	1.617006	0.615154	1.013708
O33	O	1.045405	-0.283798	0.263742
O34	O	1.295405	-0.033798	0.513742
O35	O	1.545405	0.216202	0.763742
O36	O	1.795405	0.466202	1.013742
O37	O	0.943991	-0.134828	0.340703
O38	O	1.193991	0.115172	0.590703
O39	O	1.443991	0.365172	0.840703
O40	O	1.693991	0.615172	1.090703
O41	O	0.866897	-0.219613	0.162108
O42	O	1.116897	0.030387	0.412108
O43	O	1.366897	0.280387	0.662108
O44	O	1.616897	0.530387	0.912108
O45	O	0.765356	-0.219623	0.263636
O46	O	1.015356	0.030377	0.513636
O47	O	1.265356	0.280377	0.763636
O48	O	1.515356	0.530377	1.013636
O49	O	0.866928	-0.283817	0.442196
O50	O	1.116928	-0.033817	0.692196
O51	O	1.366928	0.216183	0.942196
O52	O	1.616928	0.466183	1.192196
O53	O	0.765322	-0.283840	0.340576
O54	O	1.015322	-0.033840	0.590576
O55	O	1.265322	0.216160	0.840576
O56	O	1.515322	0.466160	1.090576
O57	O	0.943947	-0.219582	0.442250
O58	O	1.193947	0.030418	0.692250
O59	O	1.443947	0.280418	0.942250
O60	O	1.693947	0.530418	1.192250
O61	O	0.943756	-0.368576	0.263669
O62	O	1.193756	-0.118576	0.513669
O63	O	1.443756	0.131424	0.763669
O64	O	1.693756	0.381424	1.013669
O65	O	0.866820	-0.368584	0.340596
O66	O	1.116820	-0.118584	0.590596
O67	O	1.366820	0.131416	0.840596
O68	O	1.616820	0.381416	1.090596
C69	C	0.742605	-0.251736	0.302096
C70	C	0.992605	-0.001736	0.552096
C71	C	1.242605	0.248264	0.802096
C72	C	1.492605	0.498264	1.052096
C73	C	0.672964	-0.251760	0.302080
C74	C	0.922964	-0.001760	0.552080
C75	C	1.172964	0.248240	0.802080
C76	C	1.422964	0.498240	1.052080
C77	C	0.640250	-0.285243	0.342083
C78	C	0.890250	-0.035243	0.592083
C79	C	1.140250	0.214757	0.842083
C80	C	1.390250	0.464757	1.092083
C81	C	0.574814	-0.285230	0.342111
C82	C	0.824814	-0.035230	0.592111
C83	C	1.074814	0.214770	0.842111
C84	C	1.324814	0.464770	1.092111
C85	C	0.542096	-0.251740	0.302125
C86	C	0.792096	-0.001740	0.552125
C87	C	1.042096	0.248260	0.802125
C88	C	1.292096	0.498260	1.052125
C89	C	0.574818	-0.218252	0.262119
C90	C	0.824818	0.031748	0.512119
C91	C	1.074818	0.281748	0.762119
C92	C	1.324818	0.531748	1.012119
C93	C	0.640252	-0.218262	0.262097
C94	C	0.890252	0.031738	0.512097
C95	C	1.140252	0.281738	0.762097
C96	C	1.390252	0.531738	1.012097
C97	C	0.438372	-0.247528	0.245720
C98	C	0.688372	0.002472	0.495720
C99	C	0.938372	0.252472	0.745720
C100	C	1.188372	0.502472	0.995720
C101	C	0.372939	-0.247522	0.245741
C102	C	0.622939	0.002478	0.495741
C103	C	0.872939	0.252478	0.745741
C104	C	1.122939	0.502478	0.995741
C105	C	0.340275	-0.251706	0.302194
C106	C	0.590275	-0.001706	0.552194
C107	C	0.840275	0.248294	0.802194
C108	C	1.090275	0.498294	1.052194
C109	C	0.373052	-0.255908	0.358627
C110	C	0.623052	-0.005908	0.608627
C111	C	0.873052	0.244092	0.858627
C112	C	1.123052	0.494092	1.108627
C113	C	0.438486	-0.255918	0.358605
C114	C	0.688486	-0.005918	0.608605
C115	C	0.938486	0.244082	0.858605
C116	C	1.188486	0.494082	1.108605
C117	C	0.471143	-0.251725	0.302145
C118	C	0.721143	-0.001725	0.552145
C119	C	0.971143	0.248275	0.802145
C120	C	1.221143	0.498275	1.052145
C121	C	0.236608	-0.285176	0.342231
C122	C	0.486608	-0.035176	0.592231
C123	C	0.736608	0.214824	0.842231
C124	C	0.986608	0.464824	1.092231
C125	C	0.171172	-0.285160	0.342260
C126	C	0.421172	-0.035160	0.592260
C127	C	0.671172	0.214840	0.842260
C128	C	0.921172	0.464840	1.092260
C129	C	0.171176	-0.218185	0.262262
C130	C	0.421176	0.031815	0.512262
C131	C	0.671176	0.281815	0.762262
C132	C	0.921176	0.531815	1.012262
C133	C	0.236612	-0.218198	0.262239
C134	C	0.486612	0.031802	0.512239
C135	C	0.736612	0.281802	0.762239
C136	C	0.986612	0.531802	1.012239
C137	C	0.269324	-0.251697	0.302222
C138	C	0.519324	-0.001697	0.552222
C139	C	0.769324	0.248303	0.802222
C140	C	1.019324	0.498303	1.052222
C141	C	0.905288	-0.387551	0.302140
C142	C	1.155288	-0.137551	0.552140
C143	C	1.405288	0.112449	0.802140
C144	C	1.655288	0.362449	1.052140
C145	C	0.905300	-0.445665	0.302149
C146	C	1.155300	-0.195665	0.552149
C147	C	1.405300	0.054335	0.802149
C148	C	1.655300	0.304335	1.052149
C149	C	0.945558	-0.806011	0.262182
C150	C	1.195558	-0.556011	0.512182
C151	C	1.445558	-0.306011	0.762182
C152	C	1.695558	-0.056011	1.012182
C153	C	0.945582	-0.860616	0.262190
C154	C	1.195582	-0.610616	0.512190
C155	C	1.445582	-0.360616	0.762190
C156	C	1.695582	-0.110616	1.012190
O157	O	0.979702	-0.888838	0.228177
O158	O	1.229702	-0.638838	0.478177
O159	O	1.479702	-0.388838	0.728177
O160	O	1.729702	-0.138838	0.978177
N161	N	0.905503	-0.887947	0.302211
N162	N	1.155503	-0.637947	0.552211
N163	N	1.405503	-0.387947	0.802211
N164	N	1.655503	-0.137947	1.052211
C165	C	0.865401	-0.860672	0.342230
C166	C	1.115401	-0.610672	0.592230
C167	C	1.365401	-0.360672	0.842230
C168	C	1.615401	-0.110672	1.092230
O169	O	0.831313	-0.888934	0.376271
O170	O	1.081313	-0.638934	0.626271
O171	O	1.331313	-0.388934	0.876271
O172	O	1.581313	-0.138934	1.126271
C173	C	0.865381	-0.806069	0.342224
C174	C	1.115381	-0.556069	0.592224
C175	C	1.365381	-0.306069	0.842224
C176	C	1.615381	-0.056069	1.092224
C177	C	0.905458	-0.778740	0.302196
C178	C	1.155458	-0.528740	0.552196
C179	C	1.405458	-0.278740	0.802196
C180	C	1.655458	-0.028740	1.052196
C181	C	0.985633	-0.778682	0.222158
C182	C	1.235633	-0.528682	0.472158
C183	C	1.485633	-0.278682	0.722158
C184	C	1.735633	-0.028682	0.972158
C185	C	0.985608	-0.724082	0.222149
C186	C	1.235608	-0.474082	0.472149
C187	C	1.485608	-0.224082	0.722149
C188	C	1.735608	0.025918	0.972149
C189	C	0.945508	-0.696810	0.262164
C190	C	1.195508	-0.446810	0.512164
C191	C	1.445508	-0.196810	0.762164
C192	C	1.695508	0.053190	1.012164
C193	C	0.905433	-0.724139	0.302187
C194	C	1.155433	-0.474139	0.552187
C195	C	1.405433	-0.224139	0.802187
C196	C	1.655433	0.025861	1.052187
C197	C	0.825282	-0.778794	0.382246
C198	C	1.075282	-0.528794	0.632246
C199	C	1.325282	-0.278794	0.882246
C200	C	1.575282	-0.028794	1.132246
C201	C	0.825266	-0.724187	0.382237
C202	C	1.075266	-0.474187	0.632237
C203	C	1.325266	-0.224187	0.882237
C204	C	1.575266	0.025813	1.132237
C205	C	0.865343	-0.696858	0.342209
C206	C	1.115343	-0.446858	0.592209
C207	C	1.365343	-0.196858	0.842209
C208	C	1.615343	0.053142	1.092209
C209	C	0.865308	-0.642267	0.342193
C210	C	1.115308	-0.392267	0.592193
C211	C	1.365308	-0.142267	0.842193
C212	C	1.615308	0.107733	1.092193
N213	N	0.905387	-0.614935	0.302173
N214	N	1.155387	-0.364935	0.552173
N215	N	1.405387	-0.114935	0.802173
N216	N	1.655387	0.135065	1.052173
C217	C	0.945487	-0.642207	0.262158
C218	C	1.195487	-0.392207	0.512158
C219	C	1.445487	-0.142207	0.762158
C220	C	1.695487	0.107793	1.012158
C221	C	0.865448	-0.975343	0.342239
C222	C	1.115448	-0.725343	0.592239
C223	C	1.365448	-0.475343	0.842239
C224	C	1.615448	-0.225343	1.092239
C225	C	0.865465	-1.029945	0.342242
C226	C	1.115465	-0.779945	0.592242
C227	C	1.365465	-0.529945	0.842242
C228	C	1.615465	-0.279945	1.092242
C229	C	0.945648	-1.029885	0.262204
C230	C	1.195648	-0.779885	0.512204
C231	C	1.445648	-0.529885	0.762204
C232	C	1.695648	-0.279885	1.012204
C233	C	0.945627	-0.975281	0.262198
C234	C	1.195627	-0.725281	0.512198
C235	C	1.445627	-0.475281	0.762198
C236	C	1.695627	-0.225281	1.012198
C237	C	0.905528	-0.948011	0.302219
C238	C	1.155528	-0.698011	0.552219
C239	C	1.405528	-0.448011	0.802219
C240	C	1.655528	-0.198011	1.052219
C241	C	0.945430	-0.527542	0.262142
C242	C	1.195430	-0.277542	0.512142
C243	C	1.445430	-0.027542	0.762142
C244	C	1.695430	0.222458	1.012142
C245	C	0.945400	-0.472937	0.262134
C246	C	1.195400	-0.222937	0.512134
C247	C	1.445400	0.027063	0.762134
C248	C	1.695400	0.277063	1.012134
C249	C	0.865220	-0.473002	0.342175
C250	C	1.115220	-0.223002	0.592175
C251	C	1.365220	0.026998	0.842175
C252	C	1.615220	0.276998	1.092175
C253	C	0.865248	-0.527602	0.342180
C254	C	1.115248	-0.277602	0.592180
C255	C	1.365248	-0.027602	0.842180
C256	C	1.615248	0.222398	1.092180
C257	C	0.905358	-0.554871	0.302162
C258	C	1.155358	-0.304871	0.552162
C259	C	1.405358	-0.054871	0.802162
C260	C	1.655358	0.195129	1.052162
O261	O	0.831207	-0.614010	0.376190
O262	O	1.081207	-0.364010	0.626190
O263	O	1.331207	-0.114010	0.876190
O264	O	1.581207	0.135990	1.126190
O265	O	0.979575	-0.613939	0.228128
O266	O	1.229575	-0.363939	0.478128
O267	O	1.479575	-0.113939	0.728128
O268	O	1.729575	0.136061	0.978128
C269	C	1.068816	-0.251681	0.302242
C270	C	1.318816	-0.001681	0.552242
C271	C	1.568816	0.248319	0.802242
C272	C	1.818816	0.498319	1.052242
C273	C	1.138458	-0.251669	0.302274
C274	C	1.388458	-0.001669	0.552274
C275	C	1.638458	0.248331	0.802274
C276	C	1.888458	0.498331	1.052274
C277	C	0.905445	-0.251698	0.465592
C278	C	1.155445	-0.001698	0.715592
C279	C	1.405445	0.248302	0.965592
C280	C	1.655445	0.498302	1.215592
C281	C	0.905467	-0.251693	0.535234
C282	C	1.155467	-0.001693	0.785234
C283	C	1.405467	0.248307	1.035234
C284	C	1.655467	0.498307	1.285234
C285	C	0.905516	-0.115335	0.302212
C286	C	1.155516	0.134665	0.552212
C287	C	1.405516	0.384665	0.802212
C288	C	1.655516	0.634665	1.052212
C289	C	0.905568	-0.057221	0.302230
C290	C	1.155568	0.192779	0.552230
C291	C	1.405568	0.442779	0.802230
C292	C	1.655568	0.692779	1.052230
C293	C	0.905377	-0.251681	0.139381
C294	C	1.155377	-0.001681	0.389381
C295	C	1.405377	0.248319	0.639381
C296	C	1.655377	0.498319	0.889381
C297	C	0.905476	-0.251538	0.069741
C298	C	1.155476	-0.001538	0.319741
C299	C	1.405476	0.248462	0.569741
C300	C	1.655476	0.498462	0.819741
C301	C	0.945569	-0.218245	0.567976
C302	C	1.195569	0.031755	0.817976
C303	C	1.445569	0.281755	1.067976
C304	C	1.695569	0.531755	1.317976
C305	C	0.945568	-0.218222	0.633412
C306	C	1.195568	0.031778	0.883412
C307	C	1.445568	0.281778	1.133412
C308	C	1.695568	0.531778	1.383412
C309	C	0.905472	-0.251658	0.666102
C310	C	1.155472	-0.001658	0.916102
C311	C	1.405472	0.248342	1.166102
C312	C	1.655472	0.498342	1.416102
C313	C	0.865362	-0.285108	0.633352
C314	C	1.115362	-0.035108	0.883352
C315	C	1.365362	0.214892	1.133352
C316	C	1.615362	0.464892	1.383352
C317	C	0.865360	-0.285126	0.567917
C318	C	1.115360	-0.035126	0.817917
C319	C	1.365360	0.214874	1.067917
C320	C	1.615360	0.464874	1.317917
C321	C	0.900488	-0.298736	0.769765
C322	C	1.150488	-0.048736	1.019765
C323	C	1.400488	0.201264	1.269765
C324	C	1.650488	0.451264	1.519765
C325	C	0.900495	-0.298719	0.835198
C326	C	1.150495	-0.048719	1.085198
C327	C	1.400495	0.201281	1.335198
C328	C	1.650495	0.451281	1.585198
C329	C	0.905476	-0.251602	0.867923
C330	C	1.155476	-0.001602	1.117923
C331	C	1.405476	0.248398	1.367923
C332	C	1.655476	0.498398	1.617923
C333	C	0.910463	-0.204501	0.835207
C334	C	1.160463	0.045499	1.085207
C335	C	1.410463	0.295499	1.335207
C336	C	1.660463	0.545499	1.585207
C337	C	0.910461	-0.204519	0.769773
C338	C	1.160461	0.045481	1.019773
C339	C	1.410461	0.295481	1.269773
C340	C	1.660461	0.545481	1.519773
C341	C	0.905470	-0.251642	0.737054
C342	C	1.155470	-0.001642	0.987054
C343	C	1.405470	0.248358	1.237054
C344	C	1.655470	0.498358	1.487054
C345	C	0.945579	-0.218127	0.971618
C346	C	1.195579	0.031873	1.221618
C347	C	1.445579	0.281873	1.471618
C348	C	1.695579	0.531873	1.721618
C349	C	0.945574	-0.218103	1.037055
C350	C	1.195574	0.031897	1.287055
C351	C	1.445574	0.281897	1.537055
C352	C	1.695574	0.531897	1.787055
C353	C	0.865371	-0.284994	1.036993
C354	C	1.115371	-0.034994	1.286993
C355	C	1.365371	0.215006	1.536993
C356	C	1.615371	0.465006	1.786993
C357	C	0.865373	-0.285013	0.971558
C358	C	1.115373	-0.035013	1.221558
C359	C	1.365373	0.214987	1.471558
C360	C	1.615373	0.464987	1.721558
C361	C	0.905480	-0.251580	0.938874
C362	C	1.155480	-0.001580	1.188874
C363	C	1.405480	0.248420	1.438874
C364	C	1.655480	0.498420	1.688874
H365	H	0.346459	-0.259314	0.404597
H366	H	0.596459	-0.009314	0.654597
H367	H	0.846459	0.240686	0.904597
H368	H	1.096459	0.490686	1.154597
H369	H	0.896265	-0.337094	0.743126
H370	H	1.146265	-0.087094	0.993126
H371	H	1.396265	0.162906	1.243126
H372	H	1.646265	0.412906	1.493126
H373	H	0.914520	-0.166134	0.861850
H374	H	1.164520	0.083866	1.111850
H375	H	1.414520	0.333866	1.361850
H376	H	1.664520	0.583866	1.611850
N377	N	0.822018	-0.557079	0.385348
N378	N	1.072018	-0.307079	0.635348
N379	N	1.322018	-0.057079	0.885348
N380	N	1.572018	0.192921	1.135348
H381	H	0.847477	-0.579692	0.414421
H382	H	1.097477	-0.329692	0.664421
H383	H	1.347477	-0.079692	0.914421
H384	H	1.597477	0.170308	1.164421
H385	H	0.793014	-0.579748	0.359810
H386	H	1.043014	-0.329748	0.609810
H387	H	1.293014	-0.079748	0.859810
H388	H	1.543014	0.170252	1.109810
H389	H	0.263248	-0.190936	0.229661
H390	H	0.513248	0.059064	0.479661
H391	H	0.763248	0.309064	0.729661
H392	H	1.013248	0.559064	0.979661
H393	H	0.666887	-0.190995	0.229521
H394	H	0.916887	0.059005	0.479521
H395	H	1.166887	0.309005	0.729521
H396	H	1.416887	0.559005	0.979521
H397	H	0.666880	-0.312519	0.374642
H398	H	0.916880	-0.062519	0.624642
H399	H	1.166880	0.187481	0.874642
H400	H	1.416880	0.437481	1.124642
N401	N	0.988817	-0.182016	1.072373
N402	N	1.238817	0.067984	1.322373
N403	N	1.488817	0.317984	1.572373
N404	N	1.738817	0.567984	1.822373
H405	H	1.014221	-0.160839	1.041737
H406	H	1.264221	0.089161	1.291737
H407	H	1.514221	0.339161	1.541737
H408	H	1.764221	0.589161	1.791737
H409	H	1.017793	-0.203281	1.099550
H410	H	1.267793	0.046719	1.349550
H411	H	1.517793	0.296719	1.599550
H412	H	1.767793	0.546719	1.849550
H413	H	1.018244	-0.701834	0.189557
H414	H	1.268244	-0.451834	0.439557
H415	H	1.518244	-0.201834	0.689557
H416	H	1.768244	0.048166	0.939557
N417	N	0.539519	-0.321343	0.385260
N418	N	0.789519	-0.071343	0.635260
N419	N	1.039519	0.178657	0.885260
N420	N	1.289519	0.428657	1.135260
H421	H	0.570171	-0.342564	0.410586
H422	H	0.820171	-0.092564	0.660586
H423	H	1.070171	0.157436	0.910586
H424	H	1.320171	0.407436	1.160586
H425	H	0.512310	-0.345500	0.359707
H426	H	0.762310	-0.095500	0.609707
H427	H	1.012310	0.154500	0.859707
H428	H	1.262310	0.404500	1.109707
N429	N	0.895118	-0.349520	0.870478
N430	N	1.145118	-0.099520	1.120478
N431	N	1.395118	0.150480	1.370478
N432	N	1.645118	0.400480	1.620478
H433	H	0.856512	-0.348813	0.897602
H434	H	1.106512	-0.098813	1.147602
H435	H	1.356512	0.151187	1.397602
H436	H	1.606512	0.401187	1.647602
H437	H	0.933313	-0.354384	0.897616
H438	H	1.183313	-0.104384	1.147616
H439	H	1.433313	0.145616	1.397616
H440	H	1.683313	0.395616	1.647616
H441	H	0.978227	-0.191020	0.541369
H442	H	1.228227	0.058980	0.791369
H443	H	1.478227	0.308980	1.041369
H444	H	1.728227	0.558980	1.291369
N445	N	0.822118	-0.321053	1.072243
N446	N	1.072118	-0.071053	1.322243
N447	N	1.322118	0.178947	1.572243
N448	N	1.572118	0.428947	1.822243
H449	H	0.828203	-0.315966	1.118664
H450	H	1.078203	-0.065966	1.368664
H451	H	1.328203	0.184034	1.618664
H452	H	1.578203	0.434034	1.868664
H453	H	0.831834	-0.358396	1.060813
H454	H	1.081834	-0.108396	1.310813
H455	H	1.331834	0.141604	1.560813
H456	H	1.581834	0.391604	1.810813
N457	N	0.822184	-0.945936	0.385400
N458	N	1.072184	-0.695936	0.635400
N459	N	1.322184	-0.445936	0.885400
N460	N	1.572184	-0.195936	1.135400
H461	H	0.793152	-0.923322	0.359897
H462	H	1.043152	-0.673322	0.609897
H463	H	1.293152	-0.423322	0.859897
H464	H	1.543152	-0.173322	1.109897
H465	H	0.847660	-0.923272	0.414463
H466	H	1.097660	-0.673272	0.664463
H467	H	1.347660	-0.423272	0.914463
H468	H	1.597660	-0.173272	1.164463
N469	N	0.822112	-0.321211	0.532600
N470	N	1.072112	-0.071211	0.782600
N471	N	1.322112	0.178789	1.032600
N472	N	1.572112	0.428789	1.282600
H473	H	0.828197	-0.316151	0.486188
H474	H	1.078197	-0.066151	0.736188
H475	H	1.328197	0.183849	0.986188
H476	H	1.578197	0.433849	1.236188
H477	H	0.777371	-0.313078	0.544001
H478	H	1.027371	-0.063078	0.794001
H479	H	1.277371	0.186922	1.044001
H480	H	1.527371	0.436922	1.294001
H481	H	0.978222	-0.190982	0.660076
H482	H	1.228222	0.059018	0.910076
H483	H	1.478222	0.309018	1.160076
H484	H	1.728222	0.559018	1.410076
H485	H	0.978233	-0.190901	0.945006
H486	H	1.228233	0.059099	1.195006
H487	H	1.478233	0.309099	1.445006
H488	H	1.728233	0.559099	1.695006
N489	N	0.821967	-0.443582	0.385328
N490	N	1.071967	-0.193582	0.635328
N491	N	1.321967	0.056418	0.885328
N492	N	1.571967	0.306418	1.135328
H493	H	0.828037	-0.404845	0.379246
H494	H	1.078037	-0.154845	0.629246
H495	H	1.328037	0.095155	0.879246
H496	H	1.578037	0.345155	1.129246
H497	H	0.831702	-0.453096	0.430090
H498	H	1.081702	-0.203096	0.680090
H499	H	1.331702	0.046904	0.930090
H500	H	1.581702	0.296904	1.180090
N501	N	0.782064	-0.808266	0.425423
N502	N	1.032064	-0.558266	0.675423
N503	N	1.282064	-0.308266	0.925423
N504	N	1.532064	-0.058266	1.175423
H505	H	0.753045	-0.830963	0.399936
H506	H	1.003045	-0.580963	0.649936
H507	H	1.253045	-0.330963	0.899936
H508	H	1.503045	-0.080963	1.149936
H509	H	0.756705	-0.782666	0.450764
H510	H	1.006705	-0.532666	0.700764
H511	H	1.256705	-0.282666	0.950764
H512	H	1.506705	-0.032666	1.200764
H513	H	0.978301	-1.052099	0.229624
H514	H	1.228301	-0.802099	0.479624
H515	H	1.478301	-0.552099	0.729624
H516	H	1.728301	-0.302099	0.979624
H517	H	0.144537	-0.312424	0.374839
H518	H	0.394537	-0.062424	0.624839
H519	H	0.644537	0.187576	0.874839
H520	H	0.894537	0.437576	1.124839
N521	N	0.915841	-0.153722	0.734484
N522	N	1.165841	0.096278	0.984484
N523	N	1.415841	0.346278	1.234484
N524	N	1.665841	0.596278	1.484484
H525	H	0.918999	-0.123869	0.765140
H526	H	1.168999	0.126131	1.015140
H527	H	1.418999	0.376131	1.265140
H528	H	1.668999	0.626131	1.515140
H529	H	0.877670	-0.148881	0.707306
H530	H	1.127670	0.101119	0.957306
H531	H	1.377670	0.351119	1.207306
H532	H	1.627670	0.601119	1.457306
H533	H	0.978093	-0.549738	0.229556
H534	H	1.228093	-0.299738	0.479556
H535	H	1.478093	-0.049738	0.729556
H536	H	1.728093	0.200262	0.979556
N537	N	0.822110	-0.321089	0.936249
N538	N	1.072110	-0.071089	1.186249
N539	N	1.322110	0.178911	1.436249
N540	N	1.572110	0.428911	1.686249
H541	H	0.831800	-0.358442	0.947642
H542	H	1.081800	-0.108442	1.197642
H543	H	1.331800	0.141558	1.447642
H544	H	1.581800	0.391558	1.697642
H545	H	0.828202	-0.315985	0.889846
H546	H	1.078202	-0.065985	1.139846
H547	H	1.328202	0.184015	1.389846
H548	H	1.578202	0.434015	1.639846
N549	N	0.135896	-0.182059	0.219137
N550	N	0.385896	0.067941	0.469137
N551	N	0.635896	0.317941	0.719137
N552	N	0.885896	0.567941	0.969137
H553	H	0.089479	-0.187131	0.225222
H554	H	0.339479	0.062869	0.475222
H555	H	0.589479	0.312869	0.725222
H556	H	0.839479	0.562869	0.975222
H557	H	0.147272	-0.190142	0.174367
H558	H	0.397272	0.059858	0.424367
H559	H	0.647272	0.309858	0.674367
H560	H	0.897272	0.559858	0.924367
N561	N	0.473840	-0.260448	0.419467
N562	N	0.723840	-0.010448	0.669467
N563	N	0.973840	0.239552	0.919467
N564	N	1.223840	0.489552	1.169467
H565	H	0.443224	-0.263098	0.455235
H566	H	0.693224	-0.013098	0.705235
H567	H	0.943224	0.236902	0.955235
H568	H	1.193224	0.486902	1.205235
H569	H	0.501039	-0.228603	0.425342
H570	H	0.751039	0.021397	0.675342
H571	H	1.001039	0.271397	0.925342
H572	H	1.251039	0.521397	1.175342
H573	H	0.548174	-0.190984	0.229563
H574	H	0.798174	0.059016	0.479563
H575	H	1.048174	0.309016	0.729563
H576	H	1.298174	0.559016	0.979563
H577	H	0.263244	-0.312450	0.374791
H578	H	0.513244	-0.062450	0.624791
H579	H	0.763244	0.187550	0.874791
H580	H	1.013244	0.437550	1.124791
H581	H	0.832714	-0.312330	0.659972
H582	H	1.082714	-0.062330	0.909972
H583	H	1.332714	0.187670	1.159972
H584	H	1.582714	0.437670	1.409972
N585	N	0.337589	-0.242994	0.184877
N586	N	0.587589	0.007006	0.434877
N587	N	0.837589	0.257006	0.684877
N588	N	1.087589	0.507006	0.934877
H589	H	0.368208	-0.240339	0.149111
H590	H	0.618208	0.009661	0.399111
H591	H	0.868208	0.259661	0.649111
H592	H	1.118208	0.509661	0.899111
H593	H	0.310483	-0.210777	0.185861
H594	H	0.560483	0.039223	0.435861
H595	H	0.810483	0.289223	0.685861
H596	H	1.060483	0.539223	0.935861
N597	N	0.822237	-1.059416	0.385414
N598	N	1.072237	-0.809416	0.635414
N599	N	1.322237	-0.559416	0.885414
N600	N	1.572237	-0.309416	1.135414
H601	H	0.828332	-1.098147	0.379352
H602	H	1.078332	-0.848147	0.629352
H603	H	1.328332	-0.598147	0.879352
H604	H	1.578332	-0.348147	1.129352
H605	H	0.777491	-1.049923	0.375603
H606	H	1.027491	-0.799923	0.625603
H607	H	1.277491	-0.549923	0.875603
H608	H	1.527491	-0.299923	1.125603
H609	H	0.464961	-0.244119	0.199746
H610	H	0.714961	0.005881	0.449746
H611	H	0.964961	0.255881	0.699746
H612	H	1.214961	0.505881	0.949746
N613	N	0.782016	-0.694774	0.425405
N614	N	1.032016	-0.444774	0.675405
N615	N	1.282016	-0.194774	0.925405
N616	N	1.532016	0.055226	1.175405
H617	H	0.756634	-0.720376	0.450760
H618	H	1.006634	-0.470376	0.700760
H619	H	1.256634	-0.220376	0.950760
H620	H	1.506634	0.029624	1.200760
H621	H	0.753021	-0.672161	0.399864
H622	H	1.003021	-0.422161	0.649864
H623	H	1.253021	-0.172161	0.899864
H624	H	1.503021	0.077839	1.149864
H625	H	0.978036	-0.450687	0.229537
H626	H	1.228036	-0.200687	0.479537
H627	H	1.478036	0.049313	0.729537
H628	H	1.728036	0.299313	0.979537
H629	H	1.018290	-0.800881	0.189573
H630	H	1.268290	-0.550881	0.439573
H631	H	1.518290	-0.300881	0.689573
H632	H	1.768290	-0.050881	0.939573
H633	H	0.978262	-0.953033	0.229605
H634	H	1.228262	-0.703033	0.479605
H635	H	1.478262	-0.453033	0.729605
H636	H	1.728262	-0.203033	0.979605
