data_functionalizedCrystal
_audit_creation_method	'MofGen! by Chris Wilmer'
_symmetry_space_group_name_H-M	'P1'
_symmetry_Int_Tables_number	1
_symmetry_cell_setting	triclinic
loop_
_symmetry_equiv_pos_as_xyz
  x,y,z
_cell_length_a	17.077404
_cell_length_b	17.077402
_cell_length_c	17.077396
_cell_angle_alpha	90.029784
_cell_angle_beta	90.021444
_cell_angle_gamma	90.021130
loop_
_atom_site_label
_atom_site_type_symbol
_atom_site_fract_x
_atom_site_fract_y
_atom_site_fract_z
Zn1	Zn	1.200055	-0.312545	0.443876
Zn2	Zn	1.199962	-0.443820	0.312607
Zn3	Zn	1.068786	-0.312568	0.312620
Zn4	Zn	1.068754	-0.443769	0.443826
O5	O	1.134389	-0.378175	0.378232
O6	O	1.309889	-0.329970	0.426479
O7	O	1.182536	-0.426440	0.202762
O8	O	1.086252	-0.202718	0.330057
O9	O	1.309821	-0.426418	0.330036
O10	O	1.182694	-0.202701	0.426491
O11	O	1.086162	-0.330010	0.202771
O12	O	0.958935	-0.329960	0.330009
O13	O	1.086197	-0.426330	0.553680
O14	O	0.958912	-0.426353	0.426406
O15	O	1.182663	-0.329921	0.553717
O16	O	1.182505	-0.553660	0.329988
O17	O	1.086107	-0.553622	0.426394
C18	C	0.930441	-0.378154	0.378204
C19	C	0.843192	-0.378164	0.378210
C20	C	0.467410	-0.328067	0.428559
C21	C	0.549390	-0.328061	0.428550
C22	C	0.590343	-0.378192	0.378252
C23	C	0.549310	-0.428337	0.327965
C24	C	0.467332	-0.428346	0.327978
C25	C	0.720181	-0.428313	0.327940
C26	C	0.802165	-0.428303	0.327925
C27	C	0.802239	-0.328029	0.428512
C28	C	0.720260	-0.328038	0.428525
C29	C	0.679234	-0.378182	0.378237
C30	C	1.134314	-0.582123	0.378201
C31	C	1.134353	-0.669373	0.378214
C32	C	1.184598	-0.710357	0.328069
C33	C	1.184637	-0.792337	0.328089
C34	C	1.134425	-0.833332	0.378251
C35	C	1.084178	-0.792343	0.428401
C36	C	1.084144	-0.710364	0.428384
C37	C	1.084250	-0.963213	0.428431
C38	C	1.084283	-1.045197	0.428447
C39	C	1.184743	-1.045186	0.328136
C40	C	1.184709	-0.963207	0.328119
C41	C	1.134461	-0.922223	0.378269
C42	C	1.339134	-0.378197	0.378262
C43	C	1.426383	-0.378206	0.378274
C44	C	1.134437	-0.378117	0.582977
C45	C	1.134457	-0.378093	0.670227
C46	C	1.134487	-0.173431	0.378281
C47	C	1.134528	-0.086181	0.378302
C48	C	1.134387	-0.378176	0.174285
C49	C	1.134519	-0.377980	0.087035
C50	C	1.184689	-0.327888	0.711237
C51	C	1.184698	-0.327862	0.793218
C52	C	1.134479	-0.378045	0.834186
C53	C	1.084242	-0.428252	0.793170
C54	C	1.084229	-0.428273	0.711191
C55	C	1.084274	-0.428205	0.964040
C56	C	1.084288	-0.428184	1.046025
C57	C	1.184742	-0.327793	1.046067
C58	C	1.184730	-0.327815	0.964088
C59	C	1.134493	-0.378023	0.923077
H60	H	0.686779	-0.469149	0.286993
H61	H	1.043350	-0.469109	0.826533
C62	C	0.594357	-0.483480	0.272635
C63	C	0.583036	-0.476958	0.183412
C64	C	0.628081	-0.532100	0.128079
C65	C	0.684447	-0.593763	0.161968
C66	C	0.695770	-0.600288	0.251195
C67	C	0.650725	-0.545146	0.306529
H68	H	0.541309	-0.431308	0.158321
H69	H	0.619699	-0.527269	0.062027
H70	H	0.717792	-0.634582	0.121006
H71	H	0.737498	-0.645937	0.276286
H72	H	0.659108	-0.549976	0.372581
H73	H	1.225551	-0.825702	0.287256
C74	C	1.239931	-0.272685	0.666175
C75	C	1.205938	-0.211069	0.609823
C76	C	1.261180	-0.155863	0.564764
C77	C	1.350416	-0.162273	0.576056
C78	C	1.384413	-0.223891	0.632410
C79	C	1.329171	-0.279098	0.677470
H80	H	1.139877	-0.206322	0.601462
H81	H	1.236012	-0.110249	0.523047
H82	H	1.391309	-0.121406	0.542700
H83	H	1.450475	-0.228638	0.640771
H84	H	1.354339	-0.324712	0.719187
H85	H	1.043318	-0.469147	0.677801
H86	H	0.582791	-0.287236	0.469500
H87	H	1.225603	-0.286982	0.826605
C88	C	1.239941	-0.918112	0.272940
C89	C	1.233593	-0.929452	0.183699
C90	C	1.288827	-0.884359	0.128520
C91	C	1.350410	-0.827925	0.162582
C92	C	1.356761	-0.816583	0.251827
C93	C	1.301527	-0.861676	0.307006
H94	H	1.188003	-0.971230	0.158480
H95	H	1.284126	-0.892756	0.062454
H96	H	1.391298	-0.794544	0.121735
H97	H	1.402351	-0.774805	0.277046
H98	H	1.306229	-0.853280	0.373072
C99	C	1.029043	-0.483395	1.091075
C100	C	0.967435	-0.449375	1.147433
C101	C	0.912189	-0.504592	1.192475
C102	C	0.918552	-0.593830	1.181159
C103	C	0.980163	-0.627854	1.124798
C104	C	1.035408	-0.572637	1.079756
H105	H	0.962723	-0.383312	1.155812
H106	H	0.866581	-0.479405	1.234197
H107	H	0.877656	-0.634705	1.214501
H108	H	0.984875	-0.693917	1.116419
H109	H	1.081016	-0.597825	1.038034
H110	H	1.043354	-0.469077	0.930652
C111	C	0.847364	-0.272871	0.483833
C112	C	0.802320	-0.217724	0.539155
C113	C	0.847449	-0.162565	0.594470
C114	C	0.937622	-0.162555	0.594464
C115	C	0.982672	-0.217704	0.539141
C116	C	0.937543	-0.272863	0.483825
H117	H	0.735563	-0.217730	0.539161
H118	H	0.814099	-0.121740	0.635424
H119	H	0.971029	-0.121723	0.635412
H120	H	1.049429	-0.217698	0.539135
H121	H	0.970893	-0.313688	0.442871
C122	C	1.240021	-1.090264	0.272972
C123	C	1.240066	-1.180437	0.272989
C124	C	1.295338	-1.225519	0.217824
C125	C	1.350564	-1.180427	0.162642
C126	C	1.350520	-1.090249	0.162623
C127	C	1.295249	-1.045167	0.217788
H128	H	1.199183	-1.213822	0.313840
H129	H	1.295370	-1.292276	0.217839
H130	H	1.391479	-1.213800	0.121805
H131	H	1.391403	-1.056864	0.121771
H132	H	1.295217	-0.978411	0.217773
H133	H	1.043411	-1.078574	0.469307
C134	C	0.675215	-0.272894	0.483855
C135	C	0.686532	-0.279420	0.573078
C136	C	0.641489	-0.224277	0.628412
C137	C	0.585127	-0.162609	0.594523
C138	C	0.573807	-0.156081	0.505296
C139	C	0.618851	-0.211224	0.449962
H140	H	0.728256	-0.325072	0.598169
H141	H	0.649869	-0.229110	0.694464
H142	H	0.551783	-0.121789	0.635485
H143	H	0.532083	-0.110428	0.480205
H144	H	0.610471	-0.206391	0.383909
C145	C	1.028974	-0.918127	0.483591
C146	C	0.939746	-0.929472	0.477093
C147	C	0.884467	-0.884385	0.532246
C148	C	0.918416	-0.827953	0.593897
C149	C	1.007648	-0.816605	0.600396
C150	C	1.062927	-0.861692	0.545243
H151	H	0.914611	-0.971249	0.431454
H152	H	0.818411	-0.892785	0.527434
H153	H	0.877495	-0.794576	0.634724
H154	H	1.032783	-0.774828	0.646036
H155	H	1.128983	-0.853292	0.550055
C156	C	0.422198	-0.483498	0.272663
C157	C	0.365812	-0.449412	0.211108
C158	C	0.320679	-0.504569	0.155794
C159	C	0.331933	-0.593813	0.162035
C160	C	0.388322	-0.627904	0.223592
C161	C	0.433455	-0.572746	0.278906
H162	H	0.357479	-0.383344	0.206486
H163	H	0.278936	-0.479332	0.110226
H164	H	0.298523	-0.634643	0.121088
H165	H	0.396655	-0.693971	0.228214
H166	H	0.475198	-0.597983	0.324475
C167	C	1.028871	-0.665278	0.483541
C168	C	0.939642	-0.676620	0.477052
C169	C	0.884370	-0.631534	0.532214
C170	C	0.918326	-0.575106	0.593864
C171	C	1.007560	-0.563762	0.600355
C172	C	1.062832	-0.608847	0.545194
H173	H	0.914501	-0.718393	0.431413
H174	H	0.818313	-0.639932	0.527408
H175	H	0.877411	-0.541731	0.634697
H176	H	1.032701	-0.521988	0.645994
H177	H	1.128889	-0.600449	0.550000
H178	H	0.434072	-0.287240	0.469513
H179	H	1.225627	-0.286956	0.930733
H180	H	1.225645	-0.286911	1.079462
H181	H	0.835506	-0.469126	0.286970
H182	H	1.225483	-0.676984	0.287219
H183	H	1.043298	-0.825728	0.469247
