data_functionalizedCrystal
_audit_creation_method	'MofGen! by Chris Wilmer'
_symmetry_space_group_name_H-M	'P1'
_symmetry_Int_Tables_number	1
_symmetry_cell_setting	triclinic
loop_
_symmetry_equiv_pos_as_xyz
  x,y,z
_cell_length_a	9.565339
_cell_length_b	10.654550
_cell_length_c	10.489694
_cell_angle_alpha	84.502426
_cell_angle_beta	90.003996
_cell_angle_gamma	89.992886
loop_
_atom_site_label
_atom_site_type_symbol
_atom_site_fract_x
_atom_site_fract_y
_atom_site_fract_z
O1	O	0.116362	-1.667895	-0.179157
O2	O	0.116339	-1.302421	-0.196226
O3	O	0.116355	-1.493505	-0.002086
O4	O	0.116346	-1.476811	-0.373297
O5	O	-0.116165	-1.493490	-0.002098
O6	O	-0.116181	-1.302406	-0.196238
O7	O	-0.116158	-1.667880	-0.179169
Zn8	Zn	-0.153087	-1.485140	-0.187705
Zn9	Zn	0.153268	-1.485160	-0.187689
O10	O	-0.116174	-1.476796	-0.373309
C11	C	0.000076	-1.255615	-0.194979
C12	C	0.000067	-1.116171	-0.191229
N13	N	-0.362167	-1.485136	-0.187715
C14	C	0.000099	-1.492249	0.045440
C15	C	0.000111	-1.488514	0.187071
C16	C	-0.453377	-1.396739	-0.277469
C17	C	-0.546550	-1.510450	-0.303225
C18	C	-0.546550	-1.371474	-0.161970
C19	C	-0.453287	-1.598905	-0.213529
C20	C	-0.453279	-1.459853	-0.072224
C21	C	-0.546409	-1.573646	-0.097931
N22	N	0.362347	-1.485175	-0.187669
C23	C	0.000108	-1.714685	-0.180416
C24	C	0.000126	-1.854130	-0.184166
C25	C	0.000085	-1.036720	-0.305536
C26	C	0.000109	-0.905698	-0.302005
C27	C	0.000104	-0.933591	-0.069850
C28	C	0.000070	-1.064611	-0.073383
C29	C	0.000082	-1.088280	-0.423383
C30	C	0.000101	-1.008828	-0.537699
C31	C	0.000126	-0.877806	-0.534168
C32	C	0.000131	-0.826237	-0.416320
C33	C	0.000105	-1.605691	0.284802
C34	C	0.114742	-1.543790	0.362140
C35	C	-0.114505	-1.543748	0.362092
C36	C	0.114842	-1.426662	0.262543
C37	C	-0.114508	-1.426637	0.262490
C38	C	0.000157	-1.364650	0.339778
C39	C	0.000084	-1.478072	0.579167
C40	C	0.000077	-1.481866	0.437544
H41	H	-0.412529	-1.322054	-0.353441
H42	H	0.211866	-1.377230	0.219220
H43	H	0.000228	-1.707606	0.260175
H44	H	0.000085	-1.050825	-0.633646
H45	H	0.000212	-1.262658	0.364159
H46	H	-0.412494	-1.695065	-0.235402
H47	H	-0.211420	-1.593231	0.405584
H48	H	-0.587518	-1.531861	-0.400874
H49	H	-0.587001	-1.648500	-0.022006
H50	H	0.211667	-1.593261	0.405664
H51	H	0.000129	-0.719549	-0.413455
H52	H	0.000131	-0.891592	0.026096
H53	H	-0.412278	-1.438407	0.025395
H54	H	-0.211437	-1.377209	0.218942
H55	H	0.000059	-1.129302	0.019696
H56	H	-0.587519	-1.275336	-0.140214
H57	H	0.000127	-0.813119	-0.627250
H58	H	0.000069	-1.194963	-0.426271
