data_functionalizedCrystal
_audit_creation_method	'MofGen! by Chris Wilmer'
_symmetry_space_group_name_H-M	'P1'
_symmetry_Int_Tables_number	1
_symmetry_cell_setting	triclinic
loop_
_symmetry_equiv_pos_as_xyz
  x,y,z
_cell_length_a	10.723024
_cell_length_b	10.654550
_cell_length_c	9.730223
_cell_angle_alpha	89.999758
_cell_angle_beta	90.001806
_cell_angle_gamma	95.523600
loop_
_atom_site_label
_atom_site_type_symbol
_atom_site_fract_x
_atom_site_fract_y
_atom_site_fract_z
O1	O	0.175272	-1.667813	0.114183
O2	O	0.191971	-1.302332	0.114208
O3	O	0.002047	-1.493503	0.114190
O4	O	0.365196	-1.476642	0.114202
O5	O	0.002047	-1.493490	-0.114390
O6	O	0.191971	-1.302319	-0.114372
O7	O	0.175272	-1.667800	-0.114396
Zn8	Zn	0.183622	-1.485057	-0.150676
Zn9	Zn	0.183622	-1.485075	0.150488
O10	O	0.365197	-1.476629	-0.114378
C11	C	-0.044453	-1.492269	-0.000098
C12	C	-0.183008	-1.488598	-0.000093
C13	C	0.190745	-1.255528	-0.000078
C14	C	0.187077	-1.116085	-0.000069
C15	C	0.176498	-1.714604	-0.000107
C16	C	0.180167	-1.854047	-0.000107
C17	C	-0.257975	-1.595567	-0.000098
C18	C	-0.401179	-1.591776	-0.000093
C19	C	0.411696	-1.477863	-0.000087
C20	C	0.550251	-1.481534	-0.000083
N21	N	0.183621	-1.485054	-0.356212
C22	C	0.298901	-1.036583	-0.000069
C23	C	0.295447	-0.905562	-0.000093
C24	C	0.068334	-0.933560	-0.000111
C25	C	0.071789	-1.064577	-0.000097
C26	C	0.260013	-1.561874	-0.428136
C27	C	0.260006	-1.561895	-0.572019
C28	C	0.107212	-1.408265	-0.572042
C29	C	0.107213	-1.408252	-0.428161
N30	N	0.183612	-1.485088	0.356024
H31	H	-0.216138	-1.689955	-0.000113
H32	H	0.392775	-1.078515	-0.000057
H33	H	-0.019278	-1.129312	-0.000100
H34	H	0.045004	-1.345734	-0.630640
H35	H	0.044999	-1.345694	-0.369599
O36	O	0.334048	-1.636554	-0.358092
C37	C	0.258747	-1.721610	-0.274883
H38	H	0.165791	-1.681733	-0.253333
H39	H	0.309046	-1.736019	-0.173704
H40	H	0.240514	-1.815853	-0.330323
O41	O	-0.478071	-1.700996	0.000147
C42	C	-0.554219	-1.705733	0.118514
H43	H	-0.507030	-1.641975	0.201260
H44	H	-0.568100	-1.806769	0.158247
H45	H	-0.649101	-1.672290	0.091753
O46	O	-0.372863	-1.372309	0.000167
C47	C	-0.296703	-1.367585	0.118530
H48	H	-0.343884	-1.431354	0.201270
H49	H	-0.282817	-1.266554	0.158277
H50	H	-0.201824	-1.401027	0.091757
H51	H	0.386506	-0.840836	-0.000097
O52	O	0.334147	-1.636694	-0.641732
C53	C	0.300735	-1.763869	-0.606578
H54	H	0.252386	-1.768833	-0.502112
H55	H	0.388589	-1.816043	-0.601642
H56	H	0.234216	-1.809567	-0.687549
O57	O	-0.232758	-1.375912	-0.000264
C58	C	-0.192619	-1.307189	-0.118661
H59	H	-0.101991	-1.342063	-0.158139
H60	H	-0.175594	-1.202749	-0.092027
H61	H	-0.267811	-1.321182	-0.201554
H62	H	-0.025530	-0.891606	-0.000142
