data_functionalizedCrystal
_audit_creation_method	'MofGen! by Chris Wilmer'
_symmetry_space_group_name_H-M	'P1'
_symmetry_Int_Tables_number	1
_symmetry_cell_setting	triclinic
loop_
_symmetry_equiv_pos_as_xyz
  x,y,z
_cell_length_a	9.065215
_cell_length_b	10.723022
_cell_length_c	8.140239
_cell_angle_alpha	89.997644
_cell_angle_beta	89.997810
_cell_angle_gamma	84.740962
loop_
_atom_site_label
_atom_site_type_symbol
_atom_site_fract_x
_atom_site_fract_y
_atom_site_fract_z
O1	O	1.959360	0.182967	-0.136590
O2	O	2.459360	0.682967	0.363410
O3	O	1.529989	0.197980	-0.136597
O4	O	2.029989	0.697980	0.363403
O5	O	1.754580	0.008937	-0.136587
O6	O	2.254580	0.508937	0.363413
O7	O	1.734770	0.372010	-0.136600
O8	O	2.234770	0.872010	0.363400
O9	O	1.754568	0.008935	0.136640
O10	O	2.254568	0.508935	0.636640
O11	O	1.529977	0.197978	0.136630
O12	O	2.029977	0.697978	0.636630
O13	O	1.959348	0.182965	0.136637
O14	O	2.459348	0.682965	0.636637
Zn15	Zn	1.744660	0.190471	0.180014
Zn16	Zn	2.244660	0.690471	0.680014
Zn17	Zn	1.744677	0.190474	-0.179974
Zn18	Zn	2.244677	0.690474	0.320026
O19	O	1.734757	0.372007	0.136628
O20	O	2.234757	0.872007	0.636628
C21	C	1.475005	0.196537	0.000016
C22	C	1.975005	0.696537	0.500016
C23	C	1.311186	0.192225	0.000013
C24	C	1.811186	0.692225	0.500013
C25	C	1.753133	-0.037569	0.000024
C26	C	2.253133	0.462431	0.500024
C27	C	1.748821	-0.176141	0.000019
C28	C	2.248821	0.323859	0.500019
C29	C	1.619307	-0.225227	0.000014
C30	C	2.119307	0.274773	0.500014
C31	C	1.614848	-0.368448	0.000008
C32	C	2.114848	0.131552	0.500008
C33	C	2.014332	0.184408	0.000021
C34	C	2.514332	0.684408	0.500021
C35	C	2.178151	0.188719	0.000013
C36	C	2.678151	0.688719	0.500013
C37	C	1.736204	0.418514	0.000012
C38	C	2.236204	0.918514	0.500012
C39	C	1.740516	0.557086	0.000007
C40	C	2.240516	1.057086	0.500007
N41	N	1.744660	0.190468	0.425697
N42	N	2.244660	0.690468	0.925697
N43	N	1.744689	0.190467	-0.425657
N44	N	2.244689	0.690467	0.074343
H45	H	1.511727	-0.161221	0.000022
H46	H	2.011727	0.338779	0.500022
H47	H	1.856401	-0.240147	0.000026
H48	H	2.356401	0.259853	0.500026
C49	C	1.467128	-0.425027	0.000082
C50	C	1.967128	0.074973	0.500082
C51	C	1.492072	-0.555832	0.000116
C52	C	1.992072	-0.055832	0.500116
C53	C	1.356024	-0.607996	0.000205
C54	C	1.856024	-0.107996	0.500205
H55	H	1.412481	-0.398389	-0.095171
H56	H	1.912481	0.101611	0.404829
H57	H	1.412573	-0.398333	0.095402
H58	H	1.912573	0.101667	0.595402
H59	H	1.546604	-0.582514	-0.095194
H60	H	2.046604	-0.082514	0.404806
H61	H	1.546696	-0.582505	0.095362
H62	H	2.046696	-0.082505	0.595362
H63	H	1.301469	-0.581302	0.095525
H64	H	1.801469	-0.081302	0.595525
H65	H	1.301388	-0.581348	-0.095050
H66	H	1.801388	-0.081348	0.404950
H67	H	1.372930	-0.696751	0.000243
H68	H	1.872930	-0.196751	0.500243
H69	H	1.851411	-0.400661	-0.000049
H70	H	2.351411	0.099339	0.499951
