data_functionalizedCrystal
_audit_creation_method	'MofGen! by Chris Wilmer'
_symmetry_space_group_name_H-M	'P1'
_symmetry_Int_Tables_number	1
_symmetry_cell_setting	triclinic
loop_
_symmetry_equiv_pos_as_xyz
  x,y,z
_cell_length_a	29.839131
_cell_length_b	18.050591
_cell_length_c	18.050582
_cell_angle_alpha	89.979078
_cell_angle_beta	90.025477
_cell_angle_gamma	89.962574
loop_
_atom_site_label
_atom_site_type_symbol
_atom_site_fract_x
_atom_site_fract_y
_atom_site_fract_z
Zn1	Zn	-0.178930	-1.135224	0.420016
Zn2	Zn	-0.254052	-1.135106	0.295820
Zn3	Zn	-0.178932	-1.011044	0.295827
Zn4	Zn	-0.254028	-1.010963	0.419956
O5	O	-0.216485	-1.073084	0.357905
O6	O	-0.188904	-1.239133	0.403564
O7	O	-0.244098	-1.118634	0.191896
O8	O	-0.116064	-1.027600	0.312330
O9	O	-0.244096	-1.239047	0.312317
O10	O	-0.116063	-1.118835	0.403571
O11	O	-0.188907	-1.027485	0.191902
O12	O	-0.188884	-0.907108	0.312271
O13	O	-0.244056	-1.027462	0.523888
O14	O	-0.244057	-0.907049	0.403467
O15	O	-0.188881	-1.118756	0.523933
O16	O	-0.316916	-1.118555	0.312258
O17	O	-0.316898	-1.027348	0.403460
C18	C	-0.216469	-0.880132	0.357864
C19	C	-0.216472	-0.797586	0.357864
C20	C	-0.333208	-1.072950	0.357868
C21	C	-0.383142	-1.072961	0.357877
C22	C	-0.216465	-1.073113	0.551611
C23	C	-0.216457	-1.073126	0.634156
C24	C	-0.692782	-1.120663	0.310485
C25	C	-0.880455	-1.120754	0.310514
O26	O	-0.904717	-1.161206	0.270192
N27	N	-0.903927	-1.073238	0.357961
C28	C	-0.880478	-1.025700	0.405407
O29	O	-0.904749	-0.985292	0.445769
C30	C	-0.692806	-1.025612	0.405381
C31	C	-0.669337	-1.073126	0.357926
C32	C	-0.669312	-1.168173	0.263035
C33	C	-0.622397	-1.168147	0.263025
C34	C	-0.598951	-1.120610	0.310466
C35	C	-0.622421	-1.073100	0.357917
C36	C	-0.669358	-0.978078	0.452831
C37	C	-0.622437	-0.978062	0.452822
C38	C	-0.598967	-1.025575	0.405367
C39	C	-0.552060	-1.025537	0.405348
N40	N	-0.528588	-1.073053	0.357902
C41	C	-0.552033	-1.120589	0.310461
C42	C	-0.979009	-1.025748	0.405416
C43	C	-1.025927	-1.025769	0.405422
C44	C	-1.025900	-1.120824	0.310530
C45	C	-0.978982	-1.120799	0.310521
C46	C	-0.955537	-1.073264	0.357970
C47	C	-0.453508	-1.120530	0.310444
C48	C	-0.406588	-1.120497	0.310436
C49	C	-0.406619	-1.025445	0.405331
C50	C	-0.453534	-1.025474	0.405336
C51	C	-0.476977	-1.073023	0.357890
O52	O	-0.527769	-0.985113	0.445655
O53	O	-0.527755	-1.161002	0.270116
C54	C	-0.739698	-1.120689	0.310495
C55	C	-0.763167	-1.073178	0.357946
C56	C	-0.739722	-1.025642	0.405387
C57	C	-0.810085	-1.073199	0.357951
C58	C	-0.833531	-1.120736	0.310510
C59	C	-0.810059	-1.168252	0.263064
C60	C	-0.763143	-1.168225	0.263054
C61	C	-0.763194	-0.978126	0.452833
C62	C	-0.810109	-0.978155	0.452838
C63	C	-0.833555	-1.025692	0.405397
C64	C	-0.099307	-1.073239	0.357958
C65	C	-0.049373	-1.073305	0.357981
C66	C	-0.216502	-1.266790	0.357947
C67	C	-0.216510	-1.349336	0.357964
C68	C	-0.186434	-0.598146	0.308386
C69	C	-0.227410	-0.548711	0.290106
C70	C	-0.216486	-0.646456	0.357897
C71	C	-0.175525	-0.548810	0.376175
C72	C	-0.216495	-0.500471	0.357928
C73	C	-0.257483	-0.598108	0.339583
C74	C	-0.205570	-0.598211	0.425683
C75	C	-0.246574	-0.548798	0.407429
C76	C	-0.216480	-0.730554	0.357878
C77	C	-0.216506	-0.416374	0.357948
C78	C	-0.216473	-1.073098	0.164953
C79	C	-0.216355	-1.073230	0.082407
C80	C	-0.246420	-1.023518	0.833583
C81	C	-0.257404	-1.091269	0.882980
C82	C	-0.216423	-1.073162	0.785287
C83	C	-0.205426	-1.005449	0.882971
C84	C	-0.216390	-1.073192	0.931272
C85	C	-0.227429	-1.140949	0.833597
C86	C	-0.175431	-1.055083	0.833584
C87	C	-0.186400	-1.122881	0.882959
C88	C	-0.216442	-1.073145	0.701189
C89	C	-0.216371	-1.073218	1.015369
H90	H	-0.387480	-1.159189	0.271790
N91	N	-0.193774	-0.933591	0.910166
N92	N	-0.185796	-0.882145	0.865725
H93	H	-0.177570	-0.831393	0.884928
N94	N	-0.154593	-0.625348	0.255805
N95	N	-0.149255	-0.693560	0.247741
H96	H	-0.126769	-0.712773	0.210606
H97	H	-0.744038	-1.206916	0.224412
N98	N	-0.834006	-1.216808	0.214593
N99	N	-0.828796	-1.211926	0.146058
H100	H	-0.845711	-1.246218	0.111828
N101	N	-0.955017	-1.169336	0.262041
N102	N	-0.975962	-1.211770	0.219685
H103	H	-0.959039	-1.246052	0.185444
H104	H	-0.292138	-0.619673	0.324073
H105	H	-0.688397	-1.206887	0.224403
H106	H	-0.196318	-0.619970	0.482978
N107	N	-0.300876	-1.110470	0.910195
N108	N	-0.333971	-1.071024	0.894369
H109	H	-0.364674	-1.084580	0.913587
N110	N	-0.278499	-0.521793	0.459971
N111	N	-0.319043	-0.537738	0.453046
H112	H	-0.341592	-0.518666	0.490152
H113	H	-0.140885	-0.527115	0.391596
H114	H	-0.236650	-0.526970	0.232794
N115	N	-0.955066	-0.977194	0.453896
N116	N	-0.960289	-0.982079	0.522428
H117	H	-0.943381	-0.947786	0.556668
N118	N	-0.278287	-0.970903	0.806391
N119	N	-0.318853	-0.977679	0.822235
H120	H	-0.341361	-0.940522	0.803031
N121	N	-0.154562	-1.175619	0.910002
N122	N	-0.149171	-1.183846	0.978188
H123	H	-0.126687	-1.221093	0.997289
N124	N	-0.239125	-1.212823	0.806498
N125	N	-0.241040	-1.224403	0.738302
H126	H	-0.249300	-1.275163	0.719161
H127	H	-0.688459	-0.939383	0.491470
H128	H	-0.140789	-1.039754	0.811869
H129	H	-1.045032	-0.987071	0.444057
N130	N	-0.477444	-1.169092	0.261964
N131	N	-0.472222	-1.164197	0.193433
H132	H	-0.489127	-1.198489	0.159189
N133	N	-0.598434	-1.216687	0.214547
N134	N	-0.619381	-1.259125	0.172198
H135	H	-0.602460	-1.293411	0.137959
H136	H	-0.829214	-0.939458	0.491481
N137	N	-1.049854	-1.169375	0.262061
N138	N	-1.076065	-1.143291	0.214714
H139	H	-1.092984	-1.177580	0.180486
N140	N	-0.598489	-0.929513	0.501300
N141	N	-0.603705	-0.934404	0.569833
H142	H	-0.586792	-0.900117	0.604071
N143	N	-0.477512	-0.976926	0.453791
N144	N	-0.472318	-0.908398	0.448789
H145	H	-0.489251	-0.874113	0.483013
N146	N	-0.382658	-0.976888	0.453777
N147	N	-0.340767	-0.976878	0.453756
H148	H	-0.323843	-0.942586	0.487974
H149	H	-0.744108	-0.939417	0.491466
