data_functionalizedCrystal
_audit_creation_method	'MofGen! by Chris Wilmer'
_symmetry_space_group_name_H-M	'P1'
_symmetry_Int_Tables_number	1
_symmetry_cell_setting	triclinic
loop_
_symmetry_equiv_pos_as_xyz
  x,y,z
_cell_length_a	8.634740
_cell_length_b	7.681481
_cell_length_c	8.559649
_cell_angle_alpha	94.930900
_cell_angle_beta	85.174486
_cell_angle_gamma	83.381330
loop_
_atom_site_label
_atom_site_type_symbol
_atom_site_fract_x
_atom_site_fract_y
_atom_site_fract_z
O1	O	1.969394	0.146417	0.524282
O2	O	2.469394	0.646417	1.024282
O3	O	1.525522	0.146421	0.481380
O4	O	2.025522	0.646421	0.981380
O5	O	1.786564	0.146417	0.276249
O6	O	2.286564	0.646417	0.776249
O7	O	1.708352	0.146421	0.729412
O8	O	2.208352	0.646421	1.229412
O9	O	1.818701	-0.146441	0.250934
O10	O	2.318701	0.353559	0.750934
O11	O	1.557660	-0.146438	0.456064
O12	O	2.057660	0.353562	0.956064
O13	O	2.001532	-0.146441	0.498966
O14	O	2.501532	0.353559	0.998966
Zn15	Zn	1.784698	-0.192937	0.473496
Zn16	Zn	2.284698	0.307063	0.973496
Zn17	Zn	1.742355	0.192917	0.506850
Zn18	Zn	2.242355	0.692917	1.006850
O19	O	1.740490	-0.146437	0.704097
O20	O	2.240490	0.353563	1.204097
C21	C	1.485292	-0.000008	0.459003
C22	C	1.985292	0.499992	0.959003
C23	C	1.317540	-0.000007	0.430025
C24	C	1.817540	0.499993	0.930025
N25	N	1.813608	-0.456271	0.450734
N26	N	2.313608	0.043729	0.950734
C27	C	2.041762	-0.000008	0.521343
C28	C	2.541762	0.499992	1.021343
C29	C	2.209512	0.000002	0.550322
C30	C	2.709512	0.500002	1.050322
C31	C	1.808559	-0.000009	0.204974
C32	C	2.308559	0.499991	0.704974
C33	C	1.826201	0.000001	0.030311
C34	C	2.326201	0.500001	0.530311
N35	N	1.713460	0.456251	0.529602
N36	N	2.213460	0.956251	1.029602
C37	C	1.718494	-0.000007	0.775372
C38	C	2.218494	0.499993	1.275372
C39	C	1.700851	-0.000006	0.950036
C40	C	2.200851	0.499994	1.450036
H41	H	1.245362	-0.000013	0.675481
H42	H	1.745362	0.499987	1.175481
Br43	Br	1.984029	-0.581609	0.316577
Br44	Br	2.484029	-0.081609	0.816577
Br45	Br	1.257797	-0.000019	0.221397
Br46	Br	1.757797	0.499981	0.721397
H47	H	1.947025	-0.000014	-0.034595
H48	H	2.447025	0.499986	0.465405
H49	H	1.611230	-0.468551	0.610101
H50	H	2.111230	0.031449	1.110101
H51	H	1.580037	-0.000010	0.014933
H52	H	2.080037	0.499990	0.514933
