data_functionalizedCrystal
_audit_creation_method	'MofGen! by Chris Wilmer'
_symmetry_space_group_name_H-M	'P1'
_symmetry_Int_Tables_number	1
_symmetry_cell_setting	triclinic
loop_
_symmetry_equiv_pos_as_xyz
  x,y,z
_cell_length_a	12.759401
_cell_length_b	12.827892
_cell_length_c	12.759393
_cell_angle_alpha	90.026884
_cell_angle_beta	89.980324
_cell_angle_gamma	89.982243
loop_
_atom_site_label
_atom_site_type_symbol
_atom_site_fract_x
_atom_site_fract_y
_atom_site_fract_z
Zn1	Zn	1.606247	0.415971	-0.594011
Zn2	Zn	2.106247	0.915971	-0.094011
Zn3	Zn	1.606130	0.590748	-0.418342
Zn4	Zn	2.106130	1.090748	0.081658
Zn5	Zn	1.430546	0.416023	-0.418350
Zn6	Zn	1.930546	0.916023	0.081650
Zn7	Zn	1.430530	0.590672	-0.593983
Zn8	Zn	1.930530	1.090672	-0.093983
O9	O	1.518363	0.503353	-0.506172
O10	O	2.018363	1.003353	-0.006172
O11	O	1.753253	0.439165	-0.570717
O12	O	2.253253	0.939165	-0.070717
O13	O	1.582796	0.567624	-0.271322
O14	O	2.082796	1.067624	0.228678
O15	O	1.453909	0.269780	-0.441667
O16	O	1.953909	0.769780	0.058333
O17	O	1.753167	0.567573	-0.441653
O18	O	2.253167	1.067573	0.058347
O19	O	1.582996	0.269741	-0.570724
O20	O	2.082996	0.769741	-0.070724
O21	O	1.453795	0.439254	-0.271328
O22	O	1.953795	0.939254	0.228672
O23	O	1.283523	0.439180	-0.441640
O24	O	1.783523	0.939180	0.058360
O25	O	1.453881	0.567443	-0.741008
O26	O	1.953881	1.067443	-0.241008
O27	O	1.283511	0.567494	-0.570677
O28	O	1.783511	1.067494	-0.070677
O29	O	1.582980	0.439091	-0.741029
O30	O	2.082980	0.939091	-0.241029
O31	O	1.582781	0.736974	-0.441627
O32	O	2.082781	1.236974	0.058373
O33	O	1.453768	0.736918	-0.570669
O34	O	1.953768	1.236918	-0.070669
C35	C	1.245396	0.503335	-0.506157
C36	C	1.745396	1.003335	-0.006157
C37	C	1.128619	0.503353	-0.506175
C38	C	1.628619	1.003353	-0.006175
C39	C	1.073803	0.436611	-0.573482
C40	C	1.573803	0.936611	-0.073482
C41	C	0.964079	0.436622	-0.573489
C42	C	1.464079	0.936622	-0.073489
C43	C	0.963997	0.570124	-0.438880
C44	C	1.463997	1.070124	0.061120
C45	C	1.073719	0.570108	-0.438868
C46	C	1.573719	1.070108	0.061132
C47	C	1.518288	0.774863	-0.506167
C48	C	2.018288	1.274863	-0.006167
C49	C	1.518352	0.891016	-0.506200
C50	C	2.018352	1.391016	-0.006200
C51	C	1.582266	0.942794	-0.442419
C52	C	2.082266	1.442794	0.057581
C53	C	1.582334	1.062844	-0.442452
C54	C	2.082334	1.562844	0.057548
C55	C	1.792396	0.503372	-0.506187
C56	C	2.292396	1.003372	-0.006187
C57	C	1.909173	0.503380	-0.506194
C58	C	2.409173	1.003380	-0.006194
C59	C	1.518442	0.503253	-0.780205
C60	C	2.018442	1.003253	-0.280205
C61	C	1.518475	0.503210	-0.896982
C62	C	2.018475	1.003210	-0.396982
C63	C	1.518459	1.230783	-0.506212
C64	C	2.018459	1.730783	-0.006212
C65	C	1.518477	1.114630	-0.506262
C66	C	2.018477	1.614630	-0.006262
C67	C	1.585702	0.436367	-0.951856
C68	C	2.085702	0.936367	-0.451856
C69	C	1.585720	0.436322	-1.061580
C70	C	2.085720	0.936322	-0.561580
C71	C	1.451281	0.569973	-1.061546
C72	C	1.951281	1.069973	-0.561546
C73	C	1.451259	0.570012	-0.951824
C74	C	1.951259	1.070012	-0.451824
C75	C	1.518345	0.503378	-0.233204
C76	C	2.018345	1.003378	0.266796
C77	C	1.518515	0.503126	-0.116428
C78	C	2.018515	1.003126	0.383572
H79	H	1.118352	0.624457	-0.384053
H80	H	1.618352	1.124457	0.115947
H81	H	1.396558	0.624362	-1.106212
H82	H	1.896558	1.124362	-0.606212
H83	H	1.396507	0.624443	-0.907144
H84	H	1.896507	1.124443	-0.407144
C85	C	1.659623	0.362875	-0.891533
C86	C	2.159623	0.862875	-0.391533
H87	H	1.699655	0.323052	-0.939933
H88	H	2.199655	0.823052	-0.439933
H89	H	1.705379	0.402861	-0.848729
H90	H	2.205379	0.902861	-0.348729
H91	H	1.619431	0.317353	-0.848735
H92	H	2.119431	0.817353	-0.348735
C93	C	1.656123	0.882624	-0.368618
C94	C	2.156123	1.382624	0.131382
H95	H	1.646384	0.809830	-0.378273
H96	H	2.146384	1.309830	0.121727
H97	H	1.726731	0.900389	-0.384042
H98	H	2.226731	1.400389	0.115958
H99	H	1.640803	0.900524	-0.297998
H100	H	2.140803	1.400524	0.202002
H101	H	1.118499	0.382252	-0.628285
H102	H	1.618499	0.882252	-0.128285
C103	C	1.656253	1.122989	-0.368678
C104	C	2.156253	1.622989	0.131322
H105	H	1.646604	1.195786	-0.378381
H106	H	2.146604	1.695786	0.121619
H107	H	1.640920	1.105215	-0.298054
H108	H	2.140920	1.605215	0.201946
H109	H	1.726847	1.105084	-0.384099
H110	H	2.226847	1.605084	0.115901
C111	C	0.903785	0.363212	-0.647532
C112	C	1.403785	0.863212	-0.147532
H113	H	0.952199	0.323462	-0.687619
H114	H	1.452199	0.823462	-0.187619
H115	H	0.860972	0.317634	-0.607429
H116	H	1.360972	0.817634	-0.107429
H117	H	0.860997	0.403257	-0.693247
H118	H	1.360997	0.903257	-0.193247
C119	C	0.903604	0.643558	-0.364857
C120	C	1.403604	1.143558	0.135143
H121	H	0.830406	0.634018	-0.374511
H122	H	1.330406	1.134018	0.125489
H123	H	0.921554	0.628181	-0.294290
H124	H	1.421554	1.128181	0.205710
H125	H	0.921585	0.713790	-0.380123
H126	H	1.421585	1.213790	0.119877
C127	C	1.444551	1.054497	-0.580038
C128	C	1.944551	1.554497	-0.080038
H129	H	1.404493	1.102560	-0.620072
H130	H	1.904493	1.602560	-0.120072
H131	H	1.484731	1.011847	-0.625798
H132	H	1.984731	1.511847	-0.125798
H133	H	1.398804	1.011989	-0.539753
H134	H	1.898804	1.511989	-0.039753
C135	C	1.659679	0.362807	-1.121943
C136	C	2.159679	0.862807	-0.621943
H137	H	1.650064	0.372343	-1.195144
H138	H	2.150064	0.872343	-0.695144
H139	H	1.730256	0.378124	-1.103966
H140	H	2.230256	0.878124	-0.603966
H141	H	1.644332	0.292592	-1.103967
H142	H	2.144332	0.792592	-0.603967
H143	H	1.463688	0.935564	-0.560834
H144	H	1.963688	1.435564	-0.060834
