data_functionalizedCrystal
_audit_creation_method	'MofGen! by Chris Wilmer'
_symmetry_space_group_name_H-M	'P1'
_symmetry_Int_Tables_number	1
_symmetry_cell_setting	triclinic
loop_
_symmetry_equiv_pos_as_xyz
  x,y,z
_cell_length_a	13.033291
_cell_length_b	11.169416
_cell_length_c	11.169409
_cell_angle_alpha	90.030874
_cell_angle_beta	82.788658
_cell_angle_gamma	82.819239
loop_
_atom_site_label
_atom_site_type_symbol
_atom_site_fract_x
_atom_site_fract_y
_atom_site_fract_z
Zn1	Zn	1.597832	0.244857	-0.912092
Zn2	Zn	1.931166	0.578190	-0.578758
Zn3	Zn	2.264499	0.911523	-0.245425
Zn4	Zn	1.597736	0.445611	-0.711400
Zn5	Zn	1.931069	0.778945	-0.378066
Zn6	Zn	2.264403	1.112278	-0.044733
Zn7	Zn	1.423056	0.270397	-0.685881
Zn8	Zn	1.756390	0.603730	-0.352548
Zn9	Zn	2.089723	0.937064	-0.019214
Zn10	Zn	1.423063	0.470966	-0.886514
Zn11	Zn	1.756396	0.804299	-0.553181
Zn12	Zn	2.089730	1.137632	-0.219848
O13	O	1.510422	0.357958	-0.798972
O14	O	1.843755	0.691291	-0.465638
O15	O	2.177089	1.024624	-0.132305
O16	O	1.744065	0.250187	-0.906853
O17	O	2.077399	0.583521	-0.573520
O18	O	2.410732	0.916854	-0.240186
O19	O	1.574521	0.422446	-0.540058
O20	O	1.907855	0.755780	-0.206725
O21	O	2.241188	1.089113	0.126608
O22	O	1.446278	0.099054	-0.715913
O23	O	1.779612	0.432387	-0.382579
O24	O	2.112945	0.765720	-0.049246
O25	O	1.743995	0.397681	-0.759406
O26	O	2.077328	0.731014	-0.426072
O27	O	2.410661	1.064348	-0.092739
O28	O	1.574686	0.080289	-0.882109
O29	O	1.908019	0.413623	-0.548775
O30	O	2.241352	0.746956	-0.215442
O31	O	1.446185	0.293717	-0.521310
O32	O	1.779518	0.627051	-0.187977
O33	O	2.112852	0.960384	0.145357
O34	O	1.276811	0.318302	-0.691112
O35	O	1.610145	0.651636	-0.357778
O36	O	1.943478	0.984969	-0.024445
O37	O	1.446289	0.440894	-1.057863
O38	O	1.779623	0.774227	-0.724530
O39	O	2.112956	1.107561	-0.391197
O40	O	1.276816	0.465659	-0.838516
O41	O	1.610150	0.798993	-0.505183
O42	O	1.943483	1.132326	-0.171850
O43	O	1.574692	0.274773	-1.076655
O44	O	1.908025	0.608106	-0.743321
O45	O	2.241359	0.941439	-0.409988
O46	O	1.574528	0.616930	-0.734604
O47	O	1.907861	0.950263	-0.401271
O48	O	2.241194	1.283596	-0.067938
O49	O	1.446196	0.635558	-0.863261
O50	O	1.779529	0.968891	-0.529927
O51	O	2.112863	1.302224	-0.196594
C52	C	1.238894	0.397505	-0.759270
C53	C	1.572227	0.730838	-0.425937
C54	C	1.905561	1.064171	-0.092603
C55	C	1.122733	0.414452	-0.742314
C56	C	1.456066	0.747785	-0.408981
C57	C	1.789400	1.081119	-0.075647
C58	C	0.950924	0.366648	-0.790306
C59	C	1.284258	0.699981	-0.456973
C60	C	1.617591	1.033314	-0.123640
C61	C	1.070983	0.349134	-0.807830
C62	C	1.404316	0.682468	-0.474497
C63	C	1.737649	1.015801	-0.141164
C64	C	1.510380	0.669788	-0.798956
C65	C	1.843714	1.003122	-0.465623
C66	C	2.177047	1.336455	-0.132290
C67	C	1.510458	0.803177	-0.799004
C68	C	1.843792	1.136510	-0.465671
C69	C	2.177125	1.469844	-0.132337
C70	C	1.510502	0.357813	-1.112026
C71	C	1.843835	0.691146	-0.778693
C72	C	2.177169	1.024479	-0.445359
C73	C	1.510536	0.357751	-1.245431
C74	C	1.843870	0.691084	-0.912098
C75	C	2.177203	1.024418	-0.578764
C76	C	1.783010	0.318257	-0.838829
C77	C	2.116343	0.651590	-0.505496
C78	C	2.449677	0.984924	-0.172162
C79	C	1.899171	0.301339	-0.855814
C80	C	2.232504	0.634672	-0.522480
C81	C	2.565838	0.968006	-0.189147
C82	C	1.510492	0.044905	-0.799017
C83	C	1.843825	0.378238	-0.465684
C84	C	2.177159	0.711572	-0.132351
C85	C	1.510522	-0.088499	-0.799037
C86	C	1.843855	0.244834	-0.465703
C87	C	2.177188	0.578167	-0.132370
C88	C	1.510402	0.358007	-0.487144
C89	C	1.843735	0.691340	-0.153811
C90	C	2.177069	1.024673	0.179523
C91	C	1.510570	0.357701	-0.353769
C92	C	1.843904	0.691034	-0.020436
C93	C	2.177237	1.024368	0.312898
H94	H	1.078164	0.483336	-0.673252
H95	H	1.411497	0.816669	-0.339919
H96	H	1.744830	1.150003	-0.006586
F97	F	0.892667	0.456673	-0.700036
F98	F	1.226001	0.790006	-0.366702
F99	F	1.559334	1.123339	-0.033369
F100	F	1.129236	0.259092	-0.898094
F101	F	1.462569	0.592425	-0.564760
F102	F	1.795902	0.925758	-0.231427
H103	H	0.943746	0.232455	-0.924865
H104	H	1.277079	0.565789	-0.591532
H105	H	1.610412	0.899122	-0.258198
