data_functionalizedCrystal
_audit_creation_method	'MofGen! by Chris Wilmer'
_symmetry_space_group_name_H-M	'P1'
_symmetry_Int_Tables_number	1
_symmetry_cell_setting	triclinic
loop_
_symmetry_equiv_pos_as_xyz
  x,y,z
_cell_length_a	15.944551
_cell_length_b	13.339070
_cell_length_c	15.021413
_cell_angle_alpha	89.995194
_cell_angle_beta	90.000443
_cell_angle_gamma	80.435984
loop_
_atom_site_label
_atom_site_type_symbol
_atom_site_fract_x
_atom_site_fract_y
_atom_site_fract_z
O1	O	0.421095	-1.342295	-0.074072
O2	O	0.365822	-1.047765	-0.074066
O3	O	0.273058	-1.203073	-0.074061
O4	O	0.513859	-1.186987	-0.074077
O5	O	0.273070	-1.203091	0.074003
O6	O	0.365834	-1.047783	0.073999
O7	O	0.421107	-1.342313	0.073992
Zn8	Zn	0.393473	-1.195051	0.097504
Zn9	Zn	0.393456	-1.195027	-0.097577
O10	O	0.513871	-1.187005	0.073988
C11	C	0.356492	-1.010084	-0.000033
C12	C	0.328661	-0.897780	-0.000030
C13	C	0.241614	-1.202414	-0.000029
C14	C	0.147902	-1.200412	-0.000028
C15	C	0.430437	-1.379994	-0.000043
C16	C	0.458268	-1.492298	-0.000051
C17	C	-0.090501	-1.099359	-0.000038
C18	C	-0.140578	-1.146294	0.072965
C19	C	-0.023668	-1.196790	-0.000035
C20	C	-0.140569	-1.146299	-0.073014
C21	C	-0.189398	-1.193285	-0.000045
C22	C	-0.072511	-1.243752	0.073029
C23	C	-0.072498	-1.243743	-0.073016
C24	C	-0.122541	-1.290748	0.000005
C25	C	0.071804	-1.198807	-0.000028
C26	C	-0.284867	-1.191275	-0.000046
C27	C	0.545315	-1.187664	-0.000047
C28	C	0.639027	-1.189666	-0.000053
N29	N	0.393485	-1.195075	0.230641
C30	C	0.545054	-0.533002	-0.000058
C31	C	0.571205	-0.638516	-0.000063
C32	C	0.510571	-0.703337	-0.000055
C33	C	0.423783	-0.662634	-0.000041
C34	C	0.397630	-0.557109	-0.000043
C35	C	0.363146	-0.727444	-0.000040
C36	C	0.276358	-0.686741	-0.000026
C37	C	0.250209	-0.581226	-0.000027
C38	C	0.310843	-0.516405	-0.000036
C39	C	0.389299	-0.832969	-0.000038
C40	C	0.241875	-0.857076	-0.000023
C41	C	0.215724	-0.751562	-0.000018
N42	N	0.393439	-1.195011	-0.230715
C43	C	0.350580	-1.266903	0.470303
C44	C	0.312963	-1.175491	0.529635
C45	C	0.393469	-1.195051	0.412248
C46	C	0.431031	-1.286441	0.529658
C47	C	0.393453	-1.195037	0.587672
C48	C	0.355803	-1.103593	0.470274
C49	C	0.473919	-1.214603	0.470292
C50	C	0.436318	-1.123124	0.529597
C51	C	0.393476	-1.195061	0.311191
C52	C	0.393444	-1.195016	0.688728
H53	H	-0.076038	-1.018487	0.000036
Cl54	Cl	0.492289	-1.029204	0.569543
H55	H	0.462807	-1.363734	0.555743
H56	H	0.531868	-0.789251	-0.000061
Cl57	Cl	0.141104	-0.530058	-0.000041
H58	H	0.145059	-0.718406	-0.000014
H59	H	0.314268	-1.327603	0.444268
H60	H	-0.042921	-1.284934	0.134816
H61	H	0.541949	-1.231182	0.444205
H62	H	0.192502	-0.909854	-0.000020
H63	H	0.244920	-1.158941	0.555703
Cl64	Cl	-0.026609	-1.307302	-0.168313
Cl65	Cl	0.306622	-0.984231	0.430176
Cl66	Cl	0.277971	-0.383752	-0.000028
Cl67	Cl	-0.186426	-1.082637	-0.168296
H68	H	-0.170284	-1.105092	0.134686
H69	H	0.641868	-0.671649	-0.000081
Cl70	Cl	-0.144621	-1.415716	0.000062
H71	H	0.459963	-0.866099	-0.000045
H72	H	0.594413	-0.480216	-0.000073
