data_functionalizedCrystal
_audit_creation_method	'MofGen! by Chris Wilmer'
_symmetry_space_group_name_H-M	'P1'
_symmetry_Int_Tables_number	1
_symmetry_cell_setting	triclinic
loop_
_symmetry_equiv_pos_as_xyz
  x,y,z
_cell_length_a	19.121321
_cell_length_b	19.120904
_cell_length_c	19.121459
_cell_angle_alpha	89.921699
_cell_angle_beta	94.742451
_cell_angle_gamma	94.963752
loop_
_atom_site_label
_atom_site_type_symbol
_atom_site_fract_x
_atom_site_fract_y
_atom_site_fract_z
Zn1	Zn	1.073783	-0.336797	0.339724
Zn2	Zn	1.573783	0.163203	0.839724
Zn3	Zn	1.083738	-0.214125	0.452365
Zn4	Zn	1.583738	0.285875	0.952365
Zn5	Zn	0.960720	-0.224598	0.330142
Zn6	Zn	1.460720	0.275402	0.830142
Zn7	Zn	0.961108	-0.336770	0.452337
Zn8	Zn	1.461108	0.163230	0.952337
O9	O	1.019837	-0.278072	0.393642
O10	O	1.519837	0.221928	0.893642
O11	O	1.173741	-0.316152	0.358688
O12	O	1.673741	0.183848	0.858688
O13	O	1.071423	-0.117231	0.432154
O14	O	1.571423	0.382769	0.932154
O15	O	0.971390	-0.243876	0.233134
O16	O	1.471390	0.256124	0.733134
O17	O	1.181055	-0.226026	0.441445
O18	O	1.681055	0.273974	0.941445
O19	O	1.054456	-0.326308	0.240173
O20	O	1.554456	0.173692	0.740173
O21	O	0.981043	-0.124926	0.342357
O22	O	1.481043	0.375074	0.842357
O23	O	0.862133	-0.243849	0.342330
O24	O	1.362133	0.256151	0.842330
O25	O	0.972050	-0.435056	0.441397
O26	O	1.472050	0.064944	0.941397
O27	O	0.862418	-0.326262	0.432105
O28	O	1.362418	0.173738	0.932105
O29	O	1.054832	-0.435076	0.358661
O30	O	1.554832	0.064924	0.858661
O31	O	1.071799	-0.225999	0.550641
O32	O	1.571799	0.274001	1.050641
O33	O	0.981703	-0.316106	0.550620
O34	O	1.481703	0.183894	1.050620
C35	C	0.836700	-0.286189	0.386175
C36	C	1.336700	0.213811	0.886175
C37	C	0.758353	-0.289678	0.382998
C38	C	1.258353	0.210322	0.882998
C39	C	0.315044	-0.311800	0.362819
C40	C	0.815044	0.188200	0.862819
C41	C	0.388660	-0.308518	0.365817
C42	C	0.888660	0.191482	0.865817
C43	C	0.429267	-0.259883	0.410326
C44	C	0.929267	0.240117	0.910326
C45	C	0.396254	-0.214533	0.451845
C46	C	0.896254	0.285467	0.951845
C47	C	0.322639	-0.217819	0.448851
C48	C	0.822639	0.282181	0.948851
C49	C	0.651726	-0.247613	0.421523
C50	C	1.151726	0.252387	0.921523
C51	C	0.725345	-0.244329	0.424513
C52	C	1.225345	0.255671	0.924513
C53	C	0.717746	-0.338316	0.338485
C54	C	1.217746	0.161684	0.838485
C55	C	0.644130	-0.341595	0.335491
C56	C	1.144130	0.158405	0.835491
C57	C	0.611124	-0.296247	0.377013
C58	C	1.111124	0.203753	0.877013
C59	C	0.504514	-0.256526	0.413390
C60	C	1.004514	0.243474	0.913390
C61	C	0.535878	-0.299608	0.373953
C62	C	1.035878	0.200392	0.873953
C63	C	1.012374	-0.461263	0.401094
C64	C	1.512374	0.038737	0.901094
C65	C	1.009193	-0.539327	0.404270
C66	C	1.509193	-0.039327	0.904270
C67	C	1.050797	-0.576014	0.362688
C68	C	1.550797	-0.076014	0.862688
C69	C	1.047800	-0.649364	0.365669
C70	C	1.547800	-0.149364	0.865669
C71	C	1.003202	-0.686027	0.410236
C72	C	1.503202	-0.186027	0.910236
C73	C	0.961594	-0.649335	0.451820
C74	C	1.461594	-0.149335	0.951820
C75	C	0.964588	-0.575986	0.448835
C76	C	1.464588	-0.075986	0.948835
C77	C	0.992003	-0.907493	0.421401
C78	C	1.492003	-0.407493	0.921401
C79	C	0.989014	-0.980847	0.424384
C80	C	1.489014	-0.480847	0.924384
C81	C	1.075219	-0.980871	0.338232
C82	C	1.575219	-0.480871	0.838232
C83	C	1.078212	-0.907521	0.335254
C84	C	1.578212	-0.407521	0.835254
C85	C	1.036601	-0.870836	0.376835
C86	C	1.536601	-0.370836	0.876835
C87	C	1.000139	-0.761003	0.413286
C88	C	1.500139	-0.261003	0.913286
C89	C	1.039661	-0.795861	0.373781
C90	C	1.539661	-0.295861	0.873781
C91	C	1.203689	-0.269924	0.401139
C92	C	1.703689	0.230076	0.901139
C93	C	1.282036	-0.266452	0.404334
C94	C	1.782036	0.233548	0.904334
C95	C	1.027892	-0.269928	0.576115
C96	C	1.527892	0.230072	1.076115
C97	C	1.031402	-0.266464	0.654181
C98	C	1.531402	0.233536	1.154181
C99	C	1.027310	-0.095595	0.386170
C100	C	1.527310	0.404405	0.886170
C101	C	1.030618	-0.017534	0.382802
C102	C	1.530618	0.482466	0.882802
C103	C	1.011769	-0.286263	0.210458
C104	C	1.511769	0.213737	0.710458
C105	C	1.008331	-0.289753	0.132396
C106	C	1.508331	0.210247	0.632396
C107	C	1.053620	-0.244505	1.095708
C108	C	1.553620	0.255495	1.595708
C109	C	1.050317	-0.247761	1.022356
C110	C	1.550317	0.252239	1.522356
C111	C	1.001726	-0.296270	0.985694
C112	C	1.501726	0.203730	1.485694
C113	C	0.956432	-0.341521	1.022388
C114	C	1.456432	0.158479	1.522388
C115	C	0.959733	-0.338261	1.095738
C116	C	1.459733	0.161739	1.595738
C117	C	0.989408	-0.308455	0.764225
C118	C	1.489408	0.191545	1.264225
C119	C	0.986112	-0.311713	0.690870
C120	C	1.486112	0.188287	1.190870
C121	C	1.079996	-0.217952	0.690843
C122	C	1.579996	0.282048	1.190843
C123	C	1.083296	-0.214699	0.764194
C124	C	1.583296	0.285301	1.264194
C125	C	1.037999	-0.259947	0.800881
C126	C	1.537999	0.240053	1.300881
C127	C	0.998350	-0.299601	0.910717
C128	C	1.498350	0.200399	1.410717
C129	C	1.041373	-0.256613	0.875857
C130	C	1.541373	0.243387	1.375857
H131	H	0.502813	-0.339209	0.337716
H132	H	1.002813	0.160791	0.837716
C133	C	0.599468	-0.395099	0.286530
C134	C	1.099468	0.104901	0.786530
N135	N	0.565828	-0.435398	0.249650
N136	N	1.065828	0.064602	0.749650
C137	C	0.440924	-0.161031	0.500803
C138	C	0.940924	0.338969	1.000803
N139	N	0.474569	-0.120729	0.537675
N140	N	0.974569	0.379271	1.037675
H141	H	0.537584	-0.216925	0.449627
H142	H	1.037584	0.283075	0.949627
C143	C	1.100125	-0.197969	0.982001
C144	C	1.600125	0.302031	1.482001
N145	N	1.137637	-0.160458	0.951605
N146	N	1.637637	0.339542	1.451605
C147	C	1.136744	-0.161331	0.804516
C148	C	1.636744	0.338669	1.304516
N149	N	1.177002	-0.121133	0.834887
N150	N	1.677002	0.378867	1.334887
H151	H	0.958787	-0.339099	0.880861
H152	H	1.458787	0.160901	1.380861
H153	H	1.075969	-0.766008	0.337491
H154	H	1.575969	-0.266008	0.837491
H155	H	0.946542	-0.351218	0.661023
H156	H	1.446542	0.148782	1.161023
H157	H	0.624861	-0.210686	0.455331
H158	H	1.124861	0.289314	0.955331
C159	C	0.754059	-0.388199	0.292818
C160	C	1.254059	0.111801	0.792818
N161	N	0.781410	-0.425775	0.258422
N162	N	1.281410	0.074225	0.758422
H163	H	0.958131	-0.877632	0.455270
H164	H	1.458131	-0.377632	0.955270
C165	C	0.902982	-0.394882	0.982058
C166	C	1.402982	0.105118	1.482058
N167	N	0.862725	-0.435077	0.951682
N168	N	1.362725	0.064923	1.451682
C169	C	0.912529	-0.689667	0.500838
C170	C	1.412529	-0.189667	1.000838
N171	N	0.875572	-0.720045	0.537759
N172	N	1.375572	-0.220045	1.037759
C173	C	0.286331	-0.167930	0.494518
C174	C	0.786331	0.332070	0.994518
N175	N	0.258985	-0.130353	0.528917
N176	N	0.758985	0.369647	1.028917
C177	C	0.951078	-0.801339	0.462304
C178	C	1.451078	-0.301339	0.962304
N179	N	0.914122	-0.831723	0.499221
N180	N	1.414122	-0.331723	0.999221
C181	C	1.107074	-0.191140	1.136028
C182	C	1.607074	0.308860	1.636028
N183	N	1.147334	-0.150942	1.166396
N184	N	1.647334	0.349058	1.666396
C185	C	0.918822	-0.535632	0.494580
C186	C	1.418822	-0.035632	0.994580
N187	N	0.884348	-0.505237	0.529036
N188	N	1.384348	-0.005237	1.029036
H189	H	1.087115	-0.546168	0.326399
H190	H	1.587115	-0.046168	0.826399
C191	C	0.939582	-0.358232	0.804571
C192	C	1.439582	0.141768	1.304571
N193	N	0.902051	-0.395727	0.834963
N194	N	1.402051	0.104273	1.334963
C195	C	1.093569	-0.689716	0.319926
C196	C	1.593569	-0.189716	0.819926
N197	N	1.128044	-0.720109	0.285470
N198	N	1.628044	-0.220109	0.785470
H199	H	1.116874	-0.181112	0.660965
H200	H	1.616874	0.318888	1.160965
H201	H	1.114530	-0.877675	0.298964
H202	H	1.614530	-0.377675	0.798964
C203	C	0.909912	-0.388039	1.136095
C204	C	1.409912	0.111961	1.636095
N205	N	0.872384	-0.425533	1.166491
N206	N	1.372384	0.074467	1.666491
H207	H	1.109096	-1.010748	0.304378
H208	H	1.609096	-0.510748	0.804378
H209	H	0.281987	-0.351400	0.326570
H210	H	0.781987	0.148600	0.826570
H211	H	0.415532	-0.345448	0.332014
H212	H	0.915532	0.154552	0.832014
H213	H	1.080933	-0.217115	0.905710
H214	H	1.580933	0.282885	1.405710
C215	C	0.770011	-0.190829	0.473483
C216	C	1.270011	0.309171	0.973483
N217	N	0.803654	-0.150535	0.510366
N218	N	1.303654	0.349465	1.010366
H219	H	0.952695	-1.010696	0.460678
H220	H	1.452695	-0.510696	0.960678
