data_functionalizedCrystal
_audit_creation_method	'MofGen! by Chris Wilmer'
_symmetry_space_group_name_H-M	'P1'
_symmetry_Int_Tables_number	1
_symmetry_cell_setting	triclinic
loop_
_symmetry_equiv_pos_as_xyz
  x,y,z
_cell_length_a	19.077269
_cell_length_b	19.077068
_cell_length_c	19.076919
_cell_angle_alpha	94.470751
_cell_angle_beta	94.669058
_cell_angle_gamma	89.938054
loop_
_atom_site_label
_atom_site_type_symbol
_atom_site_fract_x
_atom_site_fract_y
_atom_site_fract_z
Zn1	Zn	1.047527	-0.337126	-0.369359
Zn2	Zn	1.047440	-0.450276	-0.256207
Zn3	Zn	0.934764	-0.328056	-0.255847
Zn4	Zn	0.924872	-0.450240	-0.378788
O5	O	0.988651	-0.391424	-0.315050
O6	O	1.146002	-0.355946	-0.350553
O7	O	1.036597	-0.430282	-0.157353
O8	O	0.953899	-0.230771	-0.266808
O9	O	1.145938	-0.439076	-0.267421
O10	O	1.036745	-0.237434	-0.350205
O11	O	0.953814	-0.340488	-0.157089
O12	O	0.834965	-0.340454	-0.275952
O13	O	0.937039	-0.439016	-0.476343
O14	O	0.827698	-0.430222	-0.366275
O15	O	1.027153	-0.355911	-0.469415
O16	O	1.027005	-0.548759	-0.276564
O17	O	0.936955	-0.548733	-0.366624
C18	C	0.805795	-0.384350	-0.322098
C19	C	0.727567	-0.381342	-0.325131
C20	C	0.690785	-0.423134	-0.283203
C21	C	0.617282	-0.420308	-0.286061
C22	C	0.580561	-0.375685	-0.330845
C23	C	0.617348	-0.333891	-0.372778
C24	C	0.690851	-0.336721	-0.369922
C25	C	0.360736	-0.362589	-0.344038
C26	C	0.287229	-0.359761	-0.346888
C27	C	0.287167	-0.446179	-0.260173
C28	C	0.360671	-0.449003	-0.257318
C29	C	0.397451	-0.407211	-0.299253
N30	N	0.505429	-0.372793	-0.333766
N31	N	0.472582	-0.410107	-0.296335
C32	C	0.980916	-0.574284	-0.322671
C33	C	0.977670	-0.652516	-0.325952
C34	C	1.023062	-0.689262	-0.280640
C35	C	1.020014	-0.762769	-0.283730
C36	C	0.971568	-0.799528	-0.332129
C37	C	0.926174	-0.762777	-0.377446
C38	C	0.929226	-0.689271	-0.374359
C39	C	0.957410	-1.019368	-0.346390
C40	C	0.954359	-1.092878	-0.349473
C41	C	1.048201	-1.092865	-0.255757
C42	C	1.051246	-1.019358	-0.252672
C43	C	1.005854	-0.982613	-0.297991
N44	N	0.968449	-0.874664	-0.335288
N45	N	1.008977	-0.907479	-0.294835
C46	C	1.172221	-0.398527	-0.307975
C47	C	1.250447	-0.401553	-0.304960
C48	C	0.981003	-0.398471	-0.499215
C49	C	0.977744	-0.401474	-0.577694
C50	C	0.996435	-0.207852	-0.307415
C51	C	0.999752	-0.129624	-0.304161
C52	C	1.023127	-0.359619	-0.610959
C53	C	1.020057	-0.362437	-0.684699
C54	C	0.971605	-0.407116	-0.725174
C55	C	0.926216	-0.448973	-0.691905
C56	C	0.929284	-0.446150	-0.618165
C57	C	0.957395	-0.420194	-0.946097
C58	C	0.954332	-0.423015	-1.019841
C59	C	1.048172	-0.336479	-1.012631
C60	C	1.051239	-0.333663	-0.938891
C61	C	1.005847	-0.375517	-0.905628
N62	N	0.968466	-0.409999	-0.800549
N63	N	1.008983	-0.372629	-0.830254
C64	C	0.996312	-0.384356	-0.131599
C65	C	0.999716	-0.381160	-0.053106
H66	H	0.720678	-0.459469	-0.246732
H67	H	0.587445	-0.297561	-0.409245
C68	C	1.075549	-0.649310	-0.228006
C69	C	1.039367	-0.603906	-0.182470
C70	C	1.087696	-0.567100	-0.133970
H71	H	1.106281	-0.622755	-0.252568
H72	H	1.102138	-0.681700	-0.201422
H73	H	1.012790	-0.571520	-0.209051
H74	H	1.008637	-0.630443	-0.157892
H75	H	1.114284	-0.599491	-0.107385
H76	H	1.118426	-0.540550	-0.158538
H77	H	1.063153	-0.536294	-0.103063
H78	H	1.057015	-0.328356	-0.711780
H79	H	0.920444	-0.454286	-0.919024
H80	H	0.587337	-0.454340	-0.251919
H81	H	0.257334	-0.323417	-0.383354
H82	H	0.390674	-0.328561	-0.378185
C83	C	1.069468	-0.802520	-0.234563
C84	C	1.139164	-0.787764	-0.246596
C85	C	1.184769	-0.824335	-0.201308
H86	H	1.060870	-0.851588	-0.243246
H87	H	1.061732	-0.788259	-0.186992
H88	H	1.146897	-0.802030	-0.294156
H89	H	1.147785	-0.738704	-0.237908
H90	H	1.177033	-0.810074	-0.153736
H91	H	1.176165	-0.873401	-0.209995
H92	H	1.232063	-0.814323	-0.209461
C93	C	0.901675	-1.132817	-0.401913
C94	C	0.856490	-1.171780	-0.365409
C95	C	0.807944	-1.208572	-0.413689
H96	H	0.926021	-1.163730	-0.432882
H97	H	0.875039	-1.100424	-0.428451
H98	H	0.883124	-1.204170	-0.338883
H99	H	0.832128	-1.140884	-0.334443
H100	H	0.781308	-1.176179	-0.440227
H101	H	0.832296	-1.239481	-0.444655
H102	H	0.777276	-1.235008	-0.388928
H103	H	0.257213	-0.480204	-0.226032
H104	H	0.390564	-0.485339	-0.220850
H105	H	1.090695	-0.297283	-0.905941
H106	H	0.920449	-0.989456	-0.383289
H107	H	0.886763	-0.485348	-0.724865
H108	H	1.085126	-0.302402	-1.039722
H109	H	0.914874	-0.459399	-1.052794
H110	H	0.720798	-0.302689	-0.404064
C111	C	1.103925	-0.979579	-0.200106
C112	C	1.143041	-1.027495	-0.161098
C113	C	1.191581	-0.990878	-0.112674
H114	H	1.079580	-0.948719	-0.169086
H115	H	1.134673	-0.953104	-0.224742
H116	H	1.112297	-1.053959	-0.136463
H117	H	1.167400	-1.058357	-0.192098
H118	H	1.222330	-0.964402	-0.137311
H119	H	1.167231	-0.960019	-0.081660
H120	H	1.218132	-1.023383	-0.086206
C121	C	1.097456	-1.132890	-0.206650
C122	C	1.084432	-1.205132	-0.219725
C123	C	1.129805	-1.242024	-0.174509
H124	H	1.089714	-1.118749	-0.159063
H125	H	1.144817	-1.123060	-0.214708
H126	H	1.037082	-1.214957	-0.211661
H127	H	1.092179	-1.219293	-0.267303
H128	H	1.177166	-1.232194	-0.182567
H129	H	1.122059	-1.227878	-0.126925
H130	H	1.120979	-1.291045	-0.183379
C131	C	0.873599	-0.802810	-0.429922
C132	C	0.880625	-0.875047	-0.422914
C133	C	0.832196	-0.911944	-0.471235
H134	H	0.882341	-0.793032	-0.476502
H135	H	0.827233	-0.788622	-0.420862
H136	H	0.926981	-0.889230	-0.431978
H137	H	0.871877	-0.884846	-0.376344
H138	H	0.785831	-0.897756	-0.462176
H139	H	0.840943	-0.902161	-0.517813
H140	H	0.836953	-0.960961	-0.466483
H141	H	0.892321	-0.480226	-0.591083
H142	H	0.892264	-0.659353	-0.411257
H143	H	1.062584	-0.323239	-0.578009
