data_functionalizedCrystal
_audit_creation_method	'MofGen! by Chris Wilmer'
_symmetry_space_group_name_H-M	'P1'
_symmetry_Int_Tables_number	1
_symmetry_cell_setting	triclinic
loop_
_symmetry_equiv_pos_as_xyz
  x,y,z
_cell_length_a	18.050589
_cell_length_b	18.215407
_cell_length_c	18.215399
_cell_angle_alpha	89.986109
_cell_angle_beta	89.973988
_cell_angle_gamma	90.025680
loop_
_atom_site_label
_atom_site_type_symbol
_atom_site_fract_x
_atom_site_fract_y
_atom_site_fract_z
Zn1	Zn	-0.295700	1.125033	-0.416080
Zn2	Zn	0.037634	1.458366	-0.082747
Zn3	Zn	0.370967	1.791700	0.250586
Zn4	Zn	-0.419900	1.124941	-0.293024
Zn5	Zn	-0.086567	1.458274	0.040310
Zn6	Zn	0.246767	1.791607	0.373643
Zn7	Zn	-0.295723	1.001972	-0.293034
Zn8	Zn	0.037611	1.335305	0.040299
Zn9	Zn	0.370944	1.668639	0.373633
Zn10	Zn	-0.419847	1.001924	-0.416055
Zn11	Zn	-0.086514	1.335258	-0.082721
Zn12	Zn	0.246820	1.668591	0.250612
O13	O	-0.357792	1.063468	-0.354548
O14	O	-0.024459	1.396801	-0.021215
O15	O	0.308874	1.730134	0.312118
O16	O	-0.312188	1.228005	-0.399763
O17	O	0.021146	1.561338	-0.066430
O18	O	0.354479	1.894672	0.266904
O19	O	-0.403459	1.108610	-0.190041
O20	O	-0.070126	1.441943	0.143293
O21	O	0.263207	1.775277	0.476626
O22	O	-0.191795	1.018355	-0.309372
O23	O	0.141538	1.351688	0.023962
O24	O	0.474871	1.685022	0.357295
O25	O	-0.403437	1.227937	-0.309354
O26	O	-0.070104	1.561271	0.023980
O27	O	0.263230	1.894604	0.357313
O28	O	-0.191778	1.108767	-0.399773
O29	O	0.141555	1.442101	-0.066440
O30	O	0.474888	1.775434	0.266893
O31	O	-0.312227	1.018265	-0.190048
O32	O	0.021106	1.351599	0.143285
O33	O	0.354440	1.684932	0.476618
O34	O	-0.312176	0.898981	-0.309347
O35	O	0.021158	1.232315	0.023987
O36	O	0.354491	1.565648	0.357320
O37	O	-0.403347	1.018274	-0.519042
O38	O	-0.070013	1.351607	-0.185709
O39	O	0.263320	1.684940	0.147624
O40	O	-0.403369	0.898946	-0.399729
O41	O	-0.070036	1.232280	-0.066396
O42	O	0.263298	1.565613	0.266937
O43	O	-0.312136	1.108721	-0.519061
O44	O	0.021197	1.442054	-0.185728
O45	O	0.354530	1.775388	0.147605
O46	O	-0.523818	1.108564	-0.309329
O47	O	-0.190484	1.441897	0.024005
O48	O	0.142849	1.775230	0.357338
O49	O	-0.523779	1.018184	-0.399719
O50	O	-0.190445	1.351517	-0.066386
O51	O	0.142888	1.684851	0.266948
C52	C	-0.357770	0.872261	-0.354537
C53	C	-0.024436	1.205595	-0.021204
C54	C	0.308897	1.538928	0.312130
C55	C	-0.357778	0.790462	-0.354549
C56	C	-0.024444	1.123796	-0.021216
C57	C	0.308889	1.457129	0.312117
C58	C	-0.405355	0.525406	-0.401546
C59	C	-0.072021	0.858739	-0.068213
C60	C	0.261312	1.192072	0.265121
C61	C	-0.405348	0.602265	-0.401542
C62	C	-0.072015	0.935598	-0.068209
C63	C	0.261318	1.268931	0.265124
C64	C	-0.310247	0.602271	-0.307563
C65	C	0.023087	0.935604	0.025770
C66	C	0.356420	1.268937	0.359103
C67	C	-0.310257	0.525413	-0.307564
C68	C	0.023076	0.858746	0.025769
C69	C	0.356409	1.192080	0.359103
C70	C	-0.357810	0.486983	-0.354559
C71	C	-0.024477	0.820316	-0.021226
C72	C	0.308856	1.153649	0.312107
C73	C	-0.357793	0.640699	-0.354555
C74	C	-0.024460	0.974032	-0.021222
C75	C	0.308873	1.307366	0.312111
C76	C	-0.357786	0.724033	-0.354551
C77	C	-0.024453	1.057366	-0.021218
C78	C	0.308881	1.390699	0.312116
C79	C	-0.357819	0.403644	-0.354563
C80	C	-0.024485	0.736977	-0.021229
C81	C	0.308848	1.070310	0.312104
C82	C	-0.550745	1.063379	-0.354536
C83	C	-0.217411	1.396712	-0.021203
C84	C	0.115922	1.730045	0.312131
C85	C	-0.633290	1.063408	-0.354555
C86	C	-0.299957	1.396741	-0.021222
C87	C	0.033376	1.730075	0.312111
C88	C	-0.832747	1.014308	-0.403693
C89	C	-0.499413	1.347641	-0.070359
C90	C	-0.166080	1.680975	0.262974
C91	C	-0.882189	0.996372	-0.336539
C92	C	-0.548856	1.329705	-0.003206
C93	C	-0.215522	1.663038	0.330127
C94	C	-0.784421	1.063480	-0.354565
C95	C	-0.451087	1.396814	-0.021232
C96	C	-0.117754	1.730147	0.312102
C97	C	-0.882060	1.081453	-0.421726
C98	C	-0.548727	1.414786	-0.088393
C99	C	-0.215393	1.748119	0.244941
C100	C	-0.930406	1.063549	-0.354580
C101	C	-0.597072	1.396882	-0.021247
C102	C	-0.263739	1.730215	0.312087
C103	C	-0.832776	1.045509	-0.287376
C104	C	-0.499443	1.378842	0.045957
C105	C	-0.166109	1.712175	0.379291
C106	C	-0.832642	1.130621	-0.372608
C107	C	-0.499309	1.463954	-0.039275
C108	C	-0.165976	1.797288	0.294059
C109	C	-0.882062	1.112710	-0.305409
C110	C	-0.548729	1.446044	0.027925
C111	C	-0.215396	1.779377	0.361258
C112	C	-0.700322	1.063439	-0.354557
C113	C	-0.366989	1.396772	-0.021224
C114	C	-0.033656	1.730106	0.312109
C115	C	-1.014502	1.063590	-0.354580
C116	C	-0.681169	1.396924	-0.021247
C117	C	-0.347836	1.730257	0.312086
C118	C	-0.164087	1.063577	-0.354577
C119	C	0.169247	1.396910	-0.021243
C120	C	0.502580	1.730243	0.312090
C121	C	-0.081541	1.063623	-0.354589
C122	C	0.251792	1.396957	-0.021255
C123	C	0.585126	1.730290	0.312078
C124	C	-0.357733	1.063502	-0.546501
C125	C	-0.024400	1.396836	-0.213168
C126	C	0.308934	1.730169	0.120165
C127	C	-0.357708	1.063517	-0.628300
C128	C	-0.024374	1.396850	-0.294967
C129	C	0.308959	1.730184	0.038367
C130	C	-0.357816	1.255420	-0.354560
C131	C	-0.024482	1.588754	-0.021227
C132	C	0.308851	1.922087	0.312107
C133	C	-0.357826	1.337219	-0.354565
C134	C	-0.024492	1.670553	-0.021232
C135	C	0.308841	2.003886	0.312102
C136	C	-0.310171	1.016514	-0.816499
C137	C	0.023162	1.349848	-0.483166
C138	C	0.356496	1.683181	-0.149832
C139	C	-0.310156	1.016527	-0.893358
C140	C	0.023177	1.349861	-0.560025
C141	C	0.356511	1.683194	-0.226691
C142	C	-0.405156	1.110608	-0.893339
C143	C	-0.071823	1.443941	-0.560006
C144	C	0.261511	1.777274	-0.226672
C145	C	-0.405174	1.110591	-0.816482
C146	C	-0.071841	1.443924	-0.483148
C147	C	0.261492	1.777257	-0.149815
C148	C	-0.357677	1.063545	-0.778064
C149	C	-0.024344	1.396879	-0.444730
C150	C	0.308989	1.730212	-0.111397
C151	C	-0.357644	1.063575	-0.931780
C152	C	-0.024311	1.396908	-0.598447
C153	C	0.309022	1.730242	-0.265113
C154	C	-0.357628	1.063589	-1.015114
C155	C	-0.024295	1.396923	-0.681780
C156	C	0.309038	1.730256	-0.348447
C157	C	-0.357694	1.063530	-0.694725
C158	C	-0.024361	1.396863	-0.361391
C159	C	0.308973	1.730196	-0.028058
C160	C	-0.357798	1.063475	-0.163342
C161	C	-0.024465	1.396809	0.169991
C162	C	0.308869	1.730142	0.503325
C163	C	-0.357614	1.063603	-0.081543
C164	C	-0.024281	1.396936	0.251790
C165	C	0.309053	1.730270	0.585123
H166	H	-0.444076	0.494118	-0.439812
H167	H	-0.110742	0.827451	-0.106479
H168	H	0.222591	1.160785	0.226854
Br169	Br	-0.469880	0.654408	-0.465309
Br170	Br	-0.136547	0.987741	-0.131976
Br171	Br	0.196787	1.321074	0.201358
Br172	Br	-0.245711	0.654431	-0.243790
Br173	Br	0.087623	0.987764	0.089543
Br174	Br	0.420956	1.321097	0.422877
H175	H	-0.443826	1.148911	-0.924628
H176	H	-0.110492	1.482244	-0.591295
H177	H	0.222841	1.815578	-0.257962
Br178	Br	-0.918459	0.901786	-0.311102
Br179	Br	-0.585126	1.235119	0.022231
Br180	Br	-0.251793	1.568452	0.355564
Br181	Br	-0.796848	1.020112	-0.192692
Br182	Br	-0.463515	1.353445	0.140641
Br183	Br	-0.130182	1.686779	0.473975
Br184	Br	-0.469657	1.174417	-0.764314
Br185	Br	-0.136324	1.507751	-0.430981
Br186	Br	0.197009	1.841084	-0.097648
Br187	Br	-0.918149	1.106742	-0.516379
Br188	Br	-0.584815	1.440075	-0.183046
Br189	Br	-0.251482	1.773408	0.150288
H190	H	-0.271540	0.494128	-0.269298
H191	H	0.061794	0.827462	0.064035
H192	H	0.395127	1.160795	0.397368
H193	H	-0.271496	0.978207	-0.785221
H194	H	0.061837	1.311540	-0.451888
H195	H	0.395170	1.644873	-0.118555
Br196	Br	-0.796652	0.944903	-0.472843
Br197	Br	-0.463319	1.278236	-0.139509
Br198	Br	-0.129986	1.611569	0.193824
Br199	Br	-0.917927	1.182072	-0.236099
Br200	Br	-0.584593	1.515405	0.097234
Br201	Br	-0.251260	1.848739	0.430568
H202	H	-0.810865	1.187355	-0.387887
H203	H	-0.477531	1.520688	-0.054554
H204	H	-0.144198	1.854021	0.278779
H205	H	-0.271472	0.978229	-0.924649
H206	H	0.061861	1.311563	-0.591315
H207	H	0.395194	1.644896	-0.257982
