data_functionalizedCrystal
_audit_creation_method	'MofGen! by Chris Wilmer'
_symmetry_space_group_name_H-M	'P1'
_symmetry_Int_Tables_number	1
_symmetry_cell_setting	triclinic
loop_
_symmetry_equiv_pos_as_xyz
  x,y,z
_cell_length_a	16.109318
_cell_length_b	14.853559
_cell_length_c	15.186229
_cell_angle_alpha	89.998446
_cell_angle_beta	90.000224
_cell_angle_gamma	83.550009
loop_
_atom_site_label
_atom_site_type_symbol
_atom_site_fract_x
_atom_site_fract_y
_atom_site_fract_z
O1	O	1.103281	0.115956	-0.073151
O2	O	0.861241	0.130360	-0.073168
O3	O	0.988730	-0.008083	-0.073158
O4	O	0.975792	0.254398	-0.073161
O5	O	0.988722	-0.008085	0.073299
O6	O	0.861233	0.130358	0.073289
O7	O	1.103273	0.115954	0.073306
Zn8	Zn	0.982251	0.123156	0.096551
Zn9	Zn	0.982263	0.123158	-0.096413
O10	O	0.975784	0.254397	0.073296
C11	C	0.830261	0.129773	0.000058
C12	C	0.737964	0.128016	0.000051
C13	C	0.438888	0.122340	-0.079767
C14	C	0.525611	0.123986	-0.079772
C15	C	0.525621	0.123971	0.079903
C16	C	0.438899	0.122319	0.079908
C17	C	0.395535	0.121508	0.000070
C18	C	0.568979	0.124806	0.000060
C19	C	0.663009	0.126590	0.000055
C20	C	0.301499	0.119722	0.000075
C21	C	0.988141	-0.041671	0.000069
C22	C	0.986388	-0.141753	0.000064
C23	C	0.978956	-0.564915	-0.079771
C24	C	0.978947	-0.564912	0.079902
C25	C	0.980601	-0.470881	0.079903
C26	C	0.981431	-0.423863	0.000066
C27	C	0.980608	-0.470875	-0.079772
C28	C	0.981416	-0.423861	0.159740
C29	C	0.983069	-0.329824	0.159744
C30	C	0.983905	-0.282805	0.079906
C31	C	0.983083	-0.329823	0.000064
C32	C	0.983913	-0.282805	-0.079773
C33	C	0.983096	-0.329822	-0.159616
C34	C	0.981444	-0.423856	-0.159611
C35	C	0.985558	-0.188771	0.079901
C36	C	0.985565	-0.188765	-0.079775
C37	C	1.134252	0.116541	0.000078
C38	C	1.226549	0.118298	0.000079
C39	C	0.976373	0.287985	0.000067
C40	C	0.978126	0.388067	0.000067
N41	N	0.982250	0.123153	0.228244
N42	N	0.982271	0.123153	-0.228106
C43	C	1.038721	0.061871	0.453971
C44	C	1.038724	0.061869	0.546161
C45	C	0.925793	0.184438	0.546161
C46	C	0.925787	0.184435	0.453973
C47	C	0.982256	0.123153	0.407880
C48	C	0.982264	0.123154	0.592258
C49	C	0.982267	0.123152	0.692214
C50	C	0.982253	0.123153	0.307918
H51	H	0.560905	0.124662	-0.144784
H52	H	0.980778	-0.462146	-0.224614
O53	O	0.567853	0.124648	0.157397
C54	C	0.627332	0.047561	0.162179
H55	H	0.643429	0.021798	0.092860
H56	H	0.600447	-0.007720	0.201578
C57	C	0.687106	0.104479	0.292956
C58	C	0.706882	0.072840	0.207817
H59	H	0.736176	0.120069	0.321111
H60	H	0.647032	0.156412	0.289737
H61	H	0.664701	0.058405	0.325777
H62	H	0.729278	0.118916	0.174994
H63	H	0.746962	0.020914	0.211032
H64	H	1.084700	0.011970	0.416444
H65	H	0.986204	-0.150491	0.144908
H66	H	0.983767	-0.291527	-0.224619
H67	H	0.879819	0.234334	0.583698
H68	H	0.978295	-0.603201	-0.144777
O69	O	0.978033	-0.610670	0.157393
C70	C	0.905121	-0.654817	0.162182
H71	H	0.880881	-0.665485	0.092866
H72	H	0.855380	-0.611420	0.201588
C73	C	0.955185	-0.734152	0.292951
C74	C	0.925417	-0.747261	0.207815
H75	H	0.967703	-0.791174	0.321103
H76	H	1.004306	-0.704407	0.289727
H77	H	0.913729	-0.697985	0.325778
H78	H	0.966877	-0.783418	0.174986
H79	H	0.876304	-0.777015	0.211034
O80	O	0.396904	0.121554	0.157545
C81	C	0.453775	0.122609	0.228011
H82	H	0.512182	0.152316	0.204609
H83	H	0.471640	0.050499	0.252554
C84	C	0.341128	0.144556	0.332186
C85	C	0.412862	0.181050	0.303445
H86	H	0.315892	0.180601	0.378719
H87	H	0.302813	0.143842	0.284712
H88	H	0.356026	0.084466	0.352632
H89	H	0.397962	0.241134	0.282989
H90	H	0.451174	0.181775	0.350917
O91	O	0.870903	0.244056	0.409331
C92	C	0.821055	0.298136	0.469779
H93	H	0.855143	0.299174	0.535492
H94	H	0.759265	0.268839	0.479590
C95	C	0.762156	0.394108	0.353079
C96	C	0.804027	0.395390	0.433787
H97	H	0.751649	0.454098	0.330877
H98	H	0.795737	0.357672	0.312353
H99	H	0.710669	0.369690	0.361266
H100	H	0.855517	0.419797	0.425598
H101	H	0.770454	0.431833	0.474511
O102	O	0.983723	-0.284097	0.237277
C103	C	0.912746	-0.219452	0.242047
H104	H	0.861959	-0.240632	0.196740
H105	H	0.930270	-0.150499	0.220600
C106	C	0.942526	-0.187359	0.393075
C107	C	0.880145	-0.213376	0.337434
H108	H	0.922417	-0.183607	0.451914
H109	H	0.990346	-0.230909	0.389861
H110	H	0.957124	-0.129900	0.375192
H111	H	0.865556	-0.270839	0.355310
H112	H	0.832321	-0.169836	0.340653
O113	O	0.396896	0.121510	-0.157397
C114	C	0.453759	0.122620	-0.227863
H115	H	0.518987	0.095268	-0.204461
H116	H	0.454343	0.195081	-0.252407
C117	C	0.346858	0.096490	-0.332036
C118	C	0.426971	0.062889	-0.303295
H119	H	0.330333	0.059649	-0.378569
H120	H	0.308547	0.095745	-0.284562
H121	H	0.347355	0.156873	-0.352483
H122	H	0.426471	0.002511	-0.282839
H123	H	0.465281	0.063622	-0.350768
O124	O	1.093496	0.002376	0.591069
C125	C	1.081408	0.015529	0.682321
H126	H	1.015349	0.049197	0.694915
H127	H	1.128514	0.060766	0.708479
C128	C	1.174942	-0.118045	0.714183
C129	C	1.093805	-0.076700	0.729653
H130	H	1.182592	-0.174934	0.743381
H131	H	1.183089	-0.126904	0.652705
H132	H	1.214188	-0.080338	0.735982
H133	H	1.054561	-0.114401	0.707845
H134	H	1.085652	-0.067848	0.791128
O135	O	0.986214	-0.143126	-0.157361
C136	C	0.913874	-0.155917	-0.205931
H137	H	0.863137	-0.174612	-0.159209
H138	H	0.929187	-0.212825	-0.255696
C139	C	0.945021	-0.044800	-0.312261
C140	C	0.882703	-0.067753	-0.254875
H141	H	0.925795	0.009581	-0.342455
H142	H	0.993760	-0.036184	-0.279540
H143	H	0.957776	-0.092230	-0.353723
H144	H	0.869957	-0.020329	-0.213407
H145	H	0.833961	-0.076359	-0.287589
O146	O	0.980512	-0.469627	0.237227
C147	C	0.907611	-0.513793	0.242016
H148	H	0.883367	-0.524455	0.172700
H149	H	0.857866	-0.470412	0.281432
C150	C	0.957701	-0.593140	0.372769
C151	C	0.927928	-0.606242	0.287634
H152	H	0.970231	-0.650165	0.400912
H153	H	1.006814	-0.563382	0.369545
H154	H	0.916242	-0.556986	0.405605
H155	H	0.969391	-0.642385	0.254796
H156	H	0.878821	-0.636007	0.290853
