data_functionalizedCrystal
_audit_creation_method	'MofGen! by Chris Wilmer'
_symmetry_space_group_name_H-M	'P1'
_symmetry_Int_Tables_number	1
_symmetry_cell_setting	triclinic
loop_
_symmetry_equiv_pos_as_xyz
  x,y,z
_cell_length_a	14.853566
_cell_length_b	27.732064
_cell_length_c	13.330367
_cell_angle_alpha	89.999430
_cell_angle_beta	89.995295
_cell_angle_gamma	83.141919
loop_
_atom_site_label
_atom_site_type_symbol
_atom_site_fract_x
_atom_site_fract_y
_atom_site_fract_z
O1	O	1.195350	0.063103	-0.083348
O2	O	1.695350	0.563103	0.416652
O3	O	0.932769	0.070621	-0.083363
O4	O	1.432769	0.570621	0.416637
O5	O	1.072207	-0.003496	-0.083359
O6	O	1.572207	0.496504	0.416641
O7	O	1.055912	0.137220	-0.083352
O8	O	1.555912	0.637220	0.416648
O9	O	1.072187	-0.003498	0.083488
O10	O	1.572187	0.496502	0.583488
O11	O	0.932749	0.070620	0.083484
O12	O	1.432749	0.570620	0.583484
O13	O	1.195330	0.063102	0.083499
O14	O	1.695330	0.563102	0.583499
Cu15	Cu	1.064038	0.066860	0.098726
Cu16	Cu	1.564038	0.566860	0.598726
Cu17	Cu	1.064061	0.066862	-0.098590
Cu18	Cu	1.564061	0.566862	0.401410
O19	O	1.055892	0.137219	0.083495
O20	O	1.555892	0.637219	0.583495
C21	C	0.899176	0.070280	0.000058
C22	C	1.399176	0.570280	0.500058
C23	C	0.799108	0.069259	0.000052
C24	C	1.299108	0.569259	0.500052
C25	C	0.376004	0.064944	-0.090879
C26	C	0.876004	0.564944	0.409121
C27	C	0.376004	0.064943	0.091024
C28	C	0.876004	0.564943	0.591024
C29	C	0.470022	0.065901	0.091021
C30	C	0.970022	0.565901	0.591021
C31	C	0.517036	0.066381	0.000067
C32	C	1.017036	0.566381	0.500067
C33	C	0.470031	0.065904	-0.090885
C34	C	0.970031	0.565904	0.409115
C35	C	0.517033	0.066383	0.181971
C36	C	1.017033	0.566383	0.681971
C37	C	0.611057	0.067342	0.181971
C38	C	1.111057	0.567342	0.681971
C39	C	0.658073	0.067820	0.091016
C40	C	1.158073	0.567820	0.591016
C41	C	0.611063	0.067341	0.000061
C42	C	1.111063	0.567341	0.500061
C43	C	0.658077	0.067822	-0.090894
C44	C	1.158077	0.567822	0.409106
C45	C	0.611069	0.067340	-0.181850
C46	C	1.111069	0.567340	0.318150
C47	C	0.517047	0.066381	-0.181841
C48	C	1.017047	0.566381	0.318159
C49	C	0.752095	0.068779	0.091006
C50	C	1.252095	0.568779	0.591006
C51	C	0.752104	0.068782	-0.090900
C52	C	1.252104	0.568782	0.409100
C53	C	1.071852	-0.021505	0.000061
C54	C	1.571852	0.478495	0.500061
C55	C	1.070816	-0.075164	0.000052
C56	C	1.570816	0.424836	0.500052
C57	C	0.981356	-0.452655	0.000043
C58	C	1.481356	0.047345	0.500043
C59	C	0.985172	-0.250977	0.000042
C60	C	1.485172	0.249023	0.500042
O61	O	0.915754	-0.220049	-0.000002
O62	O	1.415754	0.279951	0.499998
N63	N	1.067856	-0.231463	0.000047
N64	N	1.567856	0.268537	0.500047
C65	C	1.149592	-0.262372	0.000045
C66	C	1.649592	0.237628	0.500045
O67	O	1.220008	-0.241147	0.000039
O68	O	1.720008	0.258853	0.500039
C69	C	1.145775	-0.464049	0.000039
C70	C	1.645775	0.035951	0.500039
C71	C	1.063086	-0.483560	0.000044
C72	C	1.563086	0.016440	0.500044
C73	C	0.898673	-0.472167	0.000047
C74	C	1.398673	0.027833	0.500047
C75	C	0.897720	-0.522583	0.000053
C76	C	1.397720	-0.022583	0.500053
C77	C	0.979450	-0.553488	0.000054
C78	C	1.479450	-0.053488	0.500054
C79	C	1.062132	-0.533977	0.000050
C80	C	1.562132	-0.033977	0.500050
C81	C	1.227510	-0.494957	0.000030
C82	C	1.727510	0.005043	0.500030
C83	C	1.226548	-0.545379	0.000026
C84	C	1.726548	-0.045379	0.500026
C85	C	1.143859	-0.564890	0.000031
C86	C	1.643859	-0.064890	0.500031
C87	C	1.142909	-0.615299	0.000057
C88	C	1.642909	-0.115299	0.500057
N89	N	1.060225	-0.634812	0.000052
N90	N	1.560225	-0.134812	0.500052
C91	C	0.978495	-0.603907	0.000051
C92	C	1.478495	-0.103907	0.500051
C93	C	1.151591	-0.156488	0.000050
C94	C	1.651591	0.343512	0.500050
C95	C	1.152545	-0.106069	0.000053
C96	C	1.652545	0.393931	0.500053
C97	C	0.988125	-0.094678	0.000048
C98	C	1.488125	0.405322	0.500048
C99	C	0.987171	-0.145098	0.000052
C100	C	1.487171	0.354902	0.500052
C101	C	1.068906	-0.176002	0.000045
C102	C	1.568906	0.323998	0.500045
C103	C	0.976500	-0.709786	0.000064
C104	C	1.476500	-0.209786	0.500064
C105	C	0.975554	-0.760208	0.000074
C106	C	1.475554	-0.260208	0.500074
C107	C	1.139974	-0.771595	0.000074
C108	C	1.639974	-0.271595	0.500074
C109	C	1.140920	-0.721178	0.000069
C110	C	1.640920	-0.221178	0.500069
C111	C	1.059176	-0.690274	0.000061
C112	C	1.559176	-0.190274	0.500061
O113	O	1.212290	-0.646255	0.000090
O114	O	1.712290	-0.146255	0.500090
O115	O	0.908090	-0.625142	0.000035
O116	O	1.408090	-0.125142	0.500035
C117	C	0.982309	-0.402239	0.000037
C118	C	1.482309	0.097761	0.500037
C119	C	1.064992	-0.382727	0.000033
C120	C	1.564992	0.117273	0.500033
C121	C	1.146722	-0.413632	0.000034
C122	C	1.646722	0.086368	0.500034
C123	C	1.065947	-0.332308	0.000036
C124	C	1.565947	0.167692	0.500036
C125	C	0.984217	-0.301403	0.000035
C126	C	1.484217	0.198597	0.500035
C127	C	0.901533	-0.320917	0.000030
C128	C	1.401533	0.179083	0.500030
C129	C	0.900580	-0.371334	0.000036
C130	C	1.400580	0.128666	0.500036
C131	C	1.229406	-0.394118	0.000039
C132	C	1.729406	0.105882	0.500039
C133	C	1.230352	-0.343701	0.000034
C134	C	1.730352	0.156299	0.500034
C135	C	1.148623	-0.312796	0.000033
C136	C	1.648623	0.187204	0.500033
C137	C	1.228923	0.063443	0.000076
C138	C	1.728923	0.563443	0.500076
C139	C	1.328990	0.064463	0.000075
C140	C	1.828990	0.564463	0.500075
C141	C	1.056246	0.155228	0.000072
C142	C	1.556246	0.655228	0.500072
C143	C	1.057283	0.208887	0.000075
C144	C	1.557283	0.708887	0.500075
N145	N	1.064027	0.066859	0.237508
N146	N	1.564027	0.566859	0.737508
N147	N	1.064079	0.066860	-0.237372
N148	N	1.564079	0.566860	0.262628
C149	C	1.002316	0.099669	0.710129
C150	C	1.502316	0.599669	1.210129
C151	C	1.125831	0.034052	0.710100
C152	C	1.625831	0.534052	1.210100
C153	C	1.125821	0.034051	0.605082
C154	C	1.625821	0.534051	1.105082
C155	C	1.064058	0.066859	0.552582
C156	C	1.564058	0.566859	1.052582
C157	C	1.002305	0.099669	0.605100
C158	C	1.502305	0.599669	1.105100
C159	C	1.187579	0.001245	0.552556
C160	C	1.687579	0.501245	1.052556
C161	C	1.187572	0.001243	0.447531
C162	C	1.687572	0.501243	0.947531
C163	C	1.125804	0.034049	0.395029
C164	C	1.625804	0.534049	0.895029
C165	C	1.064048	0.066860	0.447554
C166	C	1.564048	0.566860	0.947554
C167	C	1.002285	0.099668	0.395054
C168	C	1.502285	0.599668	0.895054
C169	C	0.940524	0.132477	0.447577
C170	C	1.440524	0.632477	0.947577
C171	C	0.940537	0.132475	0.552599
C172	C	1.440537	0.632475	1.052599
C173	C	1.125790	0.034050	0.290007
C174	C	1.625790	0.534050	0.790007
C175	C	1.002275	0.099669	0.290026
C176	C	1.502275	0.599669	0.790026
H177	H	0.790363	0.069176	0.165061
H178	H	1.290363	0.569176	0.665061
H179	H	0.478765	0.065988	-0.255892
H180	H	0.978765	0.565988	0.244108
Br181	Br	1.340337	-0.436054	0.000042
Br182	Br	1.840337	0.063946	0.500042
Br183	Br	1.209658	-0.010467	0.781346
Br184	Br	1.709658	0.489533	1.281346
Br185	Br	1.271406	-0.043275	0.623801
Br186	Br	1.771406	0.456725	1.123801
H187	H	0.649359	0.067735	-0.255905
H188	H	1.149359	0.567735	0.244095
Br189	Br	0.312217	0.064273	-0.214314
Br190	Br	0.812217	0.564273	0.285686
Br191	Br	0.787739	-0.430232	0.000041
Br192	Br	1.287739	0.069768	0.500041
H193	H	0.337719	0.064555	0.165075
H194	H	0.837719	0.564555	0.665075
Br195	Br	0.856727	0.176999	0.623881
Br196	Br	1.356727	0.676999	1.123881
H197	H	0.790376	0.069172	-0.164967
H198	H	1.290376	0.569172	0.335033
H199	H	0.478747	0.065995	0.256021
H200	H	0.978747	0.565995	0.756021
H201	H	0.952028	0.126380	0.752895
H202	H	1.452028	0.626380	1.252895
Br203	Br	0.674846	0.067996	0.305409
Br204	Br	1.174846	0.567996	0.805409
H205	H	0.833245	-0.387214	0.000041
H206	H	1.333245	0.112786	0.500041
Br207	Br	0.918442	0.144193	0.218784
Br208	Br	1.418442	0.644193	0.718784
H209	H	1.237859	-0.025472	0.404773
H210	H	1.737859	0.474528	0.904773
H211	H	1.176079	0.007340	0.247248
H212	H	1.676079	0.507340	0.747248
Br213	Br	0.856714	0.177006	0.376316
Br214	Br	1.356714	0.677006	0.876316
H215	H	1.294845	-0.479081	0.000025
H216	H	1.794845	0.020919	0.500025
Br217	Br	0.865560	-0.667853	0.000053
Br218	Br	1.365560	-0.167853	0.500053
H219	H	1.297693	-0.327821	0.000038
H220	H	1.797693	0.172179	0.500038
H221	H	0.919838	-0.160980	0.000061
H222	H	1.419838	0.339020	0.500061
Br223	Br	0.863325	-0.786683	0.000086
Br224	Br	1.363325	-0.286683	0.500086
Br225	Br	1.264771	-0.079597	0.000065
Br226	Br	1.764771	0.420403	0.500065
Br227	Br	0.785493	-0.549054	0.000050
Br228	Br	1.285493	-0.049054	0.500050
H229	H	0.921577	-0.069506	0.000052
H230	H	1.421577	0.430494	0.500052
Br231	Br	1.337482	-0.587319	0.000010
Br232	Br	1.837482	-0.087319	0.500010
Br233	Br	1.253142	-0.694698	0.000104
Br234	Br	1.753142	-0.194698	0.500104
Br235	Br	1.262529	-0.198424	0.000046
Br236	Br	1.762529	0.301576	0.500046
H237	H	1.206516	-0.796767	0.000080
H238	H	1.706516	-0.296767	0.500080
H239	H	0.834986	-0.295745	0.000035
H240	H	1.334986	0.204255	0.500035
