data_functionalizedCrystal
_audit_creation_method	'MofGen! by Chris Wilmer'
_symmetry_space_group_name_H-M	'P1'
_symmetry_Int_Tables_number	1
_symmetry_cell_setting	triclinic
loop_
_symmetry_equiv_pos_as_xyz
  x,y,z
_cell_length_a	19.805407
_cell_length_b	25.639240
_cell_length_c	19.805399
_cell_angle_alpha	89.964092
_cell_angle_beta	89.979591
_cell_angle_gamma	90.034697
loop_
_atom_site_label
_atom_site_type_symbol
_atom_site_fract_x
_atom_site_fract_y
_atom_site_fract_z
Zn1	Zn	1.034706	-0.208136	-0.382696
Zn2	Zn	1.034608	-0.295570	-0.269491
Zn3	Zn	0.921520	-0.208153	-0.269519
Zn4	Zn	0.921471	-0.295545	-0.382636
O5	O	0.978076	-0.251851	-0.326085
O6	O	1.129409	-0.219737	-0.367692
O7	O	1.019586	-0.283992	-0.174778
O8	O	0.936596	-0.134986	-0.284568
O9	O	1.129338	-0.283975	-0.284521
O10	O	1.019753	-0.134973	-0.367719
O11	O	0.936501	-0.219767	-0.174798
O12	O	0.826797	-0.219743	-0.284510
O13	O	0.936513	-0.283932	-0.477361
O14	O	0.826761	-0.283949	-0.367617
O15	O	1.019705	-0.219713	-0.477404
O16	O	1.019539	-0.368732	-0.284463
O17	O	0.936418	-0.368714	-0.367591
C18	C	0.802220	-0.251846	-0.326061
C19	C	0.726988	-0.251856	-0.326066
C20	C	0.977981	-0.387694	-0.326032
C21	C	0.978002	-0.445808	-0.326032
C22	C	0.265238	-0.218465	-0.369485
C23	C	0.335927	-0.218466	-0.369480
C24	C	0.371227	-0.251859	-0.326107
C25	C	0.335835	-0.285257	-0.282741
C26	C	0.265147	-0.285258	-0.282750
C27	C	0.620908	-0.285253	-0.282705
C28	C	0.691600	-0.285248	-0.282698
C29	C	0.691687	-0.218461	-0.369435
C30	C	0.621000	-0.218462	-0.369444
C31	C	0.585614	-0.251862	-0.326081
C32	C	0.508966	-0.251861	-0.326088
C33	C	0.447874	-0.251857	-0.326096
C34	C	1.021398	-0.806126	-0.369460
C35	C	1.021418	-0.860730	-0.369474
O36	O	1.058201	-0.888928	-0.406343
N37	N	0.978170	-0.888090	-0.326151
C38	C	0.934895	-0.860843	-0.282816
O39	O	0.898112	-0.889129	-0.245968
C40	C	0.934873	-0.806240	-0.282806
C41	C	0.978128	-0.778882	-0.326127
C42	C	1.064649	-0.778768	-0.412778
C43	C	1.064629	-0.724168	-0.412763
C44	C	1.021359	-0.696924	-0.369430
C45	C	0.978108	-0.724282	-0.326112
C46	C	0.891595	-0.778994	-0.239475
C47	C	0.891575	-0.724387	-0.239470
C48	C	0.934830	-0.697029	-0.282791
C49	C	0.934819	-0.642438	-0.282765
N50	N	0.978066	-0.615078	-0.326088
C51	C	1.021336	-0.642321	-0.369420
C52	C	0.934946	-0.975514	-0.282841
C53	C	0.934972	-1.030116	-0.282847
C54	C	1.021493	-1.029999	-0.369505
C55	C	1.021470	-0.975396	-0.369496
C56	C	0.978193	-0.948153	-0.326164
C57	C	1.021293	-0.527656	-0.369386
C58	C	1.021272	-0.473051	-0.369365
C59	C	0.934748	-0.473173	-0.282709
C60	C	0.934772	-0.527773	-0.282727
C61	C	0.978046	-0.555014	-0.326071
O62	O	0.898053	-0.614205	-0.245916
O63	O	1.058108	-0.614029	-0.406268
C64	C	1.154619	-0.251857	-0.326110
C65	C	1.229851	-0.251859	-0.326121
C66	C	0.978114	-0.251818	-0.502628
C67	C	0.978131	-0.251804	-0.577860
C68	C	0.978191	-0.115478	-0.326153
C69	C	0.978240	-0.057364	-0.326182
C70	C	1.021450	-0.218363	-0.613228
C71	C	1.021457	-0.218348	-0.683917
C72	C	0.978147	-0.251777	-0.719236
C73	C	0.934823	-0.285219	-0.683863
C74	C	0.934813	-0.285231	-0.613176
C75	C	0.934861	-0.285170	-0.968936
C76	C	0.934876	-0.285156	-1.039628
C77	C	1.021505	-0.218287	-1.039677
C78	C	1.021495	-0.218300	-0.968990
C79	C	0.978169	-0.251739	-0.933623
C80	C	0.978161	-0.251755	-0.856975
C81	C	0.978158	-0.251764	-0.795883
C82	C	0.978078	-0.251846	-0.150229
C83	C	0.978193	-0.251713	-0.074998
H84	H	0.236502	-0.191270	-0.404800
H85	H	0.364582	-0.312448	-0.247429
O86	O	0.849473	-0.805534	-0.197468
C87	C	0.782008	-0.792208	-0.212197
H88	H	0.778568	-0.777172	-0.266267
H89	H	0.764329	-0.760539	-0.175895
C90	C	0.741066	-0.859206	-0.137878
C91	C	0.736840	-0.840744	-0.204289
H92	H	0.713203	-0.889144	-0.132997
H93	H	0.786519	-0.868183	-0.127952
H94	H	0.726335	-0.832811	-0.107633
H95	H	0.751579	-0.867136	-0.234531
H96	H	0.691389	-0.831772	-0.214219
O97	O	0.230875	-0.317714	-0.240562
C98	C	0.277187	-0.347196	-0.202289
H99	H	0.327590	-0.325777	-0.199990
H100	H	0.284689	-0.386929	-0.226978
C101	C	0.187652	-0.380972	-0.133063
C102	C	0.249556	-0.354662	-0.130234
H103	H	0.170607	-0.385579	-0.088617
H104	H	0.156449	-0.361110	-0.158849
H105	H	0.193912	-0.414079	-0.153640
H106	H	0.243293	-0.321553	-0.109665
H107	H	0.280756	-0.374518	-0.104442
O108	O	0.892814	-0.317674	-0.718274
C109	C	0.902099	-0.310485	-0.788249
H110	H	0.954351	-0.293363	-0.797924
H111	H	0.861980	-0.282636	-0.808315
C112	C	0.831679	-0.384409	-0.812628
C113	C	0.895858	-0.363384	-0.824511
H114	H	0.827826	-0.417039	-0.834998
H115	H	0.825421	-0.389252	-0.765485
H116	H	0.798253	-0.361197	-0.829350
H117	H	0.929282	-0.386593	-0.807782
H118	H	0.902121	-0.358546	-0.871653
O119	O	1.063311	-0.446557	-0.411515
C120	C	1.101515	-0.482316	-0.449753
H121	H	1.073802	-0.521256	-0.452077
H122	H	1.152938	-0.488105	-0.425019
C123	C	1.145257	-0.413130	-0.518942
C124	C	1.111216	-0.460955	-0.521801
H125	H	1.151244	-0.399953	-0.563383
H126	H	1.119521	-0.389038	-0.493179
H127	H	1.188106	-0.417960	-0.498327
H128	H	1.068365	-0.456123	-0.542408
H129	H	1.136946	-0.485046	-0.547569
H130	H	0.899605	-0.312379	-1.068383
H131	H	0.899592	-0.312406	-0.940149
H132	H	0.364736	-0.191275	-0.404794
O133	O	0.725922	-0.317616	-0.240496
C134	C	0.766823	-0.287807	-0.196857
H135	H	0.745546	-0.246626	-0.192773
H136	H	0.820406	-0.286021	-0.217784
C137	C	0.793994	-0.363866	-0.131450
C138	C	0.767858	-0.313288	-0.126430
H139	H	0.794636	-0.379585	-0.088008
H140	H	0.766441	-0.383950	-0.160851
H141	H	0.838644	-0.362371	-0.148892
H142	H	0.723207	-0.314784	-0.108996
H143	H	0.795405	-0.293205	-0.097023
H144	H	0.899531	-0.312456	-0.584380
O145	O	0.586645	-0.317708	-0.240514
C146	C	0.632962	-0.347186	-0.202241
H147	H	0.683364	-0.325765	-0.199950
H148	H	0.640463	-0.386920	-0.226924
C149	C	0.543434	-0.380956	-0.133001
C150	C	0.605337	-0.354644	-0.130182
H151	H	0.526393	-0.385559	-0.088552
H152	H	0.512229	-0.361098	-0.158787
H153	H	0.549693	-0.414065	-0.153573
H154	H	0.599076	-0.321533	-0.109618
H155	H	0.636541	-0.374497	-0.104390
H156	H	1.056527	-0.549829	-0.404685
H157	H	1.056692	-0.953124	-0.404772
O158	O	0.586815	-0.186008	-0.411641
C159	C	0.633208	-0.156524	-0.449904
H160	H	0.683582	-0.177940	-0.452187
H161	H	0.640742	-0.116789	-0.425218
C162	C	0.543789	-0.122761	-0.519159
C163	C	0.605658	-0.149066	-0.521968
H164	H	0.526794	-0.118158	-0.563611
H165	H	0.512532	-0.142623	-0.493379
H166	H	0.550076	-0.089651	-0.498584
H167	H	0.599368	-0.182177	-0.542535
H168	H	0.636912	-0.129209	-0.547754
O169	O	1.063507	-0.185790	-0.718194
C170	C	1.048747	-0.133684	-0.700948
H171	H	1.022718	-0.132613	-0.649621
H172	H	1.013972	-0.116060	-0.740732
C173	C	1.146728	-0.103333	-0.760743
C174	C	1.114764	-0.102018	-0.697699
H175	H	1.187450	-0.083799	-0.758742
H176	H	1.156672	-0.138438	-0.772364
H177	H	1.117743	-0.088648	-0.793890
H178	H	1.143746	-0.116710	-0.664555
H179	H	1.104827	-0.066915	-0.686073
H180	H	0.720507	-0.191267	-0.404746
O181	O	0.892888	-0.949134	-0.240675
C182	C	0.854715	-0.984996	-0.202455
H183	H	0.882461	-1.023899	-0.200153
H184	H	0.803297	-0.990827	-0.227192
C185	C	0.810916	-0.915962	-0.133229
C186	C	0.844997	-0.963742	-0.130396
H187	H	0.804918	-0.902851	-0.088781
H188	H	0.836632	-0.891800	-0.158980
H189	H	0.768071	-0.920827	-0.153846
H190	H	0.887844	-0.958875	-0.109787
H191	H	0.819288	-0.987903	-0.104641
O192	O	1.106666	-0.697677	-0.454913
C193	C	1.144867	-0.733441	-0.493146
H194	H	1.117152	-0.772380	-0.495463
H195	H	1.196290	-0.739229	-0.468411
C196	C	1.188613	-0.664262	-0.562345
C197	C	1.154569	-0.712087	-0.565196
H198	H	1.194601	-0.651090	-0.606789
H199	H	1.162878	-0.640167	-0.536586
H200	H	1.231461	-0.669092	-0.541730
H201	H	1.111718	-0.707255	-0.585804
H202	H	1.180297	-0.736181	-0.590961
H203	H	1.056725	-1.052190	-0.404791
H204	H	1.056720	-0.191144	-0.584476
H205	H	1.099884	-0.800944	-0.448069
O206	O	1.063587	-0.185778	-0.934787
C207	C	1.101836	-0.156266	-0.981162
H208	H	1.074123	-0.154447	-1.031546
H209	H	1.153228	-0.175412	-0.988679
C210	C	1.145669	-0.102860	-0.891722
C211	C	1.111629	-0.100622	-0.953603
H212	H	1.151713	-0.068536	-0.874722
H213	H	1.119903	-0.122743	-0.860477
H214	H	1.188492	-0.118817	-0.897995
H215	H	1.068804	-0.084671	-0.947328
H216	H	1.137389	-0.080734	-0.984846
O217	O	0.849464	-0.697901	-0.197472
C218	C	0.805725	-0.666312	-0.235957
H219	H	0.801521	-0.682734	-0.289267
H220	H	0.826634	-0.624912	-0.238295
C221	C	0.740542	-0.645373	-0.137350
C222	C	0.735375	-0.665547	-0.202825
H223	H	0.697148	-0.644899	-0.116912
H224	H	0.770011	-0.666654	-0.111421
H225	H	0.757969	-0.610876	-0.139308
H226	H	0.717956	-0.700046	-0.200866
H227	H	0.705901	-0.644272	-0.228753
H228	H	0.899555	-0.550049	-0.247446
H229	H	0.899756	-1.052386	-0.247563
H230	H	0.899520	-0.450983	-0.247426
H231	H	1.056781	-0.191057	-1.068481
