data_functionalizedCrystal
_audit_creation_method	'MofGen! by Chris Wilmer'
_symmetry_space_group_name_H-M	'P1'
_symmetry_Int_Tables_number	1
_symmetry_cell_setting	triclinic
loop_
_symmetry_equiv_pos_as_xyz
  x,y,z
_cell_length_a	19.077105
_cell_length_b	18.050589
_cell_length_c	19.077314
_cell_angle_alpha	87.678811
_cell_angle_beta	89.892247
_cell_angle_gamma	87.724731
loop_
_atom_site_label
_atom_site_type_symbol
_atom_site_fract_x
_atom_site_fract_y
_atom_site_fract_z
Zn1	Zn	1.058259	-0.321949	-0.440443
Zn2	Zn	1.062888	-0.451316	-0.322942
Zn3	Zn	0.945474	-0.322359	-0.318235
Zn4	Zn	0.940713	-0.441311	-0.435696
O5	O	1.001834	-0.384234	-0.379329
O6	O	1.157205	-0.343125	-0.428814
O7	O	1.051243	-0.438569	-0.223985
O8	O	0.960491	-0.218381	-0.334463
O9	O	1.160606	-0.438171	-0.342486
O10	O	1.043353	-0.218080	-0.424249
O11	O	0.964979	-0.343824	-0.220527
O12	O	0.846511	-0.334122	-0.329860
O13	O	0.952376	-0.421119	-0.534658
O14	O	0.843013	-0.421516	-0.416158
O15	O	1.038736	-0.333424	-0.538146
O16	O	1.046626	-0.553912	-0.337882
O17	O	0.956864	-0.546562	-0.420722
C18	C	0.819266	-0.376779	-0.371983
C19	C	0.741162	-0.373607	-0.368857
C20	C	0.702668	-0.417692	-0.412249
C21	C	0.629281	-0.414702	-0.409315
C22	C	0.594389	-0.367629	-0.362985
C23	C	0.632887	-0.323538	-0.319592
C24	C	0.706273	-0.326525	-0.322530
C25	C	0.375102	-0.353804	-0.349392
C26	C	0.301711	-0.350822	-0.346456
C27	C	0.298110	-0.441985	-0.436180
C28	C	0.371497	-0.444971	-0.439111
C29	C	0.409989	-0.400878	-0.395720
N30	N	0.519375	-0.364573	-0.359984
N31	N	0.485001	-0.403931	-0.398725
C32	C	1.001749	-0.577183	-0.379314
C33	C	1.001776	-0.659729	-0.379334
C34	C	0.953011	-0.855212	-0.424367
C35	C	0.938459	-0.906779	-0.359560
C36	C	1.001845	-0.810862	-0.379346
C37	C	1.016431	-0.906378	-0.444162
C38	C	1.001910	-0.956849	-0.379363
C39	C	0.987261	-0.861342	-0.314503
C40	C	1.065261	-0.860935	-0.399149
C41	C	1.050735	-0.912483	-0.334299
C42	C	1.001806	-0.726762	-0.379337
C43	C	1.001949	-1.040947	-0.379365
C44	C	1.185114	-0.391718	-0.386704
C45	C	1.263218	-0.394908	-0.389847
C46	C	0.994509	-0.376110	-0.562612
C47	C	0.991387	-0.372648	-0.640716
C48	C	1.001937	-0.190531	-0.379360
C49	C	1.001981	-0.107987	-0.379374
C50	C	1.034830	-0.420347	-0.679213
C51	C	1.031897	-0.417085	-0.752600
C52	C	0.985517	-0.366127	-0.787489
C53	C	0.942072	-0.318422	-0.748987
C54	C	0.945009	-0.321681	-0.675601
C55	C	0.971920	-0.351087	-1.006775
C56	C	0.968985	-0.347833	-1.080166
C57	C	1.058811	-0.446496	-1.083774
C58	C	1.061741	-0.449753	-1.010387
C59	C	1.018299	-0.402046	-0.971891
N60	N	0.982516	-0.362793	-0.862502
N61	N	1.021304	-0.405377	-0.896879
C62	C	1.009170	-0.392274	-0.196761
C63	C	1.012428	-0.395533	-0.118663
H64	H	0.597943	-0.450602	-0.444648
F65	F	0.257139	-0.488911	-0.482355
F66	F	0.892715	-0.264185	-0.786120
F67	F	0.595750	-0.273434	-0.270289
H68	H	1.094180	-0.485335	-1.115125
F69	F	1.135301	-0.834512	-0.421063
H70	H	0.884861	-0.926994	-0.342824
H71	H	1.028742	-0.926230	-0.498970
H72	H	0.737614	-0.290622	-0.287199
H73	H	0.936544	-0.312244	-0.975441
H74	H	1.067273	-0.455927	-0.783941
F75	F	0.264578	-0.300723	-0.297139
H76	H	0.931219	-0.306331	-1.108570
H77	H	0.406434	-0.317906	-0.314054
H78	H	0.974888	-0.841577	-0.259678
F79	F	0.898961	-0.822512	-0.474057
H80	H	1.072600	-0.461841	-0.650812
H81	H	1.099497	-0.491260	-0.981985
H82	H	0.909636	-0.282837	-0.644258
H83	H	0.731072	-0.456027	-0.449973
F84	F	0.408627	-0.495075	-0.488419
H85	H	1.092063	-0.937365	-0.296187
