data_functionalizedCrystal
_audit_creation_method	'MofGen! by Chris Wilmer'
_symmetry_space_group_name_H-M	'P1'
_symmetry_Int_Tables_number	1
_symmetry_cell_setting	triclinic
loop_
_symmetry_equiv_pos_as_xyz
  x,y,z
_cell_length_a	16.625548
_cell_length_b	12.594516
_cell_length_c	16.625539
_cell_angle_alpha	89.978538
_cell_angle_beta	89.982945
_cell_angle_gamma	90.017121
loop_
_atom_site_label
_atom_site_type_symbol
_atom_site_fract_x
_atom_site_fract_y
_atom_site_fract_z
Zn1	Zn	1.232688	-0.423729	-0.455937
Zn2	Zn	1.566022	-0.090396	-0.122604
Zn3	Zn	1.899355	0.242937	0.210729
Zn4	Zn	1.232615	-0.601725	-0.321116
Zn5	Zn	1.565948	-0.268392	0.012217
Zn6	Zn	1.899282	0.064942	0.345550
Zn7	Zn	1.097859	-0.423764	-0.321118
Zn8	Zn	1.431192	-0.090431	0.012216
Zn9	Zn	1.764525	0.242902	0.345549
Zn10	Zn	1.097836	-0.601670	-0.455906
Zn11	Zn	1.431169	-0.268336	-0.122573
Zn12	Zn	1.764502	0.064997	0.210761
O13	O	1.165249	-0.512722	-0.388519
O14	O	1.498583	-0.179389	-0.055186
O15	O	1.831916	0.153945	0.278147
O16	O	1.345511	-0.447350	-0.438065
O17	O	1.678844	-0.114016	-0.104732
O18	O	2.012178	0.219317	0.228601
O19	O	1.214718	-0.578156	-0.208284
O20	O	1.548051	-0.244822	0.125049
O21	O	1.881385	0.088511	0.458383
O22	O	1.115784	-0.274814	-0.339016
O23	O	1.449118	0.058520	-0.005682
O24	O	1.782451	0.391853	0.327651
O25	O	1.345457	-0.578122	-0.339013
O26	O	1.678790	-0.244789	-0.005680
O27	O	2.012124	0.088545	0.327654
O28	O	1.214843	-0.274788	-0.438067
O29	O	1.548177	0.058545	-0.104734
O30	O	1.881510	0.391878	0.228600
O31	O	1.115713	-0.447409	-0.208285
O32	O	1.449046	-0.114075	0.125048
O33	O	1.782380	0.219258	0.458382
O34	O	0.985023	-0.447355	-0.338985
O35	O	1.318356	-0.114022	-0.005652
O36	O	1.651690	0.219312	0.327681
O37	O	1.115745	-0.578028	-0.568743
O38	O	1.449079	-0.244694	-0.235409
O39	O	1.782412	0.088639	0.097924
O40	O	0.985006	-0.578062	-0.438014
O41	O	1.318340	-0.244728	-0.104680
O42	O	1.651673	0.088605	0.228653
O43	O	1.214821	-0.447296	-0.568766
O44	O	1.548154	-0.113963	-0.235432
O45	O	1.881488	0.219371	0.097901
O46	O	1.214696	-0.750663	-0.338983
O47	O	1.548029	-0.417330	-0.005649
O48	O	1.881363	-0.083997	0.327684
O49	O	1.115674	-0.750623	-0.438012
O50	O	1.449008	-0.417289	-0.104679
O51	O	1.782341	-0.083956	0.228655
C52	C	0.955759	-0.512707	-0.388497
C53	C	1.289092	-0.179374	-0.055163
C54	C	1.622425	0.153960	0.278170
C55	C	0.866137	-0.512726	-0.388506
C56	C	1.199471	-0.179393	-0.055173
C57	C	1.532804	0.153941	0.278160
C58	C	0.537962	-0.512733	-0.388541
C59	C	0.871295	-0.179400	-0.055207
C60	C	1.204629	0.153934	0.278126
C61	C	0.629270	-0.512728	-0.388529
C62	C	0.962604	-0.179395	-0.055195
C63	C	1.295937	0.153939	0.278138
C64	C	0.702047	-0.512730	-0.388523
C65	C	1.035380	-0.179397	-0.055190
C66	C	1.368713	0.153937	0.278144
C67	C	0.793361	-0.512724	-0.388512
C68	C	1.126694	-0.179391	-0.055179
C69	C	1.460028	0.153943	0.278155
C70	C	1.165197	-0.789263	-0.388511
C71	C	1.498530	-0.455930	-0.055178
C72	C	1.831863	-0.122596	0.278155
C73	C	1.165248	-0.907568	-0.388535
C74	C	1.498581	-0.574235	-0.055202
C75	C	1.831914	-0.240902	0.278132
C76	C	1.111385	-0.976838	-0.442359
C77	C	1.444718	-0.643505	-0.109026
C78	C	1.778051	-0.310172	0.224307
C79	C	1.091744	-1.047696	-0.368785
C80	C	1.425077	-0.714363	-0.035451
C81	C	1.758411	-0.381029	0.297882
C82	C	1.184962	-1.047510	-0.462122
C83	C	1.518295	-0.714176	-0.128789
C84	C	1.851628	-0.380843	0.204545
C85	C	1.145568	-0.976868	-0.314921
C86	C	1.478902	-0.643535	0.018412
C87	C	1.812235	-0.310201	0.351745
C88	C	1.238820	-0.976675	-0.408308
C89	C	1.572154	-0.643342	-0.074975
C90	C	1.905487	-0.310009	0.258358
C91	C	1.219208	-1.047501	-0.334683
C92	C	1.552541	-0.714168	-0.001350
C93	C	1.885874	-0.380835	0.331983
C94	C	1.375558	-0.512738	-0.388542
C95	C	1.708892	-0.179405	-0.055209
C96	C	2.042225	0.153929	0.278124
C97	C	1.465179	-0.512745	-0.388552
C98	C	1.798513	-0.179412	-0.055219
C99	C	2.131846	0.153922	0.278114
C100	C	1.165289	-0.512652	-0.598828
C101	C	1.498622	-0.179318	-0.265495
C102	C	1.831956	0.154015	0.067838
C103	C	1.165306	-0.512622	-0.688449
C104	C	1.498639	-0.179289	-0.355116
C105	C	1.831972	0.154045	-0.021783
C106	C	1.165324	-0.235101	-0.388545
C107	C	1.498658	0.098232	-0.055212
C108	C	1.831991	0.431565	0.278122
C109	C	1.165356	-0.116796	-0.388556
C110	C	1.498690	0.216538	-0.055222
C111	C	1.832023	0.549871	0.278111
C112	C	1.165319	-0.512598	-0.761232
C113	C	1.498652	-0.179265	-0.427899
C114	C	1.831986	0.154068	-0.094565
C115	C	1.165338	-0.512559	-0.852540
C116	C	1.498671	-0.179225	-0.519207
C117	C	1.832004	0.154108	-0.185874
C118	C	1.165357	-0.512521	-0.925317
C119	C	1.498690	-0.179188	-0.591984
C120	C	1.832023	0.154145	-0.258650
C121	C	1.165377	-0.512483	-1.016631
C122	C	1.498710	-0.179149	-0.683298
C123	C	1.832044	0.154184	-0.349965
C124	C	1.165256	-0.512715	-0.179028
C125	C	1.498590	-0.179382	0.154305
C126	C	1.831923	0.153951	0.487638
C127	C	1.165396	-0.512445	-0.089408
C128	C	1.498729	-0.179112	0.243926
C129	C	1.832063	0.154221	0.577259
H130	H	1.065753	-0.945810	-0.487811
H131	H	1.399086	-0.612476	-0.154477
H132	H	1.732420	-0.279143	0.178856
F133	F	1.206698	-1.088073	-0.543451
F134	F	1.540031	-0.754739	-0.210118
F135	F	1.873365	-0.421406	0.123216
F136	F	1.010482	-1.088468	-0.346928
F137	F	1.343815	-0.755135	-0.013594
F138	F	1.677148	-0.421802	0.319739
H139	H	1.128866	-0.945966	-0.252681
H140	H	1.462200	-0.612633	0.080652
H141	H	1.795533	-0.279300	0.413986
F142	F	1.320061	-0.935871	-0.430192
F143	F	1.653394	-0.602538	-0.096859
F144	F	1.986727	-0.269204	0.236475
F145	F	1.278808	-1.087802	-0.275134
F146	F	1.612141	-0.754468	0.058199
F147	F	1.945475	-0.421135	0.391532
