data_functionalizedCrystal
_audit_creation_method	'MofGen! by Chris Wilmer'
_symmetry_space_group_name_H-M	'P1'
_symmetry_Int_Tables_number	1
_symmetry_cell_setting	triclinic
loop_
_symmetry_equiv_pos_as_xyz
  x,y,z
_cell_length_a	15.944493
_cell_length_b	15.944493
_cell_length_c	8.965430
_cell_angle_alpha	90.006294
_cell_angle_beta	89.996758
_cell_angle_gamma	83.475044
loop_
_atom_site_label
_atom_site_type_symbol
_atom_site_fract_x
_atom_site_fract_y
_atom_site_fract_z
O1	O	1.114532	0.108097	-0.124000
O2	O	0.869973	0.121504	-0.124005
O3	O	0.998956	-0.007479	-0.124015
O4	O	0.985549	0.237080	-0.123990
O5	O	0.998945	-0.007470	0.124064
O6	O	0.869962	0.121513	0.124074
O7	O	1.114521	0.108105	0.124079
Cu8	Cu	0.992240	0.114810	0.146728
Cu9	Cu	0.992253	0.114800	-0.146654
O10	O	0.985538	0.237089	0.124089
C11	C	0.838673	0.120961	0.000034
C12	C	0.745424	0.119318	0.000031
C13	C	0.509649	0.195240	0.000037
C14	C	0.459094	0.154302	0.122356
C15	C	0.574704	0.116273	0.000033
C16	C	0.459109	0.154275	-0.122231
C17	C	0.409795	0.113339	0.000029
C18	C	0.525377	0.075357	0.122453
C19	C	0.525396	0.075341	-0.122244
C20	C	0.474873	0.034346	0.000104
C21	C	0.669704	0.117966	0.000037
C22	C	0.314798	0.111640	0.000037
C23	C	0.998403	-0.038769	0.000018
C24	C	0.996760	-0.132018	-0.000001
C25	C	1.072682	-0.367793	0.000029
C26	C	1.031745	-0.418357	-0.122287
C27	C	0.993716	-0.302738	0.000018
C28	C	1.031716	-0.418325	0.122300
C29	C	0.990781	-0.467647	0.000042
C30	C	0.952800	-0.352074	-0.122399
C31	C	0.952783	-0.352038	0.122297
C32	C	0.911788	-0.402569	-0.000049
C33	C	0.995408	-0.207739	0.000003
C34	C	0.989082	-0.562644	0.000046
C35	C	1.145821	0.108649	0.000037
C36	C	1.239069	0.110292	0.000030
C37	C	0.986091	0.268379	0.000053
C38	C	0.987734	0.361627	0.000062
N39	N	0.992238	0.114816	0.353077
N40	N	0.992263	0.114786	-0.353003
C41	C	0.932569	0.174447	0.450388
C42	C	1.008472	0.190735	0.549805
C43	C	0.916367	0.098536	0.549787
C44	C	1.068179	0.131142	0.450306
C45	C	0.976024	0.038910	0.450279
C46	C	1.051981	0.055165	0.549652
H47	H	0.554353	0.042014	-0.225665
C48	C	0.864470	0.242628	0.391486
H49	H	0.876142	0.296517	0.425565
H50	H	0.810671	0.231605	0.427006
H51	H	0.864600	0.241835	0.285532
C52	C	0.419977	0.199352	0.262056
H53	H	0.392258	0.160751	0.319644
H54	H	0.380315	0.245371	0.232662
H55	H	0.463234	0.219717	0.320061
H56	H	1.102507	0.004721	0.592963
C57	C	1.076774	-0.457410	0.261993
H58	H	1.038181	-0.485133	0.319597
H59	H	1.097143	-0.414147	0.319971
H60	H	1.122794	-0.497080	0.232577
H61	H	1.132366	0.144976	0.406792
C62	C	1.076800	-0.457483	-0.261975
H63	H	1.133930	-0.445850	-0.261828
H64	H	1.049316	-0.433918	-0.348837
H65	H	1.074966	-0.516828	-0.261414
H66	H	1.022203	0.254915	0.593521
H67	H	0.962269	-0.025249	0.406529
H68	H	0.852194	0.084779	0.593489
H69	H	0.430168	0.187637	-0.225627
C70	C	1.164566	-0.346692	-0.000121
H71	H	1.174414	-0.315186	0.086830
H72	H	1.174045	-0.314335	-0.086199
H73	H	1.201925	-0.397543	-0.001063
C74	C	0.530752	0.287123	0.000205
H75	H	0.507931	0.315058	0.087229
H76	H	0.507071	0.315442	-0.085800
H77	H	0.590282	0.287550	-0.000677
C78	C	0.564316	0.030348	0.262301
H79	H	0.623728	0.031710	0.261476
H80	H	0.552210	-0.026627	0.262652
H81	H	0.541041	0.058209	0.349059
H82	H	0.459422	-0.033727	0.000168
H83	H	0.919475	-0.323250	-0.225918
C84	C	0.819833	-0.423452	-0.000138
H85	H	0.791918	-0.400546	-0.087104
H86	H	0.791586	-0.399738	0.085926
H87	H	0.819267	-0.482965	0.000677
C88	C	0.907769	-0.312892	0.261995
H89	H	0.935915	-0.335688	0.348825
H90	H	0.850925	-0.325399	0.262876
H91	H	0.908715	-0.253431	0.260488
