data_functionalizedCrystal
_audit_creation_method	'MofGen! by Chris Wilmer'
_symmetry_space_group_name_H-M	'P1'
_symmetry_Int_Tables_number	1
_symmetry_cell_setting	triclinic
loop_
_symmetry_equiv_pos_as_xyz
  x,y,z
_cell_length_a	17.639617
_cell_length_b	17.640280
_cell_length_c	18.215399
_cell_angle_alpha	78.775397
_cell_angle_beta	78.758603
_cell_angle_gamma	87.821186
loop_
_atom_site_label
_atom_site_type_symbol
_atom_site_fract_x
_atom_site_fract_y
_atom_site_fract_z
Zn1	Zn	1.222276	-0.067953	-0.633802
Zn2	Zn	1.722276	0.432047	-0.133802
Zn3	Zn	1.247886	-0.194961	-0.491688
Zn4	Zn	1.747886	0.305039	0.008312
Zn5	Zn	1.095275	-0.093613	-0.481979
Zn6	Zn	1.595275	0.406387	0.018021
Zn7	Zn	1.120930	-0.220542	-0.585967
Zn8	Zn	1.620930	0.279458	-0.085967
O9	O	1.171592	-0.144267	-0.548359
O10	O	1.671592	0.355733	-0.048359
O11	O	1.331956	-0.063356	-0.639033
O12	O	1.831956	0.436644	-0.139033
O13	O	1.227623	-0.181550	-0.387406
O14	O	1.727623	0.318450	0.112594
O15	O	1.090667	0.016064	-0.518075
O16	O	1.590667	0.516064	-0.018075
O17	O	1.350771	-0.156668	-0.534622
O18	O	1.850771	0.343332	-0.034622
O19	O	1.183975	0.034917	-0.629619
O20	O	1.683975	0.534917	-0.129619
O21	O	1.115500	-0.107090	-0.380273
O22	O	1.615500	0.392910	0.119727
O23	O	0.992396	-0.131895	-0.471691
O24	O	1.492396	0.368105	0.028309
O25	O	1.134393	-0.200268	-0.695306
O26	O	1.634393	0.299732	-0.195306
O27	O	1.011245	-0.225150	-0.548090
O28	O	1.511245	0.274850	-0.048090
O29	O	1.208852	-0.088161	-0.730451
O30	O	1.708852	0.411839	-0.230451
O31	O	1.252500	-0.304628	-0.488238
O32	O	1.752500	0.195372	0.011762
O33	O	1.159226	-0.323422	-0.557504
O34	O	1.659226	0.176578	-0.057504
C35	C	0.974263	-0.184083	-0.503646
C36	C	1.474263	0.315917	-0.003646
C37	C	0.889848	-0.201135	-0.484533
C38	C	1.389848	0.298865	0.015467
C39	C	0.563292	-0.014711	-0.693747
C40	C	1.063292	0.485289	-0.193747
C41	C	0.483975	-0.030753	-0.675769
C42	C	0.983975	0.469247	-0.175769
C43	C	0.503557	-0.127758	-0.566935
C44	C	1.003557	0.372242	-0.066935
C45	C	0.582878	-0.111727	-0.584906
C46	C	1.082878	0.388273	-0.084906
C47	C	0.612738	-0.055202	-0.648313
C48	C	1.112738	0.444798	-0.148313
C49	C	0.632324	-0.152218	-0.539472
C50	C	1.132324	0.347782	-0.039472
C51	C	0.711637	-0.136185	-0.557439
C52	C	1.211637	0.363815	-0.057439
C53	C	0.741503	-0.079661	-0.620841
C54	C	1.241503	0.420339	-0.120841
C55	C	0.692051	-0.039169	-0.666280
C56	C	1.192051	0.460831	-0.166280
C57	C	0.602461	-0.208738	-0.476063
C58	C	1.102461	0.291262	0.023937
C59	C	0.651907	-0.249229	-0.430628
C60	C	1.151907	0.250771	0.069372
C61	C	0.731222	-0.233201	-0.448598
C62	C	1.231222	0.266799	0.051402
C63	C	0.761089	-0.176677	-0.512000
C64	C	1.261089	0.323323	-0.012000
C65	C	0.780674	-0.273693	-0.403159
C66	C	1.280674	0.226307	0.096841
C67	C	0.859987	-0.257660	-0.421127
C68	C	1.359987	0.242340	0.078873
C69	C	0.840402	-0.160644	-0.529968
C70	C	1.340402	0.339356	-0.029968
C71	C	1.211446	-0.341577	-0.518755
C72	C	1.711446	0.158423	-0.018755
C73	C	1.228566	-0.425972	-0.506130
C74	C	1.728566	0.074028	-0.006130
C75	C	1.041849	-0.752645	-0.644604
C76	C	1.541849	-0.252645	-0.144604
C77	C	1.057937	-0.831947	-0.632719
C78	C	1.557937	-0.331947	-0.132719
C79	C	1.155123	-0.812299	-0.560701
C80	C	1.655123	-0.312299	-0.060701
C81	C	1.139046	-0.732993	-0.572584
C82	C	1.639046	-0.232993	-0.072584
C83	C	1.082408	-0.703172	-0.614535
C84	C	1.582408	-0.203172	-0.114535
C85	C	1.179605	-0.683520	-0.542515
C86	C	1.679605	-0.183520	-0.042515
C87	C	1.163526	-0.604222	-0.554393
C88	C	1.663526	-0.104222	-0.054393
C89	C	1.106889	-0.574395	-0.596341
C90	C	1.606889	-0.074395	-0.096341
C91	C	1.066329	-0.623874	-0.626414
C92	C	1.566329	-0.123874	-0.126414
C93	C	1.236239	-0.713343	-0.500559
C94	C	1.736239	-0.213343	-0.000559
C95	C	1.276798	-0.663871	-0.470490
C96	C	1.776798	-0.163871	0.029510
C97	C	1.260723	-0.584570	-0.482373
C98	C	1.760723	-0.084570	0.017627
C99	C	1.204086	-0.554743	-0.524321
C100	C	1.704086	-0.054743	-0.024321
C101	C	1.301283	-0.535091	-0.452300
C102	C	1.801283	-0.035091	0.047700
C103	C	1.285204	-0.455793	-0.464179
C104	C	1.785204	0.044207	0.035821
C105	C	1.188007	-0.475445	-0.536199
C106	C	1.688007	0.024555	-0.036199
C107	C	1.369692	-0.104296	-0.593247
C108	C	1.869692	0.395704	-0.093247
C109	C	1.454110	-0.087263	-0.612375
C110	C	1.954110	0.412737	-0.112375
C111	C	1.171627	-0.144206	-0.740330
C112	C	1.671627	0.355794	-0.240330
C113	C	1.171643	-0.144179	-0.822137
C114	C	1.671643	0.355821	-0.322137
C115	C	1.131602	0.053817	-0.578100
C116	C	1.631602	0.553817	-0.078100
C117	C	1.114561	0.138228	-0.590774
C118	C	1.614561	0.638228	-0.090774
C119	C	1.210422	-0.085757	-1.028643
C120	C	1.710422	0.414243	-0.528643
C121	C	1.210426	-0.085733	-1.105507
C122	C	1.710426	0.414267	-0.605507
C123	C	1.132894	-0.202474	-1.068899
C124	C	1.632894	0.297526	-0.568899
C125	C	1.132885	-0.202494	-0.992036
C126	C	1.632885	0.297506	-0.492036
C127	C	1.171653	-0.144136	-0.971911
C128	C	1.671653	0.355864	-0.471911
C129	C	1.171667	-0.144092	-1.125638
C130	C	1.671667	0.355908	-0.625638
C131	C	1.171671	-0.144066	-1.208977
C132	C	1.671671	0.355934	-0.708977
C133	C	1.171648	-0.144160	-0.888566
C134	C	1.671648	0.355840	-0.388566
C135	C	1.171589	-0.144265	-0.357153
C136	C	1.671589	0.355735	0.142847
C137	C	1.171678	-0.144048	-0.275412
C138	C	1.671678	0.355952	0.224588
H139	H	0.716365	0.006856	-0.717914
H140	H	1.216365	0.506856	-0.217914
H141	H	1.241994	-0.038193	-1.151697
H142	H	1.741994	0.461807	-0.651697
H143	H	1.020213	-0.599592	-0.660582
H144	H	1.520213	-0.099592	-0.160582
H145	H	0.756348	-0.319709	-0.351530
H146	H	1.256348	0.180291	0.148470
H147	H	0.864716	-0.114619	-0.581602
H148	H	1.364716	0.385381	-0.081602
O149	O	0.474529	-0.182752	-0.505432
O150	O	0.974529	0.317248	-0.005432
C151	C	0.438578	-0.241111	-0.529501
C152	C	0.938578	0.258889	-0.029501
H153	H	0.463464	-0.241038	-0.592161
H154	H	0.963464	0.258962	-0.092161
H155	H	0.449480	-0.299703	-0.493830
H156	H	0.949480	0.200297	0.006170
H157	H	0.373722	-0.229784	-0.521976
H158	H	0.873722	0.270216	-0.021976
H159	H	1.101332	-0.249989	-1.085295
H160	H	1.601332	0.250011	-0.585295
H161	H	0.995734	-0.728363	-0.678772
H162	H	1.495734	-0.228363	-0.178772
H163	H	1.024914	-0.872224	-0.657218
H164	H	1.524914	-0.372224	-0.157218
O165	O	1.095235	-0.259132	-0.936823
O166	O	1.595235	0.240868	-0.436823
C167	C	1.103555	-0.246643	-0.864669
C168	C	1.603555	0.253357	-0.364669
H169	H	1.116595	-0.183018	-0.868615
H170	H	1.616595	0.316982	-0.368615
H171	H	1.047703	-0.263281	-0.821786
H172	H	1.547703	0.236719	-0.321786
H173	H	1.153094	-0.283532	-0.845259
H174	H	1.653094	0.216468	-0.345259
O175	O	0.592233	0.040137	-0.755423
O176	O	1.092233	0.540137	-0.255423
C177	C	0.576279	0.019516	-0.821858
C178	C	1.076279	0.519516	-0.321858
H179	H	0.524593	-0.021313	-0.805914
H180	H	1.024593	0.478687	-0.305914
H181	H	0.562512	0.073729	-0.862554
H182	H	1.062512	0.573729	-0.362554
H183	H	0.628829	-0.010543	-0.850827
H184	H	1.128829	0.489457	-0.350827
H185	H	0.537875	-0.221773	-0.461422
H186	H	1.037875	0.278227	0.038578
H187	H	0.443717	0.002228	-0.712770
H188	H	0.943717	0.502228	-0.212770
H189	H	0.627583	-0.295249	-0.379000
H190	H	1.127583	0.204751	0.121000
O191	O	0.818523	-0.063965	-0.638387
O192	O	1.318523	0.436035	-0.138387
C193	C	0.834277	-0.005408	-0.704104
C194	C	1.334277	0.494592	-0.204104
H195	H	0.779602	0.029706	-0.710776
H196	H	1.279602	0.529706	-0.210776
H197	H	0.881496	0.034162	-0.698290
H198	H	1.381496	0.534162	-0.198290
H199	H	0.854471	-0.032741	-0.756384
H200	H	1.354471	0.467259	-0.256384
O201	O	0.907922	-0.297091	-0.376936
O202	O	1.407922	0.202909	0.123064
C203	C	0.864558	-0.350408	-0.317112
C204	C	1.364558	0.149592	0.182888
H205	H	0.808569	-0.364503	-0.334042
H206	H	1.308569	0.135497	0.165958
H207	H	0.899572	-0.405597	-0.305393
H208	H	1.399572	0.094403	0.194607
H209	H	0.850467	-0.324241	-0.263526
H210	H	1.350467	0.175759	0.236474
O211	O	1.133051	-0.446540	-0.577059
O212	O	1.633051	0.053460	-0.077059
C213	C	1.153544	-0.462507	-0.651283
C214	C	1.653544	0.037493	-0.151283
H215	H	1.194400	-0.514173	-0.650823
H216	H	1.694400	-0.014173	-0.150823
H217	H	1.099270	-0.476301	-0.671416
H218	H	1.599270	0.023699	-0.171416
H219	H	1.183532	-0.409958	-0.691629
H220	H	1.683532	0.090042	-0.191629
H221	H	1.093793	-0.509826	-0.606006
H222	H	1.593793	-0.009826	-0.106006
H223	H	1.347393	-0.559385	-0.418137
H224	H	1.847393	-0.059385	0.081863
O225	O	1.210130	-0.841394	-0.519986
O226	O	1.710130	-0.341394	-0.019986
C227	C	1.215605	-0.921998	-0.515923
C228	C	1.715605	-0.421998	-0.015923
H229	H	1.192901	-0.937852	-0.565436
H230	H	1.692901	-0.437852	-0.065436
H231	H	1.278596	-0.940618	-0.519345
H232	H	1.778596	-0.440618	-0.019345
H233	H	1.179746	-0.952703	-0.459705
H234	H	1.679746	-0.452703	0.040295
H235	H	1.249331	-0.777913	-0.490891
H236	H	1.749331	-0.277913	0.009109
H237	H	1.322911	-0.688162	-0.436330
H238	H	1.822911	-0.188162	0.063670
H239	H	1.241987	-0.038236	-1.012260
H240	H	1.741987	0.461764	-0.512260
O241	O	1.324695	-0.407834	-0.434944
O242	O	1.824695	0.092166	0.065056
C243	C	1.378119	-0.451160	-0.395354
C244	C	1.878119	0.048840	0.104646
H245	H	1.392196	-0.507143	-0.417627
H246	H	1.892196	-0.007143	0.082373
H247	H	1.433305	-0.416122	-0.404547
H248	H	1.933305	0.083878	0.095453
H249	H	1.352058	-0.465251	-0.331874
H250	H	1.852058	0.034749	0.168126
