data_functionalizedCrystal
_audit_creation_method	'MofGen! by Chris Wilmer'
_symmetry_space_group_name_H-M	'P1'
_symmetry_Int_Tables_number	1
_symmetry_cell_setting	triclinic
loop_
_symmetry_equiv_pos_as_xyz
  x,y,z
_cell_length_a	19.077105
_cell_length_b	15.297327
_cell_length_c	19.077569
_cell_angle_alpha	97.767151
_cell_angle_beta	85.299277
_cell_angle_gamma	97.818066
loop_
_atom_site_label
_atom_site_type_symbol
_atom_site_fract_x
_atom_site_fract_y
_atom_site_fract_z
Zn1	Zn	1.043384	-0.387669	-0.492142
Zn2	Zn	1.543384	0.112331	0.007858
Zn3	Zn	1.018491	-0.542291	-0.394311
Zn4	Zn	1.518491	-0.042291	0.105689
Zn5	Zn	0.920764	-0.387681	-0.369539
Zn6	Zn	1.420764	0.112319	0.130461
Zn7	Zn	0.906887	-0.530739	-0.505932
Zn8	Zn	1.406887	-0.030739	-0.005932
O9	O	0.972382	-0.462095	-0.440481
O10	O	1.472382	0.037905	0.059519
O11	O	1.138105	-0.413009	-0.483760
O12	O	1.638105	0.086991	0.016240
O13	O	1.000917	-0.526622	-0.293001
O14	O	1.500917	-0.026622	0.206999
O15	O	0.953256	-0.263100	-0.369664
O16	O	1.453256	0.236900	0.130336
O17	O	1.119816	-0.526609	-0.411884
O18	O	1.619816	-0.026609	0.088116
O19	O	1.043344	-0.263090	-0.459740
O20	O	1.543344	0.236910	0.040260
O21	O	0.929118	-0.413031	-0.274802
O22	O	1.429118	0.086969	0.225198
O23	O	0.820900	-0.401829	-0.383036
O24	O	1.320900	0.098171	0.116964
O25	O	0.929604	-0.506920	-0.602126
O26	O	1.429604	-0.006920	-0.102126
O27	O	0.810705	-0.506933	-0.483243
O28	O	1.310705	-0.006933	0.016757
O29	O	1.029888	-0.401807	-0.591995
O30	O	1.529888	0.098193	-0.091995
O31	O	0.987461	-0.665339	-0.425256
O32	O	1.487461	-0.165339	0.074744
O33	O	0.905467	-0.656851	-0.507264
O34	O	1.405467	-0.156851	-0.007264
C35	C	0.790386	-0.453129	-0.431948
C36	C	1.290386	0.046871	0.068052
C37	C	0.712526	-0.449314	-0.428318
C38	C	1.212526	0.050686	0.071682
C39	C	0.942277	-0.693398	-0.470460
C40	C	1.442277	-0.193398	0.029540
C41	C	0.929463	-0.792352	-0.483312
C42	C	1.429463	-0.292352	0.016688
C43	C	0.670643	-0.502333	-0.478725
C44	C	1.170643	-0.002333	0.021275
C45	C	0.597486	-0.498737	-0.475315
C46	C	1.097486	0.001263	0.024685
C47	C	0.566214	-0.442126	-0.421495
C48	C	1.066214	0.057874	0.078505
C49	C	0.608103	-0.389101	-0.371085
C50	C	1.108103	0.110899	0.128915
C51	C	0.681259	-0.392693	-0.374498
C52	C	1.181259	0.107307	0.125502
C53	C	0.347991	-0.425500	-0.405701
C54	C	0.847991	0.074500	0.094299
C55	C	0.274829	-0.421913	-0.402290
C56	C	0.774829	0.078087	0.097710
C57	C	0.264218	-0.531549	-0.506522
C58	C	0.764218	-0.031549	-0.006522
C59	C	0.337375	-0.535140	-0.509928
C60	C	0.837375	-0.035140	-0.009928
C61	C	0.379258	-0.482112	-0.459520
C62	C	0.879258	0.017888	0.040480
N63	N	0.491436	-0.438450	-0.418007
N64	N	0.991436	0.061550	0.081993
N65	N	0.454036	-0.485783	-0.463012
N66	N	0.954036	0.014217	0.036988
C67	C	1.064265	-1.088839	-0.348880
C68	C	1.564265	-0.588839	0.151120
C69	C	1.076303	-0.995867	-0.336801
C70	C	1.576303	-0.495867	0.163199
C71	C	1.039595	-0.944984	-0.373428
C72	C	1.539595	-0.444984	0.126572
C73	C	0.990844	-0.987082	-0.422135
C74	C	1.490844	-0.487082	0.077865
C75	C	0.978800	-1.080063	-0.434211
C76	C	1.478800	-0.580063	0.065789
C77	C	0.954130	-0.936207	-0.458759
C78	C	1.454130	-0.436207	0.041241
C79	C	0.905380	-0.978305	-0.507466
C80	C	1.405380	-0.478305	-0.007466
C81	C	0.893339	-1.071278	-0.519540
C82	C	1.393339	-0.571278	-0.019540
C83	C	0.930047	-1.122161	-0.482913
C84	C	1.430047	-0.622161	0.017087
C85	C	0.966174	-0.843226	-0.446684
C86	C	1.466174	-0.343226	0.053316
C87	C	0.880710	-0.834450	-0.532015
C88	C	1.380710	-0.334450	-0.032015
C89	C	0.868671	-0.927422	-0.544093
C90	C	1.368671	-0.427422	-0.044093
C91	C	1.155088	-0.471096	-0.449047
C92	C	1.655088	0.028904	0.050953
C93	C	1.232946	-0.474932	-0.452698
C94	C	1.732946	0.025068	0.047302
C95	C	0.980975	-0.453074	-0.623187
C96	C	1.480975	0.046926	-0.123187
C97	C	0.984636	-0.449229	-0.701046
C98	C	1.484636	0.050771	-0.201046
C99	C	1.002624	-0.229889	-0.410401
C100	C	1.502624	0.270111	0.089599
C101	C	1.015512	-0.130937	-0.397582
C102	C	1.515512	0.369063	0.102418
C103	C	0.934146	-0.502146	-0.742900
C104	C	1.434146	-0.002146	-0.242900
C105	C	0.937592	-0.498534	-0.816057
C106	C	1.437592	0.001466	-0.316057
C107	C	0.991527	-0.442000	-0.847357
C108	C	1.491527	0.058000	-0.347357
C109	C	1.042022	-0.389082	-0.805498
C110	C	1.542022	0.110918	-0.305498
C111	C	1.038578	-0.392699	-0.732344
C112	C	1.538578	0.107301	-0.232344
C113	C	1.007429	-0.425318	-1.065581
C114	C	1.507429	0.074682	-0.565581
C115	C	1.010868	-0.421703	-1.138741
C116	C	1.510868	0.078297	-0.638741
C117	C	0.906438	-0.531157	-1.149294
C118	C	1.406438	-0.031157	-0.649294
C119	C	0.902997	-0.534765	-1.076137
C120	C	1.402997	-0.034765	-0.576137
C121	C	0.953494	-0.481850	-1.034285
C122	C	1.453494	0.018150	-0.534285
N123	N	0.995050	-0.438305	-0.922135
N124	N	1.495050	0.061695	-0.422135
N125	N	0.949974	-0.485551	-0.959509
N126	N	1.449974	0.014449	-0.459509
C127	C	0.963871	-0.471019	-0.258479
C128	C	1.463871	0.028981	0.241521
C129	C	0.960377	-0.474619	-0.180594
C130	C	1.460377	0.025381	0.319406
H131	H	0.696098	-0.548435	-0.522550
H132	H	1.196098	-0.048435	-0.022550
H133	H	1.079693	-0.349608	-0.698267
H134	H	1.579693	0.150392	-0.198267
Br135	Br	1.075960	-0.353502	-1.008790
Br136	Br	1.575960	0.146498	-0.508790
H137	H	1.049399	-0.869282	-0.363590
H138	H	1.549399	-0.369282	0.136410
Br139	Br	0.379811	-0.611977	-0.582970
Br140	Br	0.879811	-0.111977	-0.082970
H141	H	0.896479	-0.541625	-0.850131
H142	H	1.396479	-0.041625	-0.350131
Br143	Br	1.142467	-0.938740	-0.270708
Br144	Br	1.642467	-0.438740	0.229292
Br145	Br	0.207373	-0.603515	-0.574927
Br146	Br	0.707373	-0.103515	-0.074927
Br147	Br	0.232387	-0.345089	-0.329236
Br148	Br	0.732387	0.154911	0.170764
H149	H	0.382083	-0.382327	-0.364651
H150	H	0.882083	0.117673	0.135349
H151	H	0.865326	-0.574237	-1.183377
H152	H	1.365326	-0.074237	-0.683377
Br153	Br	1.114074	-1.157897	-0.299175
Br154	Br	1.614074	-0.657897	0.200825
H155	H	0.859087	-0.580815	-1.050660
H156	H	1.359087	-0.080815	-0.550660
Br157	Br	0.540647	-0.570692	-0.543730
Br158	Br	1.040647	-0.070692	-0.043730
H159	H	0.920250	-1.197867	-0.492747
H160	H	1.420250	-0.697867	0.007253
Br161	Br	0.565664	-0.312261	-0.298047
Br162	Br	1.065664	0.187739	0.201953
Br163	Br	0.802514	-0.984565	-0.610195
Br164	Br	1.302514	-0.484565	-0.110195
Br165	Br	1.115225	-0.312364	-0.847978
Br166	Br	1.615225	0.187636	-0.347978
Br167	Br	0.827173	-1.128409	-0.585637
Br168	Br	1.327173	-0.628409	-0.085637
Br169	Br	0.830880	-0.765402	-0.581718
Br170	Br	1.330880	-0.265402	-0.081718
H171	H	1.054786	-0.375658	-1.164222
H172	H	1.554786	0.124342	-0.664222
Br173	Br	0.738102	-0.320731	-0.306088
Br174	Br	1.238102	0.179269	0.193912
Br175	Br	1.032332	-0.786104	-0.380582
Br176	Br	1.532332	-0.286104	0.119418
H177	H	0.890220	-0.548171	-0.717419
H178	H	1.390220	-0.048171	-0.217419
