data_functionalizedCrystal
_audit_creation_method	'MofGen! by Chris Wilmer'
_symmetry_space_group_name_H-M	'P1'
_symmetry_Int_Tables_number	1
_symmetry_cell_setting	triclinic
loop_
_symmetry_equiv_pos_as_xyz
  x,y,z
_cell_length_a	10.540514
_cell_length_b	10.540539
_cell_length_c	9.616153
_cell_angle_alpha	89.999906
_cell_angle_beta	89.992599
_cell_angle_gamma	84.520326
loop_
_atom_site_label
_atom_site_type_symbol
_atom_site_fract_x
_atom_site_fract_y
_atom_site_fract_z
O1	O	1.685911	0.178743	-0.115656
O2	O	1.316494	0.195632	-0.115654
O3	O	1.509630	0.002480	-0.115653
O4	O	1.492774	0.371895	-0.115657
O5	O	1.509604	0.002484	0.115638
O6	O	1.316467	0.195636	0.115637
O7	O	1.685884	0.178747	0.115635
Zn8	Zn	1.501171	0.187192	0.152359
Zn9	Zn	1.501206	0.187187	-0.152378
O10	O	1.492748	0.371899	0.115635
C11	C	1.269177	0.194374	-0.000008
C12	C	1.128227	0.190605	-0.000008
C13	C	1.057522	0.328745	-0.000012
C14	C	0.910908	0.324871	-0.000544
C15	C	0.935905	0.115476	-0.131837
C16	C	1.082444	0.120329	-0.131941
C17	C	1.082816	0.118290	0.131090
C18	C	0.935837	0.116957	0.132816
C19	C	1.508353	-0.044821	-0.000010
C20	C	1.504571	-0.185769	-0.000018
C21	C	1.359652	-0.369182	-0.000536
C22	C	1.363486	-0.222564	-0.000016
C23	C	1.572452	-0.247430	0.132061
C24	C	1.567637	-0.393974	0.132172
C25	C	1.570537	-0.394497	-0.130850
C26	C	1.571836	-0.247515	-0.132596
C27	C	1.733201	0.180004	-0.000013
C28	C	1.874151	0.183774	-0.000023
C29	C	1.494025	0.419199	-0.000012
C30	C	1.497807	0.560147	-0.000013
N31	N	1.501157	0.187195	0.360333
N32	N	1.501231	0.187174	-0.360352
C33	C	1.397526	0.290172	0.580703
C34	C	1.397754	0.290557	0.419535
C35	C	1.633882	0.217316	0.418782
C36	C	1.633317	0.218045	0.580000
C37	C	1.473384	0.053759	0.580246
C38	C	1.470338	0.054624	0.419019
H39	H	0.869188	0.378357	-0.095591
H40	H	1.299136	0.272435	0.380021
C41	C	1.508866	-0.437107	-0.266087
H42	H	1.438176	-0.482960	-0.244016
H43	H	1.569633	-0.490343	-0.317660
H44	H	1.480707	-0.364292	-0.320002
H45	H	0.911652	0.014111	0.141168
C46	C	1.499820	-0.432066	0.265536
H47	H	1.475461	-0.358010	0.319133
H48	H	1.556005	-0.489125	0.318346
H49	H	1.426132	-0.472542	0.241399
H50	H	1.086050	0.384785	0.094499
H51	H	0.913591	0.011844	-0.136365
C52	C	0.880442	0.184366	0.264562
H53	H	0.918135	0.143513	0.344567
H54	H	0.790851	0.180131	0.267000
H55	H	0.898185	0.271047	0.263405
H56	H	1.110680	0.170209	-0.230851
H57	H	1.372698	0.031792	0.380820
C58	C	1.666208	0.349533	0.630792
H59	H	1.666159	0.351136	0.729572
H60	H	1.604585	0.413649	0.596693
H61	H	1.748190	0.364924	0.597456
H62	H	1.712937	0.144346	0.380430
C63	C	1.098351	0.403338	-0.127526
H64	H	1.158297	0.350659	-0.180765
H65	H	1.136183	0.476859	-0.097432
H66	H	1.025753	0.428492	-0.183072
C67	C	1.667519	0.347323	0.364232
H68	H	1.600860	0.383413	0.305854
H69	H	1.744668	0.336057	0.312702
H70	H	1.677753	0.402721	0.440498
C71	C	1.708194	-0.458316	-0.132065
H72	H	1.721333	-0.512346	-0.053272
H73	H	1.766119	-0.394636	-0.129169
H74	H	1.722043	-0.507367	-0.214496
H75	H	1.130451	0.018856	-0.137568
C76	C	1.508714	-0.189897	0.264844
H77	H	1.440746	-0.128315	0.240074
H78	H	1.569686	-0.150328	0.318286
H79	H	1.476357	-0.255564	0.318078
H80	H	1.540865	-0.025703	0.378725
H81	H	0.893309	0.162288	-0.230308
C82	C	1.146658	-0.019353	0.132822
H83	H	1.200733	-0.032736	0.054085
H84	H	1.082989	-0.077297	0.130127
H85	H	1.195666	-0.032931	0.215310
C86	C	1.125329	0.180417	0.266105
H87	H	1.171175	0.251049	0.243779
H88	H	1.178550	0.119832	0.317915
H89	H	1.052476	0.208733	0.319900
C90	C	1.291313	-0.164998	-0.127902
H91	H	1.259376	-0.231214	-0.180640
H92	H	1.347645	-0.121604	-0.183788
H93	H	1.222362	-0.106675	-0.098167
H94	H	1.303931	-0.397779	-0.095252
H95	H	1.304136	-0.399383	0.093649
H96	H	1.309676	-0.180802	0.094822
H97	H	1.669103	-0.441952	0.138164
H98	H	1.298600	0.272328	0.619515
C99	C	1.504841	-0.192208	-0.264598
H100	H	1.436167	-0.131733	-0.239035
H101	H	1.473063	-0.259048	-0.316460
H102	H	1.563964	-0.151693	-0.319726
H103	H	1.676060	-0.225085	0.136971
C104	C	1.710797	-0.214819	-0.143374
H105	H	1.729698	-0.162858	-0.066812
H106	H	1.721965	-0.170234	-0.227672
H107	H	1.766469	-0.291206	-0.142252
C108	C	1.421391	0.423134	0.635397
H109	H	1.494283	0.416150	0.693994
H110	H	1.349248	0.457826	0.686724
H111	H	1.435392	0.477451	0.559203
C112	C	1.421940	0.424269	0.367406
H113	H	1.431677	0.478561	0.444760
H114	H	1.351748	0.458126	0.312581
H115	H	1.497344	0.418613	0.312732
C116	C	1.740773	0.120642	0.632679
H117	H	1.784585	0.080811	0.555546
H118	H	1.705309	0.057945	0.687585
H119	H	1.798734	0.163094	0.687384
C120	C	1.345373	0.015052	0.635218
H121	H	1.307710	0.079906	0.694917
H122	H	1.359504	-0.062622	0.685429
H123	H	1.289914	0.004029	0.559212
H124	H	0.868234	0.378589	0.093924
H125	H	1.548997	-0.022903	0.618363
