data_functionalizedCrystal
_audit_creation_method	'MofGen! by Chris Wilmer'
_symmetry_space_group_name_H-M	'P1'
_symmetry_Int_Tables_number	1
_symmetry_cell_setting	triclinic
loop_
_symmetry_equiv_pos_as_xyz
  x,y,z
_cell_length_a	18.215407
_cell_length_b	29.839131
_cell_length_c	18.215399
_cell_angle_alpha	89.966717
_cell_angle_beta	89.983176
_cell_angle_gamma	90.041868
loop_
_atom_site_label
_atom_site_type_symbol
_atom_site_fract_x
_atom_site_fract_y
_atom_site_fract_z
Zn1	Zn	1.124966	-0.178842	-0.416101
Zn2	Zn	1.124845	-0.253974	-0.293028
Zn3	Zn	1.001905	-0.178860	-0.293048
Zn4	Zn	1.001828	-0.253946	-0.416053
O5	O	1.063386	-0.216406	-0.354558
O6	O	1.227934	-0.188813	-0.399787
O7	O	1.108518	-0.244030	-0.190047
O8	O	1.018311	-0.115990	-0.309400
O9	O	1.227845	-0.244012	-0.309366
O10	O	1.108724	-0.115977	-0.399806
O11	O	1.018194	-0.188843	-0.190061
O12	O	0.898910	-0.188816	-0.309354
O13	O	1.018182	-0.243964	-0.519044
O14	O	0.898854	-0.243982	-0.399725
O15	O	1.108650	-0.188785	-0.519079
O16	O	1.108444	-0.316838	-0.309320
O17	O	1.018065	-0.316817	-0.399705
C18	C	0.872180	-0.216398	-0.354537
C19	C	0.790381	-0.216405	-0.354545
C20	C	0.602177	-0.245175	-0.401542
C21	C	0.525318	-0.245177	-0.401551
C22	C	0.525347	-0.187644	-0.307589
C23	C	0.602204	-0.187641	-0.307584
C24	C	0.640617	-0.216409	-0.354560
C25	C	0.486901	-0.216414	-0.354574
C26	C	0.403567	-0.216415	-0.354583
C27	C	0.723956	-0.216407	-0.354551
C28	C	1.063253	-0.333128	-0.354521
C29	C	1.063263	-0.383063	-0.354530
C30	C	1.110532	-0.692704	-0.307563
C31	C	1.110623	-0.880377	-0.307591
O32	O	1.150707	-0.904640	-0.267629
N33	N	1.063538	-0.903848	-0.354613
C34	C	1.016431	-0.880397	-0.401635
O35	O	0.976391	-0.904666	-0.441636
C36	C	1.016345	-0.692725	-0.401609
C37	C	1.063427	-0.669257	-0.354579
C38	C	1.157611	-0.669236	-0.260536
C39	C	1.157585	-0.622320	-0.260527
C40	C	1.110480	-0.598873	-0.307544
C41	C	1.063401	-0.622341	-0.354570
C42	C	0.969242	-0.669275	-0.448634
C43	C	0.969226	-0.622354	-0.448625
C44	C	1.016308	-0.598886	-0.401595
C45	C	1.016270	-0.551978	-0.401577
N46	N	1.063354	-0.528508	-0.354554
C47	C	1.110460	-0.551955	-0.307538
C48	C	1.016479	-0.978928	-0.401644
C49	C	1.016500	-1.025845	-0.401649
C50	C	1.110692	-1.025822	-0.307606
C51	C	1.110668	-0.978904	-0.307598
C52	C	1.063564	-0.955457	-0.354622
C53	C	1.110401	-0.453430	-0.307521
C54	C	1.110369	-0.406510	-0.307514
C55	C	1.016179	-0.406537	-0.401559
C56	C	1.016208	-0.453453	-0.401564
C57	C	1.063325	-0.476898	-0.354543
O58	O	0.976213	-0.527686	-0.441523
O59	O	1.150506	-0.527678	-0.267554
C60	C	1.110558	-0.739619	-0.307572
C61	C	1.063479	-0.763088	-0.354598
C62	C	1.016374	-0.739640	-0.401615
C63	C	1.063500	-0.810005	-0.354604
C64	C	1.110605	-0.833453	-0.307587
C65	C	1.157689	-0.809982	-0.260565
C66	C	1.157663	-0.763067	-0.260555
C67	C	0.969290	-0.763111	-0.448637
C68	C	0.969319	-0.810026	-0.448642
C69	C	1.016424	-0.833474	-0.401625
C70	C	1.255339	-0.216414	-0.354579
C71	C	1.337138	-0.216417	-0.354589
C72	C	1.063421	-0.216370	-0.546511
C73	C	1.063435	-0.216354	-0.628310
C74	C	1.063539	-0.099227	-0.354610
C75	C	1.063605	-0.049293	-0.354633
C76	C	1.016444	-0.187599	-0.816512
C77	C	1.016456	-0.187590	-0.893371
C78	C	1.110515	-0.245056	-0.893345
C79	C	1.110498	-0.245067	-0.816488
C80	C	1.063464	-0.216336	-0.778073
C81	C	1.063493	-0.216316	-0.931789
C82	C	1.063508	-0.216306	-1.015123
C83	C	1.063448	-0.216346	-0.694734
C84	C	1.063394	-0.216409	-0.163351
C85	C	1.063521	-0.216298	-0.081553
H86	H	0.633503	-0.164213	-0.269325
O87	O	0.970760	-0.159632	-0.930597
C88	C	0.929231	-0.134287	-0.880207
H89	H	0.959367	-0.132740	-0.825425
H90	H	0.921431	-0.098887	-0.902433
H91	H	0.873316	-0.150737	-0.872016
O92	O	1.156177	-0.383783	-0.261804
C93	C	1.197746	-0.414543	-0.220298
H94	H	1.200290	-0.447972	-0.250454
H95	H	1.255728	-0.400955	-0.212498
H96	H	1.170834	-0.419575	-0.164382
O97	O	0.970715	-0.159758	-0.779114
C98	C	0.923131	-0.185343	-0.734653
H99	H	0.949044	-0.219390	-0.723121
H100	H	0.913277	-0.167051	-0.680617
H101	H	0.868594	-0.190275	-0.764267
H102	H	0.633451	-0.268599	-0.439794
H103	H	1.149047	-1.044921	-0.269324
H104	H	0.978154	-1.044949	-0.439939
O105	O	1.156231	-0.273002	-0.930548
C106	C	1.197742	-0.298360	-0.880137
H107	H	1.167583	-0.299925	-0.825349
H108	H	1.205556	-0.333753	-0.902326
H109	H	1.253652	-0.281910	-0.871974
H110	H	1.148789	-0.268469	-0.785190
H111	H	0.494062	-0.164223	-0.269342
O112	O	0.488059	-0.273100	-0.447291
C113	C	0.506866	-0.263329	-0.520667
H114	H	0.562689	-0.246058	-0.522237
H115	H	0.509473	-0.295777	-0.553568
H116	H	0.463645	-0.240253	-0.545528
O117	O	1.156071	-0.476253	-0.261818
C118	C	1.114227	-0.503435	-0.214236
H119	H	1.058440	-0.510491	-0.240133
H120	H	1.144233	-0.536411	-0.204415
H121	H	1.106171	-0.485384	-0.159684
H122	H	0.930869	-0.603266	-0.486920
H123	H	0.978120	-0.959841	-0.439938
H124	H	1.195926	-0.603216	-0.222233
H125	H	0.930899	-0.688375	-0.486928
H126	H	1.195974	-0.688322	-0.222250
O127	O	1.156475	-0.956178	-0.261892
C128	C	1.198035	-0.986940	-0.220383
H129	H	1.200575	-1.020370	-0.250536
H130	H	1.256020	-0.973356	-0.212581
H131	H	1.171120	-0.991969	-0.164467
O132	O	0.970448	-0.476183	-0.447315
C133	C	0.928851	-0.445424	-0.488795
H134	H	0.958972	-0.411957	-0.491356
H135	H	0.920977	-0.458957	-0.546777
H136	H	0.872971	-0.440486	-0.461795
H137	H	0.977824	-0.387439	-0.439837
H138	H	1.196042	-0.829081	-0.222280
O139	O	1.203367	-0.740323	-0.214771
C140	C	1.187323	-0.751824	-0.141411
H141	H	1.159042	-0.785905	-0.139871
H142	H	1.240458	-0.753416	-0.108463
H143	H	1.149496	-0.725450	-0.116578
O144	O	0.923555	-0.832751	-0.494399
C145	C	0.881965	-0.801989	-0.535880
H146	H	0.912092	-0.768524	-0.538438
H147	H	0.874091	-0.815520	-0.593863
H148	H	0.826085	-0.797048	-0.508882
O149	O	0.923491	-0.740288	-0.494206
C150	C	0.875956	-0.713208	-0.452255
H151	H	0.901947	-0.706182	-0.396509
H152	H	0.866047	-0.680211	-0.482218
H153	H	0.821438	-0.731332	-0.444115
