data_functionalizedCrystal
_audit_creation_method	'MofGen! by Chris Wilmer'
_symmetry_space_group_name_H-M	'P1'
_symmetry_Int_Tables_number	1
_symmetry_cell_setting	triclinic
loop_
_symmetry_equiv_pos_as_xyz
  x,y,z
_cell_length_a	19.288864
_cell_length_b	27.732048
_cell_length_c	18.366186
_cell_angle_alpha	89.988789
_cell_angle_beta	89.977106
_cell_angle_gamma	82.889449
loop_
_atom_site_label
_atom_site_type_symbol
_atom_site_fract_x
_atom_site_fract_y
_atom_site_fract_z
O1	O	0.920977	0.060300	-0.060791
O2	O	1.420977	0.560300	0.439209
O3	O	0.718665	0.068434	-0.060742
O4	O	1.218665	0.568434	0.439258
O5	O	0.826104	-0.006011	-0.060754
O6	O	1.326104	0.493989	0.439246
O7	O	0.813538	0.134745	-0.060779
O8	O	1.313538	0.634745	0.439221
O9	O	0.826086	-0.006014	0.060345
O10	O	1.326086	0.493986	0.560345
O11	O	0.718647	0.068430	0.060357
O12	O	1.218647	0.568430	0.560357
O13	O	0.920959	0.060296	0.060309
O14	O	1.420959	0.560296	0.560309
Zn15	Zn	0.819800	0.064363	0.079560
Zn16	Zn	1.319800	0.564363	0.579560
Zn17	Zn	0.819824	0.064368	-0.079994
Zn18	Zn	1.319824	0.564368	0.420006
O19	O	0.813520	0.134741	0.060321
O20	O	1.313520	0.634741	0.560321
C21	C	0.692781	0.068171	-0.000186
C22	C	1.192781	0.568171	0.499814
C23	C	0.615683	0.067385	-0.000167
C24	C	1.115683	0.567385	0.499833
C25	C	0.570714	0.111066	-0.000186
C26	C	1.070714	0.611066	0.499814
C27	C	0.498271	0.110328	-0.000194
C28	C	0.998271	0.610328	0.499806
C29	C	0.470801	0.065906	-0.000197
C30	C	0.970801	0.565906	0.499803
C31	C	0.515780	0.022219	-0.000174
C32	C	1.015780	0.522219	0.499826
C33	C	0.588220	0.022959	-0.000159
C34	C	1.088220	0.522959	0.499841
C35	C	0.362763	0.030987	-0.042642
C36	C	0.862763	0.530987	0.457358
C37	C	0.290323	0.030250	-0.042662
C38	C	0.790323	0.530250	0.457338
C39	C	0.247370	0.063624	-0.000241
C40	C	0.747370	0.563624	0.499759
C41	C	0.276863	0.097744	0.042190
C42	C	0.776863	0.597744	0.542190
C43	C	0.349304	0.098483	0.042206
C44	C	0.849304	0.598483	0.542206
C45	C	0.392252	0.065099	-0.000213
C46	C	0.892252	0.565099	0.499787
C47	C	0.123850	0.106507	-0.000268
C48	C	0.623850	0.606507	0.499732
C49	C	0.051406	0.105767	-0.000271
C50	C	0.551406	0.605767	0.499729
C51	C	0.068916	0.017658	-0.000258
C52	C	0.568916	0.517658	0.499742
C53	C	0.141358	0.018399	-0.000248
C54	C	0.641358	0.518399	0.499752
C55	C	0.168820	0.062825	-0.000256
C56	C	0.668820	0.562825	0.499744
C57	C	0.825831	-0.024020	-0.000202
C58	C	1.325831	0.475980	0.499798
C59	C	0.825037	-0.077678	-0.000196
C60	C	1.325037	0.422322	0.499804
C61	C	0.883526	-0.416316	-0.000248
C62	C	1.383526	0.083684	0.499752
C63	C	0.880579	-0.617985	-0.000257
C64	C	1.380579	-0.117985	0.499743
O65	O	0.934063	-0.649079	-0.000302
O66	O	1.434063	-0.149079	0.499698
N67	N	0.816872	-0.637301	-0.000241
N68	N	1.316872	-0.137301	0.499759
C69	C	0.753897	-0.606196	-0.000227
C70	C	1.253897	-0.106196	0.499773
O71	O	0.699643	-0.627253	-0.000222
O72	O	1.199643	-0.127253	0.499778
C73	C	0.756845	-0.404529	-0.000223
C74	C	1.256845	0.095471	0.499777
C75	C	0.820556	-0.385216	-0.000232
C76	C	1.320556	0.114784	0.499768
C77	C	0.947232	-0.397002	-0.000257
C78	C	1.447232	0.102998	0.499743
C79	C	0.947968	-0.346588	-0.000251
C80	C	1.447968	0.153412	0.499749
C81	C	0.884998	-0.315488	-0.000235
C82	C	1.384998	0.184512	0.499765
C83	C	0.821292	-0.334801	-0.000226
C84	C	1.321292	0.165199	0.499774
C85	C	0.693871	-0.373425	-0.000215
C86	C	1.193871	0.126575	0.499785
C87	C	0.694614	-0.323006	-0.000216
C88	C	1.194614	0.176994	0.499784
C89	C	0.758325	-0.303693	-0.000224
C90	C	1.258325	0.196307	0.499776
C91	C	0.759059	-0.253287	-0.000203
C92	C	1.259059	0.246713	0.499797
N93	N	0.822766	-0.233971	-0.000219
N94	N	1.322766	0.266029	0.499781
C95	C	0.885735	-0.265071	-0.000235
C96	C	1.385735	0.234929	0.499765
C97	C	0.752354	-0.712075	-0.000228
C98	C	1.252354	-0.212075	0.499772
C99	C	0.751617	-0.762492	-0.000228
C100	C	1.251617	-0.262492	0.499772
C101	C	0.878299	-0.774276	-0.000259
C102	C	1.378299	-0.274276	0.499741
C103	C	0.879035	-0.723859	-0.000254
C104	C	1.379035	-0.223859	0.499746
C105	C	0.816061	-0.692759	-0.000244
C106	C	1.316061	-0.192759	0.499756
C107	C	0.887276	-0.159197	-0.000221
C108	C	1.387276	0.340803	0.499779
C109	C	0.888007	-0.108778	-0.000212
C110	C	1.388007	0.391222	0.499788
C111	C	0.761325	-0.096998	-0.000185
C112	C	1.261325	0.403002	0.499815
C113	C	0.760595	-0.147412	-0.000190
C114	C	1.260595	0.352588	0.499810
C115	C	0.823576	-0.178511	-0.000211
C116	C	1.323576	0.321489	0.499789
O117	O	0.705603	-0.222164	-0.000167
O118	O	1.205603	0.277836	0.499833
O119	O	0.939982	-0.244005	-0.000257
O120	O	1.439982	0.255995	0.499743
C121	C	0.882790	-0.466730	-0.000254
C122	C	1.382790	0.033270	0.499746
C123	C	0.819084	-0.486044	-0.000245
C124	C	1.319084	0.013956	0.499755
C125	C	0.756114	-0.454943	-0.000229
C126	C	1.256114	0.045057	0.499771
C127	C	0.818347	-0.536461	-0.000244
C128	C	1.318347	-0.036461	0.499756
C129	C	0.881317	-0.567561	-0.000260
C130	C	1.381317	-0.067561	0.499740
C131	C	0.945023	-0.548245	-0.000276
C132	C	1.445023	-0.048245	0.499724
C133	C	0.945760	-0.497831	-0.000270
C134	C	1.445760	0.002169	0.499730
C135	C	0.692407	-0.474260	-0.000213
C136	C	1.192407	0.025740	0.499787
C137	C	0.691676	-0.524674	-0.000218
C138	C	1.191676	-0.024674	0.499782
C139	C	0.754646	-0.555775	-0.000234
C140	C	1.254646	-0.055775	0.499766
C141	C	0.946842	0.060560	-0.000249
C142	C	1.446842	0.560560	0.499751
C143	C	1.023941	0.061345	-0.000273
C144	C	1.523941	0.561345	0.499727
C145	C	0.813792	0.152751	-0.000233
C146	C	1.313792	0.652751	0.499767
C147	C	0.814587	0.206408	-0.000244
C148	C	1.314587	0.706408	0.499756
N149	N	0.819789	0.064359	0.188451
N150	N	1.319789	0.564359	0.688451
N151	N	0.819841	0.064367	-0.188885
N152	N	1.319841	0.564367	0.311115
C153	C	0.867378	0.031411	0.226546
C154	C	1.367378	0.531411	0.726546
C155	C	0.867383	0.031409	0.302774
C156	C	1.367383	0.531409	0.802774
C157	C	0.819804	0.064363	0.340904
C158	C	1.319804	0.564363	0.840904
C159	C	0.772206	0.097314	0.302800
C160	C	1.272206	0.597314	0.802800
C161	C	0.772198	0.097312	0.226573
C162	C	1.272198	0.597312	0.726573
C163	C	0.810231	0.108406	0.461658
C164	C	1.310231	0.608406	0.961658
C165	C	0.810244	0.108409	0.537883
C166	C	1.310244	0.608409	1.037883
C167	C	0.819824	0.064369	0.576011
C168	C	1.319824	0.564369	1.076011
C169	C	0.829406	0.020325	0.537906
C170	C	1.329406	0.520325	1.037906
C171	C	0.829398	0.020323	0.461679
C172	C	1.329398	0.520323	0.961679
C173	C	0.819807	0.064369	0.423559
C174	C	1.319807	0.564369	0.923559
C175	C	0.867421	0.031416	0.696761
C176	C	1.367421	0.531416	1.196761
C177	C	0.867420	0.031413	0.772991
C178	C	1.367420	0.531413	1.272991
C179	C	0.772247	0.097322	0.773015
C180	C	1.272247	0.597322	1.273015
C181	C	0.772244	0.097321	0.696787
C182	C	1.272244	0.597321	1.196787
C183	C	0.819835	0.064368	0.658665
C184	C	1.319835	0.564368	1.158665
H185	H	0.593069	0.147241	-0.000194
H186	H	1.093069	0.647241	0.499806
Br187	Br	0.389330	0.144785	0.099789
Br188	Br	0.889330	0.644785	0.599789
Br189	Br	0.842417	-0.039447	0.589641
Br190	Br	1.342417	0.460553	1.089641
H191	H	0.733466	0.124145	0.333849
H192	H	1.233466	0.624145	0.833849
Br193	Br	0.707607	0.142030	0.174868
Br194	Br	1.207607	0.642030	0.674868
H195	H	0.241891	0.124920	0.076734
H196	H	0.741891	0.624920	0.576734
Br197	Br	0.932005	-0.013306	0.645022
Br198	Br	1.432005	0.486694	1.145022
Br199	Br	0.932005	-0.013310	0.824695
Br200	Br	1.432005	0.486690	1.324695
H201	H	0.837199	-0.015539	0.430657
H202	H	1.337199	0.484461	0.930657
Br203	Br	0.202391	-0.040886	-0.000224
Br204	Br	0.702391	0.459114	0.499776
H205	H	0.733505	0.124152	0.804060
H206	H	1.233505	0.624152	1.304060
H207	H	0.146211	0.142682	-0.000263
H208	H	0.646211	0.642682	0.499737
H209	H	0.733495	0.124152	0.665768
H210	H	1.233495	0.624152	1.165768
Br211	Br	0.437231	0.169613	-0.000215
Br212	Br	0.937231	0.669613	0.499785
Br213	Br	0.250302	-0.016049	-0.100256
Br214	Br	0.750302	0.483951	0.399744
H215	H	0.397731	0.003809	-0.077191
H216	H	0.897731	0.503809	0.422809
Br217	Br	-0.009625	0.165054	-0.000290
Br218	Br	0.490375	0.665054	0.499710
Br219	Br	0.031643	-0.042630	-0.000251
Br220	Br	0.531643	0.457370	0.499749
H221	H	0.802446	0.144272	0.568903
H222	H	1.302446	0.644272	1.068903
Br223	Br	0.972751	-0.201395	-0.000250
Br224	Br	1.472751	0.298605	0.499750
Br225	Br	0.478501	-0.038067	-0.000171
Br226	Br	0.978501	0.461933	0.499829
Br227	Br	0.797298	0.168180	0.409920
Br228	Br	1.297298	0.668180	0.909920
Br229	Br	0.649254	-0.036327	-0.000131
Br230	Br	1.149254	0.463673	0.499869
H231	H	0.999848	-0.330868	-0.000261
H232	H	1.499848	0.169132	0.499739
Br233	Br	0.974478	-0.082571	-0.000223
Br234	Br	1.474478	0.417429	0.499777
H235	H	0.930914	-0.708138	-0.000262
H236	H	1.430914	-0.208138	0.499738
Br237	Br	1.032703	-0.439202	-0.000279
Br238	Br	1.532703	0.060798	0.499721
H239	H	0.929571	-0.799607	-0.000271
H240	H	1.429571	-0.299607	0.499729
Br241	Br	0.665149	-0.788696	-0.000199
Br242	Br	1.165149	-0.288696	0.499801
H243	H	0.701070	-0.686757	-0.000220
H244	H	1.201070	-0.186757	0.499780
Br245	Br	0.931961	-0.013310	0.174808
Br246	Br	1.431961	0.486690	0.674808
Br247	Br	0.607401	-0.399623	-0.000206
Br248	Br	1.107401	0.100377	0.499794
H249	H	0.643331	-0.297686	-0.000209
H250	H	1.143331	0.202314	0.499791
H251	H	0.708716	-0.163138	-0.000163
H252	H	1.208716	0.336862	0.499837
H253	H	0.906137	0.004578	0.333797
H254	H	1.406137	0.504578	0.833797
H255	H	0.710057	-0.071667	-0.000169
H256	H	1.210057	0.428333	0.499831
Br257	Br	0.605203	-0.550878	-0.000201
Br258	Br	1.105203	-0.050878	0.499799
Br259	Br	1.030482	-0.590463	-0.000292
Br260	Br	1.530482	-0.090463	0.499708
H261	H	0.997640	-0.482111	-0.000277
H262	H	1.497640	0.017889	0.499723
H263	H	0.641128	-0.448942	-0.000201
H264	H	1.141128	0.051058	0.499799
