data_functionalizedCrystal
_audit_creation_method	'MofGen! by Chris Wilmer'
_symmetry_space_group_name_H-M	'P1'
_symmetry_Int_Tables_number	1
_symmetry_cell_setting	triclinic
loop_
_symmetry_equiv_pos_as_xyz
  x,y,z
_cell_length_a	10.686220
_cell_length_b	13.032721
_cell_length_c	13.032268
_cell_angle_alpha	103.289627
_cell_angle_beta	100.919293
_cell_angle_gamma	100.973619
loop_
_atom_site_label
_atom_site_type_symbol
_atom_site_fract_x
_atom_site_fract_y
_atom_site_fract_z
Zn1	Zn	1.792166	-0.368532	-0.523925
Zn2	Zn	2.125500	-0.035199	-0.190591
Zn3	Zn	2.458833	0.298134	0.142742
Zn4	Zn	1.792025	-0.523627	-0.368883
Zn5	Zn	2.125359	-0.190294	-0.035550
Zn6	Zn	2.458692	0.143040	0.297784
Zn7	Zn	1.607735	-0.359462	-0.359751
Zn8	Zn	1.941069	-0.026129	-0.026418
Zn9	Zn	2.274402	0.307205	0.306915
Zn10	Zn	1.544914	-0.564101	-0.564388
Zn11	Zn	1.878247	-0.230768	-0.231055
Zn12	Zn	2.211581	0.102565	0.102279
O13	O	1.684210	-0.453931	-0.454237
O14	O	2.017544	-0.120597	-0.120903
O15	O	2.350877	0.212736	0.212430
O16	O	1.972750	-0.375963	-0.490246
O17	O	2.306083	-0.042630	-0.156912
O18	O	2.639416	0.290704	0.176421
O19	O	1.793811	-0.481115	-0.217145
O20	O	2.127144	-0.147782	0.116189
O21	O	2.460477	0.185551	0.449522
O22	O	1.658550	-0.210115	-0.360774
O23	O	1.991884	0.123218	-0.027440
O24	O	2.325217	0.456551	0.305893
O25	O	1.972646	-0.489910	-0.376337
O26	O	2.305979	-0.156577	-0.043004
O27	O	2.639313	0.176756	0.290329
O28	O	1.794051	-0.216779	-0.481391
O29	O	2.127384	0.116554	-0.148058
O30	O	2.460718	0.449888	0.185275
O31	O	1.658414	-0.360504	-0.210436
O32	O	1.991747	-0.027171	0.122897
O33	O	2.325080	0.306163	0.456231
O34	O	1.418800	-0.399751	-0.400009
O35	O	1.752133	-0.066417	-0.066676
O36	O	2.085467	0.266916	0.266658
O37	O	1.551481	-0.558893	-0.709547
O38	O	1.884814	-0.225560	-0.376214
O39	O	2.218148	0.107773	-0.042881
O40	O	1.372646	-0.550098	-0.550355
O41	O	1.705979	-0.216765	-0.217021
O42	O	2.039312	0.116568	0.116312
O43	O	1.733136	-0.415210	-0.679819
O44	O	2.066469	-0.081876	-0.346486
O45	O	2.399803	0.251457	-0.013152
O46	O	1.732896	-0.679546	-0.415573
O47	O	2.066229	-0.346212	-0.082239
O48	O	2.399562	-0.012879	0.251094
O49	O	1.551344	-0.709282	-0.559209
O50	O	1.884678	-0.375949	-0.225876
O51	O	2.218011	-0.042616	0.107457
C52	C	1.348894	-0.478333	-0.478583
C53	C	1.682228	-0.145000	-0.145249
C54	C	2.015561	0.188334	0.188084
C55	C	1.205436	-0.488802	-0.489027
C56	C	1.538769	-0.155469	-0.155694
C57	C	1.872102	0.177865	0.177640
C58	C	1.635319	-0.733451	-0.492794
C59	C	1.968652	-0.400117	-0.159460
C60	C	2.301985	-0.066784	0.173873
C61	C	1.614514	-0.853027	-0.509316
C62	C	1.947848	-0.519694	-0.175982
C63	C	2.281181	-0.186360	0.157351
C64	C	1.695128	-0.891592	-0.445657
C65	C	2.028462	-0.558258	-0.112324
C66	C	2.361795	-0.224925	0.221010
C67	C	1.673628	-1.015180	-0.462732
C68	C	2.006961	-0.681846	-0.129399
C69	C	2.340295	-0.348513	0.203935
C70	C	2.020835	-0.429434	-0.429797
C71	C	2.354169	-0.096100	-0.096463
C72	C	2.687502	0.237233	0.236870
C73	C	2.164285	-0.418995	-0.419382
C74	C	2.497618	-0.085661	-0.086048
C75	C	2.830951	0.247672	0.247285
C76	C	1.635317	-0.492578	-0.734804
C77	C	1.968650	-0.159245	-0.401471
C78	C	2.301983	0.174089	-0.068138
C79	C	1.614481	-0.509047	-0.854366
C80	C	1.947814	-0.175714	-0.521032
C81	C	2.281148	0.157619	-0.187699
C82	C	1.733324	-0.173320	-0.415550
C83	C	2.066657	0.160014	-0.082217
C84	C	2.399990	0.493347	0.251116
C85	C	1.754253	-0.053740	-0.399064
C86	C	2.087586	0.279593	-0.065731
C87	C	2.420920	0.612927	0.267602
C88	C	1.695071	-0.445298	-0.892961
C89	C	2.028405	-0.111965	-0.559627
C90	C	2.361738	0.221369	-0.226294
C91	C	1.673539	-0.462318	-1.016533
C92	C	2.006872	-0.128985	-0.683200
C93	C	2.340205	0.204348	-0.349867
C94	C	1.733002	-0.415350	-0.174745
C95	C	2.066335	-0.082017	0.158589
C96	C	2.399668	0.251316	0.491922
C97	C	1.754140	-0.398560	-0.055124
C98	C	2.087473	-0.065227	0.278209
C99	C	2.420807	0.268107	0.611543
H100	H	1.238804	-0.351221	-0.351764
H101	H	1.572137	-0.017888	-0.018431
H102	H	1.905470	0.315445	0.314903
H103	H	1.130909	-0.556586	-0.556643
H104	H	1.464242	-0.223252	-0.223310
H105	H	1.797576	0.110081	0.110024
H106	H	1.780005	-0.378116	-0.834519
H107	H	2.113338	-0.044783	-0.501186
H108	H	2.446671	0.288551	-0.167853
H109	H	1.588588	-0.529495	-1.074971
H110	H	1.921921	-0.196162	-0.741638
H111	H	2.255255	0.137172	-0.408305
Cl112	Cl	1.885401	-0.963467	-0.295398
Cl113	Cl	2.218734	-0.630134	0.037935
Cl114	Cl	2.552068	-0.296801	0.371269
H115	H	1.529537	-0.576220	-0.912807
H116	H	1.862870	-0.242886	-0.579473
H117	H	2.196203	0.090447	-0.246140
H118	H	1.780067	-0.833115	-0.378519
H119	H	2.113400	-0.499782	-0.045185
H120	H	2.446734	-0.166449	0.288148
H121	H	1.529585	-0.911506	-0.576461
H122	H	1.862919	-0.578173	-0.243128
H123	H	2.196252	-0.244839	0.090206
Cl124	Cl	1.885304	-0.294845	-0.964909
Cl125	Cl	2.218637	0.038488	-0.631576
Cl126	Cl	2.551971	0.371821	-0.298243
H127	H	1.588693	-1.073656	-0.529882
H128	H	1.922026	-0.740322	-0.196549
H129	H	2.255360	-0.406989	0.136785
