data_functionalizedCrystal
_audit_creation_method	'MofGen! by Chris Wilmer'
_symmetry_space_group_name_H-M	'P1'
_symmetry_Int_Tables_number	1
_symmetry_cell_setting	triclinic
loop_
_symmetry_equiv_pos_as_xyz
  x,y,z
_cell_length_a	19.188930
_cell_length_b	19.188930
_cell_length_c	18.266242
_cell_angle_alpha	90.011475
_cell_angle_beta	89.977082
_cell_angle_gamma	96.855221
loop_
_atom_site_label
_atom_site_type_symbol
_atom_site_fract_x
_atom_site_fract_y
_atom_site_fract_z
O1	O	0.926149	-0.087169	-0.061124
O2	O	0.722838	-0.098903	-0.061075
O3	O	0.830361	0.008620	-0.061087
O4	O	0.818627	-0.194691	-0.061113
O5	O	0.830343	0.008625	0.060675
O6	O	0.722820	-0.098897	0.060687
O7	O	0.926131	-0.087163	0.060638
Zn8	Zn	0.824473	-0.093029	0.079994
Zn9	Zn	0.824497	-0.093037	-0.080432
O10	O	0.818608	-0.194686	0.060649
C11	C	0.696818	-0.098520	-0.000188
C12	C	0.619313	-0.097380	-0.000169
C13	C	0.574389	-0.160470	-0.000188
C14	C	0.501566	-0.159399	-0.000196
C15	C	0.473669	-0.095233	-0.000199
C16	C	0.518603	-0.032133	-0.000175
C17	C	0.591425	-0.033207	-0.000160
N18	N	0.365695	-0.046188	-0.041663
N19	N	0.296516	-0.045172	-0.041679
C20	C	0.254260	-0.091994	-0.000243
N21	N	0.283795	-0.139881	0.041200
N22	N	0.352980	-0.140899	0.041213
C23	C	0.394707	-0.094062	-0.000215
C24	C	0.130372	-0.153928	-0.000270
C25	C	0.057547	-0.152853	-0.000274
C26	C	0.074586	-0.025586	-0.000261
C27	C	0.147409	-0.026662	-0.000250
C28	C	0.175298	-0.090835	-0.000258
C29	C	0.829972	0.034634	-0.000204
C30	C	0.828831	0.112138	-0.000197
C31	C	0.952151	-0.087546	-0.000252
C32	C	1.029656	-0.088687	-0.000276
C33	C	0.818997	-0.220700	-0.000236
C34	C	0.820138	-0.298204	-0.000247
N35	N	0.824461	-0.093024	0.189481
C36	C	0.891922	0.157062	-0.000209
C37	C	0.890850	0.229886	-0.000220
C38	C	0.826684	0.257782	-0.000206
C39	C	0.763585	0.212849	-0.000198
C40	C	0.764658	0.140026	-0.000194
N41	N	0.777631	0.365789	0.041244
N42	N	0.776615	0.434968	0.041242
C43	C	0.823446	0.477191	-0.000220
N44	N	0.871341	0.447624	-0.041669
N45	N	0.872359	0.378439	-0.041664
C46	C	0.825513	0.336745	-0.000210
C47	C	0.885379	0.601079	-0.000245
C48	C	0.884305	0.673904	-0.000261
C49	C	0.757038	0.656865	-0.000231
C50	C	0.758114	0.584042	-0.000222
C51	C	0.822287	0.556154	-0.000226
N52	N	0.824513	-0.093037	-0.189919
C53	C	0.872088	-0.045436	0.227785
C54	C	0.872092	-0.045433	0.304430
C55	C	0.824477	-0.093030	0.342768
C56	C	0.776841	-0.140621	0.304455
C57	C	0.776834	-0.140618	0.227812
N58	N	0.815401	-0.154837	0.463094
N59	N	0.815413	-0.154838	0.535902
C60	C	0.824496	-0.093040	0.573691
N61	N	0.833582	-0.031239	0.535920
N62	N	0.833574	-0.031240	0.463106
C63	C	0.824480	-0.093038	0.425875
C64	C	0.872131	-0.045444	0.695101
C65	C	0.872130	-0.045440	0.771748
C66	C	0.776882	-0.140634	0.771772
C67	C	0.776879	-0.140632	0.695127
C68	C	0.824507	-0.093038	0.656796
H69	H	0.495885	0.020111	-0.000188
O70	O	0.014005	-0.214208	-0.000323
C71	C	0.054240	-0.271074	-0.000310
H72	H	0.108659	-0.253184	-0.023351
H73	H	0.027260	-0.315266	-0.035672
H74	H	0.059336	-0.290755	0.058103
H75	H	0.935683	0.710481	-0.000274
O76	O	0.730650	-0.186802	0.657801
C77	C	0.740867	-0.176608	0.581933
H78	H	0.767128	-0.121031	0.571465
H79	H	0.687970	-0.184513	0.552828
H80	H	0.775765	-0.216037	0.560159
O81	O	0.694767	0.684071	-0.000187
C82	C	0.707347	0.757980	-0.000217
H83	H	0.761881	0.775254	0.022825
H84	H	0.666293	0.780226	0.035137
H85	H	0.704038	0.778225	-0.058635
H86	H	0.738110	-0.179386	0.802986
O87	O	0.918229	0.000799	0.190409
C88	C	0.961189	-0.036308	0.145867
H89	H	0.962505	-0.091329	0.168944
H90	H	1.016676	-0.007471	0.144767
H91	H	0.939126	-0.040131	0.087874
H92	H	0.051874	0.026659	-0.000309
O93	O	0.730639	-0.186947	0.190634
C94	C	0.741763	-0.256037	0.209356
H95	H	0.797660	-0.256240	0.230399
H96	H	0.733621	-0.291098	0.158949
H97	H	0.703004	-0.276639	0.253859
O98	O	0.634969	0.028147	-0.000179
C99	C	0.594735	0.085014	-0.000161
H100	H	0.540339	0.067126	-0.023222
H101	H	0.621752	0.129205	-0.035504
H102	H	0.589581	0.104697	0.058256
O103	O	0.696762	0.540498	-0.000169
C104	C	0.639896	0.580733	-0.000176
H105	H	0.657781	0.635146	0.022867
H106	H	0.595698	0.553743	0.035187
H107	H	0.620224	0.585844	-0.058587
H108	H	0.910911	-0.006685	0.802935
O109	O	0.601363	-0.222867	-0.000156
C110	C	0.546090	-0.278323	-0.000192
H111	H	0.496663	-0.258901	0.022849
H112	H	0.561150	-0.323135	0.035159
H113	H	0.535761	-0.297777	-0.058612
O114	O	0.918423	0.000825	0.341535
C115	C	0.960442	0.042849	0.291268
H116	H	0.961141	0.014228	0.236626
H117	H	1.016231	0.053639	0.313391
H118	H	0.937932	0.094661	0.283142
O119	O	0.157504	-0.216243	-0.000396
C120	C	0.199166	-0.220672	-0.063440
H121	H	0.182075	-0.184247	-0.107521
H122	H	0.192472	-0.276965	-0.084608
H123	H	0.256637	-0.204385	-0.049173
H124	H	0.183988	0.024713	-0.000238
H125	H	0.942228	0.266470	-0.000233
H126	H	0.738071	-0.179374	0.335674
O127	O	0.918415	0.000859	0.657975
C128	C	0.960460	0.042857	0.708223
H129	H	0.931842	0.043574	0.762872
H130	H	0.971282	0.098643	0.686085
H131	H	1.012255	0.020315	0.716344
H132	H	0.464982	-0.210776	-0.000210
H133	H	0.944176	0.134360	-0.000214
O134	O	0.701298	0.240027	-0.000280
C135	C	0.696873	0.281615	-0.063351
H136	H	0.751963	0.299915	-0.084386
H137	H	0.669186	0.329221	-0.049163
H138	H	0.665893	0.249338	-0.107502
H139	H	0.713281	0.103448	-0.000184
O140	O	0.947668	0.573898	-0.000355
C141	C	0.952109	0.532281	-0.063422
H142	H	0.897025	0.513973	-0.084430
H143	H	0.979791	0.484680	-0.049242
H144	H	0.983103	0.564536	-0.107593
