data_functionalizedCrystal
_audit_creation_method	'MofGen! by Chris Wilmer'
_symmetry_space_group_name_H-M	'P1'
_symmetry_Int_Tables_number	1
_symmetry_cell_setting	triclinic
loop_
_symmetry_equiv_pos_as_xyz
  x,y,z
_cell_length_a	13.897449
_cell_length_b	25.639240
_cell_length_c	13.897441
_cell_angle_alpha	89.958512
_cell_angle_beta	89.976606
_cell_angle_gamma	90.033584
loop_
_atom_site_label
_atom_site_type_symbol
_atom_site_fract_x
_atom_site_fract_y
_atom_site_fract_z
Zn1	Zn	1.474602	-0.208123	-0.545377
Zn2	Zn	1.724602	0.041877	-0.295377
Zn3	Zn	1.974602	0.291877	-0.045377
Zn4	Zn	2.224602	0.541877	0.204623
Zn5	Zn	1.474453	-0.295565	-0.384047
Zn6	Zn	1.724453	-0.045565	-0.134047
Zn7	Zn	1.974453	0.204435	0.115953
Zn8	Zn	2.224453	0.454435	0.365953
Zn9	Zn	1.313291	-0.208147	-0.384088
Zn10	Zn	1.563291	0.041853	-0.134088
Zn11	Zn	1.813291	0.291853	0.115912
Zn12	Zn	2.063291	0.541853	0.365912
Zn13	Zn	1.313230	-0.295530	-0.545292
Zn14	Zn	1.563230	-0.045530	-0.295292
Zn15	Zn	1.813230	0.204470	-0.045292
Zn16	Zn	2.063230	0.454470	0.204708
O17	O	1.393894	-0.251841	-0.464701
O18	O	1.643894	-0.001841	-0.214701
O19	O	1.893894	0.248159	0.035299
O20	O	2.143894	0.498159	0.285299
O21	O	1.609564	-0.219727	-0.523994
O22	O	1.859564	0.030273	-0.273994
O23	O	2.109564	0.280273	-0.023994
O24	O	2.359564	0.530273	0.226006
O25	O	1.453038	-0.283994	-0.249071
O26	O	1.703038	-0.033994	0.000929
O27	O	1.953038	0.216006	0.250929
O28	O	2.203038	0.466006	0.500929
O29	O	1.334777	-0.134978	-0.405535
O30	O	1.584777	0.115022	-0.155535
O31	O	1.834777	0.365022	0.094465
O32	O	2.084777	0.615022	0.344465
O33	O	1.609455	-0.283970	-0.405466
O34	O	1.859455	-0.033970	-0.155466
O35	O	2.109455	0.216030	0.094534
O36	O	2.359455	0.466030	0.344534
O37	O	1.453291	-0.134961	-0.524033
O38	O	1.703291	0.115039	-0.274033
O39	O	1.953291	0.365039	-0.024033
O40	O	2.203291	0.615039	0.225967
O41	O	1.334633	-0.219768	-0.249100
O42	O	1.584633	0.030232	0.000900
O43	O	1.834633	0.280232	0.250900
O44	O	2.084633	0.530232	0.500900
O45	O	1.178301	-0.219734	-0.405453
O46	O	1.428301	0.030266	-0.155453
O47	O	1.678301	0.280266	0.094547
O48	O	1.928301	0.530266	0.344547
O49	O	1.334673	-0.283910	-0.680285
O50	O	1.584673	-0.033910	-0.430285
O51	O	1.834673	0.216090	-0.180285
O52	O	2.084673	0.466090	0.069715
O53	O	1.178257	-0.283934	-0.523890
O54	O	1.428257	-0.033934	-0.273890
O55	O	1.678257	0.216066	-0.023890
O56	O	1.928257	0.466066	0.226110
O57	O	1.453232	-0.219693	-0.680347
O58	O	1.703232	0.030307	-0.430347
O59	O	1.953232	0.280307	-0.180347
O60	O	2.203232	0.530307	0.069653
O61	O	1.452979	-0.368726	-0.405385
O62	O	1.702979	-0.118726	-0.155385
O63	O	1.952979	0.131274	0.094615
O64	O	2.202979	0.381274	0.344615
O65	O	1.334529	-0.368700	-0.523851
O66	O	1.584529	-0.118700	-0.273851
O67	O	1.834529	0.131300	-0.023851
O68	O	2.084529	0.381300	0.226149
C69	C	1.143280	-0.251833	-0.464667
C70	C	1.393280	-0.001833	-0.214667
C71	C	1.643280	0.248167	0.035333
C72	C	1.893280	0.498167	0.285333
C73	C	1.036066	-0.251842	-0.464676
C74	C	1.286066	-0.001842	-0.214676
C75	C	1.536066	0.248158	0.035324
C76	C	1.786066	0.498158	0.285324
C77	C	0.948996	-0.251844	-0.464692
C78	C	1.198996	-0.001844	-0.214692
C79	C	1.448996	0.248156	0.035308
C80	C	1.698996	0.498156	0.285308
C81	C	0.839763	-0.251848	-0.464721
C82	C	1.089763	-0.001848	-0.214721
C83	C	1.339763	0.248152	0.035279
C84	C	1.589763	0.498152	0.285279
C85	C	1.393758	-0.387684	-0.464625
C86	C	1.643758	-0.137684	-0.214625
C87	C	1.893758	0.112316	0.035375
C88	C	2.143758	0.362316	0.285375
C89	C	1.393788	-0.445798	-0.464625
C90	C	1.643788	-0.195798	-0.214625
C91	C	1.893788	0.054202	0.035375
C92	C	2.143788	0.304202	0.285375
C93	C	1.455635	-0.806113	-0.526514
C94	C	1.705635	-0.556113	-0.276514
C95	C	1.955635	-0.306113	-0.026514
C96	C	2.205635	-0.056113	0.223486
C97	C	1.455663	-0.860717	-0.526534
C98	C	1.705663	-0.610717	-0.276534
C99	C	1.955663	-0.360717	-0.026534
C100	C	2.205663	-0.110717	0.223466
O101	O	1.508086	-0.888914	-0.579077
O102	O	1.758086	-0.638914	-0.329077
O103	O	2.008086	-0.388914	-0.079077
O104	O	2.258086	-0.138914	0.170923
N105	N	1.394028	-0.888080	-0.464794
N106	N	1.644028	-0.638080	-0.214794
N107	N	1.894028	-0.388080	0.035206
N108	N	2.144028	-0.138080	0.285206
C109	C	1.332353	-0.860836	-0.403038
C110	C	1.582353	-0.610836	-0.153038
C111	C	1.832353	-0.360836	0.096962
C112	C	2.082353	-0.110836	0.346962
O113	O	1.279929	-0.889124	-0.350526
O114	O	1.529929	-0.639124	-0.100526
O115	O	1.779929	-0.389124	0.149474
O116	O	2.029929	-0.139124	0.399474
C117	C	1.332320	-0.806233	-0.403024
C118	C	1.582320	-0.556233	-0.153024
C119	C	1.832320	-0.306233	0.096976
C120	C	2.082320	-0.056233	0.346976
C121	C	1.393967	-0.778873	-0.464761
C122	C	1.643967	-0.528873	-0.214761
C123	C	1.893967	-0.278873	0.035239
C124	C	2.143967	-0.028873	0.285239
C125	C	1.517276	-0.778753	-0.588247
C126	C	1.767276	-0.528753	-0.338247
C127	C	2.017276	-0.278753	-0.088247
C128	C	2.267276	-0.028753	0.161753
C129	C	1.517248	-0.724152	-0.588226
C130	C	1.767248	-0.474152	-0.338226
C131	C	2.017248	-0.224152	-0.088226
C132	C	2.267248	0.025848	0.161774
C133	C	1.455580	-0.696912	-0.526472
C134	C	1.705580	-0.446912	-0.276472
C135	C	1.955580	-0.196912	-0.026472
C136	C	2.205580	0.053088	0.223528
C137	C	1.393939	-0.724272	-0.464740
C138	C	1.643939	-0.474272	-0.214740
C139	C	1.893939	-0.224272	0.035260
C140	C	2.143939	0.025728	0.285260
C141	C	1.270641	-0.778989	-0.341273
C142	C	1.520641	-0.528989	-0.091273
C143	C	1.770641	-0.278989	0.158727
C144	C	2.020641	-0.028989	0.408727
C145	C	1.270613	-0.724382	-0.341265
C146	C	1.520613	-0.474382	-0.091265
C147	C	1.770613	-0.224382	0.158735
C148	C	2.020613	0.025618	0.408735
C149	C	1.332260	-0.697022	-0.403002
C150	C	1.582260	-0.447022	-0.153002
C151	C	1.832260	-0.197022	0.096998
C152	C	2.082260	0.052978	0.346998
C153	C	1.332244	-0.642431	-0.402965
C154	C	1.582244	-0.392431	-0.152965
C155	C	1.832244	-0.142431	0.097035
C156	C	2.082244	0.107569	0.347035
N157	N	1.393879	-0.615068	-0.464704
N158	N	1.643879	-0.365068	-0.214704
N159	N	1.893879	-0.115068	0.035296
N160	N	2.143879	0.134932	0.285296
C161	C	1.455548	-0.642309	-0.526458
C162	C	1.705548	-0.392309	-0.276458
C163	C	1.955548	-0.142309	-0.026458
C164	C	2.205548	0.107691	0.223542
C165	C	1.332425	-0.975506	-0.403073
C166	C	1.582425	-0.725506	-0.153073
C167	C	1.832425	-0.475506	0.096927
C168	C	2.082425	-0.225506	0.346927
C169	C	1.332461	-1.030109	-0.403081
C170	C	1.582461	-0.780109	-0.153081
C171	C	1.832461	-0.530109	0.096919
C172	C	2.082461	-0.280109	0.346919
C173	C	1.455771	-1.029986	-0.526579
C174	C	1.705771	-0.779986	-0.276579
C175	C	1.955771	-0.529986	-0.026579
C176	C	2.205771	-0.279986	0.223421
C177	C	1.455739	-0.975383	-0.526565
C178	C	1.705739	-0.725383	-0.276565
C179	C	1.955739	-0.475383	-0.026565
C180	C	2.205739	-0.225383	0.223435
C181	C	1.394060	-0.948144	-0.464813
C182	C	1.644060	-0.698144	-0.214813
C183	C	1.894060	-0.448144	0.035187
C184	C	2.144060	-0.198144	0.285187
C185	C	1.455486	-0.527644	-0.526409
C186	C	1.705486	-0.277644	-0.276409
C187	C	1.955486	-0.027644	-0.026409
C188	C	2.205486	0.222356	0.223591
C189	C	1.455456	-0.473038	-0.526379
C190	C	1.705456	-0.223038	-0.276379
C191	C	1.955456	0.026962	-0.026379
C192	C	2.205456	0.276962	0.223621
C193	C	1.332143	-0.473165	-0.402885
C194	C	1.582143	-0.223165	-0.152885
C195	C	1.832143	0.026835	0.097115
C196	C	2.082143	0.276835	0.347115
C197	C	1.332176	-0.527766	-0.402911
C198	C	1.582176	-0.277766	-0.152911
C199	C	1.832176	-0.027766	0.097089
C200	C	2.082176	0.222234	0.347089
C201	C	1.393851	-0.555004	-0.464680
C202	C	1.643851	-0.305004	-0.214680
C203	C	1.893851	-0.055004	0.035320
C204	C	2.143851	0.194996	0.285320
O205	O	1.279845	-0.614200	-0.350452
O206	O	1.529845	-0.364200	-0.100452
O207	O	1.779845	-0.114200	0.149548
O208	O	2.029845	0.135800	0.399548
O209	O	1.507954	-0.614014	-0.578970
O210	O	1.757954	-0.364014	-0.328970
O211	O	2.007954	-0.114014	-0.078970
O212	O	2.257954	0.135986	0.171030
C213	C	1.645487	-0.251850	-0.464735
C214	C	1.895487	-0.001850	-0.214735
C215	C	2.145487	0.248150	0.035265
C216	C	2.395487	0.498150	0.285265
C217	C	1.752701	-0.251853	-0.464750
C218	C	2.002701	-0.001853	-0.214750
C219	C	2.252701	0.248147	0.035250
C220	C	2.502701	0.498147	0.285250
C221	C	1.393962	-0.251795	-0.716294
C222	C	1.643962	-0.001795	-0.466294
C223	C	1.893962	0.248205	-0.216294
C224	C	2.143962	0.498205	0.033706
C225	C	1.393992	-0.251775	-0.823508
C226	C	1.643992	-0.001775	-0.573508
C227	C	1.893992	0.248225	-0.323508
C228	C	2.143992	0.498225	-0.073508
C229	C	1.394057	-0.115468	-0.464798
C230	C	1.644057	0.134532	-0.214798
C231	C	1.894057	0.384532	0.035202
C232	C	2.144057	0.634532	0.285202
C233	C	1.394127	-0.057354	-0.464839
C234	C	1.644127	0.192646	-0.214839
C235	C	1.894127	0.442646	0.035161
C236	C	2.144127	0.692646	0.285161
C237	C	1.394018	-0.251740	-1.019803
C238	C	1.644018	-0.001740	-0.769803
C239	C	1.894018	0.248260	-0.519803
C240	C	2.144018	0.498260	-0.269803
C241	C	1.394000	-0.251761	-0.910571
C242	C	1.644000	-0.001761	-0.660571
C243	C	1.894000	0.248239	-0.410571
C244	C	2.144000	0.498239	-0.160571
C245	C	1.393881	-0.251849	-0.214087
C246	C	1.643881	-0.001849	0.035913
C247	C	1.893881	0.248151	0.285913
C248	C	2.143881	0.498151	0.535913
C249	C	1.394039	-0.251722	-0.106873
C250	C	1.644039	-0.001722	0.143127
C251	C	1.894039	0.248278	0.393127
C252	C	2.144039	0.498278	0.643127
H253	H	1.505659	-0.450763	-0.576653
H254	H	1.755659	-0.200763	-0.326653
H255	H	2.005659	0.049237	-0.076653
H256	H	2.255659	0.299237	0.173347
H257	H	1.567493	-0.800926	-0.638540
H258	H	1.817493	-0.550926	-0.388540
H259	H	2.067493	-0.300926	-0.138540
H260	H	2.317493	-0.050926	0.111460
H261	H	1.282273	-1.052381	-0.352799
H262	H	1.532273	-0.802381	-0.102799
H263	H	1.782273	-0.552381	0.147201
H264	H	2.032273	-0.302381	0.397201
H265	H	1.505701	-0.549814	-0.576714
H266	H	1.755701	-0.299814	-0.326714
H267	H	2.005701	-0.049814	-0.076714
H268	H	2.255701	0.200186	0.173286
H269	H	1.567444	-0.701879	-0.638500
H270	H	1.817444	-0.451879	-0.388500
H271	H	2.067444	-0.201879	-0.138500
H272	H	2.317444	0.048121	0.111500
H273	H	1.505983	-1.052176	-0.576864
H274	H	1.755983	-0.802176	-0.326864
H275	H	2.005983	-0.552176	-0.076864
H276	H	2.255983	-0.302176	0.173136
H277	H	1.505936	-0.953110	-0.576837
H278	H	1.755936	-0.703110	-0.326837
H279	H	2.005936	-0.453110	-0.076837
H280	H	2.255936	-0.203110	0.173163
H281	H	1.282202	-0.953331	-0.352779
H282	H	1.532202	-0.703331	-0.102779
H283	H	1.782202	-0.453331	0.147221
H284	H	2.032202	-0.203331	0.397221
H285	H	1.220442	-0.801256	-0.290999
H286	H	1.470442	-0.551256	-0.040999
H287	H	1.720442	-0.301256	0.209001
H288	H	1.970442	-0.051256	0.459001
H289	H	1.281986	-0.550044	-0.352632
H290	H	1.531986	-0.300044	-0.102632
H291	H	1.781986	-0.050044	0.147368
H292	H	2.031986	0.199956	0.397368
H293	H	1.220384	-0.702206	-0.290979
H294	H	1.470384	-0.452206	-0.040979
H295	H	1.720384	-0.202206	0.209021
H296	H	1.970384	0.047794	0.459021
H297	H	1.281936	-0.450978	-0.352603
H298	H	1.531936	-0.200978	-0.102603
H299	H	1.781936	0.049022	0.147397
H300	H	2.031936	0.299022	0.397397
