data_functionalizedCrystal
_audit_creation_method	'MofGen! by Chris Wilmer'
_symmetry_space_group_name_H-M	'P1'
_symmetry_Int_Tables_number	1
_symmetry_cell_setting	triclinic
loop_
_symmetry_equiv_pos_as_xyz
  x,y,z
_cell_length_a	14.421503
_cell_length_b	16.992694
_cell_length_c	15.944493
_cell_angle_alpha	92.928367
_cell_angle_beta	89.989835
_cell_angle_gamma	89.997471
loop_
_atom_site_label
_atom_site_type_symbol
_atom_site_fract_x
_atom_site_fract_y
_atom_site_fract_z
O1	O	0.076976	-1.040371	0.178099
O2	O	0.077003	-0.812086	0.176145
O3	O	0.076996	-0.932486	0.055264
O4	O	0.076982	-0.919971	0.298980
O5	O	-0.077227	-0.932466	0.055281
O6	O	-0.077220	-0.812066	0.176163
O7	O	-0.077248	-1.040351	0.178117
Cu8	Cu	-0.091316	-0.926207	0.177142
Cu9	Cu	0.091071	-0.926230	0.177120
O10	O	-0.077241	-0.919951	0.298998
C11	C	-0.000105	-0.782864	0.173640
C12	C	-0.000094	-0.695821	0.166140
C13	C	-0.000111	-0.931964	0.023943
C14	C	-0.000099	-0.930431	-0.069408
N15	N	-0.219597	-0.926196	0.177156
C16	C	-0.469248	-0.870513	0.233024
C17	C	-0.531060	-0.941361	0.254084
C18	C	-0.408759	-0.926215	0.177137
C19	C	-0.531040	-0.855385	0.156099
C20	C	-0.591480	-0.926227	0.177121
C21	C	-0.469210	-0.997099	0.198237
C22	C	-0.469185	-0.911076	0.100216
C23	C	-0.530969	-0.981975	0.121247
C24	C	-0.303497	-0.926207	0.177149
C25	C	-0.696739	-0.926243	0.177109
N26	N	0.219352	-0.926247	0.177099
C27	C	-0.000138	-1.069573	0.180622
C28	C	-0.000143	-1.156616	0.188122
C29	C	-0.000099	-0.645570	0.238506
C30	C	-0.000111	-0.563784	0.231454
C31	C	-0.000112	-0.532251	0.152035
C32	C	-0.000110	-0.582508	0.079664
C33	C	-0.000104	-0.664292	0.086717
C34	C	-0.000135	-0.288657	0.122803
C35	C	-0.000138	-0.206867	0.115756
C36	C	-0.000141	-0.188149	0.267547
C37	C	-0.000130	-0.269935	0.274593
C38	C	-0.000132	-0.320185	0.202221
N39	N	-0.000122	-0.448653	0.144825
N40	N	-0.000129	-0.403781	0.209433
C41	C	-0.000126	-1.001301	-0.300415
C42	C	0.075919	-0.963093	-0.353555
C43	C	-0.000110	-0.927589	-0.240320
C44	C	-0.076133	-0.963056	-0.353515
C45	C	-0.000125	-0.924850	-0.405413
C46	C	0.075997	-0.889401	-0.292230
C47	C	-0.076124	-0.889375	-0.292186
C48	C	-0.000061	-0.851113	-0.345296
C49	C	-0.000101	-0.929169	-0.145214
C50	C	-0.000128	-0.923264	-0.500516
C51	C	-0.000131	-0.920472	0.330319
C52	C	-0.000137	-0.922006	0.423670
H53	H	-0.442147	-0.823455	0.280330
H54	H	-0.000141	-0.147227	0.326467
H55	H	-0.442165	-1.057016	0.216101
Br56	Br	-0.183280	-1.014950	-0.398242
H57	H	-0.557900	-1.029137	0.073978
H58	H	0.140355	-0.858298	-0.265504
H59	H	-0.000012	-0.787571	-0.365024
H60	H	-0.441985	-0.898238	0.035191
Br61	Br	-0.576313	-0.755542	0.126452
H62	H	-0.558238	-0.954177	0.319128
Br63	Br	-0.000118	-0.312724	0.382379
Br64	Br	-0.183272	-0.837538	-0.247355
H65	H	-0.000097	-0.671237	0.303177
H66	H	0.140202	-0.994231	-0.380420
Br67	Br	-0.000018	-1.107126	-0.267266
Br68	Br	-0.000115	-0.495589	0.329670
Br69	Br	-0.000159	-0.164072	0.007966
Br70	Br	-0.000120	-0.539714	-0.028121
Br71	Br	-0.000141	-0.356844	0.024584
Br72	Br	-0.000106	-0.732491	-0.011498
