data_functionalizedCrystal
_audit_creation_method	'MofGen! by Chris Wilmer'
_symmetry_space_group_name_H-M	'P1'
_symmetry_Int_Tables_number	1
_symmetry_cell_setting	triclinic
loop_
_symmetry_equiv_pos_as_xyz
  x,y,z
_cell_length_a	6.817900
_cell_length_b	11.102183
_cell_length_c	10.992410
_cell_angle_alpha	91.891880
_cell_angle_beta	108.764651
_cell_angle_gamma	108.603876
loop_
_atom_site_label
_atom_site_type_symbol
_atom_site_fract_x
_atom_site_fract_y
_atom_site_fract_z
V1	V	-4.113408	-0.175839	-0.400591
O2	O	-4.072416	0.008450	-0.392968
O3	O	-4.090162	-0.348658	-0.397849
O4	O	-4.091013	-0.173134	-0.575303
O5	O	-4.071559	-0.168290	-0.214285
V6	V	-4.590407	-0.153796	-0.378307
O7	O	-4.388978	-0.224192	-0.449471
O8	O	-4.765035	-0.105442	-0.329427
O9	O	-4.390447	0.019024	-0.381049
O10	O	-4.748796	-0.338084	-0.385931
O11	O	-4.749654	-0.161344	-0.564614
O12	O	-4.389596	-0.156500	-0.203595
C13	C	-3.940440	-0.390788	-0.391529
C14	C	-4.002894	-0.532070	-0.390452
C15	C	-3.941525	-0.166887	-0.617888
C16	C	-4.004665	-0.165820	-0.760716
C17	C	-3.881428	-0.495793	-0.155125
C18	C	-3.850033	-0.544028	-0.036960
C19	C	-3.908721	-0.676776	-0.035955
C20	C	-3.998819	-0.761294	-0.153127
C21	C	-4.030214	-0.713059	-0.271292
C22	C	-3.971512	-0.580306	-0.272285
C23	C	-4.151693	-0.749336	-0.506616
C24	C	-4.092991	-0.616588	-0.507624
C25	C	-4.241790	-0.833854	-0.623789
C26	C	-4.273172	-0.785619	-0.741956
C27	C	-4.214475	-0.652862	-0.742956
C28	C	-4.124386	-0.568353	-0.625789
C29	C	-3.871834	-0.156089	-0.955840
C30	C	-3.806276	-0.157727	-0.807357
C31	C	-4.202082	-0.291130	-0.837819
C32	C	-4.266401	-0.290022	-0.986385
C33	C	-4.145326	-0.047376	-0.948357
C34	C	-4.074620	-0.046781	-0.799344
C35	C	-4.203511	0.061147	-0.387366
C36	C	-4.120298	0.202428	-0.388452
C37	C	-4.202426	-0.162751	-0.161004
C38	C	-4.118523	-0.163812	-0.018174
H39	H	-3.833575	-0.387699	-0.155930
H40	H	-3.755064	-0.065366	-0.974670
Cl41	Cl	-4.547302	-0.306819	-1.052207
H42	H	-4.346542	-0.854443	-0.837348
Cl43	Cl	-3.854129	0.096344	-0.718518
H44	H	-3.776676	-0.475200	0.058439
H45	H	-4.046626	-0.869384	-0.152299
H46	H	-4.324288	-0.051930	-0.989197
Cl47	Cl	-3.717388	-0.288695	-0.769035
Cl48	Cl	-4.315588	-1.000739	-0.622526
Cl49	Cl	-4.434184	-0.307265	-0.793357
H50	H	-4.042866	0.047782	-0.968716
Cl51	Cl	-3.869266	-0.737419	0.112595
H52	H	-4.240073	-0.613600	-0.839181
H53	H	-4.076555	-0.460259	-0.626591
H54	H	-4.216740	-0.045310	-0.766832
Cl55	Cl	-3.577683	-0.018637	-0.725000
Cl56	Cl	-3.832706	-0.285257	-1.029924
Cl57	Cl	-4.241725	-0.426138	-1.057827
Cl58	Cl	-4.130789	-0.427587	-0.798289
