data_functionalizedCrystal
_audit_creation_method	'MofGen! by Chris Wilmer'
_symmetry_space_group_name_H-M	'P1'
_symmetry_Int_Tables_number	1
_symmetry_cell_setting	triclinic
loop_
_symmetry_equiv_pos_as_xyz
  x,y,z
_cell_length_a	12.594517
_cell_length_b	25.639240
_cell_length_c	12.594509
_cell_angle_alpha	90.029110
_cell_angle_beta	90.021327
_cell_angle_gamma	90.031859
loop_
_atom_site_label
_atom_site_type_symbol
_atom_site_fract_x
_atom_site_fract_y
_atom_site_fract_z
Zn1	Zn	1.627149	-0.208138	0.601854
Zn2	Zn	1.626990	-0.295580	0.423872
Zn3	Zn	1.449152	-0.208160	0.423882
Zn4	Zn	1.449085	-0.295544	0.601802
O5	O	1.538094	-0.251855	0.512853
O6	O	1.776073	-0.219743	0.578261
O7	O	1.603361	-0.284008	0.274928
O8	O	1.472859	-0.134992	0.447516
O9	O	1.775957	-0.283986	0.447499
O10	O	1.603632	-0.134976	0.578271
O11	O	1.472705	-0.219781	0.274935
O12	O	1.300198	-0.219746	0.447467
O13	O	1.472744	-0.283925	0.750755
O14	O	1.300148	-0.283946	0.578184
O15	O	1.603566	-0.219708	0.750793
O16	O	1.603296	-0.368740	0.447449
O17	O	1.472590	-0.368714	0.578174
C18	C	1.261553	-0.251845	0.512821
C19	C	1.143248	-0.251853	0.512833
C20	C	1.537947	-0.387698	0.512828
C21	C	1.537981	-0.445812	0.512853
C22	C	1.073990	-0.216887	0.441872
C23	C	1.003152	-0.264579	0.415690
C24	C	1.003287	-0.204184	0.539033
C25	C	1.073968	-0.299570	0.486601
C26	C	1.074108	-0.239144	0.609988
C27	C	1.003302	-0.286868	0.583844
C28	C	1.606181	-0.696946	0.581006
C29	C	1.606149	-0.642341	0.580998
O30	O	1.664013	-0.614054	0.638909
N31	N	1.538098	-0.615086	0.512866
C32	C	1.470082	-0.642438	0.444731
O33	O	1.412196	-0.614241	0.386778
C34	C	1.470120	-0.697041	0.444734
C35	C	1.538168	-0.724294	0.512878
C36	C	1.674225	-0.724198	0.649143
C37	C	1.674255	-0.778799	0.649153
C38	C	1.606242	-0.806147	0.581024
C39	C	1.538198	-0.778894	0.512887
C40	C	1.402110	-0.724392	0.376594
C41	C	1.402154	-0.778999	0.376603
C42	C	1.470202	-0.806251	0.444747
C43	C	1.470215	-0.860842	0.444768
N44	N	1.538267	-0.888098	0.512900
C45	C	1.606280	-0.860750	0.581028
C46	C	1.470008	-0.527767	0.444727
C47	C	1.469964	-0.473165	0.444729
C48	C	1.606033	-0.473072	0.580995
C49	C	1.606071	-0.527675	0.580998
C50	C	1.538059	-0.555022	0.512859
C51	C	1.606338	-0.975415	0.581043
C52	C	1.606359	-1.030020	0.581049
C53	C	1.470294	-1.030108	0.444779
C54	C	1.470268	-0.975508	0.444777
C55	C	1.538299	-0.948162	0.512912
O56	O	1.412384	-0.889165	0.386884
O57	O	1.664166	-0.888954	0.638961
C58	C	1.815715	-0.251866	0.512885
C59	C	1.934020	-0.251871	0.512898
C60	C	1.538165	-0.251810	0.790474
C61	C	1.538196	-0.251790	0.908779
C62	C	1.538271	-0.115482	0.512900
C63	C	1.538346	-0.057368	0.512921
C64	C	1.538084	-0.251863	0.236312
C65	C	1.538260	-0.251736	0.118007
C66	C	1.467064	-0.286698	0.978012
C67	C	1.564177	-0.299473	1.048802
C68	C	1.441158	-0.238984	1.048788
C69	C	1.635360	-0.264590	0.978011
C70	C	1.512275	-0.204079	0.977991
C71	C	1.609456	-0.216836	1.048749
H72	H	1.105028	-0.187346	0.381788
H73	H	1.359068	-0.228175	1.079879
H74	H	1.661478	-0.549861	0.636491
H75	H	1.414917	-1.052385	0.389314
H76	H	0.971987	-0.275340	0.333556
C77	C	1.385877	-0.326641	0.936027
N78	N	1.324738	-0.356728	0.904395
H79	H	0.972459	-0.316480	0.643881
C80	C	1.746291	-0.279260	0.936190
N81	N	1.829841	-0.290311	0.904688
H82	H	1.586135	-0.339798	1.079906
H83	H	1.105299	-0.228368	0.692098
C84	C	1.115733	-0.354056	0.456564
N85	N	1.147194	-0.395093	0.433936
H86	H	1.661415	-0.450796	0.636467
C87	C	0.961346	-0.149713	0.568938
N88	N	0.929761	-0.108685	0.591455
H89	H	1.661771	-1.052207	0.636546
H90	H	1.490288	-0.163765	0.946864
H91	H	1.661736	-0.953157	0.636523
C92	C	1.749133	-0.808770	0.724098
N93	N	1.805542	-0.831340	0.780544
H94	H	1.729614	-0.701936	0.704621
C95	C	1.690850	-0.176923	1.090448
N96	N	1.752159	-0.146863	1.121857
C97	C	1.395086	-0.443193	0.369785
N98	N	1.338686	-0.420620	0.313333
C99	C	1.395171	-0.557844	0.369778
N100	N	1.338803	-0.580495	0.313326
C101	C	1.327232	-0.694426	0.301647
N102	N	1.270824	-0.671857	0.245198
H103	H	1.346770	-0.801262	0.321113
C104	C	1.395419	-0.945529	0.369809
N105	N	1.339052	-0.922953	0.313330
