data_functionalizedCrystal
_audit_creation_method	'MofGen! by Chris Wilmer'
_symmetry_space_group_name_H-M	'P1'
_symmetry_Int_Tables_number	1
_symmetry_cell_setting	triclinic
loop_
_symmetry_equiv_pos_as_xyz
  x,y,z
_cell_length_a	16.625548
_cell_length_b	13.897441
_cell_length_c	13.897448
_cell_angle_alpha	90.030599
_cell_angle_beta	90.018760
_cell_angle_gamma	90.021870
loop_
_atom_site_label
_atom_site_type_symbol
_atom_site_fract_x
_atom_site_fract_y
_atom_site_fract_z
Zn1	Zn	1.232718	0.545410	-0.383957
Zn2	Zn	1.232629	0.384112	-0.545278
Zn3	Zn	1.097876	0.384126	-0.384002
Zn4	Zn	1.097861	0.545361	-0.545214
O5	O	1.165271	0.464752	-0.464613
O6	O	1.345538	0.524029	-0.405364
O7	O	1.214723	0.249132	-0.523930
O8	O	1.115807	0.405547	-0.249014
O9	O	1.345473	0.405523	-0.523886
O10	O	1.214874	0.524042	-0.248981
O11	O	1.115721	0.249142	-0.405441
O12	O	0.985042	0.405499	-0.405379
O13	O	1.115781	0.680349	-0.523777
O14	O	0.985031	0.523958	-0.523821
O15	O	1.214859	0.680386	-0.405302
O16	O	1.214708	0.405476	-0.680251
O17	O	1.115695	0.523945	-0.680204
C18	C	0.955780	0.464725	-0.464599
C19	C	0.866159	0.464737	-0.464616
C20	C	1.165328	0.716345	-0.464528
C21	C	1.165353	0.823559	-0.464491
C22	C	1.165212	0.464724	-0.715227
C23	C	1.165261	0.464745	-0.822441
C24	C	0.537983	0.464778	-0.464623
C25	C	0.629292	0.464763	-0.464618
C26	C	0.702068	0.464757	-0.464620
C27	C	0.793383	0.464743	-0.464615
C28	C	1.375580	0.464780	-0.464627
C29	C	1.465201	0.464792	-0.464634
C30	C	1.165260	0.214138	-0.464628
C31	C	1.165392	0.106925	-0.464393
C32	C	1.165374	1.019855	-0.464426
C33	C	1.165360	0.910622	-0.464465
C34	C	1.165345	0.464805	-1.018736
C35	C	1.165296	0.464774	-0.909504
C36	C	1.165352	0.464801	-0.213020
C37	C	1.165387	0.464822	-0.105806
