data_functionalizedCrystal
_audit_creation_method	'MofGen! by Chris Wilmer'
_symmetry_space_group_name_H-M	'P1'
_symmetry_Int_Tables_number	1
_symmetry_cell_setting	triclinic
loop_
_symmetry_equiv_pos_as_xyz
  x,y,z
_cell_length_a	6.817900
_cell_length_b	23.337814
_cell_length_c	16.305550
_cell_angle_alpha	86.236131
_cell_angle_beta	76.544750
_cell_angle_gamma	106.166730
loop_
_atom_site_label
_atom_site_type_symbol
_atom_site_fract_x
_atom_site_fract_y
_atom_site_fract_z
V1	V	-4.038708	-0.082870	0.261333
O2	O	-4.013320	0.003465	0.258095
O3	O	-4.002333	-0.163820	0.257876
O4	O	-3.989956	-0.081822	0.376072
O5	O	-4.025782	-0.079100	0.139081
V6	V	-4.520823	-0.072516	0.246914
O7	O	-4.303054	-0.105581	0.292963
O8	O	-4.706675	-0.049805	0.215284
O9	O	-4.333992	0.008434	0.250371
O10	O	-4.663608	-0.158851	0.250152
O11	O	-4.651146	-0.076286	0.369166
O12	O	-4.346368	-0.073564	0.132175
C13	C	-3.850270	-0.183546	0.253322
C14	C	-3.901813	-0.249725	0.251260
C15	C	-3.834482	-0.078949	0.404092
C16	C	-3.875985	-0.078628	0.497880
C17	C	-4.149411	0.028157	0.254924
C18	C	-4.075757	0.095578	0.257042
C19	C	-4.089284	-0.490196	0.243806
C20	C	-3.849208	-0.461373	0.239892
C21	C	-3.795261	-0.392498	0.241703
C22	C	-3.996276	-0.370896	0.247505
C23	C	-4.081933	-0.388648	0.168473
C24	C	-4.134141	-0.457476	0.166239
C25	C	-4.225111	-0.475661	0.327142
C26	C	-4.167880	-0.406849	0.330249
C27	C	-3.943723	-0.303472	0.249592
C28	C	-4.141841	-0.557619	0.241714
V29	V	-4.215486	0.205269	0.252771
O30	O	-4.158692	0.293120	0.247479
O31	O	-4.211096	0.120947	0.253903
O32	O	-4.198078	0.202920	0.372133
O33	O	-4.171800	0.210579	0.128431
V34	V	-4.656965	0.232551	0.215250
O35	O	-4.477968	0.190466	0.273601
O36	O	-4.813687	0.262695	0.173484
O37	O	-4.453515	0.309268	0.224499
O38	O	-4.823074	0.148701	0.215083
O39	O	-4.809966	0.231242	0.334131
O40	O	-4.466533	0.227294	0.106269
C41	C	-4.165185	-0.076439	0.104151
C42	C	-4.102920	-0.076757	0.010362
C43	C	-4.275363	0.323164	0.237006
C44	C	-4.183747	0.388634	0.240051
C45	C	-4.059161	0.200142	0.407862
C46	C	-4.120884	0.200445	0.501666
C47	C	-4.026885	-0.077384	0.838651
C48	C	-3.790282	-0.073690	0.797798
C49	C	-3.747175	-0.074271	0.700292
C50	C	-3.952020	-0.078001	0.669591
C51	C	-4.127895	-0.136796	0.719012
C52	C	-4.169709	-0.136463	0.816569
C53	C	-4.073425	-0.022753	0.793927
C54	C	-4.025425	-0.022288	0.696094
C55	C	-3.909723	-0.078352	0.574045
C56	C	-4.069192	-0.077037	0.934197
C57	C	-4.291969	0.218599	0.086191
C58	C	-4.210912	0.217592	-0.006648
C59	C	-4.322031	0.203686	0.541664
C60	C	-4.380043	0.203979	0.629800
C61	C	-4.236910	0.201026	0.677937
C62	C	-4.035744	0.197787	0.637934
C63	C	-3.977730	0.197498	0.549798
C64	C	-4.014678	0.208132	-0.037814
C65	C	-3.938482	0.207190	-0.125045
C66	C	-4.058530	0.215705	-0.181108
C67	C	-4.254779	0.225168	-0.149937
C68	C	-4.330965	0.226114	-0.062708
H69	H	-3.727233	-0.380667	0.298157
H70	H	-3.614321	-0.031997	0.666134
H71	H	-3.919220	0.195383	0.677141
H72	H	-3.996405	0.214974	-0.252141
F73	F	-4.364252	-0.388578	0.342108
H74	H	-4.352502	0.232103	-0.195597
H75	H	-3.813938	0.194856	0.517240
F76	F	-3.729622	0.197114	-0.158202
F77	F	-4.454516	-0.500567	0.332023
F78	F	-3.886877	0.199068	0.021838
F79	F	-3.624708	-0.360584	0.164014
H80	H	-3.751094	-0.112940	0.828506
F81	F	-4.217788	-0.021327	0.668205
H82	H	-4.344320	-0.141619	0.844455
H83	H	-3.897839	0.021200	0.662607
H84	H	-4.490762	0.233815	-0.037340
H85	H	-4.200907	-0.498718	0.386200
H86	H	-4.139783	-0.177820	0.846103
H87	H	-4.229844	-0.374640	0.169667
H88	H	-3.806623	-0.482989	0.295316
H89	H	-3.677756	-0.031217	0.811032
H90	H	-4.036369	-0.465472	0.103612
F91	F	-3.713773	-0.473674	0.161367
F92	F	-3.945207	0.035475	0.812595
H93	H	-4.438606	0.206088	0.502481
H94	H	-4.107361	-0.395887	0.388676
F95	F	-4.594153	0.207422	0.672359
F96	F	-3.668169	-0.126168	0.677928
H97	H	-4.307019	-0.476419	0.165732
H98	H	-4.281782	-0.141652	0.700000
H99	H	-3.960123	-0.363398	0.107187
H100	H	-4.284177	0.201262	0.749702
F101	F	-4.063579	-0.190868	0.695930
H102	H	-4.245818	-0.024937	0.820698
