data_functionalizedCrystal
_audit_creation_method	'MofGen! by Chris Wilmer'
_symmetry_space_group_name_H-M	'P1'
_symmetry_Int_Tables_number	1
_symmetry_cell_setting	triclinic
loop_
_symmetry_equiv_pos_as_xyz
  x,y,z
_cell_length_a	18.215407
_cell_length_b	21.295417
_cell_length_c	21.295411
_cell_angle_alpha	89.978356
_cell_angle_beta	89.977780
_cell_angle_gamma	90.027950
loop_
_atom_site_label
_atom_site_type_symbol
_atom_site_fract_x
_atom_site_fract_y
_atom_site_fract_z
Zn1	Zn	1.125078	-0.250724	-0.355872
Zn2	Zn	1.458412	0.082609	-0.022539
Zn3	Zn	1.791745	0.415943	0.310795
Zn4	Zn	1.124964	-0.355976	-0.250597
Zn5	Zn	1.458298	-0.022642	0.082736
Zn6	Zn	1.791631	0.310691	0.416069
Zn7	Zn	1.002001	-0.250720	-0.250621
Zn8	Zn	1.335334	0.082614	0.082712
Zn9	Zn	1.668667	0.415947	0.416045
Zn10	Zn	1.001965	-0.355954	-0.355833
Zn11	Zn	1.335298	-0.022621	-0.022500
Zn12	Zn	1.668631	0.310712	0.310833
O13	O	1.063502	-0.303343	-0.303231
O14	O	1.396835	0.029990	0.030102
O15	O	1.730169	0.363323	0.363436
O16	O	1.228047	-0.264696	-0.341913
O17	O	1.561381	0.068637	-0.008580
O18	O	1.894714	0.401970	0.324753
O19	O	1.108620	-0.342020	-0.162511
O20	O	1.441953	-0.008687	0.170822
O21	O	1.775287	0.324646	0.504155
O22	O	1.018390	-0.162631	-0.264609
O23	O	1.351723	0.170703	0.068724
O24	O	1.685056	0.504036	0.402057
O25	O	1.227964	-0.342025	-0.264569
O26	O	1.561297	-0.008691	0.068765
O27	O	1.894630	0.324642	0.402098
O28	O	1.108815	-0.162634	-0.341937
O29	O	1.442148	0.170699	-0.008603
O30	O	1.775481	0.504033	0.324730
O31	O	1.018279	-0.264689	-0.162529
O32	O	1.351612	0.068644	0.170805
O33	O	1.684946	0.401977	0.504138
O34	O	0.899012	-0.264669	-0.264572
O35	O	1.232345	0.068665	0.068761
O36	O	1.565678	0.401998	0.402095
O37	O	1.018329	-0.341988	-0.443928
O38	O	1.351662	-0.008655	-0.110595
O39	O	1.684995	0.324678	0.222739
O40	O	0.898985	-0.341984	-0.341871
O41	O	1.232319	-0.008651	-0.008537
O42	O	1.565652	0.324683	0.324796
O43	O	1.108780	-0.264676	-0.443956
O44	O	1.442113	0.068658	-0.110623
O45	O	1.775447	0.401991	0.222710
O46	O	1.108585	-0.444062	-0.264531
O47	O	1.441919	-0.110729	0.068802
O48	O	1.775252	0.222604	0.402136
O49	O	1.018218	-0.444047	-0.341848
O50	O	1.351551	-0.110713	-0.008514
O51	O	1.684885	0.222620	0.324819
C52	C	0.872296	-0.303324	-0.303220
C53	C	1.205629	0.030009	0.030113
C54	C	1.538962	0.363343	0.363447
C55	C	0.790497	-0.303331	-0.303230
C56	C	1.123830	0.030002	0.030103
C57	C	1.457163	0.363336	0.363436
C58	C	0.602346	-0.263149	-0.343567
C59	C	0.935679	0.070184	-0.010234
C60	C	1.269012	0.403518	0.323099
C61	C	0.525487	-0.263155	-0.343569
C62	C	0.858820	0.070179	-0.010236
C63	C	1.192153	0.403512	0.323097
C64	C	0.525410	-0.343555	-0.262906
C65	C	0.858744	-0.010222	0.070427
C66	C	1.192077	0.323111	0.403761
C67	C	0.602268	-0.343546	-0.262901
C68	C	0.935601	-0.010213	0.070432
C69	C	1.268934	0.323120	0.403766
C70	C	0.640733	-0.303344	-0.303235
C71	C	0.974067	0.029989	0.030098
C72	C	1.307400	0.363323	0.363431
C73	C	0.487017	-0.303359	-0.303242
C74	C	0.820351	0.029975	0.030091
C75	C	1.153684	0.363308	0.363424
C76	C	0.403684	-0.303365	-0.303244
C77	C	0.737017	0.029969	0.030089
C78	C	1.070350	0.363302	0.363422
C79	C	0.724072	-0.303337	-0.303233
C80	C	1.057406	0.029996	0.030101
C81	C	1.390739	0.363330	0.363434
C82	C	1.063405	-0.466895	-0.303196
C83	C	1.396739	-0.133562	0.030137
C84	C	1.730072	0.199772	0.363470
C85	C	1.063432	-0.536863	-0.303202
C86	C	1.396765	-0.203530	0.030131
C87	C	1.730098	0.129804	0.363464
C88	C	1.110528	-0.569717	-0.262985
C89	C	1.443861	-0.236384	0.070348
C90	C	1.777194	0.096950	0.403682
C91	C	1.110562	-0.635460	-0.262999
C92	C	1.443895	-0.302126	0.070334
C93	C	1.777229	0.031207	0.403668
C94	C	1.063487	-0.668346	-0.303224
C95	C	1.396821	-0.335012	0.030109
C96	C	1.730154	-0.001679	0.363443
C97	C	1.016388	-0.635484	-0.343449
C98	C	1.349721	-0.302150	-0.010116
C99	C	1.683055	0.031183	0.323217
C100	C	1.016360	-0.569743	-0.343439
C101	C	1.349693	-0.236409	-0.010105
C102	C	1.683027	0.096924	0.323228
N103	N	0.999109	-0.771610	-0.308019
N104	N	1.332442	-0.438276	0.025314
N105	N	1.665776	-0.104943	0.358647
N106	N	0.999138	-0.834061	-0.308026
N107	N	1.332471	-0.500728	0.025307
N108	N	1.665804	-0.167395	0.358641
C109	C	1.063570	-0.866420	-0.303260
C110	C	1.396903	-0.533087	0.030073
C111	C	1.730236	-0.199754	0.363406
N112	N	1.127974	-0.833969	-0.298475
N113	N	1.461307	-0.500635	0.034858
N114	N	1.794640	-0.167302	0.368191
N115	N	1.127944	-0.771512	-0.298465
N116	N	1.461277	-0.438178	0.034868
N117	N	1.794611	-0.104845	0.368201
C118	C	1.063513	-0.739631	-0.303241
C119	C	1.396846	-0.406298	0.030093
C120	C	1.730179	-0.072964	0.363426
C121	C	1.110707	-0.970560	-0.263056
C122	C	1.444041	-0.637226	0.070277
C123	C	1.777374	-0.303893	0.403611
C124	C	1.110743	-1.036303	-0.263075
C125	C	1.444076	-0.702970	0.070259
C126	C	1.777410	-0.369637	0.403592
C127	C	1.016562	-1.036326	-0.343521
C128	C	1.349896	-0.702993	-0.010188
C129	C	1.683229	-0.369660	0.323145
C130	C	1.016533	-0.970584	-0.343506
C131	C	1.349867	-0.637251	-0.010173
C132	C	1.683200	-0.303917	0.323160
C133	C	1.063605	-0.937705	-0.303270
C134	C	1.396938	-0.604371	0.030063
C135	C	1.730271	-0.271038	0.363397
C136	C	1.255455	-0.303363	-0.303243
C137	C	1.588788	0.029970	0.030091
C138	C	1.922122	0.363303	0.363424
C139	C	1.337254	-0.303372	-0.303247
C140	C	1.670587	0.029962	0.030086
C141	C	2.003920	0.363295	0.363419
C142	C	1.063563	-0.303330	-0.467421
C143	C	1.396896	0.030003	-0.134088
C144	C	1.730230	0.363337	0.199245
C145	C	1.063589	-0.303324	-0.537390
C146	C	1.396922	0.030009	-0.204056
C147	C	1.730256	0.363342	0.129277
C148	C	1.063619	-0.139153	-0.303280
C149	C	1.396952	0.194180	0.030053
C150	C	1.730286	0.527514	0.363387
C151	C	1.063669	-0.069185	-0.303301
C152	C	1.397002	0.264148	0.030033
C153	C	1.730335	0.597482	0.363366
C154	C	1.110685	-0.263066	-0.570272
C155	C	1.444018	0.070267	-0.236939
C156	C	1.777352	0.403601	0.096395
C157	C	1.110684	-0.263039	-0.636015
C158	C	1.444017	0.070295	-0.302681
C159	C	1.777351	0.403628	0.030652
C160	C	1.063595	-0.303281	-0.668872
C161	C	1.396928	0.030052	-0.335539
C162	C	1.730261	0.363386	-0.002205
C163	C	1.016490	-0.343542	-0.635982
C164	C	1.349823	-0.010209	-0.302648
C165	C	1.683156	0.323124	0.030685
C166	C	1.016487	-0.343564	-0.570241
C167	C	1.349820	-0.010231	-0.236907
C168	C	1.683154	0.323103	0.096426
N169	N	1.057917	-0.358349	-0.772088
N170	N	1.391250	-0.025015	-0.438754
N171	N	1.724584	0.308318	-0.105421
N172	N	1.057924	-0.358326	-0.834539
N173	N	1.391257	-0.024993	-0.501206
N174	N	1.724591	0.308340	-0.167873
C175	C	1.063599	-0.303217	-0.866947
C176	C	1.396933	0.030116	-0.533614
C177	C	1.730266	0.363449	-0.200280
N178	N	1.069282	-0.248130	-0.834544
N179	N	1.402615	0.085203	-0.501211
N180	N	1.735949	0.418536	-0.167877
N181	N	1.069279	-0.248153	-0.772087
N182	N	1.402612	0.085180	-0.438753
N183	N	1.735946	0.418513	-0.105420
C184	C	1.063592	-0.303262	-0.740158
C185	C	1.396926	0.030071	-0.406824
C186	C	1.730259	0.363405	-0.073491
C187	C	1.110697	-0.262926	-0.971115
C188	C	1.444030	0.070407	-0.637782
C189	C	1.777363	0.403741	-0.304448
C190	C	1.110691	-0.262898	-1.036859
C191	C	1.444024	0.070436	-0.703525
C192	C	1.777357	0.403769	-0.370192
C193	C	1.016500	-0.343407	-1.036825
C194	C	1.349834	-0.010073	-0.703491
C195	C	1.683167	0.323260	-0.370158
C196	C	1.016503	-0.343429	-0.971082
C197	C	1.349836	-0.010096	-0.637749
C198	C	1.683169	0.323237	-0.304416
C199	C	1.063605	-0.303190	-0.938231
C200	C	1.396938	0.030143	-0.604898
C201	C	1.730271	0.363477	-0.271565
C202	C	1.063483	-0.303311	-0.139680
C203	C	1.396817	0.030022	0.193654
C204	C	1.730150	0.363355	0.526987
C205	C	1.063600	-0.303140	-0.069712
C206	C	1.396933	0.030194	0.263622
C207	C	1.730267	0.363527	0.596955
H208	H	1.148858	-0.542949	-0.230224
H209	H	1.482191	-0.209615	0.103109
H210	H	1.815524	0.123718	0.436443
F211	F	0.643281	-0.220361	-0.386493
F212	F	0.976614	0.112973	-0.053159
F213	F	1.309948	0.446306	0.280174
F214	F	1.160690	-0.670432	-0.220192
F215	F	1.494023	-0.337099	0.113141
F216	F	1.827356	-0.003766	0.446475
F217	F	0.643125	-0.386324	-0.219967
F218	F	0.976459	-0.052991	0.113367
F219	F	1.309792	0.280342	0.446700
H220	H	0.978061	-0.662264	-0.376202
H221	H	1.311394	-0.328931	-0.042869
H222	H	1.644728	0.004403	0.290465
H223	H	0.978008	-0.542992	-0.376189
H224	H	1.311342	-0.209659	-0.042856
H225	H	1.644675	0.123674	0.290478
H226	H	1.149038	-0.943788	-0.230295
H227	H	1.482371	-0.610455	0.103038
H228	H	1.815705	-0.277122	0.436371
H229	H	1.149099	-1.063052	-0.230326
H230	H	1.482432	-0.729719	0.103007
H231	H	1.815765	-0.396385	0.436341
F232	F	1.160800	-0.220178	-0.671018
F233	F	1.494133	0.113155	-0.337684
F234	F	1.827466	0.446488	-0.004351
H235	H	0.978236	-1.063102	-0.376276
H236	H	1.311570	-0.729768	-0.042943
H237	H	1.644903	-0.396435	0.290390
F238	F	1.160812	-0.220237	-0.535313
F239	F	1.494146	0.113097	-0.201980
F240	F	1.827479	0.446430	0.131353
F241	F	0.966404	-0.935617	-0.386309
F242	F	1.299737	-0.602284	-0.052976
F243	F	1.633070	-0.268950	0.280357
H244	H	0.494082	-0.376287	-0.230068
H245	H	0.827416	-0.042954	0.103265
H246	H	1.160749	0.290380	0.436599
H247	H	1.149040	-0.230111	-1.063631
H248	H	1.482374	0.103223	-0.730297
H249	H	1.815707	0.436556	-0.396964
H250	H	0.978156	-0.376216	-0.944309
H251	H	1.311490	-0.042883	-0.610976
H252	H	1.644823	0.290451	-0.277642
F253	F	0.966372	-0.386369	-0.670952
F254	F	1.299705	-0.053036	-0.337619
F255	F	1.633039	0.280298	-0.004285
H256	H	0.978132	-0.376346	-0.543468
H257	H	1.311466	-0.043013	-0.210135
H258	H	1.644799	0.290320	0.123199
F259	F	1.160823	-0.220098	-0.936150
F260	F	1.494156	0.113236	-0.602817
F261	F	1.827490	0.446569	-0.269484
F262	F	0.966379	-0.386231	-1.071790
F263	F	1.299712	-0.052898	-0.738457
F264	F	1.633045	0.280435	-0.405123
H265	H	0.494235	-0.230423	-0.376411
H266	H	0.827568	0.102911	-0.043077
H267	H	1.160901	0.436244	0.290256
