data_functionalizedCrystal
_audit_creation_method	'MofGen! by Chris Wilmer'
_symmetry_space_group_name_H-M	'P1'
_symmetry_Int_Tables_number	1
_symmetry_cell_setting	triclinic
loop_
_symmetry_equiv_pos_as_xyz
  x,y,z
_cell_length_a	18.215407
_cell_length_b	10.686285
_cell_length_c	18.215399
_cell_angle_alpha	85.606976
_cell_angle_beta	89.985640
_cell_angle_gamma	85.629207
loop_
_atom_site_label
_atom_site_type_symbol
_atom_site_fract_x
_atom_site_fract_y
_atom_site_fract_z
Zn1	Zn	1.147622	-0.502418	-0.393651
Zn2	Zn	1.647622	-0.002418	0.106349
Zn3	Zn	1.157017	-0.713445	-0.261170
Zn4	Zn	1.657017	-0.213445	0.238830
Zn5	Zn	1.024563	-0.502457	-0.270602
Zn6	Zn	1.524563	-0.002457	0.229398
Zn7	Zn	1.033997	-0.713354	-0.384204
Zn8	Zn	1.533997	-0.213354	0.115796
O9	O	1.090800	-0.607919	-0.327407
O10	O	1.590800	-0.107919	0.172593
O11	O	1.251853	-0.530433	-0.376083
O12	O	1.751853	-0.030433	0.123917
O13	O	1.139431	-0.685511	-0.159434
O14	O	1.639431	-0.185511	0.340566
O15	O	1.033006	-0.325876	-0.294826
O16	O	1.533006	0.174124	0.205174
O17	O	1.258756	-0.685473	-0.278750
O18	O	1.758756	-0.185473	0.221250
O19	O	1.123417	-0.325847	-0.385230
O20	O	1.623417	0.174153	0.114770
O21	O	1.042117	-0.530499	-0.166364
O22	O	1.542117	-0.030499	0.333636
O23	O	0.922829	-0.530412	-0.285665
O24	O	1.422829	-0.030412	0.214335
O25	O	1.049086	-0.685319	-0.488444
O26	O	1.549086	-0.185319	0.011556
O27	O	0.929760	-0.685357	-0.369128
O28	O	1.429760	-0.185357	0.130872
O29	O	1.132565	-0.530345	-0.495385
O30	O	1.632565	-0.030345	0.004615
O31	O	1.148579	-0.890009	-0.269589
O32	O	1.648579	-0.390009	0.230411
O33	O	1.058196	-0.889943	-0.359982
O34	O	1.558196	-0.389943	0.140018
C35	C	0.899592	-0.607880	-0.327396
C36	C	1.399592	-0.107880	0.172604
C37	C	0.817793	-0.607894	-0.327407
C38	C	1.317793	-0.107894	0.172593
C39	C	0.626012	-0.527331	-0.378155
C40	C	1.126012	-0.027331	0.121845
C41	C	0.549153	-0.527341	-0.378157
C42	C	1.049153	-0.027341	0.121843
C43	C	0.556341	-0.688542	-0.276669
C44	C	1.056341	-0.188542	0.223331
C45	C	0.633198	-0.688524	-0.276665
C46	C	1.133198	-0.188524	0.223335
C47	C	0.668031	-0.607920	-0.327412
C48	C	1.168031	-0.107920	0.172588
C49	C	0.514316	-0.607949	-0.327418
C50	C	1.014316	-0.107949	0.172582
C51	C	0.430983	-0.607961	-0.327420
C52	C	0.930983	-0.107961	0.172580
C53	C	0.751369	-0.607906	-0.327409
C54	C	1.251369	-0.107906	0.172591
C55	C	1.105450	-0.935760	-0.312753
C56	C	1.605450	-0.435760	0.187247
C57	C	1.111786	-1.076012	-0.306508
C58	C	1.611786	-0.576012	0.193492
C59	C	1.282754	-0.607959	-0.327418
C60	C	1.782754	-0.107959	0.172582
C61	C	1.364554	-0.607976	-0.327423
C62	C	1.864554	-0.107976	0.172577
C63	C	1.090830	-0.607818	-0.519364
C64	C	1.590830	-0.107818	-0.019364
C65	C	1.090843	-0.607775	-0.601165
C66	C	1.590843	-0.107775	-0.101165
C67	C	1.076111	-0.278797	-0.342134
C68	C	1.576111	0.221203	0.157866
C69	C	1.069852	-0.138545	-0.348410
C70	C	1.569852	0.361455	0.151590
C71	C	1.040209	-0.527006	-0.792971
C72	C	1.540209	-0.027006	-0.292971
C73	C	1.040220	-0.526981	-0.869831
C74	C	1.540220	-0.026981	-0.369831
C75	C	1.141558	-0.688393	-0.862604
C76	C	1.641558	-0.188393	-0.362604
C77	C	1.141542	-0.688424	-0.785745
C78	C	1.641542	-0.188424	-0.285745
C79	C	1.090868	-0.607723	-0.750931
C80	C	1.590868	-0.107723	-0.250931
C81	C	1.090896	-0.607667	-0.904650
C82	C	1.590896	-0.107667	-0.404650
C83	C	1.090909	-0.607640	-0.987985
C84	C	1.590909	-0.107640	-0.487985
C85	C	1.090854	-0.607752	-0.667591
C86	C	1.590854	-0.107752	-0.167591
C87	C	1.090808	-0.607928	-0.136200
C88	C	1.590808	-0.107928	0.363800
C89	C	1.090921	-0.607616	-0.054416
C90	C	1.590921	-0.107616	0.445584
H91	H	0.514944	-0.461715	-0.419477
H92	H	1.014944	0.038285	0.080523
O93	O	1.196193	-0.775472	-0.740394
O94	O	1.696193	-0.275472	-0.240394
H95	H	1.231442	-0.831565	-0.777514
H96	H	1.731442	-0.331565	-0.277514
H97	H	1.029106	-1.084787	-0.389062
H98	H	1.529106	-0.584787	0.110938
H99	H	0.527971	-0.754168	-0.235353
H100	H	1.027971	-0.254168	0.264647
H101	H	0.998967	-0.461254	-0.904057
H102	H	1.498967	0.038746	-0.404057
H103	H	1.152530	-1.129778	-0.265849
H104	H	1.652530	-0.629778	0.234151
H105	H	1.182815	-0.754096	-0.890959
H106	H	1.682815	-0.254096	-0.390959
H107	H	0.667411	-0.754151	-0.235339
H108	H	1.167411	-0.254151	0.264661
O109	O	0.663585	-0.440381	-0.432877
O110	O	1.163585	0.059619	0.067123
H111	H	0.621450	-0.384333	-0.468156
H112	H	1.121450	0.115667	0.031844
H113	H	0.998947	-0.461295	-0.764628
H114	H	1.498947	0.038705	-0.264628
