data_functionalizedCrystal
_audit_creation_method	'MofGen! by Chris Wilmer'
_symmetry_space_group_name_H-M	'P1'
_symmetry_Int_Tables_number	1
_symmetry_cell_setting	triclinic
loop_
_symmetry_equiv_pos_as_xyz
  x,y,z
_cell_length_a	19.121102
_cell_length_b	16.959454
_cell_length_c	19.121605
_cell_angle_alpha	92.462434
_cell_angle_beta	94.993760
_cell_angle_gamma	87.574559
loop_
_atom_site_label
_atom_site_type_symbol
_atom_site_fract_x
_atom_site_fract_y
_atom_site_fract_z
Zn1	Zn	1.092651	-0.345938	0.443704
Zn2	Zn	1.592651	0.154062	0.943704
Zn3	Zn	1.087563	-0.483526	0.326045
Zn4	Zn	1.587563	0.016474	0.826045
Zn5	Zn	0.969976	-0.345951	0.321040
Zn6	Zn	1.469976	0.154049	0.821040
Zn7	Zn	0.974962	-0.472661	0.438659
Zn8	Zn	1.474962	0.027339	0.938659
O9	O	1.031288	-0.412019	0.382362
O10	O	1.531288	0.087981	0.882362
O11	O	1.190440	-0.368731	0.432303
O12	O	1.690440	0.131269	0.932303
O13	O	1.067748	-0.469828	0.226917
O14	O	1.567748	0.030172	0.726917
O15	O	0.986291	-0.235339	0.337328
O16	O	1.486291	0.264661	0.837328
O17	O	1.186702	-0.469816	0.345859
O18	O	1.686702	0.030184	0.845859
O19	O	1.076420	-0.235330	0.427449
O20	O	1.576420	0.264670	0.927449
O21	O	0.981358	-0.368752	0.223239
O22	O	1.481358	0.131248	0.723239
O23	O	0.872173	-0.358218	0.332435
O24	O	1.372173	0.141782	0.832435
O25	O	0.994790	-0.451299	0.537792
O26	O	1.494790	0.048701	1.037792
O27	O	0.875837	-0.451311	0.418850
O28	O	1.375837	0.048689	0.918850
O29	O	1.081255	-0.358196	0.541499
O30	O	1.581255	0.141804	1.041499
O31	O	1.072583	-0.592694	0.340967
O32	O	1.572583	-0.092694	0.840967
O33	O	0.989856	-0.584712	0.423704
O34	O	1.489856	-0.084712	0.923704
C35	C	1.031228	-0.617383	0.382347
C36	C	1.531228	-0.117383	0.882347
C37	C	1.031268	-0.705241	0.382367
C38	C	1.531268	-0.205241	0.882367
C39	C	0.848474	-0.403587	0.374552
C40	C	1.348474	0.096413	0.874552
C41	C	0.770266	-0.399999	0.371228
C42	C	1.270266	0.100001	0.871228
C43	C	0.988277	-1.072594	0.425441
C44	C	1.488277	-0.572594	0.925441
C45	C	1.074498	-1.080846	0.339363
C46	C	1.574498	-0.580846	0.839363
C47	C	1.074473	-0.998299	0.339355
C48	C	1.574473	-0.498299	0.839355
C49	C	1.031349	-0.952896	0.382390
C50	C	1.531349	-0.452896	0.882390
C51	C	0.988249	-0.990040	0.425433
C52	C	1.488249	-0.490040	0.925433
C53	C	1.117567	-0.961150	0.296309
C54	C	1.617567	-0.461150	0.796309
C55	C	1.117543	-0.878598	0.296299
C56	C	1.617543	-0.378598	0.796299
C57	C	1.074422	-0.833193	0.339338
C58	C	1.574422	-0.333193	0.839338
C59	C	1.031321	-0.870342	0.382383
C60	C	1.531321	-0.370342	0.882383
C61	C	0.988196	-0.824939	0.425418
C62	C	1.488196	-0.324939	0.925418
C63	C	0.945099	-0.862085	0.468467
C64	C	1.445099	-0.362085	0.968467
C65	C	0.945128	-0.944635	0.468472
C66	C	1.445128	-0.444635	0.968472
C67	C	1.074393	-0.750644	0.339332
C68	C	1.574393	-0.250644	0.839332
C69	C	0.988169	-0.742384	0.425410
C70	C	1.488169	-0.242384	0.925410
C71	C	0.735447	-0.446861	0.414587
C72	C	1.235447	0.053139	0.914587
C73	C	0.661963	-0.443479	0.411467
C74	C	1.161963	0.056521	0.911467
C75	C	0.623299	-0.393237	0.364984
C76	C	1.123299	0.106763	0.864984
C77	C	0.658124	-0.346370	0.321623
C78	C	1.158124	0.153630	0.821623
C79	C	0.731607	-0.349749	0.324747
C80	C	1.231607	0.150251	0.824747
C81	C	0.401331	-0.380602	0.353307
C82	C	0.901331	0.119398	0.853307
C83	C	0.327843	-0.377229	0.350185
C84	C	0.827843	0.122771	0.850185
C85	C	0.331687	-0.474337	0.440029
C86	C	0.831687	0.025663	0.940029
C87	C	0.405172	-0.477715	0.443146
C88	C	0.905172	0.022285	0.943146
C89	C	0.439990	-0.430844	0.399789
C90	C	0.939990	0.069156	0.899789
C91	C	0.548186	-0.389780	0.361792
C92	C	1.048186	0.110220	0.861792
C93	C	0.515102	-0.434298	0.402984
C94	C	1.015102	0.065702	0.902984
C95	C	1.214815	-0.420484	0.390202
C96	C	1.714815	0.079516	0.890202
C97	C	1.293024	-0.424091	0.393543
C98	C	1.793024	0.075909	0.893543
C99	C	1.039146	-0.403534	0.565890
C100	C	1.539146	0.096466	1.065890
C101	C	1.042495	-0.399918	0.644099
C102	C	1.542495	0.100082	1.144099
C103	C	1.031367	-0.205853	0.382393
C104	C	1.531367	0.294147	0.882393
C105	C	1.031401	-0.117997	0.382406
C106	C	1.531401	0.382003	0.882406
C107	C	1.023500	-0.420415	0.199549
C108	C	1.523500	0.079585	0.699549
C109	C	1.020288	-0.423815	0.121346
C110	C	1.520288	0.076185	0.621346
C111	C	1.063730	-0.377042	1.086531
C112	C	1.563730	0.122958	1.586531
C113	C	1.060579	-0.380443	1.013046
C114	C	1.560579	0.119557	1.513046
C115	C	1.013982	-0.430613	0.974376
C116	C	1.513982	0.069387	1.474376
C117	C	0.970538	-0.477390	1.009196
C118	C	1.470538	0.022610	1.509196
C119	C	0.973693	-0.473993	1.082681
C120	C	1.473693	0.026007	1.582681
C121	C	1.002207	-0.443299	0.752404
C122	C	1.502207	0.056701	1.252404
C123	C	0.999053	-0.446691	0.678914
C124	C	1.499053	0.053309	1.178914
C125	C	1.089095	-0.349744	0.682769
C126	C	1.589095	0.150256	1.182769
C127	C	1.092243	-0.346348	0.756254
C128	C	1.592243	0.153652	1.256254
C129	C	1.048802	-0.393129	0.791068
C130	C	1.548802	0.106871	1.291068
C131	C	1.010758	-0.434088	0.899262
C132	C	1.510758	0.065912	1.399262
C133	C	1.052030	-0.389657	0.866181
C134	C	1.552030	0.110343	1.366181
H135	H	0.909983	-0.825109	0.503503
H136	H	1.409983	-0.325109	1.003503
H137	H	1.152636	-0.848358	0.261247
H138	H	1.652636	-0.348358	0.761247
H139	H	0.436647	-0.518629	0.480996
H140	H	0.936647	-0.018629	0.980996
C141	C	1.107802	-0.329779	0.975198
C142	C	1.607802	0.170221	1.475198
C143	C	1.151088	-0.378544	0.934925
C144	C	1.651088	0.121456	1.434925
C145	C	1.194597	-0.331893	0.900052
C146	C	1.694597	0.168107	1.400052
H147	H	1.079724	-0.295428	0.945343
H148	H	1.579724	0.204572	1.445343
H149	H	1.136043	-0.299413	1.008721
H150	H	1.636043	0.200587	1.508721
H151	H	1.122851	-0.408897	0.901407
H152	H	1.622851	0.091103	1.401407
H153	H	1.179181	-0.412895	0.964764
H154	H	1.679181	0.087105	1.464764
H155	H	1.222837	-0.301526	0.933575
H156	H	1.722837	0.198474	1.433575
H157	H	1.166513	-0.297543	0.870201
H158	H	1.666513	0.202457	1.370201
H159	H	1.223976	-0.364973	0.872728
H160	H	1.723976	0.135027	1.372728
C161	C	0.777390	-0.501305	0.465172
C162	C	1.277390	-0.001305	0.965172
C163	C	0.762529	-0.480157	0.534058
C164	C	1.262529	0.019843	1.034058
C165	C	0.801158	-0.530285	0.580680
C166	C	1.301158	-0.030285	1.080680
H167	H	0.764921	-0.554346	0.454378
H168	H	1.264921	-0.054346	0.954378
H169	H	0.826150	-0.496599	0.460872
H170	H	1.326150	0.003401	0.960872
H171	H	0.713779	-0.484870	0.538356
H172	H	1.213779	0.015130	1.038356
H173	H	0.775000	-0.427124	0.544874
H174	H	1.275000	0.072876	1.044874
H175	H	0.849918	-0.525579	0.576379
H176	H	1.349918	-0.025579	1.076379
H177	H	0.788686	-0.583324	0.569879
H178	H	1.288686	-0.083324	1.069879
H179	H	0.791085	-0.515939	0.627424
H180	H	1.291085	-0.015939	1.127424
H181	H	0.626638	-0.305458	0.283779
H182	H	1.126638	0.194542	0.783779
H183	H	0.633616	-0.481640	0.446774
H184	H	1.133616	0.018360	0.946774
H185	H	0.910039	-0.974888	0.503519
H186	H	1.410039	-0.474888	1.003519
C187	C	0.293756	-0.525125	0.487075
C188	C	0.793756	-0.025125	0.987075
C189	C	0.221128	-0.511401	0.474406
C190	C	0.721128	-0.011401	0.974406
C191	C	0.186165	-0.558165	0.517742
C192	C	0.686165	-0.058165	1.017742
H193	H	0.305256	-0.579275	0.477251
H194	H	0.805256	-0.079275	0.977251
H195	H	0.307799	-0.511994	0.534894
H196	H	0.807799	-0.011994	1.034894
H197	H	0.207091	-0.524537	0.426598
H198	H	0.707091	-0.024537	0.926598
H199	H	0.209607	-0.457260	0.484234
H200	H	0.709607	0.042740	0.984234
H201	H	0.200207	-0.545034	0.565561
H202	H	0.700207	-0.045034	1.065561
H203	H	0.197670	-0.612312	0.507915
H204	H	0.697670	-0.112312	1.007915
H205	H	0.136883	-0.548854	0.509157
H206	H	0.636883	-0.048854	1.009157
H207	H	0.516698	-0.348875	0.323944
H208	H	1.016698	0.151125	0.823944
C209	C	0.285989	-0.322596	0.299695
C210	C	0.785989	0.177404	0.799695
C211	C	0.332209	-0.282255	0.262405
C212	C	0.832209	0.217745	0.762405
C213	C	0.293679	-0.231918	0.215897
C214	C	0.793679	0.268082	0.715897
H215	H	0.255991	-0.352795	0.267708
H216	H	0.755991	0.147205	0.767708
H217	H	0.258505	-0.285602	0.325433
H218	H	0.758505	0.214398	0.825433
H219	H	0.359682	-0.319244	0.236669
H220	H	0.859682	0.180756	0.736669
H221	H	0.362208	-0.252041	0.294374
H222	H	0.862208	0.247959	0.794374
H223	H	0.266195	-0.194925	0.241635
H224	H	0.766195	0.305075	0.741635
H225	H	0.263683	-0.262124	0.183915
H226	H	0.763683	0.237876	0.683915
H227	H	0.325033	-0.204536	0.190595
H228	H	0.825033	0.295464	0.690595
H229	H	0.429671	-0.342443	0.317996
H230	H	0.929671	0.157557	0.817996
C231	C	0.769283	-0.298842	0.277584
C232	C	1.269283	0.201158	0.777584
C233	C	0.719697	-0.254137	0.236192
C234	C	1.219697	0.245863	0.736192
C235	C	0.754377	-0.207238	0.192731
C236	C	1.254377	0.292762	0.692731
H237	H	0.799118	-0.264454	0.305692
H238	H	1.299118	0.235546	0.805692
H239	H	0.796602	-0.331748	0.248061
H240	H	1.296602	0.168252	0.748061
H241	H	0.692389	-0.221233	0.265712
H242	H	1.192389	0.278767	0.765712
H243	H	0.689859	-0.288505	0.208070
H244	H	1.189859	0.211495	0.708070
H245	H	0.781696	-0.240144	0.163207
H246	H	1.281696	0.259856	0.663207
H247	H	0.784211	-0.172855	0.220844
H248	H	1.284211	0.327145	0.720844
H249	H	0.720737	-0.176905	0.164636
H250	H	1.220737	0.323095	0.664636
C251	C	0.926490	-0.524640	1.120571
C252	C	1.426490	-0.024640	1.620571
C253	C	0.883234	-0.475856	1.160861
C254	C	1.383234	0.024144	1.660861
C255	C	0.839750	-0.522489	1.195781
C256	C	1.339750	-0.022489	1.695781
H257	H	0.898221	-0.555017	1.087096
H258	H	1.398221	-0.055017	1.587096
H259	H	0.954606	-0.558982	1.150418
H260	H	1.454606	-0.058982	1.650418
H261	H	0.855120	-0.441528	1.131017
H262	H	1.355120	0.058472	1.631017
H263	H	0.911483	-0.445479	1.194348
H264	H	1.411483	0.054521	1.694348
H265	H	0.867867	-0.556831	1.225628
H266	H	1.367867	-0.056831	1.725628
H267	H	0.811486	-0.552864	1.162302
H268	H	1.311486	-0.052864	1.662302
H269	H	0.810400	-0.489396	1.223127
H270	H	1.310400	0.010604	1.723127
C271	C	0.557168	-0.488719	0.453495
C272	C	1.057168	0.011281	0.953495
C273	C	0.601323	-0.443896	0.500445
C274	C	1.101323	0.056104	1.000445
C275	C	0.640098	-0.494005	0.546977
C276	C	1.140098	0.005995	1.046977
H277	H	0.525994	-0.516169	0.478943
H278	H	1.025994	-0.016169	0.978943
H279	H	0.584707	-0.525659	0.427760
H280	H	1.084707	-0.025659	0.927760
H281	H	0.573787	-0.406970	0.526177
H282	H	1.073787	0.093030	1.026177
H283	H	0.632511	-0.416448	0.475017
H284	H	1.132511	0.083552	0.975017
H285	H	0.667637	-0.530946	0.521242
H286	H	1.167637	-0.030946	1.021242
H287	H	0.608918	-0.521453	0.572419
H288	H	1.108918	-0.021453	1.072419
H289	H	0.670066	-0.463601	0.578833
H290	H	1.170066	0.036399	1.078833
C291	C	1.164285	-1.010581	0.249587
C292	C	1.664285	-0.510581	0.749587
C293	C	1.155066	-1.090824	0.258791
C294	C	1.655066	-0.590824	0.758791
C295	C	1.198067	-1.136388	0.215735
C296	C	1.698067	-0.636388	0.715735
H297	H	1.151970	-0.998843	0.201857
H298	H	1.651970	-0.498843	0.701857
H299	H	1.212029	-0.998802	0.261878
H300	H	1.712029	-0.498802	0.761878
H301	H	1.107332	-1.102598	0.246496
H302	H	1.607332	-0.602598	0.746496
H303	H	1.167386	-1.102587	0.306512
H304	H	1.667386	-0.602587	0.806512
H305	H	1.245811	-1.124609	0.228026
H306	H	1.745811	-0.624609	0.728026
H307	H	1.185748	-1.124643	0.168008
H308	H	1.685748	-0.624643	0.668008
H309	H	1.191822	-1.190837	0.221979
H310	H	1.691822	-0.690837	0.721979
H311	H	1.109479	-0.720402	0.304279
H312	H	1.609479	-0.220402	0.804279
C313	C	1.114277	-0.322445	1.128420
C314	C	1.614277	0.177555	1.628420
C315	C	1.098235	-0.244361	1.109888
C316	C	1.598235	0.255639	1.609888
C317	C	1.144793	-0.194045	1.148452
C318	C	1.644793	0.305955	1.648452
H319	H	1.109981	-0.327011	1.177184
H320	H	1.609981	0.172989	1.677184
H321	H	1.161042	-0.336709	1.118374
H322	H	1.661042	0.163291	1.618374
H323	H	1.051482	-0.230101	1.119940
H324	H	1.551482	0.269899	1.619940
H325	H	1.102536	-0.239769	1.061131
H326	H	1.602536	0.260231	1.561131
H327	H	1.191558	-0.208309	1.138406
H328	H	1.691558	0.291691	1.638406
H329	H	1.140493	-0.198618	1.197215
H330	H	1.640493	0.301382	1.697215
H331	H	1.133919	-0.141061	1.135880
H332	H	1.633919	0.358939	1.635880
C333	C	1.136229	-0.299052	0.644842
C334	C	1.636229	0.200948	1.144842
C335	C	1.123509	-0.312777	0.572211
C336	C	1.623509	0.187223	1.072211
C337	C	1.166926	-0.266101	0.537252
C338	C	1.666926	0.233899	1.037252
H339	H	1.126514	-0.244886	0.656372
H340	H	1.626514	0.255114	1.156372
H341	H	1.184031	-0.312260	0.658859
H342	H	1.684031	0.187740	1.158859
H343	H	1.075719	-0.299564	0.558200
H344	H	1.575719	0.200436	1.058200
H345	H	1.133228	-0.366934	0.560660
H346	H	1.633228	0.133066	1.060660
H347	H	1.214727	-0.279308	0.551269
H348	H	1.714727	0.220692	1.051269
H349	H	1.157207	-0.211937	0.548788
H350	H	1.657207	0.288063	1.048788
H351	H	1.158306	-0.275412	0.487969
H352	H	1.658306	0.224588	0.987969
H353	H	1.130190	-0.305498	0.787734
H354	H	1.630190	0.194502	1.287734
C355	C	0.941509	-1.113067	0.472101
C356	C	1.441509	-0.613067	0.972101
C357	C	0.950749	-1.195079	0.462890
C358	C	1.450749	-0.695079	0.962890
C359	C	0.907671	-1.232388	0.505855
C360	C	1.407671	-0.732388	1.005855
H361	H	0.953745	-1.097892	0.519849
H362	H	1.453745	-0.597892	1.019849
H363	H	0.893778	-1.097927	0.459735
H364	H	1.393778	-0.597927	0.959735
H365	H	0.998469	-1.210213	0.475261
H366	H	1.498469	-0.710213	0.975261
H367	H	0.938509	-1.210277	0.415151
H368	H	1.438509	-0.710277	0.915151
H369	H	0.859940	-1.217248	0.493489
H370	H	1.359940	-0.717248	0.993489
H371	H	0.919910	-1.217207	0.553601
H372	H	1.419910	-0.717207	1.053601
H373	H	0.913929	-1.288037	0.499607
H374	H	1.413929	-0.788037	0.999607
C375	C	0.948463	-0.501273	0.637055
C376	C	1.448463	-0.001273	1.137055
C377	C	0.911118	-0.541544	0.683272
C378	C	1.411118	-0.041544	1.183272
C379	C	0.864528	-0.591846	0.644738
C380	C	1.364528	-0.091846	1.144738
H381	H	0.916516	-0.471056	0.607071
H382	H	1.416516	0.028944	1.107071
H383	H	0.974145	-0.538309	0.609556
H384	H	1.474145	-0.038309	1.109556
H385	H	0.885438	-0.504513	0.710759
H386	H	1.385438	-0.004513	1.210759
H387	H	0.943047	-0.571776	0.713257
H388	H	1.443047	-0.071776	1.213257
H389	H	0.890209	-0.628882	0.617239
H390	H	1.390209	-0.128882	1.117239
H391	H	0.832585	-0.561623	0.614755
H392	H	1.332585	-0.061623	1.114755
H393	H	0.839188	-0.619181	0.676090
H394	H	1.339188	-0.119181	1.176090
H395	H	0.966833	-0.481390	0.780740
H396	H	1.466833	0.018610	1.280740
H397	H	0.932601	-0.518243	0.977706
H398	H	1.432601	-0.018243	1.477706
H399	H	1.089971	-0.348812	0.897669
H400	H	1.589971	0.151188	1.397669
H401	H	0.953054	-0.705421	0.460457
H402	H	1.453054	-0.205421	0.960457
C403	C	0.960159	-0.488652	0.857402
C404	C	1.460159	0.011348	1.357402
C405	C	0.922802	-0.528911	0.903616
C406	C	1.422802	-0.028911	1.403616
C407	C	0.876201	-0.579199	0.865079
C408	C	1.376201	-0.079199	1.365079
H409	H	0.928220	-0.458426	0.827417
H410	H	1.428220	0.041574	1.327417
H411	H	0.985834	-0.525695	0.829903
H412	H	1.485834	-0.025695	1.329903
H413	H	0.897129	-0.491873	0.931103
H414	H	1.397129	0.008127	1.431103
H415	H	0.954723	-0.559152	0.933602
H416	H	1.454723	-0.059152	1.433602
H417	H	0.901875	-0.616242	0.837580
H418	H	1.401875	-0.116242	1.337580
H419	H	0.844266	-0.548967	0.835096
H420	H	1.344266	-0.048967	1.335096
H421	H	0.850853	-0.606526	0.896430
H422	H	1.350853	-0.106526	1.396430
H423	H	1.109603	-1.117818	0.304322
H424	H	1.609603	-0.617818	0.804322
