data_functionalizedCrystal
_audit_creation_method	'MofGen! by Chris Wilmer'
_symmetry_space_group_name_H-M	'P1'
_symmetry_Int_Tables_number	1
_symmetry_cell_setting	triclinic
loop_
_symmetry_equiv_pos_as_xyz
  x,y,z
_cell_length_a	23.096457
_cell_length_b	12.477906
_cell_length_c	12.478026
_cell_angle_alpha	60.562490
_cell_angle_beta	95.296122
_cell_angle_gamma	57.039110
loop_
_atom_site_label
_atom_site_type_symbol
_atom_site_fract_x
_atom_site_fract_y
_atom_site_fract_z
Zr1	Zr	0.479939	1.298499	-0.261679
O2	O	0.365423	1.545997	-0.456481
O3	O	0.524401	1.051005	-0.186046
O4	O	0.499707	1.298498	-0.433534
O5	O	0.398953	1.298503	-0.031874
O6	O	0.594989	1.298494	-0.433538
O7	O	0.390117	1.298504	-0.208993
O8	O	0.639162	0.855773	0.009174
O9	O	0.354780	1.741224	-0.474585
O10	O	0.603167	1.152798	-0.173020
O11	O	0.538653	1.152801	-0.040836
O12	O	0.509579	1.444193	-0.332221
O13	O	0.445065	1.444196	-0.200037
Zr14	Zr	0.645996	1.298491	0.020801
Zr15	Zr	0.631904	1.298492	-0.261684
Zr16	Zr	0.494031	1.298498	0.020806
Zr17	Zr	0.462965	1.609863	-0.290552
Zr18	Zr	0.662970	0.987127	0.049674
O19	O	0.601534	1.545986	-0.054832
O20	O	0.581497	1.545987	-0.456488
O21	O	0.385460	1.545996	-0.054824
O22	O	0.760512	1.050993	0.215603
O23	O	0.740475	1.050994	-0.186053
O24	O	0.544438	1.051004	0.215611
O25	O	0.726982	1.298487	-0.209004
O26	O	0.626228	1.298492	0.192656
O27	O	0.530945	1.298497	0.192660
O28	O	0.735818	1.298487	-0.031885
O29	O	0.475572	1.741218	-0.474589
O30	O	0.650363	0.855772	0.233711
O31	O	0.771155	0.855766	0.233707
O32	O	0.759953	0.855767	0.009170
O33	O	0.365981	1.741223	-0.250048
O34	O	0.486773	1.741217	-0.250052
O35	O	0.616355	1.152797	0.091344
O36	O	0.680870	1.152794	-0.040841
O37	O	0.587282	1.444189	-0.200042
O38	O	0.522768	1.444192	-0.067858
C39	C	0.584200	0.909026	-0.084322
C40	C	0.591406	0.776844	-0.072064
C41	C	0.372883	1.298504	-0.120432
C42	C	0.308370	1.298507	-0.120430
C43	C	0.273199	1.298520	-0.218014
C44	C	0.212587	1.298505	-0.218012
C45	C	0.187139	1.298511	-0.120440
C46	C	0.222322	1.298489	-0.022838
C47	C	0.282937	1.298487	-0.022833
N48	N	0.065083	1.393493	-0.099708
N49	N	0.007499	1.393498	-0.099721
C50	C	0.004509	1.298512	-0.120447
N51	N	0.061272	1.203541	-0.141186
N52	N	0.118858	1.203544	-0.141180
C53	C	0.121413	1.298511	-0.120434
C54	C	-0.096383	1.298505	-0.218034
C55	C	-0.156992	1.298480	-0.218023
C56	C	-0.147262	1.298480	-0.022855
C57	C	-0.086649	1.298489	-0.022860
C58	C	-0.061216	1.298510	-0.120457
C59	C	0.753052	1.298486	-0.120446
C60	C	0.817565	1.298483	-0.120448
C61	C	0.545340	1.298496	-0.473784
C62	C	0.539358	1.298496	-0.593706
C63	C	0.541735	1.687964	-0.156556
C64	C	0.534529	1.820146	-0.168814
C65	C	0.580594	1.298494	0.232906
C66	C	0.586577	1.298494	0.352828
C67	C	0.774284	0.909017	-0.084329
C68	C	0.846003	0.776831	-0.072073
C69	C	0.601827	0.909025	0.269023
C70	C	0.615015	0.776843	0.401203
C71	C	0.791911	0.909016	0.269016
C72	C	0.869613	0.776830	0.401194
C73	C	0.334024	1.687974	-0.509894
C74	C	0.256322	1.820160	-0.642072
C75	C	0.351651	1.687973	-0.156549
C76	C	0.279932	1.820159	-0.168805
C77	C	0.524108	1.687965	-0.509901
C78	C	0.510919	1.820148	-0.642080
C79	C	0.839123	0.714758	-0.135326
C80	C	0.906502	0.590573	-0.123839
C81	C	0.980762	0.528455	-0.049090
C82	C	0.987641	0.590541	0.014164
C83	C	0.920261	0.714732	0.002668
C84	C	0.939784	0.714753	0.394267
C85	C	1.012797	0.590567	0.518449
C86	C	1.015637	0.528454	0.649558
C87	C	0.945458	0.590543	0.656481
C88	C	0.872446	0.714735	0.532299
C89	C	0.186150	1.882253	-0.635146
C90	C	0.113135	2.006476	-0.759332
C91	C	0.110294	2.068597	-0.890441
C92	C	0.180474	2.006499	-0.897364
C93	C	0.253487	1.882286	-0.773180
C94	C	0.286811	1.882246	-0.105565
C95	C	0.219428	2.006465	-0.117086
C96	C	0.145167	2.068587	-0.191840
C97	C	0.138289	2.006495	-0.255088
C98	C	0.205671	1.882286	-0.243574
C99	C	0.562846	0.822328	0.453305
C100	C	0.575222	0.698146	0.577489
C101	C	0.639772	0.528480	0.649575
C102	C	0.691943	0.482995	0.597463
C103	C	0.679563	0.607176	0.473275
C104	C	0.446367	1.989793	-0.714128
C105	C	0.433972	2.114010	-0.838316
C106	C	0.486127	2.068578	-0.890459
C107	C	0.550686	1.898915	-0.818399
C108	C	0.563084	1.774702	-0.694208
H109	H	0.293906	1.298531	-0.297480
H110	H	0.631584	1.298483	-0.601199
H111	H	0.381399	2.252148	-0.896973
H112	H	0.615648	1.636570	-0.635559
N113	N	0.663202	0.593799	0.050081
H114	H	0.700135	0.583677	0.112903
H115	H	0.691627	0.537641	0.012553
H116	H	0.200059	1.831739	-0.295069
N117	N	0.058195	2.073478	-0.335685
H118	H	0.016561	2.161567	-0.333359
H119	H	0.059568	1.978612	-0.290631
N120	N	0.493224	1.005317	0.375572
H121	H	0.462058	1.015264	0.427435
H122	H	0.457959	1.061533	0.276683
H123	H	1.048112	0.539947	0.075024
H124	H	0.188448	1.831681	-0.528401
H125	H	0.225043	2.056999	-0.065575
N126	N	0.462729	1.003200	-0.290970
H127	H	0.467590	1.074846	-0.282710
H128	H	0.413379	1.028561	-0.289034
N129	N	0.174643	1.298515	-0.323265
H130	H	0.199954	1.298525	-0.385088
H131	H	0.116058	1.401963	-0.384025
H132	H	0.476022	2.169737	-0.991587
H133	H	0.403889	2.026817	-0.671694
N134	N	0.759034	0.781737	-0.215949
H135	H	0.764911	0.723560	-0.254274
H136	H	0.722010	0.906415	-0.296871
H137	H	-0.167978	1.298476	0.056596
H138	H	0.090307	2.169725	-0.201204
N139	N	0.479744	1.298483	-0.654582
H140	H	0.483774	1.298480	-0.734493
H141	H	0.424563	1.401927	-0.691455
N142	N	0.899073	0.523626	-0.192069
H143	H	0.841806	0.581818	-0.241151
H144	H	0.932565	0.398948	-0.117163
N145	N	0.606935	1.849926	-0.874649
H146	H	0.589276	1.954368	-0.964259
H147	H	0.606995	1.781266	-0.895526
N148	N	0.194885	1.298474	0.082414
H149	H	0.151148	1.298479	0.067603
H150	H	0.174383	1.401911	0.068522
H151	H	0.178151	2.057094	-1.004128
H152	H	0.311575	1.298477	0.056633
H153	H	0.722052	0.570117	0.430869
H154	H	-0.058013	1.298489	0.056597
H155	H	1.035621	0.427329	-0.039738
N156	N	0.927688	0.781671	0.070901
H157	H	0.984958	0.723463	0.119998
H158	H	0.908803	0.760041	0.142285
H159	H	-0.075673	1.298514	-0.297500
H160	H	-0.185627	1.298479	-0.297483
N161	N	0.936733	0.781718	0.252868
H162	H	0.992271	0.723534	0.267345
H163	H	0.903918	0.906396	0.191542
H164	H	0.310622	1.831731	-0.778835
N165	N	0.518955	0.747224	0.633692
H166	H	0.476195	0.873550	0.569187
H167	H	0.549142	0.700371	0.731711
H168	H	1.069933	0.540027	0.512787
H169	H	0.649842	0.427380	0.750695
H170	H	1.075094	0.427329	0.750664
N171	N	0.761550	0.299987	0.675227
H172	H	0.796865	0.243669	0.774126
H173	H	0.792671	0.290112	0.623287
N174	N	0.796760	0.781676	0.539771
H175	H	0.790755	0.833199	0.584773
H176	H	0.798795	0.686821	0.598315
H177	H	0.347272	1.831675	-0.044684
H178	H	0.056000	2.057015	-0.753668
H179	H	0.947783	0.539952	0.763246
H180	H	0.050837	2.169739	-0.991549
