data_functionalizedCrystal
_audit_creation_method	'MofGen! by Chris Wilmer'
_symmetry_space_group_name_H-M	'P1'
_symmetry_Int_Tables_number	1
_symmetry_cell_setting	triclinic
loop_
_symmetry_equiv_pos_as_xyz
  x,y,z
_cell_length_a	27.440280
_cell_length_b	27.440280
_cell_length_c	27.440280
_cell_angle_alpha	59.999523
_cell_angle_beta	89.999308
_cell_angle_gamma	60.002656
loop_
_atom_site_label
_atom_site_type_symbol
_atom_site_fract_x
_atom_site_fract_y
_atom_site_fract_z
Zr1	Zr	0.469574	0.533358	-0.064013
O2	O	0.391769	0.635023	-0.141829
O3	O	0.493415	0.431693	-0.040153
O4	O	0.493428	0.533347	-0.141824
O5	O	0.391757	0.533378	0.040036
O6	O	0.573630	0.533339	-0.141827
O7	O	0.391756	0.533369	-0.040158
O8	O	0.573606	0.351499	0.040045
O9	O	0.391781	0.715218	-0.141836
O10	O	0.563449	0.473504	-0.029986
O11	O	0.503596	0.473517	0.029864
O12	O	0.503612	0.593201	-0.089841
O13	O	0.443759	0.593214	-0.029992
Zr14	Zr	0.597488	0.533361	0.063881
Zr15	Zr	0.597487	0.533346	-0.064018
Zr16	Zr	0.469576	0.533373	0.063886
Zr17	Zr	0.469592	0.661261	-0.064025
Zr18	Zr	0.597470	0.405458	0.063892
O19	O	0.573648	0.635026	0.040020
O20	O	0.573645	0.635005	-0.141836
O21	O	0.391772	0.635044	0.040027
O22	O	0.675293	0.431697	0.141697
O23	O	0.675290	0.431675	-0.040159
O24	O	0.493417	0.431714	0.141704
O25	O	0.675305	0.533341	-0.040168
O26	O	0.573634	0.533372	0.141692
O27	O	0.493432	0.533380	0.141695
O28	O	0.675306	0.533351	0.040025
O29	O	0.493455	0.715209	-0.141840
O30	O	0.573608	0.351511	0.141708
O31	O	0.675281	0.351501	0.141704
O32	O	0.675280	0.351489	0.040041
O33	O	0.391782	0.715230	-0.040174
O34	O	0.493456	0.715220	-0.040177
O35	O	0.563451	0.473518	0.089709
O36	O	0.623304	0.473505	0.029860
O37	O	0.563466	0.593203	-0.029996
O38	O	0.503613	0.593215	0.029853
C39	C	0.533508	0.373373	-0.000052
C40	C	0.533500	0.319074	-0.000047
C41	C	0.577715	0.040192	0.044118
C42	C	0.577710	0.091214	0.044120
O43	O	0.615289	0.080038	0.081683
N44	N	0.533525	0.160904	-0.000059
C45	C	0.489347	0.179572	-0.044247
O46	O	0.451765	0.243534	-0.081826
C47	C	0.489355	0.128551	-0.044252
C48	C	0.533539	0.058861	-0.000066
C49	C	0.621896	-0.029495	0.088300
C50	C	0.621900	-0.080513	0.088298
C51	C	0.577724	-0.061844	0.044114
C52	C	0.533544	0.007842	-0.000068
C53	C	0.445180	0.147220	-0.088442
C54	C	0.445193	0.096191	-0.088443
C55	C	0.489376	0.026501	-0.044257
C56	C	0.489373	-0.024507	-0.044253
N57	N	0.533557	-0.094197	-0.000074
C58	C	0.577733	-0.112866	0.044110
C59	C	0.489333	0.286718	-0.044236
C60	C	0.489322	0.337739	-0.044230
C61	C	0.577685	0.249377	0.044138
C62	C	0.577694	0.198355	0.044133
C63	C	0.533518	0.217028	-0.000056
C64	C	0.577739	-0.220005	0.044103
C65	C	0.577738	-0.271024	0.044099
C66	C	0.489377	-0.182657	-0.044270
C67	C	0.489376	-0.131643	-0.044264
C68	C	0.533562	-0.150321	-0.000075
O69	O	0.451813	-0.013383	-0.081798
O70	O	0.615313	-0.176828	0.081677
C71	C	0.373532	0.533375	-0.000060
C72	C	0.319229	0.533381	-0.000058
C73	C	-0.017469	0.533339	-0.044246
C74	C	-0.068487	0.533334	-0.044247
O75	O	-0.094863	0.533304	-0.081807
N76	N	-0.094004	0.533341	-0.000068
C77	C	-0.068497	0.533345	0.044117
O78	O	-0.094886	0.533349	0.081695
C79	C	-0.017478	0.533345	0.044119
C80	C	0.008033	0.533346	-0.000066
C81	C	0.008042	0.533339	-0.088427
C82	C	0.059056	0.533345	-0.088427
C83	C	0.084558	0.533352	-0.044247
C84	C	0.059047	0.533352	-0.000066
C85	C	0.008030	0.533344	0.088307
C86	C	0.059054	0.533344	0.088305
C87	C	0.084565	0.533344	0.044120
C88	C	0.135563	0.533364	0.044115
N89	N	0.161080	0.533358	-0.000064
C90	C	0.135578	0.533352	-0.044244
C91	C	-0.175641	0.533344	0.044110
C92	C	-0.226662	0.533349	0.044105
C93	C	-0.226648	0.533337	-0.044258
C94	C	-0.175628	0.533337	-0.044256
C95	C	-0.150124	0.533338	-0.000069
C96	C	0.242710	0.533365	-0.044242
C97	C	0.293727	0.533374	-0.044239
C98	C	0.293710	0.533383	0.044126
C99	C	0.242696	0.533377	0.044122
C100	C	0.217198	0.533366	-0.000065
O101	O	0.161972	0.533392	0.081657
O102	O	0.161977	0.533338	-0.081811
C103	C	0.693531	0.533344	-0.000072
C104	C	0.747833	0.533339	-0.000074
C105	C	0.533529	0.533341	-0.160049
C106	C	0.533528	0.533335	-0.214345
C107	C	0.533554	0.693347	-0.000080
C108	C	0.533562	0.747645	-0.000085
C109	C	0.502302	0.595852	-0.582323
C110	C	0.502304	0.595856	-0.633346
O111	O	0.475758	0.648993	-0.686306
N112	N	0.533537	0.533376	-0.627619
C113	C	0.564776	0.470888	-0.570865
O114	O	0.591342	0.417744	-0.570679
C115	C	0.564777	0.470885	-0.519844
C116	C	0.533537	0.533369	-0.525576
C117	C	0.471065	0.658331	-0.588052
C118	C	0.471062	0.658327	-0.537033
C119	C	0.502297	0.595844	-0.480286
C120	C	0.533534	0.533365	-0.474557
C121	C	0.596019	0.408397	-0.463092
C122	C	0.596018	0.408400	-0.412070
C123	C	0.564777	0.470884	-0.417802
C124	C	0.564766	0.470878	-0.366790
N125	N	0.533533	0.533358	-0.372517
C126	C	0.502298	0.595841	-0.429265
C127	C	0.564771	0.470899	-0.678015
C128	C	0.564767	0.470901	-0.729035
C129	C	0.502296	0.595869	-0.791512
C130	C	0.502297	0.595866	-0.740491
C131	C	0.533538	0.533379	-0.683742
C132	C	0.502295	0.595827	-0.322119
C133	C	0.502293	0.595818	-0.271093
C134	C	0.564767	0.470850	-0.208621
C135	C	0.564766	0.470859	-0.259642
C136	C	0.533529	0.533353	-0.316393
O137	O	0.591300	0.417767	-0.313812
O138	O	0.475742	0.648975	-0.429440
C139	C	0.533533	0.533378	0.159916
C140	C	0.533534	0.533385	0.214213
C141	C	0.693507	0.373357	-0.000058
C142	C	0.747802	0.319054	-0.000055
C143	C	0.533510	0.373391	0.159930
C144	C	0.533503	0.319100	0.214232
C145	C	0.693510	0.373376	0.159924
C146	C	0.747805	0.319079	0.214224
C147	C	0.373553	0.693344	-0.160057
C148	C	0.319257	0.747641	-0.214356
C149	C	0.373555	0.693362	-0.000074
C150	C	0.319260	0.747666	-0.000077
C151	C	0.533552	0.693328	-0.160063
C152	C	0.533559	0.747620	-0.214364
C153	C	0.742055	0.293551	-0.031298
C154	C	0.793066	0.242535	-0.031307
C155	C	0.849822	0.217017	-0.000070
C156	C	0.855567	0.242525	0.031174
C157	C	0.804557	0.293544	0.031179
C158	C	0.564743	0.293604	0.270976
C159	C	0.564734	0.242598	0.322003
C160	C	0.533488	0.217086	0.316284
C161	C	0.502244	0.242586	0.259533
C162	C	0.502250	0.293594	0.208508
C163	C	0.804550	0.293574	0.208482
C164	C	0.855572	0.242563	0.259498
C165	C	0.849846	0.217055	0.316253
C166	C	0.793094	0.242565	0.321994
C167	C	0.742074	0.293578	0.270979
C168	C	0.262512	0.773152	-0.208615
C169	C	0.211491	0.824179	-0.259630
C170	C	0.217217	0.849690	-0.316386
C171	C	0.273968	0.824176	-0.322126
C172	C	0.324988	0.773154	-0.271111
C173	C	0.325007	0.773173	0.031160
C174	C	0.273996	0.824204	0.031155
C175	C	0.217240	0.849723	-0.000084
C176	C	0.211495	0.824214	-0.031325
C177	C	0.262505	0.773187	-0.031323
C178	C	0.564811	0.773117	-0.208626
C179	C	0.564830	0.824123	-0.259643
C180	C	0.533592	0.849635	-0.316397
C181	C	0.502339	0.824133	-0.322134
C182	C	0.502325	0.773124	-0.271118
H183	H	0.657881	-0.137255	0.124277
H184	H	0.621459	0.357514	-0.365863
H185	H	0.590249	0.752353	-0.162418
H186	H	0.445630	0.709215	-0.634256
H187	H	0.476812	0.314346	0.162306
H188	H	0.445626	0.709208	-0.541708
N189	N	0.625395	-0.346191	0.091758
H190	H	0.653380	-0.350271	0.119746
H191	H	0.648570	-0.369281	0.072435
N192	N	-0.019475	0.533341	0.135965
H193	H	0.004432	0.533340	0.163952
H194	H	-0.019395	0.490846	0.159138
H195	H	0.901776	0.221797	0.254813
H196	H	0.257838	0.752384	-0.162406
H197	H	0.165277	0.844999	-0.056759
N198	N	0.533601	0.904657	-0.371423
H199	H	0.551380	0.886900	-0.395979
H200	H	0.558129	0.916919	-0.359127
H201	H	0.476906	0.844913	-0.368351
N202	N	0.441682	0.306862	-0.091899
H203	H	0.413693	0.358752	-0.119882
H204	H	0.418510	0.287615	-0.072582
H205	H	0.165286	0.844943	-0.254945
H206	H	0.621459	0.357516	-0.458413
H207	H	0.476873	0.752370	-0.275798
N208	N	0.468599	0.663235	-0.383319
H209	H	0.437156	0.666031	-0.405886
H210	H	0.497289	0.665991	-0.405834
N211	N	0.468604	0.663259	-0.746674
H212	H	0.448818	0.702838	-0.790368
H213	H	0.497293	0.665979	-0.726868
H214	H	0.613672	0.141613	0.080113
N215	N	0.786856	0.215033	-0.065008
H216	H	0.764316	0.193869	-0.048611
H217	H	0.827798	0.178870	-0.060270
N218	N	0.598446	0.403468	-0.253465
H219	H	0.618229	0.363885	-0.209772
H220	H	0.629860	0.400739	-0.273266
H221	H	0.371216	0.752400	0.056603
H222	H	0.590198	0.420020	-0.724361
H223	H	0.278623	0.844954	-0.368343
N224	N	0.598438	0.215093	0.383208
H225	H	0.582062	0.254022	0.387980
H226	H	0.642135	0.193910	0.387943
H227	H	0.590187	0.314371	0.275644
N228	N	0.904882	0.162024	0.371269
H229	H	0.904904	0.119688	0.395825
H230	H	0.904890	0.179830	0.395784
N231	N	0.386191	0.745638	-0.277308
H232	H	0.382071	0.769543	-0.321005
H233	H	0.408711	0.694425	-0.257506
N234	N	0.280200	0.851711	0.064853
H235	H	0.323896	0.827793	0.084647
H236	H	0.260390	0.842842	0.096261
N237	N	0.598536	0.851622	-0.253440
H238	H	0.569891	0.902836	-0.273218
H239	H	0.629985	0.842685	-0.273195
H240	H	0.221919	0.533387	0.080096
N241	N	0.468601	0.663212	-0.277273
H242	H	0.424898	0.690534	-0.299815
H243	H	0.485044	0.690468	-0.299789
H244	H	0.476862	0.646747	-0.837727
H245	H	0.788441	0.221789	0.368211
H246	H	0.533488	0.175551	0.357837
H247	H	0.613719	-0.235223	0.080086
H248	H	0.695871	0.314338	0.275662
N249	N	0.904836	0.161982	-0.000073
H250	H	0.941666	0.149682	0.024457
H251	H	0.904801	0.179777	-0.042404
N252	N	0.598465	0.403498	-0.616807
H253	H	0.618248	0.363922	-0.620927
H254	H	0.569779	0.400774	-0.594277
N255	N	0.162185	0.904720	-0.371406
H256	H	0.125370	0.917005	-0.359151
H257	H	0.162207	0.886925	-0.395938
H258	H	0.901785	0.221741	0.056606
H259	H	-0.012716	0.533331	-0.124405
H260	H	0.257818	0.752421	-0.056759
N261	N	0.669549	-0.049639	0.135957
H262	H	0.697534	-0.101530	0.163940
H263	H	0.650225	-0.030405	0.159134
H264	H	0.476804	0.221806	0.254886
H265	H	0.613656	0.234184	0.080114
N266	N	0.162225	0.904759	-0.000083
H267	H	0.174483	0.917040	0.024450
H268	H	0.137686	0.886971	0.017687
H269	H	0.453336	0.394481	-0.080204
H270	H	0.590195	0.419978	-0.162408
N271	N	0.397530	0.222375	-0.136113
H272	H	0.374294	0.245531	-0.116858
H273	H	0.369601	0.226377	-0.164083
H274	H	0.409220	0.111403	-0.124429
H275	H	0.453383	-0.074896	-0.080229
N276	N	0.680844	0.321066	-0.064990
H277	H	0.684953	0.297165	-0.084783
H278	H	0.658321	0.372280	-0.096398
N279	N	0.810735	0.321074	0.147271
H280	H	0.854428	0.297170	0.151384
H281	H	0.790931	0.372288	0.124735
H282	H	0.453408	-0.167468	-0.080241
H283	H	0.314496	0.533376	-0.080222
N284	N	0.810760	0.321048	0.064877
H285	H	0.790987	0.312175	0.096321
H286	H	0.791000	0.372252	0.036183
N287	N	0.215214	0.533352	-0.091898
H288	H	0.239122	0.533354	-0.119883
H289	H	0.172801	0.575843	-0.115073
N290	N	0.086569	0.533344	-0.136083
H291	H	0.062666	0.533338	-0.164067
H292	H	0.128981	0.490852	-0.116761
H293	H	-0.247420	0.533330	-0.080232
N294	N	-0.148115	0.533338	-0.091912
H295	H	-0.172018	0.533336	-0.119899
H296	H	-0.105703	0.490845	-0.072590
H297	H	-0.247435	0.533359	0.080079
N298	N	-0.148147	0.533356	0.091769
H299	H	-0.148224	0.575848	0.072495
H300	H	-0.105750	0.490838	0.114979
N301	N	0.086559	0.533341	0.135969
H302	H	0.056433	0.575831	0.134040
H303	H	0.122756	0.533316	0.129245
N304	N	0.321220	0.533392	0.091775
H305	H	0.357410	0.533392	0.085068
H306	H	0.333548	0.490899	0.132316
