data_functionalizedCrystal
_audit_creation_method	'MofGen! by Chris Wilmer'
_symmetry_space_group_name_H-M	'P1'
_symmetry_Int_Tables_number	1
_symmetry_cell_setting	triclinic
loop_
_symmetry_equiv_pos_as_xyz
  x,y,z
_cell_length_a	17.639617
_cell_length_b	18.101397
_cell_length_c	17.640968
_cell_angle_alpha	101.235310
_cell_angle_beta	109.666032
_cell_angle_gamma	101.204936
loop_
_atom_site_label
_atom_site_type_symbol
_atom_site_fract_x
_atom_site_fract_y
_atom_site_fract_z
Zn1	Zn	1.354385	0.097957	0.721254
Zn2	Zn	1.854385	0.597957	1.221254
Zn3	Zn	1.326418	-0.057296	0.583395
Zn4	Zn	1.826418	0.442704	1.083395
Zn5	Zn	1.188675	0.035195	0.555518
Zn6	Zn	1.688675	0.535195	1.055518
Zn7	Zn	1.216507	-0.057224	0.693278
Zn8	Zn	1.716507	0.442776	1.193278
O9	O	1.271496	0.004658	0.638361
O10	O	1.771496	0.504658	1.138361
O11	O	1.466023	0.103598	0.726341
O12	O	1.966023	0.603598	1.226341
O13	O	1.284794	-0.071323	0.464350
O14	O	1.784794	0.428677	0.964350
O15	O	1.210713	0.147172	0.577545
O16	O	1.710713	0.647172	1.077545
O17	O	1.445476	-0.010465	0.625057
O18	O	1.945476	0.489535	1.125057
O19	O	1.332459	0.193283	0.699310
O20	O	1.832459	0.693283	1.199310
O21	O	1.183595	-0.003371	0.443869
O22	O	1.683595	0.496629	0.943869
O23	O	1.077019	-0.003301	0.550418
O24	O	1.577019	0.496699	1.050418
O25	O	1.258149	-0.010342	0.812336
O26	O	1.758149	0.489658	1.312336
O27	O	1.097467	-0.071200	0.651629
O28	O	1.597467	0.428800	1.151629
O29	O	1.359447	0.103668	0.832890
O30	O	1.859447	0.603668	1.332890
O31	O	1.311782	-0.160938	0.597930
O32	O	1.811782	0.339062	1.097930
O33	O	1.231031	-0.160885	0.678661
O34	O	1.731031	0.339115	1.178661
C35	C	1.057335	-0.044054	0.594963
C36	C	1.557335	0.455946	1.094963
C37	C	0.965719	-0.064906	0.576417
C38	C	1.465719	0.435094	1.076417
C39	C	0.717944	0.163134	0.779460
C40	C	1.217944	0.663134	1.279460
C41	C	0.631854	0.143517	0.762016
C42	C	1.131854	0.643517	1.262016
C43	C	0.610449	0.024865	0.656397
C44	C	1.110449	0.524865	1.156397
C45	C	0.696540	0.044470	0.673835
C46	C	1.196540	0.544470	1.173835
C47	C	0.750281	0.113606	0.735366
C48	C	1.250281	0.613606	1.235366
C49	C	0.728876	-0.005058	0.629741
C50	C	1.228876	0.494942	1.129741
C51	C	0.814959	0.014547	0.647175
C52	C	1.314959	0.514547	1.147175
C53	C	0.868704	0.083681	0.708702
C54	C	1.368704	0.583681	1.208702
C55	C	0.836363	0.133211	0.752800
C56	C	1.336363	0.633211	1.252800
C57	C	0.675133	-0.074191	0.568206
C58	C	1.175133	0.425809	1.068206
C59	C	0.707470	-0.123719	0.524113
C60	C	1.207470	0.376281	1.024113
C61	C	0.793555	-0.104117	0.541550
C62	C	1.293555	0.395883	1.041550
C63	C	0.847300	-0.034983	0.603077
C64	C	1.347300	0.465017	1.103077
C65	C	0.825896	-0.153647	0.497452
C66	C	1.325896	0.346353	0.997452
C67	C	0.911978	-0.134042	0.514886
C68	C	1.411978	0.365958	1.014886
C69	C	0.933383	-0.015378	0.620511
C70	C	1.433383	0.484622	1.120511
C71	C	1.271418	-0.187778	0.638307
C72	C	1.771418	0.312222	1.138307
C73	C	1.271465	-0.270079	0.638327
C74	C	1.771465	0.229921	1.138327
C75	C	1.271585	-0.569129	0.638423
C76	C	1.771585	-0.069129	1.138423
C77	C	1.322179	-0.537886	0.587423
C78	C	1.822179	-0.037886	1.087423
C79	C	1.322433	-0.452179	0.587633
C80	C	1.822433	0.047821	1.087633
C81	C	1.271526	-0.420767	0.638375
C82	C	1.771526	0.079233	1.138375
C83	C	1.312643	-0.426635	0.730024
C84	C	1.812643	0.073365	1.230024
C85	C	1.313064	-0.512247	0.729776
C86	C	1.813064	-0.012247	1.229776
C87	C	1.179856	-0.562552	0.598491
C88	C	1.679856	-0.062552	1.098491
C89	C	1.179895	-0.477246	0.596639
C90	C	1.679895	0.022754	1.096639
C91	C	1.271491	-0.336918	0.638352
C92	C	1.771491	0.163082	1.138352
C93	C	1.271623	-0.652976	0.638452
C94	C	1.771623	-0.152976	1.138452
C95	C	1.486494	0.053559	0.681929
C96	C	1.986494	0.553559	1.181929
C97	C	1.578114	0.074398	0.700495
C98	C	2.078114	0.574398	1.200495
C99	C	1.315023	0.053672	0.853357
C100	C	1.815023	0.553672	1.353357
C101	C	1.333571	0.074559	0.944976
C102	C	1.833571	0.574559	1.444976
C103	C	1.271601	0.197854	0.638438
C104	C	1.771601	0.697854	1.138438
C105	C	1.271646	0.280183	0.638471
C106	C	1.771646	0.780183	1.138471
C107	C	1.228187	-0.044101	0.424211
C108	C	1.728187	0.455899	0.924211
C109	C	1.209798	-0.064743	0.332626
C110	C	1.709798	0.435257	0.832626
C111	C	1.130903	-0.153542	1.192798
C112	C	1.630903	0.346458	1.692798
C113	C	1.148349	-0.133903	1.278891
C114	C	1.648349	0.366097	1.778891
C115	C	1.253822	-0.015194	1.300281
C116	C	1.753822	0.484806	1.800281
C117	C	1.236382	-0.034821	1.214188
C118	C	1.736382	0.465179	1.714188
C119	C	1.174922	-0.103997	1.160453
C120	C	1.674922	0.396003	1.660453
C121	C	1.280401	0.014724	1.181842
C122	C	1.780401	0.514724	1.681842
C123	C	1.262964	-0.004905	1.095757
C124	C	1.762964	0.495095	1.595757
C125	C	1.201509	-0.074079	1.042017
C126	C	1.701509	0.425921	1.542017
C127	C	1.157486	-0.123626	1.074367
C128	C	1.657486	0.376374	1.574367
C129	C	1.341864	0.083896	1.235580
C130	C	1.841864	0.583896	1.735580
C131	C	1.385883	0.133442	1.203234
C132	C	1.885883	0.633442	1.703234
C133	C	1.368443	0.113816	1.117147
C134	C	1.868443	0.613816	1.617147
C135	C	1.306988	0.044642	1.063407
C136	C	1.806988	0.544642	1.563407
C137	C	1.412467	0.163363	1.084796
C138	C	1.912467	0.663363	1.584796
C139	C	1.395031	0.143735	0.998711
C140	C	1.895031	0.643735	1.498711
C141	C	1.289552	0.025014	0.977321
C142	C	1.789552	0.525014	1.477321
H143	H	1.294673	-0.449238	0.520229
H144	H	1.794673	0.050762	1.020229
H145	H	1.145844	-0.603261	0.531898
H146	H	1.645844	-0.103261	1.031898
N147	N	0.894330	0.207768	0.819187
N148	N	1.394330	0.707768	1.319187
H149	H	0.937756	0.194428	0.864551
H150	H	1.437756	0.694428	1.364551
H151	H	0.860713	0.236123	0.844413
H152	H	1.360713	0.736123	1.344413
H153	H	1.149209	-0.475585	0.529106
H154	H	1.649209	0.024415	1.029106
N155	N	0.775918	0.237695	0.845835
N156	N	1.275918	0.737695	1.345835
H157	H	0.742374	0.266098	0.871129
H158	H	1.242374	0.766098	1.371129
H159	H	0.804855	0.272515	0.819586
H160	H	1.304855	0.772515	1.319586
H161	H	1.379566	-0.386418	0.761972
H162	H	1.879566	0.113582	1.261972
H163	H	1.462513	0.219682	1.128561
H164	H	1.962513	0.719682	1.628561
H165	H	1.390024	-0.413582	0.615451
H166	H	1.890024	0.086418	1.115451
N167	N	1.442508	0.197167	0.963817
N168	N	1.942508	0.697167	1.463817
H169	H	1.484086	0.243968	1.010920
H170	H	1.984086	0.743968	1.510920
H171	H	1.401738	0.215666	0.921314
H172	H	1.901738	0.715666	1.421314
H173	H	1.080837	-0.209859	1.149039
H174	H	1.580837	0.290141	1.649039
H175	H	0.977143	0.040917	0.670619
H176	H	1.477143	0.540917	1.170619
N177	N	1.223261	-0.049598	0.919359
N178	N	1.723261	0.450402	1.419359
H179	H	1.249508	-0.084446	0.890415
H180	H	1.749508	0.415554	1.390415
H181	H	1.177868	-0.036259	0.875966
H182	H	1.677868	0.463741	1.375966
N183	N	0.961552	0.104795	0.727515
N184	N	1.461552	0.604795	1.227515
H185	H	0.993718	0.108701	0.788233
H186	H	1.493718	0.608701	1.288233
H187	H	0.979205	0.156897	0.716627
H188	H	1.479205	0.656897	1.216627
H189	H	1.107419	-0.179943	1.030608
H190	H	1.607419	0.320057	1.530608
H191	H	1.380637	-0.513367	0.761550
H192	H	1.880637	-0.013367	1.261550
H193	H	1.277682	-0.405351	0.769804
H194	H	1.777682	0.094649	1.269804
N195	N	0.596975	0.196941	0.809577
N196	N	1.096975	0.696941	1.309577
H197	H	0.644085	0.243710	0.851201
H198	H	1.144085	0.743710	1.351201
H199	H	0.568973	0.167291	0.840430
H200	H	1.068973	0.667291	1.340430
H201	H	0.566682	-0.031423	0.606296
H202	H	1.066682	0.468577	1.106296
N203	N	1.182683	-0.095266	0.949163
N204	N	1.682683	0.404734	1.449163
H205	H	1.235012	-0.100754	0.939861
H206	H	1.735012	0.399246	1.439861
H207	H	1.163330	-0.052616	0.925431
H208	H	1.663330	0.447384	1.425431
N209	N	1.125378	-0.450937	0.640342
N210	N	1.625378	0.049063	1.140342
H211	H	1.159458	-0.401818	0.688031
H212	H	1.659458	0.098182	1.188031
H213	H	1.103682	-0.493804	0.663136
H214	H	1.603682	0.006196	1.163136
N215	N	1.100872	-0.187346	1.313780
N216	N	1.600872	0.312654	1.813780
H217	H	1.059294	-0.234146	1.266674
H218	H	1.559294	0.265854	1.766674
H219	H	1.069975	-0.157731	1.341783
H220	H	1.569975	0.342269	1.841783
N221	N	0.582287	-0.095334	0.549400
N222	N	1.082287	0.404666	1.049400
H223	H	0.572998	-0.100867	0.601717
H224	H	1.072998	0.399133	1.101717
H225	H	0.553206	-0.146629	0.503703
H226	H	1.053206	0.353371	1.003703
N227	N	0.767921	-0.228207	0.431088
N228	N	1.267921	0.271793	0.931088
H229	H	0.785461	-0.274837	0.446813
H230	H	1.285461	0.225163	0.946813
H231	H	0.771000	-0.226563	0.375276
H232	H	1.271000	0.273437	0.875276
N233	N	1.129631	-0.589626	0.647403
N234	N	1.629631	-0.089626	1.147403
H235	H	1.166072	-0.606080	0.695190
H236	H	1.666072	-0.106080	1.195190
H237	H	1.079746	-0.635636	0.609124
H238	H	1.579746	-0.135636	1.109124
H239	H	1.356060	0.099874	1.305676
H240	H	1.856060	0.599874	1.805676
H241	H	1.303865	0.041128	1.344044
H242	H	1.803865	0.541128	1.844044
H243	H	0.663702	-0.180007	0.474011
H244	H	1.163702	0.319993	0.974011
H245	H	0.938307	-0.174373	0.478980
H246	H	1.438307	0.325627	0.978980
N247	N	1.285592	-0.589092	0.497925
N248	N	1.785592	-0.089092	0.997925
H249	H	1.235868	-0.633045	0.489568
H250	H	1.735868	-0.133045	0.989568
H251	H	1.329576	-0.611912	0.485811
H252	H	1.829576	-0.111912	0.985811
N253	N	1.411199	-0.542566	0.623942
N254	N	1.911199	-0.042566	1.123942
H255	H	1.418897	-0.564836	0.673379
H256	H	1.918897	-0.064836	1.173379
H257	H	1.451316	-0.488286	0.643031
H258	H	1.951316	0.011714	1.143031
H259	H	1.435926	0.189763	1.246997
H260	H	1.935926	0.689763	1.746997
H261	H	1.278788	-0.531828	0.770040
H262	H	1.778788	-0.031828	1.270040
