data_functionalizedCrystal
_audit_creation_method	'MofGen! by Chris Wilmer'
_symmetry_space_group_name_H-M	'P1'
_symmetry_Int_Tables_number	1
_symmetry_cell_setting	triclinic
loop_
_symmetry_equiv_pos_as_xyz
  x,y,z
_cell_length_a	11.169417
_cell_length_b	10.686203
_cell_length_c	11.169409
_cell_angle_alpha	85.602654
_cell_angle_beta	90.019824
_cell_angle_gamma	94.364530
loop_
_atom_site_label
_atom_site_type_symbol
_atom_site_fract_x
_atom_site_fract_y
_atom_site_fract_z
Zn1	Zn	1.871610	0.502220	0.641984
Zn2	Zn	2.371610	1.002220	1.141984
Zn3	Zn	1.886899	0.713272	0.425938
Zn4	Zn	2.386899	1.213272	0.925938
Zn5	Zn	1.670901	0.502297	0.441313
Zn6	Zn	2.170901	1.002297	0.941313
Zn7	Zn	1.686296	0.713169	0.626590
Zn8	Zn	2.186296	1.213169	1.126590
O9	O	1.778927	0.607740	0.533956
O10	O	2.278927	1.107740	1.033956
O11	O	2.041588	0.530227	0.613333
O12	O	2.541588	1.030227	1.113333
O13	O	1.858203	0.685361	0.260022
O14	O	2.358203	1.185361	0.760022
O15	O	1.684684	0.325709	0.480810
O16	O	2.184684	0.825709	0.980810
O17	O	2.052822	0.685286	0.454605
O18	O	2.552822	1.185286	0.954605
O19	O	1.832143	0.325653	0.628242
O20	O	2.332143	0.825653	1.128242
O21	O	1.699510	0.530358	0.271318
O22	O	2.199510	1.030358	0.771318
O23	O	1.504993	0.530259	0.465883
O24	O	2.004993	1.030259	0.965883
O25	O	1.710922	0.685111	0.796588
O26	O	2.210922	1.185111	1.296588
O27	O	1.516303	0.685186	0.602005
O28	O	2.016303	1.185186	1.102005
O29	O	1.847071	0.530128	0.807898
O30	O	2.347071	1.030128	1.307898
O31	O	1.873131	0.889836	0.439678
O32	O	2.373131	1.389836	0.939678
O33	O	1.725748	0.889760	0.587096
O34	O	2.225748	1.389760	1.087096
C35	C	1.467100	0.607720	0.533942
C36	C	1.967100	1.107720	1.033942
C37	C	1.333702	0.607743	0.533963
C38	C	1.833702	1.107743	1.033963
C39	C	1.802802	0.935582	0.510074
C40	C	2.302802	1.435582	1.010074
C41	C	1.813126	1.075835	0.499898
C42	C	2.313126	1.575835	0.999898
C43	C	2.091970	0.607760	0.533971
C44	C	2.591970	1.107760	1.033971
C45	C	2.225371	0.607768	0.533977
C46	C	2.725371	1.107768	1.033977
C47	C	1.779008	0.607599	0.847009
C48	C	2.279008	1.107599	1.347009
C49	C	1.779043	0.607540	0.980414
C50	C	2.279043	1.107540	1.480414
C51	C	1.754979	1.278617	0.557971
C52	C	2.254979	1.778617	1.057971
C53	C	1.744744	1.138364	0.568236
C54	C	2.244744	1.638364	1.068236
C55	C	1.778907	0.607788	0.222128
C56	C	2.278907	1.107788	0.722128
C57	C	1.779079	0.607492	0.088750
C58	C	2.279079	1.107492	0.588750
H59	H	1.678303	1.084602	0.634531
H60	H	2.178303	1.584602	1.134531
H61	H	1.879563	1.129605	0.433591
H62	H	2.379563	1.629605	0.933591
