data_functionalizedCrystal
_audit_creation_method	'MofGen! by Chris Wilmer'
_symmetry_space_group_name_H-M	'P1'
_symmetry_Int_Tables_number	1
_symmetry_cell_setting	triclinic
loop_
_symmetry_equiv_pos_as_xyz
  x,y,z
_cell_length_a	10.654553
_cell_length_b	12.837942
_cell_length_c	9.730223
_cell_angle_alpha	89.998888
_cell_angle_beta	89.999314
_cell_angle_gamma	89.657559
loop_
_atom_site_label
_atom_site_type_symbol
_atom_site_fract_x
_atom_site_fract_y
_atom_site_fract_z
O1	O	1.683735	0.145734	-0.114305
O2	O	1.319771	0.159614	-0.114304
O3	O	1.493683	0.001713	-0.114296
O4	O	1.509824	0.303635	-0.114313
O5	O	1.493681	0.001717	0.114284
O6	O	1.319770	0.159618	0.114276
O7	O	1.683733	0.145738	0.114275
Zn8	Zn	1.501751	0.152679	0.150567
Zn9	Zn	1.501753	0.152673	-0.150597
O10	O	1.509822	0.303639	0.114267
C11	C	1.272861	0.158596	-0.000014
C12	C	1.133085	0.155545	-0.000014
C13	C	0.936074	0.151240	0.124576
C14	C	1.067408	0.154113	0.124584
C15	C	1.067421	0.154115	-0.124627
C16	C	0.936089	0.151249	-0.124633
C17	C	0.936068	0.151235	0.268456
C18	C	1.067403	0.154108	0.268464
C19	C	1.488229	-0.036945	-0.000007
C20	C	1.471967	-0.152139	-0.000009
C21	C	1.667471	-0.391690	-0.000038
C22	C	1.652197	-0.499926	-0.000040
C23	C	1.426145	-0.476848	-0.000026
C24	C	1.441419	-0.368613	-0.000023
C25	C	1.562086	-0.326038	-0.000028
C26	C	1.577359	-0.217800	-0.000015
C27	C	1.351309	-0.194724	-0.000011
C28	C	1.336035	-0.302960	-0.000013
C29	C	1.730643	0.146756	-0.000018
C30	C	1.870419	0.149807	-0.000028
C31	C	1.515275	0.342297	-0.000025
C32	C	1.531538	0.457491	-0.000032
N33	N	1.501759	0.152682	0.356104
N34	N	1.501755	0.152662	-0.356133
C35	C	1.578791	0.082787	0.428033
C36	C	1.578786	0.082774	0.571916
C37	C	1.424714	0.222560	0.571927
C38	C	1.424713	0.222567	0.428047
C39	C	1.667748	0.002086	0.428028
C40	C	1.667743	0.002073	0.571911
H41	H	1.120905	0.155291	-0.226076
C42	C	0.863872	0.149673	-0.261696
H43	H	0.921795	0.150930	-0.335901
H44	H	0.810287	0.208947	-0.266883
H45	H	0.814994	0.088149	-0.266875
H46	H	1.361975	0.279472	0.369483
C47	C	1.794652	0.036211	0.367729
H48	H	1.851168	0.051399	0.440440
H49	H	1.782733	0.096626	0.312779
H50	H	1.828358	-0.018352	0.312781
C51	C	1.627015	-0.105635	0.375265
H52	H	1.610252	-0.149939	0.451203
H53	H	1.692293	-0.135116	0.321024
H54	H	1.553349	-0.098302	0.321031
C55	C	1.615417	-0.099723	0.632207
H56	H	1.617188	-0.096254	0.729717
H57	H	1.665366	-0.156844	0.602059
H58	H	1.531393	-0.108856	0.602059
H59	H	1.766194	0.019850	0.610961
H60	H	0.897608	0.222933	0.323697
C61	C	1.235377	-0.122509	0.000006
H62	H	1.161329	-0.163371	0.000021
H63	H	1.236627	-0.079797	-0.079697
H64	H	1.236645	-0.079817	0.079735
H65	H	0.898237	0.075567	0.313099
H66	H	1.105225	0.229781	0.313106
H67	H	1.105862	0.082405	0.323704
H68	H	1.765722	-0.357025	-0.000028
H69	H	1.361984	0.279458	0.630519
H70	H	1.675612	-0.183137	-0.000014
C71	C	1.768116	-0.572145	-0.000054
H72	H	1.741741	-0.642705	-0.000067
H73	H	1.817068	-0.559152	0.079650
H74	H	1.817048	-0.559142	-0.079781
C75	C	1.293427	-0.523694	-0.000022
H76	H	1.299430	-0.597558	-0.000019
H77	H	1.249482	-0.501212	-0.079726
H78	H	1.249496	-0.501224	0.079706
C79	C	1.203313	-0.349799	0.000000
H80	H	1.209307	-0.423664	0.000007
H81	H	1.159364	-0.327316	-0.079701
H82	H	1.159390	-0.327324	0.079731
