data_functionalizedCrystal
_audit_creation_method	'MofGen! by Chris Wilmer'
_symmetry_space_group_name_H-M	'P1'
_symmetry_Int_Tables_number	1
_symmetry_cell_setting	triclinic
loop_
_symmetry_equiv_pos_as_xyz
  x,y,z
_cell_length_a	13.339070
_cell_length_b	10.268362
_cell_length_c	13.339070
_cell_angle_alpha	89.997533
_cell_angle_beta	64.370706
_cell_angle_gamma	90.004641
loop_
_atom_site_label
_atom_site_type_symbol
_atom_site_fract_x
_atom_site_fract_y
_atom_site_fract_z
O1	O	1.496807	0.108334	-0.550527
O2	O	1.996807	0.608334	-0.050527
O3	O	1.181998	0.108328	-0.478267
O4	O	1.681998	0.608328	0.021733
O5	O	1.303273	0.108327	-0.356993
O6	O	1.803273	0.608327	0.143007
O7	O	1.375533	0.108336	-0.671802
O8	O	1.875533	0.608336	-0.171802
O9	O	1.303256	-0.108274	-0.356982
O10	O	1.803256	0.391726	0.143018
O11	O	1.181981	-0.108272	-0.478256
O12	O	1.681981	0.391728	0.021744
O13	O	1.496791	-0.108266	-0.550516
O14	O	1.996791	0.391734	-0.050516
Cu15	Cu	1.339385	-0.128047	-0.514385
Cu16	Cu	1.839385	0.371953	-0.014385
Cu17	Cu	1.339404	0.128109	-0.514398
Cu18	Cu	1.839404	0.628109	-0.014398
O19	O	1.375516	-0.108265	-0.671791
O20	O	1.875516	0.391735	-0.171791
C21	C	1.140874	0.000027	-0.466056
C22	C	1.640874	0.500027	0.033944
C23	C	1.018360	0.000025	-0.429672
C24	C	1.518360	0.500025	0.070328
C25	C	0.732973	0.000054	-0.712571
C26	C	1.232973	0.500054	-0.212571
C27	C	0.848081	0.000060	-0.746759
C28	C	1.348081	0.500060	-0.246759
C29	C	0.890657	0.000051	-0.667490
C30	C	1.390657	0.500051	-0.167490
C31	C	0.818112	0.000036	-0.554028
C32	C	1.318112	0.500036	-0.054028
C33	C	0.702992	0.000040	-0.519837
C34	C	1.202992	0.500040	-0.019837
C35	C	0.860676	0.000037	-0.474756
C36	C	1.360676	0.500037	0.025244
C37	C	0.788132	0.000023	-0.361294
C38	C	1.288132	0.500023	0.138706
C39	C	0.673023	0.000026	-0.327109
C40	C	1.173023	0.500026	0.172891
C41	C	0.630448	0.000035	-0.406377
C42	C	1.130448	0.500035	0.093623
C43	C	0.975796	0.000033	-0.508947
C44	C	1.475796	0.500033	-0.008947
C45	C	0.945816	0.000020	-0.316213
C46	C	1.445816	0.500020	0.183787
C47	C	0.830707	0.000013	-0.282025
C48	C	1.330707	0.500013	0.217975
N49	N	1.339379	-0.308213	-0.514378
N50	N	1.839379	0.191787	-0.014378
C51	C	1.339398	-0.573883	-0.514395
C52	C	1.839398	-0.073883	-0.014395
C53	C	1.339385	-0.426045	-0.514387
C54	C	1.839385	0.073955	-0.014387
C55	C	1.537914	0.000038	-0.562728
C56	C	2.037914	0.500038	-0.062728
C57	C	1.660428	0.000049	-0.599111
C58	C	2.160428	0.500049	-0.099111
C59	C	1.291058	0.000028	-0.315872
C60	C	1.791058	0.500028	0.184128
C61	C	1.254675	0.000033	-0.193358
C62	C	1.754675	0.500033	0.306642
N63	N	1.339416	0.308275	-0.514400
N64	N	1.839416	0.808275	-0.014400
C65	C	1.387730	0.000037	-0.712912
C66	C	1.887730	0.500037	-0.212912
C67	C	1.424114	0.000041	-0.835426
C68	C	1.924114	0.500041	-0.335426
C69	C	1.537574	0.000037	0.092030
C70	C	2.037574	0.500037	0.592030
C71	C	1.571761	0.000026	-0.023079
C72	C	2.071761	0.500026	0.476921
C73	C	1.492492	0.000028	-0.065654
C74	C	1.992492	0.500028	0.434346
C75	C	1.379030	0.000041	0.006890
C76	C	1.879030	0.500041	0.506890
C77	C	1.344839	0.000042	0.122010
C78	C	1.844839	0.500042	0.622010
C79	C	1.299758	0.000033	-0.035674
C80	C	1.799758	0.500033	0.464326
C81	C	1.186296	0.000046	0.036871
C82	C	1.686296	0.500046	0.536871
C83	C	1.152111	0.000048	0.151979
C84	C	1.652111	0.500048	0.651979
C85	C	1.231380	0.000046	0.194555
C86	C	1.731380	0.500046	0.694555
C87	C	1.333949	0.000031	-0.150794
C88	C	1.833949	0.500031	0.349206
C89	C	1.141215	0.000036	-0.120813
C90	C	1.641215	0.500036	0.379187
C91	C	1.107028	0.000048	-0.005705
C92	C	1.607028	0.500048	0.494295
H93	H	0.613959	0.000028	-0.234721
H94	H	1.113959	0.500028	0.265279
C95	C	0.991963	0.000276	-0.230089
C96	C	1.491963	0.500276	0.269911
C97	C	0.954959	0.111728	-0.163660
C98	C	1.454959	0.611728	0.336340
C99	C	0.997467	0.112022	-0.084329
C100	C	1.497467	0.612022	0.415671
H101	H	0.966959	-0.075169	-0.184773
H102	H	1.466959	0.424831	0.315227
H103	H	1.070914	0.000342	-0.266659
H104	H	1.570914	0.500342	0.233341
H105	H	0.876025	0.111650	-0.127092
H106	H	1.376025	0.611650	0.372908
H107	H	0.979961	0.187192	-0.208944
H108	H	1.479961	0.687192	0.291056
H109	H	1.076417	0.112088	-0.120898
H110	H	1.576417	0.612088	0.379102
H111	H	0.972460	0.036572	-0.039021
H112	H	1.472460	0.536572	0.460979
H113	H	0.972374	0.187647	-0.039254
H114	H	1.472374	0.687647	0.460746
H115	H	1.014645	0.000058	0.053377
H116	H	1.514645	0.500058	0.553377
C117	C	1.623745	0.000235	0.138105
C118	C	2.123745	0.500235	0.638105
C119	C	1.690232	0.111653	0.101038
C120	C	2.190232	0.611653	0.601038
C121	C	1.769640	0.111869	0.143448
C122	C	2.269640	0.611869	0.643448
H123	H	1.587274	0.000302	0.217045
H124	H	2.087274	0.500302	0.717045
H125	H	1.668999	-0.075261	0.113057
H126	H	2.168999	0.424739	0.613057
H127	H	1.644984	0.187129	0.126092
H128	H	2.144984	0.687129	0.626092
H129	H	1.726728	0.111610	0.022104
H130	H	2.226728	0.611610	0.522104
H131	H	1.814894	0.036373	0.118400
H132	H	2.314894	0.536373	0.618400
H133	H	1.733159	0.111932	0.222387
H134	H	2.233159	0.611932	0.722387
H135	H	1.814767	0.187457	0.118296
H136	H	2.314767	0.687457	0.618296
H137	H	1.203550	0.000060	0.288284
H138	H	1.703550	0.500060	0.788284
H139	H	1.034852	0.000040	-0.601328
H140	H	1.534852	0.500040	-0.101328
H141	H	0.771625	0.000012	-0.189642
H142	H	1.271625	0.500012	0.310358
H143	H	0.984385	0.000059	-0.695333
H144	H	1.484385	0.500059	-0.195333
H145	H	1.059723	0.000049	0.211043
H146	H	1.559723	0.500049	0.711043
H147	H	0.907140	0.000082	-0.839139
H148	H	1.407140	0.500082	-0.339139
H149	H	0.698296	0.000072	-0.777099
H150	H	1.198296	0.500072	-0.277099
H151	H	0.536718	0.000029	-0.378547
H152	H	1.036718	0.500029	0.121453
H153	H	1.664142	0.000013	-0.082137
H154	H	2.164142	0.500013	0.417863
H155	H	1.520335	0.000018	-0.159382
H156	H	2.020335	0.500018	0.340618
H157	H	1.426331	0.000020	-0.209849
H158	H	1.926331	0.500020	0.290151
H159	H	1.076667	0.000031	-0.155477
H160	H	1.576667	0.500031	0.344523
