data_functionalizedCrystal
_audit_creation_method	'MofGen! by Chris Wilmer'
_symmetry_space_group_name_H-M	'P1'
_symmetry_Int_Tables_number	1
_symmetry_cell_setting	triclinic
loop_
_symmetry_equiv_pos_as_xyz
  x,y,z
_cell_length_a	13.897449
_cell_length_b	13.897447
_cell_length_c	21.395355
_cell_angle_alpha	89.985644
_cell_angle_beta	89.976610
_cell_angle_gamma	90.020810
loop_
_atom_site_label
_atom_site_type_symbol
_atom_site_fract_x
_atom_site_fract_y
_atom_site_fract_z
Zn1	Zn	1.474716	-0.384094	-0.354260
Zn2	Zn	1.974716	0.115906	0.145740
Zn3	Zn	1.474597	-0.545373	-0.249490
Zn4	Zn	1.974597	-0.045373	0.250510
Zn5	Zn	1.313397	-0.384097	-0.249499
Zn6	Zn	1.813397	0.115903	0.250501
Zn7	Zn	1.313381	-0.545352	-0.354233
Zn8	Zn	1.813381	-0.045352	0.145767
O9	O	1.394023	-0.464729	-0.301870
O10	O	1.894023	0.035271	0.198130
O11	O	1.609681	-0.405495	-0.340370
O12	O	2.109681	0.094505	0.159630
O13	O	1.453170	-0.523990	-0.161813
O14	O	1.953170	-0.023990	0.338187
O15	O	1.334853	-0.249115	-0.263411
O16	O	1.834853	0.250885	0.236589
O17	O	1.609594	-0.523986	-0.263396
O18	O	2.109594	-0.023986	0.236604
O19	O	1.453373	-0.249113	-0.340378
O20	O	1.953373	0.250887	0.159622
O21	O	1.334738	-0.405502	-0.161820
O22	O	1.834738	0.094498	0.338180
O23	O	1.178413	-0.405481	-0.263384
O24	O	1.678413	0.094519	0.236616
O25	O	1.334826	-0.523950	-0.441914
O26	O	1.834826	-0.023950	0.058086
O27	O	1.178402	-0.523954	-0.340332
O28	O	1.678402	-0.023954	0.159668
O29	O	1.453357	-0.405474	-0.441934
O30	O	1.953357	0.094526	0.058066
O31	O	1.453155	-0.680352	-0.263369
O32	O	1.953155	-0.180352	0.236631
O33	O	1.334710	-0.680336	-0.340323
O34	O	1.834710	-0.180336	0.159677
C35	C	1.143408	-0.464716	-0.301856
C36	C	1.643408	0.035284	0.198144
C37	C	1.036194	-0.464734	-0.301865
C38	C	1.536194	0.035266	0.198135
C39	C	0.839899	-0.464737	-0.301881
C40	C	1.339899	0.035263	0.198119
C41	C	0.949132	-0.464733	-0.301870
C42	C	1.449132	0.035267	0.198130
C43	C	1.393944	-0.715343	-0.301856
C44	C	1.893944	-0.215343	0.198144
C45	C	1.393999	-0.822557	-0.301871
C46	C	1.893999	-0.322557	0.198129
C47	C	1.394046	-0.909627	-0.301885
C48	C	1.894046	-0.409627	0.198115
C49	C	1.394113	-1.018860	-0.301901
C50	C	1.894113	-0.518860	0.198099
C51	C	1.645616	-0.464743	-0.301885
C52	C	2.145616	0.035257	0.198115
C53	C	1.752830	-0.464749	-0.301891
C54	C	2.252830	0.035251	0.198109
C55	C	1.394103	-0.464710	-0.465294
C56	C	1.894103	0.035290	0.034706
C57	C	1.394137	-0.464701	-0.534935
C58	C	1.894137	0.035299	-0.034935
C59	C	1.394128	-0.213136	-0.301899
C60	C	1.894128	0.286864	0.198101
C61	C	1.394172	-0.105922	-0.301911
C62	C	1.894172	0.394078	0.198089
C63	C	1.455854	-0.403008	-0.567660
C64	C	1.955854	0.096992	-0.067660
C65	C	1.455852	-0.402967	-0.633095
C66	C	1.955852	0.097033	-0.133095
C67	C	1.394144	-0.464636	-0.665803
C68	C	1.894144	0.035364	-0.165803
C69	C	1.332416	-0.526333	-0.633071
C70	C	1.832416	-0.026333	-0.133071
C71	C	1.332412	-0.526366	-0.567637
C72	C	1.832412	-0.026366	-0.067637
C73	C	1.386501	-0.551488	-0.769473
C74	C	1.886501	-0.051488	-0.269473
C75	C	1.386511	-0.551457	-0.834906
C76	C	1.886511	-0.051457	-0.334906
C77	C	1.394150	-0.464534	-0.867624
C78	C	1.894150	0.035466	-0.367624
C79	C	1.401799	-0.377639	-0.834901
C80	C	1.901799	0.122361	-0.334901
C81	C	1.401795	-0.377672	-0.769467
C82	C	1.901795	0.122328	-0.269467
C83	C	1.394141	-0.464606	-0.736756
C84	C	1.894141	0.035394	-0.236756
C85	C	1.455869	-0.402790	-0.971302
C86	C	1.955869	0.097210	-0.471302
C87	C	1.455861	-0.402747	-1.036738
C88	C	1.955861	0.097253	-0.536738
C89	C	1.332429	-0.526122	-1.036713
C90	C	1.832429	-0.026122	-0.536713
C91	C	1.332432	-0.526156	-0.971277
C92	C	1.832432	-0.026156	-0.471277
C93	C	1.394157	-0.464492	-0.938576
C94	C	1.894157	0.035508	-0.438576
C95	C	1.393998	-0.464679	-0.139083
C96	C	1.893998	0.035321	0.360917
C97	C	1.394151	-0.464416	-0.069442
C98	C	1.894151	0.035584	0.430558
H99	H	1.506114	-0.352795	-0.541038
H100	H	2.006114	0.147205	-0.041038
H101	H	1.380022	-0.622253	-0.742840
H102	H	1.880022	-0.122253	-0.242840
N103	N	1.269357	-0.589390	-0.534216
N104	N	1.769357	-0.089390	-0.034216
N105	N	1.214257	-0.644442	-0.563423
N106	N	1.714257	-0.144442	-0.063423
H107	H	1.169724	-0.688955	-0.539819
H108	H	1.669724	-0.188955	-0.039819
H109	H	1.408021	-0.306919	-0.742827
H110	H	1.908021	0.193081	-0.242827
H111	H	1.282170	-0.576541	-0.659706
H112	H	1.782170	-0.076541	-0.159706
H113	H	1.506124	-0.352574	-0.944675
H114	H	2.006124	0.147426	-0.444675
H115	H	1.408021	-0.306858	-0.861539
H116	H	1.908021	0.193142	-0.361539
N117	N	1.518896	-0.339933	-0.666522
N118	N	2.018896	0.160067	-0.166522
N119	N	1.573995	-0.284877	-0.637317
N120	N	2.073995	0.215123	-0.137317
H121	H	1.618520	-0.240357	-0.660923
H122	H	2.118520	0.259643	-0.160923
H123	H	1.506117	-0.352504	-1.063382
H124	H	2.006117	0.147496	-0.563382
H125	H	1.282176	-0.576324	-1.063343
H126	H	1.782176	-0.076324	-0.563343
H127	H	1.282182	-0.576399	-0.944633
H128	H	1.782182	-0.076399	-0.444633
H129	H	1.380289	-0.622212	-0.861544
H130	H	1.880289	-0.122212	-0.361544
