data_functionalizedCrystal
_audit_creation_method	'MofGen! by Chris Wilmer'
_symmetry_space_group_name_H-M	'P1'
_symmetry_Int_Tables_number	1
_symmetry_cell_setting	triclinic
loop_
_symmetry_equiv_pos_as_xyz
  x,y,z
_cell_length_a	6.817900
_cell_length_b	11.353964
_cell_length_c	14.125465
_cell_angle_alpha	106.193860
_cell_angle_beta	100.398878
_cell_angle_gamma	107.526751
loop_
_atom_site_label
_atom_site_type_symbol
_atom_site_fract_x
_atom_site_fract_y
_atom_site_fract_z
V1	V	-4.027839	-0.179669	-0.330075
O2	O	-3.977518	0.009789	-0.292626
O3	O	-4.015717	-0.357363	-0.357791
O4	O	-3.963317	-0.176398	-0.460357
O5	O	-4.030281	-0.172429	-0.189350
V6	V	-4.508856	-0.157067	-0.309602
O7	O	-4.294596	-0.229247	-0.374984
O8	O	-4.692296	-0.107489	-0.264693
O9	O	-4.297772	0.020628	-0.281886
O10	O	-4.676574	-0.346525	-0.347050
O11	O	-4.623811	-0.164306	-0.450326
O12	O	-4.350172	-0.160338	-0.179320
C13	C	-3.870065	-0.400697	-0.360318
C14	C	-3.941333	-0.545962	-0.383847
C15	C	-3.803222	-0.169856	-0.491150
C16	C	-3.831991	-0.168358	-0.597853
C17	C	-4.014860	-0.743438	-0.331994
C18	C	-3.941204	-0.593300	-0.307677
C19	C	-3.884723	-0.165611	-0.793216
C20	C	-4.071341	-0.171122	-0.846460
C21	C	-4.100683	-0.169593	-0.955167
C22	C	-3.855372	-0.167140	-0.684499
C23	C	-4.106767	0.063955	-0.279357
C24	C	-4.014737	0.209218	-0.255834
C25	C	-4.173610	-0.166883	-0.148522
C26	C	-4.124078	-0.168375	-0.041817
H27	H	-3.886579	-0.522685	-0.224466
H28	H	-3.747003	-0.159746	-0.829271
H29	H	-3.995968	-0.616576	-0.467059
C30	C	-3.940956	-0.695400	-0.143428
H31	H	-3.950449	-0.744573	-0.098799
H32	H	-3.796454	-0.637143	-0.127275
H33	H	-4.030491	-0.645655	-0.134857
C34	C	-4.088661	-0.838826	-0.444399
H35	H	-4.128471	-0.927222	-0.445996
H36	H	-4.208519	-0.828303	-0.482058
H37	H	-3.974493	-0.819811	-0.474486
C38	C	-4.257419	-0.179069	-0.797763
H39	H	-4.212992	-0.179086	-0.730034
H40	H	-4.296818	-0.105002	-0.794987
H41	H	-4.377240	-0.258050	-0.838220
