data_functionalizedCrystal
_audit_creation_method	'MofGen! by Chris Wilmer'
_symmetry_space_group_name_H-M	'P1'
_symmetry_Int_Tables_number	1
_symmetry_cell_setting	triclinic
loop_
_symmetry_equiv_pos_as_xyz
  x,y,z
_cell_length_a	15.995292
_cell_length_b	15.944493
_cell_length_c	15.072220
_cell_angle_alpha	90.004743
_cell_angle_beta	89.986330
_cell_angle_gamma	83.471830
loop_
_atom_site_label
_atom_site_type_symbol
_atom_site_fract_x
_atom_site_fract_y
_atom_site_fract_z
O1	O	1.111010	0.108035	-0.073795
O2	O	0.867226	0.121456	-0.073790
O3	O	0.995800	-0.007535	-0.073800
O4	O	0.982435	0.237025	-0.073785
O5	O	0.995769	-0.007528	0.073765
O6	O	0.867194	0.121463	0.073775
O7	O	1.110978	0.108042	0.073770
Zn8	Zn	0.989081	0.114754	0.097202
Zn9	Zn	0.989123	0.114744	-0.097221
O10	O	0.982404	0.237032	0.073780
C11	C	0.836014	0.120913	-0.000007
C12	C	0.743062	0.119276	-0.000006
C13	C	0.405324	0.113255	-0.000016
C14	C	0.428623	0.206357	-0.000340
C15	C	0.525298	0.208127	-0.000003
C16	C	0.572880	0.116242	-0.000011
C17	C	0.543767	0.069700	0.084250
C18	C	0.446976	0.068579	0.084316
C19	C	0.447157	0.066670	-0.083493
C20	C	0.543650	0.070120	-0.084602
C21	C	0.667576	0.117926	-0.000006
C22	C	0.310629	0.111569	-0.000016
C23	C	0.995238	-0.038826	-0.000021
C24	C	0.993600	-0.132074	-0.000032
C25	C	1.069282	-0.367854	-0.000017
C26	C	1.028486	-0.418415	-0.072773
C27	C	0.990566	-0.302794	-0.000021
C28	C	1.028436	-0.418384	0.072715
C29	C	0.987641	-0.467703	-0.000007
C30	C	0.949791	-0.352127	-0.072837
C31	C	0.949752	-0.352092	0.072716
C32	C	0.908898	-0.402620	-0.000058
C33	C	0.992253	-0.207795	-0.000030
C34	C	0.985947	-0.562700	-0.000004
C35	C	1.142189	0.108584	-0.000015
C36	C	1.235142	0.110222	-0.000022
C37	C	0.982966	0.268323	-0.000000
C38	C	0.984603	0.361572	0.000005
N39	N	0.989059	0.114759	0.229891
N40	N	0.989152	0.114731	-0.229910
C41	C	0.989121	0.114741	0.589092
C42	C	0.920093	0.183530	0.551491
C43	C	0.920251	0.183781	0.448665
C44	C	0.989089	0.114750	0.410888
C45	C	1.076454	0.133875	0.448179
C46	C	1.076067	0.134364	0.551037
C47	C	0.971565	0.026623	0.551188
C48	C	0.969560	0.027211	0.448324
C49	C	0.989077	0.114754	0.310175
C50	C	0.989139	0.114739	0.689806
H51	H	0.576631	0.003054	-0.089698
H52	H	0.931460	0.249172	0.424055
H53	H	1.061742	-0.447372	-0.134285
F54	F	0.906384	-0.314453	-0.153323
H55	H	1.092297	0.197405	0.422414
H56	H	0.841041	-0.418068	-0.000097
F57	F	1.031014	-0.042831	0.414726
F58	F	0.890091	0.002593	0.585133
H59	H	0.916525	-0.323120	0.134230
F60	F	0.567961	0.114392	-0.166083
H61	H	0.855311	0.172389	0.423454
H62	H	0.905294	0.012697	0.423952
H63	H	1.021904	-0.024567	0.575502
H64	H	1.129037	0.086235	0.575908
H65	H	1.061682	-0.447321	0.134220
H66	H	1.091540	0.198626	0.575022
H67	H	1.129047	0.085104	0.423706
F68	F	0.834932	0.168876	0.583838
F69	F	0.428886	-0.022904	-0.084244
H70	H	0.544332	0.244572	-0.060407
F71	F	0.392040	0.253262	-0.079323
F72	F	0.934549	0.268523	0.585253
F73	F	1.157906	-0.347448	-0.000112
H74	H	0.420141	0.100819	0.147309
F75	F	0.390669	0.253009	0.078203
H76	H	0.543683	0.244803	0.060506
H77	H	0.432436	0.000317	0.088138
H78	H	0.575645	0.002086	0.087377
H79	H	0.418840	0.095767	-0.147358
F80	F	0.569959	0.111952	0.166222
