data_functionalizedCrystal
_audit_creation_method	'MofGen! by Chris Wilmer'
_symmetry_space_group_name_H-M	'P1'
_symmetry_Int_Tables_number	1
_symmetry_cell_setting	triclinic
loop_
_symmetry_equiv_pos_as_xyz
  x,y,z
_cell_length_a	19.077105
_cell_length_b	12.759400
_cell_length_c	19.076919
_cell_angle_alpha	87.723966
_cell_angle_beta	89.923776
_cell_angle_gamma	87.709695
loop_
_atom_site_label
_atom_site_type_symbol
_atom_site_fract_x
_atom_site_fract_y
_atom_site_fract_z
Zn1	Zn	1.058336	-0.508277	0.440443
Zn2	Zn	1.062998	-0.677204	0.322945
Zn3	Zn	0.945552	-0.494202	0.318236
Zn4	Zn	0.940820	-0.676571	0.435697
O5	O	1.001927	-0.589064	0.379330
O6	O	1.157287	-0.536841	0.428814
O7	O	1.051350	-0.647304	0.223988
O8	O	0.960543	-0.349051	0.334462
O9	O	1.160712	-0.660951	0.342488
O10	O	1.043405	-0.359392	0.424247
O11	O	0.965063	-0.512853	0.220529
O12	O	0.846592	-0.512239	0.329860
O13	O	0.952477	-0.659871	0.534658
O14	O	0.843115	-0.646224	0.416159
O15	O	1.038816	-0.536226	0.538145
O16	O	1.046762	-0.824138	0.337886
O17	O	0.956998	-0.823673	0.420725
C18	C	0.819357	-0.577636	0.371984
C19	C	0.741252	-0.572773	0.368858
C20	C	0.702769	-0.640345	0.412250
C21	C	0.629382	-0.635763	0.409316
C22	C	0.594478	-0.563613	0.362986
C23	C	0.632966	-0.496034	0.319593
C24	C	0.706352	-0.500612	0.322531
C25	C	0.375188	-0.542425	0.349393
C26	C	0.301796	-0.537854	0.346457
C27	C	0.298217	-0.677582	0.436181
C28	C	0.371605	-0.682158	0.439112
C29	C	0.410086	-0.614575	0.395721
N30	N	0.519464	-0.558929	0.359985
N31	N	0.485099	-0.619255	0.398726
C32	C	1.001890	-0.862028	0.379318
C33	C	1.001938	-0.978809	0.379338
C34	C	1.045060	-1.038976	0.426125
C35	C	1.045092	-1.148703	0.426144
C36	C	0.958878	-1.138085	0.332582
C37	C	0.958843	-1.028360	0.332568
C38	C	1.088155	-0.989424	0.472896
C39	C	1.131282	-1.049592	0.519687
C40	C	1.131314	-1.159319	0.519705
C41	C	1.088219	-1.208878	0.472933
C42	C	1.185209	-0.600536	0.386705
C43	C	1.263313	-0.605426	0.389848
C44	C	0.994599	-0.599548	0.562611
C45	C	0.991476	-0.604016	0.640714
C46	C	1.001982	-0.315035	0.379359
C47	C	1.002005	-0.198261	0.379371
C48	C	1.009267	-0.578547	0.196764
C49	C	1.012526	-0.573791	0.118667
C50	C	1.034959	-0.541743	0.679224
C51	C	1.032016	-0.545936	0.752610
C52	C	0.985593	-0.612409	0.787485
C53	C	0.942106	-0.674685	0.748970
C54	C	0.945046	-0.670485	0.675585
C55	C	0.971978	-0.631867	1.006767
C56	C	0.969043	-0.636064	1.080157
C57	C	1.058952	-0.507314	1.083792
C58	C	1.061891	-0.503125	1.010405
C59	C	1.018401	-0.565396	0.971897
N60	N	0.982586	-0.616700	0.862497
N61	N	1.021405	-0.561100	0.896886
H62	H	0.266877	-0.732602	0.471508
H63	H	1.088136	-0.900080	0.472885
H64	H	1.099695	-0.448998	0.982015
H65	H	0.273380	-0.479089	0.308734
H66	H	0.598052	-0.690788	0.444649
Br67	Br	0.427404	-0.450700	0.290509
H68	H	1.088241	-1.298226	0.472960
Br69	Br	0.585597	-0.398105	0.256723
H70	H	0.931238	-0.690197	1.108550
H71	H	0.904305	-0.728804	0.777371
H72	H	0.923728	-0.979371	0.294470
H73	H	1.072763	-0.487616	0.650834
H74	H	1.166423	-1.208305	0.557809
Br75	Br	0.912954	-0.716377	0.954515
Br76	Br	0.758580	-0.408899	0.263643
H77	H	1.166364	-1.009235	0.557771
H78	H	0.923793	-1.178446	0.294502
H79	H	1.067426	-0.495229	0.783961
H80	H	1.094358	-0.456615	1.115153
H81	H	0.909630	-0.721183	0.644231
Br82	Br	0.750132	-0.738275	0.475124
Br83	Br	0.418969	-0.780085	0.501986
