data_functionalizedCrystal
_audit_creation_method	'MofGen! by Chris Wilmer'
_symmetry_space_group_name_H-M	'P1'
_symmetry_Int_Tables_number	1
_symmetry_cell_setting	triclinic
loop_
_symmetry_equiv_pos_as_xyz
  x,y,z
_cell_length_a	25.639242
_cell_length_b	25.639239
_cell_length_c	11.169409
_cell_angle_alpha	90.039281
_cell_angle_beta	90.024124
_cell_angle_gamma	90.030990
loop_
_atom_site_label
_atom_site_type_symbol
_atom_site_fract_x
_atom_site_fract_y
_atom_site_fract_z
Zn1	Zn	0.799275	-0.208216	0.678622
Zn2	Zn	0.799184	-0.295666	0.477915
Zn3	Zn	0.711837	-0.208235	0.477942
Zn4	Zn	0.711797	-0.295610	0.678545
O5	O	0.755523	-0.251932	0.578256
O6	O	0.872429	-0.219832	0.652019
O7	O	0.787576	-0.284099	0.309969
O8	O	0.723491	-0.135067	0.504606
O9	O	0.872361	-0.284081	0.504560
O10	O	0.787732	-0.135053	0.652045
O11	O	0.723402	-0.219864	0.309988
O12	O	0.638666	-0.219810	0.504531
O13	O	0.723423	-0.283986	0.846505
O14	O	0.638637	-0.284004	0.651913
O15	O	0.787693	-0.219778	0.846562
O16	O	0.787537	-0.368824	0.504485
O17	O	0.723334	-0.368783	0.651887
C18	C	0.619681	-0.251903	0.578217
C19	C	0.561567	-0.251904	0.578229
C20	C	0.310416	-0.218536	0.655178
C21	C	0.365021	-0.218531	0.655171
O22	O	0.393294	-0.190138	0.720587
N23	N	0.392293	-0.251926	0.578270
C24	C	0.364958	-0.285331	0.501379
O25	O	0.393169	-0.313735	0.435968
C26	C	0.310355	-0.285338	0.501392
C27	C	0.283085	-0.251938	0.578290
C28	C	0.283147	-0.185139	0.732070
C29	C	0.228546	-0.185144	0.732075
C30	C	0.201215	-0.218546	0.655188
C31	C	0.228485	-0.251943	0.578295
C32	C	0.283021	-0.318746	0.424508
C33	C	0.228414	-0.318751	0.424529
C34	C	0.201144	-0.285351	0.501427
C35	C	0.146553	-0.285349	0.501413
N36	N	0.119281	-0.251955	0.578314
C37	C	0.146612	-0.218553	0.655201
C38	C	0.479629	-0.285314	0.501357
C39	C	0.534231	-0.285304	0.501336
C40	C	0.534290	-0.218505	0.655131
C41	C	0.479686	-0.218512	0.655144
C42	C	0.452356	-0.251919	0.578258
C43	C	0.031947	-0.218565	0.655205
C44	C	-0.022659	-0.218571	0.655200
C45	C	-0.022713	-0.285372	0.501411
C46	C	0.031888	-0.285364	0.501411
C47	C	0.059216	-0.251959	0.578318
O48	O	0.118245	-0.313729	0.436033
O49	O	0.118394	-0.190158	0.720612
C50	C	0.755435	-0.387774	0.578201
C51	C	0.755446	-0.445888	0.578217
C52	C	0.789041	-0.806260	0.501634
C53	C	0.789061	-0.860864	0.501651
O54	O	0.817534	-0.889108	0.436477
N55	N	0.755615	-0.888171	0.578335
C56	C	0.722150	-0.860870	0.655018
O57	O	0.693704	-0.889110	0.720246
C58	C	0.722133	-0.806267	0.655007
C59	C	0.755578	-0.778963	0.578308
C60	C	0.822483	-0.778956	0.424943
C61	C	0.822462	-0.724356	0.424926
C62	C	0.788999	-0.697059	0.501600
C63	C	0.755557	-0.724363	0.578291
C64	C	0.688671	-0.778967	0.731694
C65	C	0.688657	-0.724360	0.731678
C66	C	0.722102	-0.697056	0.654979
C67	C	0.722072	-0.642465	0.654948
N68	N	0.755518	-0.615159	0.578263
C69	C	0.788982	-0.642456	0.501589
C70	C	0.722190	-0.975541	0.655036
C71	C	0.722204	-1.030143	0.655042
C72	C	0.789116	-1.030133	0.501676
C73	C	0.789098	-0.975530	0.501665
C74	C	0.755636	-0.948234	0.578351
C75	C	0.788934	-0.527791	0.501558
C76	C	0.788909	-0.473185	0.501544
C77	C	0.721999	-0.473199	0.654913
C78	C	0.722023	-0.527800	0.654924
C79	C	0.755495	-0.555094	0.578242
O80	O	0.693615	-0.614186	0.720092
O81	O	0.817428	-0.614209	0.436382
C82	C	0.891896	-0.251960	0.578295
C83	C	0.950010	-0.251973	0.578312
C84	C	0.755563	-0.251874	0.891298
C85	C	0.755581	-0.251849	1.024699
C86	C	0.755626	-0.115559	0.578337
C87	C	0.755670	-0.057445	0.578372
C88	C	0.755513	-0.251952	0.266431
C89	C	0.755598	-0.251829	0.133032
H90	H	0.206348	-0.157948	0.794699
H91	H	0.305394	-0.157939	0.794688
H92	H	0.694965	-1.052369	0.717486
H93	H	0.054191	-0.191363	0.717830
N94	N	0.061301	-0.321384	0.418461
H95	H	0.083953	-0.345637	0.467131
H96	H	0.083926	-0.300069	0.362948
N97	N	0.198936	-0.354785	0.341604
H98	H	0.224500	-0.375940	0.292894
H99	H	0.176279	-0.333480	0.286149
H100	H	-0.044976	-0.312564	0.438806
N101	N	0.450273	-0.182495	0.738091
H102	H	0.427616	-0.158244	0.689427
H103	H	0.475908	-0.161369	0.786777
H104	H	0.816192	-0.550007	0.439119
N105	N	0.652606	-0.808411	0.814429
H106	H	0.628390	-0.831106	0.765625
H107	H	0.631444	-0.782795	0.862987
H108	H	0.694936	-0.953319	0.717480
H109	H	0.849736	-0.801176	0.362506
H110	H	0.556553	-0.191307	0.717737
H111	H	0.556429	-0.312496	0.438705
H112	H	0.457380	-0.312516	0.438737
H113	H	0.305214	-0.345944	0.361890
H114	H	0.816143	-0.450956	0.439082
N115	N	0.825210	-1.059580	0.418974
H116	H	0.820144	-1.098314	0.430628
H117	H	0.862543	-1.049999	0.437732
N118	N	0.858542	-0.694911	0.342219
H119	H	0.879744	-0.720496	0.293663
H120	H	0.882719	-0.672222	0.391132
N121	N	0.825172	-0.946083	0.418946
H122	H	0.846371	-0.971666	0.370378
H123	H	0.849352	-0.923393	0.467848
N124	N	0.652566	-0.694919	0.814394
H125	H	0.631384	-0.720505	0.862978
H126	H	0.628370	-0.672304	0.765487
N127	N	0.685946	-0.557253	0.737632
H128	H	0.664743	-0.531672	0.786198
H129	H	0.707226	-0.579866	0.793231
N130	N	0.685908	-0.443747	0.737600
H131	H	0.707140	-0.421054	0.793248
H132	H	0.664728	-0.469357	0.786114
N133	N	-0.052071	-0.182540	0.738130
H134	H	-0.026467	-0.161380	0.786835
H135	H	-0.074727	-0.203847	0.793591
