data_functionalizedCrystal
_audit_creation_method	'MofGen! by Chris Wilmer'
_symmetry_space_group_name_H-M	'P1'
_symmetry_Int_Tables_number	1
_symmetry_cell_setting	triclinic
loop_
_symmetry_equiv_pos_as_xyz
  x,y,z
_cell_length_a	16.120444
_cell_length_b	16.120490
_cell_length_c	16.120339
_cell_angle_alpha	90.179912
_cell_angle_beta	89.786690
_cell_angle_gamma	89.834826
loop_
_atom_site_label
_atom_site_type_symbol
_atom_site_fract_x
_atom_site_fract_y
_atom_site_fract_z
Zn1	Zn	-0.365984	-1.228134	-0.552133
Zn2	Zn	0.134016	-0.728134	-0.052133
Zn3	Zn	-0.512146	-1.227273	-0.420076
Zn4	Zn	-0.012146	-0.727273	0.079924
Zn5	Zn	-0.366798	-1.096039	-0.406082
Zn6	Zn	0.133202	-0.596039	0.093918
Zn7	Zn	-0.497970	-1.082020	-0.551379
Zn8	Zn	0.002030	-0.582020	-0.051379
O9	O	-0.435725	-1.158367	-0.482417
O10	O	0.064275	-0.658367	0.017583
O11	O	-0.390965	-1.344091	-0.540788
O12	O	0.109035	-0.844091	-0.040788
O13	O	-0.499138	-1.215372	-0.302145
O14	O	0.000862	-0.715372	0.197855
O15	O	-0.250625	-1.119790	-0.419915
O16	O	0.249375	-0.619790	0.080085
O17	O	-0.498349	-1.343459	-0.443765
O18	O	0.001651	-0.843459	0.056235
O19	O	-0.250027	-1.216839	-0.527218
O20	O	0.249973	-0.716839	-0.027218
O21	O	-0.392352	-1.118955	-0.291864
O22	O	0.107648	-0.618955	0.208136
O23	O	-0.378606	-0.978109	-0.419184
O24	O	0.121394	-0.478109	0.080816
O25	O	-0.474189	-1.095895	-0.667553
O26	O	0.025811	-0.595895	-0.167553
O27	O	-0.474978	-0.967808	-0.525933
O28	O	0.025022	-0.467808	-0.025933
O29	O	-0.377219	-1.203245	-0.668107
O30	O	0.122781	-0.703245	-0.168107
O31	O	-0.626331	-1.201777	-0.443034
O32	O	-0.126331	-0.701777	0.056966
O33	O	-0.615916	-1.095060	-0.539502
O34	O	-0.115916	-0.595060	-0.039502
C35	C	-0.651218	-1.146826	-0.492724
C36	C	-0.151218	-0.646826	0.007276
C37	C	-0.743409	-1.141963	-0.497165
C38	C	-0.243409	-0.641963	0.002835
C39	C	-0.425343	-0.942862	-0.470958
C40	C	0.074657	-0.442862	0.029042
C41	C	-0.420920	-0.850667	-0.466077
C42	C	0.079080	-0.350667	0.033923
C43	C	-0.424032	-1.148102	-0.698768
C44	C	0.075968	-0.648102	-0.198768
C45	C	-0.419049	-1.143728	-0.790964
C46	C	0.080951	-0.643728	-0.290964
C47	C	-0.958407	-1.183787	-0.459569
C48	C	-0.458407	-0.683787	0.040431
C49	C	-0.912199	-1.133100	-0.505283
C50	C	-0.412199	-0.633100	-0.005283
C51	C	-0.818275	-1.138033	-0.500765
C52	C	-0.318275	-0.638033	-0.000765
C53	C	-1.052338	-1.178855	-0.464086
C54	C	-0.552338	-0.678855	0.035914
C55	C	-0.219390	-1.169974	-0.472090
C56	C	0.280610	-0.669974	0.027910
C57	C	-0.127201	-1.174921	-0.467689
C58	C	0.372799	-0.674921	0.032311
C59	C	-0.446148	-1.374712	-0.493922
C60	C	0.053852	-0.874712	0.006078
C61	C	-0.450589	-1.466906	-0.498824
C62	C	0.049411	-0.966906	0.001176
C63	C	-0.458658	-0.635709	-0.507740
C64	C	0.041342	-0.135709	-0.007740
C65	C	-0.412854	-0.681869	-0.457164
C66	C	0.087146	-0.181869	0.042836
C67	C	-0.417343	-0.775796	-0.462124
C68	C	0.082657	-0.275796	0.037876
C69	C	-0.454170	-0.541773	-0.502780
C70	C	0.045830	-0.041773	-0.002780
C71	C	-0.447314	-1.168642	-0.266908
C72	C	0.052686	-0.668642	0.233092
C73	C	-0.452071	-1.173190	-0.174710
C74	C	0.047929	-0.673190	0.325290
C75	C	-0.410370	-1.135421	0.040228
C76	C	0.089630	-0.635421	0.540228
C77	C	-0.460748	-1.181493	-0.005907
C78	C	0.039252	-0.681493	0.494093
C79	C	-0.455919	-1.176872	-0.099838
C80	C	0.044081	-0.676872	0.400162
C81	C	-0.415198	-1.140042	0.134167
C82	C	0.084802	-0.640042	0.634167
H83	H	-0.927431	-1.230882	-0.417041
H84	H	-0.427431	-0.730882	0.082959
O85	O	-0.516512	-1.232615	0.031256
O86	O	-0.016512	-0.732615	0.531256
C87	C	-0.572177	-1.283941	0.160124
C88	C	-0.072177	-0.783941	0.660124
C89	C	-0.508998	-1.226005	0.118139
C90	C	-0.008998	-0.726005	0.618139
H91	H	-0.566111	-1.278630	0.230375
H92	H	-0.066111	-0.778630	0.730375
H93	H	-0.637655	-1.265450	0.140955
H94	H	-0.137655	-0.765450	0.640955
H95	H	-0.559496	-1.350688	0.140113
H96	H	-0.059496	-0.850688	0.640113
H97	H	-0.521603	-1.159241	0.138128
H98	H	-0.021603	-0.659241	0.638128
H99	H	-0.443541	-1.244567	0.137307
H100	H	0.056459	-0.744567	0.637307
H101	H	-0.363617	-1.092510	0.009185
H102	H	0.136383	-0.592510	0.509185
H103	H	-0.943177	-1.086001	-0.547813
H104	H	-0.443177	-0.586001	-0.047813
H105	H	-0.501242	-0.666731	-0.554761
H106	H	-0.001242	-0.166731	-0.054761
H107	H	-0.370268	-0.650845	-0.410138
H108	H	0.129732	-0.150845	0.089862
