data_functionalizedCrystal
_audit_creation_method	'MofGen! by Chris Wilmer'
_symmetry_space_group_name_H-M	'P1'
_symmetry_Int_Tables_number	1
_symmetry_cell_setting	triclinic
loop_
_symmetry_equiv_pos_as_xyz
  x,y,z
_cell_length_a	13.897448
_cell_length_b	19.077241
_cell_length_c	19.076919
_cell_angle_alpha	89.886096
_cell_angle_beta	87.727045
_cell_angle_gamma	87.690356
loop_
_atom_site_label
_atom_site_type_symbol
_atom_site_fract_x
_atom_site_fract_y
_atom_site_fract_z
Zn1	Zn	-0.350169	-1.058320	0.440571
Zn2	Zn	0.149831	-0.558320	0.940571
Zn3	Zn	-0.504750	-1.062974	0.323067
Zn4	Zn	-0.004750	-0.562974	0.823067
Zn5	Zn	-0.349661	-0.945536	0.318349
Zn6	Zn	0.150339	-0.445536	0.818349
Zn7	Zn	-0.517616	-0.940794	0.435803
Zn8	Zn	-0.017616	-0.440794	0.935803
O9	O	-0.430549	-1.001906	0.379448
O10	O	0.069451	-0.501906	0.879448
O11	O	-0.365503	-1.157271	0.428954
O12	O	0.134497	-0.657271	0.928954
O13	O	-0.478580	-1.051327	0.224111
O14	O	0.021420	-0.551327	0.724111
O15	O	-0.214746	-0.960534	0.334583
O16	O	0.285254	-0.460534	0.834583
O17	O	-0.479073	-1.160690	0.342625
O18	O	0.020927	-0.660690	0.842625
O19	O	-0.215119	-1.043396	0.424379
O20	O	0.284881	-0.543396	0.924379
O21	O	-0.364637	-0.965046	0.220644
O22	O	0.135363	-0.465046	0.720644
O23	O	-0.377112	-0.846574	0.329959
O24	O	0.122888	-0.346574	0.829959
O25	O	-0.501001	-0.952452	0.534766
O26	O	-0.001001	-0.452452	1.034766
O27	O	-0.500508	-0.843090	0.416252
O28	O	-0.000508	-0.343090	0.916252
O29	O	-0.377979	-1.038798	0.538270
O30	O	0.122021	-0.538798	1.038270
O31	O	-0.641440	-1.046729	0.338001
O32	O	-0.141440	-0.546729	0.838001
O33	O	-0.650892	-0.956964	0.420828
O34	O	-0.150892	-0.456964	0.920828
C35	C	-0.440152	-0.819335	0.372077
C36	C	0.059848	-0.319335	0.872077
C37	C	-0.444284	-0.741230	0.368940
C38	C	0.055716	-0.241230	0.868940
C39	C	-0.387198	-0.702754	0.412482
C40	C	0.112802	-0.202754	0.912482
C41	C	-0.391075	-0.629366	0.409529
C42	C	0.108925	-0.129366	0.909529
C43	C	-0.452045	-0.594455	0.363037
C44	C	0.047955	-0.094455	0.863037
C45	C	-0.509134	-0.632936	0.319490
C46	C	-0.009134	-0.132936	0.819490
C47	C	-0.505251	-0.706323	0.322440
C48	C	-0.005251	-0.206323	0.822440
C49	C	-0.469985	-0.375163	0.349383
C50	C	0.030015	0.124837	0.849383
C51	C	-0.473866	-0.301771	0.346437
C52	C	0.026134	0.198229	0.846437
C53	C	-0.355805	-0.298206	0.436476
C54	C	0.144195	0.201794	0.936476
C55	C	-0.351932	-0.371594	0.439425
C56	C	0.148068	0.128406	0.939425
C57	C	-0.409017	-0.410069	0.395875
C58	C	0.090983	0.089931	0.895875
N59	N	-0.456013	-0.519441	0.360018
N60	N	0.043987	-0.019441	0.860018
N61	N	-0.405044	-0.485082	0.398891
N62	N	0.094956	0.014918	0.898891
C63	C	-0.681165	-1.001856	0.379425
C64	C	-0.181165	-0.501856	0.879425
C65	C	-0.788378	-1.001897	0.379442
C66	C	-0.288378	-0.501897	0.879442
C67	C	-0.984671	-1.001969	0.379489
C68	C	-0.484671	-0.501969	0.879489
C69	C	-0.875440	-1.001927	0.379465
C70	C	-0.375440	-0.501927	0.879465
C71	C	-0.178955	-1.001975	0.379486
C72	C	0.321045	-0.501975	0.879486
C73	C	-0.071740	-1.002005	0.379503
C74	C	0.428260	-0.502005	0.879503
C75	C	-0.440982	-0.994577	0.562727
C76	C	0.059018	-0.494577	1.062727
C77	C	-0.445427	-0.991454	0.640830
C78	C	0.054573	-0.491454	1.140830
C79	C	-0.420904	-0.185190	0.386842
C80	C	0.079096	0.314810	0.886842
C81	C	-0.416780	-0.263295	0.389979
C82	C	0.083220	0.236705	0.889979
C83	C	-0.420086	-1.009247	0.196883
C84	C	0.079914	-0.509247	0.696883
C85	C	-0.415361	-1.012506	0.118786
C86	C	0.084639	-0.512506	0.618786
C87	C	-0.383468	-1.034940	0.679347
C88	C	0.116532	-0.534940	1.179347
C89	C	-0.387642	-1.031997	0.752733
C90	C	0.112358	-0.531997	1.252733
C91	C	-0.453781	-0.985571	0.787599
C92	C	0.046219	-0.485571	1.287599
C93	C	-0.515743	-0.942080	0.749076
C94	C	-0.015743	-0.442080	1.249076
C95	C	-0.511564	-0.945020	0.675692
C96	C	-0.011564	-0.445020	1.175692
C97	C	-0.473144	-0.971955	1.006879
C98	C	0.026856	-0.471955	1.506879
C99	C	-0.477321	-0.969020	1.080268
C100	C	0.022679	-0.469020	1.580268
C101	C	-0.349217	-1.058936	1.083920
C102	C	0.150783	-0.558936	1.583920
C103	C	-0.345048	-1.061875	1.010534
C104	C	0.154952	-0.561875	1.510534
C105	C	-0.407007	-1.018381	0.972017
C106	C	0.092993	-0.518381	1.472017
N107	N	-0.458051	-0.982564	0.862611
N108	N	0.041949	-0.482564	1.362611
N109	N	-0.402731	-1.021386	0.897007
N110	N	0.097269	-0.521386	1.397007
H111	H	-0.558773	-0.604506	0.281631
H112	H	-0.058773	-0.104506	0.781631
Cl113	Cl	-0.319309	-0.580999	0.464273
Cl114	Cl	0.180691	-0.080999	0.964273
H115	H	-0.302287	-0.400013	0.477287
H116	H	0.197713	0.099987	0.977287
H117	H	-0.309329	-0.266872	0.471930
H118	H	0.190671	0.233128	0.971930
H119	H	-0.551736	-0.737650	0.286983
H120	H	-0.051736	-0.237650	0.786983
Cl121	Cl	-0.541728	-0.423523	0.294619
Cl122	Cl	-0.041728	0.076477	0.794619
Cl123	Cl	-0.261899	-1.120242	0.966708
Cl124	Cl	0.238101	-0.620242	1.466708
H125	H	-0.329613	-1.072748	0.650965
H126	H	0.170387	-0.572748	1.150965
H127	H	-0.298773	-1.094345	1.115288
H128	H	0.201227	-0.594345	1.615288
H129	H	-0.337552	-0.731172	0.450343
H130	H	0.162448	-0.231172	0.950343
Cl131	Cl	-0.560468	-0.910647	1.124099
Cl132	Cl	-0.060468	-0.410647	1.624099
H133	H	-0.523609	-0.936549	0.975528
H134	H	-0.023609	-0.436549	1.475528
Cl135	Cl	-0.309787	-1.086700	0.801154
Cl136	Cl	0.190213	-0.586700	1.301154
H137	H	-0.569592	-0.904277	0.777470
H138	H	-0.069592	-0.404277	1.277470
Cl139	Cl	-0.589457	-0.890347	0.627269
Cl140	Cl	-0.089457	-0.390347	1.127269
H141	H	-0.523520	-0.273349	0.308577
H142	H	-0.023520	0.226651	0.808577
