data_functionalizedCrystal
_audit_creation_method	'MofGen! by Chris Wilmer'
_symmetry_space_group_name_H-M	'P1'
_symmetry_Int_Tables_number	1
_symmetry_cell_setting	triclinic
loop_
_symmetry_equiv_pos_as_xyz
  x,y,z
_cell_length_a	19.121321
_cell_length_b	19.121111
_cell_length_c	18.101389
_cell_angle_alpha	92.421432
_cell_angle_beta	87.577337
_cell_angle_gamma	90.069032
loop_
_atom_site_label
_atom_site_type_symbol
_atom_site_fract_x
_atom_site_fract_y
_atom_site_fract_z
Zn1	Zn	1.059796	0.324821	0.385627
Zn2	Zn	1.054701	0.442040	0.267284
Zn3	Zn	0.942565	0.319831	0.266853
Zn4	Zn	0.937523	0.437030	0.396134
O5	O	0.998646	0.380931	0.328974
O6	O	1.157221	0.344556	0.365712
O7	O	1.039804	0.425838	0.163595
O8	O	0.962358	0.222388	0.278030
O9	O	1.153478	0.430676	0.278766
O10	O	1.048487	0.226055	0.365293
O11	O	0.957418	0.336051	0.163278
O12	O	0.843795	0.331193	0.288219
O13	O	0.953765	0.422137	0.498372
O14	O	0.840090	0.417298	0.383201
O15	O	1.043598	0.339697	0.490652
O16	O	1.034915	0.539480	0.288954
O17	O	0.948825	0.535799	0.383619
C18	C	0.816506	0.373161	0.336804
C19	C	0.738585	0.369854	0.340171
C20	C	0.297979	0.348848	0.361526
C21	C	0.371193	0.351969	0.358358
C22	C	0.405846	0.398293	0.311425
C23	C	0.367280	0.441505	0.267664
C24	C	0.294066	0.438388	0.270836
C25	C	0.626805	0.409948	0.299582
C26	C	0.700024	0.413061	0.296411
C27	C	0.703932	0.323525	0.387107
C28	C	0.630718	0.320409	0.390272
C29	C	0.592158	0.363623	0.346513
C30	C	0.480683	0.401482	0.308184
C31	C	0.517322	0.360437	0.349758
C32	C	0.990789	0.563078	0.337489
C33	C	0.987492	0.641004	0.341154
C34	C	1.030800	0.679509	0.293626
C35	C	1.027703	0.752729	0.297077
C36	C	0.981294	0.787443	0.348052
C37	C	0.937983	0.748933	0.395585
C38	C	0.941084	0.675714	0.392137
C39	C	0.969690	1.008420	0.360929
C40	C	0.966591	1.081644	0.364372
C41	C	1.056312	1.085435	0.265864
C42	C	1.059406	1.012215	0.262418
C43	C	1.016098	0.973712	0.309953
C44	C	0.978126	0.862285	0.351579
C45	C	1.019270	0.898871	0.306430
C46	C	1.181498	0.388731	0.321115
C47	C	1.259418	0.392056	0.317766
C48	C	0.998687	0.380915	0.522134
C49	C	0.998705	0.380908	0.604447
C50	C	1.006547	1.198073	0.320451
C51	C	1.009899	1.120149	0.316844
C52	C	0.998648	0.380898	0.136562
C53	C	0.998774	0.380713	0.054235
C54	C	0.998751	0.380778	0.903530
C55	C	0.942051	0.432467	0.877062
C56	C	0.942188	0.432723	0.791449
C57	C	0.998728	0.380843	0.755151
C58	C	1.071734	0.404042	0.784006
C59	C	1.071416	0.404384	0.869681
C60	C	0.983093	0.305797	0.869290
C61	C	0.981431	0.306156	0.783730
C62	C	0.998719	0.380878	0.671294
C63	C	0.998765	0.380745	0.987387
H64	H	1.068588	0.651250	0.252113
H65	H	0.269770	0.311121	0.399738
C66	C	0.584399	0.457482	0.251443
C67	C	0.594678	0.452066	0.166558
C68	C	0.552270	0.499602	0.118416
C69	C	0.499583	0.552555	0.155159
C70	C	0.489302	0.557973	0.240049
C71	C	0.531710	0.510436	0.288191
H72	H	0.633682	0.412865	0.139354
H73	H	0.559881	0.495591	0.055575
H74	H	0.468190	0.587744	0.119522
H75	H	0.450298	0.597173	0.267253
H76	H	0.524099	0.514447	0.351032
H77	H	0.508905	0.439198	0.269969
C78	C	1.103952	1.127790	0.213582
C79	C	1.155001	1.089606	0.157510
C80	C	1.202645	1.131960	0.105227
C81	C	1.199240	1.212498	0.109014
C82	C	1.148189	1.250686	0.165088
C83	C	1.100545	1.208332	0.217372
H84	H	1.157523	1.029983	0.154704
H85	H	1.240436	1.103691	0.063717
H86	H	1.234509	1.243851	0.070311
H87	H	1.145666	1.310309	0.167894
H88	H	1.062753	1.236601	0.258881
H89	H	0.489104	0.322722	0.387973
H90	H	0.905819	0.644364	0.430840
H91	H	0.940337	0.890557	0.393082
C92	C	0.915543	1.119827	0.420458
C93	C	0.943767	1.171403	0.479682
C94	C	0.892723	1.209585	0.535765
C95	C	0.813453	1.196191	0.532625
C96	C	0.785225	1.144613	0.473398
C97	C	0.836270	1.106431	0.417314
H98	H	1.002451	1.181320	0.482009
H99	H	0.913620	1.247766	0.579609
H100	H	0.775667	1.224455	0.574141
H101	H	0.726541	1.134696	0.471071
H102	H	0.815372	1.068249	0.373471
H103	H	1.114924	0.368541	0.886847
C104	C	0.592611	0.269453	0.441909
C105	C	0.602479	0.275734	0.525920
C106	C	0.564377	0.224777	0.577559
C107	C	0.516407	0.167538	0.545187
C108	C	0.506537	0.161255	0.461171
C109	C	0.544639	0.212213	0.409532
H110	H	0.637991	0.318108	0.549888
H111	H	0.571683	0.229428	0.639753
H112	H	0.488202	0.129816	0.583413
H113	H	0.471025	0.118882	0.437203
H114	H	0.537333	0.207561	0.347338
C115	C	1.075348	0.795080	0.244795
C116	C	1.070098	0.784820	0.160374
C117	C	1.117749	0.827168	0.108091
C118	C	1.170649	0.879777	0.140231
C119	C	1.175900	0.890040	0.224657
C120	C	1.128250	0.847691	0.276939
H121	H	1.030937	0.745873	0.136578
H122	H	1.113861	0.819571	0.045594
H123	H	1.205923	0.911127	0.101528
H124	H	1.215062	0.928986	0.248452
H125	H	1.132138	0.855289	0.339437
H126	H	1.057060	0.870605	0.264928
C127	C	0.251646	0.485915	0.222698
C128	C	0.261917	0.480500	0.137812
C129	C	0.219497	0.528031	0.089675
C130	C	0.166806	0.580976	0.126424
C131	C	0.156532	0.586392	0.211314
C132	C	0.198952	0.538862	0.259451
H133	H	0.300925	0.441306	0.110604
H134	H	0.227103	0.524021	0.026833
H135	H	0.135404	0.616161	0.090790
H136	H	0.117525	0.625587	0.238522
H137	H	0.191347	0.542872	0.322293
C138	C	0.922050	0.966078	0.413219
C139	C	0.841929	0.972822	0.411014
C140	C	0.794287	0.930477	0.463309
C141	C	0.826767	0.881389	0.517809
C142	C	0.906892	0.874643	0.520016
C143	C	0.954534	0.916987	0.467721
H144	H	0.817882	1.009161	0.370668
H145	H	0.734973	0.935471	0.461675
H146	H	0.791499	0.850043	0.556521
H147	H	0.930939	0.838303	0.560363
H148	H	1.013848	0.911993	0.469355
C149	C	0.868919	0.412622	0.765430
C150	C	0.809875	0.396222	0.822592
C151	C	0.736602	0.376126	0.796579
C152	C	0.722373	0.372429	0.713404
C153	C	0.781419	0.388829	0.656237
C154	C	0.854692	0.408926	0.682250
H155	H	0.820407	0.398959	0.884168
H156	H	0.692892	0.363985	0.838898
H157	H	0.668132	0.357552	0.694147
H158	H	0.770887	0.386093	0.594661
H159	H	0.898401	0.421066	0.639931
H160	H	0.927721	0.288718	0.765038
H161	H	0.887645	0.417706	0.899439
H162	H	0.900199	0.777203	0.437094
C163	C	0.955518	0.507003	0.908880
C164	C	1.017723	0.521089	0.958741
C165	C	1.031192	0.595625	0.990561
C166	C	0.982456	0.656076	0.972519
C167	C	0.920247	0.641992	0.922655
C168	C	0.906778	0.567456	0.890835
H169	H	1.053805	0.476338	0.972100
H170	H	1.077244	0.606050	1.027473
H171	H	0.992427	0.711252	0.996073
H172	H	0.884165	0.686743	0.909296
H173	H	0.860726	0.557030	0.853922
C174	C	1.130157	0.354971	0.751684
C175	C	1.112211	0.293113	0.698586
C176	C	1.170632	0.244038	0.666266
C177	C	1.247001	0.256821	0.687044
C178	C	1.264951	0.318681	0.740145
C179	C	1.206530	0.367756	0.772465
H180	H	1.055675	0.283648	0.683203
H181	H	1.157344	0.198245	0.626958
H182	H	1.290248	0.220493	0.663119
H183	H	1.321487	0.328146	0.755529
H184	H	1.219818	0.413549	0.811774
C185	C	0.912647	0.278067	0.900374
C186	C	0.853583	0.259548	0.847704
C187	C	0.783134	0.231826	0.878789
C188	C	0.771749	0.222623	0.962544
C189	C	0.830815	0.241141	1.015218
C190	C	0.901264	0.268863	0.984134
H191	H	0.862009	0.266361	0.785700
H192	H	0.739410	0.218118	0.839795
H193	H	0.719599	0.202101	0.985554
H194	H	0.822389	0.234329	1.077223
H195	H	0.944988	0.282572	1.023128
C196	C	0.955842	0.507711	0.766525
C197	C	0.966660	0.567546	0.824554
C198	C	0.980318	0.642536	0.799631
C199	C	0.983157	0.657691	0.716679
C200	C	0.972339	0.597854	0.658645
C201	C	0.958681	0.522864	0.683568
H202	H	0.964558	0.556329	0.885964
H203	H	0.988326	0.686832	0.842592
H204	H	0.993267	0.713204	0.698229
H205	H	0.974440	0.609072	0.597234
H206	H	0.950673	0.478569	0.640607
H207	H	1.024429	0.267248	0.885969
C208	C	1.090574	0.477456	0.757498
C209	C	1.097162	0.490401	0.674102
C210	C	1.115997	0.563816	0.647596
C211	C	1.128245	0.624286	0.704486
C212	C	1.121658	0.611344	0.787887
C213	C	1.102823	0.537928	0.814393
H214	H	1.088094	0.445635	0.631984
H215	H	1.120873	0.573396	0.585857
H216	H	1.142189	0.678633	0.684865
H217	H	1.130725	0.656109	0.830006
H218	H	1.097947	0.528348	0.876133
C219	C	1.033492	0.251024	0.750018
C220	C	1.006856	0.188323	0.702957
C221	C	1.058924	0.133195	0.669244
C222	C	1.137627	0.140768	0.682592
C223	C	1.164267	0.203471	0.729656
C224	C	1.112199	0.258599	0.763369
H225	H	0.948591	0.182715	0.693074
H226	H	1.039203	0.086778	0.634404
H227	H	1.176171	0.099958	0.657636
H228	H	1.222532	0.209079	0.739540
H229	H	1.131920	0.305017	0.798209
H230	H	0.728236	0.450787	0.258192
H231	H	0.735336	0.288343	0.422733
H232	H	0.395500	0.479227	0.229454
H233	H	0.402586	0.316787	0.393994
H234	H	1.097196	0.983953	0.220910
H235	H	1.085059	0.459289	0.891517
