data_functionalizedCrystal
_audit_creation_method	'MofGen! by Chris Wilmer'
_symmetry_space_group_name_H-M	'P1'
_symmetry_Int_Tables_number	1
_symmetry_cell_setting	triclinic
loop_
_symmetry_equiv_pos_as_xyz
  x,y,z
_cell_length_a	19.188905
_cell_length_b	19.188924
_cell_length_c	14.586319
_cell_angle_alpha	89.994146
_cell_angle_beta	89.989373
_cell_angle_gamma	83.138260
loop_
_atom_site_label
_atom_site_type_symbol
_atom_site_fract_x
_atom_site_fract_y
_atom_site_fract_z
O1	O	0.926153	0.087084	-0.076396
O2	O	0.722839	0.098836	-0.076365
O3	O	0.830366	-0.008696	-0.076370
O4	O	0.818626	0.194617	-0.076390
O5	O	0.830358	-0.008698	0.076111
O6	O	0.722831	0.098835	0.076116
O7	O	0.926145	0.087082	0.076085
Cu8	Cu	0.824488	0.092958	0.090023
Cu9	Cu	0.824497	0.092960	-0.090303
O10	O	0.818619	0.194615	0.076091
C11	C	0.696824	0.098458	-0.000120
C12	C	0.619318	0.097324	-0.000108
C13	C	0.582931	0.096780	-0.083228
C14	C	0.510107	0.095707	-0.083239
C15	C	0.473676	0.095164	-0.000126
C16	C	0.510072	0.095712	0.083005
C17	C	0.582893	0.096792	0.083014
N18	N	0.364654	0.053735	0.061731
N19	N	0.295477	0.052707	0.061717
C20	C	0.254269	0.091911	-0.000148
N21	N	0.284853	0.132173	-0.062012
N22	N	0.354037	0.133198	-0.062000
C23	C	0.394713	0.093993	-0.000126
C24	C	0.138918	0.090205	-0.083285
C25	C	0.066092	0.089137	-0.083293
C26	C	0.066059	0.089134	0.082953
C27	C	0.138883	0.090210	0.082958
C28	C	0.175308	0.090742	-0.000163
C29	C	0.829982	-0.034708	-0.000129
C30	C	0.828844	-0.112213	-0.000126
C31	C	0.828316	-0.148611	-0.083244
C32	C	0.827236	-0.221434	-0.083251
C33	C	0.826698	-0.257857	-0.000135
C34	C	0.827221	-0.221450	0.082993
C35	C	0.828294	-0.148628	0.082998
N36	N	0.864743	-0.377525	0.061720
N37	N	0.863725	-0.446703	0.061710
C38	C	0.823464	-0.477266	-0.000144
N39	N	0.784267	-0.436039	-0.062001
N40	N	0.785288	-0.366855	-0.061993
C41	C	0.825534	-0.336821	-0.000131
C42	C	0.821764	-0.592627	-0.083274
C43	C	0.820680	-0.665450	-0.083277
C44	C	0.820672	-0.665466	0.082969
C45	C	0.821750	-0.592643	0.082970
C46	C	0.822299	-0.556228	-0.000154
C47	C	0.952160	0.087461	-0.000161
C48	C	1.029666	0.088594	-0.000179
C49	C	0.819002	0.220627	-0.000153
C50	C	0.820141	0.298132	-0.000161
N51	N	0.824487	0.092957	0.216855
N52	N	0.824503	0.092956	-0.217135
C53	C	0.872115	0.045357	0.451859
C54	C	0.872117	0.045355	0.547840
C55	C	0.776870	0.140558	0.547855
C56	C	0.776865	0.140556	0.451875
C57	C	0.824492	0.092956	0.403880
C58	C	0.824498	0.092957	0.595841
C59	C	0.824500	0.092955	0.699908
C60	C	0.824489	0.092957	0.299806
H61	H	0.480474	0.095266	-0.150927
Cl62	Cl	0.931986	-0.014486	0.391526
H63	H	0.828762	-0.118966	-0.150930
H64	H	0.826781	-0.251111	0.150666
H65	H	0.738094	0.179314	0.586942
H66	H	0.820229	-0.695121	0.150643
H67	H	0.168510	0.090648	0.150643
Cl68	Cl	0.822449	-0.546844	-0.187770
H69	H	0.036397	0.088696	0.150625
Cl70	Cl	0.931988	-0.014488	0.608155
H71	H	0.822185	-0.563008	0.150653
H72	H	0.738081	0.179318	0.412808
Cl73	Cl	0.826573	-0.267201	-0.187749
H74	H	0.612584	0.097214	-0.150912
Cl75	Cl	0.464273	0.095033	0.187490
H76	H	0.828721	-0.118993	0.150684
H77	H	0.612519	0.097235	0.150702
Cl78	Cl	0.820012	-0.711208	-0.187778
H79	H	0.036466	0.088698	-0.150982
Cl80	Cl	0.184712	0.090881	-0.187779
