data_functionalizedCrystal
_audit_creation_method	'MofGen! by Chris Wilmer'
_symmetry_space_group_name_H-M	'P1'
_symmetry_Int_Tables_number	1
_symmetry_cell_setting	triclinic
loop_
_symmetry_equiv_pos_as_xyz
  x,y,z
_cell_length_a	14.044220
_cell_length_b	14.044202
_cell_length_c	12.503572
_cell_angle_alpha	86.143857
_cell_angle_beta	93.847148
_cell_angle_gamma	93.190790
loop_
_atom_site_label
_atom_site_type_symbol
_atom_site_fract_x
_atom_site_fract_y
_atom_site_fract_z
O1	O	-1.272126	-0.235213	0.089243
O2	O	-0.995453	-0.226909	0.089269
O3	O	-1.129634	-0.092723	0.089228
O4	O	-1.137945	-0.369399	0.089285
O5	O	-1.139729	-0.082619	-0.089417
O6	O	-1.005548	-0.216804	-0.089376
O7	O	-1.282221	-0.225109	-0.089402
Cu8	Cu	-1.144806	-0.220034	-0.105700
Cu9	Cu	-1.132868	-0.231984	0.105568
O10	O	-1.148040	-0.359294	-0.089360
C11	C	-0.964878	-0.218221	-0.000050
C12	C	-0.858735	-0.207377	-0.000042
C13	C	-1.131045	-0.052049	-0.000100
C14	C	-1.120197	0.054095	-0.000114
C15	C	-1.312796	-0.233797	-0.000080
C16	C	-1.418939	-0.244641	-0.000081
C17	C	-0.664398	-0.187549	-0.000067
C18	C	-0.613270	-0.264465	-0.000056
C19	C	-0.505134	-0.253432	-0.000070
C20	C	-0.772543	-0.198580	-0.000053
C21	C	-1.177294	0.299552	-0.000092
C22	C	-1.100378	0.248427	-0.000089
C23	C	-1.111408	0.140291	-0.000103
C24	C	-1.166266	0.407698	-0.000078
C25	C	-1.146628	0.600032	-0.000045
C26	C	-1.157471	0.493890	-0.000067
N27	N	-1.124471	-0.240382	0.254163
N28	N	-1.153210	-0.211629	-0.254295
C29	C	-1.112111	-0.252735	0.473282
C30	C	-1.165567	-0.199279	0.526593
C31	C	-1.158690	-0.206152	0.648518
C32	C	-1.118987	-0.245863	0.351346
H33	H	-0.650710	-0.338600	-0.000035
Br34	Br	-0.976816	0.310829	-0.000076
H35	H	-1.061184	-0.303659	0.519205
H36	H	-0.626960	-0.113420	-0.000088
Br37	Br	-1.300849	0.237149	-0.000115
Br38	Br	-1.250452	-0.114394	0.450045
