data_functionalizedCrystal
_audit_creation_method	'MofGen! by Chris Wilmer'
_symmetry_space_group_name_H-M	'P1'
_symmetry_Int_Tables_number	1
_symmetry_cell_setting	triclinic
loop_
_symmetry_equiv_pos_as_xyz
  x,y,z
_cell_length_a	33.428889
_cell_length_b	33.428139
_cell_length_c	33.424847
_cell_angle_alpha	60.004234
_cell_angle_beta	60.008465
_cell_angle_gamma	59.994972
loop_
_atom_site_label
_atom_site_type_symbol
_atom_site_fract_x
_atom_site_fract_y
_atom_site_fract_z
O1	O	0.055565	-0.584504	0.488714
O2	O	0.555565	-0.084504	0.988714
O3	O	0.020982	-0.455083	0.393778
O4	O	0.520982	0.044917	0.893778
O5	O	0.102943	-0.536959	0.393689
O6	O	0.602943	-0.036959	0.893689
O7	O	-0.026396	-0.502628	0.488803
O8	O	0.473604	-0.002628	0.988803
O9	O	0.130140	-0.509767	0.420792
O10	O	0.630140	-0.009767	0.920792
O11	O	0.048179	-0.427891	0.420881
O12	O	0.548179	0.072109	0.920881
O13	O	0.082762	-0.557312	0.515817
O14	O	0.582762	-0.057312	1.015817
Cu15	Cu	0.067954	-0.490119	0.470823
Cu16	Cu	0.567954	0.009881	0.970823
Cu17	Cu	0.035790	-0.522276	0.438771
Cu18	Cu	0.535790	-0.022276	0.938771
O19	O	0.000801	-0.475436	0.515906
O20	O	0.500801	0.024564	1.015906
N21	N	0.090577	-0.467504	0.493370
N22	N	0.590577	0.032496	0.993370
N23	N	0.013171	-0.544895	0.416225
N24	N	0.513171	-0.044895	0.916225
C25	C	0.143377	-0.280390	0.546067
C26	C	0.643377	0.219610	1.046067
C27	C	0.143515	-0.414755	0.680369
C28	C	0.643515	0.085245	1.180369
C29	C	0.143392	-0.414735	0.546069
C30	C	0.643392	0.085265	1.046069
C31	C	0.277766	-0.414702	0.545966
C32	C	0.777766	0.085298	1.045966
C33	C	0.158177	-0.324719	0.560828
C34	C	0.658177	0.175281	1.060828
C35	C	0.158255	-0.399967	0.636038
C36	C	0.658255	0.100033	1.136038
C37	C	0.233434	-0.399936	0.560773
C38	C	0.733434	0.100064	1.060773
C39	C	0.158186	-0.399955	0.560829
C40	C	0.658186	0.100045	1.060829
C41	C	0.124540	-0.223964	0.527278
C42	C	0.624540	0.276036	1.027278
C43	C	0.124565	-0.433545	0.527281
C44	C	0.624565	0.066455	1.027281
C45	C	0.177014	-0.381145	0.579617
C46	C	0.677014	0.118855	1.079617
C47	C	0.359814	-0.400540	0.502735
C48	C	0.859814	0.099460	1.002735
C49	C	0.411105	-0.417624	0.485606
C50	C	0.911105	0.082376	0.985606
C51	C	0.411136	-0.500620	0.517255
C52	C	0.911136	-0.000620	1.017255
C53	C	0.359845	-0.483534	0.534385
C54	C	0.859845	0.016466	1.034385
C55	C	0.136887	-0.198305	0.476855
C56	C	0.636887	0.301695	0.976855
C57	C	0.119761	-0.147011	0.459777
C58	C	0.619761	0.352989	0.959777
C59	C	0.077945	-0.147038	0.543547
C60	C	0.577945	0.352962	1.043547
C61	C	0.095072	-0.198332	0.560625
C62	C	0.595072	0.301668	1.060625
C63	C	0.074134	-0.421169	0.539710
C64	C	0.574134	0.078831	1.039710
C65	C	0.057023	-0.438269	0.522625
C66	C	0.557023	0.061731	1.022625
C67	C	0.140770	-0.480120	0.480694
C68	C	0.640770	0.019880	0.980694
C69	C	0.157883	-0.463020	0.497773
C70	C	0.657883	0.036980	0.997773
C71	C	0.074339	-0.421208	0.762475
C72	C	0.574339	0.078792	1.262475
C73	C	0.057288	-0.438323	0.813768
C74	C	0.557288	0.061677	1.313768
C75	C	0.141075	-0.480183	0.813699
C76	C	0.641075	0.019817	1.313699
C77	C	0.158125	-0.463069	0.762404
C78	C	0.658125	0.036931	1.262404
C79	C	0.124756	-0.433580	0.736794
C80	C	0.624756	0.066420	1.236794
C81	C	0.334186	-0.433494	0.527123
C82	C	0.834186	0.066506	1.027123
C83	C	-0.173769	-0.597444	0.363037
C84	C	0.326231	-0.097444	0.863037
C85	C	-0.039302	-0.597595	0.228856
C86	C	0.460698	-0.097595	0.728856
C87	C	-0.039496	-0.597587	0.363300
C88	C	0.460504	-0.097587	0.863300
C89	C	-0.039512	-0.731889	0.363237
C90	C	0.460488	-0.231889	0.863237
C91	C	-0.129442	-0.612265	0.348329
C92	C	0.370558	-0.112265	0.848329
C93	C	-0.054138	-0.612351	0.273187
C94	C	0.445862	-0.112351	0.773187
C95	C	-0.054257	-0.687554	0.348440
C96	C	0.445743	-0.187554	0.848440
C97	C	-0.054247	-0.612346	0.348477
C98	C	0.445753	-0.112346	0.848477
C99	C	-0.230191	-0.578579	0.381758
C100	C	0.269809	-0.078579	0.881758
C101	C	-0.020722	-0.578803	0.382168
C102	C	0.479278	-0.078803	0.882168
C103	C	-0.073020	-0.631130	0.329609
C104	C	0.426980	-0.131130	0.829609
C105	C	-0.053713	-0.813916	0.406386
C106	C	0.446287	-0.313916	0.906386
C107	C	-0.036654	-0.865210	0.423504
C108	C	0.463346	-0.365210	0.923504
C109	C	0.046338	-0.865293	0.391984
C110	C	0.546338	-0.365293	0.891984
C111	C	0.029278	-0.813999	0.374865
C112	C	0.529278	-0.313999	0.874865
C113	C	-0.255900	-0.590938	0.432169
C114	C	0.244100	-0.090938	0.932169
C115	C	-0.307191	-0.573786	0.449185
C116	C	0.192809	-0.073786	0.949185
C117	C	-0.307060	-0.531922	0.365377
C118	C	0.192940	-0.031922	0.865377
C119	C	-0.255769	-0.549074	0.348360
C120	C	0.244231	-0.049074	0.848360
C121	C	-0.033081	-0.528377	0.369764
C122	C	0.466919	-0.028377	0.869764
C123	C	-0.016014	-0.511306	0.386922
C124	C	0.483986	-0.011306	0.886922
C125	C	0.025770	-0.595083	0.428877
C126	C	0.525770	-0.095083	0.928877
C127	C	0.008703	-0.612156	0.411725
C128	C	0.508703	-0.112156	0.911725
C129	C	-0.032755	-0.528393	0.146761
C130	C	0.467245	-0.028393	0.646761
C131	C	-0.015585	-0.511324	0.095468
C132	C	0.484415	-0.011324	0.595468
C133	C	0.026262	-0.595106	0.095516
C134	C	0.526262	-0.095106	0.595516
C135	C	0.009094	-0.612174	0.146811
C136	C	0.509094	-0.112174	0.646811
C137	C	-0.020417	-0.578816	0.172432
C138	C	0.479583	-0.078816	0.672432
C139	C	-0.020748	-0.788312	0.382068
C140	C	0.479252	-0.288312	0.882068
N141	N	0.436037	-0.467415	0.493101
N142	N	0.936037	0.032585	0.993101
O143	O	0.592642	-0.471896	0.376066
O144	O	1.092642	0.028104	0.876066
O145	O	0.592838	-0.567146	0.505347
O146	O	1.092838	-0.067146	1.005347
O147	O	0.592754	-0.566928	0.423360
O148	O	1.092754	-0.066928	0.923360
O149	O	0.592727	-0.472113	0.458053
O150	O	1.092727	0.027887	0.958053
O151	O	0.511269	-0.539835	0.450606
O152	O	1.011269	-0.039835	0.950606
O153	O	0.511353	-0.540052	0.532594
O154	O	1.011353	-0.040052	1.032594
O155	O	0.511157	-0.444802	0.403312
O156	O	1.011157	0.055198	0.903312
Cu157	Cu	0.503815	-0.489954	0.470441
Cu158	Cu	1.003815	0.010046	0.970441
Cu159	Cu	0.600180	-0.521995	0.438219
Cu160	Cu	1.100180	-0.021995	0.938219
O161	O	0.511242	-0.445020	0.485300
O162	O	1.011242	0.054980	0.985300
N163	N	0.667959	-0.544533	0.415554
N164	N	1.167959	-0.044533	0.915554
N165	N	0.090544	-0.122107	0.493359
N166	N	0.590544	0.377893	0.993359
O167	O	-0.026406	0.034587	0.488773
O168	O	0.473594	0.534587	0.988773
O169	O	0.102877	0.034627	0.393499
O170	O	0.602877	0.534627	0.893499
O171	O	0.020848	0.034591	0.393771
O172	O	0.520848	0.534591	0.893771
O173	O	0.055623	0.034623	0.488500
O174	O	0.555623	0.534623	0.988500
O175	O	0.048051	-0.046899	0.420925
O176	O	0.548051	0.453101	0.920925
O177	O	0.130080	-0.046864	0.420653
O178	O	0.630080	0.453136	0.920653
O179	O	0.000796	-0.046903	0.515927
O180	O	0.500796	0.453097	1.015927
Cu181	Cu	0.067922	-0.054324	0.470769
Cu182	Cu	0.567922	0.445676	0.970769
Cu183	Cu	0.035752	0.042048	0.438656
Cu184	Cu	0.535752	0.542048	0.938656
O185	O	0.082825	-0.046867	0.515655
O186	O	0.582825	0.453133	1.015655
N187	N	0.013123	0.109830	0.416068
N188	N	0.513123	0.609830	0.916068
N189	N	0.090892	-0.467554	0.838649
N190	N	0.590892	0.032446	1.338649
O191	O	0.086330	-0.584488	0.995334
O192	O	0.586330	-0.084488	1.495334
O193	O	-0.008902	-0.455160	0.995379
O194	O	0.491098	0.044840	1.495379
O195	O	-0.008679	-0.537172	0.995355
O196	O	0.491321	-0.037172	1.495355
O197	O	0.086107	-0.502475	0.995358
O198	O	0.586107	-0.002475	1.495358
O199	O	0.018452	-0.509990	0.913868
O200	O	0.518452	-0.009990	1.413868
O201	O	0.018230	-0.427978	0.913891
O202	O	0.518230	0.072022	1.413891
O203	O	0.113461	-0.557306	0.913847
O204	O	0.613461	-0.057306	1.413847
Cu205	Cu	0.068323	-0.490160	0.906429
Cu206	Cu	0.568323	0.009840	1.406429
Cu207	Cu	0.036237	-0.522306	1.002797
Cu208	Cu	0.536237	-0.022306	1.502797
O209	O	0.113239	-0.475293	0.913870
O210	O	0.613239	0.024707	1.413870
N211	N	0.013667	-0.544916	1.070577
N212	N	0.513667	-0.044916	1.570577
C213	C	0.031339	-0.425179	0.394250
C214	C	0.531339	0.074821	0.894250
C215	C	0.132837	-0.526572	0.394139
C216	C	0.632837	-0.026572	0.894139
C217	C	0.072405	-0.587216	0.515344
C218	C	0.572405	-0.087216	1.015344
C219	C	-0.029093	-0.485823	0.515455
C220	C	0.470907	0.014177	1.015455
C221	C	0.552119	-0.566716	0.535258
C222	C	1.052119	-0.066716	1.035258
C223	C	0.552016	-0.566447	0.433726
C224	C	1.052016	-0.066447	0.933726
C225	C	0.551873	-0.445232	0.373402
C226	C	1.051873	0.054768	0.873402
C227	C	0.551980	-0.445502	0.474933
C228	C	1.051980	0.054498	0.974933
C229	C	0.132731	-0.006013	0.393923
C230	C	0.632731	0.493987	0.893923
C231	C	0.031182	-0.006158	0.394293
C232	C	0.531182	0.493842	0.894293
C233	C	-0.029092	-0.006163	0.515469
C234	C	0.470908	0.493837	1.015469
C235	C	0.072491	-0.006119	0.515133
C236	C	0.572491	0.493881	1.015133
C237	C	-0.008451	-0.425276	0.954641
C238	C	0.491549	0.074724	1.454641
C239	C	-0.008170	-0.526833	0.954596
C240	C	0.491830	-0.026833	1.454596
C241	C	0.113010	-0.587190	0.954585
C242	C	0.613010	-0.087190	1.454585
C243	C	0.112735	-0.485627	0.954611
C244	C	0.612735	0.014373	1.454611
H245	H	0.016234	-0.428240	0.834672
H246	H	0.516234	0.071760	1.334672
H247	H	-0.037935	-0.534246	0.954563
H248	H	0.462065	-0.034246	1.454563
H249	H	0.551811	-0.415327	0.336274
H250	H	1.051811	0.084673	0.836274
H251	H	0.169783	-0.005775	0.363939
H252	H	0.669783	0.494225	0.863939
O253	O	0.552056	-0.409980	0.483733
O254	O	1.052056	0.090020	0.983733
C255	C	0.594209	-0.356462	0.460116
C256	C	1.094209	0.143538	0.960116
C257	C	0.594188	-0.396695	0.450104
C258	C	1.094188	0.103305	0.950104
H259	H	0.628263	-0.345702	0.432927
H260	H	1.128263	0.154298	0.932927
H261	H	0.594292	-0.370819	0.499022
H262	H	1.094292	0.129181	0.999022
H263	H	0.560062	-0.323054	0.455791
H264	H	1.060062	0.176946	0.955791
H265	H	0.628328	-0.430117	0.454402
H266	H	1.128328	0.069883	0.954402
H267	H	0.594079	-0.382299	0.411202
H268	H	1.094079	0.117701	0.911202
O269	O	0.552051	-0.602044	0.424948
O270	O	1.052051	-0.102044	0.924948
C271	C	0.552104	-0.684614	0.456999
C272	C	1.052104	-0.184614	0.956999
C273	C	0.552077	-0.644348	0.467001
C274	C	1.052077	-0.144348	0.967001
H275	H	0.552116	-0.718823	0.490995
H276	H	1.052116	-0.218823	0.990995
H277	H	0.586191	-0.693777	0.424921
H278	H	1.086191	-0.193777	0.924921
H279	H	0.517988	-0.671035	0.447682
H280	H	1.017988	-0.171035	0.947682
H281	H	0.586171	-0.657893	0.476339
H282	H	1.086171	-0.157893	0.976339
H283	H	0.517968	-0.635192	0.499065
H284	H	1.017968	-0.135192	0.999065
O285	O	-0.044061	-0.380925	0.954591
O286	O	0.455939	0.119075	1.454591
C287	C	-0.067754	-0.293759	0.912382
C288	C	0.432246	0.206241	1.412382
C289	C	-0.027380	-0.343954	0.912384
C290	C	0.472620	0.156046	1.412384
H291	H	-0.054286	-0.263856	0.878257
H292	H	0.445714	0.236144	1.378257
H293	H	-0.076993	-0.286549	0.946466
H294	H	0.423007	0.213451	1.446466
H295	H	-0.101890	-0.293720	0.912409
H296	H	0.398110	0.206280	1.412409
H297	H	0.006781	-0.344029	0.912340
H298	H	0.506781	0.155971	1.412340
H299	H	-0.018184	-0.351144	0.878303
H300	H	0.481816	0.148856	1.378303
H301	H	0.142910	-0.624330	0.954565
H302	H	0.642910	-0.124330	1.454565
O303	O	-0.061604	-0.496000	0.340991
O304	O	0.438396	0.004000	0.840991
C305	C	-0.070654	-0.466711	0.262864
C306	C	0.429346	0.033289	0.762864
C307	C	-0.038295	-0.503395	0.295392
C308	C	0.461705	-0.003395	0.795392
H309	H	-0.051827	-0.472684	0.225995
H310	H	0.448173	0.027316	0.725995
H311	H	-0.076554	-0.427725	0.256909
H312	H	0.423446	0.072275	0.756909
H313	H	-0.107560	-0.472587	0.281628
H314	H	0.392440	0.027413	0.781628
H315	H	-0.001372	-0.497564	0.276656
H316	H	0.498628	0.002436	0.776656
H317	H	-0.032436	-0.542368	0.301349
H318	H	0.467564	-0.042368	0.801349
H319	H	0.079796	-0.624394	0.545162
H320	H	0.579796	-0.124394	1.045162
H321	H	0.431972	-0.390789	0.465748
H322	H	0.931972	0.109211	0.965748
O323	O	-0.073428	-0.477011	0.551042
O324	O	0.426572	0.022989	1.051042
C325	C	-0.154123	-0.418978	0.573707
C326	C	0.345877	0.081022	1.073707
C327	C	-0.103933	-0.428889	0.533365
C328	C	0.396067	0.071111	1.033365
H329	H	-0.178804	-0.380076	0.559427
H330	H	0.321196	0.119924	1.059427
H331	H	-0.149009	-0.423362	0.607113
H332	H	0.350991	0.076638	1.107113
H333	H	-0.171726	-0.446179	0.584439
H334	H	0.328274	0.053821	1.084439
H335	H	-0.086304	-0.401698	0.522592
H336	H	0.413696	0.098302	1.022592
H337	H	-0.109080	-0.424522	0.499986
H338	H	0.390920	0.075478	0.999986
H339	H	0.142514	-0.478200	0.954606
H340	H	0.642514	0.021800	1.454606
H341	H	0.552170	-0.596617	0.572390
H342	H	1.052170	-0.096617	1.072390
O343	O	0.022316	-0.006265	0.358830
O344	O	0.522316	0.493735	0.858830
C345	C	0.000722	-0.048513	0.335506
C346	C	0.500722	0.451487	0.835506
C347	C	0.010756	-0.048452	0.375706
C348	C	0.510756	0.451548	0.875706
H349	H	-0.008637	-0.082613	0.349139
H350	H	0.491363	0.417387	0.849139
H351	H	0.034692	-0.048541	0.301275
H352	H	0.534692	0.451459	0.801275
H353	H	-0.031352	-0.014407	0.326354
H354	H	0.468648	0.485593	0.826354
H355	H	0.042814	-0.082552	0.384900
H356	H	0.542814	0.417448	0.884900
H357	H	-0.023239	-0.048399	0.409912
H358	H	0.476761	0.451601	0.909912
O359	O	0.041856	-0.392582	0.737675
O360	O	0.541856	0.107418	1.237675
C361	C	-0.043050	-0.352842	0.743161
C362	C	0.456950	0.147158	1.243161
C363	C	-0.006318	-0.385270	0.771308
C364	C	0.493682	0.114730	1.271308
H365	H	-0.082007	-0.346911	0.770342
H366	H	0.417993	0.153089	1.270342
H367	H	-0.037199	-0.371623	0.719163
H368	H	0.462801	0.128377	1.219163
H369	H	-0.037134	-0.315952	0.719136
H370	H	0.462866	0.184048	1.219136
H371	H	-0.012212	-0.422165	0.795360
H372	H	0.487788	0.077835	1.295360
H373	H	-0.012178	-0.366451	0.795276
H374	H	0.487822	0.133549	1.295276
H375	H	-0.066220	-0.006175	0.545378
H376	H	0.433780	0.493825	1.045378
H377	H	0.079939	-0.006110	0.544893
H378	H	0.579939	0.493890	1.044893
H379	H	0.168250	-0.504186	0.834549
H380	H	0.668250	-0.004186	1.334549
O381	O	0.173204	-0.508734	0.452020
O382	O	0.673204	-0.008734	0.952020
C383	C	0.258078	-0.548468	0.412259
C384	C	0.758078	-0.048468	0.912259
C385	C	0.221403	-0.516052	0.444727
C386	C	0.721403	-0.016052	0.944727
H387	H	0.297055	-0.554403	0.406361
H388	H	0.797055	-0.054403	0.906361
H389	H	0.252170	-0.529674	0.375357
H390	H	0.752170	-0.029674	0.875357
H391	H	0.252157	-0.585356	0.431053
H392	H	0.752157	-0.085356	0.931053
H393	H	0.227302	-0.479158	0.425976
H394	H	0.727302	0.020842	0.925976
H395	H	0.227321	-0.534884	0.481626
H396	H	0.727321	-0.034884	0.981626
H397	H	0.199181	-0.473148	0.741498
H398	H	0.699181	0.026852	1.241498
H399	H	0.047002	-0.397168	0.563734
H400	H	0.547002	0.102832	1.063734
H401	H	0.198948	-0.473094	0.487648
H402	H	0.698948	0.026906	0.987648
O403	O	0.008031	-0.426312	0.534781
O404	O	0.508031	0.073688	1.034781
C405	C	-0.068750	-0.430245	0.599857
C406	C	0.431250	0.069755	1.099857
C407	C	-0.013272	-0.443825	0.586158
C408	C	0.486728	0.056175	1.086158
H409	H	-0.085992	-0.444389	0.641396
H410	H	0.414008	0.055611	1.141396
H411	H	-0.075282	-0.447544	0.582613
H412	H	0.424718	0.052456	1.082613
H413	H	-0.086053	-0.388712	0.585699
H414	H	0.413947	0.111288	1.085699
H415	H	0.004067	-0.485352	0.600313
H416	H	0.504067	0.014648	1.100313
H417	H	-0.006775	-0.426491	0.603396
H418	H	0.493225	0.073509	1.103396
O419	O	0.334978	-0.515559	0.557995
O420	O	0.834978	-0.015559	1.057995
C421	C	0.319319	-0.575889	0.553444
C422	C	0.819319	-0.075889	1.053444
C423	C	0.347500	-0.539628	0.526648
C424	C	0.847500	-0.039628	1.026648
H425	H	0.329440	-0.595366	0.528115
H426	H	0.829440	-0.095366	1.028115
H427	H	0.278245	-0.555112	0.564429
H428	H	0.778245	-0.055112	1.064429
H429	H	0.329436	-0.604060	0.587646
H430	H	0.829436	-0.104060	1.087646
H431	H	0.337424	-0.511448	0.492428
H432	H	0.837424	-0.011448	0.992428
H433	H	0.388567	-0.560439	0.515700
H434	H	0.888567	-0.060439	1.015700
O435	O	0.334941	-0.351910	0.495596
O436	O	0.834941	0.148090	0.995596
C437	C	0.319169	-0.270345	0.436943
C438	C	0.819169	0.229655	0.936943
C439	C	0.347374	-0.325402	0.444960
C440	C	0.847374	0.174598	0.944960
H441	H	0.329204	-0.248898	0.396005
H442	H	0.829204	0.251102	0.896005
H443	H	0.329281	-0.257575	0.455497
H444	H	0.829281	0.242425	0.955497
H445	H	0.278110	-0.263807	0.453396
H446	H	0.778110	0.236193	0.953396
H447	H	0.388440	-0.331982	0.428505
H448	H	0.888440	0.168018	0.928505
H449	H	0.337222	-0.338145	0.426417
H450	H	0.837222	0.161855	0.926417
O451	O	0.165488	-0.223126	0.444394
O452	O	0.665488	0.276874	0.944394
C453	C	0.205174	-0.217685	0.359501
C454	C	0.705174	0.282315	0.859501
C455	C	0.172769	-0.189512	0.396208
C456	C	0.672769	0.310488	0.896208
H457	H	0.211079	-0.190520	0.320534
H458	H	0.711079	0.309480	0.820534
H459	H	0.186390	-0.241696	0.365391
H460	H	0.686390	0.258304	0.865391
H461	H	0.242074	-0.241703	0.365409
H462	H	0.742074	0.258297	0.865409
H463	H	0.135864	-0.165468	0.390322
H464	H	0.635864	0.334532	0.890322
H465	H	0.191591	-0.165533	0.390308
H466	H	0.691591	0.334467	0.890308
H467	H	0.432025	-0.541365	0.523165
H468	H	0.932025	-0.041365	1.023165
O469	O	0.177186	-0.535370	0.358566
O470	O	0.677186	-0.035370	0.858566
C471	C	0.257861	-0.593423	0.335881
C472	C	0.757861	-0.093423	0.835881
C473	C	0.207662	-0.583521	0.376214
C474	C	0.707662	-0.083521	0.876214
H475	H	0.282511	-0.632356	0.350130
H476	H	0.782511	-0.132356	0.850130
H477	H	0.275521	-0.566275	0.325161
H478	H	0.775521	-0.066275	0.825161
H479	H	0.252700	-0.588975	0.302474
H480	H	0.752700	-0.088975	0.802474
H481	H	0.212780	-0.587975	0.409647
H482	H	0.712780	-0.087975	0.909647
H483	H	0.190019	-0.610667	0.386892
H484	H	0.690019	-0.110667	0.886892
O485	O	0.022473	-0.380849	0.358661
O486	O	0.522473	0.119151	0.858661
C487	C	-0.027222	-0.321837	0.307103
C488	C	0.472778	0.178163	0.807103
C489	C	-0.017228	-0.372054	0.347400
C490	C	0.482772	0.127946	0.847400
H491	H	-0.059328	-0.314705	0.297993
H492	H	0.440672	0.185295	0.797993
H493	H	0.006751	-0.321651	0.272875
H494	H	0.506751	0.178349	0.772875
H495	H	-0.036508	-0.291960	0.320635
H496	H	0.463492	0.208040	0.820635
H497	H	-0.007955	-0.401959	0.333914
H498	H	0.492045	0.098041	0.833914
H499	H	-0.051209	-0.372198	0.381620
H500	H	0.448791	0.127802	0.881620
O501	O	0.049311	-0.122213	0.576006
O502	O	0.549311	0.377787	1.076006
C503	C	0.009679	-0.127654	0.660899
C504	C	0.509679	0.372346	1.160899
C505	C	0.042103	-0.155827	0.624193
C506	C	0.542103	0.344173	1.124193
H507	H	0.003850	-0.154819	0.699866
H508	H	0.503850	0.345181	1.199866
H509	H	-0.027254	-0.103664	0.655060
H510	H	0.472746	0.396336	1.155060
H511	H	0.028470	-0.103617	0.654941
H512	H	0.528470	0.396383	1.154941
H513	H	0.023355	-0.179892	0.630129
H514	H	0.523355	0.320108	1.130129
H515	H	0.079035	-0.179787	0.630041
H516	H	0.579035	0.320213	1.130041
H517	H	0.085016	-0.219221	0.601683
H518	H	0.585016	0.280779	1.101683
O519	O	-0.027644	-0.462325	0.070611
O520	O	0.472356	0.037675	0.570611
C521	C	-0.070951	-0.381028	0.075983
C522	C	0.429049	0.118972	0.575983
C523	C	-0.057343	-0.436507	0.104194
C524	C	0.442657	0.063493	0.604194
H525	H	-0.094956	-0.360138	0.103123
H526	H	0.405044	0.139862	0.603123
H527	H	-0.091816	-0.370889	0.051927
H528	H	0.408184	0.129111	0.551927
H529	H	-0.036121	-0.370987	0.052010
H530	H	0.463879	0.129013	0.552010
H531	H	-0.092148	-0.446588	0.128194
H532	H	0.407852	0.053412	0.628194
H533	H	-0.036459	-0.446616	0.128219
H534	H	0.463541	0.053384	0.628219
H535	H	-0.056788	-0.501226	0.167618
H536	H	0.443212	-0.001226	0.667618
O537	O	0.054863	-0.627556	0.070681
O538	O	0.554863	-0.127556	0.570681
C539	C	0.061411	-0.693879	0.054934
C540	C	0.561411	-0.193879	0.554934
C541	C	0.028971	-0.657166	0.083100
C542	C	0.528971	-0.157166	0.583100
H543	H	0.040486	-0.717822	0.064956
H544	H	0.540486	-0.217822	0.564956
H545	H	0.096179	-0.717961	0.065094
H546	H	0.596179	-0.217961	0.565094
H547	H	0.071575	-0.673007	0.013867
H548	H	0.571575	-0.173007	0.513867
H549	H	0.018769	-0.677998	0.124173
H550	H	0.518769	-0.177998	0.624173
H551	H	-0.005774	-0.633085	0.072899
H552	H	0.494226	-0.133085	0.572899
O553	O	0.020992	-0.661147	0.171800
O554	O	0.520992	-0.161147	0.671800
C555	C	-0.008562	-0.729006	0.229646
C556	C	0.491438	-0.229006	0.729646
C557	C	-0.022105	-0.673539	0.201386
C558	C	0.477895	-0.173539	0.701386
H559	H	-0.043397	-0.739044	0.253565
H560	H	0.456603	-0.239044	0.753565
H561	H	0.012252	-0.739143	0.253750
H562	H	0.512252	-0.239143	0.753750
H563	H	0.015493	-0.749903	0.202513
H564	H	0.515493	-0.249903	0.702513
H565	H	-0.046175	-0.652604	0.228485
H566	H	0.453825	-0.152604	0.728485
H567	H	-0.042893	-0.663440	0.177275
H568	H	0.457107	-0.163440	0.677275
H569	H	-0.026079	-0.470245	0.376824
H570	H	0.473921	0.029755	0.876824
O571	O	0.054409	-0.627533	0.457528
O572	O	0.554409	-0.127533	0.957528
C573	C	0.129866	-0.693930	0.464192
C574	C	0.629866	-0.193930	0.964192
C575	C	0.097477	-0.657219	0.431698
C576	C	0.597477	-0.157219	0.931698
H577	H	0.164698	-0.717934	0.443317
H578	H	0.664698	-0.217934	0.943317
H579	H	0.108974	-0.717950	0.498970
H580	H	0.608974	-0.217950	0.998970
H581	H	0.139915	-0.673055	0.474336
H582	H	0.639915	-0.173055	0.974336
H583	H	0.087418	-0.678054	0.421517
H584	H	0.587418	-0.178054	0.921517
H585	H	0.118386	-0.633199	0.396943
H586	H	0.618386	-0.133199	0.896943
O587	O	0.020687	-0.661151	0.423855
O588	O	0.520687	-0.161151	0.923855
C589	C	0.016648	-0.737941	0.488888
C590	C	0.516648	-0.237941	0.988888
C591	C	0.003054	-0.682464	0.475222
C592	C	0.503054	-0.182464	0.975222
H593	H	0.002389	-0.755187	0.530417
H594	H	0.502389	-0.255187	1.030417
H595	H	0.058180	-0.755301	0.474831
H596	H	0.558180	-0.255301	0.974831
H597	H	-0.000590	-0.744399	0.471523
H598	H	0.499410	-0.244399	0.971523
H599	H	0.020260	-0.675962	0.492582
H600	H	0.520260	-0.175962	0.992582
H601	H	-0.038481	-0.665132	0.489269
H602	H	0.461519	-0.165132	0.989269
H603	H	0.056124	-0.793157	0.355062
H604	H	0.556124	-0.293157	0.855062
O605	O	0.094948	-0.890224	0.384902
O606	O	0.594948	-0.390224	0.884902
C607	C	0.176554	-0.905976	0.326332
C608	C	0.676554	-0.405976	0.826332
C609	C	0.121516	-0.877718	0.334282
C610	C	0.621516	-0.377718	0.834282
H611	H	0.198050	-0.895868	0.285408
H612	H	0.698050	-0.395868	0.785408
H613	H	0.183117	-0.947041	0.342709
H614	H	0.683117	-0.447041	0.842709
H615	H	0.189242	-0.895912	0.345001
H616	H	0.689242	-0.395912	0.845001
H617	H	0.108791	-0.887740	0.315613
H618	H	0.608791	-0.387740	0.815613
H619	H	0.114984	-0.836660	0.317918
H620	H	0.614984	-0.336660	0.817918
O621	O	-0.068713	-0.890032	0.447063
O622	O	0.431287	-0.390032	0.947063
C623	C	-0.128953	-0.905695	0.442369
C624	C	0.371047	-0.405695	0.942369
C625	C	-0.092675	-0.877544	0.415631
C626	C	0.407325	-0.377544	0.915631
H627	H	-0.148329	-0.895616	0.416964
H628	H	0.351671	-0.395616	0.916964
H629	H	-0.157203	-0.895575	0.476548
H630	H	0.342797	-0.395575	0.976548
H631	H	-0.108156	-0.946765	0.453382
H632	H	0.391844	-0.446765	0.953382
H633	H	-0.113430	-0.836467	0.404585
H634	H	0.386570	-0.336467	0.904585
H635	H	-0.064426	-0.887705	0.381474
H636	H	0.435574	-0.387705	0.881474
O637	O	-0.102297	-0.788886	0.413358
O638	O	0.397703	-0.288886	0.913358
C639	C	-0.165360	-0.709829	0.400933
C640	C	0.334640	-0.209829	0.900933
C641	C	-0.110330	-0.738111	0.393012
C642	C	0.389670	-0.238111	0.893012
H643	H	-0.171871	-0.668773	0.384478
H644	H	0.328129	-0.168773	0.884478
H645	H	-0.186889	-0.719854	0.441850
H646	H	0.313111	-0.219854	0.941850
H647	H	-0.178056	-0.719929	0.382302
H648	H	0.321944	-0.219929	0.882302
H649	H	-0.097589	-0.728027	0.411614
H650	H	0.402411	-0.228027	0.911614
H651	H	-0.088833	-0.728084	0.352087
H652	H	0.411167	-0.228084	0.852087
O653	O	-0.231130	-0.619575	0.464677
O654	O	0.268870	-0.119575	0.964677
C655	C	-0.236673	-0.659306	0.549601
C656	C	0.263327	-0.159306	1.049601
C657	C	-0.264788	-0.626861	0.512840
C658	C	0.235212	-0.126861	1.012840
H659	H	-0.263873	-0.665216	0.588549
H660	H	0.236127	-0.165216	1.088549
H661	H	-0.212670	-0.640551	0.543776
H662	H	0.287330	-0.140551	1.043776
H663	H	-0.212656	-0.696204	0.543689
H664	H	0.287344	-0.196204	1.043689
H665	H	-0.288831	-0.589958	0.518730
H666	H	0.211169	-0.089958	1.018730
H667	H	-0.288760	-0.645655	0.518675
H668	H	0.211240	-0.145655	1.018675
O669	O	-0.331834	-0.503252	0.332869
O670	O	0.168166	-0.003252	0.832869
C671	C	-0.326290	-0.463575	0.247945
C672	C	0.173710	0.036425	0.747945
C673	C	-0.298176	-0.496039	0.284707
C674	C	0.201824	0.003961	0.784707
H675	H	-0.299090	-0.457741	0.208998
H676	H	0.200910	0.042259	0.708998
H677	H	-0.350280	-0.426643	0.253788
H678	H	0.149720	0.073357	0.753788
H679	H	-0.350321	-0.482338	0.253839
H680	H	0.149679	0.017662	0.753839
H681	H	-0.274119	-0.477319	0.278835
H682	H	0.225881	0.022681	0.778835
H683	H	-0.274217	-0.532969	0.278854
H684	H	0.225783	-0.032969	0.778854
O685	O	-0.230744	-0.537156	0.299402
O686	O	0.269256	-0.037156	0.799402
C687	C	-0.172791	-0.566674	0.231525
C688	C	0.327209	-0.066674	0.731525
C689	C	-0.201094	-0.580243	0.286980
C690	C	0.298906	-0.080243	0.786980
H691	H	-0.148820	-0.601501	0.221463
H692	H	0.351180	-0.101501	0.721463
H693	H	-0.148736	-0.545848	0.221458
H694	H	0.351264	-0.045848	0.721458
H695	H	-0.199895	-0.542620	0.210592
H696	H	0.300105	-0.042620	0.710592
H697	H	-0.174025	-0.604312	0.307950
H698	H	0.325975	-0.104312	0.807950
H699	H	-0.225156	-0.601044	0.297009
H700	H	0.274844	-0.101044	0.797009
O701	O	-0.332188	-0.585709	0.498152
O702	O	0.167812	-0.085709	0.998152
C703	C	-0.390184	-0.556189	0.566021
C704	C	0.109816	-0.056189	1.066021
C705	C	-0.361902	-0.542618	0.510561
C706	C	0.138098	-0.042618	1.010561
H707	H	-0.414222	-0.521358	0.576070
H708	H	0.085778	-0.021358	1.076070
H709	H	-0.363110	-0.580201	0.586989
H710	H	0.136890	-0.080201	1.086989
H711	H	-0.414184	-0.577059	0.576057
H712	H	0.085816	-0.077059	1.076057
H713	H	-0.337901	-0.521731	0.500480
H714	H	0.162099	-0.021731	1.000480
H715	H	-0.389002	-0.518628	0.489624
H716	H	0.110998	-0.018628	0.989624
H717	H	0.129813	-0.126117	0.418717
H718	H	0.629813	0.373883	0.918717
