data_functionalizedCrystal
_audit_creation_method	'MofGen! by Chris Wilmer'
_symmetry_space_group_name_H-M	'P1'
_symmetry_Int_Tables_number	1
_symmetry_cell_setting	triclinic
loop_
_symmetry_equiv_pos_as_xyz
  x,y,z
_cell_length_a	14.044191
_cell_length_b	14.044190
_cell_length_c	9.730223
_cell_angle_alpha	90.009282
_cell_angle_beta	90.000838
_cell_angle_gamma	93.191777
loop_
_atom_site_label
_atom_site_type_symbol
_atom_site_fract_x
_atom_site_fract_y
_atom_site_fract_z
O1	O	1.277177	0.230200	0.114252
O2	O	1.000504	0.221888	0.114268
O3	O	1.134684	0.087708	0.114233
O4	O	1.142997	0.364380	0.114287
O5	O	1.134674	0.087703	-0.114347
O6	O	1.000494	0.221883	-0.114312
O7	O	1.277167	0.230196	-0.114328
Zn8	Zn	1.138829	0.226038	-0.150612
Zn9	Zn	1.138842	0.226045	0.150552
O10	O	1.142987	0.364376	-0.114293
C11	C	0.964877	0.218249	-0.000020
C12	C	0.858734	0.207401	-0.000015
C13	C	0.613277	0.264502	-0.000018
C14	C	0.664400	0.187585	-0.000030
C15	C	0.772537	0.198614	-0.000022
C16	C	0.505130	0.253475	-0.000026
C17	C	1.131043	0.052083	-0.000060
C18	C	1.120195	-0.054060	-0.000072
C19	C	1.177296	-0.299517	-0.000021
C20	C	1.100379	-0.248394	-0.000026
C21	C	1.111408	-0.140257	-0.000052
C22	C	1.166269	-0.407664	0.000004
C23	C	1.312794	0.233834	-0.000037
C24	C	1.418937	0.244682	-0.000033
C25	C	1.146628	0.400000	0.000004
C26	C	1.157476	0.506143	0.000024
N27	N	1.138827	0.226034	-0.356148
C28	C	1.198266	0.166648	-0.428090
C29	C	1.198276	0.166649	-0.571973
C30	C	1.079405	0.285430	-0.571960
C31	C	1.079391	0.285424	-0.428080
N32	N	1.138851	0.226042	0.356089
H33	H	0.650720	0.338629	0.000001
H34	H	1.030984	0.333783	-0.369501
H35	H	1.026247	-0.285839	-0.000014
O36	O	1.265662	-0.254703	-0.000111
C37	C	1.257137	-0.155146	-0.000101
H38	H	1.184567	-0.138204	-0.043362
H39	H	1.315877	-0.119732	-0.066489
H40	H	1.264076	-0.126998	0.109551
O41	O	1.256022	0.108865	-0.358427
C42	C	1.308502	0.056466	-0.452786
H43	H	1.269277	0.052061	-0.555358
H44	H	1.316618	-0.018541	-0.411238
H45	H	1.382045	0.093506	-0.468061
O46	O	1.255878	0.108859	-0.641917
C47	C	1.199784	0.045617	-0.725196
H48	H	1.124353	0.037588	-0.681854
H49	H	1.232327	-0.026948	-0.726840
H50	H	1.197314	0.075072	-0.834234
O51	O	1.021767	0.343097	-0.642050
C52	C	1.034509	0.330355	-0.784470
H53	H	1.107398	0.301138	-0.804114
H54	H	1.030004	0.401755	-0.839128
H55	H	0.976428	0.277871	-0.825334
H56	H	0.626955	0.113453	0.000052
