data_functionalizedCrystal
_audit_creation_method	'MofGen! by Chris Wilmer'
_symmetry_space_group_name_H-M	'P1'
_symmetry_Int_Tables_number	1
_symmetry_cell_setting	triclinic
loop_
_symmetry_equiv_pos_as_xyz
  x,y,z
_cell_length_a	16.959455
_cell_length_b	29.839131
_cell_length_c	16.959447
_cell_angle_alpha	89.966004
_cell_angle_beta	89.977004
_cell_angle_gamma	90.038440
loop_
_atom_site_label
_atom_site_type_symbol
_atom_site_fract_x
_atom_site_fract_y
_atom_site_fract_z
Zn1	Zn	1.208287	-0.178880	-0.447017
Zn2	Zn	1.208154	-0.254013	-0.314830
Zn3	Zn	1.076109	-0.178894	-0.314840
Zn4	Zn	1.076031	-0.253980	-0.446954
O5	O	1.142145	-0.216442	-0.380910
O6	O	1.318880	-0.188854	-0.429503
O7	O	1.190615	-0.244069	-0.204220
O8	O	1.093731	-0.116025	-0.332404
O9	O	1.318783	-0.244055	-0.332386
O10	O	1.190842	-0.116015	-0.429513
O11	O	1.093603	-0.188879	-0.204228
O12	O	0.965488	-0.188846	-0.332344
O13	O	1.093598	-0.243997	-0.557574
O14	O	0.965430	-0.244011	-0.429407
O15	O	1.190766	-0.188822	-0.557619
O16	O	1.190539	-0.316876	-0.332326
O17	O	1.093469	-0.316851	-0.429397
C18	C	0.936779	-0.216427	-0.380870
C19	C	0.848923	-0.216432	-0.380872
C20	C	0.477385	-0.245156	-0.330315
C21	C	0.477508	-0.187765	-0.431601
C22	C	0.560054	-0.187757	-0.431582
C23	C	0.601270	-0.216450	-0.380929
C24	C	0.559939	-0.245150	-0.330296
C25	C	0.601391	-0.159061	-0.482220
C26	C	0.683942	-0.159053	-0.482203
C27	C	0.725159	-0.187744	-0.431546
C28	C	0.683823	-0.216445	-0.380910
C29	C	0.725038	-0.245137	-0.330258
C30	C	0.683704	-0.273836	-0.279618
C31	C	0.601156	-0.273841	-0.279639
C32	C	0.807707	-0.187739	-0.431524
C33	C	0.807592	-0.245132	-0.330239
C34	C	1.142003	-0.333164	-0.380871
C35	C	1.142014	-0.383099	-0.380881
C36	C	1.192782	-0.692742	-0.330439
C37	C	1.192879	-0.880415	-0.330470
O38	O	1.235931	-0.904680	-0.287552
N39	N	1.142309	-0.903884	-0.380970
C40	C	1.091715	-0.880431	-0.431470
O41	O	1.048710	-0.904699	-0.474429
C42	C	1.091622	-0.692759	-0.431442
C43	C	1.142190	-0.669293	-0.380933
C44	C	1.243346	-0.669276	-0.279935
C45	C	1.243318	-0.622361	-0.279924
C46	C	1.192726	-0.598911	-0.330419
C47	C	1.142162	-0.622377	-0.380923
C48	C	1.041032	-0.669307	-0.481945
C49	C	1.041015	-0.622386	-0.481935
C50	C	1.091582	-0.598920	-0.431426
C51	C	1.091541	-0.552013	-0.431407
N52	N	1.142112	-0.528544	-0.380907
C53	C	1.192704	-0.551994	-0.330413
C54	C	1.091766	-0.978962	-0.431479
C55	C	1.091788	-1.025879	-0.431485
C56	C	1.192954	-1.025860	-0.330486
C57	C	1.192927	-0.978942	-0.330477
C58	C	1.142336	-0.955493	-0.380979
C59	C	1.192641	-0.453468	-0.330394
C60	C	1.192606	-0.406548	-0.330386
C61	C	1.091444	-0.406571	-0.431388
C62	C	1.091475	-0.453487	-0.431394
C63	C	1.142080	-0.476934	-0.380894
O64	O	1.048519	-0.527719	-0.474308
O65	O	1.235715	-0.527718	-0.287471
C66	C	1.192810	-0.739658	-0.330449
C67	C	1.142245	-0.763124	-0.380954
C68	C	1.091653	-0.739674	-0.431448
C69	C	1.142268	-0.810042	-0.380959
C70	C	1.192860	-0.833491	-0.330465
C71	C	1.243430	-0.810023	-0.279965
C72	C	1.243402	-0.763107	-0.279955
C73	C	1.041083	-0.763143	-0.481948
C74	C	1.041115	-0.810058	-0.481953
C75	C	1.091707	-0.833508	-0.431459
C76	C	1.348314	-0.216457	-0.380951
C77	C	1.436170	-0.216463	-0.380968
C78	C	1.142188	-0.216404	-0.587078
C79	C	1.142206	-0.216388	-0.674935
C80	C	1.142310	-0.099263	-0.380967
C81	C	1.142380	-0.049329	-0.380991
C82	C	1.091765	-0.187606	-1.046421
C83	C	1.192785	-0.245076	-1.046401
C84	C	1.192772	-0.245086	-0.963855
C85	C	1.142253	-0.216357	-0.922588
C86	C	1.091748	-0.187617	-0.963868
C87	C	1.243270	-0.273829	-0.922569
C88	C	1.243258	-0.273841	-0.840018
C89	C	1.192743	-0.245109	-0.798750
C90	C	1.142236	-0.216367	-0.840035
C91	C	1.091718	-0.187638	-0.798768
C92	C	1.041215	-0.158894	-0.840051
C93	C	1.041233	-0.158885	-0.922600
C94	C	1.192724	-0.245118	-0.716202
C95	C	1.091701	-0.187648	-0.716214
C96	C	1.142149	-0.216446	-0.175544
C97	C	1.142284	-0.216336	-0.087688
H98	H	0.841144	-0.268496	-0.288988
H99	H	1.050566	-0.164251	-0.682621
Br100	Br	0.740031	-0.120105	-0.550928
H101	H	1.050249	-0.387471	-0.472498
Br102	Br	1.023099	-0.947145	-0.500025
Br103	Br	1.311816	-0.312823	-0.978576
Br104	Br	0.863801	-0.148797	-0.500250
H105	H	1.284379	-0.297247	-0.806413
H106	H	0.443728	-0.268521	-0.289083
Br107	Br	0.972416	-0.731326	-0.550484
H108	H	0.567494	-0.297206	-0.238410
H109	H	1.000080	-0.135504	-0.806441
Br110	Br	1.261237	-0.374704	-0.261832
Br111	Br	0.972478	-0.841899	-0.550506
H112	H	1.000116	-0.135483	-0.956220
H113	H	1.050649	-0.164202	-1.080037
H114	H	1.233909	-0.268469	-1.080005
H115	H	1.284579	-0.744004	-0.238826
Br116	Br	1.311961	-0.590521	-0.211384
H117	H	1.233848	-0.268518	-0.682593
H118	H	1.234104	-0.959839	-0.289348
Br119	Br	0.739649	-0.312780	-0.210886
Br120	Br	1.022828	-0.485334	-0.499923
Br121	Br	0.545453	-0.120131	-0.550971
Br122	Br	0.421573	-0.148833	-0.500351
H123	H	1.233850	-0.472553	-0.289275
Br124	Br	1.312018	-0.701092	-0.211399
H125	H	1.234149	-1.044961	-0.289372
H126	H	1.050603	-1.044981	-0.472607
Br127	Br	0.972354	-0.590566	-0.550481
Br128	Br	1.312087	-0.841856	-0.211435
H129	H	0.999850	-0.688405	-0.523072
