data_functionalizedCrystal
_audit_creation_method	'MofGen! by Chris Wilmer'
_symmetry_space_group_name_H-M	'P1'
_symmetry_Int_Tables_number	1
_symmetry_cell_setting	triclinic
loop_
_symmetry_equiv_pos_as_xyz
  x,y,z
_cell_length_a	17.699083
_cell_length_b	19.188937
_cell_length_c	16.776229
_cell_angle_alpha	89.991546
_cell_angle_beta	90.005254
_cell_angle_gamma	83.215223
loop_
_atom_site_label
_atom_site_type_symbol
_atom_site_fract_x
_atom_site_fract_y
_atom_site_fract_z
O1	O	-1.003958	-0.088296	0.066170
O2	O	-0.670624	0.245038	0.399504
O3	O	-0.337291	0.578371	0.732837
O4	O	-0.783565	-0.099783	0.066199
O5	O	-0.450231	0.233551	0.399532
O6	O	-0.116898	0.566884	0.732865
O7	O	-0.900119	0.007609	0.066176
O8	O	-0.566785	0.340942	0.399510
O9	O	-0.233452	0.674276	0.732843
O10	O	-0.887404	-0.195687	0.066193
O11	O	-0.554070	0.137646	0.399526
O12	O	-0.220737	0.470979	0.732859
O13	O	-0.900117	0.007619	-0.066400
O14	O	-0.566783	0.340952	0.266933
O15	O	-0.233450	0.674285	0.600266
O16	O	-0.783563	-0.099773	-0.066378
O17	O	-0.450229	0.233560	0.266955
O18	O	-0.116896	0.566893	0.600289
O19	O	-1.003956	-0.088286	-0.066406
O20	O	-0.670622	0.245047	0.266927
O21	O	-0.337289	0.578381	0.600261
Zn22	Zn	-0.893759	-0.094028	-0.087441
Zn23	Zn	-0.560425	0.239305	0.245892
Zn24	Zn	-0.227092	0.572639	0.579225
Zn25	Zn	-0.893761	-0.094041	0.087234
Zn26	Zn	-0.560428	0.239293	0.420567
Zn27	Zn	-0.227095	0.572626	0.753900
O28	O	-0.887402	-0.195678	-0.066384
O29	O	-0.554068	0.137655	0.266949
O30	O	-0.220735	0.470989	0.600283
C31	C	-0.755367	-0.099366	-0.000086
C32	C	-0.422034	0.233967	0.333247
C33	C	-0.088700	0.567300	0.666580
C34	C	-0.671351	-0.098132	-0.000076
C35	C	-0.338017	0.235202	0.333258
C36	C	-0.004684	0.568535	0.666591
C37	C	-0.899705	0.033625	-0.000112
C38	C	-0.566372	0.366959	0.333221
C39	C	-0.233038	0.700292	0.666555
C40	C	-0.898467	0.111131	-0.000113
C41	C	-0.565133	0.444464	0.333221
C42	C	-0.231800	0.777798	0.666554
C43	C	-0.622648	-0.161168	-0.000071
C44	C	-0.289315	0.172165	0.333263
C45	C	0.044018	0.505498	0.666596
C46	C	-0.543706	-0.160004	-0.000080
C47	C	-0.210373	0.173329	0.333253
C48	C	0.122960	0.506663	0.666586
C49	C	-0.513469	-0.095802	-0.000090
C50	C	-0.180135	0.237531	0.333244
C51	C	0.153198	0.570865	0.666577
C52	C	-0.562177	-0.032760	-0.000097
C53	C	-0.228844	0.300573	0.333236
C54	C	0.104490	0.633906	0.666569
C55	C	-0.641117	-0.033926	-0.000093
C56	C	-0.307784	0.299408	0.333240
C57	C	0.025549	0.632741	0.666574
C58	C	-0.243820	-0.028060	-0.000115
C59	C	0.089513	0.305273	0.333219
C60	C	0.422847	0.638607	0.666552
C61	C	-0.164874	-0.026900	-0.000116
C62	C	0.168460	0.306434	0.333217
C63	C	0.501793	0.639767	0.666550
C64	C	-0.146409	-0.154138	-0.000102
C65	C	0.186924	0.179195	0.333231
C66	C	0.520258	0.512528	0.666565
C67	C	-0.225349	-0.155304	-0.000098
C68	C	0.107984	0.178030	0.333235
C69	C	0.441317	0.511363	0.666569
C70	C	-0.274051	-0.092262	-0.000110
C71	C	0.059282	0.241071	0.333224
C72	C	0.392616	0.574404	0.666557
C73	C	-0.359649	-0.093526	-0.000101
C74	C	-0.026315	0.239808	0.333233
C75	C	0.307018	0.573141	0.666566
C76	C	-0.427872	-0.094538	-0.000093
C77	C	-0.094539	0.238795	0.333240
C78	C	0.238794	0.572129	0.666574
C79	C	-0.032153	-0.088702	-0.000118
C80	C	0.301180	0.244631	0.333216
C81	C	0.634513	0.577964	0.666549
C82	C	-0.116170	-0.089937	-0.000117
C83	C	0.217164	0.243396	0.333216
C84	C	0.550497	0.576729	0.666550
N85	N	-0.893764	-0.094044	0.206445
N86	N	-0.560430	0.239289	0.539778
N87	N	-0.227097	0.572623	0.873112
C88	C	-0.889654	0.664406	-0.072367
C89	C	-0.556321	0.997739	0.260966
C90	C	-0.222988	1.331073	0.594300
C91	C	-0.890810	0.591580	-0.072371
C92	C	-0.557476	0.924914	0.260963
C93	C	-0.224143	1.258247	0.594296
C94	C	-0.891392	0.555155	-0.000104
C95	C	-0.558059	0.888488	0.333230
C96	C	-0.224725	1.221821	0.666563
C97	C	-0.890799	0.591559	0.072172
C98	C	-0.557466	0.924892	0.405506
C99	C	-0.224133	1.258225	0.738839
C100	C	-0.889636	0.664382	0.072174
C101	C	-0.556303	0.997716	0.405507
C102	C	-0.222970	1.331049	0.738840
N103	N	-0.936288	0.446076	0.053681
N104	N	-0.602954	0.779410	0.387015
N105	N	-0.269621	1.112743	0.720348
N106	N	-0.937394	0.376897	0.053675
N107	N	-0.604061	0.710231	0.387008
N108	N	-0.270727	1.043564	0.720342
C109	C	-0.894895	0.335741	-0.000104
C110	C	-0.561561	0.669075	0.333229
C111	C	-0.228228	1.002408	0.666562
N112	N	-0.851257	0.366379	-0.053889
N113	N	-0.517923	0.699712	0.279444
N114	N	-0.184590	1.033046	0.612778
N115	N	-0.850153	0.435565	-0.053885
N116	N	-0.516820	0.768898	0.279449
N117	N	-0.183487	1.102232	0.612782
C118	C	-0.892653	0.476190	-0.000097
C119	C	-0.559319	0.809523	0.333236
C120	C	-0.225986	1.142856	0.666569
C121	C	-0.896735	0.220379	-0.072380
C122	C	-0.563401	0.553713	0.260954
C123	C	-0.230068	0.887046	0.594287
C124	C	-0.897885	0.147551	-0.072380
C125	C	-0.564552	0.480885	0.260953
C126	C	-0.231219	0.814218	0.594286
C127	C	-0.897883	0.147532	0.072165
C128	C	-0.564550	0.480866	0.405498
C129	C	-0.231216	0.814199	0.738831
C130	C	-0.896725	0.220358	0.072163
C131	C	-0.563391	0.553691	0.405497
C132	C	-0.230058	0.887024	0.738830
C133	C	-0.896154	0.256777	-0.000111
C134	C	-0.562821	0.590111	0.333222
C135	C	-0.229487	0.923444	0.666556
C136	C	-0.887818	0.778306	-0.000097
C137	C	-0.554485	1.111640	0.333236
C138	C	-0.221152	1.444973	0.666570
C139	C	-0.889066	0.700802	-0.000101
C140	C	-0.555733	1.034135	0.333233
C141	C	-0.222399	1.367469	0.666566
N142	N	-0.893763	-0.094019	-0.206653
N143	N	-0.560429	0.239314	0.126681
N144	N	-0.227096	0.572648	0.460014
C145	C	-0.945469	-0.046584	0.248152
C146	C	-0.612136	0.286749	0.581486
C147	C	-0.278803	0.620082	0.914819
C148	C	-0.945472	-0.046583	0.331605
C149	C	-0.612139	0.286751	0.664938
C150	C	-0.278806	0.620084	0.998271
C151	C	-0.893765	-0.094038	0.373348
C152	C	-0.560432	0.239296	0.706681
C153	C	-0.227099	0.572629	1.040015
C154	C	-0.842057	-0.141503	0.331635
C155	C	-0.508724	0.191831	0.664968
C156	C	-0.175391	0.525164	0.998302
C157	C	-0.842059	-0.141507	0.248184
C158	C	-0.508725	0.191826	0.581518
C159	C	-0.175392	0.525160	0.914851
C160	C	-0.842052	-0.141486	0.668182
C161	C	-0.508718	0.191848	1.001515
C162	C	-0.175385	0.525181	1.334849
C163	C	-0.842053	-0.141476	0.751639
C164	C	-0.508719	0.191857	1.084972
C165	C	-0.175386	0.525191	1.418305
C166	C	-0.945465	-0.046561	0.751602
C167	C	-0.612132	0.286772	1.084936
C168	C	-0.278799	0.620105	1.418269
C169	C	-0.945467	-0.046566	0.668152
C170	C	-0.612133	0.286768	1.001485
C171	C	-0.278800	0.620101	1.334818
C172	C	-0.893762	-0.094033	0.626446
C173	C	-0.560428	0.239301	0.959779
C174	C	-0.227095	0.572634	1.293113
C175	C	-0.893760	-0.094035	0.535958
C176	C	-0.560427	0.239298	0.869291
C177	C	-0.227093	0.572632	1.202624
C178	C	-0.893763	-0.094033	0.463835
C179	C	-0.560429	0.239301	0.797168
C180	C	-0.227096	0.572634	1.130501
H181	H	-0.647261	-0.213449	-0.000062
H182	H	-0.313928	0.119884	0.333271
H183	H	0.019406	0.453218	0.666604
H184	H	-0.106746	-0.205470	-0.000097
H185	H	0.226587	0.127864	0.333237
H186	H	0.559920	0.461197	0.666570
Br187	Br	-0.771887	-0.205913	0.388283
Br188	Br	-0.438554	0.127420	0.721617
Br189	Br	-0.105220	0.460754	1.054950
Br190	Br	-0.895931	0.269756	0.170245
Br191	Br	-0.562598	0.603090	0.503578
Br192	Br	-0.229264	0.936423	0.836912
Br193	Br	-0.266382	-0.242438	-0.000078
Br194	Br	0.066951	0.090896	0.333255
Br195	Br	0.400284	0.424229	0.666589
Br196	Br	-0.895958	0.269810	-0.170463
Br197	Br	-0.562625	0.603143	0.162870
Br198	Br	-0.229292	0.936476	0.496203
Br199	Br	-0.891591	0.542127	0.170250
Br200	Br	-0.558258	0.875460	0.503583
Br201	Br	-0.224924	1.208793	0.836916
Br202	Br	-1.015638	0.017843	0.611502
Br203	Br	-0.682304	0.351176	0.944836
Br204	Br	-0.348971	0.684510	1.278169
Br205	Br	-0.123837	0.060237	-0.000127
Br206	Br	0.209496	0.393571	0.333207
Br207	Br	0.542829	0.726904	0.666540
H208	H	-0.537551	0.019514	-0.000116
H209	H	-0.204218	0.352847	0.333217
H210	H	0.129115	0.686181	0.666551
Br211	Br	-1.015648	0.017825	0.388210
Br212	Br	-0.682314	0.351159	0.721543
Br213	Br	-0.348981	0.684492	1.054877
Br214	Br	-0.891614	0.542175	-0.170453
Br215	Br	-0.558281	0.875509	0.162880
Br216	Br	-0.224948	1.208842	0.496213
H217	H	-0.898363	0.117919	-0.131231
H218	H	-0.565029	0.451252	0.202103
H219	H	-0.231696	0.784586	0.535436
Br220	Br	-0.888837	0.713780	0.170257
Br221	Br	-0.555504	1.047114	0.503591
Br222	Br	-0.222171	1.380447	0.836924
Br223	Br	-0.898637	0.098101	0.170243
Br224	Br	-0.565303	0.431435	0.503577
Br225	Br	-0.231970	0.764768	0.836910
Br226	Br	-1.015642	0.017828	0.191509
Br227	Br	-0.682308	0.351161	0.524843
Br228	Br	-0.348975	0.684495	0.858176
H229	H	-0.987569	-0.007913	0.785568
H230	H	-0.654235	0.325420	1.118901
H231	H	-0.320902	0.658754	1.452235
Br232	Br	-0.707215	0.051628	-0.000107
Br233	Br	-0.373882	0.384961	0.333226
Br234	Br	-0.040548	0.718294	0.666560
Br235	Br	-0.477612	-0.245558	-0.000071
Br236	Br	-0.144279	0.087776	0.333263
Br237	Br	0.189054	0.421109	0.666596
Br238	Br	-0.309905	0.057496	-0.000133
Br239	Br	0.023428	0.390829	0.333201
Br240	Br	0.356761	0.724163	0.666534
H241	H	-0.799945	-0.180122	0.785625
H242	H	-0.466612	0.153211	1.118958
H243	H	-0.133279	0.486544	1.452291
Br244	Br	-0.888874	0.713829	-0.170453
Br245	Br	-0.555540	1.047162	0.162880
Br246	Br	-0.222207	1.380495	0.496214
H247	H	-0.799950	-0.180134	0.634232
H248	H	-0.466617	0.153200	0.967565
H249	H	-0.133284	0.486533	1.300898
H250	H	-0.799956	-0.180154	0.214227
H251	H	-0.466622	0.153179	0.547560
H252	H	-0.133289	0.486512	0.880894
