data_functionalizedCrystal
_audit_creation_method	'MofGen! by Chris Wilmer'
_symmetry_space_group_name_H-M	'P1'
_symmetry_Int_Tables_number	1
_symmetry_cell_setting	triclinic
loop_
_symmetry_equiv_pos_as_xyz
  x,y,z
_cell_length_a	16.120490
_cell_length_b	18.050589
_cell_length_c	16.120297
_cell_angle_alpha	92.875657
_cell_angle_beta	90.129683
_cell_angle_gamma	87.120764
loop_
_atom_site_label
_atom_site_type_symbol
_atom_site_fract_x
_atom_site_fract_y
_atom_site_fract_z
Zn1	Zn	1.247411	-0.376308	-0.534557
Zn2	Zn	1.580744	-0.042975	-0.201224
Zn3	Zn	1.914078	0.290359	0.132110
Zn4	Zn	1.254350	-0.494533	-0.395506
Zn5	Zn	1.587684	-0.161200	-0.062173
Zn6	Zn	1.921017	0.172133	0.271160
Zn7	Zn	1.115402	-0.363752	-0.388477
Zn8	Zn	1.448735	-0.030419	-0.055144
Zn9	Zn	1.782068	0.302914	0.278189
Zn10	Zn	1.108306	-0.493842	-0.527479
Zn11	Zn	1.441640	-0.160509	-0.194146
Zn12	Zn	1.774973	0.172824	0.139188
O13	O	1.181367	-0.432109	-0.461505
O14	O	1.514701	-0.098776	-0.128172
O15	O	1.848034	0.234558	0.205162
O16	O	1.364698	-0.397535	-0.522015
O17	O	1.698031	-0.064201	-0.188682
O18	O	2.031365	0.269132	0.144651
O19	O	1.241792	-0.472219	-0.278208
O20	O	1.575126	-0.138886	0.055125
O21	O	1.908459	0.194447	0.388459
O22	O	1.132978	-0.261497	-0.407876
O23	O	1.466312	0.071836	-0.074542
O24	O	1.799645	0.405169	0.258791
O25	O	1.369796	-0.484394	-0.419855
O26	O	1.703130	-0.151061	-0.086522
O27	O	2.036463	0.182272	0.246811
O28	O	1.229965	-0.270722	-0.515200
O29	O	1.563298	0.062611	-0.181866
O30	O	1.896632	0.395945	0.151467
O31	O	1.139707	-0.376135	-0.273044
O32	O	1.473041	-0.042802	0.060289
O33	O	1.806374	0.290531	0.393623
O34	O	0.998094	-0.375465	-0.401013
O35	O	1.331428	-0.042132	-0.067679
O36	O	1.664761	0.291201	0.265654
O37	O	1.120885	-0.483217	-0.644784
O38	O	1.454218	-0.149883	-0.311450
O39	O	1.787552	0.183450	0.021883
O40	O	0.992881	-0.471042	-0.503136
O41	O	1.326214	-0.137708	-0.169803
O42	O	1.659548	0.195625	0.163530
O43	O	1.223085	-0.396865	-0.649984
O44	O	1.556418	-0.063531	-0.316651
O45	O	1.889751	0.269802	0.016683
O46	O	1.234912	-0.598362	-0.412992
O47	O	1.568245	-0.265029	-0.079659
O48	O	1.901579	0.068304	0.253675
O49	O	1.127614	-0.597855	-0.509952
O50	O	1.460947	-0.264521	-0.176619
O51	O	1.794281	0.068812	0.156715
C52	C	0.965315	-0.421817	-0.450544
C53	C	1.298648	-0.088483	-0.117211
C54	C	1.631982	0.244850	0.216122
C55	C	0.872886	-0.417432	-0.445875
C56	C	1.206219	-0.084099	-0.112542
C57	C	1.539553	0.249234	0.220792
C58	C	1.181268	-0.625056	-0.461486
C59	C	1.514601	-0.291722	-0.128153
C60	C	1.847934	0.041611	0.205181
C61	C	1.181300	-0.707604	-0.461510
C62	C	1.514633	-0.374271	-0.128176
C63	C	1.847966	-0.040937	0.205157
C64	C	0.659921	-0.454846	-0.485727
C65	C	0.993254	-0.121513	-0.152393
C66	C	1.326587	0.211821	0.180940
C67	C	0.703662	-0.409434	-0.437349
C68	C	1.036995	-0.076101	-0.104015
C69	C	1.370329	0.257233	0.229318
C70	C	0.797827	-0.413886	-0.442094
C71	C	1.131160	-0.080552	-0.108761
C72	C	1.464494	0.252781	0.224573
C73	C	0.565747	-0.450396	-0.480982
C74	C	0.899080	-0.117062	-0.147649
C75	C	1.232414	0.216271	0.185684
C76	C	1.123007	-0.906807	-0.514220
C77	C	1.456340	-0.573474	-0.180886
C78	C	1.789673	-0.240141	0.152447
C79	C	1.106583	-0.952029	-0.437314
C80	C	1.439917	-0.618695	-0.103981
C81	C	1.773250	-0.285362	0.229352
C82	C	1.181381	-0.858739	-0.461525
C83	C	1.514714	-0.525405	-0.128191
C84	C	1.848048	-0.192072	0.205142
C85	C	1.197844	-0.960602	-0.538441
C86	C	1.531178	-0.627268	-0.205107
C87	C	1.864511	-0.293935	0.128226
C88	C	1.181457	-1.004728	-0.461546
C89	C	1.514791	-0.671395	-0.128212
C90	C	1.848124	-0.338062	0.205121
C91	C	1.164920	-0.902869	-0.384577
C92	C	1.498253	-0.569536	-0.051244
C93	C	1.831587	-0.236202	0.282090
C94	C	1.256213	-0.911442	-0.485756
C95	C	1.589547	-0.578108	-0.152423
C96	C	1.922880	-0.244775	0.180910
C97	C	1.239822	-0.956640	-0.408800
C98	C	1.573155	-0.623306	-0.075467
C99	C	1.906489	-0.289973	0.257867
C100	C	1.181335	-0.774638	-0.461513
C101	C	1.514668	-0.441305	-0.128180
C102	C	1.848001	-0.107971	0.205153
C103	C	1.181504	-1.088827	-0.461548
C104	C	1.514837	-0.755494	-0.128215
C105	C	1.848171	-0.422160	0.205118
C106	C	1.398263	-0.442442	-0.472509
C107	C	1.731597	-0.109109	-0.139176
C108	C	2.064930	0.224224	0.194158
C109	C	1.490691	-0.446846	-0.477198
C110	C	1.824025	-0.113512	-0.143865
C111	C	2.157358	0.219821	0.189469
C112	C	1.170419	-0.441364	-0.678400
C113	C	1.503753	-0.108031	-0.345067
C114	C	1.837086	0.225302	-0.011733
C115	C	1.165754	-0.445308	-0.770828
C116	C	1.499087	-0.111975	-0.437494
C117	C	1.832420	0.221358	-0.104161
C118	C	1.181489	-0.238411	-0.461543
C119	C	1.514823	0.094923	-0.128210
C120	C	1.848156	0.428256	0.205123
C121	C	1.181541	-0.155868	-0.461560
C122	C	1.514874	0.177465	-0.128226
C123	C	1.848208	0.510799	0.205107
C124	C	1.157205	-0.452491	-0.940053
C125	C	1.490539	-0.119158	-0.606720
C126	C	1.823872	0.214176	-0.273386
C127	C	1.205693	-0.411512	-0.983817
C128	C	1.539027	-0.078179	-0.650484
C129	C	1.872360	0.255154	-0.317150
C130	C	1.200937	-0.415509	-1.077980
C131	C	1.534270	-0.082176	-0.744646
C132	C	1.867604	0.251158	-0.411313
C133	C	1.161961	-0.448495	-0.845882
C134	C	1.495294	-0.115162	-0.512548
C135	C	1.828627	0.218171	-0.179215
C136	C	1.192321	-0.422839	-0.245456
C137	C	1.525654	-0.089505	0.087877
C138	C	1.858987	0.243828	0.421211
C139	C	1.197147	-0.418693	-0.153037
C140	C	1.530481	-0.085360	0.180296
C141	C	1.863814	0.247974	0.513630
H142	H	0.670390	-0.367213	-0.392367
H143	H	1.003724	-0.033879	-0.059034
H144	H	1.337057	0.299454	0.274300
N145	N	0.703984	-0.510781	-0.545297
N146	N	1.037317	-0.177447	-0.211963
N147	N	1.370650	0.155886	0.121370
H148	H	0.685946	-0.501178	-0.603995
H149	H	1.019279	-0.167844	-0.270661
H150	H	1.352612	0.165489	0.062672
H151	H	0.765969	-0.506045	-0.540206
H152	H	1.099302	-0.172711	-0.206872
H153	H	1.432636	0.160622	0.126461
H154	H	1.250776	-0.373427	-0.950566
H155	H	1.584110	-0.040094	-0.617233
H156	H	1.917443	0.293240	-0.283899
N157	N	1.097486	-0.502926	-0.984101
N158	N	1.430820	-0.169592	-0.650768
N159	N	1.764153	0.163741	-0.317434
H160	H	1.129475	-0.540445	-1.021861
H161	H	1.462809	-0.207112	-0.688528
H162	H	1.796142	0.126221	-0.355195
H163	H	1.065793	-0.529672	-0.941733
H164	H	1.399126	-0.196338	-0.608400
H165	H	1.732460	0.136995	-0.275066
H166	H	1.319445	-0.893452	-0.506269
H167	H	1.652778	-0.560119	-0.172936
H168	H	1.986112	-0.226786	0.160397
N169	N	1.057543	-0.877816	-0.573160
N170	N	1.390876	-0.544483	-0.239827
N171	N	1.724210	-0.211149	0.093506
H172	H	1.027510	-0.920781	-0.599516
H173	H	1.360844	-0.587448	-0.266182
H174	H	1.694177	-0.254115	0.067151
H175	H	1.016528	-0.843001	-0.541509
H176	H	1.349862	-0.509668	-0.208176
H177	H	1.683195	-0.176334	0.125157
N178	N	1.022799	-0.975831	-0.410170
N179	N	1.356133	-0.642497	-0.076837
N180	N	1.689466	-0.309164	0.256497
H181	H	0.998235	-1.008356	-0.455749
H182	H	1.331568	-0.675022	-0.122415
H183	H	1.664902	-0.341689	0.210918
H184	H	1.029524	-1.004559	-0.358201
H185	H	1.362857	-0.671225	-0.024868
H186	H	1.696190	-0.337892	0.308466
N187	N	1.146421	-0.869586	-0.298394
N188	N	1.479755	-0.536253	0.034939
N189	N	1.813088	-0.202919	0.368272
H190	H	1.146482	-0.813661	-0.298923
H191	H	1.479815	-0.480327	0.034411
H192	H	1.813148	-0.146994	0.367744
H193	H	1.090128	-0.884724	-0.280034
H194	H	1.423462	-0.551391	0.053300
H195	H	1.756795	-0.218057	0.386633
H196	H	1.289223	-0.978374	-0.364192
H197	H	1.622556	-0.645041	-0.030859
H198	H	1.955889	-0.311708	0.302474
H199	H	1.211739	-0.985821	-0.603479
H200	H	1.545073	-0.652487	-0.270146
H201	H	1.878406	-0.319154	0.063187
