data_functionalizedCrystal
_audit_creation_method	'MofGen! by Chris Wilmer'
_symmetry_space_group_name_H-M	'P1'
_symmetry_Int_Tables_number	1
_symmetry_cell_setting	triclinic
loop_
_symmetry_equiv_pos_as_xyz
  x,y,z
_cell_length_a	10.686220
_cell_length_b	13.032721
_cell_length_c	13.032268
_cell_angle_alpha	103.289627
_cell_angle_beta	100.919293
_cell_angle_gamma	100.973619
loop_
_atom_site_label
_atom_site_type_symbol
_atom_site_fract_x
_atom_site_fract_y
_atom_site_fract_z
Zn1	Zn	1.792166	-0.368532	-0.523925
Zn2	Zn	2.292166	0.131468	-0.023925
Zn3	Zn	1.792025	-0.523627	-0.368883
Zn4	Zn	2.292025	-0.023627	0.131117
Zn5	Zn	1.607735	-0.359462	-0.359751
Zn6	Zn	2.107735	0.140538	0.140249
Zn7	Zn	1.544914	-0.564101	-0.564388
Zn8	Zn	2.044914	-0.064101	-0.064388
O9	O	1.684210	-0.453931	-0.454237
O10	O	2.184210	0.046069	0.045763
O11	O	1.972750	-0.375963	-0.490246
O12	O	2.472750	0.124037	0.009754
O13	O	1.793811	-0.481115	-0.217145
O14	O	2.293811	0.018885	0.282855
O15	O	1.658550	-0.210115	-0.360774
O16	O	2.158550	0.289885	0.139226
O17	O	1.972646	-0.489910	-0.376337
O18	O	2.472646	0.010090	0.123663
O19	O	1.794051	-0.216779	-0.481391
O20	O	2.294051	0.283221	0.018609
O21	O	1.658414	-0.360504	-0.210436
O22	O	2.158414	0.139496	0.289564
O23	O	1.418800	-0.399751	-0.400009
O24	O	1.918800	0.100249	0.099991
O25	O	1.551481	-0.558893	-0.709547
O26	O	2.051481	-0.058893	-0.209547
O27	O	1.372646	-0.550098	-0.550355
O28	O	1.872646	-0.050098	-0.050355
O29	O	1.733136	-0.415210	-0.679819
O30	O	2.233136	0.084790	-0.179819
O31	O	1.732896	-0.679546	-0.415573
O32	O	2.232896	-0.179546	0.084427
O33	O	1.551344	-0.709282	-0.559209
O34	O	2.051344	-0.209282	-0.059209
C35	C	1.348894	-0.478333	-0.478583
C36	C	1.848894	0.021667	0.021417
C37	C	1.205436	-0.488802	-0.489027
C38	C	1.705436	0.011198	0.010973
C39	C	1.635319	-0.733451	-0.492794
C40	C	2.135319	-0.233451	0.007206
C41	C	1.614514	-0.853027	-0.509316
C42	C	2.114514	-0.353027	-0.009316
C43	C	1.695128	-0.891592	-0.445657
C44	C	2.195128	-0.391592	0.054343
C45	C	1.673628	-1.015180	-0.462732
C46	C	2.173628	-0.515180	0.037268
C47	C	2.020835	-0.429434	-0.429797
C48	C	2.520835	0.070566	0.070203
C49	C	2.164285	-0.418995	-0.419382
C50	C	2.664285	0.081005	0.080618
C51	C	1.635317	-0.492578	-0.734804
C52	C	2.135317	0.007422	-0.234804
C53	C	1.614481	-0.509047	-0.854366
C54	C	2.114481	-0.009047	-0.354366
C55	C	1.733324	-0.173320	-0.415550
C56	C	2.233324	0.326680	0.084450
C57	C	1.754253	-0.053740	-0.399064
C58	C	2.254253	0.446260	0.100936
C59	C	1.695071	-0.445298	-0.892961
C60	C	2.195071	0.054702	-0.392961
C61	C	1.673539	-0.462318	-1.016533
C62	C	2.173539	0.037682	-0.516533
C63	C	1.733002	-0.415350	-0.174745
C64	C	2.233002	0.084650	0.325255
C65	C	1.754140	-0.398560	-0.055124
C66	C	2.254140	0.101440	0.444876
H67	H	1.238804	-0.351221	-0.351764
H68	H	1.738804	0.148779	0.148236
H69	H	1.130909	-0.556586	-0.556643
H70	H	1.630909	-0.056586	-0.056643
H71	H	1.780005	-0.378116	-0.834519
H72	H	2.280005	0.121884	-0.334519
H73	H	1.588588	-0.529495	-1.074971
H74	H	2.088588	-0.029495	-0.574971
Cl75	Cl	1.885401	-0.963467	-0.295398
Cl76	Cl	2.385401	-0.463467	0.204602
H77	H	1.529537	-0.576220	-0.912807
H78	H	2.029537	-0.076220	-0.412807
H79	H	1.780067	-0.833115	-0.378519
H80	H	2.280067	-0.333115	0.121481
H81	H	1.529585	-0.911506	-0.576461
H82	H	2.029585	-0.411506	-0.076461
Cl83	Cl	1.885304	-0.294845	-0.964909
Cl84	Cl	2.385304	0.205155	-0.464909
H85	H	1.588693	-1.073656	-0.529882
H86	H	2.088693	-0.573656	-0.029882
