data_functionalizedCrystal
_audit_creation_method	'MofGen! by Chris Wilmer'
_symmetry_space_group_name_H-M	'P1'
_symmetry_Int_Tables_number	1
_symmetry_cell_setting	triclinic
loop_
_symmetry_equiv_pos_as_xyz
  x,y,z
_cell_length_a	31.640172
_cell_length_b	18.426585
_cell_length_c	18.426585
_cell_angle_alpha	90.001096
_cell_angle_beta	60.007886
_cell_angle_gamma	60.000462
loop_
_atom_site_label
_atom_site_type_symbol
_atom_site_fract_x
_atom_site_fract_y
_atom_site_fract_z
Zr1	Zr	0.462601	-0.095244	0.699220
O2	O	0.550762	-0.211116	0.583364
O3	O	0.374436	-0.059724	0.734721
O4	O	0.462599	-0.211121	0.734742
O5	O	0.462602	0.059707	0.583344
O6	O	0.462602	-0.211124	0.854167
O7	O	0.462599	-0.059719	0.583343
O8	O	0.304894	0.059697	0.854131
O9	O	0.620310	-0.211114	0.583380
O10	O	0.410703	-0.044577	0.839006
O11	O	0.410703	0.044552	0.749880
O12	O	0.514504	-0.133698	0.749904
O13	O	0.514504	-0.044570	0.660778
Zr14	Zr	0.462610	0.095222	0.889690
Zr15	Zr	0.462606	-0.095249	0.889690
Zr16	Zr	0.462606	0.095226	0.699220
Zr17	Zr	0.573521	-0.095242	0.699246
Zr18	Zr	0.351690	0.095219	0.889664
O19	O	0.550775	0.059702	0.854189
O20	O	0.550769	-0.211123	0.854188
O21	O	0.550769	0.059709	0.583364
O22	O	0.374449	0.211093	1.005546
O23	O	0.374443	-0.059731	1.005546
O24	O	0.374443	0.211100	0.734722
O25	O	0.462610	-0.059730	1.005566
O26	O	0.462612	0.211099	0.854168
O27	O	0.462610	0.211102	0.734743
O28	O	0.462612	0.059696	1.005567
O29	O	0.620313	-0.211118	0.734779
O30	O	0.304898	0.211096	0.854131
O31	O	0.304902	0.211092	1.005530
O32	O	0.304898	0.059693	1.005530
O33	O	0.620313	-0.059716	0.583380
O34	O	0.620317	-0.059720	0.734779
O35	O	0.410708	0.133676	0.839006
O36	O	0.410708	0.044547	0.928132
O37	O	0.514508	-0.044574	0.839030
O38	O	0.514508	0.044554	0.749904
C39	C	0.323861	-0.000014	0.794422
C40	C	0.276773	-0.000015	0.794411
C41	C	0.462600	-0.000005	0.556205
C42	C	0.462598	-0.000003	0.475346
C43	C	0.462612	0.238238	0.794456
C44	C	0.462614	0.319098	0.794456
C45	C	-0.015269	-0.046527	0.840996
C46	C	-0.192265	-0.046527	0.841014
O47	O	-0.215169	-0.086062	0.880613
N48	N	-0.214394	-0.000004	0.794490
C49	C	-0.192274	0.046526	0.747963
O50	O	-0.215162	0.086104	0.708399
C51	C	-0.015282	0.046530	0.747950
C52	C	0.006849	-0.000003	0.794470
C53	C	0.006862	-0.093055	0.887512
C54	C	0.051110	-0.093059	0.887503
C55	C	0.073228	-0.046534	0.840978
C56	C	0.051098	-0.000006	0.794461
C57	C	0.006834	0.093065	0.701429
C58	C	0.051084	0.093064	0.701432
C59	C	0.073215	0.046531	0.747952
C60	C	0.117464	0.046515	0.747926
N61	N	0.139593	-0.000008	0.794450
C62	C	0.117475	-0.046532	0.840976
C63	C	-0.285196	0.046519	0.747971
C64	C	-0.329443	0.046517	0.747973
C65	C	-0.329432	-0.046535	0.841026
C66	C	-0.285181	-0.046537	0.841018
C67	C	-0.263067	-0.000003	0.794495
C68	C	0.210401	-0.046537	0.840953
C69	C	0.254655	-0.046539	0.840937
C70	C	0.254637	0.046516	0.747888
C71	C	0.210389	0.046515	0.747900
C72	C	0.188271	-0.000013	0.794439
O73	O	0.140391	0.086037	0.708357
O74	O	0.140361	-0.086088	0.880550
C75	C	-0.059518	-0.046524	0.841005
C76	C	-0.081648	0.000005	0.794488
C77	C	-0.059530	0.046529	0.747962
C78	C	-0.125895	0.000002	0.794490
C79	C	-0.148013	-0.046522	0.841015
C80	C	-0.125884	-0.093045	0.887539
C81	C	-0.081636	-0.093048	0.887530
C82	C	-0.081659	0.093051	0.701438
C83	C	-0.125908	0.093050	0.701450
C84	C	-0.148025	0.046526	0.747976
C85	C	0.601350	-0.000009	0.794488
C86	C	0.648439	-0.000008	0.794499
C87	C	0.462600	-0.238261	0.794454
C88	C	0.462598	-0.319121	0.794454
C89	C	0.462596	0.615213	0.794457
C90	C	0.462598	0.532827	0.794459
C91	C	0.462605	0.467158	0.794457
C92	C	0.462607	0.384767	0.794458
C93	C	0.462616	-0.000019	0.179231
C94	C	0.462613	-0.000017	0.261617
C95	C	0.462607	-0.000012	0.327286
C96	C	0.462604	-0.000008	0.409677
C97	C	0.462612	-0.000017	1.032705
C98	C	0.462614	-0.000019	1.113564
C99	C	0.323867	-0.000020	1.032672
C100	C	0.276781	-0.000023	1.113520
C101	C	0.323867	0.238236	0.794423
C102	C	0.276781	0.319094	0.794412
C103	C	0.323873	0.238230	1.032672
C104	C	0.276789	0.319086	1.113521
C105	C	0.601338	-0.238252	0.556238
C106	C	0.648423	-0.319109	0.475389
C107	C	0.601344	-0.000003	0.556238
C108	C	0.648431	0.000000	0.475390
C109	C	0.601344	-0.238258	0.794487
C110	C	0.648431	-0.319117	0.794498
C111	C	0.254666	-0.046554	1.104965
C112	C	0.210430	-0.046575	1.180923
C113	C	0.188305	-0.000058	1.265437
C114	C	0.210424	0.046474	1.273991
C115	C	0.254663	0.046489	1.198033
C116	C	0.254671	0.403596	0.840930
C117	C	0.210434	0.479579	0.840916
C118	C	0.188305	0.471058	0.794389
C119	C	0.210420	0.386547	0.747866
C120	C	0.254659	0.310566	0.747875
C121	C	0.254677	0.310533	1.198019
C122	C	0.210443	0.386500	1.273993
C123	C	0.188317	0.471018	1.265466
C124	C	0.210433	0.479569	1.180959
C125	C	0.254670	0.403604	1.104987
C126	C	0.670540	-0.310556	0.390891
C127	C	0.714788	-0.386522	0.314917
C128	C	0.736916	-0.471040	0.323444
C129	C	0.714797	-0.479592	0.407951
C130	C	0.670553	-0.403626	0.483923
C131	C	0.670550	0.046524	0.483945
C132	C	0.714799	0.046523	0.407987
C133	C	0.736925	0.000004	0.323473
C134	C	0.714804	-0.046525	0.314919
C135	C	0.670559	-0.046529	0.390877
C136	C	0.670545	-0.310567	0.841034
C137	C	0.714782	-0.386535	0.841062
C138	C	0.736907	-0.471052	0.794548
C139	C	0.714788	-0.479600	0.748010
C140	C	0.670549	-0.403633	0.747988
H141	H	0.192396	-0.084423	0.878850
H142	H	0.772929	-0.532903	0.794572
O143	O	0.186549	0.377354	0.697689
H144	H	0.166392	0.340463	0.724577
O145	O	0.278510	0.219397	0.697756
H146	H	0.270003	0.182611	0.744779
O147	O	0.784643	0.000013	0.241545
H148	H	0.767658	0.029124	0.201425
H149	H	0.732808	-0.548424	0.710140
H150	H	0.652525	-0.241744	0.383931
H151	H	0.152283	-0.000077	1.327279
H152	H	-0.347447	-0.084418	0.878907
O153	O	0.140597	0.552945	1.347415
H154	H	0.128923	0.613159	1.327297
O155	O	0.186578	-0.096765	1.171685
H156	H	0.137772	-0.049806	1.204071
H157	H	0.272685	0.241721	1.204979
O158	O	0.646705	-0.412859	0.697781
H159	H	0.669530	-0.484393	0.665435
O160	O	0.186587	0.377267	1.365134
H161	H	0.209398	0.305733	1.358292
O162	O	0.186559	0.570730	1.171766
H163	H	0.152077	0.622109	1.238795
H164	H	0.652546	-0.410601	0.552723
O165	O	-0.261315	-0.096718	0.891198
H166	H	-0.284135	-0.129064	0.923551
O167	O	0.278525	-0.096728	0.891115
H168	H	0.255703	-0.129070	0.923475
O169	O	0.186555	0.096653	1.365147
H170	H	0.152072	0.088829	1.416519
H171	H	0.272667	0.410580	1.036188
O172	O	0.140584	0.553020	0.794400
H173	H	0.157558	0.552993	0.725132
H174	H	-0.011144	-0.130940	0.925403
O175	O	0.074975	-0.143241	0.937684
H176	H	0.052151	-0.175581	0.970040
H177	H	0.732787	-0.379558	0.878957
O178	O	0.784644	-0.552968	0.241495
H179	H	0.767663	-0.552915	0.201370
H180	H	0.272663	0.084385	1.205012
H181	H	0.272679	-0.084444	1.036157
H182	H	0.272683	0.410551	0.878818
H183	H	0.192434	0.548384	0.878804
O184	O	0.738670	-0.096698	0.223764
H185	H	0.773148	-0.088866	0.172391
H186	H	0.732790	-0.379542	0.246115
H187	H	0.192376	0.084393	0.710009
O188	O	0.738662	-0.570753	0.417144
H189	H	0.773137	-0.622131	0.350115
H190	H	0.732802	0.084416	0.414969
H191	H	0.652538	0.084411	0.552753
O192	O	-0.149742	-0.143230	0.937720
H193	H	-0.184231	-0.135401	0.929908
O194	O	0.646697	-0.096701	0.381645
H195	H	0.669514	-0.129036	0.310114
H196	H	-0.347452	0.084397	0.710081
O197	O	0.646681	-0.219414	0.891217
H198	H	0.669490	-0.226246	0.923588
H199	H	-0.011178	0.130958	0.663549
O200	O	-0.261341	0.096701	0.697780
H201	H	-0.284161	0.129037	0.665425
O202	O	0.074940	0.143256	0.651266
H203	H	0.095095	0.116381	0.579764
O204	O	0.278484	0.096729	0.697760
H205	H	0.327290	0.049789	0.646352
O206	O	-0.057768	-0.143237	0.937705
H207	H	-0.094903	-0.116347	1.009204
O208	O	-0.149752	0.143219	0.651239
H209	H	-0.169902	0.214722	0.678108
O210	O	-0.057801	0.143225	0.651247
H211	H	-0.080623	0.175565	0.618895
