data_functionalizedCrystal
_audit_creation_method	'MofGen! by Chris Wilmer'
_symmetry_space_group_name_H-M	'P1'
_symmetry_Int_Tables_number	1
_symmetry_cell_setting	triclinic
loop_
_symmetry_equiv_pos_as_xyz
  x,y,z
_cell_length_a	25.639239
_cell_length_b	12.645331
_cell_length_c	12.645323
_cell_angle_alpha	90.022676
_cell_angle_beta	89.968126
_cell_angle_gamma	89.962335
loop_
_atom_site_label
_atom_site_type_symbol
_atom_site_fract_x
_atom_site_fract_y
_atom_site_fract_z
Zn1	Zn	-0.208161	-1.620577	-0.599395
Zn2	Zn	0.291839	-1.120577	-0.099395
Zn3	Zn	-0.295600	-1.620393	-0.422113
Zn4	Zn	0.204400	-1.120393	0.077887
Zn5	Zn	-0.208179	-1.443291	-0.422139
Zn6	Zn	0.291821	-0.943291	0.077861
Zn7	Zn	-0.295566	-1.443208	-0.599328
Zn8	Zn	0.204434	-0.943208	-0.099328
O9	O	-0.251876	-1.531867	-0.510744
O10	O	0.248124	-1.031867	-0.010744
O11	O	-0.219767	-1.768900	-0.575895
O12	O	0.280233	-1.268900	-0.075895
O13	O	-0.284025	-1.596858	-0.273769
O14	O	0.215975	-1.096858	0.226231
O15	O	-0.135011	-1.466920	-0.445691
O16	O	0.364989	-0.966920	0.054309
O17	O	-0.284008	-1.768765	-0.445647
O18	O	0.215992	-1.268765	0.054353
O19	O	-0.134998	-1.597171	-0.575920
O20	O	0.365002	-1.097171	-0.075920
O21	O	-0.219797	-1.466742	-0.273788
O22	O	0.280203	-0.966742	0.226212
O23	O	-0.219764	-1.294933	-0.445627
O24	O	0.280236	-0.794933	0.054373
O25	O	-0.283949	-1.466778	-0.747685
O26	O	0.216051	-0.966778	-0.247685
O27	O	-0.283967	-1.294872	-0.575807
O28	O	0.216033	-0.794872	-0.075807
O29	O	-0.219734	-1.597090	-0.747733
O30	O	0.280266	-1.097090	-0.247733
O31	O	-0.368760	-1.596778	-0.445582
O32	O	0.131240	-1.096778	0.054418
O33	O	-0.368735	-1.466600	-0.575782
O34	O	0.131265	-0.966600	-0.075782
C35	C	-0.251864	-1.256438	-0.510713
C36	C	0.248136	-0.756438	-0.010713
C37	C	-0.251871	-1.138607	-0.510725
C38	C	0.248129	-0.638607	-0.010725
C39	C	-0.387719	-1.531689	-0.510695
C40	C	0.112281	-1.031689	-0.010695
C41	C	-0.445833	-1.531710	-0.510710
C42	C	0.054167	-1.031710	-0.010710
C43	C	-0.251836	-1.531945	-0.787249
C44	C	0.248164	-1.031945	-0.287249
C45	C	-0.251819	-1.531979	-0.905079
C46	C	0.248181	-1.031979	-0.405079
C47	C	-0.806196	-1.599827	-0.443064
C48	C	-0.306196	-1.099827	0.056936
C49	C	-0.860801	-1.599869	-0.443079
C50	C	-0.360801	-1.099869	0.056921
O51	O	-0.889038	-1.657600	-0.385511
O52	O	-0.389038	-1.157600	0.114489
N53	N	-0.888115	-1.532054	-0.510814
N54	N	-0.388115	-1.032054	-0.010814
C55	C	-0.860823	-1.464201	-0.578547
C56	C	-0.360823	-0.964201	-0.078547
O57	O	-0.889070	-1.406523	-0.636163
O58	O	-0.389070	-0.906523	-0.136163
C59	C	-0.806219	-1.464166	-0.578538
C60	C	-0.306219	-0.964166	-0.078538
C61	C	-0.778908	-1.531978	-0.510790
C62	C	-0.278908	-1.031978	-0.010790
C63	C	-0.778884	-1.667635	-0.375323
C64	C	-0.278884	-1.167635	0.124677
C65	C	-0.724284	-1.667592	-0.375308
C66	C	-0.224284	-1.167592	0.124692
C67	C	-0.696995	-1.599742	-0.443034
C68	C	-0.196995	-1.099742	0.056966
C69	C	-0.724307	-1.531935	-0.510775
C70	C	-0.224307	-1.031935	-0.010775
C71	C	-0.778928	-1.396319	-0.646275
C72	C	-0.278928	-0.896319	-0.146275
C73	C	-0.724321	-1.396290	-0.646260
C74	C	-0.224321	-0.896290	-0.146260
C75	C	-0.697009	-1.464102	-0.578513
C76	C	-0.197009	-0.964102	-0.078513
C77	C	-0.642418	-1.464042	-0.578485
C78	C	-0.142418	-0.964042	-0.078485
N79	N	-0.615103	-1.531857	-0.510750
N80	N	-0.115103	-1.031857	-0.010750
C81	C	-0.642392	-1.599707	-0.443024
C82	C	-0.142392	-1.099707	0.056976
C83	C	-0.975493	-1.464281	-0.578564
C84	C	-0.475493	-0.964281	-0.078564
C85	C	-1.030096	-1.464309	-0.578569
C86	C	-0.530096	-0.964309	-0.078569
C87	C	-1.030070	-1.599979	-0.443101
C88	C	-0.530070	-1.099979	0.056899
C89	C	-0.975466	-1.599944	-0.443092
C90	C	-0.475466	-1.099944	0.056908
C91	C	-0.948179	-1.532096	-0.510828
C92	C	-0.448179	-1.032096	-0.010828
C93	C	-0.527727	-1.599611	-0.442997
C94	C	-0.027727	-1.099611	0.057003
C95	C	-0.473122	-1.599560	-0.442984
C96	C	0.026878	-1.099560	0.057016
C97	C	-0.473152	-1.463894	-0.578455
C98	C	0.026848	-0.963894	-0.078455
C99	C	-0.527753	-1.463942	-0.578464
C100	C	-0.027753	-0.963942	-0.078464
C101	C	-0.555039	-1.531809	-0.510731
C102	C	-0.055039	-1.031809	-0.010731
O103	O	-0.614146	-1.406343	-0.636027
O104	O	-0.114146	-0.906343	-0.136027
O105	O	-0.614138	-1.657385	-0.385428
O106	O	-0.114138	-1.157385	0.114572
C107	C	-0.115503	-1.532075	-0.510816
C108	C	0.384497	-1.032075	-0.010816
C109	C	-0.057389	-1.532164	-0.510846
C110	C	0.442611	-1.032164	-0.010846
C111	C	-0.251889	-1.808372	-0.510775
C112	C	0.248111	-1.308372	-0.010775
C113	C	-0.251895	-1.926203	-0.510788
C114	C	0.248105	-1.426203	-0.010788
C115	C	-0.211295	-0.971047	-0.429281
C116	C	0.288705	-0.471047	0.070719
C117	C	-0.211400	-1.093606	-0.428922
C118	C	0.288600	-0.593606	0.071078
C119	C	-0.306949	-1.094046	-0.480197
C120	C	0.193051	-0.594046	0.019803
C121	C	-0.306727	-0.971448	-0.479641
C122	C	0.193273	-0.471448	0.020359
C123	C	-0.237893	-0.971468	-0.623013
C124	C	0.262107	-0.471468	-0.123013
C125	C	-0.236663	-1.094075	-0.622389
C126	C	0.263337	-0.594075	-0.122389
C127	C	-0.292026	-1.449747	-1.072613
C128	C	0.207974	-0.949747	-0.572613
C129	C	-0.292225	-1.449962	-0.950053
C130	C	0.207775	-0.949962	-0.450053
C131	C	-0.266773	-1.643667	-0.949595
C132	C	0.233227	-1.143667	-0.449595
C133	C	-0.267025	-1.643216	-1.072194
C134	C	0.232975	-1.143216	-0.572194
C135	C	-0.196432	-1.503578	-1.072291
C136	C	0.303568	-1.003578	-0.572291
C137	C	-0.196764	-1.501086	-0.949684
C138	C	0.303236	-1.001086	-0.449684
C139	C	-0.251879	-1.531850	-0.235314
C140	C	0.248121	-1.031850	0.264686
C141	C	-0.251749	-1.532023	-0.117485
C142	C	0.248251	-1.032023	0.382515
H143	H	-0.450886	-1.654780	-0.387812
H144	H	0.049114	-1.154780	0.112188
H145	H	-0.238962	-1.706594	-1.101879
H146	H	0.261038	-1.206594	-0.601879
H147	H	-0.182801	-1.423555	-1.103198
H148	H	0.317199	-0.923555	-0.603198
H149	H	-0.185486	-1.418894	-0.920588
H150	H	0.314514	-0.918894	-0.420588
Br151	Br	-0.143327	-1.143833	-0.460816
Br152	Br	0.356673	-0.643833	0.039184
H153	H	-0.165168	-1.556637	-0.919071
H154	H	0.334832	-1.056637	-0.419071
Br155	Br	-1.067115	-1.692057	-0.351182
Br156	Br	-0.567115	-1.192057	0.148818
Br157	Br	-0.226535	-0.919597	-0.291489
Br158	Br	0.273465	-0.419597	0.208511
Br159	Br	-0.276624	-1.311921	-0.899878
Br160	Br	0.223376	-0.811921	-0.399878
H161	H	-1.052328	-1.409080	-0.633725
H162	H	-0.552328	-0.909080	-0.133725
Br163	Br	-0.815909	-1.759732	-0.283399
Br164	Br	-0.315909	-1.259732	0.216601
Br165	Br	-0.327082	-1.145120	-0.344922
Br166	Br	0.172918	-0.645120	0.155078
H167	H	-0.306787	-1.668196	-0.918897
H168	H	0.193213	-1.168196	-0.418897
Br169	Br	-0.287179	-0.923134	-0.724235
Br170	Br	0.212821	-0.423134	-0.224235
H171	H	-0.220654	-1.122877	-0.345759
H172	H	0.279346	-0.622877	0.154241
Br173	Br	-0.938406	-1.691976	-0.351145
Br174	Br	-0.438406	-1.191976	0.148855
H175	H	-0.450925	-1.408649	-0.633594
H176	H	0.049075	-0.908649	-0.133594
Br177	Br	-0.276577	-1.311286	-1.121727
Br178	Br	0.223423	-0.811286	-0.621727
Br179	Br	-0.815980	-1.304294	-0.738236
Br180	Br	-0.315980	-0.804294	-0.238236
Br181	Br	-0.143013	-0.921993	-0.460830
Br182	Br	0.356987	-0.421993	0.039170
H183	H	-0.318601	-0.942793	-0.397599
H184	H	0.181399	-0.442793	0.102401
H185	H	-0.332779	-1.468338	-1.103422
H186	H	0.167221	-0.968338	-0.603422
H187	H	-0.953278	-1.409021	-0.633720
H188	H	-0.453278	-0.909021	-0.133720
Br189	Br	-0.358853	-0.921993	-0.574265
Br190	Br	0.141147	-0.421993	-0.074265
H191	H	-0.166423	-1.563505	-1.101312
H192	H	0.333577	-1.063505	-0.601312
H193	H	-0.702106	-1.341041	-0.701423
H194	H	-0.202106	-0.841041	-0.201423
H195	H	-0.549937	-1.654878	-0.387844
H196	H	-0.049937	-1.154878	0.112156
H197	H	-0.198432	-0.940601	-0.650774
H198	H	0.301568	-0.440601	-0.150774
H199	H	-0.333234	-1.468736	-0.920729
H200	H	0.166766	-0.968736	-0.420729
Br201	Br	-0.687226	-1.759643	-0.283376
Br202	Br	-0.187226	-1.259643	0.216624
H203	H	-0.264076	-1.124713	-0.686368
H204	H	0.235924	-0.624713	-0.186368
Br205	Br	-0.334423	-1.683409	-1.119870
Br206	Br	0.165577	-1.183409	-0.619870
Br207	Br	-0.219424	-1.748583	-0.901055
Br208	Br	0.280576	-1.248583	-0.401055
Br209	Br	-0.169113	-1.142651	-0.660774
Br210	Br	0.330887	-0.642651	-0.160774
H211	H	-0.549991	-1.408727	-0.633633
H212	H	-0.049991	-0.908727	-0.133633
Br213	Br	-0.358716	-1.142605	-0.576046
Br214	Br	0.141284	-0.642605	-0.076046
