data_functionalizedCrystal
_audit_creation_method	'MofGen! by Chris Wilmer'
_symmetry_space_group_name_H-M	'P1'
_symmetry_Int_Tables_number	1
_symmetry_cell_setting	triclinic
loop_
_symmetry_equiv_pos_as_xyz
  x,y,z
_cell_length_a	19.805407
_cell_length_b	16.625546
_cell_length_c	19.805398
_cell_angle_alpha	89.973797
_cell_angle_beta	89.984135
_cell_angle_gamma	90.022468
loop_
_atom_site_label
_atom_site_type_symbol
_atom_site_fract_x
_atom_site_fract_y
_atom_site_fract_z
Zn1	Zn	1.034729	-0.321034	-0.382718
Zn2	Zn	1.534729	0.178966	0.117282
Zn3	Zn	1.034659	-0.455867	-0.269529
Zn4	Zn	1.534659	0.044133	0.230471
Zn5	Zn	0.921551	-0.321052	-0.269543
Zn6	Zn	1.421551	0.178948	0.230457
Zn7	Zn	0.921515	-0.455828	-0.382676
Zn8	Zn	1.421515	0.044172	0.117324
O9	O	0.978114	-0.388445	-0.326117
O10	O	1.478114	0.111555	0.173883
O11	O	1.129437	-0.338928	-0.367716
O12	O	1.629437	0.161072	0.132284
O13	O	1.019641	-0.438007	-0.174815
O14	O	1.519641	0.061993	0.325185
O15	O	0.936609	-0.208217	-0.284579
O16	O	1.436609	0.291783	0.215421
O17	O	1.129385	-0.437990	-0.284556
O18	O	1.629385	0.062010	0.215444
O19	O	1.019761	-0.208204	-0.367729
O20	O	1.519761	0.291796	0.132271
O21	O	0.936541	-0.338959	-0.174825
O22	O	1.436541	0.161041	0.325175
O23	O	0.826830	-0.338922	-0.284538
O24	O	1.326830	0.161078	0.215462
O25	O	0.936548	-0.437923	-0.477398
O26	O	1.436548	0.062077	0.022602
O27	O	0.826804	-0.437941	-0.367657
O28	O	1.326804	0.062059	0.132343
O29	O	1.019726	-0.338890	-0.477429
O30	O	1.519726	0.161110	0.022571
O31	O	1.019606	-0.568694	-0.284515
O32	O	1.519606	-0.068694	0.215485
O33	O	0.936480	-0.568665	-0.367644
O34	O	1.436480	-0.068665	0.132356
C35	C	0.802258	-0.388430	-0.326095
C36	C	1.302258	0.111570	0.173905
C37	C	0.727026	-0.388442	-0.326102
C38	C	1.227026	0.111558	0.173898
C39	C	0.691686	-0.440079	-0.369311
C40	C	1.191686	0.059921	0.130689
C41	C	0.620997	-0.440081	-0.369321
C42	C	1.120997	0.059919	0.130679
C43	C	0.585650	-0.388449	-0.326117
C44	C	1.085650	0.111551	0.173883
C45	C	0.620995	-0.336806	-0.282905
C46	C	1.120995	0.163194	0.217095
C47	C	0.691683	-0.336801	-0.282899
C48	C	1.191683	0.163199	0.217101
C49	C	0.335922	-0.336824	-0.282927
C50	C	0.835922	0.163176	0.217073
C51	C	0.265230	-0.336834	-0.282935
C52	C	0.765230	0.163166	0.217065
C53	C	0.265237	-0.440104	-0.369349
C54	C	0.765237	0.059896	0.130651
C55	C	0.335924	-0.440099	-0.369343
C56	C	0.835924	0.059901	0.130657
C57	C	0.371263	-0.388453	-0.326134
C58	C	0.871263	0.111547	0.173866
C59	C	0.447911	-0.388451	-0.326125
C60	C	0.947911	0.111549	0.173875
C61	C	0.509003	-0.388454	-0.326122
C62	C	1.009003	0.111546	0.173878
C63	C	0.978050	-0.597936	-0.326088
C64	C	1.478050	-0.097936	0.173912
C65	C	0.978084	-0.687557	-0.326099
C66	C	1.478084	-0.187557	0.173901
C67	C	0.978202	-1.015733	-0.326169
C68	C	1.478202	-0.515733	0.173831
C69	C	0.978167	-0.924424	-0.326152
C70	C	1.478167	-0.424424	0.173848
C71	C	0.978143	-0.851648	-0.326134
C72	C	1.478143	-0.351648	0.173866
C73	C	0.978109	-0.760333	-0.326117
C74	C	1.478109	-0.260333	0.173883
C75	C	1.154657	-0.388461	-0.326139
C76	C	1.654657	0.111539	0.173861
C77	C	1.229889	-0.388468	-0.326149
C78	C	1.729889	0.111532	0.173851
C79	C	0.978140	-0.388400	-0.502660
C80	C	1.478140	0.111600	-0.002660
C81	C	0.978152	-0.388381	-0.577892
C82	C	1.478152	0.111619	-0.077892
C83	C	0.978197	-0.178136	-0.326160
C84	C	1.478197	0.321864	0.173840
C85	C	0.978232	-0.088515	-0.326178
C86	C	1.478232	0.411485	0.173822
C87	C	1.021544	-0.336672	-1.039700
C88	C	1.521544	0.163328	-0.539700
C89	C	1.021533	-0.336697	-0.969012
C90	C	1.521533	0.163303	-0.469012
C91	C	0.978221	-0.388269	-0.933653
C92	C	1.478221	0.111731	-0.433653
C93	C	0.934921	-0.439826	-0.968988
C94	C	1.434921	0.060174	-0.468988
C95	C	0.934936	-0.439805	-1.039675
C96	C	1.434936	0.060195	-0.539675
C97	C	0.934863	-0.439913	-0.683914
C98	C	1.434863	0.060087	-0.183914
C99	C	0.934850	-0.439929	-0.613222
C100	C	1.434850	0.060071	-0.113222
C101	C	1.021460	-0.336806	-0.613251
C102	C	1.521460	0.163194	-0.113251
C103	C	1.021475	-0.336784	-0.683938
C104	C	1.521475	0.163216	-0.183938
C105	C	0.978178	-0.388344	-0.719266
C106	C	1.478178	0.111656	-0.219266
C107	C	0.978191	-0.388317	-0.795914
C108	C	1.478191	0.111683	-0.295914
C109	C	0.978204	-0.388292	-0.857006
C110	C	1.478204	0.111708	-0.357006
C111	C	0.978126	-0.388431	-0.150261
C112	C	1.478126	0.111569	0.349739
C113	C	0.978246	-0.388223	-0.075029
C114	C	1.478246	0.111777	0.424971
H115	H	0.592210	-0.294763	-0.247730
H116	H	1.092210	0.205237	0.252270
H117	H	1.056741	-0.294786	-0.712723
H118	H	1.556741	0.205214	-0.212723
H119	H	0.720456	-0.294749	-0.247717
H120	H	1.220456	0.205251	0.252283
H121	H	1.056810	-0.294671	-1.068483
H122	H	1.556810	0.205329	-0.568483
H123	H	1.056716	-0.294826	-0.584478
H124	H	1.556716	0.205174	-0.084478
H125	H	0.720460	-0.482127	-0.404491
H126	H	1.220460	0.017873	0.095509
H127	H	0.364700	-0.482146	-0.404522
H128	H	0.864700	0.017854	0.095478
H129	H	0.592226	-0.482130	-0.404506
H130	H	1.092226	0.017870	0.095494
H131	H	1.056793	-0.294721	-0.940250
H132	H	1.556793	0.205279	-0.440250
H133	H	0.899659	-0.481821	-0.940193
H134	H	1.399659	0.018179	-0.440193
H135	H	0.899575	-0.481925	-0.584435
H136	H	1.399575	0.018075	-0.084435
H137	H	0.899679	-0.481784	-1.068439
H138	H	1.399679	0.018216	-0.568439
H139	H	0.236455	-0.482153	-0.404534
H140	H	0.736455	0.017847	0.095466
H141	H	0.899607	-0.481895	-0.712670
H142	H	1.399607	0.018105	-0.212670
H143	H	0.236453	-0.294784	-0.247753
H144	H	0.736453	0.205216	0.252247
H145	H	0.364687	-0.294777	-0.247739
H146	H	0.864687	0.205223	0.252261
