data_functionalizedCrystal
_audit_creation_method	'MofGen! by Chris Wilmer'
_symmetry_space_group_name_H-M	'P1'
_symmetry_Int_Tables_number	1
_symmetry_cell_setting	triclinic
loop_
_symmetry_equiv_pos_as_xyz
  x,y,z
_cell_length_a	13.897448
_cell_length_b	12.759395
_cell_length_c	13.897441
_cell_angle_alpha	89.980870
_cell_angle_beta	90.029627
_cell_angle_gamma	89.981744
loop_
_atom_site_label
_atom_site_type_symbol
_atom_site_fract_x
_atom_site_fract_y
_atom_site_fract_z
Zn1	Zn	-0.383979	-1.606214	0.545395
Zn2	Zn	-0.545298	-1.606105	0.384096
Zn3	Zn	-0.384020	-1.430522	0.384112
Zn4	Zn	-0.545235	-1.430496	0.545347
O5	O	-0.464633	-1.518334	0.464738
O6	O	-0.405387	-1.753221	0.524012
O7	O	-0.523947	-1.582779	0.249117
O8	O	-0.249033	-1.453885	0.405533
O9	O	-0.523908	-1.753141	0.405506
O10	O	-0.249003	-1.582965	0.524027
O11	O	-0.405457	-1.453779	0.249128
O12	O	-0.405397	-1.283497	0.405487
O13	O	-0.523801	-1.453840	0.680335
O14	O	-0.523841	-1.283478	0.523946
O15	O	-0.405326	-1.582939	0.680370
O16	O	-0.680271	-1.582754	0.405460
O17	O	-0.680225	-1.453734	0.523931
C18	C	-0.464617	-1.245367	0.464713
C19	C	-0.464633	-1.128590	0.464726
C20	C	-0.588169	-1.128608	0.587878
C21	C	-0.649943	-1.073757	0.649455
C22	C	-0.649953	-0.964035	0.649464
C23	C	-0.588180	-0.909163	0.587891
C24	C	-0.526406	-0.964014	0.526313
C25	C	-0.526404	-1.073738	0.526309
C26	C	-0.402867	-0.963996	0.403168
C27	C	-0.402860	-1.073718	0.403153
C28	C	-0.341094	-0.909123	0.341595
C29	C	-0.279323	-0.963975	0.280011
C30	C	-0.279316	-1.073703	0.280004
C31	C	-0.341086	-1.128569	0.341576
C32	C	-0.715247	-1.518258	0.464710
C33	C	-0.822461	-1.518321	0.464730
C34	C	-1.018756	-1.518431	0.464790
C35	C	-0.909524	-1.518367	0.464760
C36	C	-0.213040	-1.518440	0.464787
C37	C	-0.105826	-1.518485	0.464808
C38	C	-0.464552	-1.518399	0.716331
C39	C	-0.464517	-1.518426	0.823545
C40	C	-0.464646	-0.792368	0.464755
C41	C	-0.464641	-0.909144	0.464745
C42	C	-0.464644	-1.518331	0.214123
C43	C	-0.464407	-1.518507	0.106910
C44	C	-0.464490	-1.518448	0.910615
C45	C	-0.464447	-1.518478	1.019847
H46	H	-0.700236	-1.118446	0.699588
C47	C	-0.341078	-1.249260	0.341567
H48	H	-0.295446	-1.274072	0.296073
H49	H	-0.324484	-1.274112	0.403844
H50	H	-0.403305	-1.274054	0.324762
C51	C	-0.211363	-1.134037	0.212272
H52	H	-0.220197	-1.207243	0.221086
H53	H	-0.225388	-1.116020	0.147437
H54	H	-0.146571	-1.116078	0.226522
H55	H	-0.229028	-0.919289	0.229888
C56	C	-0.341108	-0.788433	0.341599
H57	H	-0.386752	-0.763622	0.387082
H58	H	-0.278888	-0.763628	0.358394
H59	H	-0.357713	-0.763590	0.279317
H60	H	-0.588174	-1.217950	0.587870
H61	H	-0.588185	-0.819822	0.587911
C62	C	-0.717860	-0.903696	0.717238
H63	H	-0.754639	-0.952086	0.753917
H64	H	-0.680979	-0.860943	0.759319
H65	H	-0.759859	-0.860845	0.680296
