data_functionalizedCrystal
_audit_creation_method	'MofGen! by Chris Wilmer'
_symmetry_space_group_name_H-M	'P1'
_symmetry_Int_Tables_number	1
_symmetry_cell_setting	triclinic
loop_
_symmetry_equiv_pos_as_xyz
  x,y,z
_cell_length_a	10.686285
_cell_length_b	11.169417
_cell_length_c	11.169417
_cell_angle_alpha	89.997314
_cell_angle_beta	94.374231
_cell_angle_gamma	94.370078
loop_
_atom_site_label
_atom_site_type_symbol
_atom_site_fract_x
_atom_site_fract_y
_atom_site_fract_z
Zn1	Zn	-0.502602	-1.871448	0.641990
Zn2	Zn	-0.713557	-1.886813	0.425941
Zn3	Zn	-0.502578	-1.670799	0.441320
Zn4	Zn	-0.713536	-1.686149	0.626581
O5	O	-0.608069	-1.778802	0.533958
O6	O	-0.530605	-2.041437	0.613343
O7	O	-0.685570	-1.858164	0.260031
O8	O	-0.326010	-1.684562	0.480824
O9	O	-0.685593	-2.052725	0.454613
O10	O	-0.326027	-1.831978	0.628256
O11	O	-0.530564	-1.699460	0.271330
O12	O	-0.530543	-1.504884	0.465883
O13	O	-0.685556	-1.710723	0.796574
O14	O	-0.685533	-1.516161	0.601993
O15	O	-0.530584	-1.846862	0.807896
O16	O	-0.890126	-1.873048	0.439671
O17	O	-0.890111	-1.725621	0.587080
C18	C	-0.608034	-1.466975	0.533935
C19	C	-0.608050	-1.333576	0.533951
C20	C	-0.935902	-1.802700	0.510061
C21	C	-1.076150	-1.813033	0.499878
C22	C	-0.278955	-1.754844	0.557974
C23	C	-0.138707	-1.744634	0.568209
C24	C	-0.608071	-1.778791	0.847000
C25	C	-0.608071	-1.778786	0.980400
C26	C	-0.608092	-1.091846	0.533974
C27	C	-0.608070	-1.225244	0.533963
C28	C	-0.608090	-1.778801	1.222132
C29	C	-0.608073	-1.778789	1.088733
H30	H	-1.129893	-1.879493	0.433572
H31	H	-1.084971	-1.678170	0.634503
