data_functionalizedCrystal
_audit_creation_method	'MofGen! by Chris Wilmer'
_symmetry_space_group_name_H-M	'P1'
_symmetry_Int_Tables_number	1
_symmetry_cell_setting	triclinic
loop_
_symmetry_equiv_pos_as_xyz
  x,y,z
_cell_length_a	10.654562
_cell_length_b	15.944493
_cell_length_c	9.730223
_cell_angle_alpha	89.996907
_cell_angle_beta	90.005820
_cell_angle_gamma	83.982574
loop_
_atom_site_label
_atom_site_type_symbol
_atom_site_fract_x
_atom_site_fract_y
_atom_site_fract_z
O1	O	1.666266	0.118028	0.114360
O2	O	1.300641	0.129257	0.114342
O3	O	1.493475	0.001423	0.114363
O4	O	1.473431	0.245862	0.114339
O5	O	1.493464	0.001423	-0.114217
O6	O	1.300629	0.129258	-0.114238
O7	O	1.666254	0.118028	-0.114219
Zn8	Zn	1.483439	0.123643	-0.150521
Zn9	Zn	1.483455	0.123643	0.150643
O10	O	1.473419	0.245863	-0.114241
C11	C	1.253848	0.128431	0.000049
C12	C	1.114438	0.125957	0.000043
C13	C	1.048916	0.124804	-0.124545
C14	C	0.917925	0.122486	-0.124522
C15	C	0.917988	0.122480	0.124689
C16	C	1.048978	0.124791	0.124664
C17	C	1.048878	0.124811	-0.268425
C18	C	0.917886	0.122494	-0.268402
C19	C	1.492650	-0.029877	0.000079
C20	C	1.490194	-0.123140	0.000096
C21	C	1.603701	-0.358239	0.000076
C22	C	1.542497	-0.409163	0.112774
C23	C	1.485643	-0.293887	0.000079
C24	C	1.542458	-0.409139	-0.112588
C25	C	1.481256	-0.458822	0.000057
C26	C	1.424471	-0.343583	0.112870
C27	C	1.424449	-0.343555	-0.112593
C28	C	1.363158	-0.394447	0.000132
C29	C	1.488174	-0.198872	0.000093
C30	C	1.478715	-0.553834	0.000052
C31	C	1.713047	0.118855	0.000076
C32	C	1.852456	0.121328	0.000091
C33	C	1.474244	0.277162	0.000046
C34	C	1.476700	0.370425	0.000038
N35	N	1.483438	0.123643	-0.356057
C36	C	1.568862	0.067052	-0.571858
C37	C	1.568851	0.067057	-0.427975
C38	C	1.398038	0.180233	-0.428030
C39	C	1.398056	0.180232	-0.571910
C40	C	1.667477	0.001708	-0.571825
C41	C	1.667466	0.001713	-0.427942
N42	N	1.483467	0.123636	0.356179
H43	H	0.889107	0.061234	-0.313041
H44	H	1.328531	0.226314	-0.630501
H45	H	1.102324	0.125717	0.226116
F46	F	0.848311	0.121230	0.257312
H47	H	1.646863	-0.062850	-0.388890
H48	H	1.705393	-0.342019	0.000195
H49	H	1.077638	0.186072	-0.313074
F50	F	1.607669	-0.446621	0.237316
H51	H	1.095904	0.066761	-0.323672
H52	H	1.592335	-0.437780	-0.207859
F53	F	1.307143	0.240464	-0.351487
H54	H	1.261387	-0.410506	0.000189
H55	H	0.870828	0.180545	-0.323643
F56	F	1.359351	-0.306063	-0.237143
H57	H	1.763805	0.016095	-0.610847
F58	F	1.628639	-0.078027	-0.630165
H59	H	1.374646	-0.315053	0.208249
F60	F	1.786289	0.028459	-0.369581
