data_functionalizedCrystal
_audit_creation_method	'MofGen! by Chris Wilmer'
_symmetry_space_group_name_H-M	'P1'
_symmetry_Int_Tables_number	1
_symmetry_cell_setting	triclinic
loop_
_symmetry_equiv_pos_as_xyz
  x,y,z
_cell_length_a	14.971486
_cell_length_b	14.519709
_cell_length_c	14.048226
_cell_angle_alpha	89.992623
_cell_angle_beta	89.998499
_cell_angle_gamma	83.647137
loop_
_atom_site_label
_atom_site_type_symbol
_atom_site_fract_x
_atom_site_fract_y
_atom_site_fract_z
O1	O	1.187015	0.120184	-0.079053
O2	O	1.687015	0.620184	0.420947
O3	O	0.926623	0.134576	-0.079079
O4	O	1.426623	0.634576	0.420921
O5	O	1.063722	-0.006863	-0.079057
O6	O	1.563722	0.493137	0.420943
O7	O	1.049915	0.261622	-0.079076
O8	O	1.549915	0.761622	0.420924
O9	O	1.063706	-0.006871	0.079264
O10	O	1.563706	0.493129	0.579264
O11	O	0.926606	0.134568	0.079242
O12	O	1.426606	0.634568	0.579242
O13	O	1.186998	0.120175	0.079268
O14	O	1.686998	0.620175	0.579268
Zn15	Zn	1.056799	0.127370	0.104392
Zn16	Zn	1.556799	0.627370	0.604392
Zn17	Zn	1.056821	0.127381	-0.104203
Zn18	Zn	1.556821	0.627381	0.395797
O19	O	1.049898	0.261614	0.079246
O20	O	1.549898	0.761614	0.579246
C21	C	0.893289	0.133928	0.000078
C22	C	1.393289	0.633928	0.500078
C23	C	0.793991	0.131999	0.000068
C24	C	1.293991	0.631999	0.500068
C25	C	1.063071	-0.041226	0.000104
C26	C	1.563071	0.458774	0.500104
C27	C	1.061142	-0.143606	0.000104
C28	C	1.561142	0.356394	0.500104
C29	C	0.736812	0.215091	0.000064
C30	C	1.236812	0.715091	0.500064
C31	C	0.643512	0.213273	0.000078
C32	C	1.143512	0.713273	0.500078
C33	C	0.607392	0.128363	0.000090
C34	C	1.107392	0.628363	0.500090
C35	C	0.664578	0.045265	0.000097
C36	C	1.164578	0.545265	0.500097
C37	C	0.757876	0.047084	0.000090
C38	C	1.257876	0.547084	0.500090
C39	C	0.470113	0.041480	0.000111
C40	C	0.970113	0.541480	0.500111
C41	C	0.376808	0.039661	0.000116
C42	C	0.876808	0.539661	0.500116
C43	C	0.355749	0.207669	0.000099
C44	C	0.855749	0.707669	0.500099
C45	C	0.449047	0.209488	0.000092
C46	C	0.949047	0.709488	0.500092
C47	C	0.506227	0.126390	0.000097
C48	C	1.006227	0.626390	0.500097
C49	C	1.054043	-0.518498	0.000079
C50	C	1.554043	-0.018498	0.500079
C51	C	1.056015	-0.414191	0.000086
C52	C	1.556015	0.085809	0.500086
C53	C	1.057593	-0.331055	0.000092
C54	C	1.557593	0.168945	0.500092
C55	C	1.059564	-0.226742	0.000098
C56	C	1.559564	0.273258	0.500098
C57	C	1.220331	0.120823	0.000109
C58	C	1.720331	0.620823	0.500109
C59	C	1.319630	0.122752	0.000112
C60	C	1.819630	0.622752	0.500112
C61	C	1.050550	0.295978	0.000083
C62	C	1.550550	0.795978	0.500083
C63	C	1.052478	0.398358	0.000076
C64	C	1.552478	0.898358	0.500076
N65	N	1.056791	0.127362	0.246753
N66	N	1.556791	0.627362	0.746753
N67	N	1.056837	0.127382	-0.246564
N68	N	1.556837	0.627382	0.253436
C69	C	1.117518	0.064759	0.296581
C70	C	1.617518	0.564759	0.796581
C71	C	1.117524	0.064758	0.396238
C72	C	1.617524	0.564758	0.896238
C73	C	1.056807	0.127366	0.446066
C74	C	1.556807	0.627366	0.946066
C75	C	0.996073	0.189972	0.396231
C76	C	1.496073	0.689972	0.896231
C77	C	0.996064	0.189968	0.296575
C78	C	1.496064	0.689968	0.796575
C79	C	0.996099	0.189979	0.603945
C80	C	1.496099	0.689979	1.103945
C81	C	0.996110	0.189985	0.703608
C82	C	1.496110	0.689985	1.203608
C83	C	1.117560	0.064770	0.703608
C84	C	1.617560	0.564770	1.203608
C85	C	1.117550	0.064765	0.603952
C86	C	1.617550	0.564765	1.103952
C87	C	1.056817	0.127373	0.554124
C88	C	1.556817	0.627373	1.054124
H89	H	0.766213	0.284234	0.000054
H90	H	1.266213	0.784234	0.500054
H91	H	0.478453	0.278629	0.000073
H92	H	0.978453	0.778629	0.500073
O93	O	1.183075	-0.002754	0.757340
O94	O	1.683075	0.497246	1.257340
H95	H	1.171583	-0.074671	0.738219
H96	H	1.671583	0.425329	1.238219
H97	H	0.635162	-0.023871	0.000121
H98	H	1.135162	0.476129	0.500121
O99	O	0.337852	-0.051922	0.000147
O100	O	0.837852	0.448078	0.500147
H101	H	0.263369	-0.039222	0.000144
H102	H	0.763369	0.460778	0.500144
H103	H	0.309188	0.275331	0.000099
H104	H	0.809188	0.775331	0.500099
O105	O	0.819548	-0.042540	0.000100
O106	O	1.319548	0.457460	0.500100
H107	H	0.890492	-0.027011	0.000106
H108	H	1.390492	0.472989	0.500106
H109	H	0.946666	0.240966	0.744173
H110	H	1.446666	0.740966	1.244173
O111	O	1.182988	-0.002785	0.242835
O112	O	1.682988	0.497215	0.742835
H113	H	1.226524	0.036093	0.197413
H114	H	1.726524	0.536093	0.697413
O115	O	0.930589	0.257503	0.449975
O116	O	1.430589	0.757503	0.949975
H117	H	0.942095	0.329413	0.430821
H118	H	1.442095	0.829413	0.930821
O119	O	1.183038	-0.002746	0.449985
O120	O	1.683038	0.497254	0.949985
H121	H	1.225270	-0.046268	0.398594
H122	H	1.725270	0.453732	0.898594
O123	O	0.531791	-0.048145	0.000112
O124	O	1.031791	0.451855	0.500112
H125	H	0.491002	-0.107495	0.000110
H126	H	0.991002	0.392505	0.500110
O127	O	0.581842	0.302895	0.000068
O128	O	1.081842	0.802895	0.500068
H129	H	0.538843	0.306089	0.064607
H130	H	1.038843	0.806089	0.564607
O131	O	0.930549	0.257478	0.242833
O132	O	1.430549	0.757478	0.742833
H133	H	0.940730	0.246945	0.165165
H134	H	1.440730	0.746945	0.665165
O135	O	1.183033	-0.002762	0.550203
O136	O	1.683033	0.497238	1.050203
H137	H	1.225259	-0.046304	0.601592
H138	H	1.725259	0.453696	1.101592
H139	H	0.946641	0.240958	0.563379
H140	H	1.446641	0.740958	1.063379
