data_functionalizedCrystal
_audit_creation_method	'MofGen! by Chris Wilmer'
_symmetry_space_group_name_H-M	'P1'
_symmetry_Int_Tables_number	1
_symmetry_cell_setting	triclinic
loop_
_symmetry_equiv_pos_as_xyz
  x,y,z
_cell_length_a	19.805407
_cell_length_b	15.297327
_cell_length_c	19.805398
_cell_angle_alpha	99.650424
_cell_angle_beta	89.984135
_cell_angle_gamma	99.707092
loop_
_atom_site_label
_atom_site_type_symbol
_atom_site_fract_x
_atom_site_fract_y
_atom_site_fract_z
Zn1	Zn	0.988068	-0.359206	-0.429338
Zn2	Zn	0.968400	-0.510071	-0.335730
Zn3	Zn	0.874887	-0.359226	-0.316166
Zn4	Zn	0.855262	-0.510028	-0.448871
O5	O	0.921654	-0.434633	-0.382526
O6	O	1.080174	-0.379228	-0.416934
O7	O	0.955978	-0.490088	-0.238421
O8	O	0.906345	-0.232975	-0.314816
O9	O	1.065724	-0.490068	-0.348160
O10	O	0.989499	-0.232960	-0.397964
O11	O	0.887274	-0.379263	-0.224048
O12	O	0.777568	-0.379221	-0.333756
O13	O	0.872896	-0.489994	-0.540993
O14	O	0.763150	-0.490014	-0.431254
O15	O	0.970469	-0.379186	-0.526643
O16	O	0.936948	-0.636314	-0.367100
O17	O	0.853825	-0.636282	-0.450225
C18	C	0.745800	-0.434616	-0.382502
C19	C	0.670567	-0.434630	-0.382511
C20	C	0.627721	-0.492407	-0.433219
C21	C	0.557032	-0.492408	-0.433229
C22	C	0.529190	-0.434637	-0.382527
C23	C	0.572041	-0.376854	-0.331816
C24	C	0.642729	-0.376848	-0.331809
C25	C	0.286965	-0.376874	-0.331840
C26	C	0.216272	-0.376886	-0.331850
C27	C	0.201269	-0.492434	-0.433260
C28	C	0.271956	-0.492428	-0.433254
C29	C	0.314802	-0.434642	-0.382545
C30	C	0.391451	-0.434640	-0.382536
C31	C	0.452542	-0.434643	-0.382532
C32	C	0.891141	-0.669033	-0.412920
C33	C	0.878149	-0.769311	-0.425945
C34	C	1.014787	-1.051917	-0.289664
C35	C	1.026993	-0.957702	-0.277423
C36	C	0.989783	-0.910599	-0.314553
C37	C	0.940365	-0.957722	-0.363925
C38	C	0.928154	-1.051947	-0.376164
C39	C	0.903151	-0.910629	-0.401052
C40	C	0.853732	-0.957751	-0.450425
C41	C	0.841524	-1.051967	-0.462662
C42	C	0.878733	-1.099069	-0.425532
C43	C	0.915362	-0.816404	-0.388814
C44	C	0.828729	-0.816433	-0.475313
C45	C	0.816523	-0.910649	-0.487554
C46	C	1.098195	-0.434651	-0.382551
C47	C	1.173426	-0.434659	-0.382561
C48	C	0.921687	-0.434583	-0.559062
C49	C	0.921701	-0.434562	-0.634292
C50	C	0.952305	-0.199317	-0.352029
C51	C	0.965366	-0.099040	-0.339032
C52	C	0.972609	-0.376704	-1.088591
C53	C	0.972595	-0.376732	-1.017906
C54	C	0.921787	-0.434436	-0.990037
C55	C	0.870994	-0.492123	-1.032859
C56	C	0.871011	-0.492099	-1.103543
C57	C	0.870922	-0.492221	-0.747798
C58	C	0.870907	-0.492238	-0.677108
C59	C	0.972506	-0.376853	-0.662161
C60	C	0.972524	-0.376830	-0.732845
C61	C	0.921733	-0.434520	-0.775661
C62	C	0.921749	-0.434490	-0.852305
C63	C	0.921767	-0.434462	-0.913394
C64	C	0.921669	-0.434618	-0.206668
C65	C	0.921819	-0.434385	-0.131406
H66	H	0.321841	-0.329828	-0.290546
H67	H	1.013864	-0.329882	-0.627293
H68	H	0.829529	-0.539228	-0.654420
H69	H	1.013955	-0.329765	-0.983049
H70	H	1.013980	-0.329708	-1.111275
H71	H	0.829653	-0.539070	-1.138403
O72	O	0.816135	-0.554427	-0.793972
H73	H	0.780798	-0.594543	-0.762714
H74	H	0.868800	-1.175787	-0.435498
H75	H	0.166375	-0.539483	-0.474552
O76	O	0.763220	-0.961475	-0.540803
H77	H	0.712441	-0.943453	-0.526808
O78	O	1.002941	-0.808981	-0.301359
H79	H	1.057210	-0.784067	-0.311853
H80	H	0.801276	-1.090331	-0.502856
O81	O	0.788592	-0.765644	-0.515369
H82	H	0.805391	-0.692211	-0.498570
O83	O	0.542014	-0.314563	-0.277113
H84	H	0.485660	-0.324287	-0.285626
H85	H	1.045074	-1.090277	-0.259435
O86	O	0.816188	-0.554361	-1.002805
H87	H	0.824703	-0.544680	-0.946460
O88	O	1.080296	-0.906876	-0.224182
H89	H	1.104125	-0.955455	-0.200425
H90	H	0.193606	-0.329836	-0.290561
H91	H	0.955598	-0.778045	-0.348614
O92	O	0.657751	-0.554714	-0.487908
H93	H	0.616080	-0.594882	-0.523174
O94	O	0.510795	-0.554897	-0.487813
H95	H	0.542022	-0.595138	-0.523024
H96	H	1.013895	-0.329837	-0.755531
H97	H	0.677615	-0.329796	-0.290520
O98	O	0.301989	-0.554733	-0.487942
H99	H	0.260320	-0.594903	-0.523210
