data_functionalizedCrystal
_audit_creation_method	'MofGen! by Chris Wilmer'
_symmetry_space_group_name_H-M	'P1'
_symmetry_Int_Tables_number	1
_symmetry_cell_setting	triclinic
loop_
_symmetry_equiv_pos_as_xyz
  x,y,z
_cell_length_a	16.625545
_cell_length_b	21.295419
_cell_length_c	21.295411
_cell_angle_alpha	90.025287
_cell_angle_beta	89.983621
_cell_angle_gamma	89.957883
loop_
_atom_site_label
_atom_site_type_symbol
_atom_site_fract_x
_atom_site_fract_y
_atom_site_fract_z
Zn1	Zn	-0.320737	-0.962377	-0.355947
Zn2	Zn	-0.455553	-0.962289	-0.250682
Zn3	Zn	-0.320777	-0.857100	-0.250690
Zn4	Zn	-0.455571	-0.857079	-0.355912
O5	O	-0.388159	-0.909711	-0.303308
O6	O	-0.338597	-1.050455	-0.341994
O7	O	-0.437684	-0.948307	-0.162594
O8	O	-0.207939	-0.871112	-0.264671
O9	O	-0.437645	-1.050390	-0.264656
O10	O	-0.207910	-0.948458	-0.342002
O11	O	-0.338664	-0.871026	-0.162600
O12	O	-0.338681	-0.769008	-0.264637
O13	O	-0.437675	-0.871075	-0.444006
O14	O	-0.437714	-0.768992	-0.341943
O15	O	-0.338614	-0.948437	-0.444032
O16	O	-0.568388	-0.948286	-0.264623
O17	O	-0.568401	-0.870989	-0.341935
C18	C	-0.388204	-0.746160	-0.303288
C19	C	-0.388243	-0.676192	-0.303294
C20	C	-0.336754	-0.643381	-0.343626
C21	C	-0.336735	-0.577639	-0.343628
C22	C	-0.388219	-0.544709	-0.303304
C23	C	-0.439712	-0.577527	-0.262965
C24	C	-0.439724	-0.643269	-0.262960
N25	N	-0.458771	-0.441438	-0.298388
N26	N	-0.458758	-0.378987	-0.298397
C27	C	-0.388185	-0.346634	-0.303316
N28	N	-0.317626	-0.379092	-0.308238
N29	N	-0.317640	-0.441550	-0.308233
C30	C	-0.388212	-0.473424	-0.303305
C31	C	-0.336672	-0.242538	-0.343651
C32	C	-0.336651	-0.176795	-0.343648
C33	C	-0.439635	-0.176685	-0.262989
C34	C	-0.439648	-0.242427	-0.262988
C35	C	-0.388168	-0.275350	-0.303323
C36	C	-0.597650	-0.909643	-0.303288
C37	C	-0.687271	-0.909671	-0.303301
C38	C	-0.760054	-0.909696	-0.303313
C39	C	-0.851362	-0.909732	-0.303327
C40	C	-0.924139	-0.909765	-0.303335
C41	C	-1.015453	-0.909801	-0.303348
C42	C	-0.177850	-0.909797	-0.303341
C43	C	-0.088229	-0.909834	-0.303356
C44	C	-0.388142	-0.909764	-0.467498
C45	C	-0.388135	-0.909786	-0.537466
C46	C	-0.388125	-0.073902	-0.303325
C47	C	-0.388135	-0.143870	-0.303324
C48	C	-0.336551	-0.950067	-0.570347
C49	C	-0.336516	-0.950066	-0.636090
C50	C	-0.388080	-0.909791	-0.668949
C51	C	-0.439667	-0.869502	-0.636060
C52	C	-0.439694	-0.869500	-0.570319
N53	N	-0.458617	-0.904939	-0.772169
N54	N	-0.458588	-0.904945	-0.834621
C55	C	-0.387998	-0.909795	-0.867024
N56	N	-0.317436	-0.914651	-0.834616
N57	N	-0.317465	-0.914648	-0.772159
C58	C	-0.388055	-0.909789	-0.740234
C59	C	-0.336372	-0.950077	-0.971190
C60	C	-0.336336	-0.950071	-1.036934
C61	C	-0.439493	-0.869511	-1.036903
C62	C	-0.439522	-0.869513	-0.971160
C63	C	-0.387963	-0.909799	-0.938308
C64	C	-0.388118	-0.909695	-0.139756
C65	C	-0.387898	-0.909795	-0.069788
H66	H	-0.294803	-0.550919	-0.376469
Cl67	Cl	-0.271647	-1.000696	-0.677434
H68	H	-0.294567	-0.982870	-0.543603
Cl69	Cl	-0.272034	-0.684767	-0.394331
Cl70	Cl	-0.504431	-0.536131	-0.212270
Cl71	Cl	-0.504549	-0.818857	-0.528981
Cl72	Cl	-0.504456	-0.684518	-0.212252
Cl73	Cl	-0.271912	-0.135547	-0.394353
H74	H	-0.294748	-0.269346	-0.376490
H75	H	-0.481554	-0.149874	-0.230156
H76	H	-0.481579	-0.269142	-0.230148
H77	H	-0.481647	-0.836708	-0.662818
Cl78	Cl	-0.271552	-1.000718	-0.929887
H79	H	-0.294325	-0.982872	-1.063704
Cl80	Cl	-0.504309	-0.818873	-1.078205
Cl81	Cl	-0.504377	-0.818874	-0.929822
