data_functionalizedCrystal
_audit_creation_method	'MofGen! by Chris Wilmer'
_symmetry_space_group_name_H-M	'P1'
_symmetry_Int_Tables_number	1
_symmetry_cell_setting	triclinic
loop_
_symmetry_equiv_pos_as_xyz
  x,y,z
_cell_length_a	23.532407
_cell_length_b	14.971506
_cell_length_c	14.048226
_cell_angle_alpha	89.993237
_cell_angle_beta	89.998899
_cell_angle_gamma	96.764467
loop_
_atom_site_label
_atom_site_type_symbol
_atom_site_fract_x
_atom_site_fract_y
_atom_site_fract_z
O1	O	-0.074271	1.186151	-0.079151
O2	O	0.259062	1.519485	0.254182
O3	O	0.592396	1.852818	0.587516
O4	O	-0.083147	0.925660	-0.079149
O5	O	0.250187	1.258993	0.254184
O6	O	0.583520	1.592326	0.587517
O7	O	0.004189	1.063761	-0.079162
O8	O	0.337522	1.397094	0.254171
O9	O	0.670855	1.730427	0.587504
O10	O	-0.161607	1.048050	-0.079138
O11	O	0.171727	1.381384	0.254195
O12	O	0.505060	1.714717	0.587529
O13	O	0.004194	1.063744	0.079159
O14	O	0.337527	1.397077	0.412492
O15	O	0.670861	1.730411	0.745826
O16	O	-0.083141	0.925643	0.079172
O17	O	0.250192	1.258977	0.412505
O18	O	0.583525	1.592310	0.745839
O19	O	-0.074266	1.186135	0.079170
O20	O	0.259067	1.519468	0.412504
O21	O	0.592401	1.852801	0.745837
Zn22	Zn	-0.078703	1.055886	0.104308
Zn23	Zn	0.254630	1.389220	0.437641
Zn24	Zn	0.587964	1.722553	0.770975
Zn25	Zn	-0.078710	1.055908	-0.104287
Zn26	Zn	0.254624	1.389241	0.229046
Zn27	Zn	0.587957	1.722575	0.562380
O28	O	-0.161601	1.048034	0.079183
O29	O	0.171732	1.381367	0.412517
O30	O	0.505065	1.714701	0.745850
C31	C	-0.082745	0.892331	0.000011
C32	C	0.250588	1.225665	0.333345
C33	C	0.583922	1.558998	0.666678
C34	C	-0.081549	0.793048	0.000011
C35	C	0.251784	1.126381	0.333344
C36	C	0.585117	1.459714	0.666678
C37	C	-0.128294	0.354271	0.000008
C38	C	0.205039	0.687605	0.333341
C39	C	0.538372	1.020938	0.666675
C40	C	-0.129413	0.447560	0.000004
C41	C	0.203920	0.780893	0.333337
C42	C	0.537253	1.114227	0.666671
C43	C	-0.078101	0.505322	0.000001
C44	C	0.255233	0.838655	0.333334
C45	C	0.588566	1.171988	0.666667
C46	C	-0.025665	0.469791	-0.000008
C47	C	0.307668	0.803125	0.333325
C48	C	0.641001	1.136458	0.666658
C49	C	-0.024547	0.376505	-0.000011
C50	C	0.308786	0.709838	0.333322
C51	C	0.642120	1.043171	0.666656
C52	C	-0.028000	0.664230	0.000000
C53	C	0.305333	0.997563	0.333333
C54	C	0.638667	1.330896	0.666667
C55	C	-0.029118	0.757523	0.000005
C56	C	0.304215	1.090856	0.333338
C57	C	0.637549	1.424190	0.666671
C58	C	-0.132867	0.735285	0.000015
C59	C	0.200467	1.068618	0.333349
C60	C	0.533800	1.401952	0.666682
C61	C	-0.131748	0.641998	0.000012
C62	C	0.201585	0.975332	0.333346
C63	C	0.534918	1.308665	0.666679
C64	C	-0.079313	0.606474	0.000005
C65	C	0.254021	0.939808	0.333338
C66	C	0.587354	1.273141	0.666672
C67	C	-0.182822	1.048442	0.000026
C68	C	0.150512	1.381775	0.333359
C69	C	0.483845	1.715109	0.666692
C70	C	-0.246044	1.049645	0.000035
C71	C	0.087289	1.382978	0.333368
C72	C	0.420623	1.716312	0.666701
C73	C	-0.644826	0.975464	-0.000014
C74	C	-0.311493	1.308797	0.333320
C75	C	0.021841	1.642131	0.666653
C76	C	-0.704231	0.976581	-0.000020
C77	C	-0.370898	1.309915	0.333313
C78	C	-0.037564	1.643248	0.666646
O79	O	-0.740678	0.907815	-0.000055
O80	O	-0.407345	1.241148	0.333278
O81	O	-0.074011	1.574481	0.666612
N82	N	-0.727213	1.058682	-0.000020
N83	N	-0.393879	1.392016	0.333314
N84	N	-0.060546	1.725349	0.666647
C85	C	-0.690786	1.139671	-0.000022
C86	C	-0.357452	1.473004	0.333311
C87	C	-0.024119	1.806338	0.666645
O88	O	-0.715788	1.209607	-0.000023
O89	O	-0.382455	1.542940	0.333311
O90	O	-0.049121	1.876274	0.666644
C91	C	-0.631382	1.138553	-0.000022
C92	C	-0.298048	1.471886	0.333311
C93	C	0.035285	1.805219	0.666645
C94	C	-0.608404	1.056447	-0.000013
C95	C	-0.275070	1.389780	0.333320
C96	C	0.058263	1.723113	0.666654
C97	C	-0.621847	0.893364	-0.000006
C98	C	-0.288514	1.226698	0.333327
C99	C	0.044819	1.560031	0.666661
C100	C	-0.562446	0.892247	0.000003
C101	C	-0.229113	1.225581	0.333336
C102	C	0.104220	1.558914	0.666669
C103	C	-0.526024	0.973230	0.000003
C104	C	-0.192691	1.306563	0.333337
C105	C	0.140643	1.639897	0.666670
C106	C	-0.549003	1.055330	-0.000005
C107	C	-0.215669	1.388663	0.333329
C108	C	0.117664	1.721996	0.666662
C109	C	-0.594956	1.219541	-0.000031
C110	C	-0.261623	1.552874	0.333302
C111	C	0.071711	1.886207	0.666636
C112	C	-0.535549	1.218415	-0.000032
C113	C	-0.202215	1.551749	0.333301
C114	C	0.131118	1.885082	0.666635
C115	C	-0.512570	1.136309	-0.000023
C116	C	-0.179237	1.469642	0.333310
C117	C	0.154096	1.802976	0.666644
C118	C	-0.453179	1.135195	0.000004
C119	C	-0.119846	1.468529	0.333338
C120	C	0.213487	1.801862	0.666671
N121	N	-0.430198	1.053094	0.000004
N122	N	-0.096864	1.386428	0.333337
N123	N	0.236469	1.719761	0.666670
C124	C	-0.466620	0.972112	0.000003
C125	C	-0.133287	1.305445	0.333336
C126	C	0.200047	1.638778	0.666670
C127	C	-0.815538	1.142013	-0.000023
C128	C	-0.482205	1.475347	0.333310
C129	C	-0.148872	1.808680	0.666643
C130	C	-0.874941	1.143133	-0.000016
C131	C	-0.541608	1.476466	0.333317
C132	C	-0.208274	1.809799	0.666650
C133	C	-0.888382	0.980042	-0.000017
C134	C	-0.555049	1.313376	0.333317
C135	C	-0.221716	1.646709	0.666650
C136	C	-0.828978	0.978924	-0.000017
C137	C	-0.495645	1.312257	0.333317
C138	C	-0.162312	1.645591	0.666650
C139	C	-0.792557	1.059912	-0.000024
C140	C	-0.459223	1.393246	0.333309
C141	C	-0.125890	1.726579	0.666643
C142	C	-0.341873	0.969772	0.000022
C143	C	-0.008540	1.303105	0.333355
C144	C	0.324793	1.636439	0.666688
C145	C	-0.282466	0.968662	0.000034
C146	C	0.050867	1.301996	0.333367
C147	C	0.384200	1.635329	0.666701
C148	C	-0.269030	1.131752	0.000029
C149	C	0.064303	1.465085	0.333363
C150	C	0.397636	1.798419	0.666696
C151	C	-0.328432	1.132862	0.000022
C152	C	0.004901	1.466196	0.333355
C153	C	0.338235	1.799529	0.666689
C154	C	-0.364852	1.051865	0.000015
C155	C	-0.031519	1.385198	0.333348
C156	C	0.301814	1.718532	0.666682
O157	O	-0.416698	1.203926	0.000035
O158	O	-0.083364	1.537259	0.333369
O159	O	0.249969	1.870592	0.666702
O160	O	-0.441609	0.902187	-0.000009
O161	O	-0.108276	1.235521	0.333325
O162	O	0.225057	1.568854	0.666658
C163	C	0.025409	1.063352	-0.000007
C164	C	0.358742	1.396686	0.333327
C165	C	0.692076	1.730019	0.666660
C166	C	0.088631	1.062149	-0.000022
C167	C	0.421965	1.395483	0.333311
C168	C	0.755298	1.728816	0.666645
C169	C	-0.074668	1.219463	0.000008
C170	C	0.258666	1.552796	0.333341
C171	C	0.591999	1.886130	0.666674
C172	C	-0.075863	1.318747	0.000002
C173	C	0.257470	1.652080	0.333335
C174	C	0.590803	1.985413	0.666669
N175	N	-0.078698	1.055878	0.246669
N176	N	0.254635	1.389211	0.580002
N177	N	0.587969	1.722545	0.913335
N178	N	-0.078710	1.055923	-0.246648
N179	N	0.254623	1.389257	0.086686
N180	N	0.587956	1.722590	0.420019
C181	C	-0.040042	1.117048	0.296481
C182	C	0.293292	1.450381	0.629815
C183	C	0.626625	1.783715	0.963148
C184	C	-0.040041	1.117054	0.396139
C185	C	0.293292	1.450387	0.729472
C186	C	0.626625	1.783721	1.062806
C187	C	-0.078700	1.055894	0.445982
C188	C	0.254633	1.389227	0.779316
C189	C	0.587966	1.722560	1.112649
C190	C	-0.117358	0.994717	0.396163
C191	C	0.215975	1.328051	0.729496
C192	C	0.549308	1.661384	1.062830
C193	C	-0.117356	0.994708	0.296507
C194	C	0.215978	1.328041	0.629840
C195	C	0.549311	1.661374	0.963174
C196	C	-0.117363	0.994743	0.603877
C197	C	0.215971	1.328076	0.937211
C198	C	0.549304	1.661410	1.270544
C199	C	-0.117366	0.994753	0.703540
C200	C	0.215967	1.328087	1.036873
C201	C	0.549300	1.661420	1.370207
C202	C	-0.040048	1.117090	0.703509
C203	C	0.293285	1.450423	1.036842
C204	C	0.626618	1.783756	1.370176
C205	C	-0.040046	1.117080	0.603853
C206	C	0.293288	1.450413	0.937186
C207	C	0.626621	1.783747	1.270520
C208	C	-0.078704	1.055904	0.554041
C209	C	0.254629	1.389238	0.887374
C210	C	0.587962	1.722571	1.220707
H211	H	-0.263761	0.901799	0.000046
H212	H	0.069572	1.235132	0.333379
H213	H	0.402905	1.568465	0.666712
H214	H	-0.148846	0.944949	0.744117
H215	H	0.184487	1.278283	1.077451
H216	H	0.517821	1.611616	1.410784
H217	H	0.014699	0.635310	-0.000010
H218	H	0.348032	0.968643	0.333323
H219	H	0.681365	1.301977	0.666656
Cl220	Cl	0.035390	0.830137	-0.000007
Cl221	Cl	0.368724	1.163471	0.333326
Cl222	Cl	0.702057	1.496804	0.666659
H223	H	-0.371520	0.903816	0.000016
H224	H	-0.038187	1.237150	0.333349
H225	H	0.295146	1.570483	0.666682
Cl226	Cl	-0.195330	0.492215	0.000007
Cl227	Cl	0.138003	0.825548	0.333340
Cl228	Cl	0.471337	1.158882	0.666673
H229	H	-0.008569	1.166885	0.563271
H230	H	0.324764	1.500219	0.896604
H231	H	0.658097	1.833552	1.229937
Cl232	Cl	-0.192806	0.281665	0.000020
Cl233	Cl	0.140527	0.614998	0.333353
Cl234	Cl	0.473860	0.948331	0.666686
Cl235	Cl	-0.667626	0.791543	-0.000008
Cl236	Cl	-0.334292	1.124876	0.333325
Cl237	Cl	-0.000959	1.458210	0.666659
Cl238	Cl	-0.165952	0.917801	0.233887
Cl239	Cl	0.167381	1.251135	0.567220
Cl240	Cl	0.500714	1.584468	0.900553
Cl241	Cl	-0.198785	0.779943	0.000035
Cl242	Cl	0.134548	1.113276	0.333368
Cl243	Cl	0.467881	1.446610	0.666701
H244	H	0.018148	0.347583	-0.000018
H245	H	0.351481	0.680916	0.333315
H246	H	0.684815	1.014249	0.666649
H247	H	-0.008564	1.166863	0.436696
H248	H	0.324769	1.500196	0.770029
H249	H	0.658102	1.833529	1.103362
Cl250	Cl	-0.533569	0.789022	0.000002
Cl251	Cl	-0.200236	1.122356	0.333335
Cl252	Cl	0.133098	1.455689	0.666669
Cl253	Cl	-0.196257	0.569384	0.000021
Cl254	Cl	0.137077	0.902717	0.333354
Cl255	Cl	0.470410	1.236051	0.666688
Cl256	Cl	-0.769756	1.243838	-0.000020
Cl257	Cl	-0.436423	1.577171	0.333313
Cl258	Cl	-0.103089	1.910505	0.666646
H259	H	-0.810274	0.912066	-0.000006
H260	H	-0.476941	1.245399	0.333328
H261	H	-0.143608	1.578733	0.666661
H262	H	-0.613654	1.286400	-0.000039
H263	H	-0.280320	1.619734	0.333294
H264	H	0.053013	1.953067	0.666628
H265	H	0.016115	0.516829	-0.000016
H266	H	0.349448	0.850162	0.333317
H267	H	0.682781	1.183495	0.666650
Cl268	Cl	-0.903820	1.246356	-0.000013
Cl269	Cl	-0.570487	1.579689	0.333320
Cl270	Cl	-0.237153	1.913023	0.666653
H271	H	-0.918049	0.914102	-0.000016
H272	H	-0.584715	1.247435	0.333317
H273	H	-0.251382	1.580769	0.666650
H274	H	-0.505896	1.284367	-0.000043
H275	H	-0.172563	1.617701	0.333290
H276	H	0.160771	1.951034	0.666624
H277	H	-0.347141	1.199720	0.000028
H278	H	-0.013808	1.533053	0.333362
H279	H	0.319525	1.866386	0.666695
H280	H	-0.239365	1.197686	0.000034
H281	H	0.093969	1.531019	0.333368
H282	H	0.427302	1.864352	0.666701
Cl283	Cl	0.008559	1.193945	0.233831
Cl284	Cl	0.341892	1.527278	0.567165
Cl285	Cl	0.675225	1.860611	0.900498
Cl286	Cl	0.008549	1.193996	0.766133
Cl287	Cl	0.341883	1.527329	1.099467
Cl288	Cl	0.675216	1.860662	1.432800
Cl289	Cl	-0.165962	0.917832	0.541260
Cl290	Cl	0.167371	1.251165	0.874593
Cl291	Cl	0.500704	1.584499	1.207926
Cl292	Cl	-0.165957	0.917824	0.458821
Cl293	Cl	0.167377	1.251157	0.792154
Cl294	Cl	0.500710	1.584491	1.125488
