data_functionalizedCrystal
_audit_creation_method	'MofGen! by Chris Wilmer'
_symmetry_space_group_name_H-M	'P1'
_symmetry_Int_Tables_number	1
_symmetry_cell_setting	triclinic
loop_
_symmetry_equiv_pos_as_xyz
  x,y,z
_cell_length_a	12.759401
_cell_length_b	15.297327
_cell_length_c	12.759393
_cell_angle_alpha	99.641342
_cell_angle_beta	89.982620
_cell_angle_gamma	99.706546
loop_
_atom_site_label
_atom_site_type_symbol
_atom_site_fract_x
_atom_site_fract_y
_atom_site_fract_z
Zn1	Zn	1.533786	-0.359100	-0.666296
Zn2	Zn	1.503239	-0.509988	-0.521002
Zn3	Zn	1.358082	-0.359148	-0.490645
Zn4	Zn	1.327646	-0.509918	-0.696629
O5	O	1.430688	-0.434539	-0.593643
O6	O	1.676753	-0.379125	-0.647032
O7	O	1.483937	-0.490028	-0.369964
O8	O	1.406912	-0.232897	-0.488547
O9	O	1.654310	-0.489982	-0.540285
O10	O	1.536001	-0.232862	-0.617597
O11	O	1.377291	-0.379207	-0.347661
O12	O	1.207026	-0.379139	-0.517960
O13	O	1.355037	-0.489863	-0.839617
O14	O	1.184664	-0.489909	-0.669295
O15	O	1.506488	-0.379057	-0.817331
O16	O	1.454424	-0.636224	-0.569698
O17	O	1.325417	-0.636172	-0.698730
C18	C	1.157724	-0.434522	-0.593625
C19	C	1.040945	-0.434537	-0.593647
C20	C	0.974448	-0.492307	-0.672355
C21	C	0.864722	-0.492319	-0.672369
C22	C	0.887999	-0.376787	-0.514957
C23	C	0.997724	-0.376771	-0.514949
C24	C	0.961007	-0.559011	-0.763233
C25	C	0.851281	-0.559023	-0.763247
C26	C	1.383331	-0.668932	-0.640823
C27	C	1.363168	-0.769206	-0.661041
C28	C	1.575233	-1.051845	-0.449495
C29	C	1.594176	-0.957632	-0.430493
C30	C	1.536426	-0.910521	-0.488128
C31	C	1.459728	-0.957632	-0.564769
C32	C	1.440776	-1.051854	-0.583767
C33	C	1.401970	-0.910530	-0.622401
C34	C	1.325272	-0.957641	-0.699041
C35	C	1.306324	-1.051854	-0.718036
C36	C	1.364075	-1.098965	-0.660401
C37	C	1.420922	-0.816308	-0.603403
C38	C	1.286466	-0.816317	-0.737675
C39	C	1.267522	-0.910530	-0.756677
C40	C	1.704718	-0.434556	-0.593661
C41	C	1.821493	-0.434563	-0.593669
C42	C	1.430775	-0.434447	-0.867658
C43	C	1.430812	-0.434408	-0.984427
C44	C	1.478259	-0.199230	-0.546302
C45	C	1.498531	-0.098956	-0.526128
C46	C	1.375312	-0.376692	-1.027680
C47	C	1.375349	-0.376665	-1.137398
C48	C	1.486395	-0.492072	-1.160602
C49	C	1.486351	-0.492103	-1.050886
C50	C	1.311204	-0.310060	-1.014283
C51	C	1.311242	-0.310034	-1.124002
C52	C	1.430675	-0.434565	-0.320681
C53	C	1.430893	-0.434350	-0.203862
H54	H	1.483370	-0.777959	-0.541001
H55	H	1.228898	-0.335043	-1.163065
H56	H	1.353758	-0.243703	-0.966904
C57	C	1.557360	-0.806886	-0.467277
C58	C	1.668792	-0.755091	-0.483997
C59	C	1.689776	-0.651452	-0.463166
C60	C	1.599329	-0.599607	-0.425614
C61	C	1.487890	-0.651402	-0.408891
C62	C	1.466905	-0.755042	-0.429723
H63	H	1.735753	-0.793469	-0.511797
H64	H	1.772272	-0.613110	-0.475545
H65	H	1.614864	-0.522887	-0.410194
H66	H	1.420929	-0.613024	-0.381092
H67	H	1.384410	-0.793383	-0.417343
H68	H	1.656622	-0.919278	-0.368092
C69	C	1.359788	-0.215640	-1.145262
C70	C	1.460006	-0.203008	-1.212119
C71	C	1.508550	-0.108620	-1.233381
C72	C	1.456877	-0.026864	-1.187787
C73	C	1.356653	-0.039493	-1.120926
C74	C	1.308109	-0.133881	-1.099664
H75	H	1.498263	-0.263532	-1.245874
H76	H	1.582743	-0.099272	-1.282876
H77	H	1.492812	0.043008	-1.203526
H78	H	1.318396	0.021030	-1.087171
H79	H	1.233916	-0.143230	-1.050169
H80	H	1.051864	-0.329723	-0.450863
C81	C	1.196159	-0.335345	-0.979136
C82	C	1.103456	-0.355704	-1.061655
C83	C	0.988414	-0.380989	-1.026508
C84	C	0.966076	-0.385916	-0.908841
C85	C	1.058782	-0.365556	-0.826314
C86	C	1.173823	-0.340271	-0.861462
H87	H	1.119990	-0.352058	-1.148766
H88	H	0.919787	-0.396060	-1.087600
H89	H	0.880915	-0.404633	-0.882823
H90	H	1.042248	-0.369203	-0.739203
H91	H	1.242450	-0.325200	-0.800369
H92	H	0.852795	-0.329756	-0.450885
H93	H	1.531526	-0.539113	-1.015678
C94	C	1.006366	-0.533835	-0.868131
C95	C	0.932072	-0.513547	-0.952705
C96	C	0.977431	-0.488370	-1.057599
C97	C	1.097084	-0.483480	-1.077919
C98	C	1.171385	-0.503768	-0.993343
C99	C	1.126026	-0.528945	-0.888449
H100	H	0.843491	-0.517167	-0.937664
H101	H	0.922427	-0.473352	-1.120207
H102	H	1.130661	-0.464842	-1.155568
H103	H	1.259966	-0.500148	-1.008384
H104	H	1.181030	-0.543963	-0.825841
H105	H	0.981637	-0.625347	-0.747307
H106	H	0.822314	-0.534083	-0.835576
H107	H	1.348657	-1.175681	-0.675870
C108	C	0.791979	-0.653382	-0.752606
C109	C	0.855033	-0.729438	-0.744007
C110	C	0.795732	-0.823793	-0.733363
C111	C	0.673376	-0.842091	-0.731318
C112	C	0.610315	-0.766032	-0.739917
C113	C	0.669616	-0.671678	-0.750561
H114	H	0.945614	-0.715895	-0.745521
H115	H	0.842415	-0.880096	-0.726998
H116	H	0.629478	-0.911937	-0.723439
H117	H	0.519734	-0.779576	-0.738403
H118	H	0.622934	-0.615375	-0.756927
C119	C	1.222936	-0.764507	-0.801085
C120	C	1.100882	-0.777544	-0.795040
C121	C	1.037355	-0.725728	-0.858442
C122	C	1.095883	-0.660874	-0.927891
C123	C	1.217945	-0.647833	-0.933939
C124	C	1.281471	-0.699649	-0.870536
H125	H	1.057550	-0.825556	-0.743627
H126	H	0.946997	-0.735382	-0.853965
H127	H	1.048857	-0.622516	-0.974825
H128	H	1.261277	-0.599821	-0.985351
H129	H	1.371829	-0.689995	-0.875014
C130	C	1.638746	-1.103664	-0.386094
C131	C	1.760801	-1.090628	-0.392126
C132	C	1.824318	-1.142445	-0.328714
C133	C	1.765779	-1.207299	-0.259271
C134	C	1.643716	-1.220338	-0.253237
C135	C	1.580200	-1.168520	-0.316648
H136	H	1.804141	-1.042617	-0.443534
H137	H	1.914676	-1.132793	-0.333182
H138	H	1.812797	-1.245658	-0.212331
H139	H	1.600376	-1.268349	-0.201828
H140	H	1.489841	-1.178173	-0.312180
C141	C	1.221950	-1.103674	-0.802334
C142	C	1.105107	-1.090804	-0.791067
C143	C	1.020732	-1.142621	-0.875365
C144	C	1.053198	-1.207308	-0.970930
C145	C	1.170046	-1.220181	-0.982202
C146	C	1.254422	-1.168364	-0.897904
H147	H	1.081069	-1.042916	-0.720320
H148	H	0.934233	-1.133091	-0.867020
H149	H	0.990739	-1.245666	-1.033333
H150	H	1.194085	-1.268069	-1.052948
H151	H	1.340920	-1.177894	-0.906248
C152	C	1.183151	-0.962359	-0.840974
C153	C	1.066304	-0.949501	-0.829710
C154	C	0.981934	-1.001331	-0.914006
C155	C	1.014410	-1.066019	-1.009566
C156	C	1.131262	-1.078880	-1.020833
C157	C	1.215632	-1.027050	-0.936537
H158	H	1.042258	-0.901613	-0.758968
H159	H	0.895432	-0.991810	-0.905665
H160	H	0.951954	-1.104387	-1.071967
H161	H	1.155308	-1.126769	-1.091575
H162	H	1.302134	-1.036571	-0.944878
H163	H	1.531614	-0.539044	-1.214726
