data_functionalizedCrystal
_audit_creation_method	'MofGen! by Chris Wilmer'
_symmetry_space_group_name_H-M	'P1'
_symmetry_Int_Tables_number	1
_symmetry_cell_setting	triclinic
loop_
_symmetry_equiv_pos_as_xyz
  x,y,z
_cell_length_a	16.625546
_cell_length_b	12.759401
_cell_length_c	12.759393
_cell_angle_alpha	90.021157
_cell_angle_beta	89.964881
_cell_angle_gamma	89.981929
loop_
_atom_site_label
_atom_site_type_symbol
_atom_site_fract_x
_atom_site_fract_y
_atom_site_fract_z
Zn1	Zn	-0.321057	-1.606210	-0.593992
Zn2	Zn	0.012276	-1.272876	-0.260659
Zn3	Zn	0.345609	-0.939543	0.072674
Zn4	Zn	-0.455911	-1.606077	-0.418298
Zn5	Zn	-0.122578	-1.272744	-0.084965
Zn6	Zn	0.210755	-0.939410	0.248368
Zn7	Zn	-0.321086	-1.430508	-0.418327
Zn8	Zn	0.012247	-1.097175	-0.084994
Zn9	Zn	0.345580	-0.763842	0.248340
Zn10	Zn	-0.455841	-1.430476	-0.593935
Zn11	Zn	-0.122508	-1.097143	-0.260602
Zn12	Zn	0.210825	-0.763810	0.072732
O13	O	-0.388474	-1.518318	-0.506138
O14	O	-0.055141	-1.184984	-0.172805
O15	O	0.278193	-0.851651	0.160529
O16	O	-0.338963	-1.753213	-0.570698
O17	O	-0.005630	-1.419880	-0.237365
O18	O	0.327703	-1.086546	0.095968
O19	O	-0.438068	-1.582745	-0.271281
O20	O	-0.104735	-1.249412	0.062052
O21	O	0.228599	-0.916078	0.395386
O22	O	-0.208250	-1.453884	-0.441665
O23	O	0.125083	-1.120551	-0.108332
O24	O	0.458417	-0.787218	0.225001
O25	O	-0.438040	-1.753115	-0.441617
O26	O	-0.104707	-1.419782	-0.108283
O27	O	0.228627	-1.086449	0.225050
O28	O	-0.208229	-1.582971	-0.570726
O29	O	0.125105	-1.249638	-0.237393
O30	O	0.458438	-0.916305	0.095941
O31	O	-0.339013	-1.453756	-0.271302
O32	O	-0.005679	-1.120422	0.062031
O33	O	0.327654	-0.787089	0.395365
O34	O	-0.338944	-1.283483	-0.441610
O35	O	-0.005611	-0.950150	-0.108276
O36	O	0.327722	-0.616816	0.225057
O37	O	-0.437920	-1.453830	-0.740964
O38	O	-0.104587	-1.120497	-0.407630
O39	O	0.228746	-0.787163	-0.074297
O40	O	-0.437948	-1.283460	-0.570628
O41	O	-0.104615	-0.950126	-0.237295
O42	O	0.228718	-0.616793	0.096039
O43	O	-0.338895	-1.582940	-0.741006
O44	O	-0.005562	-1.249607	-0.407673
O45	O	0.327772	-0.916274	-0.074339
O46	O	-0.568735	-1.582714	-0.441561
O47	O	-0.235401	-1.249381	-0.108228
O48	O	0.097932	-0.916048	0.225106
O49	O	-0.568683	-1.453701	-0.570600
O50	O	-0.235350	-1.120368	-0.237267
O51	O	0.097984	-0.787035	0.096066
C52	C	-0.388443	-1.245350	-0.506116
C53	C	-0.055109	-0.912017	-0.172783
C54	C	0.278224	-0.578684	0.160550
C55	C	-0.388448	-1.128574	-0.506132
C56	C	-0.055115	-0.795240	-0.172798
C57	C	0.278218	-0.461907	0.160535
C58	C	-0.336963	-0.964026	-0.573452
C59	C	-0.003630	-0.630693	-0.240118
C60	C	0.329703	-0.297359	0.093215
C61	C	-0.336953	-1.073750	-0.573447
C62	C	-0.003619	-0.740417	-0.240114
C63	C	0.329714	-0.407084	0.093219
C64	C	-0.439964	-1.073668	-0.438824
C65	C	-0.106631	-0.740334	-0.105490
C66	C	0.226703	-0.407001	0.227843
C67	C	-0.439978	-0.963946	-0.438834
C68	C	-0.106645	-0.630612	-0.105501
C69	C	0.226688	-0.297279	0.227832
C70	C	-0.597965	-1.518218	-0.506094
C71	C	-0.264632	-1.184885	-0.172761
C72	C	0.068702	-0.851552	0.160573
C73	C	-0.687586	-1.518272	-0.506110
C74	C	-0.354253	-1.184939	-0.172777
C75	C	-0.020919	-0.851605	0.160556
C76	C	-1.015762	-1.518455	-0.506220
C77	C	-0.682428	-1.185122	-0.172887
C78	C	-0.349095	-0.851789	0.160447
C79	C	-0.924453	-1.518401	-0.506192
C80	C	-0.591120	-1.185068	-0.172859
C81	C	-0.257786	-0.851734	0.160474
C82	C	-0.851677	-1.518363	-0.506165
C83	C	-0.518343	-1.185029	-0.172831
C84	C	-0.185010	-0.851696	0.160502
C85	C	-0.760362	-1.518310	-0.506138
C86	C	-0.427029	-1.184977	-0.172805
C87	C	-0.093696	-0.851643	0.160528
C88	C	-0.178165	-1.518446	-0.506205
C89	C	0.155168	-1.185113	-0.172872
C90	C	0.488502	-0.851780	0.160461
C91	C	-0.088544	-1.518501	-0.506234
C92	C	0.244789	-1.185168	-0.172901
C93	C	0.578123	-0.851834	0.160433
C94	C	-0.388397	-1.518396	-0.780172
C95	C	-0.055063	-1.185063	-0.446838
C96	C	0.278270	-0.851730	-0.113505
C97	C	-0.388364	-1.518430	-0.896948
C98	C	-0.055030	-1.185097	-0.563615
C99	C	0.278303	-0.851763	-0.230282
C100	C	-0.388495	-0.792351	-0.506155
C101	C	-0.055161	-0.459018	-0.172821
C102	C	0.278172	-0.125684	0.160512
C103	C	-0.388473	-0.909128	-0.506147
C104	C	-0.055140	-0.575794	-0.172813
C105	C	0.278193	-0.242461	0.160520
C106	C	-0.336793	-1.585663	-0.951834
C107	C	-0.003460	-1.252329	-0.618501
C108	C	0.329874	-0.918996	-0.285167
C109	C	-0.336758	-1.585681	-1.061558
C110	C	-0.003425	-1.252347	-0.728225
C111	C	0.329908	-0.919014	-0.394891
C112	C	-0.439872	-1.451230	-1.061501
C113	C	-0.106538	-1.117896	-0.728168
C114	C	0.226795	-0.784563	-0.394835
C115	C	-0.439902	-1.451208	-0.951779
C116	C	-0.106568	-1.117874	-0.618446
C117	C	0.226765	-0.784541	-0.285113
C118	C	-0.388493	-1.518300	-0.233171
C119	C	-0.055160	-1.184967	0.100163
C120	C	0.278174	-0.851633	0.433496
C121	C	-0.388299	-1.518470	-0.116395
C122	C	-0.054965	-1.185137	0.216939
C123	C	0.278368	-0.851803	0.550272
H124	H	-0.294825	-1.640397	-0.907194
H125	H	0.038508	-1.307063	-0.573861
H126	H	0.371842	-0.973730	-0.240527
O127	O	-0.281141	-1.658201	-1.120761
O128	O	0.052193	-1.324868	-0.787427
O129	O	0.385526	-0.991534	-0.454094
H130	H	-0.245315	-1.704944	-1.064196
H131	H	0.088018	-1.371610	-0.730862
H132	H	0.421351	-1.038277	-0.397529
O133	O	-0.281413	-0.904904	-0.646054
O134	O	0.051920	-0.571571	-0.312720
O135	O	0.385254	-0.238238	0.020613
H136	H	-0.290068	-0.819384	-0.634747
H137	H	0.043266	-0.486050	-0.301414
H138	H	0.376599	-0.152717	0.031919
H139	H	-0.481896	-1.396451	-0.907090
H140	H	-0.148563	-1.063118	-0.573757
H141	H	0.184770	-0.729784	-0.240423
O142	O	-0.281385	-1.132959	-0.646031
O143	O	0.051949	-0.799626	-0.312698
O144	O	0.385282	-0.466292	0.020636
H145	H	-0.295280	-1.111926	-0.728458
H146	H	0.038053	-0.778592	-0.395125
H147	H	0.371387	-0.445259	-0.061792
H148	H	-0.481896	-1.118314	-0.384018
H149	H	-0.148563	-0.784981	-0.050685
H150	H	0.184771	-0.451647	0.282648
H151	H	-0.481928	-0.919246	-0.384026
H152	H	-0.148595	-0.585913	-0.050692
H153	H	0.184738	-0.252579	0.282641
H154	H	-0.481834	-1.396502	-1.106158
H155	H	-0.148501	-1.063169	-0.772825
H156	H	0.184833	-0.729835	-0.439491
