data_functionalizedCrystal
_audit_creation_method	'MofGen! by Chris Wilmer'
_symmetry_space_group_name_H-M	'P1'
_symmetry_Int_Tables_number	1
_symmetry_cell_setting	triclinic
loop_
_symmetry_equiv_pos_as_xyz
  x,y,z
_cell_length_a	21.395362
_cell_length_b	25.639239
_cell_length_c	21.395356
_cell_angle_alpha	89.973562
_cell_angle_beta	89.964230
_cell_angle_gamma	90.054564
loop_
_atom_site_label
_atom_site_type_symbol
_atom_site_fract_x
_atom_site_fract_y
_atom_site_fract_z
Zn1	Zn	0.957774	-0.207953	-0.354582
Zn2	Zn	1.457774	0.292047	0.145418
Zn3	Zn	0.957677	-0.295384	-0.249803
Zn4	Zn	1.457677	0.204616	0.250197
Zn5	Zn	0.853004	-0.207988	-0.249783
Zn6	Zn	1.353004	0.292012	0.250217
Zn7	Zn	0.852944	-0.295384	-0.354508
Zn8	Zn	1.352944	0.204616	0.145492
O9	O	0.905350	-0.251677	-0.302169
O10	O	1.405350	0.248323	0.197831
O11	O	1.045439	-0.219536	-0.340722
O12	O	1.545439	0.280464	0.159278
O13	O	0.943777	-0.283805	-0.162122
O14	O	1.443777	0.216195	0.337878
O15	O	0.866968	-0.134818	-0.263708
O16	O	1.366968	0.365182	0.236292
O17	O	1.045368	-0.283771	-0.263741
O18	O	1.545368	0.216229	0.236259
O19	O	0.943942	-0.134793	-0.340703
O20	O	1.443942	0.365207	0.159297
O21	O	0.866874	-0.219596	-0.162108
O22	O	1.366874	0.280404	0.337892
O23	O	0.765318	-0.219596	-0.263636
O24	O	1.265318	0.280404	0.236364
O25	O	0.866865	-0.283771	-0.442195
O26	O	1.366865	0.216229	0.057805
O27	O	0.765274	-0.283805	-0.340576
O28	O	1.265274	0.216195	0.159424
O29	O	0.943884	-0.219536	-0.442250
O30	O	1.443884	0.280464	0.057750
O31	O	0.943718	-0.368549	-0.263669
O32	O	1.443718	0.131451	0.236331
O33	O	0.866771	-0.368549	-0.340596
O34	O	1.366771	0.131451	0.159404
C35	C	0.742562	-0.251705	-0.302096
C36	C	1.242562	0.248295	0.197904
C37	C	0.672921	-0.251729	-0.302080
C38	C	1.172921	0.248271	0.197920
C39	C	0.640201	-0.285207	-0.342083
C40	C	1.140201	0.214793	0.157917
C41	C	0.574766	-0.285194	-0.342111
C42	C	1.074766	0.214806	0.157889
C43	C	0.542053	-0.251709	-0.302125
C44	C	1.042053	0.248291	0.197875
C45	C	0.574780	-0.218225	-0.262119
C46	C	1.074780	0.281775	0.237881
C47	C	0.640214	-0.218235	-0.262097
C48	C	1.140214	0.281765	0.237903
C49	C	0.438337	-0.247503	-0.245720
C50	C	0.938337	0.252497	0.254280
C51	C	0.372904	-0.247497	-0.245741
C52	C	0.872904	0.252503	0.254259
C53	C	0.340232	-0.251675	-0.302194
C54	C	0.840232	0.248325	0.197806
C55	C	0.373001	-0.255871	-0.358627
C56	C	0.873001	0.244129	0.141373
C57	C	0.438435	-0.255881	-0.358605
C58	C	0.938435	0.244119	0.141395
C59	C	0.471100	-0.251694	-0.302145
C60	C	0.971100	0.248306	0.197855
C61	C	0.236560	-0.285141	-0.342231
C62	C	0.736560	0.214859	0.157769
C63	C	0.171123	-0.285124	-0.342259
C64	C	0.671123	0.214876	0.157741
C65	C	0.171139	-0.218157	-0.262262
C66	C	0.671139	0.281843	0.237738
C67	C	0.236574	-0.218171	-0.262238
C68	C	0.736574	0.281829	0.237762
C69	C	0.269281	-0.251666	-0.302222
C70	C	0.769281	0.248334	0.197778
C71	C	0.905244	-0.387520	-0.302140
C72	C	1.405244	0.112480	0.197860
C73	C	0.905257	-0.445634	-0.302149
C74	C	1.405257	0.054366	0.197851
C75	C	0.945521	-0.805984	-0.262182
C76	C	1.445521	-0.305984	0.237818
C77	C	0.945545	-0.860589	-0.262190
C78	C	1.445545	-0.360589	0.237810
O79	O	0.979670	-0.888815	-0.228177
O80	O	1.479670	-0.388815	0.271823
N81	N	0.905460	-0.887916	-0.302211
N82	N	1.405460	-0.387916	0.197789
C83	C	0.865352	-0.860637	-0.342230
C84	C	1.365352	-0.360637	0.157770
O85	O	0.831260	-0.888895	-0.376271
O86	O	1.331260	-0.388895	0.123729
C87	C	0.865332	-0.806033	-0.342224
C88	C	1.365332	-0.306033	0.157776
C89	C	0.905415	-0.778709	-0.302196
C90	C	1.405415	-0.278709	0.197804
C91	C	0.985601	-0.778659	-0.222158
C92	C	1.485601	-0.278659	0.277842
C93	C	0.985576	-0.724059	-0.222149
C94	C	1.485576	-0.224059	0.277851
C95	C	0.945470	-0.696783	-0.262164
C96	C	1.445470	-0.196783	0.237836
C97	C	0.905390	-0.724108	-0.302187
C98	C	1.405390	-0.224108	0.197813
C99	C	0.825228	-0.778755	-0.382246
C100	C	1.325228	-0.278755	0.117754
C101	C	0.825211	-0.724148	-0.382237
C102	C	1.325211	-0.224148	0.117763
C103	C	0.865294	-0.696823	-0.342209
C104	C	1.365294	-0.196823	0.157791
C105	C	0.865259	-0.642232	-0.342193
C106	C	1.365259	-0.142232	0.157807
N107	N	0.905344	-0.614904	-0.302173
N108	N	1.405344	-0.114904	0.197827
C109	C	0.945450	-0.642180	-0.262158
C110	C	1.445450	-0.142180	0.237842
C111	C	0.865400	-0.975307	-0.342239
C112	C	1.365400	-0.475307	0.157761
C113	C	0.865417	-1.029910	-0.342242
C114	C	1.365417	-0.529910	0.157758
C115	C	0.945610	-1.029858	-0.262204
C116	C	1.445610	-0.529858	0.237796
C117	C	0.945590	-0.975254	-0.262198
C118	C	1.445590	-0.475254	0.237802
C119	C	0.905485	-0.947980	-0.302219
C120	C	1.405485	-0.447980	0.197781
C121	C	0.945393	-0.527515	-0.262142
C122	C	1.445393	-0.027515	0.237858
C123	C	0.945362	-0.472909	-0.262134
C124	C	1.445362	0.027091	0.237866
C125	C	0.865172	-0.472966	-0.342175
C126	C	1.365172	0.027034	0.157825
C127	C	0.865200	-0.527567	-0.342180
C128	C	1.365200	-0.027567	0.157820
C129	C	0.905315	-0.554840	-0.302162
C130	C	1.405315	-0.054840	0.197838
O131	O	0.831153	-0.613971	-0.376190
O132	O	1.331153	-0.113971	0.123810
O133	O	0.979542	-0.613915	-0.228128
O134	O	1.479542	-0.113915	0.271872
C135	C	1.068773	-0.251650	-0.302242
C136	C	1.568773	0.248350	0.197758
C137	C	1.138414	-0.251638	-0.302274
C138	C	1.638414	0.248362	0.197726
C139	C	0.905379	-0.251650	-0.465592
C140	C	1.405379	0.248350	0.034408
C141	C	0.905391	-0.251638	-0.535234
C142	C	1.405391	0.248362	-0.035234
C143	C	0.905473	-0.115304	-0.302212
C144	C	1.405473	0.384696	0.197788
C145	C	0.905525	-0.057190	-0.302230
C146	C	1.405525	0.442810	0.197770
C147	C	0.945504	-0.284962	-1.037038
C148	C	1.445504	0.215038	-0.537038
C149	C	0.945493	-0.284979	-0.971603
C150	C	1.445493	0.215021	-0.471603
C151	C	0.905451	-0.251555	-0.938872
C152	C	1.405451	0.248445	-0.438872
C153	C	0.865405	-0.218122	-0.971583
C154	C	1.365405	0.281878	-0.471583
C155	C	0.865413	-0.218110	-1.037017
C156	C	1.365413	0.281890	-0.537017
C157	C	0.900533	-0.204469	-0.835216
C158	C	1.400533	0.295531	-0.335216
C159	C	0.900529	-0.204480	-0.769783
C160	C	1.400529	0.295520	-0.269783
C161	C	0.905422	-0.251592	-0.737051
C162	C	1.405422	0.248408	-0.237051
C163	C	0.910332	-0.298695	-0.769761
C164	C	1.410332	0.201305	-0.269761
C165	C	0.910340	-0.298683	-0.835195
C166	C	1.410340	0.201317	-0.335195
C167	C	0.905437	-0.251565	-0.867920
C168	C	1.405437	0.248435	-0.367920
C169	C	0.945450	-0.285044	-0.633396
C170	C	1.445450	0.214956	-0.133396
C171	C	0.945435	-0.285061	-0.567960
C172	C	1.445435	0.214939	-0.067960
C173	C	0.865350	-0.218200	-0.567941
C174	C	1.365350	0.281800	-0.067941
C175	C	0.865362	-0.218187	-0.633376
C176	C	1.365362	0.281813	-0.133376
C177	C	0.905416	-0.251608	-0.666100
C178	C	1.405416	0.248392	-0.166100
C179	C	0.905357	-0.251667	-0.139381
C180	C	1.405357	0.248333	0.360619
C181	C	0.905466	-0.251531	-0.069741
C182	C	1.405466	0.248469	0.430259
H183	H	0.263215	-0.190912	-0.229661
H184	H	0.763215	0.309088	0.270339
H185	H	0.978063	-0.312259	-0.660041
H186	H	1.478063	0.187741	-0.160041
N187	N	0.988616	-0.321124	-0.532684
N188	N	1.488616	0.178876	-0.032684
H189	H	1.013990	-0.342292	-0.563346
H190	H	1.513990	0.157708	-0.063346
H191	H	1.017623	-0.299840	-0.505553
H192	H	1.517623	0.200160	-0.005553
H193	H	0.548120	-0.312456	-0.374689
H194	H	1.048120	0.187544	0.125311
H195	H	0.144484	-0.312385	-0.374839
H196	H	0.644484	0.187615	0.125161
H197	H	0.465113	-0.259296	-0.404555
H198	H	0.965113	0.240704	0.095445
H199	H	1.018263	-0.800861	-0.189573
H200	H	1.518263	-0.300861	0.310427
N201	N	0.988868	-1.059286	-0.219046
N202	N	1.488868	-0.559286	0.280954
H203	H	1.017893	-1.081896	-0.244553
H204	H	1.517893	-0.581896	0.255447
H205	H	1.014219	-1.033662	-0.193695
H206	H	1.514219	-0.533662	0.306305
N207	N	0.915571	-0.349526	-0.734488
N208	N	1.415571	0.150474	-0.234488
H209	H	0.956097	-0.367324	-0.745884
H210	H	1.456097	0.132676	-0.245884
H211	H	0.914779	-0.342366	-0.688080
H212	H	1.414779	0.157634	-0.188080
H213	H	0.978229	-0.953010	-0.229605
H214	H	1.478229	-0.453010	0.270395
N215	N	0.988683	-0.321032	-0.936318
N216	N	1.488683	0.178968	-0.436318
H217	H	0.963200	-0.345273	-0.909148
H218	H	1.463200	0.154727	-0.409148
H219	H	1.014049	-0.342168	-0.967016
H220	H	1.514049	0.157832	-0.467016
N221	N	0.822187	-0.182120	-0.668651
N222	N	1.322187	0.317880	-0.168651
H223	H	0.828269	-0.187183	-0.715069
H224	H	1.328269	0.312817	-0.215069
H225	H	0.777430	-0.190267	-0.657190
H226	H	1.277430	0.309733	-0.157190
N227	N	0.915632	-0.349481	-0.870475
N228	N	1.415632	0.150519	-0.370475
H229	H	0.918731	-0.379330	-0.839816
H230	H	1.418731	0.120670	-0.339816
H231	H	0.877455	-0.354336	-0.897603
H232	H	1.377455	0.145664	-0.397603
H233	H	0.832736	-0.953103	-0.374827
H234	H	1.332736	-0.453103	0.125173
H235	H	0.144505	-0.190891	-0.229707
H236	H	0.644505	0.309109	0.270293
N237	N	0.822164	-0.182142	-0.532654
N238	N	1.322164	0.317858	-0.032654
H239	H	0.777391	-0.190266	-0.544017
H240	H	1.277391	0.309734	-0.044017
H241	H	0.828283	-0.187234	-0.486249
H242	H	1.328283	0.312766	0.013751
H243	H	0.792585	-0.800993	-0.414837
H244	H	1.292585	-0.300993	0.085163
H245	H	0.792554	-0.701943	-0.414829
H246	H	1.292554	-0.201943	0.085171
H247	H	0.832771	-1.052153	-0.374831
H248	H	1.332771	-0.552153	0.125169
N249	N	0.895249	-0.153679	-0.734506
N250	N	1.395249	0.346321	-0.234506
H251	H	0.892146	-0.123832	-0.765169
H252	H	1.392146	0.376168	-0.265169
H253	H	0.856643	-0.154441	-0.707332
H254	H	1.356643	0.345559	-0.207332
H255	H	0.346228	-0.244083	-0.199789
H256	H	0.846228	0.255917	0.300211
H257	H	0.832563	-0.549816	-0.374776
H258	H	1.332563	-0.049816	0.125224
H259	H	0.832516	-0.450750	-0.374753
H260	H	1.332516	0.049250	0.125247
H261	H	0.548141	-0.190960	-0.229563
H262	H	1.048141	0.309040	0.270437
H263	H	0.263191	-0.312411	-0.374791
H264	H	0.763191	0.187589	0.125209
N265	N	0.988700	-0.321010	-1.072333
N266	N	1.488700	0.178990	-0.572333
H267	H	1.014061	-0.342192	-1.041683
H268	H	1.514061	0.157808	-0.541683
H269	H	0.963177	-0.345207	-1.099460
H270	H	1.463177	0.154793	-0.599460
N271	N	0.895251	-0.153653	-0.870517
N272	N	1.395251	0.346347	-0.370517
H273	H	0.892145	-0.123816	-0.839869
H274	H	1.392145	0.376184	-0.339869
H275	H	0.933434	-0.148786	-0.897687
H276	H	1.433434	0.351214	-0.397687
N277	N	0.822223	-0.182067	-0.936283
N278	N	1.322223	0.317933	-0.436283
H279	H	0.796860	-0.160885	-0.966932
H280	H	1.296860	0.339115	-0.466932
H281	H	0.793207	-0.203357	-0.909109
H282	H	1.293207	0.296643	-0.409109
N283	N	0.675477	-0.321331	-0.385206
N284	N	1.175477	0.178669	0.114794
H285	H	0.644816	-0.342538	-0.410553
H286	H	1.144816	0.157462	0.089447
H287	H	0.702683	-0.300088	-0.414241
H288	H	1.202683	0.199912	0.085759
N289	N	0.337773	-0.260381	-0.419522
N290	N	0.837773	0.239619	0.080478
H291	H	0.291349	-0.259736	-0.410976
H292	H	0.791349	0.240264	0.089024
H293	H	0.349282	-0.230180	-0.447595
H294	H	0.849282	0.269820	0.052405
N295	N	0.822226	-0.182051	-1.072291
N296	N	1.322226	0.317949	-0.572291
H297	H	0.831984	-0.144694	-1.060920
H298	H	1.331984	0.355306	-0.560920
H299	H	0.828328	-0.187160	-1.118698
H300	H	1.328328	0.312840	-0.618698
N301	N	0.473573	-0.242993	-0.184827
N302	N	0.973573	0.257007	0.315173
H303	H	0.442886	-0.240339	-0.149082
H304	H	0.942886	0.259661	0.350918
H305	H	0.500672	-0.274848	-0.178932
H306	H	1.000672	0.225152	0.321068
H307	H	0.666855	-0.190971	-0.229521
H308	H	1.166855	0.309029	0.270479
H309	H	0.978061	-0.549714	-0.229556
H310	H	1.478061	-0.049714	0.270444
N311	N	0.988598	-0.443438	-0.218962
N312	N	1.488598	0.056562	0.281038
H313	H	1.014010	-0.469006	-0.193618
H314	H	1.514010	0.030994	0.306382
H315	H	1.017567	-0.420739	-0.244501
H316	H	1.517567	0.079261	0.255499
N317	N	1.028818	-0.694591	-0.178986
N318	N	1.528818	-0.194591	0.321014
H319	H	1.054229	-0.720162	-0.153646
H320	H	1.554229	-0.220162	0.346354
H321	H	1.057787	-0.671897	-0.204531
H322	H	1.557787	-0.171897	0.295469
