data_functionalizedCrystal
_audit_creation_method	'MofGen! by Chris Wilmer'
_symmetry_space_group_name_H-M	'P1'
_symmetry_Int_Tables_number	1
_symmetry_cell_setting	triclinic
loop_
_symmetry_equiv_pos_as_xyz
  x,y,z
_cell_length_a	12.811457
_cell_length_b	11.792254
_cell_length_c	11.892095
_cell_angle_alpha	93.915908
_cell_angle_beta	91.498327
_cell_angle_gamma	84.120767
loop_
_atom_site_label
_atom_site_type_symbol
_atom_site_fract_x
_atom_site_fract_y
_atom_site_fract_z
O1	O	1.390093	0.156590	0.048503
O2	O	1.890093	0.656590	0.548503
O3	O	1.086814	0.170826	0.017410
O4	O	1.586814	0.670826	0.517410
O5	O	1.245806	-0.001417	0.033718
O6	O	1.745806	0.498583	0.533718
O7	O	1.231101	0.328834	0.032195
O8	O	1.731101	0.828834	0.532195
O9	O	1.232549	0.012922	0.220366
O10	O	1.732549	0.512922	0.720366
O11	O	1.073557	0.185165	0.204058
O12	O	1.573557	0.685165	0.704058
O13	O	1.376837	0.170929	0.235151
O14	O	1.876837	0.670929	0.735151
Zn15	Zn	1.223092	0.180324	0.249239
Zn16	Zn	1.723092	0.680324	0.749239
Zn17	Zn	1.240558	0.161432	0.003322
Zn18	Zn	1.740558	0.661432	0.503322
O19	O	1.217845	0.343173	0.218842
O20	O	1.717845	0.843173	0.718842
C21	C	1.041359	0.176759	0.106753
C22	C	1.541359	0.676759	0.606753
C23	C	0.925668	0.173059	0.094892
C24	C	1.425668	0.673059	0.594892
C25	C	0.693819	0.181719	0.276111
C26	C	1.193819	0.681719	0.776111
C27	C	0.585117	0.178243	0.264972
C28	C	1.085117	0.678243	0.764972
C29	C	0.599560	0.162622	0.061477
C30	C	1.099560	0.662622	0.561477
C31	C	0.708262	0.166098	0.072616
C32	C	1.208262	0.666098	0.572616
C33	C	0.755388	0.175648	0.179936
C34	C	1.255388	0.675648	0.679936
C35	C	0.864091	0.179133	0.191074
C36	C	1.364091	0.679133	0.691074
C37	C	0.878533	0.163504	-0.012420
C38	C	1.378533	0.663504	0.487580
C39	C	0.769831	0.160028	-0.023558
C40	C	1.269831	0.660028	0.476442
C41	C	1.238251	-0.036544	0.126947
C42	C	1.738251	0.463456	0.626947
C43	C	1.235479	-0.162573	0.126662
C44	C	1.735479	0.337427	0.626662
C45	C	1.233226	-0.264924	0.126427
C46	C	1.733226	0.235076	0.626427
C47	C	1.230410	-0.393328	0.126127
C48	C	1.730410	0.106672	0.626127
C49	C	1.422292	0.164997	0.145805
C50	C	1.922292	0.664997	0.645805
C51	C	1.537983	0.168696	0.157659
C52	C	2.037983	0.668696	0.657659
C53	C	1.225400	0.378299	0.125611
C54	C	1.725400	0.878299	0.625611
C55	C	1.228173	0.504328	0.125889
C56	C	1.728173	1.004328	0.625889
N57	N	1.211180	0.193217	0.417071
N58	N	1.711180	0.693217	0.917071
N59	N	1.252479	0.148530	-0.164509
N60	N	1.752479	0.648530	0.335491
C61	C	1.335372	0.058751	0.666458
C62	C	1.835372	0.558751	1.166458
C63	C	1.327053	0.067771	0.783946
C64	C	1.827053	0.567771	1.283946
C65	C	1.186218	0.220271	0.769538
C66	C	1.686218	0.720271	1.269538
C67	C	1.194537	0.211251	0.652050
C68	C	1.694537	0.711251	1.152050
C69	C	1.269118	0.130489	0.600514
C70	C	1.769118	0.630489	1.100514
C71	C	1.277441	0.121475	0.483024
C72	C	1.777441	0.621475	0.983024
C73	C	1.136602	0.273969	0.468617
C74	C	1.636602	0.773969	0.968617
C75	C	1.128283	0.282990	0.586106
C76	C	1.628283	0.782990	1.086106
H77	H	0.732188	0.189510	0.363495
H78	H	1.232188	0.689510	0.863495
O79	O	0.518553	0.184902	0.368593
O80	O	1.018553	0.684902	0.868593
H81	H	0.544646	0.112171	0.420552
H82	H	1.044646	0.612171	0.920552
H83	H	1.067558	0.348742	0.628080
H84	H	1.567558	0.848742	1.128080
H85	H	1.082656	0.332387	0.414912
H86	H	1.582656	0.832387	0.914912
O87	O	1.398524	-0.009602	0.855065
O88	O	1.898524	0.490398	1.355065
H89	H	1.350562	-0.061248	0.904071
H90	H	1.850562	0.438752	1.404071
H91	H	1.125489	0.286018	0.811513
H92	H	1.625489	0.786018	1.311513
H93	H	0.561174	0.154827	-0.025897
H94	H	1.061174	0.654827	0.474103
H95	H	0.731447	0.152246	-0.110935
H96	H	1.231447	0.652246	0.389065
O97	O	0.944943	0.156946	-0.116159
O98	O	1.444943	0.656946	0.383841
H99	H	0.985970	0.235349	-0.116855
H100	H	1.485970	0.735349	0.383145
O101	O	0.914926	0.189444	0.306819
O102	O	1.414926	0.689444	0.806819
H103	H	0.853847	0.193074	0.371823
H104	H	1.353847	0.693074	0.871823
O105	O	1.357860	0.034361	0.427420
O106	O	1.857860	0.534361	0.927420
H107	H	1.437584	0.051601	0.458281
H108	H	1.937584	0.551601	0.958281
H109	H	1.396105	-0.007001	0.624497
H110	H	1.896105	0.492999	1.124497
