data_functionalizedCrystal
_audit_creation_method	'MofGen! by Chris Wilmer'
_symmetry_space_group_name_H-M	'P1'
_symmetry_Int_Tables_number	1
_symmetry_cell_setting	triclinic
loop_
_symmetry_equiv_pos_as_xyz
  x,y,z
_cell_length_a	10.654559
_cell_length_b	23.532355
_cell_length_c	9.130313
_cell_angle_alpha	90.005604
_cell_angle_beta	90.001323
_cell_angle_gamma	83.658091
loop_
_atom_site_label
_atom_site_type_symbol
_atom_site_fract_x
_atom_site_fract_y
_atom_site_fract_z
O1	O	0.152122	0.756269	-0.121592
O2	O	0.174246	0.590546	-0.121638
O3	O	-0.019677	0.677215	-0.121614
O4	O	0.346045	0.669600	-0.121616
O5	O	-0.019672	0.677214	0.121985
O6	O	0.174251	0.590545	0.121961
O7	O	0.152127	0.756268	0.122007
Cu8	Cu	0.163190	0.673406	0.144226
Cu9	Cu	0.163184	0.673407	-0.143858
O10	O	0.346050	0.669599	0.121983
C11	C	0.173696	0.569325	0.000156
C12	C	0.172033	0.506096	0.000138
C13	C	0.161589	0.114013	0.132985
C14	C	0.160007	0.054603	0.132991
O15	O	0.159148	0.023878	0.245919
N16	N	0.159220	0.024890	0.000206
C17	C	0.160002	0.054591	-0.132594
O18	O	0.159186	0.023862	-0.245538
C19	C	0.161574	0.114000	-0.132598
C20	C	0.162374	0.143709	0.000196
C21	C	0.162387	0.143722	0.265768
C22	C	0.163971	0.203128	0.265762
C23	C	0.164757	0.232824	0.132973
C24	C	0.163959	0.203115	0.000190
C25	C	0.162347	0.143700	-0.265396
C26	C	0.163919	0.203113	-0.265389
C27	C	0.164719	0.232822	-0.132595
C28	C	0.166328	0.292216	-0.132606
N29	N	0.167116	0.321929	0.000179
C30	C	0.166330	0.292233	0.132969
C31	C	0.156696	-0.070172	-0.132575
C32	C	0.155132	-0.129581	-0.132572
C33	C	0.155135	-0.129564	0.133013
C34	C	0.156708	-0.070155	0.133009
C35	C	0.157483	-0.040459	0.000210
C36	C	0.169658	0.416989	0.132946
C37	C	0.171248	0.476399	0.132927
C38	C	0.171238	0.476378	-0.132657
C39	C	0.169655	0.416972	-0.132640
C40	C	0.168861	0.387279	0.000173
O41	O	0.167183	0.322979	-0.245476
O42	O	0.167130	0.322970	0.245893
C43	C	-0.066454	0.676654	0.000182
C44	C	-0.205843	0.674978	0.000173
C45	C	-0.255694	0.622373	0.000154
C46	C	-0.386666	0.620802	0.000165
C47	C	-0.417925	0.724445	0.000206
C48	C	-0.286955	0.726015	0.000206
C49	C	-0.174582	0.571336	0.000121
C50	C	-0.224433	0.518727	0.000102
C51	C	-0.355404	0.517155	0.000112
C52	C	-0.436526	0.568193	0.000143
C53	C	0.392827	0.670160	0.000183
C54	C	0.532216	0.671836	0.000183
C55	C	0.152677	0.777489	0.000210
C56	C	0.154340	0.840718	0.000218
N57	N	0.163193	0.673409	0.346849
N58	N	0.163170	0.673409	-0.346480
C59	C	0.077353	0.711796	0.423512
C60	C	0.077338	0.711795	0.576848
C61	C	0.249015	0.635018	0.576847
C62	C	0.249023	0.635017	0.423513
C63	C	-0.008477	0.750189	0.346848
C64	C	-0.094323	0.788580	0.423511
C65	C	-0.094338	0.788578	0.576847
C66	C	-0.008507	0.750186	0.653522
H67	H	0.154501	-0.153766	-0.240707
H68	H	0.157339	-0.045998	-0.240722
H69	H	-0.543170	0.566909	0.000150
O70	O	-0.177647	0.825939	0.349170
C71	C	-0.252349	0.924658	0.302120
C72	C	-0.157931	0.882419	0.386441
H73	H	-0.236423	0.970332	0.332200
H74	H	-0.352875	0.916886	0.332267
H75	H	-0.237589	0.918024	0.179374
H76	H	-0.172575	0.889029	0.509206
H77	H	-0.057439	0.890202	0.356173
H78	H	0.171883	0.500567	-0.240771
H79	H	-0.008535	0.750184	0.778379
O80	O	0.332266	0.597650	0.651260
C81	C	0.407039	0.498923	0.698106
C82	C	0.312665	0.541177	0.613770
H83	H	0.391243	0.453256	0.667803
H84	H	0.392289	0.505469	0.820883
H85	H	0.507526	0.506767	0.667989
H86	H	0.212141	0.533359	0.643764
H87	H	0.327526	0.534621	0.491013
O88	O	-0.238464	0.777102	0.000475
C89	C	-0.108670	0.839009	0.126651
C90	C	-0.163523	0.781138	0.126538
H91	H	-0.048047	0.842286	0.228546
H92	H	-0.189092	0.875238	0.126755
H93	H	-0.048191	0.842327	0.024659
H94	H	-0.223988	0.777764	0.228512
H95	H	-0.083042	0.744937	0.126357
O96	O	-0.496773	0.774003	-0.000038
C97	C	-0.662838	0.832361	-0.126187
C98	C	-0.573596	0.776220	-0.126102
H99	H	-0.724991	0.834166	-0.228083
H100	H	-0.604773	0.870253	-0.126269
H101	H	-0.724879	0.834209	-0.024196
H102	H	-0.511537	0.774317	-0.228075
H103	H	-0.631737	0.738355	-0.125944
O104	O	-0.403893	0.466068	0.000356
C105	C	-0.533672	0.404153	0.126483
C106	C	-0.478823	0.462023	0.126418
H107	H	-0.594286	0.400868	0.228378
H108	H	-0.453249	0.367924	0.126553
H109	H	-0.594160	0.400839	0.024492
H110	H	-0.418350	0.465393	0.228392
H111	H	-0.559306	0.498225	0.126272
H112	H	-0.164246	0.819833	0.639265
H113	H	-0.008470	0.750195	0.221993
O114	O	0.332582	0.597788	0.349096
C115	C	0.551321	0.565254	0.302239
C116	C	0.456833	0.607460	0.386582
H117	H	0.651799	0.573051	0.332538
H118	H	0.536686	0.571849	0.179462
H119	H	0.535417	0.519584	0.332353
H120	H	0.472680	0.653146	0.356591
H121	H	0.471492	0.600815	0.509338
H122	H	0.164551	0.227288	-0.373532
O123	O	0.171851	0.505330	0.261837
C124	C	0.064791	0.578411	0.416015
C125	C	0.063970	0.545703	0.269965
H126	H	-0.022435	0.611051	0.422648
H127	H	0.153365	0.601397	0.422683
H128	H	0.064012	0.546963	0.510895
H129	H	0.064703	0.577113	0.175003
H130	H	-0.024597	0.522708	0.263426
O131	O	0.168951	0.388235	0.262089
C132	C	0.169064	0.394541	0.525509
C133	C	0.169886	0.427173	0.379364
H134	H	0.169793	0.426010	0.620364
H135	H	0.256239	0.361874	0.532256
H136	H	0.080452	0.371580	0.532092
H137	H	0.258439	0.450169	0.372683
H138	H	0.082652	0.459808	0.372678
H139	H	0.164615	0.227312	0.373897
O140	O	0.161399	0.114870	0.394736
C141	C	0.050867	0.053814	0.548890
C142	C	0.051804	0.086467	0.402786
H143	H	-0.037718	0.030832	0.555433
H144	H	0.051623	0.085243	0.643832
H145	H	0.138066	0.021158	0.555526
H146	H	-0.035380	0.119123	0.396007
H147	H	0.051113	0.055003	0.307914
H148	H	0.157361	-0.045970	0.241141
H149	H	0.161695	0.119521	-0.373531
O150	O	0.154419	-0.158332	0.262141
C151	C	0.154497	-0.152057	0.525566
C152	C	0.155340	-0.119408	0.379448
H153	H	0.155215	-0.120600	0.620447
H154	H	0.241670	-0.184725	0.532305
H155	H	0.065883	-0.175018	0.532110
H156	H	0.243895	-0.096412	0.372805
H157	H	0.068108	-0.086772	0.372770
H158	H	-0.067937	0.572609	0.000110
H159	H	-0.158376	0.477174	0.000090
H160	H	0.169024	0.392781	-0.240771
