data_functionalizedCrystal
_audit_creation_method	'MofGen! by Chris Wilmer'
_symmetry_space_group_name_H-M	'P1'
_symmetry_Int_Tables_number	1
_symmetry_cell_setting	triclinic
loop_
_symmetry_equiv_pos_as_xyz
  x,y,z
_cell_length_a	17.077404
_cell_length_b	18.050590
_cell_length_c	17.077396
_cell_angle_alpha	89.970225
_cell_angle_beta	89.980499
_cell_angle_gamma	90.018777
loop_
_atom_site_label
_atom_site_type_symbol
_atom_site_fract_x
_atom_site_fract_y
_atom_site_fract_z
Zn1	Zn	1.200078	-0.295655	-0.443836
Zn2	Zn	1.700078	0.204345	0.056164
Zn3	Zn	1.199995	-0.419852	-0.312567
Zn4	Zn	1.699995	0.080148	0.187433
Zn5	Zn	1.068810	-0.295681	-0.312584
Zn6	Zn	1.568810	0.204319	0.187416
Zn7	Zn	1.068788	-0.419808	-0.443790
Zn8	Zn	1.568788	0.080192	0.056210
O9	O	1.134418	-0.357749	-0.378194
O10	O	1.634418	0.142251	0.121806
O11	O	1.309914	-0.312138	-0.426434
O12	O	1.809914	0.187862	0.073566
O13	O	1.182568	-0.403410	-0.202722
O14	O	1.682568	0.096590	0.297278
O15	O	1.086267	-0.191753	-0.330021
O16	O	1.586267	0.308247	0.169979
O17	O	1.309853	-0.403385	-0.329992
O18	O	1.809853	0.096615	0.170008
O19	O	1.182709	-0.191734	-0.426451
O20	O	1.682709	0.308266	0.073549
O21	O	1.086187	-0.312182	-0.202734
O22	O	1.586187	0.187818	0.297266
O23	O	0.958960	-0.312139	-0.329977
O24	O	1.458960	0.187861	0.170023
O25	O	1.086229	-0.403310	-0.553643
O26	O	1.586229	0.096690	-0.053643
O27	O	0.958944	-0.403335	-0.426374
O28	O	1.458944	0.096665	0.073626
O29	O	1.182688	-0.312095	-0.553677
O30	O	1.682688	0.187905	-0.053677
O31	O	1.182546	-0.523771	-0.329948
O32	O	1.682546	-0.023771	0.170052
O33	O	1.086149	-0.523739	-0.426357
O34	O	1.586149	-0.023739	0.073643
C35	C	0.930470	-0.357736	-0.378172
C36	C	1.430470	0.142264	0.121828
C37	C	0.843220	-0.357748	-0.378182
C38	C	1.343220	0.142252	0.121818
C39	C	0.802242	-0.405305	-0.428295
C40	C	1.302242	0.094695	0.071705
C41	C	0.720262	-0.405307	-0.428308
C42	C	1.220262	0.094693	0.071692
C43	C	0.679261	-0.357754	-0.378202
C44	C	1.179261	0.142246	0.121798
C45	C	0.720245	-0.310192	-0.328087
C46	C	1.220245	0.189808	0.171913
C47	C	0.802224	-0.310187	-0.328079
C48	C	1.302224	0.189813	0.171921
C49	C	0.549375	-0.310206	-0.328106
C50	C	1.049375	0.189794	0.171894
C51	C	0.467390	-0.310212	-0.328112
C52	C	0.967390	0.189788	0.171888
C53	C	0.467413	-0.405326	-0.428335
C54	C	0.967413	0.094674	0.071665
C55	C	0.549392	-0.405321	-0.428327
C56	C	1.049392	0.094679	0.071673
C57	C	0.590370	-0.357760	-0.378210
C58	C	1.090370	0.142240	0.121790
C59	C	1.134358	-0.550701	-0.378163
C60	C	1.634358	-0.050701	0.121837
C61	C	1.134404	-0.633247	-0.378176
C62	C	1.634404	-0.133247	0.121824
C63	C	1.186934	-0.832688	-0.325821
C64	C	1.686934	-0.332688	0.174179
C65	C	1.206108	-0.882019	-0.397464
C66	C	1.706108	-0.382019	0.102536
C67	C	1.134448	-0.784377	-0.378207
C68	C	1.634448	-0.284377	0.121793
C69	C	1.115353	-0.882128	-0.306596
C70	C	1.615353	-0.382128	0.193404
C71	C	1.134493	-0.930362	-0.378231
C72	C	1.634493	-0.430362	0.121769
C73	C	1.153660	-0.832621	-0.449887
C74	C	1.653660	-0.332621	0.050113
C75	C	1.062871	-0.832726	-0.358971
C76	C	1.562871	-0.332726	0.141029
C77	C	1.082019	-0.882034	-0.430663
C78	C	1.582019	-0.382034	0.069337
C79	C	1.134424	-0.700279	-0.378192
C80	C	1.634424	-0.200279	0.121808
C81	C	1.134516	-1.014459	-0.378254
C82	C	1.634516	-0.514459	0.121746
C83	C	1.339162	-0.357763	-0.378216
C84	C	1.839162	0.142237	0.121784
C85	C	1.426412	-0.357769	-0.378226
C86	C	1.926412	0.142231	0.121774
C87	C	1.134465	-0.357694	-0.582938
C88	C	1.634465	0.142306	-0.082938
C89	C	1.134486	-0.357671	-0.670188
C90	C	1.634486	0.142329	-0.170188
C91	C	1.134500	-0.164043	-0.378243
C92	C	1.634500	0.335957	0.121757
C93	C	1.134535	-0.081498	-0.378263
C94	C	1.634535	0.418502	0.121737
C95	C	1.184713	-0.310172	-0.711197
C96	C	1.684713	0.189828	-0.211197
C97	C	1.184723	-0.310147	-0.793178
C98	C	1.684723	0.189853	-0.293178
C99	C	1.134508	-0.357626	-0.834148
C100	C	1.634508	0.142374	-0.334148
C101	C	1.084275	-0.405127	-0.793133
C102	C	1.584275	0.094873	-0.293133
C103	C	1.084262	-0.405148	-0.711154
C104	C	1.584262	0.094852	-0.211154
C105	C	1.084306	-0.405083	-0.964003
C106	C	1.584306	0.094917	-0.464003
C107	C	1.084320	-0.405064	-1.045988
C108	C	1.584320	0.094936	-0.545988
C109	C	1.184767	-0.310082	-1.046027
C110	C	1.684767	0.189918	-0.546027
C111	C	1.184754	-0.310102	-0.964048
C112	C	1.684754	0.189898	-0.464048
C113	C	1.134522	-0.357605	-0.923039
C114	C	1.634522	0.142395	-0.423039
C115	C	1.134416	-0.357750	-0.174246
C116	C	1.634416	0.142250	0.325754
C117	C	1.134548	-0.357564	-0.086997
C118	C	1.634548	0.142436	0.413003
H119	H	0.686855	-0.271471	-0.287293
H120	H	1.186855	0.228529	0.212707
H121	H	0.582772	-0.444047	-0.469122
H122	H	1.082772	0.055953	0.030878
C123	C	1.175605	-0.803375	-0.531734
C124	C	1.675605	-0.303375	-0.031734
H125	H	1.175483	-0.750746	-0.531218
H126	H	1.675483	-0.250746	-0.031218
H127	H	1.138573	-0.820665	-0.568985
H128	H	1.638573	-0.320665	-0.068985
H129	H	1.226313	-0.820663	-0.545484
H130	H	1.726313	-0.320663	-0.045484
H131	H	0.434044	-0.444050	-0.469144
H132	H	0.934044	0.055950	0.030856
C133	C	0.847303	-0.257876	-0.272955
C134	C	1.347303	0.242124	0.227045
H135	H	0.901999	-0.264677	-0.280132
H136	H	1.401999	0.235323	0.219868
H137	H	0.833844	-0.268678	-0.220193
H138	H	1.333844	0.231322	0.279807
H139	H	0.833885	-0.207990	-0.284548
H140	H	1.333885	0.292010	0.215452
H141	H	1.043353	-0.443819	-0.677766
H142	H	1.543353	0.056181	-0.177766
H143	H	1.231334	-0.811021	-0.281566
H144	H	1.731334	-0.311021	0.218434
H145	H	1.037653	-0.903564	-0.475026
H146	H	1.537653	-0.403564	0.024974
H147	H	1.043386	-0.443783	-0.826498
H148	H	1.543386	0.056217	-0.326498
C149	C	0.981097	-0.803446	-0.336950
C150	C	1.481097	-0.303446	0.163050
H151	H	0.960976	-0.774483	-0.378821
H152	H	1.460976	-0.274483	0.121179
H153	H	0.984854	-0.773769	-0.291184
H154	H	1.484854	-0.273769	0.208816
H155	H	0.947004	-0.844030	-0.327268
H156	H	1.447004	-0.344030	0.172732
C157	C	1.287902	-0.911278	-0.419464
C158	C	1.787902	-0.411278	0.080536
H159	H	1.325119	-0.894387	-0.382185
H160	H	1.825119	-0.394387	0.117815
H161	H	1.301844	-0.893599	-0.469983
H162	H	1.801844	-0.393599	0.030017
H163	H	1.287206	-0.963903	-0.419777
H164	H	1.787206	-0.463903	0.080223
H165	H	1.043429	-0.443724	-1.079344
H166	H	1.543429	0.056276	-0.579344
H167	H	0.835619	-0.444030	-0.469094
H168	H	1.335619	0.055970	0.030906
H169	H	0.434009	-0.271482	-0.287321
H170	H	0.934009	0.228518	0.212679
C171	C	0.675189	-0.457665	-0.483384
C172	C	1.175189	0.042335	0.016616
H173	H	0.711349	-0.486004	-0.513203
H174	H	1.211349	0.013996	-0.013203
H175	H	0.643209	-0.429343	-0.517662
H176	H	1.143209	0.070657	-0.017662
H177	H	0.643211	-0.489975	-0.453249
H178	H	1.143211	0.010025	0.046751
C179	C	1.093504	-0.911500	-0.224774
C180	C	1.593504	-0.411500	0.275226
H181	H	1.130831	-0.894594	-0.187613
H182	H	1.630831	-0.394594	0.312387
H183	H	1.093206	-0.964120	-0.225482
H184	H	1.593206	-0.464120	0.274518
H185	H	1.042998	-0.893889	-0.210742
H186	H	1.542998	-0.393889	0.289258
C187	C	0.594449	-0.257887	-0.272981
C188	C	1.094449	0.242113	0.227019
H189	H	0.558291	-0.229571	-0.243136
H190	H	1.058291	0.270429	0.256864
H191	H	0.626451	-0.225564	-0.303068
H192	H	1.126451	0.274436	0.196932
H193	H	0.626406	-0.286256	-0.238718
H194	H	1.126406	0.213744	0.261282
C195	C	1.239947	-0.257940	-0.666137
C196	C	1.739947	0.242060	-0.166137
H197	H	1.269855	-0.229642	-0.702305
H198	H	1.769855	0.270358	-0.202305
H199	H	1.274134	-0.286354	-0.634153
H200	H	1.774134	0.213646	-0.134153
H201	H	1.209919	-0.225586	-0.634164
H202	H	1.709919	0.274414	-0.134164
C203	C	1.239977	-0.257901	-0.838284
C204	C	1.739977	0.242099	-0.338284
H205	H	1.269888	-0.229635	-0.802142
H206	H	1.769888	0.270365	-0.302142
H207	H	1.209973	-0.225529	-0.870267
H208	H	1.709973	0.274471	-0.370267
H209	H	1.274173	-0.286311	-0.870262
H210	H	1.774173	0.213689	-0.370262
H211	H	1.225648	-0.271445	-0.930692
H212	H	1.725648	0.228555	-0.430692
C213	C	1.240031	-0.257838	-1.091133
C214	C	1.740031	0.242162	-0.591133
H215	H	1.232845	-0.264622	-1.145824
H216	H	1.732845	0.235378	-0.645824
H217	H	1.292761	-0.268727	-1.077700
H218	H	1.792761	0.231273	-0.577700
H219	H	1.228571	-0.207936	-1.077712
H220	H	1.728571	0.292064	-0.577712
C221	C	1.029077	-0.457359	-0.918895
C222	C	1.529077	0.042641	-0.418895
H223	H	0.999186	-0.485646	-0.955035
H224	H	1.499186	0.014354	-0.455035
H225	H	0.994874	-0.428981	-0.886902
H226	H	1.494874	0.071019	-0.386902
H227	H	1.059117	-0.489722	-0.886927
H228	H	1.559117	0.010278	-0.386927
