data_functionalizedCrystal
_audit_creation_method	'MofGen! by Chris Wilmer'
_symmetry_space_group_name_H-M	'P1'
_symmetry_Int_Tables_number	1
_symmetry_cell_setting	triclinic
loop_
_symmetry_equiv_pos_as_xyz
  x,y,z
_cell_length_a	13.032831
_cell_length_b	14.908178
_cell_length_c	13.032268
_cell_angle_alpha	93.450130
_cell_angle_beta	90.886977
_cell_angle_gamma	85.691885
loop_
_atom_site_label
_atom_site_type_symbol
_atom_site_fract_x
_atom_site_fract_y
_atom_site_fract_z
Zn1	Zn	1.463993	-0.600635	-0.736261
Zn2	Zn	1.478127	-0.733146	-0.554448
Zn3	Zn	1.315984	-0.563482	-0.545260
Zn4	Zn	1.284651	-0.728337	-0.704930
O5	O	1.385689	-0.656400	-0.635225
O6	O	1.608780	-0.635774	-0.729101
O7	O	1.475646	-0.697103	-0.410317
O8	O	1.342816	-0.443962	-0.579863
O9	O	1.619164	-0.733129	-0.595523
O10	O	1.451557	-0.471258	-0.720192
O11	O	1.356521	-0.572452	-0.403566
O12	O	1.168916	-0.567789	-0.549482
O13	O	1.289413	-0.724934	-0.851998
O14	O	1.145895	-0.688907	-0.666791
O15	O	1.421174	-0.631112	-0.875017
O16	O	1.445264	-0.856957	-0.565142
O17	O	1.303118	-0.853424	-0.675701
C18	C	1.120350	-0.623795	-0.603741
C19	C	1.006832	-0.609871	-0.590294
C20	C	0.944867	-0.663668	-0.642242
C21	C	0.827540	-0.649277	-0.628346
C22	C	1.372349	-0.887464	-0.618044
C23	C	1.366731	-0.986328	-0.610740
C24	C	1.469289	-1.200381	-0.743266
C25	C	1.464014	-1.293274	-0.736406
C26	C	1.350900	-1.265009	-0.590167
C27	C	1.356175	-1.172116	-0.597026
C28	C	1.415373	-1.139806	-0.673577
C29	C	1.420654	-1.046911	-0.680431
C30	C	1.307535	-1.018648	-0.534197
C31	C	1.302259	-1.111541	-0.527338
C32	C	1.652064	-0.689133	-0.666832
C33	C	1.765577	-0.703081	-0.680301
C34	C	1.350222	-0.681631	-0.901599
C35	C	1.335108	-0.692382	-1.015112
C36	C	1.399105	-0.424440	-0.652498
C37	C	1.404822	-0.325592	-0.659858
C38	C	1.393563	-0.650755	-1.077110
C39	C	1.377943	-0.661866	-1.194432
C40	C	1.421080	-0.631211	-0.369898
C41	C	1.436406	-0.620233	-0.256427
H42	H	1.468859	-1.020606	-0.742761
O43	O	1.518023	-0.562123	-1.211701
H44	H	1.594592	-0.589145	-1.240500
O45	O	1.287046	-1.299859	-0.507608
H46	H	1.316309	-1.276610	-0.430874
O47	O	1.475173	-0.592645	-1.032380
H48	H	1.551743	-0.619664	-1.061179
O49	O	1.296320	-0.719971	-1.239155
H50	H	1.332984	-0.775408	-1.289812
H51	H	1.273493	-0.736241	-1.048891
O52	O	1.249385	-0.953304	-0.459028
H53	H	1.276641	-0.965718	-0.379664
H54	H	0.799380	-0.759792	-0.735074
H55	H	0.978677	-0.720376	-0.697008
H56	H	0.793735	-0.592559	-0.573584
H57	H	1.254059	-1.137861	-0.465014
O58	O	0.962051	-0.534762	-0.517738
H59	H	0.909945	-0.487997	-0.561165
O60	O	1.533143	-1.165521	-0.825817
H61	H	1.569750	-1.223250	-0.873125
H62	H	1.507912	-1.342592	-0.793158
