data_functionalizedCrystal
_audit_creation_method	'MofGen! by Chris Wilmer'
_symmetry_space_group_name_H-M	'P1'
_symmetry_Int_Tables_number	1
_symmetry_cell_setting	triclinic
loop_
_symmetry_equiv_pos_as_xyz
  x,y,z
_cell_length_a	15.944493
_cell_length_b	15.995350
_cell_length_c	14.472310
_cell_angle_alpha	89.998838
_cell_angle_beta	89.987540
_cell_angle_gamma	96.516291
loop_
_atom_site_label
_atom_site_type_symbol
_atom_site_fract_x
_atom_site_fract_y
_atom_site_fract_z
O1	O	1.114559	-0.107752	-0.076824
O2	O	1.614559	0.392248	0.423176
O3	O	0.870002	-0.121116	-0.076828
O4	O	1.370002	0.378884	0.423172
O5	O	0.998966	0.007455	-0.076825
O6	O	1.498966	0.507455	0.423175
O7	O	0.985596	-0.236323	-0.076827
O8	O	1.485596	0.263677	0.423173
O9	O	0.998933	0.007447	0.076857
O10	O	1.498933	0.507447	0.576857
O11	O	0.869969	-0.121124	0.076854
O12	O	1.369969	0.378876	0.576854
O13	O	1.114526	-0.107759	0.076858
O14	O	1.614526	0.392241	0.576858
Cu15	Cu	0.992245	-0.114442	0.090888
Cu16	Cu	1.492245	0.385558	0.590888
Cu17	Cu	0.992284	-0.114433	-0.090858
Cu18	Cu	1.492284	0.385567	0.409142
O19	O	0.985563	-0.236330	0.076855
O20	O	1.485563	0.263670	0.576855
C21	C	0.838691	-0.120574	0.000012
C22	C	1.338691	0.379426	0.500012
C23	C	0.745443	-0.118936	0.000011
C24	C	1.245443	0.381064	0.500011
C25	C	0.509678	-0.194616	0.000009
C26	C	1.009678	0.305384	0.500009
C27	C	0.459106	-0.153809	0.075787
C28	C	0.959106	0.346191	0.575787
C29	C	0.574722	-0.115902	0.000013
C30	C	1.074722	0.384098	0.500013
C31	C	0.459143	-0.153783	-0.075731
C32	C	0.959143	0.346217	0.424269
C33	C	0.409812	-0.112977	0.000010
C34	C	0.909812	0.387023	0.500010
C35	C	0.525378	-0.075116	0.075853
C36	C	1.025378	0.424884	0.575853
C37	C	0.525418	-0.075101	-0.075734
C38	C	1.025418	0.424899	0.424266
C39	C	0.474879	-0.034236	0.000062
C40	C	0.974879	0.465764	0.500062
C41	C	0.669721	-0.117589	0.000015
C42	C	1.169721	0.382411	0.500015
C43	C	0.314815	-0.111283	0.000015
C44	C	0.814815	0.388717	0.500015
C45	C	0.998397	0.038646	0.000014
C46	C	1.498397	0.538646	0.500014
C47	C	0.996740	0.131596	0.000009
C48	C	1.496740	0.631596	0.500009
C49	C	1.145838	-0.108302	0.000015
C50	C	1.645838	0.391698	0.500015
C51	C	1.239086	-0.109939	0.000011
C52	C	1.739086	0.390061	0.500011
C53	C	0.986132	-0.267521	0.000014
C54	C	1.486132	0.232479	0.500014
C55	C	0.987789	-0.360471	0.000013
C56	C	1.487789	0.139529	0.500013
N57	N	0.992223	-0.114448	0.218719
N58	N	1.492223	0.385552	0.718719
C59	C	0.990788	0.469342	0.000012
C60	C	1.490788	0.969342	0.500012
C61	C	0.898943	0.421894	-0.000334
C62	C	1.398943	0.921894	0.499666
C63	C	0.900600	0.325204	0.000012
C64	C	1.400600	0.825204	0.500012
C65	C	0.993740	0.301782	0.000010
C66	C	1.493740	0.801782	0.500010
C67	C	1.039023	0.342862	0.087769
C68	C	1.539023	0.842862	0.587769
C69	C	1.036716	0.439498	0.087842
C70	C	1.536716	0.939498	0.587842
C71	C	1.038651	0.439865	-0.086923
C72	C	1.538651	0.939865	0.413077
C73	C	1.038629	0.342919	-0.088083
C74	C	1.538629	0.842919	0.411917
C75	C	0.995414	0.207085	0.000012
C76	C	1.495414	0.707085	0.500012
C77	C	0.989118	0.564040	0.000016
C78	C	1.489118	1.064040	0.500016
N79	N	0.992312	-0.114421	-0.218689
N80	N	1.492312	0.385579	0.281311
C81	C	0.992283	-0.114430	0.592810
C82	C	1.492283	0.385570	1.092810
C83	C	0.923046	-0.182995	0.553643
C84	C	1.423046	0.317005	1.053643
C85	C	0.923205	-0.183245	0.446555
C86	C	1.423205	0.316755	0.946555
C87	C	0.992253	-0.114439	0.407219
C88	C	1.492253	0.385561	0.907219
C89	C	1.079897	-0.133507	0.446058
C90	C	1.579897	0.366493	0.946058
C91	C	1.079508	-0.133995	0.553179
C92	C	1.579508	0.366005	1.053179
C93	C	0.974657	-0.026593	0.553340
C94	C	1.474657	0.473407	1.053340
C95	C	0.972647	-0.027179	0.446213
C96	C	1.472647	0.472821	0.946213
C97	C	0.992241	-0.114442	0.302331
C98	C	1.492241	0.385558	0.802331
C99	C	0.992300	-0.114428	0.697699
C100	C	1.492300	0.385572	1.197699
H101	H	0.525298	-0.262420	0.000080
H102	H	1.025298	0.237580	0.500080
H103	H	1.019801	0.026233	0.419440
H104	H	1.519801	0.526233	0.919440
H105	H	0.459417	0.033619	0.000106
H106	H	0.959417	0.533619	0.500106
H107	H	1.025149	0.024431	0.578668
H108	H	1.525149	0.524431	1.078668
Cl109	Cl	0.842281	0.450499	-0.097500
Cl110	Cl	1.342281	0.950499	0.402500
Cl111	Cl	0.414484	-0.205123	-0.174628
Cl112	Cl	0.914484	0.294877	0.325372
Cl113	Cl	0.878109	0.001705	0.595096
Cl114	Cl	1.378109	0.501705	1.095096
H115	H	0.554380	-0.041881	-0.139800
H116	H	1.054380	0.458119	0.360200
Cl117	Cl	0.842339	0.452489	0.096002
Cl118	Cl	1.342339	0.952489	0.596002
H119	H	0.858057	-0.171886	0.420298
H120	H	1.358057	0.328114	0.920298
H121	H	0.865004	0.296780	-0.062897
H122	H	1.365004	0.796780	0.437103
H123	H	0.864737	0.297331	0.063028
H124	H	1.364737	0.797331	0.563028
Cl125	Cl	0.985687	0.467744	0.189124
Cl126	Cl	1.485687	0.967744	0.689124
Cl127	Cl	1.161366	-0.059743	0.593183
Cl128	Cl	1.661366	0.440257	1.093183
H129	H	0.430153	-0.187054	0.139850
H130	H	0.930153	0.312946	0.639850
Cl131	Cl	1.144669	0.321071	0.092811
Cl132	Cl	1.644669	0.821071	0.592811
Cl133	Cl	0.569861	-0.023830	0.174864
Cl134	Cl	1.069861	0.476170	0.674864
H135	H	0.908175	-0.012708	0.420829
H136	H	1.408175	0.487292	0.920829
H137	H	1.095040	-0.198053	0.578155
H138	H	1.595040	0.301947	1.078155
H139	H	1.104146	0.471756	0.091823
H140	H	1.604146	0.971756	0.591823
Cl141	Cl	0.940549	-0.283892	0.406970
Cl142	Cl	1.440549	0.216108	0.906970
H143	H	1.007545	0.314473	0.153078
H144	H	1.507545	0.814473	0.653078
Cl145	Cl	0.992302	0.471561	-0.189620
Cl146	Cl	1.492302	0.971561	0.310380
H147	H	1.005522	0.315669	-0.153004
H148	H	1.505522	0.815669	0.346996
Cl149	Cl	1.143497	0.319215	-0.096273
Cl150	Cl	1.643497	0.819215	0.403727
H151	H	1.106368	0.471636	-0.087514
H152	H	1.606368	0.971636	0.412486
H153	H	0.857687	-0.171823	0.579430
H154	H	1.357687	0.328177	1.079430
H155	H	0.934145	-0.247811	0.580552
H156	H	1.434145	0.252189	1.080552
Cl157	Cl	1.161347	-0.058456	0.406721
Cl158	Cl	1.661347	0.441544	0.906721
H159	H	1.095800	-0.196835	0.419220
H160	H	1.595800	0.303165	0.919220
