data_functionalizedCrystal
_audit_creation_method	'MofGen! by Chris Wilmer'
_symmetry_space_group_name_H-M	'P1'
_symmetry_Int_Tables_number	1
_symmetry_cell_setting	triclinic
loop_
_symmetry_equiv_pos_as_xyz
  x,y,z
_cell_length_a	16.109302
_cell_length_b	12.811415
_cell_length_c	14.586319
_cell_angle_alpha	84.565349
_cell_angle_beta	89.994552
_cell_angle_gamma	83.753707
loop_
_atom_site_label
_atom_site_type_symbol
_atom_site_fract_x
_atom_site_fract_y
_atom_site_fract_z
O1	O	1.103626	0.134916	-0.087497
O2	O	0.861626	0.151705	-0.088885
O3	O	0.988714	-0.009484	-0.075484
O4	O	0.976538	0.296105	-0.100898
O5	O	0.988705	-0.009487	0.076997
O6	O	0.861617	0.151702	0.063596
O7	O	1.103617	0.134913	0.064984
Cu8	Cu	0.982617	0.143308	0.078213
Cu9	Cu	0.982627	0.143310	-0.102114
O10	O	0.976529	0.296102	0.051583
C11	C	0.830644	0.151023	-0.012587
C12	C	0.738342	0.148984	-0.012415
C13	C	0.525978	0.144267	0.071086
C14	C	0.439251	0.142340	0.071243
C15	C	0.439271	0.142348	-0.095001
C16	C	0.525998	0.144268	-0.095156
C17	C	0.569349	0.145233	-0.012111
C18	C	0.395895	0.141385	-0.011798
C19	C	0.301862	0.139296	-0.011629
C20	C	0.663388	0.147321	-0.012280
C21	C	0.988027	-0.048589	0.004007
C22	C	0.985984	-0.165107	0.013692
C23	C	0.982139	-0.384041	-0.134363
C24	C	0.980219	-0.493520	-0.125268
C25	C	0.980218	-0.493543	0.040977
C26	C	0.982138	-0.384065	0.031881
C27	C	0.983100	-0.329318	-0.055791
C28	C	0.985026	-0.219838	-0.064886
C29	C	0.985019	-0.219863	0.101358
C30	C	0.983099	-0.329341	0.110453
C31	C	1.134599	0.135595	-0.011316
C32	C	1.226902	0.137634	-0.011494
C33	C	0.977216	0.335208	-0.027910
C34	C	0.979260	0.451725	-0.037601
N35	N	0.982615	0.143305	0.205045
N36	N	0.982635	0.143305	-0.228945
C37	C	1.038909	0.071954	0.445983
C38	C	1.038911	0.071952	0.541965
C39	C	0.926335	0.214659	0.530109
C40	C	0.926330	0.214655	0.434130
C41	C	0.982621	0.143305	0.392069
C42	C	0.982629	0.143305	0.584030
C43	C	0.982631	0.143303	0.688097
C44	C	0.982618	0.143305	0.287996
H45	H	0.561272	0.145053	0.138707
H46	H	0.403943	0.141554	0.138990
H47	H	0.880490	0.272758	0.390230
C48	C	0.572937	0.145368	-0.185590
C49	C	0.516408	0.144149	-0.258288
C50	C	0.559617	0.145171	-0.341604
H51	H	0.612900	0.084962	-0.184150
H52	H	0.600620	0.207311	-0.194241
H53	H	0.488738	0.082212	-0.249639
H54	H	0.476444	0.204550	-0.259758
H55	H	0.587300	0.207115	-0.350255
H56	H	0.599578	0.084765	-0.340155
H57	H	0.521268	0.144354	-0.390940
H58	H	0.403965	0.141563	-0.162614
C59	C	0.979303	-0.553084	-0.210499
C60	C	1.049631	-0.627787	-0.209155
C61	C	1.048807	-0.682683	-0.287653
H62	H	0.980190	-0.504918	-0.264076
H63	H	0.930153	-0.587834	-0.211072
H64	H	1.098769	-0.593038	-0.208590
H65	H	1.048759	-0.675975	-0.155595
H66	H	0.999656	-0.717433	-0.288226
H67	H	1.049692	-0.634508	-0.341224
H68	H	1.096519	-0.733381	-0.286747
H69	H	0.985811	-0.175265	-0.136274
H70	H	0.880506	0.272753	0.564365
H71	H	0.979428	-0.538136	0.112356
C72	C	0.983143	-0.324777	-0.229626
C73	C	0.981875	-0.396133	-0.296492
C74	C	0.982789	-0.341578	-0.384260
H75	H	1.032304	-0.290083	-0.236093
H76	H	0.935447	-0.274069	-0.237344
H77	H	1.029566	-0.446823	-0.288778
H78	H	0.932718	-0.430831	-0.290056
H79	H	0.935094	-0.290869	-0.391977
H80	H	1.031951	-0.306885	-0.390717
H81	H	0.981922	-0.389983	-0.429639
C82	C	0.982101	-0.388983	0.205558
C83	C	0.980235	-0.496577	0.196709
C84	C	0.979331	-0.551551	0.284300
H85	H	0.934005	-0.363156	0.237644
H86	H	1.030862	-0.379129	0.238888
H87	H	0.931478	-0.506424	0.163392
H88	H	1.028326	-0.522434	0.164638
H89	H	1.028093	-0.541697	0.317631
H90	H	0.931235	-0.525716	0.316380
H91	H	0.978073	-0.624560	0.278308
H92	H	0.985804	-0.175296	0.165337
H93	H	1.084743	0.013855	0.411740
H94	H	1.084744	0.013851	0.585859
