data_functionalizedCrystal
_audit_creation_method	'MofGen! by Chris Wilmer'
_symmetry_space_group_name_H-M	'P1'
_symmetry_Int_Tables_number	1
_symmetry_cell_setting	triclinic
loop_
_symmetry_equiv_pos_as_xyz
  x,y,z
_cell_length_a	18.050590
_cell_length_b	16.120530
_cell_length_c	16.120297
_cell_angle_alpha	89.871860
_cell_angle_beta	92.884174
_cell_angle_gamma	92.907328
loop_
_atom_site_label
_atom_site_type_symbol
_atom_site_fract_x
_atom_site_fract_y
_atom_site_fract_z
Zn1	Zn	0.376261	1.247635	0.534650
Zn2	Zn	0.494490	1.254646	0.395619
Zn3	Zn	0.363711	1.115618	0.388565
Zn4	Zn	0.493806	1.108602	0.527588
O5	O	0.432067	1.181625	0.461606
O6	O	0.397483	1.364934	0.522115
O7	O	0.472176	1.242075	0.278317
O8	O	0.261452	1.133132	0.407947
O9	O	0.484345	1.370085	0.419969
O10	O	0.270672	1.230124	0.515275
O11	O	0.376093	1.139931	0.273134
O12	O	0.375430	0.998319	0.401099
O13	O	0.483179	1.121175	0.644892
O14	O	0.471010	0.993164	0.503239
O15	O	0.396820	1.223321	0.650080
O16	O	0.598324	1.235271	0.413122
O17	O	0.597821	1.127974	0.510079
C18	C	0.421785	0.965568	0.450638
C19	C	0.417405	0.873137	0.445966
C20	C	0.409391	0.703903	0.437442
C21	C	0.454801	0.660185	0.485829
C22	C	0.450342	0.566018	0.481087
C23	C	0.413849	0.798079	0.442184
C24	C	0.238362	1.181629	0.461612
C25	C	0.155816	1.181630	0.461614
C26	C	-0.098021	1.128929	0.403265
C27	C	-0.045878	1.205812	0.386768
C28	C	-0.141300	1.181696	0.461642
C29	C	-0.046365	1.104787	0.478086
C30	C	0.004683	1.181660	0.461626
C31	C	-0.090244	1.258621	0.445108
C32	C	-0.090736	1.157542	0.536458
C33	C	-0.038612	1.234476	0.519993
C34	C	-0.225397	1.181715	0.461649
C35	C	0.088779	1.181648	0.461620
C36	C	0.625021	1.181644	0.461619
C37	C	0.707572	1.181726	0.461656
C38	C	0.441323	1.170683	0.678502
C39	C	0.445267	1.166020	0.770930
C40	C	0.442390	1.398526	0.472617
C41	C	0.446789	1.490957	0.477309
C42	C	0.422796	1.192573	0.245556
C43	C	0.418650	1.197397	0.153136
C44	C	0.452451	1.157476	0.940156
C45	C	0.411468	1.205939	0.983915
C46	C	0.415465	1.201185	1.078078
C47	C	0.448455	1.162229	0.845984
H48	H	-0.123941	1.084383	0.353871
H49	H	0.373380	1.250998	0.950659
O50	O	0.353462	0.659819	0.377844
H51	H	0.364101	0.679722	0.313382
O52	O	-0.115773	1.344784	0.426575
H53	H	-0.066742	1.387582	0.417392
O54	O	-0.004448	1.293631	0.585380
H55	H	-0.023222	1.274097	0.647295
H56	H	0.497026	0.693479	0.530818
O57	O	-0.020832	1.018656	0.496784
H58	H	0.040711	1.019407	0.497313
H59	H	-0.110534	1.137102	0.599716
H60	H	-0.026098	1.226231	0.323491
O61	O	0.502903	1.097791	0.984197
H62	H	0.498165	1.103384	1.052317
