data_functionalizedCrystal
_audit_creation_method	'MofGen! by Chris Wilmer'
_symmetry_space_group_name_H-M	'P1'
_symmetry_Int_Tables_number	1
_symmetry_cell_setting	triclinic
loop_
_symmetry_equiv_pos_as_xyz
  x,y,z
_cell_length_a	23.532407
_cell_length_b	10.967926
_cell_length_c	22.610064
_cell_angle_alpha	102.120938
_cell_angle_beta	89.999397
_cell_angle_gamma	83.801774
loop_
_atom_site_label
_atom_site_type_symbol
_atom_site_fract_x
_atom_site_fract_y
_atom_site_fract_z
O1	O	0.079884	1.654644	0.119460
O2	O	0.087525	1.291268	0.082420
O3	O	0.000844	1.483914	0.102068
O4	O	0.166565	1.461998	0.099812
O5	O	0.000856	1.483880	0.200434
O6	O	0.087537	1.291234	0.180786
O7	O	0.079896	1.654610	0.217825
Zn8	Zn	0.083719	1.472916	0.214923
Zn9	Zn	0.083702	1.472961	0.085322
O10	O	0.166577	1.461964	0.198178
C11	C	0.086974	1.244770	0.126866
C12	C	0.085308	1.106273	0.112749
C13	C	0.084572	1.044509	0.157412
C14	C	0.082849	0.901365	0.142823
C15	C	-0.020370	1.483338	0.151195
C16	C	-0.083598	1.481661	0.151029
C17	C	-0.482028	1.585140	0.161544
C18	C	-0.541438	1.583582	0.161381
O19	O	-0.577559	1.679509	0.171137
N20	N	-0.564809	1.469054	0.149707
C21	C	-0.528766	1.356077	0.138190
O22	O	-0.554100	1.258519	0.128246
C23	C	-0.469357	1.357637	0.138350
C24	C	-0.445989	1.472173	0.150030
C25	C	-0.458660	1.699666	0.173223
C26	C	-0.399254	1.701225	0.173387
C27	C	-0.363215	1.588257	0.161873
C28	C	-0.386583	1.473731	0.150194
C29	C	-0.433315	1.244662	0.126829
C30	C	-0.373902	1.246232	0.126989
C31	C	-0.350535	1.360767	0.138669
C32	C	-0.291138	1.362321	0.138845
N33	N	-0.267768	1.476849	0.150518
C34	C	-0.303806	1.589817	0.162032
C35	C	-0.653530	1.352810	0.137856
C36	C	-0.712938	1.351249	0.137701
C37	C	-0.725606	1.578754	0.160890
C38	C	-0.666197	1.580314	0.161049
C39	C	-0.630159	1.467338	0.149529
C40	C	-0.179048	1.593080	0.162377
C41	C	-0.119636	1.594628	0.162543
C42	C	-0.106973	1.367124	0.139351
C43	C	-0.166380	1.365575	0.139188
C44	C	-0.202416	1.478564	0.150700
O45	O	-0.254982	1.266445	0.129091
O46	O	-0.278464	1.687359	0.171968
C47	C	0.187791	1.462539	0.149049
C48	C	0.251019	1.464217	0.149212
C49	C	0.080447	1.701108	0.173379
C50	C	0.082113	1.839604	0.187492
N51	N	0.083730	1.472895	0.303374
N52	N	0.083687	1.472993	-0.003127
C53	C	0.045326	1.558269	0.720722
C54	C	0.045322	1.558275	0.782643
O55	O	0.012678	1.630810	0.822059
N56	N	0.083690	1.472960	0.804918
C57	C	0.122062	1.387625	0.765267
O58	O	0.154697	1.315059	0.789899
C59	C	0.122063	1.387614	0.703347
C60	C	0.083695	1.472943	0.681077
C61	C	0.006961	1.643589	0.698451
C62	C	0.006966	1.643584	0.636535
C63	C	0.045336	1.558258	0.596890
C64	C	0.083700	1.472938	0.619161
C65	C	0.160431	1.302274	0.663698
C66	C	0.160428	1.302270	0.601774
C67	C	0.122061	1.387598	0.579504
C68	C	0.122075	1.387606	0.517600
N69	N	0.083706	1.472921	0.495325
C70	C	0.045337	1.558247	0.534970
C71	C	0.122056	1.387654	0.895304
C72	C	0.122059	1.387671	0.957223
C73	C	0.045318	1.558319	0.974594
C74	C	0.045319	1.558308	0.912674
C75	C	0.083688	1.472969	0.873029
C76	C	0.045350	1.558230	0.404941
C77	C	0.045360	1.558221	0.343019
C78	C	0.122099	1.387569	0.325653
C79	C	0.122091	1.387582	0.387570
C80	C	0.083712	1.472917	0.427213
O81	O	0.154701	1.315106	0.478147
O82	O	0.012702	1.630791	0.510328
H83	H	-0.100614	1.687901	0.172056
H84	H	-0.024286	1.713072	0.730726
C85	C	0.082984	0.911306	0.253744
H86	H	0.082296	0.853992	0.279872
H87	H	0.116745	0.952152	0.260101
H88	H	0.050440	0.971998	0.262133
H89	H	0.084662	1.053179	0.063711
C90	C	-0.218680	1.717364	0.175045
H91	H	-0.196247	1.785786	0.182029
H92	H	-0.242119	1.721514	0.141165
H93	H	-0.242119	1.721474	0.209772
C94	C	-0.373557	1.827214	0.186224
H95	H	-0.403536	1.894261	0.193050
H96	H	-0.350644	1.832561	0.221071
H97	H	-0.350648	1.832560	0.152460
C98	C	0.081982	0.829660	0.076571
H99	H	0.082665	0.886974	0.050442
H100	H	0.114522	0.768965	0.068184
H101	H	0.048217	0.788820	0.070213
C102	C	-0.498294	1.823942	0.185894
H103	H	-0.475860	1.892362	0.192876
H104	H	-0.521737	1.828097	0.152017
H105	H	-0.521729	1.828052	0.220624
C106	C	-0.640498	1.706300	0.173892
H107	H	-0.670475	1.773350	0.180723
H108	H	-0.617584	1.711634	0.208737
H109	H	-0.617589	1.711654	0.140128
H110	H	0.191672	1.232772	0.569496
C111	C	0.202640	1.208422	0.688182
H112	H	0.225486	1.157606	0.655695
H113	H	0.226536	1.253007	0.716875
H114	H	0.181939	1.156731	0.707074
C115	C	-0.765256	1.703017	0.173544
H116	H	-0.803983	1.685676	0.171768
H117	H	-0.758131	1.750016	0.212636
H118	H	-0.758121	1.750010	0.144024
H119	H	-0.731958	1.257983	0.128200
H120	H	-0.624190	1.260806	0.128479
C121	C	-0.459006	1.118672	0.113975
H122	H	-0.429026	1.051627	0.107134
H123	H	-0.481920	1.113299	0.147728
H124	H	-0.481913	1.113348	0.079122
C125	C	-0.334263	1.121955	0.114319
H126	H	-0.356693	1.053528	0.107345
H127	H	-0.310821	1.117845	0.079599
H128	H	-0.310828	1.117817	0.148207
C129	C	0.164298	1.293709	0.282035
H130	H	0.158797	1.305923	0.241969
H131	H	0.202365	1.306764	0.293508
H132	H	0.157754	1.210520	0.283711
C133	C	-0.192085	1.239591	0.126339
H134	H	-0.162111	1.172536	0.119501
H135	H	-0.215005	1.234229	0.160089
H136	H	-0.214989	1.234276	0.091482
H137	H	-0.077620	1.275149	0.129978
C138	C	0.164272	1.293677	0.412064
H139	H	0.187115	1.242841	0.379580
H140	H	0.188174	1.338200	0.440772
H141	H	0.143536	1.242014	0.430937
H142	H	0.014117	1.627710	0.324890
C143	C	0.164263	1.293811	0.981714
H144	H	0.187109	1.242990	0.949229
H145	H	0.188159	1.338382	1.010412
H146	H	0.143552	1.242127	1.000600
H147	H	0.014098	1.627717	0.437212
C148	C	-0.035225	1.737471	0.612045
H149	H	-0.029726	1.725274	0.569491
H150	H	-0.073294	1.724430	0.620859
H151	H	-0.028671	1.820649	0.630675
C152	C	0.085444	1.116223	0.223659
H153	H	0.086491	1.203023	0.224774
H154	H	0.052041	1.104875	0.244555
H155	H	0.118347	1.085023	0.242517
C156	C	0.164273	1.293792	0.851700
H157	H	0.187124	1.242998	0.873840
H158	H	0.143577	1.242100	0.822280
H159	H	0.188171	1.338382	0.832089
H160	H	0.014076	1.627789	0.894546
C161	C	0.003106	1.652165	1.018210
H162	H	0.008599	1.639934	1.058275
H163	H	0.009633	1.735360	1.016540
H164	H	-0.034959	1.639073	1.006729
