data_functionalizedCrystal
_audit_creation_method	'MofGen! by Chris Wilmer'
_symmetry_space_group_name_H-M	'P1'
_symmetry_Int_Tables_number	1
_symmetry_cell_setting	triclinic
loop_
_symmetry_equiv_pos_as_xyz
  x,y,z
_cell_length_a	10.540539
_cell_length_b	10.540539
_cell_length_c	8.140239
_cell_angle_alpha	89.998610
_cell_angle_beta	89.999332
_cell_angle_gamma	84.525492
loop_
_atom_site_label
_atom_site_type_symbol
_atom_site_fract_x
_atom_site_fract_y
_atom_site_fract_z
O1	O	1.685884	0.178898	-0.136528
O2	O	1.316471	0.195754	-0.136547
O3	O	1.509606	0.002620	-0.136535
O4	O	1.492750	0.372033	-0.136540
O5	O	1.509595	0.002618	0.136692
O6	O	1.316460	0.195752	0.136680
O7	O	1.685873	0.178896	0.136700
Zn8	Zn	1.501165	0.187324	0.180070
Zn9	Zn	1.501179	0.187327	-0.179918
O10	O	1.492739	0.372031	0.136687
C11	C	1.269163	0.194489	0.000064
C12	C	1.128215	0.190707	0.000056
C13	C	0.944788	0.045790	0.000696
C14	C	1.091406	0.049624	0.000063
C15	C	1.066548	0.258604	-0.155965
C16	C	0.920004	0.253789	-0.156078
C17	C	0.919503	0.256656	0.154632
C18	C	1.066485	0.257956	0.156677
C19	C	1.508336	-0.044684	0.000076
C20	C	1.504554	-0.185632	0.000067
C21	C	1.359637	-0.369059	-0.000554
C22	C	1.363471	-0.222441	0.000061
C23	C	1.572444	-0.247291	0.156096
C24	C	1.567629	-0.393836	0.156228
C25	C	1.570510	-0.394351	-0.154483
C26	C	1.571810	-0.247369	-0.156545
C27	C	1.733182	0.180161	0.000085
C28	C	1.874130	0.183943	0.000082
C29	C	1.494008	0.419335	0.000073
C30	C	1.497790	0.560283	0.000071
N31	N	1.501165	0.187321	0.425753
N32	N	1.501190	0.187320	-0.425601
H33	H	1.133156	-0.004174	-0.111971
H34	H	0.872276	0.358560	0.155685
O35	O	1.509976	-0.190867	0.309902
H36	H	1.408104	-0.209499	0.311442
O37	O	0.877738	0.196160	0.311287
H38	H	0.772188	0.199433	0.313541
O39	O	1.708067	-0.215303	-0.169032
H40	H	1.730081	-0.154598	-0.063329
O41	O	0.856458	0.388187	-0.165462
H42	H	0.751415	0.385758	-0.165598
O43	O	1.292688	-0.165987	-0.148068
H44	H	1.255401	-0.243404	-0.220788
O45	O	1.702021	-0.457392	0.165651
H46	H	1.770160	-0.383418	0.170107
H47	H	0.914585	-0.009709	-0.110571
O48	O	1.510035	-0.436128	-0.311143
H49	H	1.427463	-0.489698	-0.280588
O50	O	1.705498	-0.456891	-0.155878
H51	H	1.721612	-0.514155	-0.269691
H52	H	0.891798	0.203609	-0.272704
O53	O	1.147862	-0.021124	0.148218
H54	H	1.070447	-0.058399	0.220959
H55	H	1.088901	0.362212	-0.161771
H56	H	1.676051	-0.224937	0.161903
O57	O	1.506116	-0.193146	-0.309459
H58	H	1.425901	-0.122514	-0.274085
O59	O	1.292214	-0.167113	0.148457
H60	H	1.357807	-0.116830	0.226454
O61	O	0.906921	-0.028046	0.148910
H62	H	0.802554	-0.035158	0.146395
O63	O	1.122942	0.196130	-0.309783
H64	H	1.194872	0.116735	-0.275504
H65	H	1.107443	0.208355	0.272101
H66	H	1.090711	0.360815	0.166096
O67	O	1.501153	-0.431210	0.310706
H68	H	1.402918	-0.382826	0.313426
O69	O	1.285807	-0.406966	-0.148747
H70	H	1.335838	-0.381471	-0.262315
H71	H	1.304128	-0.399267	0.110705
