data_functionalizedCrystal
_audit_creation_method	'MofGen! by Chris Wilmer'
_symmetry_space_group_name_H-M	'P1'
_symmetry_Int_Tables_number	1
_symmetry_cell_setting	triclinic
loop_
_symmetry_equiv_pos_as_xyz
  x,y,z
_cell_length_a	15.995363
_cell_length_b	15.072220
_cell_length_c	14.044190
_cell_angle_alpha	90.005209
_cell_angle_beta	91.655414
_cell_angle_gamma	89.990650
loop_
_atom_site_label
_atom_site_type_symbol
_atom_site_fract_x
_atom_site_fract_y
_atom_site_fract_z
O1	O	-1.120121	0.073727	0.122230
O2	O	-0.620121	0.573727	0.622230
O3	O	-0.877474	0.073745	0.137305
O4	O	-0.377474	0.573745	0.637305
O5	O	-0.995152	0.073719	-0.008218
O6	O	-0.495152	0.573719	0.491782
O7	O	-1.002443	0.073753	0.267752
O8	O	-0.502443	0.573753	0.767752
O9	O	-0.995121	-0.073846	-0.008210
O10	O	-0.495121	0.426154	0.491790
O11	O	-0.877443	-0.073821	0.137313
O12	O	-0.377443	0.426179	0.637313
O13	O	-1.120090	-0.073838	0.122238
O14	O	-0.620090	0.426162	0.622238
Zn15	Zn	-0.998761	-0.097258	0.129777
Zn16	Zn	-0.498761	0.402742	0.629777
Zn17	Zn	-0.998802	0.097165	0.129766
Zn18	Zn	-0.498802	0.597165	0.629766
O19	O	-1.002412	-0.073812	0.267760
O20	O	-0.502412	0.426188	0.767760
C21	C	-0.846217	-0.000036	0.136684
C22	C	-0.346217	0.499964	0.636684
C23	C	-0.753127	-0.000030	0.134809
C24	C	-0.253127	0.499970	0.634809
C25	C	-0.414878	-0.000053	0.128077
C26	C	0.085122	0.499947	0.628077
C27	C	-0.454569	-0.000394	0.024436
C28	C	0.045431	0.499606	0.524436
C29	C	-0.551399	-0.000055	0.026311
C30	C	-0.051399	0.499945	0.526311
C31	C	-0.582688	-0.000042	0.131416
C32	C	-0.082688	0.499958	0.631416
C33	C	-0.545437	0.084227	0.182530
C34	C	-0.045437	0.584227	0.682530
C35	C	-0.448607	0.084290	0.179921
C36	C	0.051393	0.584290	0.679921
C37	C	-0.448393	-0.083518	0.182072
C38	C	0.051607	0.416482	0.682072
C39	C	-0.545336	-0.084625	0.182052
C40	C	-0.045336	0.415375	0.682052
C41	C	-0.677526	-0.000033	0.133309
C42	C	-0.177526	0.499967	0.633309
C43	C	-0.320040	-0.000056	0.126187
C44	C	0.179960	0.499944	0.626187
C45	C	-0.151348	-0.000058	0.122846
C46	C	0.348652	0.499942	0.622846
C47	C	-0.244439	-0.000065	0.124684
C48	C	0.255561	0.499935	0.624684
N49	N	-0.998739	-0.229947	0.129783
N50	N	-0.498739	0.270053	0.629783
C51	C	-0.998800	-0.589149	0.129762
C52	C	-0.498800	-0.089149	0.629762
C53	C	-0.935582	-0.551528	0.207368
C54	C	-0.435582	-0.051528	0.707368
C55	C	-0.935762	-0.448702	0.207651
C56	C	-0.435762	0.051298	0.707651
C57	C	-0.998769	-0.410945	0.129773
C58	C	-0.498769	0.089055	0.629773
C59	C	-1.087748	-0.448239	0.151379
C60	C	-0.587748	0.051761	0.651379
C61	C	-1.087402	-0.551097	0.151931
C62	C	-0.587402	-0.051097	0.651931
C63	C	-0.973802	-0.551260	0.030321
C64	C	-0.473802	-0.051260	0.530321
C65	C	-0.971847	-0.448396	0.030984
C66	C	-0.471847	0.051604	0.530984
C67	C	-0.998757	-0.310231	0.129777
C68	C	-0.498757	0.189769	0.629777
C69	C	-0.998819	-0.689862	0.129760
C70	C	-0.498819	-0.189862	0.629760
C71	C	-0.991947	-0.000066	-0.043528
C72	C	-0.491947	0.499934	0.456472
C73	C	-0.982434	-0.000073	-0.148755
C74	C	-0.482434	0.499927	0.351245
N75	N	-0.998831	0.229854	0.129752
N76	N	-0.498831	0.729854	0.629752
C77	C	-1.032512	-0.000042	-0.399039
C78	C	-0.532512	0.499958	0.100961
C79	C	-0.965055	-0.000043	-0.341413
C80	C	-0.465055	0.499957	0.158587
C81	C	-0.974727	-0.000060	-0.234208
C82	C	-0.474727	0.499940	0.265792
C83	C	-1.022842	-0.000025	-0.506253
C84	C	-0.522842	0.499975	-0.006253
C85	C	-1.005616	-0.000025	0.303071
C86	C	-0.505616	0.499975	0.803071
C87	C	-1.015130	-0.000012	0.408297
C88	C	-0.515130	0.499988	0.908297
H89	H	-0.432939	-0.060828	-0.016990
H90	H	0.067061	0.439172	0.483010
Cl91	Cl	-0.590640	-0.093319	-0.035725
Cl92	Cl	-0.090640	0.406681	0.464275
H93	H	-0.909927	-0.577249	0.009546
H94	H	-0.409927	-0.077249	0.509546
Cl95	Cl	-0.585165	0.181045	0.127710
Cl96	Cl	-0.085165	0.681045	0.627710
Cl97	Cl	-0.833528	-0.589732	0.187807
Cl98	Cl	-0.333528	-0.089732	0.687807
H99	H	-0.569852	-0.146967	0.144739
H100	H	-0.069852	0.353033	0.644739
Cl101	Cl	-1.037450	-0.408735	-0.062358
Cl102	Cl	-0.537450	0.091265	0.437642
H103	H	-0.900039	-0.000034	-0.372592
H104	H	-0.400039	0.499966	0.127408
Cl105	Cl	-1.132886	-0.000063	-0.350904
Cl106	Cl	-0.632886	0.499937	0.149096
H107	H	-0.576247	0.060449	-0.014146
H108	H	-0.076247	0.560449	0.485854
Cl109	Cl	-0.416057	0.181533	0.122357
Cl110	Cl	0.083943	0.681533	0.622357
Cl111	Cl	-0.419577	0.092374	-0.039247
Cl112	Cl	0.080423	0.592374	0.460753
H113	H	-0.565332	0.087370	0.259748
H114	H	-0.065332	0.587370	0.759748
Cl115	Cl	-0.407593	0.090210	0.297397
Cl116	Cl	0.092407	0.590210	0.797397
H117	H	-0.425313	-0.147393	0.148191
H118	H	0.074687	0.352607	0.648191
Cl119	Cl	-1.162591	-0.410482	0.066433
Cl120	Cl	-0.662591	0.089518	0.566433
Cl121	Cl	-0.577890	-0.092468	0.300394
Cl122	Cl	-0.077890	0.407532	0.800394
H123	H	-0.906355	-0.424022	0.014587
H124	H	-0.406355	0.075978	0.514587
H125	H	-0.422341	-0.084080	0.258486
H126	H	0.077659	0.415920	0.758486
Cl127	Cl	-0.961563	-0.410681	0.321594
Cl128	Cl	-0.461563	0.089319	0.821594
Cl129	Cl	-0.834004	-0.409771	0.187837
Cl130	Cl	-0.334004	0.090229	0.687837
Cl131	Cl	-0.961138	-0.591387	0.320664
Cl132	Cl	-0.461138	-0.091387	0.820664
H133	H	-1.019817	-0.575588	-0.027430
H134	H	-0.519817	-0.075588	0.472570
H135	H	-1.108956	-0.422462	0.223074
H136	H	-0.608956	0.077538	0.723074
H137	H	-1.108303	-0.575070	0.224453
H138	H	-0.608303	-0.075070	0.724453
H139	H	-1.136307	-0.575981	0.097636
H140	H	-0.636307	-0.075981	0.597636
