data_functionalizedCrystal
_audit_creation_method	'MofGen! by Chris Wilmer'
_symmetry_space_group_name_H-M	'P1'
_symmetry_Int_Tables_number	1
_symmetry_cell_setting	triclinic
loop_
_symmetry_equiv_pos_as_xyz
  x,y,z
_cell_length_a	15.944551
_cell_length_b	19.188930
_cell_length_c	15.021413
_cell_angle_alpha	89.998889
_cell_angle_beta	89.997174
_cell_angle_gamma	83.321760
loop_
_atom_site_label
_atom_site_type_symbol
_atom_site_fract_x
_atom_site_fract_y
_atom_site_fract_z
O1	O	1.114192	0.090039	-0.073949
O2	O	0.869601	0.101141	-0.073973
O3	O	0.998955	-0.006048	-0.073943
O4	O	0.984838	0.197227	-0.073979
O5	O	0.998934	-0.006033	0.074121
O6	O	0.869580	0.101156	0.074091
O7	O	1.114171	0.090054	0.074115
Zn8	Zn	0.991873	0.095607	0.097611
Zn9	Zn	0.991900	0.095587	-0.097470
O10	O	0.984817	0.197242	0.074085
C11	C	0.838298	0.100687	0.000056
C12	C	0.745057	0.099306	0.000048
C13	C	0.998487	-0.032052	0.000091
C14	C	0.997115	-0.109560	0.000099
C15	C	0.530462	0.029563	0.000078
C16	C	0.469331	0.061941	-0.072931
C17	C	0.574341	0.096806	0.000059
C18	C	0.469332	0.061972	0.073048
C19	C	0.409437	0.094386	0.000074
C20	C	0.514438	0.129203	-0.073010
C21	C	0.514446	0.129225	0.073035
C22	C	0.453332	0.161652	0.000008
C23	C	0.669338	0.098198	0.000050
C24	C	0.314441	0.093000	0.000076
C25	C	1.073016	-0.154288	0.000111
C26	C	1.071726	-0.227115	0.000096
C27	C	0.994532	-0.255211	0.000088
C28	C	0.918622	-0.210474	0.000072
C29	C	0.919913	-0.137648	0.000077
N30	N	0.935519	-0.363364	0.050472
N31	N	0.934298	-0.432546	0.050468
C32	C	0.990637	-0.474630	0.000070
N33	N	1.048256	-0.444921	-0.050314
N34	N	1.049480	-0.375733	-0.050307
C35	C	0.993123	-0.334178	0.000082
C36	C	1.065145	-0.598326	0.000064
C37	C	1.063852	-0.671154	0.000044
C38	C	0.910745	-0.654511	0.000029
C39	C	0.912040	-0.581685	0.000040
C40	C	0.989242	-0.553597	0.000062
C41	C	1.145474	0.090507	0.000083
C42	C	1.238715	0.091889	0.000086
C43	C	0.985285	0.223247	0.000048
C44	C	0.986657	0.300755	0.000035
N45	N	0.991860	0.095621	0.230749
N46	N	0.991919	0.095568	-0.230607
C47	C	0.932038	0.145161	0.470418
C48	C	1.007887	0.158716	0.529757
C49	C	0.991882	0.095603	0.412356
C50	C	0.916053	0.082064	0.529759
C51	C	0.991896	0.095588	0.587780
C52	C	1.067770	0.109189	0.470388
C53	C	0.975885	0.032510	0.470384
C54	C	1.051789	0.046038	0.529697
C55	C	0.991872	0.095614	0.311299
C56	C	0.991914	0.095577	0.688835
H57	H	0.564003	-0.026244	-0.000002
H58	H	0.850233	-0.545266	0.000035
H59	H	0.449335	0.033494	-0.134646
H60	H	1.131917	0.120698	0.444419
O61	O	1.145405	-0.270644	0.000232
C62	C	1.232800	-0.362496	0.076989
C63	C	1.149320	-0.313255	0.076933
H64	H	1.236000	-0.396949	0.139005
H65	H	1.236050	-0.397056	0.015067
H66	H	1.288183	-0.329895	0.076961
H67	H	1.093890	-0.345801	0.076993
H68	H	1.146144	-0.278693	0.138850
O69	O	0.871814	0.195287	0.439399
C70	C	0.820649	0.318433	0.434504
C71	C	0.888911	0.261739	0.469677
H72	H	0.834437	0.372171	0.458985
H73	H	0.820802	0.317697	0.358615
H74	H	0.756129	0.307390	0.459923
H75	H	0.953464	0.272742	0.444324
H76	H	0.888683	0.262488	0.545565
H77	H	0.534463	0.157649	0.134752
H78	H	0.449344	0.033525	0.134770
O79	O	0.538307	0.163051	-0.146704
C80	C	0.653510	0.202362	-0.229357
C81	C	0.626594	0.164003	-0.145874
H82	H	0.724888	0.203157	-0.228704
H83	H	0.634612	0.173885	-0.291521
H84	H	0.620937	0.258490	-0.229618
H85	H	0.659152	0.107874	-0.145526
H86	H	0.645476	0.192534	-0.083747
H87	H	0.419965	0.217516	-0.000043
O88	O	0.835809	-0.681876	-0.000100
C89	C	0.745484	-0.754397	-0.076860
C90	C	0.830389	-0.723463	-0.076808
H91	H	0.741067	-0.788014	-0.138881
H92	H	0.741026	-0.788126	-0.014943
H93	H	0.691471	-0.709902	-0.076820
H94	H	0.884451	-0.767912	-0.076879
H95	H	0.834774	-0.689715	-0.138720
H96	H	1.102459	0.004119	0.555561
O97	O	0.839583	0.068441	0.561019
C98	C	0.754199	0.052475	0.690149
C99	C	0.840835	0.067917	0.654873
H100	H	0.755188	0.052032	0.766033
H101	H	0.703221	0.094794	0.665861
H102	H	0.740064	-0.000888	0.664657
H103	H	0.855050	0.121260	0.680350
H104	H	0.891764	0.025557	0.679153
O105	O	0.846235	-0.094125	0.000189
C106	C	0.758805	-0.002279	0.076923
C107	C	0.842285	-0.051519	0.076895
H108	H	0.755576	0.032170	0.138942
H109	H	0.755583	0.032285	0.015005
H110	H	0.703422	-0.034880	0.076867
H111	H	0.897715	-0.018974	0.076982
H112	H	0.845433	-0.086086	0.138808
H113	H	1.128007	-0.575456	0.000078
H114	H	1.021431	0.212066	0.555837
O115	O	1.148081	-0.127121	0.000087
C116	C	1.299802	-0.151317	0.000166
C117	C	1.214852	-0.182179	0.000173
H118	H	1.353809	-0.195817	0.000254
H119	H	1.304306	-0.117662	-0.061810
H120	H	1.304177	-0.117616	0.062119
H121	H	1.210419	-0.215912	-0.061739
H122	H	1.210384	-0.215794	0.062190
O123	O	0.843688	-0.237846	-0.000053
C124	C	0.753367	-0.310376	-0.076803
C125	C	0.838270	-0.279438	-0.076756
H126	H	0.748951	-0.343998	-0.138820
H127	H	0.748911	-0.344102	-0.014882
H128	H	0.699352	-0.265883	-0.076767
H129	H	0.892334	-0.323886	-0.076824
H130	H	0.842652	-0.245694	-0.138672
O131	O	1.137664	-0.714506	0.000094
C132	C	1.289658	-0.723324	0.000075
C133	C	1.206129	-0.674148	0.000039
H134	H	1.345034	-0.690715	0.000011
H135	H	1.292925	-0.757828	0.062050
H136	H	1.292850	-0.757845	-0.061879
H137	H	1.202882	-0.639584	0.061951
H138	H	1.202897	-0.639693	-0.061977
H139	H	0.962318	-0.020823	0.444285
