data_functionalizedCrystal
_audit_creation_method	'MofGen! by Chris Wilmer'
_symmetry_space_group_name_H-M	'P1'
_symmetry_Int_Tables_number	1
_symmetry_cell_setting	triclinic
loop_
_symmetry_equiv_pos_as_xyz
  x,y,z
_cell_length_a	10.654553
_cell_length_b	10.489741
_cell_length_c	9.730223
_cell_angle_alpha	89.998920
_cell_angle_beta	89.999314
_cell_angle_gamma	84.512676
loop_
_atom_site_label
_atom_site_type_symbol
_atom_site_fract_x
_atom_site_fract_y
_atom_site_fract_z
O1	O	1.667916	0.179175	-0.114305
O2	O	1.302446	0.196241	-0.114304
O3	O	1.493497	0.002106	-0.114296
O4	O	1.476864	0.373310	-0.114312
O5	O	1.493495	0.002111	0.114284
O6	O	1.302443	0.196246	0.114276
O7	O	1.667913	0.179180	0.114275
Zn8	Zn	1.485178	0.187714	0.150568
Zn9	Zn	1.485181	0.187707	-0.150596
O10	O	1.476862	0.373315	0.114268
C11	C	1.255646	0.194989	-0.000014
C12	C	1.116201	0.191238	-0.000013
C13	C	1.492239	-0.045422	-0.000007
C14	C	1.488481	-0.187050	-0.000009
C15	C	0.919657	0.185945	0.124576
C16	C	1.050680	0.189477	0.124584
C17	C	1.050692	0.189479	-0.124626
C18	C	0.919671	0.185956	-0.124633
C19	C	0.919652	0.185939	0.268456
C20	C	1.050674	0.189471	0.268464
C21	C	1.366921	-0.255133	-0.000019
C22	C	1.424344	-0.347280	0.112682
C23	C	1.424375	-0.347260	-0.112679
C24	C	1.545954	-0.277332	0.112785
C25	C	1.545968	-0.277302	-0.112678
C26	C	1.603479	-0.369422	0.000051
C27	C	1.714713	0.180432	-0.000018
C28	C	1.854158	0.184183	-0.000027
C29	C	1.478120	0.420843	-0.000025
C30	C	1.481878	0.562471	-0.000031
N31	N	1.485185	0.187717	0.356104
N32	N	1.485184	0.187693	-0.356133
C33	C	1.569805	0.101784	0.428034
C34	C	1.569801	0.101768	0.571917
C35	C	1.400555	0.273631	0.571928
C36	C	1.400553	0.273639	0.428047
C37	C	1.667521	0.002564	0.428028
C38	C	1.667518	0.002549	0.571911
H39	H	0.866344	0.184537	-0.226097
O40	O	1.247773	-0.195634	0.000040
C41	C	1.252921	-0.061828	-0.001141
H42	H	1.347309	-0.038778	-0.045138
H43	H	1.242510	-0.023316	0.108241
C44	C	1.029180	-0.027136	-0.036717
C45	C	1.145104	0.001175	-0.090766
H46	H	0.962671	0.011729	-0.091996
H47	H	1.025710	-0.117284	-0.035917
H48	H	1.020521	0.004958	0.054433
H49	H	1.153768	-0.030933	-0.181907
H50	H	1.148574	0.091318	-0.091584
O51	O	0.864643	0.291323	0.334095
C52	C	0.895720	0.402460	0.265506
H53	H	0.921934	0.377832	0.154406
H54	H	0.979099	0.441564	0.319158
C55	C	0.749429	0.534555	0.404638
C56	C	0.781615	0.504308	0.268180
H57	H	0.679047	0.597383	0.406293
H58	H	0.728495	0.459682	0.450853
H59	H	0.818921	0.567135	0.449333
H60	H	0.712129	0.471715	0.223493
H61	H	0.802535	0.579179	0.221958
H62	H	1.764040	0.024405	0.610961
H63	H	1.372925	-0.378201	-0.207969
O64	O	0.884472	0.074836	0.321580
C65	C	0.937941	-0.029337	0.242752
H66	H	1.024804	-0.000532	0.186623
H67	H	0.865935	-0.057748	0.164581
C68	C	0.869592	-0.179044	0.407001
C69	C	0.976285	-0.143668	0.338071
H70	H	0.893240	-0.249571	0.465795
H71	H	0.833565	-0.108861	0.460107
H72	H	0.809597	-0.202711	0.341845
H73	H	1.036271	-0.119986	0.403226
H74	H	1.012324	-0.213850	0.284978
O75	O	1.607448	-0.240458	-0.226309
C76	C	1.731441	-0.300971	-0.227273
H77	H	1.735744	-0.391689	-0.162251
H78	H	1.798570	-0.233198	-0.183012
C79	C	1.765106	-0.224659	-0.455809
C80	C	1.770389	-0.336086	-0.375957
H81	H	1.789135	-0.246314	-0.547524
H82	H	1.681571	-0.183885	-0.455159
H83	H	1.821046	-0.168192	-0.418910
H84	H	1.714438	-0.392543	-0.412847
H85	H	1.853916	-0.376870	-0.376617
H86	H	1.331639	0.343602	0.369484
H87	H	1.372908	-0.378265	0.207964
O88	O	1.722838	-0.428395	0.000363
C89	C	1.786446	-0.392708	0.119328
H90	H	1.714641	-0.360075	0.202006
H91	H	1.845655	-0.310967	0.093516
C92	C	1.961135	-0.548309	0.070915
C93	C	1.872943	-0.508238	0.172466
H94	H	2.014495	-0.619570	0.103692
H95	H	1.918284	-0.572349	-0.009237
H96	H	2.010462	-0.480180	0.049415
H97	H	1.823607	-0.576361	0.193952
H98	H	1.915788	-0.484212	0.252623
H99	H	1.597343	-0.246522	0.208173
H100	H	1.104049	0.190925	-0.226076
H101	H	1.646033	-0.095481	0.388979
O102	O	1.085954	0.300381	0.321969
C103	C	1.043328	0.313660	0.458868
H104	H	1.028111	0.215388	0.502311
H105	H	0.950636	0.377636	0.461665
C106	C	1.161225	0.495194	0.492588
C107	C	1.142545	0.374493	0.545949
H108	H	1.222423	0.532724	0.546304
H109	H	1.189939	0.486251	0.400355
H110	H	1.083974	0.548491	0.494921
H111	H	1.219792	0.321193	0.543598
H112	H	1.113846	0.383428	0.638184
H113	H	1.331649	0.343585	0.630520
O114	O	1.106011	0.084273	0.334171
C115	C	1.188063	0.012917	0.242911
H116	H	1.217651	0.078173	0.157518
H117	H	1.137700	-0.067911	0.196280
C118	C	1.269417	-0.124144	0.426444
C119	C	1.305766	-0.043993	0.321570
H120	H	1.342020	-0.159254	0.474965
H121	H	1.214134	-0.076074	0.487928
H122	H	1.227446	-0.191490	0.387570
H123	H	1.347721	0.023359	0.360447
H124	H	1.361060	-0.092053	0.260095
O125	O	1.630919	-0.107988	0.624976
C126	C	1.507683	-0.124487	0.580126
H127	H	1.487006	-0.068005	0.481284
H128	H	1.437115	-0.088385	0.662693
C129	C	1.521717	-0.336951	0.674519
C130	C	1.496326	-0.267586	0.553113
H131	H	1.514708	-0.425221	0.657862
H132	H	1.604742	-0.325834	0.704740
H133	H	1.462907	-0.306851	0.743313
H134	H	1.555144	-0.297675	0.484328
H135	H	1.413310	-0.278711	0.522880
H136	H	1.758720	0.033633	0.383400
