data_functionalizedCrystal
_audit_creation_method	'MofGen! by Chris Wilmer'
_symmetry_space_group_name_H-M	'P1'
_symmetry_Int_Tables_number	1
_symmetry_cell_setting	triclinic
loop_
_symmetry_equiv_pos_as_xyz
  x,y,z
_cell_length_a	16.109301
_cell_length_b	12.376897
_cell_length_c	16.109304
_cell_angle_alpha	77.326824
_cell_angle_beta	83.462059
_cell_angle_gamma	77.337599
loop_
_atom_site_label
_atom_site_type_symbol
_atom_site_fract_x
_atom_site_fract_y
_atom_site_fract_z
O1	O	1.088931	0.093922	0.092650
O2	O	1.588931	0.593922	0.592650
O3	O	0.846867	0.093939	0.105947
O4	O	1.346867	0.593939	0.605947
O5	O	0.974548	0.093930	-0.021732
O6	O	1.474548	0.593930	0.478268
O7	O	0.961251	0.093930	0.220330
O8	O	1.461251	0.593930	0.720330
O9	O	1.002963	-0.094070	0.006721
O10	O	1.502963	0.405930	0.506721
O11	O	0.875283	-0.094062	0.134400
O12	O	1.375283	0.405938	0.634400
O13	O	1.117347	-0.094079	0.121103
O14	O	1.617347	0.405921	0.621103
Zn15	Zn	1.000827	-0.123920	0.132269
Zn16	Zn	1.500827	0.376080	0.632269
Zn17	Zn	0.963388	0.123779	0.094781
Zn18	Zn	1.463388	0.623779	0.594781
O19	O	0.989667	-0.094071	0.248783
O20	O	1.489667	0.405929	0.748783
C21	C	0.830100	-0.000059	0.119635
C22	C	1.330100	0.499941	0.619635
C23	C	0.737803	-0.000053	0.118018
C24	C	1.237803	0.499947	0.618018
N25	N	1.026384	-0.292968	0.157854
N26	N	1.526384	0.207032	0.657854
C27	C	0.515534	-0.000066	0.190028
C28	C	1.015534	0.499934	0.690028
C29	C	0.428814	-0.000073	0.188505
C30	C	0.928814	0.499927	0.688505
C31	C	0.448686	-0.000068	0.037016
C32	C	0.948686	0.499932	0.537016
C33	C	0.535405	-0.000069	0.038541
C34	C	1.035405	0.499931	0.538541
C35	C	0.568825	-0.000062	0.115049
C36	C	1.068825	0.499938	0.615049
C37	C	0.395387	-0.000068	0.112001
C38	C	0.895387	0.499932	0.612001
C39	C	0.301362	-0.000076	0.110349
C40	C	0.801362	0.499924	0.610349
C41	C	0.662857	-0.000056	0.116701
C42	C	1.162857	0.499944	0.616701
C43	C	0.878480	-0.648012	0.009794
C44	C	1.378480	-0.148012	0.509794
C45	C	0.860579	-0.529680	-0.008114
C46	C	1.360579	-0.029680	0.491886
C47	C	0.902029	-0.470496	0.033377
C48	C	1.402029	0.029504	0.533377
C49	C	0.961382	-0.529656	0.092778
C50	C	1.461382	-0.029656	0.592778
C51	C	0.979290	-0.648000	0.110684
C52	C	1.479290	-0.148000	0.610684
C53	C	1.002838	-0.470484	0.134266
C54	C	1.502838	0.029516	0.634266
C55	C	1.062192	-0.529645	0.193667
C56	C	1.562192	-0.029645	0.693667
C57	C	1.080096	-0.647977	0.211570
C58	C	1.580096	-0.147977	0.711570
C59	C	1.038647	-0.707161	0.170080
C60	C	1.538647	-0.207161	0.670080
C61	C	0.984931	-0.352140	0.116360
C62	C	1.484931	0.147860	0.616360
C63	C	1.085741	-0.352128	0.217250
C64	C	1.585741	0.147872	0.717250
C65	C	1.103642	-0.470461	0.235158
C66	C	1.603642	0.029539	0.735158
C67	C	1.134114	-0.000078	0.107416
C68	C	1.634114	0.499922	0.607416
C69	C	1.226409	-0.000078	0.109031
C70	C	1.726409	0.499922	0.609031
C71	C	0.988216	-0.000067	-0.038481
C72	C	1.488216	0.499933	0.461519
C73	C	0.986599	-0.000060	-0.130777
C74	C	1.486599	0.499940	0.369223
N75	N	0.937837	0.292827	0.069190
N76	N	1.437837	0.792827	0.569190
C77	C	0.967376	0.102416	-0.358624
C78	C	1.467376	0.602416	0.141376
C79	C	0.965851	0.102415	-0.445344
C80	C	1.465851	0.602415	0.054656
C81	C	0.996835	-0.102554	-0.414320
C82	C	1.496835	0.397446	0.085680
C83	C	0.998355	-0.102552	-0.327601
C84	C	1.498355	0.397448	0.172399
C85	C	0.983629	-0.000064	-0.299756
C86	C	1.483629	0.499936	0.200244
C87	C	0.980584	-0.000067	-0.473195
C88	C	1.480584	0.499933	0.026805
C89	C	0.978929	-0.000069	-0.567221
C90	C	1.478929	0.499931	-0.067221
C91	C	0.985282	-0.000061	-0.205724
C92	C	1.485282	0.499939	0.294276
C93	C	0.975998	-0.000070	0.265531
C94	C	1.475998	0.499930	0.765531
C95	C	0.977614	-0.000071	0.357826
C96	C	1.477614	0.499929	0.857826
H97	H	0.385427	-0.000078	0.249561
H98	H	0.885427	0.499922	0.749561
H99	H	0.844744	-0.696210	-0.023986
H100	H	1.344744	-0.196210	0.476014
N101	N	1.130454	-0.288304	0.261999
N102	N	1.630454	0.211696	0.761999
H103	H	1.086818	-0.239216	0.295256
H104	H	1.586818	0.260784	0.795256
H105	H	1.170779	-0.343806	0.302296
H106	H	1.670779	0.156194	0.802296
H107	H	0.578799	-0.000069	-0.022520
H108	H	1.078799	0.499931	0.477480
H109	H	0.936604	-0.303983	0.067996
H110	H	1.436604	0.196017	0.567996
N111	N	1.144111	-0.711785	0.275639
N112	N	1.644111	-0.211785	0.775639
H113	H	1.149166	-0.795731	0.280685
H114	H	1.649166	-0.295731	0.780685
H115	H	1.201450	-0.691087	0.256104
H116	H	1.701450	-0.191087	0.756104
N117	N	1.012736	-0.213089	-0.444356
N118	N	1.512736	0.286911	0.055644
H119	H	0.961294	-0.217666	-0.472897
H120	H	1.461294	0.282334	0.027103
H121	H	1.064332	-0.217579	-0.486362
H122	H	1.564332	0.282421	0.013638
N123	N	0.551575	-0.000061	0.272547
N124	N	1.051575	0.499939	0.772547
H125	H	0.542677	-0.069755	0.315940
H126	H	1.042677	0.430245	0.815940
H127	H	0.614585	-0.000014	0.262065
H128	H	1.114585	0.499986	0.762065
N129	N	0.948374	0.212945	-0.508845
N130	N	1.448374	0.712945	-0.008845
H131	H	0.939295	0.277866	-0.478045
H132	H	1.439295	0.777866	0.021955
H133	H	0.998603	0.217354	-0.552229
H134	H	1.498603	0.717354	-0.052229
H135	H	0.421466	-0.000081	-0.025273
H136	H	0.921466	0.499919	0.474727
N137	N	0.882725	-0.342866	0.014063
N138	N	1.382725	0.157134	0.514063
H139	H	0.838835	-0.314368	-0.029862
H140	H	1.338835	0.185632	0.470138
H141	H	0.859780	-0.314459	0.068031
H142	H	1.359780	0.185541	0.568031
N143	N	0.796571	-0.465873	-0.072181
N144	N	1.296571	0.034127	0.427819
H145	H	0.773029	-0.521319	-0.095748
H146	H	1.273029	-0.021319	0.404252
H147	H	0.748489	-0.416782	-0.043375
H148	H	1.248489	0.083218	0.456625
H149	H	1.011586	-0.186008	-0.279666
H150	H	1.511586	0.313992	0.220334
N151	N	0.951493	0.212950	-0.328588
N152	N	1.451493	0.712950	0.171412
H153	H	0.940964	0.277870	-0.379043
H154	H	1.440964	0.777870	0.120957
H155	H	0.899940	0.217417	-0.286529
H156	H	1.399940	0.717417	0.213471
N157	N	1.167656	-0.534274	0.299226
N158	N	1.667656	-0.034274	0.799226
H159	H	1.172707	-0.618218	0.304270
H160	H	1.672707	-0.118218	0.804270
H161	H	1.224996	-0.513580	0.279691
H162	H	1.724996	-0.013580	0.779691
H163	H	1.053215	-0.803517	0.184662
H164	H	1.553215	-0.303517	0.684662
