data_functionalizedCrystal
_audit_creation_method	'MofGen! by Chris Wilmer'
_symmetry_space_group_name_H-M	'P1'
_symmetry_Int_Tables_number	1
_symmetry_cell_setting	triclinic
loop_
_symmetry_equiv_pos_as_xyz
  x,y,z
_cell_length_a	14.519731
_cell_length_b	14.519709
_cell_length_c	12.996460
_cell_angle_alpha	90.007090
_cell_angle_beta	89.994327
_cell_angle_gamma	96.315501
loop_
_atom_site_label
_atom_site_type_symbol
_atom_site_fract_x
_atom_site_fract_y
_atom_site_fract_z
O1	O	1.223857	-0.120986	-0.085571
O2	O	1.473857	0.129014	0.164429
O3	O	1.723857	0.379014	0.414429
O4	O	1.973857	0.629014	0.664429
O5	O	0.955382	-0.135203	-0.085573
O6	O	1.205382	0.114797	0.164427
O7	O	1.455382	0.364797	0.414427
O8	O	1.705382	0.614797	0.664427
O9	O	1.096738	0.006143	-0.085563
O10	O	1.346738	0.256143	0.164437
O11	O	1.596738	0.506143	0.414437
O12	O	1.846738	0.756143	0.664437
O13	O	1.082501	-0.262332	-0.085582
O14	O	1.332501	-0.012332	0.164418
O15	O	1.582501	0.237668	0.414418
O16	O	1.832501	0.487668	0.664418
O17	O	1.096723	0.006151	0.085571
O18	O	1.346723	0.256151	0.335571
O19	O	1.596723	0.506151	0.585571
O20	O	1.846723	0.756151	0.835571
O21	O	0.955368	-0.135195	0.085561
O22	O	1.205368	0.114805	0.335561
O23	O	1.455368	0.364805	0.585561
O24	O	1.705368	0.614805	0.835561
O25	O	1.223842	-0.120979	0.085563
O26	O	1.473842	0.129021	0.335563
O27	O	1.723842	0.379021	0.585563
O28	O	1.973842	0.629021	0.835563
Cu29	Cu	1.089603	-0.128086	0.101187
Cu30	Cu	1.339603	0.121914	0.351187
Cu31	Cu	1.589603	0.371914	0.601187
Cu32	Cu	1.839603	0.621914	0.851187
Cu33	Cu	1.089621	-0.128095	-0.101198
Cu34	Cu	1.339621	0.121905	0.148802
Cu35	Cu	1.589621	0.371905	0.398802
Cu36	Cu	1.839621	0.621905	0.648802
O37	O	1.082487	-0.262325	0.085552
O38	O	1.332487	-0.012325	0.335552
O39	O	1.582487	0.237675	0.585552
O40	O	1.832487	0.487675	0.835552
C41	C	0.921016	-0.134532	-0.000006
C42	C	1.171016	0.115468	0.249994
C43	C	1.421016	0.365468	0.499994
C44	C	1.671016	0.615468	0.749994
C45	C	0.818635	-0.132536	-0.000007
C46	C	1.068635	0.117464	0.249993
C47	C	1.318635	0.367464	0.499993
C48	C	1.568635	0.617464	0.749993
C49	C	0.735491	-0.130915	-0.000011
C50	C	0.985491	0.119085	0.249989
C51	C	1.235491	0.369085	0.499989
C52	C	1.485491	0.619085	0.749989
C53	C	0.631182	-0.128888	-0.000011
C54	C	0.881182	0.121112	0.249989
C55	C	1.131182	0.371112	0.499989
C56	C	1.381182	0.621112	0.749989
C57	C	0.548043	-0.127280	-0.000011
C58	C	0.798043	0.122720	0.249989
C59	C	1.048043	0.372720	0.499989
C60	C	1.298043	0.622720	0.749989
C61	C	0.443728	-0.125253	-0.000013
C62	C	0.693728	0.124747	0.249987
C63	C	0.943728	0.374747	0.499987
C64	C	1.193728	0.624747	0.749987
C65	C	1.096067	0.040507	0.000004
C66	C	1.346067	0.290507	0.250004
C67	C	1.596067	0.540507	0.500004
C68	C	1.846067	0.790507	0.750004
C69	C	1.094079	0.142889	0.000005
C70	C	1.344079	0.392889	0.250005
C71	C	1.594079	0.642889	0.500005
C72	C	1.844079	0.892889	0.750005
C73	C	1.258209	-0.121649	-0.000007
C74	C	1.508209	0.128351	0.249993
C75	C	1.758209	0.378351	0.499993
C76	C	2.008209	0.628351	0.749993
C77	C	1.360589	-0.123645	-0.000013
C78	C	1.610589	0.126355	0.249987
C79	C	1.860589	0.376355	0.499987
C80	C	2.110589	0.626355	0.749987
C81	C	1.083157	-0.296688	-0.000017
C82	C	1.333157	-0.046688	0.249983
C83	C	1.583157	0.203312	0.499983
C84	C	1.833157	0.453312	0.749983
C85	C	1.085146	-0.399070	-0.000024
C86	C	1.335146	-0.149070	0.249976
C87	C	1.585146	0.100930	0.499976
C88	C	1.835146	0.350930	0.749976
N89	N	1.089598	-0.128079	0.243535
N90	N	1.339598	0.121921	0.493535
N91	N	1.589598	0.371921	0.743535
N92	N	1.839598	0.621921	0.993535
C93	C	1.086759	0.517785	-0.000022
C94	C	1.336759	0.767785	0.249978
C95	C	1.586759	1.017785	0.499978
C96	C	1.836759	1.267785	0.749978
C97	C	1.088792	0.413477	-0.000014
C98	C	1.338792	0.663477	0.249986
C99	C	1.588792	0.913477	0.499986
C100	C	1.838792	1.163477	0.749986
C101	C	1.090419	0.330340	-0.000008
C102	C	1.340419	0.580340	0.249992
C103	C	1.590419	0.830340	0.499992
C104	C	1.840419	1.080340	0.749992
C105	C	1.092452	0.226025	-0.000002
C106	C	1.342452	0.476025	0.249998
C107	C	1.592452	0.726025	0.499998
C108	C	1.842452	0.976025	0.749998
N109	N	1.089634	-0.128095	-0.243545
N110	N	1.339634	0.121905	0.006455
N111	N	1.589634	0.371905	0.256455
N112	N	1.839634	0.621905	0.506455
C113	C	1.089620	-0.128096	0.663349
C114	C	1.339620	0.121904	0.913349
C115	C	1.589620	0.371904	1.163349
C116	C	1.839620	0.621904	1.413349
C117	C	1.089611	-0.128094	0.546544
C118	C	1.339611	0.121906	0.796544
C119	C	1.589611	0.371906	1.046544
C120	C	1.839611	0.621906	1.296544
C121	C	1.089609	-0.128088	0.453445
C122	C	1.339609	0.121912	0.703445
C123	C	1.589609	0.371912	0.953445
C124	C	1.839609	0.621912	1.203445
C125	C	1.089600	-0.128085	0.336633
C126	C	1.339600	0.121915	0.586633
C127	C	1.589600	0.371915	0.836633
C128	C	1.839600	0.621915	1.086633
