data_functionalizedCrystal
_audit_creation_method	'MofGen! by Chris Wilmer'
_symmetry_space_group_name_H-M	'P1'
_symmetry_Int_Tables_number	1
_symmetry_cell_setting	triclinic
loop_
_symmetry_equiv_pos_as_xyz
  x,y,z
_cell_length_a	12.759401
_cell_length_b	12.759399
_cell_length_c	12.759393
_cell_angle_alpha	90.032031
_cell_angle_beta	90.019837
_cell_angle_gamma	90.016641
loop_
_atom_site_label
_atom_site_type_symbol
_atom_site_fract_x
_atom_site_fract_y
_atom_site_fract_z
Zn1	Zn	1.606252	-0.418161	0.594017
Zn2	Zn	1.606145	-0.593880	0.418336
Zn3	Zn	1.430554	-0.418220	0.418352
Zn4	Zn	1.430541	-0.593803	0.593973
O5	O	1.518373	-0.506016	0.506170
O6	O	1.753259	-0.441478	0.570724
O7	O	1.582813	-0.570635	0.271317
O8	O	1.453911	-0.271191	0.441680
O9	O	1.753180	-0.570578	0.441652
O10	O	1.582995	-0.271148	0.570740
O11	O	1.453807	-0.441579	0.271329
O12	O	1.283531	-0.441505	0.441637
O13	O	1.453889	-0.570447	0.741000
O14	O	1.283522	-0.570504	0.570665
O15	O	1.582983	-0.441403	0.741032
O16	O	1.582801	-0.740891	0.441609
O17	O	1.453785	-0.740834	0.570649
C18	C	1.245406	-0.506003	0.506149
C19	C	1.128629	-0.506023	0.506165
C20	C	1.073790	-0.573296	0.573244
C21	C	0.964066	-0.573300	0.573265
C22	C	0.964030	-0.438756	0.439118
C23	C	1.073752	-0.438747	0.439104
C24	C	1.518309	-0.778984	0.506146
C25	C	1.518377	-0.895760	0.506171
C26	C	1.585632	-0.950617	0.439056
C27	C	1.585700	-1.060341	0.439091
C28	C	1.451248	-1.060342	0.573359
C29	C	1.451187	-0.950620	0.573328
C30	C	1.709709	-1.210217	0.401704
C31	C	1.776955	-1.265077	0.334573
C32	C	1.793119	-1.229538	0.232062
C33	C	1.742023	-1.139141	0.196662
C34	C	1.674769	-1.084287	0.263788
C35	C	1.658625	-1.119824	0.366313
C36	C	1.327176	-0.800742	0.610705
C37	C	1.259916	-0.745885	0.677826
C38	C	1.243741	-0.781422	0.780338
C39	C	1.294819	-0.871822	0.815734
C40	C	1.362079	-0.926679	0.748613
C41	C	1.378256	-0.891135	0.646102
C42	C	1.792406	-0.506030	0.506191
C43	C	1.909183	-0.506036	0.506200
C44	C	1.518446	-0.505910	0.780203
C45	C	1.518478	-0.505865	0.896980
C46	C	1.518466	-0.231983	0.506217
C47	C	1.518506	-0.115206	0.506237
C48	C	1.518360	-0.506046	0.233202
C49	C	1.518533	-0.505796	0.116426
C50	C	1.451328	-0.438653	0.951848
C51	C	1.451353	-0.438620	1.061572
C52	C	1.585685	-0.573015	1.061551
C53	C	1.585654	-0.573052	0.951829
C54	C	1.327503	-0.401024	1.211522
C55	C	1.260363	-0.333795	1.266394
C56	C	1.244259	-0.231292	1.230804
C57	C	1.295311	-0.195996	1.140346
C58	C	1.362459	-0.263218	1.085480
C59	C	1.378542	-0.365736	1.121067
C60	C	1.709506	-0.610638	0.801876
C61	C	1.776660	-0.677856	0.747009
C62	C	1.792774	-0.780361	0.782595
C63	C	1.741741	-0.815654	0.873058
C64	C	1.674587	-0.748435	0.927926
C65	C	1.658471	-0.645931	0.892331
H66	H	0.919336	-0.383984	0.384518
H67	H	1.189592	-0.176554	1.275489
H68	H	1.218796	-0.362543	1.340046
N69	N	1.832077	-1.362562	0.372758
H70	H	1.877127	-1.391922	0.314675
H71	H	1.778297	-1.416506	0.394268
H72	H	1.340596	-0.484494	1.240499
N73	N	1.277941	-0.085433	1.101964
H74	H	1.320468	-0.073277	1.036336
H75	H	1.300546	-0.034220	1.157967
H76	H	1.118403	-0.383959	0.384480
H77	H	1.640344	-0.905952	0.384374
N78	N	1.692278	-1.248551	0.512272
H79	H	1.641927	-1.200083	0.549430
H80	H	1.761319	-1.249607	0.550994
N81	N	1.378777	-1.119512	0.645785
H82	H	1.389016	-1.197346	0.635619
H83	H	1.303742	-1.100408	0.629360
H84	H	1.847874	-1.274213	0.177404
H85	H	1.403673	-1.000285	0.777443
H86	H	1.818225	-0.649107	0.673357
N87	N	1.277372	-0.910166	0.926298
H88	H	1.227015	-0.861697	0.963448
H89	H	1.346406	-0.911225	0.965033
N90	N	1.171185	-0.722265	0.852732
H91	H	1.141271	-0.659608	0.814755
H92	H	1.211553	-0.697813	0.916308
N93	N	1.692116	-0.500076	0.763487
H94	H	1.734642	-0.487917	0.697860
H95	H	1.714716	-0.448860	0.819489
H96	H	1.404029	-0.234479	1.011833
H97	H	1.118467	-0.628073	0.627852
N98	N	1.619656	-0.986797	0.225621
H99	H	1.640094	-0.972607	0.150490
H100	H	1.640657	-0.925262	0.270813
N101	N	1.658133	-0.645482	1.120709
H102	H	1.647965	-0.635261	1.198544
H103	H	1.733169	-0.629148	1.101540
H104	H	1.754866	-0.899120	0.902037
H105	H	1.633035	-0.777178	1.001586
N106	N	1.759454	-1.100808	0.086094
H107	H	1.690460	-1.099769	0.047282
H108	H	1.809848	-1.149298	0.049028
N109	N	1.865216	-0.852860	0.723426
H110	H	1.895111	-0.814951	0.660723
H111	H	1.824771	-0.916413	0.699045
N112	N	1.204812	-0.648387	0.639649
H113	H	1.225268	-0.634192	0.564524
H114	H	1.225801	-0.586855	0.684850
N115	N	0.904916	-0.645862	0.645609
H116	H	0.956333	-0.688478	0.688085
H117	H	0.859362	-0.694430	0.602758
H118	H	1.340349	-0.771793	0.527233
N119	N	1.378880	-0.366188	0.892687
H120	H	1.336345	-0.323606	0.944099
H121	H	1.330230	-0.408962	0.847146
