data_functionalizedCrystal
_audit_creation_method	'MofGen! by Chris Wilmer'
_symmetry_space_group_name_H-M	'P1'
_symmetry_Int_Tables_number	1
_symmetry_cell_setting	triclinic
loop_
_symmetry_equiv_pos_as_xyz
  x,y,z
_cell_length_a	14.908783
_cell_length_b	14.908178
_cell_length_c	14.908308
_cell_angle_alpha	90.221621
_cell_angle_beta	90.211273
_cell_angle_gamma	96.402596
loop_
_atom_site_label
_atom_site_type_symbol
_atom_site_fract_x
_atom_site_fract_y
_atom_site_fract_z
Zn1	Zn	1.328235	-0.315439	0.568627
Zn2	Zn	1.828235	0.184561	1.068627
Zn3	Zn	1.329145	-0.457100	0.409643
Zn4	Zn	1.829145	0.042900	0.909643
Zn5	Zn	1.186601	-0.314463	0.409657
Zn6	Zn	1.686601	0.185537	0.909657
Zn7	Zn	1.169235	-0.474370	0.550213
Zn8	Zn	1.669235	0.025630	1.050213
O9	O	1.253304	-0.390343	0.484535
O10	O	1.753304	0.109657	0.984535
O11	O	1.454552	-0.327412	0.555237
O12	O	1.954552	0.172588	1.055237
O13	O	1.317884	-0.430543	0.284287
O14	O	1.817884	0.069457	0.784287
O15	O	1.212275	-0.188386	0.438457
O16	O	1.712275	0.311614	0.938457
O17	O	1.455221	-0.431489	0.438433
O18	O	1.955221	0.068511	0.938433
O19	O	1.316333	-0.189103	0.555251
O20	O	1.816333	0.310897	1.055251
O21	O	1.213158	-0.325749	0.284297
O22	O	1.713158	0.174251	0.784297
O23	O	1.058100	-0.342494	0.420603
O24	O	1.558100	0.157506	0.920603
O25	O	1.182678	-0.460923	0.678014
O26	O	1.682678	0.039077	1.178014
O27	O	1.045342	-0.459977	0.523868
O28	O	1.545342	0.040023	1.023868
O29	O	1.299495	-0.344158	0.691543
O30	O	1.799495	0.155842	1.191543
O31	O	1.301046	-0.585597	0.420578
O32	O	1.801046	-0.085597	0.920578
O33	O	1.183561	-0.598285	0.523854
O34	O	1.683561	-0.098285	1.023854
C35	C	1.018999	-0.403004	0.470239
C36	C	1.518999	0.096996	0.970239
C37	C	0.918760	-0.408444	0.464144
C38	C	1.418760	0.091556	0.964144
C39	C	0.729683	-0.310458	0.574483
C40	C	1.229683	0.189542	1.074483
C41	C	0.635500	-0.315566	0.568758
C42	C	1.135500	0.184434	1.068758
C43	C	0.636209	-0.423762	0.446966
C44	C	1.136209	0.076238	0.946966
C45	C	0.730392	-0.418654	0.452691
C46	C	1.230392	0.081346	0.952691
C47	C	0.777126	-0.362001	0.516452
C48	C	1.277126	0.137999	1.016452
C49	C	0.871311	-0.356899	0.522180
C50	C	1.371311	0.143101	1.022180
C51	C	0.872019	-0.465090	0.400385
C52	C	1.372019	0.034910	0.900385
C53	C	0.777835	-0.470197	0.394660
C54	C	1.277835	0.029803	0.894660
C55	C	1.240541	-0.624665	0.470237
C56	C	1.740541	-0.124665	0.970237
C57	C	1.235162	-0.724907	0.464156
C58	C	1.735162	-0.224907	0.964156
C59	C	1.333314	-0.913880	0.574463
C60	C	1.833314	-0.413880	1.074463
C61	C	1.328262	-1.008065	0.568752
C62	C	1.828262	-0.508065	1.068752
C63	C	1.220003	-1.007466	0.447028
C64	C	1.720003	-0.507466	0.947028
C65	C	1.225054	-0.913280	0.452739
C66	C	1.725054	-0.413280	0.952739
C67	C	1.281713	-0.866490	0.516458
C68	C	1.781713	-0.366490	1.016458
C69	C	1.286768	-0.772302	0.522164
C70	C	1.786768	-0.272302	1.022164
C71	C	1.178505	-0.771705	0.400444
C72	C	1.678505	-0.271705	0.900444
C73	C	1.173453	-0.865891	0.394733
C74	C	1.673453	-0.365891	0.894733
C75	C	1.488523	-0.377633	0.498887
C76	C	1.988523	0.122367	0.998887
C77	C	1.588759	-0.372217	0.505003
C78	C	2.088759	0.127783	1.005003
C79	C	1.239048	-0.404576	0.718191
C80	C	1.739048	0.095424	1.218191
C81	C	1.232973	-0.410641	0.817762
C82	C	1.732973	0.089359	1.317762
C83	C	1.266140	-0.155106	0.498910
C84	C	1.766140	0.344894	0.998910
C85	C	1.271610	-0.054862	0.505035
C86	C	1.771610	0.445138	1.005035
C87	C	1.267560	-0.376098	0.251795
C88	C	1.767560	0.123902	0.751795
C89	C	1.273823	-0.369770	0.152251
C90	C	1.773823	0.130230	0.652251
C91	C	1.343196	-0.300429	1.018955
C92	C	1.843196	0.199571	1.518955
C93	C	1.337491	-0.306124	1.112510
C94	C	1.837491	0.193876	1.612510
C95	C	1.215854	-0.427722	1.098430
C96	C	1.715854	0.072278	1.598430
C97	C	1.221559	-0.422026	1.004875
C98	C	1.721559	0.077974	1.504875
C99	C	1.285233	-0.358379	0.965140
C100	C	1.785233	0.141621	1.465140
C101	C	1.290942	-0.352688	0.871583
C102	C	1.790942	0.147312	1.371583
C103	C	1.169301	-0.474281	0.857505
C104	C	1.669301	0.025719	1.357505
C105	C	1.163596	-0.479976	0.951060
C106	C	1.663596	0.020024	1.451060
H107	H	0.767734	-0.264333	0.626403
H108	H	1.267734	0.235667	1.126403
H109	H	1.379454	-0.875782	0.626340
H110	H	1.879454	-0.375782	1.126340
H111	H	1.173870	-1.045579	0.395155
H112	H	1.673870	-0.545579	0.895155
C113	C	0.584787	-0.486068	0.376828
C114	C	1.084787	0.013932	0.876828
N115	N	0.546054	-0.532996	0.323999
N116	N	1.046054	-0.032996	0.823999
H117	H	1.111753	-0.531795	0.983425
H118	H	1.611753	-0.031795	1.483425
C119	C	0.924213	-0.521793	0.336548
C120	C	1.424213	-0.021793	0.836548
N121	N	0.963527	-0.564502	0.288469
N122	N	1.463527	-0.064502	0.788469
H123	H	1.342790	-0.300864	0.839233
H124	H	1.842790	0.199136	1.339233
H125	H	1.395047	-0.248609	0.986603
H126	H	1.895047	0.251391	1.486603
H127	H	0.739772	-0.516320	0.342745
H128	H	1.239772	-0.016320	0.842745
C129	C	1.105538	-0.538031	0.798301
C130	C	1.605538	-0.038031	1.298301
N131	N	1.057514	-0.586047	0.753708
N132	N	1.557514	-0.086047	1.253708
H133	H	1.136491	-0.733110	0.353210
H134	H	1.636491	-0.233110	0.853210
H135	H	1.127322	-0.904000	0.342857
H136	H	1.627322	-0.404000	0.842857
H137	H	1.384689	-0.258933	1.156323
H138	H	1.884689	0.241067	1.656323
H139	H	1.164013	-0.479540	1.130798
H140	H	1.664013	0.020460	1.630798
C141	C	1.385033	-1.060190	0.632558
C142	C	1.885033	-0.560190	1.132558
N143	N	1.427796	-1.099450	0.680619
N144	N	1.927796	-0.599450	1.180619
C145	C	0.583316	-0.258867	0.632600
C146	C	1.083316	0.241133	1.132600
N147	N	0.544011	-0.216159	0.680688
N148	N	1.044011	0.283841	1.180688
C149	C	1.349092	-0.720835	0.592256
C150	C	1.849092	-0.220835	1.092256
N151	N	1.396034	-0.682073	0.645053
N152	N	1.896034	-0.182073	1.145053
C153	C	0.922717	-0.294577	0.592316
C154	C	1.422717	0.205423	1.092316
N155	N	0.961434	-0.247631	0.645141
N156	N	1.461434	0.252369	1.145141
