data_functionalizedCrystal
_audit_creation_method	'MofGen! by Chris Wilmer'
_symmetry_space_group_name_H-M	'P1'
_symmetry_Int_Tables_number	1
_symmetry_cell_setting	triclinic
loop_
_symmetry_equiv_pos_as_xyz
  x,y,z
_cell_length_a	12.827893
_cell_length_b	16.959453
_cell_length_c	12.827885
_cell_angle_alpha	90.033972
_cell_angle_beta	90.019272
_cell_angle_gamma	90.020148
loop_
_atom_site_label
_atom_site_type_symbol
_atom_site_fract_x
_atom_site_fract_y
_atom_site_fract_z
Zn1	Zn	1.597636	-0.314640	0.590818
Zn2	Zn	2.097636	0.185360	1.090818
Zn3	Zn	1.597516	-0.446839	0.416066
Zn4	Zn	2.097516	0.053161	0.916066
Zn5	Zn	1.422878	-0.314679	0.416092
Zn6	Zn	1.922878	0.185321	0.916092
Zn7	Zn	1.422849	-0.446781	0.590766
Zn8	Zn	1.922849	0.053219	1.090766
O9	O	1.510220	-0.380735	0.503435
O10	O	2.010220	0.119265	1.003435
O11	O	1.743856	-0.332185	0.567648
O12	O	2.243856	0.167815	1.067648
O13	O	1.574312	-0.429348	0.269833
O14	O	2.074312	0.070652	0.769833
O15	O	1.446122	-0.204063	0.439303
O16	O	1.946122	0.295937	0.939303
O17	O	1.743768	-0.429311	0.439258
O18	O	2.243768	0.070689	0.939258
O19	O	1.574516	-0.204034	0.567673
O20	O	2.074516	0.295966	1.067673
O21	O	1.446006	-0.332251	0.269852
O22	O	1.946006	0.167749	0.769852
O23	O	1.276638	-0.332194	0.439252
O24	O	1.776638	0.167806	0.939252
O25	O	1.446073	-0.429211	0.737009
O26	O	1.946073	0.070789	1.237009
O27	O	1.276617	-0.429249	0.567584
O28	O	1.776617	0.070751	1.067584
O29	O	1.574488	-0.332128	0.737047
O30	O	2.074488	0.167872	1.237047
O31	O	1.574284	-0.557442	0.439207
O32	O	2.074284	-0.057442	0.939207
O33	O	1.445957	-0.557399	0.567559
O34	O	1.945957	-0.057399	1.067559
C35	C	1.238710	-0.380720	0.503416
C36	C	1.738710	0.119280	1.003416
C37	C	1.122557	-0.380733	0.503432
C38	C	1.622557	0.119267	1.003432
C39	C	1.070815	-0.332757	0.567062
C40	C	1.570815	0.167243	1.067062
C41	C	0.950765	-0.332769	0.567080
C42	C	1.450765	0.167231	1.067080
C43	C	1.510133	-0.586101	0.503397
C44	C	2.010133	-0.086101	1.003397
C45	C	1.510191	-0.673957	0.503416
C46	C	2.010191	-0.173957	1.003416
C47	C	1.577160	-1.045360	0.570404
C48	C	2.077160	-0.545360	1.070404
C49	C	1.443571	-1.045506	0.436622
C50	C	1.943571	-0.545506	0.936622
C51	C	1.443532	-0.962961	0.436598
C52	C	1.943532	-0.462961	0.936598
C53	C	1.510307	-0.921610	0.503479
C54	C	2.010307	-0.421610	1.003479
C55	C	1.577121	-0.962806	0.570384
C56	C	2.077121	-0.462806	1.070384
C57	C	1.376712	-0.921759	0.369701
C58	C	1.876712	-0.421759	0.869701
C59	C	1.376670	-0.839208	0.369675
C60	C	1.876670	-0.339208	0.869675
C61	C	1.443451	-0.797856	0.436552
C62	C	1.943451	-0.297856	0.936552
C63	C	1.510269	-0.839057	0.503459
C64	C	2.010269	-0.339057	1.003459
C65	C	1.577044	-0.797707	0.570341
C66	C	2.077044	-0.297707	1.070341
C67	C	1.643867	-0.838906	0.637243
C68	C	2.143867	-0.338906	1.137243
C69	C	1.643903	-0.921454	0.637261
C70	C	2.143903	-0.421454	1.137261
C71	C	1.443416	-0.715308	0.436534
C72	C	1.943416	-0.215308	0.936534
C73	C	1.577005	-0.715153	0.570321
C74	C	2.077005	-0.215153	1.070321
C75	C	1.782790	-0.380750	0.503456
C76	C	2.282790	0.119250	1.003456
C77	C	1.898943	-0.380756	0.503465
C78	C	2.398943	0.119244	1.003465
C79	C	1.510291	-0.380659	0.776006
C80	C	2.010291	0.119341	1.276006
C81	C	1.510321	-0.380626	0.892159
C82	C	2.010321	0.119374	1.392159
C83	C	1.510336	-0.174566	0.503497
C84	C	2.010336	0.325434	1.003497
C85	C	1.510385	-0.086710	0.503523
C86	C	2.010385	0.413290	1.003523
C87	C	1.510209	-0.380753	0.231926
C88	C	2.010209	0.119247	0.731926
C89	C	1.510381	-0.380563	0.115773
C90	C	2.010381	0.119437	0.615773
C91	C	1.573872	-0.332577	0.943963
C92	C	2.073872	0.167423	1.443963
C93	C	1.573905	-0.332543	1.064013
C94	C	2.073905	0.167457	1.564013
H95	H	1.077978	-0.421814	0.448967
H96	H	1.577978	0.078186	0.948967
H97	H	1.631386	-0.681491	0.624780
H98	H	2.131386	-0.181491	1.124780
Br99	Br	1.664604	-0.263981	1.138259
Br100	Br	2.164604	0.236019	1.638259
H101	H	1.698231	-0.805229	0.691704
H102	H	2.198231	-0.305229	1.191704
H103	H	1.698306	-0.955006	0.691731
H104	H	2.198306	-0.455006	1.191731
Br105	Br	1.667851	-1.101269	0.661190
Br106	Br	2.167851	-0.601269	1.161190
H107	H	0.943433	-0.421837	0.448991
H108	H	1.443433	0.078163	0.948991
H109	H	1.455930	-0.421732	0.936685
H110	H	1.955930	0.078268	1.436685
Br111	Br	1.352933	-1.101624	0.345877
Br112	Br	1.852933	-0.601624	0.845877
Br113	Br	1.286069	-0.977879	0.278965
Br114	Br	1.786069	-0.477879	0.778965
Br115	Br	0.876609	-0.264312	0.657893
Br116	Br	1.376609	0.235688	1.157893
H117	H	1.322260	-0.805668	0.315199
H118	H	1.822260	-0.305668	0.815199
Br119	Br	1.352730	-0.659397	0.345751
Br120	Br	1.852730	-0.159397	0.845751
H121	H	1.455974	-0.421705	1.071230
H122	H	1.955974	0.078295	1.571230
Br123	Br	1.664490	-0.264028	0.869762
Br124	Br	2.164490	0.235972	1.369762
Br125	Br	1.145106	-0.264274	0.657837
Br126	Br	1.645106	0.235726	1.157837
