data_functionalizedCrystal
_audit_creation_method	'MofGen! by Chris Wilmer'
_symmetry_space_group_name_H-M	'P1'
_symmetry_Int_Tables_number	1
_symmetry_cell_setting	triclinic
loop_
_symmetry_equiv_pos_as_xyz
  x,y,z
_cell_length_a	10.654553
_cell_length_b	10.654550
_cell_length_c	9.130313
_cell_angle_alpha	90.004484
_cell_angle_beta	89.998095
_cell_angle_gamma	95.514381
loop_
_atom_site_label
_atom_site_type_symbol
_atom_site_fract_x
_atom_site_fract_y
_atom_site_fract_z
O1	O	1.667836	-0.176421	-0.121746
O2	O	1.302359	-0.193223	-0.121759
O3	O	1.493501	-0.002083	-0.121747
O4	O	1.476694	-0.367561	-0.121758
O5	O	1.493488	-0.002073	0.121852
O6	O	1.302346	-0.193213	0.121839
O7	O	1.667824	-0.176412	0.121853
Cu8	Cu	1.485084	-0.184811	0.144089
Cu9	Cu	1.485099	-0.184823	-0.143995
O10	O	1.476682	-0.367552	0.121840
C11	C	1.255554	-0.191984	0.000038
C12	C	1.116111	-0.188290	0.000033
N13	N	1.485083	-0.184803	0.346711
C14	C	1.714628	-0.177651	0.000052
C15	C	1.854071	-0.181345	0.000047
C16	C	1.492260	0.044720	0.000051
C17	C	1.488569	0.184163	0.000045
C18	C	1.919579	-0.183070	0.132831
C19	C	2.050600	-0.186547	0.132824
C20	C	2.050594	-0.186568	-0.132760
C21	C	1.919574	-0.183100	-0.132753
C22	C	1.854076	-0.181315	0.265631
C23	C	1.919585	-0.183039	0.398425
C24	C	2.050605	-0.186516	0.398419
C25	C	2.116118	-0.188269	0.265618
C26	C	1.477922	-0.414354	0.000039
C27	C	1.481614	-0.553798	0.000035
C28	C	1.601110	0.263647	0.000054
C29	C	1.597633	0.394668	0.000044
C30	C	1.369064	0.366708	0.000022
C31	C	1.372542	0.235689	0.000022
C32	C	1.717136	0.212121	0.000077
C33	C	1.829687	0.291607	0.000087
C34	C	1.826210	0.422628	0.000077
C35	C	1.710183	0.474163	0.000056
N36	N	1.485110	-0.184822	-0.346618
C37	C	1.408274	-0.107938	0.576747
C38	C	1.408263	-0.107925	0.423410
C39	C	1.561927	-0.261690	0.423357
C40	C	1.561944	-0.261696	0.576691
C41	C	1.331440	-0.031065	0.653438
C42	C	1.254597	0.045824	0.576803
C43	C	1.254586	0.045838	0.423466
C44	C	1.331419	-0.031038	0.346764
H45	H	1.747393	-0.178481	0.265651
Cl46	Cl	1.223212	0.431497	0.000001
H47	H	2.103944	-0.187995	-0.240880
H48	H	1.866236	-0.181699	-0.240877
Cl49	Cl	1.231059	0.135760	0.000011
Cl50	Cl	1.158024	0.142472	0.673224
Cl51	Cl	1.157987	0.142497	0.327128
Cl52	Cl	1.658505	-0.358331	0.326931
Cl53	Cl	1.837227	-0.180851	0.565364
Cl54	Cl	1.658545	-0.358345	0.673040
Cl55	Cl	2.132954	-0.188699	0.565356
Cl56	Cl	2.280830	-0.192652	0.265615
Cl57	Cl	1.331412	-0.031009	0.153996
H58	H	1.719980	0.105439	0.000090
Cl59	Cl	1.967699	0.522549	0.000074
H60	H	1.924152	0.249638	0.000067
Cl61	Cl	1.705817	0.638877	0.000109
Cl62	Cl	1.331441	-0.031083	0.846203
