data_functionalizedCrystal
_audit_creation_method	'MofGen! by Chris Wilmer'
_symmetry_space_group_name_H-M	'P1'
_symmetry_Int_Tables_number	1
_symmetry_cell_setting	triclinic
loop_
_symmetry_equiv_pos_as_xyz
  x,y,z
_cell_length_a	27.732064
_cell_length_b	19.188930
_cell_length_c	18.266242
_cell_angle_alpha	89.988525
_cell_angle_beta	89.998592
_cell_angle_gamma	82.897103
loop_
_atom_site_label
_atom_site_type_symbol
_atom_site_fract_x
_atom_site_fract_y
_atom_site_fract_z
O1	O	0.641179	0.083134	-0.060758
O2	O	0.500425	0.095754	-0.060790
O3	O	0.574864	-0.012237	-0.060759
O4	O	0.566740	0.191125	-0.060789
O5	O	0.574852	-0.012242	0.061003
O6	O	0.500413	0.095749	0.060972
O7	O	0.641167	0.083129	0.061004
Zn8	Zn	0.570788	0.089438	0.080320
Zn9	Zn	0.570804	0.089445	-0.080106
O10	O	0.566728	0.191120	0.060973
C11	C	0.482411	0.095485	0.000088
C12	C	0.428755	0.094682	0.000076
C13	C	0.051470	0.025398	0.000128
C14	C	0.253139	0.028353	0.000109
O15	O	0.284228	-0.025409	0.000144
N16	N	0.272463	0.092390	0.000096
C17	C	0.241365	0.155692	0.000093
O18	O	0.262428	0.210227	0.000089
C19	C	0.039697	0.152736	0.000118
C20	C	0.020376	0.088695	0.000123
C21	C	0.032149	-0.038638	0.000135
C22	C	-0.018265	-0.039376	0.000135
C23	C	-0.049359	0.023921	0.000130
C24	C	-0.030038	0.087957	0.000124
C25	C	0.008600	0.216038	0.000120
C26	C	-0.041820	0.215293	0.000128
C27	C	-0.061140	0.151252	0.000133
C28	C	-0.111546	0.150516	0.000119
N29	N	-0.130869	0.086479	0.000132
C30	C	-0.099776	0.023182	0.000138
C31	C	0.347244	0.157240	0.000078
C32	C	0.397661	0.157979	0.000071
C33	C	0.409432	0.030640	0.000088
C34	C	0.359014	0.029901	0.000091
C35	C	0.327921	0.093203	0.000091
C36	C	-0.205650	0.021636	0.000139
C37	C	-0.256069	0.020904	0.000137
C38	C	-0.267836	0.148243	0.000123
C39	C	-0.217421	0.148976	0.000121
C40	C	-0.186328	0.085667	0.000132
O41	O	-0.142663	0.204250	0.000092
O42	O	-0.120848	-0.031345	0.000158
C43	C	0.101884	0.026136	0.000127
C44	C	0.121205	0.090171	0.000121
C45	C	0.090112	0.153469	0.000116
C46	C	0.171622	0.090911	0.000114
C47	C	0.202716	0.027613	0.000119
C48	C	0.183392	-0.036424	0.000132
C49	C	0.132978	-0.037162	0.000133
C50	C	0.109435	0.217506	0.000103
C51	C	0.159850	0.218239	0.000101
C52	C	0.190943	0.154941	0.000107
C53	C	0.574595	-0.038249	0.000124
C54	C	0.573805	-0.115749	0.000130
C55	C	0.659180	0.083398	0.000125
C56	C	0.712837	0.084201	0.000131
C57	C	0.617483	-0.160947	0.000144
C58	C	0.616741	-0.233767	0.000132
C59	C	0.572319	-0.261384	0.000121
C60	C	0.528635	-0.216175	0.000104
C61	C	0.529378	-0.143357	0.000108
N62	N	0.538359	-0.369177	0.041552
N63	N	0.537656	-0.438351	0.041549
C64	C	0.570077	-0.480778	0.000106
N65	N	0.603235	-0.451419	-0.041325
N66	N	0.603940	-0.382239	-0.041319
C67	C	0.571508	-0.340341	0.000116
C68	C	0.612954	-0.604936	0.000105
C69	C	0.612210	-0.677756	0.000089
C70	C	0.524102	-0.660163	0.000068
C71	C	0.524847	-0.587345	0.000078
C72	C	0.569274	-0.559736	0.000099
C73	C	0.566997	0.217132	0.000088
C74	C	0.567787	0.294632	0.000077
N75	N	0.570780	0.089433	0.189807
N76	N	0.570816	0.089445	-0.189593
C77	C	0.603752	0.041637	0.228130
C78	C	0.603755	0.041634	0.304775
C79	C	0.570791	0.089438	0.343094
C80	C	0.537812	0.137237	0.304762
C81	C	0.537807	0.137234	0.228119
N82	N	0.564508	0.151285	0.463416
N83	N	0.564516	0.151285	0.536225
C84	C	0.570804	0.089448	0.574017
N85	N	0.577094	0.027608	0.536250
N86	N	0.577088	0.027608	0.463435
C87	C	0.570793	0.089446	0.426201
C88	C	0.603782	0.041645	0.695446
C89	C	0.603781	0.041641	0.772093
C90	C	0.537841	0.137250	0.772079
C91	C	0.537839	0.137248	0.695434
C92	C	0.570812	0.089447	0.657122
H93	H	-0.201690	0.201123	0.000116
H94	H	0.492466	-0.238665	0.000094
C95	C	-0.076019	0.284927	0.000121
H96	H	-0.057289	0.323168	0.000110
H97	H	-0.095934	0.287286	0.042581
H98	H	-0.095930	0.287289	-0.042347
H99	H	0.084123	0.269051	0.000100
C100	C	0.661819	-0.574560	0.000120
H101	H	0.656006	-0.524718	0.000131
H102	H	0.679802	-0.590095	-0.042338
H103	H	0.679793	-0.590119	0.042589
C104	C	0.501580	0.189834	0.814221
H105	H	0.506307	0.182993	0.865356
H106	H	0.469337	0.182570	0.801667
H107	H	0.506732	0.236383	0.801648
H108	H	-0.293161	0.199778	0.000115
C109	C	-0.039511	-0.109822	0.000155
H110	H	-0.013767	-0.147408	0.000166
H111	H	-0.058937	-0.112765	-0.042301
H112	H	-0.058929	-0.112759	0.042627
H113	H	0.117253	-0.089310	0.000137
H114	H	0.434757	-0.020900	0.000090
C115	C	0.481330	-0.093637	0.000101
H116	H	0.454766	-0.120511	0.000096
H117	H	0.479793	-0.064851	-0.042356
H118	H	0.479785	-0.064879	0.042572
H119	H	0.175575	0.270392	0.000092
H120	H	0.057461	-0.090186	0.000141
C121	C	0.640027	-0.010939	0.346942
H122	H	0.635305	-0.004092	0.398075
H123	H	0.672267	-0.003670	0.334373
H124	H	0.634878	-0.057492	0.334398
C125	C	0.313047	0.226877	0.000071
H126	H	0.331781	0.265115	0.000054
H127	H	0.293135	0.229242	0.042533
H128	H	0.293135	0.229239	-0.042395
H129	H	0.630599	0.002713	0.196939
C130	C	0.475238	-0.690533	0.000055
H131	H	0.481050	-0.740375	0.000057
H132	H	0.457264	-0.674974	-0.042409
H133	H	0.457256	-0.674997	0.042518
H134	H	0.510971	0.176159	0.335966
H135	H	0.510991	0.176170	0.664230
H136	H	0.489279	-0.550543	0.000071
H137	H	0.653659	-0.138474	0.000159
H138	H	0.208718	-0.087963	0.000132
C139	C	0.664789	-0.283494	0.000151
H140	H	0.691354	-0.256622	0.000170
H141	H	0.666338	-0.312260	-0.042308
H142	H	0.666320	-0.312271	0.042619
H143	H	0.647779	-0.714557	0.000096
C144	C	0.501539	0.189816	0.185962
H145	H	0.481908	0.218290	0.219758
H146	H	0.481472	0.164899	0.156070
H147	H	0.518867	0.218712	0.156058
C148	C	0.640045	-0.010940	0.653300
H149	H	0.659678	-0.039414	0.687104
H150	H	0.660110	0.013976	0.623392
H151	H	0.622714	-0.039835	0.623413
H152	H	0.630630	0.002717	0.803295
C153	C	-0.171456	-0.048002	0.000140
H154	H	-0.190189	-0.086240	0.000135
H155	H	-0.151539	-0.050376	0.042597
H156	H	-0.151547	-0.050355	-0.042331
C157	C	-0.277321	-0.049542	0.000141
H158	H	-0.311801	-0.040921	0.000134
H159	H	-0.266639	-0.075587	0.042604
H160	H	-0.266638	-0.075573	-0.042324
C161	C	0.418908	0.228424	0.000058
H162	H	0.393165	0.266012	0.000063
H163	H	0.438329	0.231368	-0.042405
H164	H	0.438331	0.231357	0.042523
C165	C	0.337766	-0.040543	0.000104
H166	H	0.363509	-0.078131	0.000110
H167	H	0.318340	-0.043479	-0.042352
H168	H	0.318348	-0.043483	0.042576
H169	H	0.024321	0.268187	0.000112
