data_functionalizedCrystal
_audit_creation_method	'MofGen! by Chris Wilmer'
_symmetry_space_group_name_H-M	'P1'
_symmetry_Int_Tables_number	1
_symmetry_cell_setting	triclinic
loop_
_symmetry_equiv_pos_as_xyz
  x,y,z
_cell_length_a	8.597278
_cell_length_b	8.559649
_cell_length_c	7.681481
_cell_angle_alpha	85.086760
_cell_angle_beta	103.491538
_cell_angle_gamma	77.625102
loop_
_atom_site_label
_atom_site_type_symbol
_atom_site_fract_x
_atom_site_fract_y
_atom_site_fract_z
O1	O	0.037138	-2.105024	-0.140767
O2	O	-0.045183	-1.639817	-0.153263
O3	O	0.229575	-1.885142	-0.111572
O4	O	-0.237620	-1.859699	-0.182459
O5	O	0.263462	-1.915337	0.186428
O6	O	-0.011297	-1.670013	0.144736
O7	O	0.071024	-2.135219	0.157233
Zn8	Zn	0.035244	-1.907410	0.198298
Zn9	Zn	-0.009403	-1.867626	-0.194329
O10	O	-0.203734	-1.889894	0.115541
C11	C	-0.034479	-1.595385	-0.005211
C12	C	-0.053049	-1.418004	-0.008031
C13	C	0.305776	-1.899189	0.046415
C14	C	0.482341	-1.896039	0.073194
C15	C	0.060319	-2.179651	0.009176
C16	C	0.078888	-2.357031	0.011985
C17	C	-0.279935	-1.875847	-0.042450
C18	C	-0.456502	-1.878995	-0.069241
N19	N	0.065717	-1.934573	0.466256
N20	N	-0.039861	-1.840476	-0.462285
H21	H	0.565058	-1.908216	0.215632
H22	H	0.173478	-2.030645	0.557814
O23	O	0.444611	-1.864208	-0.239118
C24	C	0.312623	-1.726600	-0.268558
H25	H	0.292296	-1.695269	-0.132990
H26	H	0.342898	-1.620484	-0.342779
C27	C	0.179973	-1.800436	-0.550094
C28	C	0.154998	-1.761963	-0.383587
H29	H	0.082743	-1.822244	-0.621056
H30	H	0.268898	-1.893142	-0.530264
H31	H	0.205206	-1.711999	-0.611921
H32	H	0.129786	-1.850407	-0.321753
H33	H	0.066064	-1.669272	-0.403409
H34	H	0.206050	-1.440529	0.031270
H35	H	-0.180221	-1.334495	-0.027337
O36	O	-0.168485	-1.726074	0.428307
C37	C	-0.268511	-1.800871	0.306509
H38	H	-0.192786	-1.923021	0.290538
H39	H	-0.376802	-1.819149	0.361021
C40	C	-0.426789	-1.542853	0.141015
C41	C	-0.333779	-1.692874	0.121388
H42	H	-0.467057	-1.476235	0.026826
H43	H	-0.359405	-1.492460	0.223076
H44	H	-0.517019	-1.558107	0.186448
H45	H	-0.243540	-1.677620	0.075978
H46	H	-0.401150	-1.743263	0.039314
