data_functionalizedCrystal
_audit_creation_method	'MofGen! by Chris Wilmer'
_symmetry_space_group_name_H-M	'P1'
_symmetry_Int_Tables_number	1
_symmetry_cell_setting	triclinic
loop_
_symmetry_equiv_pos_as_xyz
  x,y,z
_cell_length_a	12.837943
_cell_length_b	15.944551
_cell_length_c	11.295483
_cell_angle_alpha	94.094426
_cell_angle_beta	85.461227
_cell_angle_gamma	89.163839
loop_
_atom_site_label
_atom_site_type_symbol
_atom_site_fract_x
_atom_site_fract_y
_atom_site_fract_z
O1	O	1.382450	0.213265	-0.099009
O2	O	1.882450	0.713265	0.400991
O3	O	1.080644	0.202478	-0.099016
O4	O	1.580644	0.702478	0.400984
O5	O	1.239788	0.086257	-0.099002
O6	O	1.739788	0.586257	0.400998
O7	O	1.223306	0.329487	-0.099023
O8	O	1.723306	0.829487	0.400977
O9	O	1.225810	0.096448	0.099048
O10	O	1.725810	0.596448	0.599048
O11	O	1.066666	0.212669	0.099034
O12	O	1.566666	0.712669	0.599034
O13	O	1.368472	0.223456	0.099040
O14	O	1.868472	0.723456	0.599040
Cu15	Cu	1.216293	0.218993	0.117121
Cu16	Cu	1.716293	0.718993	0.617121
Cu17	Cu	1.232823	0.206941	-0.117096
Cu18	Cu	1.732823	0.706941	0.382904
O19	O	1.209328	0.339677	0.099026
O20	O	1.709328	0.839677	0.599026
C21	C	1.035034	0.203930	0.000008
C22	C	1.535034	0.703930	0.500008
C23	C	0.919957	0.193062	0.000006
C24	C	1.419957	0.693062	0.500006
C25	C	1.232115	0.060004	0.000023
C26	C	1.732115	0.560004	0.500023
C27	C	1.230063	-0.033407	0.000024
C28	C	1.730063	0.466593	0.500024
C29	C	0.679007	0.323714	0.000011
C30	C	1.179007	0.823714	0.500011
C31	C	0.570881	0.313507	0.000010
C32	C	1.070881	0.813507	0.500010
C33	C	0.595575	0.162440	0.000011
C34	C	1.095575	0.662440	0.500011
C35	C	0.703701	0.172648	0.000012
C36	C	1.203701	0.672648	0.500012
C37	C	0.745413	0.253287	0.000011
C38	C	1.245413	0.753287	0.500011
C39	C	0.853542	0.263494	0.000003
C40	C	1.353542	0.763494	0.500003
C41	C	0.878234	0.112428	0.000013
C42	C	1.378234	0.612428	0.500013
C43	C	0.770107	0.102221	0.000011
C44	C	1.270107	0.602221	0.500011
C45	C	1.126515	-0.256548	0.000005
C46	C	1.626515	0.243452	0.500005
C47	C	1.167708	-0.308694	0.097657
C48	C	1.667708	0.191306	0.597657
C49	C	1.226352	-0.204430	0.000015
C50	C	1.726352	0.295570	0.500015
C51	C	1.181513	-0.318722	-0.097604
C52	C	1.681513	0.181278	0.402396
C53	C	1.222761	-0.369631	0.000001
C54	C	1.722761	0.130369	0.500001
C55	C	1.267567	-0.255341	0.097747
C56	C	1.767567	0.244659	0.597747
C57	C	1.281364	-0.265369	-0.097602
C58	C	1.781364	0.234631	0.402398
C59	C	1.322627	-0.317491	0.000073
C60	C	1.822627	0.182509	0.500073
C61	C	1.228418	-0.109262	0.000024
C62	C	1.728418	0.390738	0.500024
C63	C	1.220702	-0.464796	0.000000
C64	C	1.720702	0.035204	0.500000
C65	C	1.414082	0.222005	0.000014
C66	C	1.914082	0.722005	0.500014
C67	C	1.529160	0.232872	0.000008
C68	C	2.029160	0.732872	0.500008
C69	C	1.217002	0.365931	-0.000001
C70	C	1.717002	0.865931	0.499999
C71	C	1.219054	0.459340	-0.000010
C72	C	1.719054	0.959340	0.499990
N73	N	1.204674	0.227469	0.281856
N74	N	1.704674	0.727469	0.781856
N75	N	1.244451	0.198459	-0.281831
N76	N	1.744451	0.698459	0.218169
C77	C	1.328092	0.137394	0.531156
C78	C	1.828092	0.637394	1.031156
C79	C	1.319318	0.143806	0.655819
C80	C	1.819318	0.643806	1.155819
C81	C	1.178349	0.246701	0.655847
C82	C	1.678349	0.746701	1.155847
C83	C	1.187123	0.240289	0.531184
C84	C	1.687123	0.740289	1.031184
C85	C	1.261997	0.185634	0.468843
C86	C	1.761997	0.685634	0.968843
C87	C	1.270775	0.179227	0.344178
C88	C	1.770775	0.679227	0.844178
C89	C	1.129802	0.282117	0.344208
C90	C	1.629802	0.782117	0.844208
C91	C	1.121028	0.288530	0.468871
C92	C	1.621028	0.788530	0.968871
H93	H	0.712969	0.389374	0.000008
H94	H	1.212969	0.889374	0.500008
N95	N	1.101868	0.302511	0.719556
N96	N	1.601868	0.802511	1.219556
N97	N	1.094042	0.308219	0.830861
N98	N	1.594042	0.808219	1.330861
H99	H	1.040026	0.347635	0.875859
H100	H	1.540026	0.847635	1.375859
H101	H	0.561586	0.096792	0.000111
H102	H	1.061586	0.596792	0.500111
N103	N	0.503062	0.385456	0.000020
N104	N	1.003062	0.885456	0.500020
N105	N	0.540323	0.457447	0.000025
N106	N	1.040323	0.957447	0.500025
H107	H	0.492426	0.508265	0.000035
H108	H	0.992426	1.008265	0.500035
N109	N	1.022545	-0.223081	0.000128
N110	N	1.522545	0.276919	0.500128
N111	N	0.956215	-0.235463	0.083845
N112	N	1.456215	0.264537	0.583845
H113	H	0.882787	-0.211827	0.083936
H114	H	1.382787	0.288173	0.583936
H115	H	0.736129	0.036567	0.000026
H116	H	1.236129	0.536567	0.500026
H117	H	0.932315	0.055081	0.000004
H118	H	1.432315	0.555081	0.500004
N119	N	1.107417	-0.332825	0.201216
N120	N	1.607417	0.167175	0.701216
N121	N	1.013020	-0.311620	0.218613
N122	N	1.513020	0.188380	0.718613
H123	H	0.970432	-0.328660	0.291747
H124	H	1.470432	0.171340	0.791747
H125	H	1.303925	-0.227723	0.180394
H126	H	1.803925	0.272277	0.680394
N127	N	1.426675	-0.350753	0.000149
N128	N	1.926675	0.149247	0.500149
N129	N	1.481030	-0.329900	0.084067
N130	N	1.981030	0.170100	0.584067
H131	H	1.554513	-0.353391	0.084126
H132	H	2.054513	0.146609	0.584126
H133	H	1.373138	0.104523	0.706551
H134	H	1.873138	0.604523	1.206551
H135	H	1.329382	-0.246112	-0.180161
H136	H	1.829382	0.253888	0.319839
H137	H	1.145100	-0.346426	-0.180167
H138	H	1.645100	0.153574	0.319833
N139	N	1.347191	0.123356	0.280474
N140	N	1.847191	0.623356	0.780474
N141	N	1.344705	0.046321	0.294408
N142	N	1.844705	0.546321	0.794408
H143	H	1.398651	0.006845	0.249406
H144	H	1.898651	0.506845	0.749406
H145	H	0.887502	0.329155	0.000004
H146	H	1.387502	0.829155	0.500004
N147	N	1.404483	0.081483	0.467488
N148	N	1.904483	0.581483	0.967488
N149	N	1.463429	0.038360	0.523141
N150	N	1.963429	0.538360	1.023141
H151	H	1.517345	-0.001162	0.478177
H152	H	2.017345	0.498838	0.978177
N153	N	1.044550	0.344346	0.532573
N154	N	1.544550	0.844346	1.032573
N155	N	1.036722	0.350062	0.643878
N156	N	1.536722	0.850062	1.143878
H157	H	0.982708	0.389484	0.688869
H158	H	1.482708	0.889484	1.188869
N159	N	1.062301	0.331402	0.280537
N160	N	1.562301	0.831402	0.780537
N161	N	1.070151	0.325678	0.169232
N162	N	1.570151	0.825678	0.669232
H163	H	1.022485	0.360488	0.124262
H164	H	1.522485	0.860488	0.624262
