data_functionalizedCrystal
_audit_creation_method	'MofGen! by Chris Wilmer'
_symmetry_space_group_name_H-M	'P1'
_symmetry_Int_Tables_number	1
_symmetry_cell_setting	triclinic
loop_
_symmetry_equiv_pos_as_xyz
  x,y,z
_cell_length_a	16.109301
_cell_length_b	12.996460
_cell_length_c	16.109301
_cell_angle_alpha	90.007568
_cell_angle_beta	83.461481
_cell_angle_gamma	90.002865
loop_
_atom_site_label
_atom_site_type_symbol
_atom_site_fract_x
_atom_site_fract_y
_atom_site_fract_z
O1	O	1.103133	0.085505	0.106869
O2	O	1.603133	0.585505	0.606869
O3	O	0.861071	0.085522	0.120168
O4	O	1.361071	0.585522	0.620168
O5	O	0.988752	0.085503	-0.007513
O6	O	1.488752	0.585503	0.492487
O7	O	0.975452	0.085524	0.234549
O8	O	1.475452	0.585524	0.734549
O9	O	0.988738	-0.085631	-0.007520
O10	O	1.488738	0.414369	0.492480
O11	O	0.861058	-0.085612	0.120161
O12	O	1.361058	0.414388	0.620161
O13	O	1.103120	-0.085629	0.106862
O14	O	1.603120	0.414371	0.606862
Cu15	Cu	0.982088	-0.101246	0.113511
Cu16	Cu	1.482088	0.398754	0.613511
Cu17	Cu	0.982103	0.101139	0.113519
Cu18	Cu	1.482103	0.601139	0.613519
O19	O	0.975439	-0.085609	0.234542
O20	O	1.475439	0.414391	0.734542
C21	C	0.830090	-0.000043	0.119626
C22	C	1.330090	0.499957	0.619626
C23	C	0.737794	-0.000037	0.118011
C24	C	1.237794	0.499963	0.618011
N25	N	0.982083	-0.243593	0.113504
N26	N	1.482083	0.256407	0.613504
C27	C	0.515522	-0.000042	0.190018
C28	C	1.015522	0.499958	0.690018
C29	C	0.428801	-0.000049	0.188494
C30	C	0.928801	0.499951	0.688494
C31	C	0.448676	-0.000059	0.037006
C32	C	0.948676	0.499941	0.537006
C33	C	0.535394	-0.000059	0.038530
C34	C	1.035394	0.499941	0.538530
C35	C	0.568815	-0.000046	0.115039
C36	C	1.068815	0.499954	0.615039
C37	C	0.395376	-0.000052	0.111990
C38	C	0.895376	0.499948	0.611990
C39	C	0.301350	-0.000059	0.110337
C40	C	0.801350	0.499941	0.610337
C41	C	0.662847	-0.000041	0.116693
C42	C	1.162847	0.499959	0.616693
C43	C	0.982102	-0.663408	0.113520
C44	C	1.482102	-0.163408	0.613520
C45	C	0.982094	-0.546603	0.113518
C46	C	1.482094	-0.046603	0.613518
C47	C	0.982093	-0.453504	0.113513
C48	C	1.482093	0.046496	0.613513
C49	C	0.982084	-0.336692	0.113510
C50	C	1.482084	0.163308	0.613510
C51	C	1.134101	-0.000062	0.107404
C52	C	1.634101	0.499938	0.607404
C53	C	1.226397	-0.000061	0.109019
C54	C	1.726397	0.499939	0.609019
C55	C	0.988206	-0.000065	-0.038491
C56	C	1.488206	0.499935	0.461509
C57	C	0.986591	-0.000066	-0.130786
C58	C	1.486591	0.499934	0.369214
N59	N	0.982115	0.243486	0.113519
N60	N	1.482115	0.743486	0.613519
C61	C	1.058599	-0.000055	-0.353059
C62	C	1.558599	0.499945	0.146941
C63	C	1.057075	-0.000046	-0.439779
C64	C	1.557075	0.499954	0.060221
C65	C	0.905586	-0.000040	-0.419905
C66	C	1.405586	0.499960	0.080095
C67	C	0.907111	-0.000041	-0.333186
C68	C	1.407111	0.499959	0.166814
C69	C	0.983620	-0.000054	-0.299766
C70	C	1.483620	0.499946	0.200234
C71	C	0.980571	-0.000044	-0.473205
C72	C	1.480571	0.499956	0.026795
C73	C	0.978918	-0.000035	-0.567231
C74	C	1.478918	0.499965	-0.067231
C75	C	0.985273	-0.000061	-0.205734
C76	C	1.485273	0.499939	0.294266
C77	C	0.975984	-0.000040	0.265521
C78	C	1.475984	0.499960	0.765521
C79	C	0.977600	-0.000032	0.357816
C80	C	1.477600	0.499968	0.857816
H81	H	0.542730	-0.000039	0.252317
H82	H	1.042730	0.499961	0.752317
H83	H	0.385413	-0.000048	0.249550
H84	H	0.885413	0.499952	0.749550
C85	C	0.593222	0.000151	-0.042907
C86	C	1.093222	0.500151	0.457093
C87	C	0.578145	0.088207	-0.088960
C88	C	1.078145	0.588207	0.411040
C89	C	0.631407	0.088438	-0.163975
C90	C	1.131407	0.588438	0.336025
H91	H	0.583141	-0.059458	-0.074383
H92	H	1.083141	0.440542	0.425617
H93	H	0.649667	0.000205	-0.031075
H94	H	1.149667	0.500205	0.468925
H95	H	0.521714	0.088144	-0.100795
H96	H	1.021714	0.588144	0.399205
H97	H	0.588232	0.147830	-0.057510
H98	H	1.088232	0.647830	0.442490
H99	H	0.687852	0.088492	-0.152143
H100	H	1.187852	0.588492	0.347857
H101	H	0.621321	0.028825	-0.195443
H102	H	1.121321	0.528825	0.304557
H103	H	0.621190	0.148187	-0.195228
H104	H	1.121190	0.648187	0.304772
H105	H	1.118130	-0.000045	-0.483168
H106	H	1.618130	0.499955	0.016832
C107	C	0.412227	-0.000011	-0.045973
C108	C	0.912227	0.499989	0.454027
C109	C	0.324875	0.000021	-0.031263
C110	C	0.824875	0.500021	0.468737
C111	C	0.291273	0.000082	-0.107685
C112	C	0.791273	0.500082	0.392315
H113	H	0.430426	-0.059674	-0.076914
H114	H	0.930426	0.440326	0.423086
H115	H	0.430479	0.059690	-0.076847
H116	H	0.930479	0.559690	0.423153
H117	H	0.306631	-0.059674	-0.000402
H118	H	0.806631	0.440326	0.499598
H119	H	0.306653	0.059679	-0.000335
H120	H	0.806653	0.559679	0.499665
H121	H	0.309525	0.059782	-0.138559
H122	H	0.809525	0.559782	0.361441
H123	H	0.309478	-0.059583	-0.138619
H124	H	0.809478	0.440417	0.361381
H125	H	0.232002	0.000112	-0.097714
H126	H	0.732002	0.500112	0.402286
C127	C	0.822607	-0.000090	-0.456354
C128	C	1.322607	0.499910	0.043646
C129	C	0.837318	-0.000120	-0.543705
C130	C	1.337318	0.499880	-0.043705
C131	C	0.760896	-0.000184	-0.577308
C132	C	1.260896	0.499816	-0.077308
H133	H	0.791673	0.059572	-0.438146
H134	H	1.291673	0.559572	0.061854
H135	H	0.791727	-0.059792	-0.438110
H136	H	1.291727	0.440208	0.061890
H137	H	0.868185	0.059576	-0.561941
H138	H	1.368185	0.559576	-0.061941
H139	H	0.868239	-0.059777	-0.561936
H140	H	1.368239	0.440223	-0.061936
H141	H	0.730016	-0.059886	-0.559064
H142	H	1.230016	0.440114	-0.059064
H143	H	0.729967	0.059479	-0.559094
H144	H	1.229967	0.559479	-0.059094
H145	H	0.770866	-0.000214	-0.636578
H146	H	1.270866	0.499786	-0.136578
C147	C	1.141748	-0.000001	-0.316934
C148	C	1.641748	0.499999	0.183066
C149	C	1.207084	0.000030	-0.382171
C150	C	1.707084	0.500030	0.117829
C151	C	1.283694	0.000099	-0.348928
C152	C	1.783694	0.500099	0.151072
H153	H	1.145613	-0.059662	-0.283536
H154	H	1.645613	0.440338	0.216464
H155	H	1.145535	0.059702	-0.283536
H156	H	1.645535	0.559702	0.216464
H157	H	1.203298	-0.059667	-0.415555
H158	H	1.703298	0.440333	0.084445
H159	H	1.203246	0.059687	-0.415574
H160	H	1.703246	0.559687	0.084426
H161	H	1.287481	0.059802	-0.315530
H162	H	1.787481	0.559802	0.184470
H163	H	1.287550	-0.059563	-0.315531
H164	H	1.787550	0.440437	0.184469
H165	H	1.328033	0.000130	-0.393186
H166	H	1.828033	0.500130	0.106814
C167	C	0.825610	-0.000093	-0.275456
C168	C	1.325610	0.499907	0.224544
C169	C	0.758280	-0.000117	-0.323283
C170	C	1.258280	0.499883	0.176717
C171	C	0.683194	-0.000174	-0.270131
C172	C	1.183194	0.499826	0.229869
H173	H	0.822943	0.059570	-0.241190
H174	H	1.322943	0.559570	0.258810
H175	H	0.823009	-0.059794	-0.241231
H176	H	1.323009	0.440206	0.258769
H177	H	0.760880	0.059579	-0.357493
H178	H	1.260880	0.559579	0.142507
H179	H	0.760920	-0.059775	-0.357547
H180	H	1.260920	0.440225	0.142453
H181	H	0.680593	-0.059875	-0.235906
H182	H	1.180593	0.440125	0.264094
H183	H	0.680535	0.059490	-0.235867
H184	H	1.180535	0.559490	0.264133
H185	H	0.637502	-0.000200	-0.302573
H186	H	1.137502	0.499800	0.197427
