data_functionalizedCrystal
_audit_creation_method	'MofGen! by Chris Wilmer'
_symmetry_space_group_name_H-M	'P1'
_symmetry_Int_Tables_number	1
_symmetry_cell_setting	triclinic
loop_
_symmetry_equiv_pos_as_xyz
  x,y,z
_cell_length_a	10.654550
_cell_length_b	22.010155
_cell_length_c	10.654551
_cell_angle_alpha	89.992869
_cell_angle_beta	84.485132
_cell_angle_gamma	90.012063
loop_
_atom_site_label
_atom_site_type_symbol
_atom_site_fract_x
_atom_site_fract_y
_atom_site_fract_z
O1	O	1.667851	0.050571	0.176381
O2	O	1.302373	0.050561	0.193187
O3	O	1.493514	0.050566	0.002045
O4	O	1.476709	0.050565	0.367523
O5	O	1.493479	-0.050484	0.002074
O6	O	1.302338	-0.050489	0.193216
O7	O	1.667816	-0.050479	0.176410
Cu8	Cu	1.485074	-0.059711	0.184815
Cu9	Cu	1.485115	0.059793	0.184782
O10	O	1.476675	-0.050485	0.367552
C11	C	1.255557	0.000034	0.191968
C12	C	1.116114	0.000031	0.188276
N13	N	1.485054	-0.143764	0.184839
C14	C	1.036629	0.000039	0.300817
C15	C	0.905608	0.000050	0.297341
C16	C	0.933570	0.000046	0.068771
C17	C	1.064589	0.000031	0.072249
C18	C	1.088154	0.000039	0.416844
C19	C	1.008667	0.000048	0.529395
C20	C	0.877647	0.000059	0.525918
C21	C	0.826112	0.000060	0.409891
C22	C	1.569758	-0.563541	0.100156
C23	C	1.569763	-0.627148	0.100148
O24	O	1.641731	-0.660037	0.028163
N25	N	1.485114	-0.658971	0.184755
C26	C	1.400445	-0.627182	0.269369
O27	O	1.328444	-0.660091	0.341333
C28	C	1.400434	-0.563576	0.269370
C29	C	1.485097	-0.531757	0.184765
C30	C	1.654413	-0.531721	0.015557
C31	C	1.654409	-0.468118	0.015568
C32	C	1.569749	-0.436334	0.100177
C33	C	1.485093	-0.468153	0.184776
C34	C	1.315760	-0.531789	0.353976
C35	C	1.315756	-0.468178	0.353970
C36	C	1.400419	-0.436359	0.269365
C37	C	1.400428	-0.372766	0.269396
N38	N	1.485078	-0.340944	0.184788
C39	C	1.569738	-0.372728	0.100179
C40	C	1.400472	-0.760760	0.269358
C41	C	1.400488	-0.824365	0.269363
C42	C	1.569806	-0.824327	0.100140
C43	C	1.569795	-0.760720	0.100141
C44	C	1.485122	-0.728938	0.184750
C45	C	1.569723	-0.239156	0.100208
C46	C	1.569714	-0.175547	0.100229
C47	C	1.400393	-0.175592	0.269447
C48	C	1.400405	-0.239195	0.269431
C49	C	1.485075	-0.270976	0.184801
O50	O	1.328494	-0.339837	0.341340
O51	O	1.641716	-0.339812	0.028215
C52	C	1.714632	0.000048	0.177629
C53	C	1.854075	0.000056	0.181321
C54	C	1.492263	0.000043	-0.044739
C55	C	1.488570	0.000047	-0.184182
N56	N	1.485145	0.143845	0.184749
C57	C	1.486857	0.055128	-0.249709
C58	C	1.483377	0.055125	-0.380730
C59	C	1.483328	-0.055045	-0.380684
C60	C	1.486800	-0.055042	-0.249665
C61	C	1.488627	0.110217	-0.184226
C62	C	1.486916	0.165303	-0.249754
C63	C	1.483435	0.165300	-0.380774
C64	C	1.481667	0.110211	-0.446267
C65	C	1.477926	0.000040	0.414336
C66	C	1.481619	0.000040	0.553779
H67	H	1.050636	0.000042	0.623860
O68	O	1.309106	-0.273520	0.360694
H69	H	1.247617	-0.302502	0.307251
H70	H	0.812931	0.000060	0.617562
O71	O	1.481453	-0.114457	-0.451329
H72	H	1.394433	-0.117097	-0.500589
H73	H	1.478815	0.110213	-0.552950
O74	O	1.488807	0.224715	-0.179115
H75	H	1.487014	0.263017	-0.246694
O76	O	0.877990	0.000047	-0.056365
H77	H	0.909887	0.041227	-0.110519
H78	H	0.719425	0.000059	0.407069
O79	O	1.309140	-0.726489	0.360634
H80	H	1.247623	-0.697522	0.307204
O81	O	1.481547	0.224709	-0.451453
H82	H	1.483356	0.263013	-0.383902
H83	H	1.246801	-0.442304	0.422867
O84	O	1.229469	0.000022	0.420589
H85	H	1.251948	0.000018	0.520173
O86	O	1.150334	0.000026	-0.049130
H87	H	1.092496	0.000039	-0.130395
H88	H	1.638662	-0.149642	0.031334
O89	O	1.661057	-0.273430	0.008947
H90	H	1.719926	-0.240610	-0.049859
H91	H	1.723345	-0.442214	-0.053328
O92	O	1.309074	-0.141310	0.360703
H93	H	1.211043	-0.153537	0.343778
O94	O	1.745750	-0.565998	-0.075690
H95	H	1.804615	-0.533176	-0.134496
O96	O	1.488660	-0.114449	-0.178975
H97	H	1.486868	-0.152756	-0.246522
H98	H	1.638734	-0.734817	0.031248
H99	H	1.638739	-0.850217	0.031245
O100	O	1.492675	0.110218	-0.042949
H101	H	1.493719	0.157776	-0.008432
O102	O	1.309215	-0.858683	0.360656
H103	H	1.250357	-0.825889	0.419492
O104	O	1.224489	-0.566100	0.445275
H105	H	1.165635	-0.533302	0.504107
