data_functionalizedCrystal
_audit_creation_method	'MofGen! by Chris Wilmer'
_symmetry_space_group_name_H-M	'P1'
_symmetry_Int_Tables_number	1
_symmetry_cell_setting	triclinic
loop_
_symmetry_equiv_pos_as_xyz
  x,y,z
_cell_length_a	11.792254
_cell_length_b	10.268362
_cell_length_c	12.837942
_cell_angle_alpha	89.999312
_cell_angle_beta	90.486231
_cell_angle_gamma	90.004577
loop_
_atom_site_label
_atom_site_type_symbol
_atom_site_fract_x
_atom_site_fract_y
_atom_site_fract_z
O1	O	1.521325	0.108299	-0.142226
O2	O	1.771325	0.358299	0.107774
O3	O	2.021325	0.608299	0.357774
O4	O	2.271325	0.858299	0.607774
O5	O	1.192471	0.108301	-0.156864
O6	O	1.442471	0.358301	0.093136
O7	O	1.692471	0.608301	0.343136
O8	O	1.942471	0.858301	0.593136
O9	O	1.349606	0.108292	0.001399
O10	O	1.599606	0.358292	0.251399
O11	O	1.849606	0.608292	0.501399
O12	O	2.099606	0.858292	0.751399
O13	O	1.364190	0.108308	-0.300489
O14	O	1.614190	0.358308	-0.050489
O15	O	1.864190	0.608308	0.199511
O16	O	2.114190	0.858308	0.449511
O17	O	1.349590	-0.108309	0.001393
O18	O	1.599590	0.141691	0.251393
O19	O	1.849590	0.391691	0.501393
O20	O	2.099590	0.641691	0.751393
O21	O	1.192454	-0.108299	-0.156870
O22	O	1.442454	0.141701	0.093130
O23	O	1.692454	0.391701	0.343130
O24	O	1.942454	0.641701	0.593130
O25	O	1.521309	-0.108302	-0.142232
O26	O	1.771309	0.141698	0.107768
O27	O	2.021309	0.391698	0.357768
O28	O	2.271309	0.641698	0.607768
Cu29	Cu	1.356880	-0.128078	-0.149551
Cu30	Cu	1.606880	0.121922	0.100449
Cu31	Cu	1.856880	0.371922	0.350449
Cu32	Cu	2.106880	0.621922	0.600449
Cu33	Cu	1.356899	0.128077	-0.149545
Cu34	Cu	1.606899	0.378077	0.100455
Cu35	Cu	1.856899	0.628077	0.350455
Cu36	Cu	2.106899	0.878077	0.600455
O37	O	1.364174	-0.108293	-0.300495
O38	O	1.614174	0.141707	-0.050495
O39	O	1.864174	0.391707	0.199505
O40	O	2.114174	0.641707	0.449505
C41	C	1.150078	0.000001	-0.155945
C42	C	1.400078	0.250001	0.094055
C43	C	1.650078	0.500001	0.344055
C44	C	1.900078	0.750001	0.594055
C45	C	1.023785	0.000002	-0.153185
C46	C	1.273785	0.250002	0.096815
C47	C	1.523785	0.500002	0.346815
C48	C	1.773785	0.750002	0.596815
C49	C	0.921221	0.000008	-0.150943
C50	C	1.171221	0.250008	0.099057
C51	C	1.421221	0.500008	0.349057
C52	C	1.671221	0.750008	0.599057
C53	C	0.792550	0.000008	-0.148138
C54	C	1.042550	0.250008	0.101862
C55	C	1.292550	0.500008	0.351862
C56	C	1.542550	0.750008	0.601862
N57	N	1.356875	-0.308244	-0.149555
N58	N	1.606875	-0.058244	0.100445
N59	N	1.856875	0.191756	0.350445
N60	N	2.106875	0.441756	0.600445
C61	C	1.356883	-0.426086	-0.149556
C62	C	1.606883	-0.176086	0.100444
C63	C	1.856883	0.073914	0.350444
C64	C	2.106883	0.323914	0.600444
C65	C	1.356897	-0.573924	-0.149546
C66	C	1.606897	-0.323924	0.100454
C67	C	1.856897	-0.073924	0.350454
C68	C	2.106897	0.176076	0.600454
C69	C	1.563701	0.000001	-0.143151
C70	C	1.813701	0.250001	0.106849
C71	C	2.063701	0.500001	0.356849
C72	C	2.313701	0.750001	0.606849
C73	C	1.689994	0.000008	-0.145911
C74	C	1.939994	0.250008	0.104089
C75	C	2.189994	0.500008	0.354089
C76	C	2.439994	0.750008	0.604089
C77	C	1.344671	-0.000008	0.040045
C78	C	1.594671	0.249992	0.290045
C79	C	1.844671	0.499992	0.540045
C80	C	2.094671	0.749992	0.790045
C81	C	1.329977	-0.000005	0.155205
C82	C	1.579977	0.249995	0.405205
C83	C	1.829977	0.499995	0.655205
C84	C	2.079977	0.749995	0.905205
N85	N	1.356913	0.308243	-0.149533
N86	N	1.606913	0.558243	0.100467
N87	N	1.856913	0.808243	0.350467
N88	N	2.106913	1.058243	0.600467
C89	C	1.369109	0.000010	-0.339141
C90	C	1.619109	0.250010	-0.089141
C91	C	1.869109	0.500010	0.160859
C92	C	2.119109	0.750010	0.410859
C93	C	1.383802	0.000016	-0.454301
C94	C	1.633802	0.250016	-0.204301
C95	C	1.883802	0.500016	0.045699
C96	C	2.133802	0.750016	0.295699
C97	C	1.506623	0.000020	0.395163
C98	C	1.756623	0.250020	0.645163
C99	C	2.006623	0.500020	0.895163
C100	C	2.256623	0.750020	1.145163
C101	C	1.492822	0.000023	0.503367
C102	C	1.742822	0.250023	0.753367
C103	C	1.992822	0.500023	1.003367
C104	C	2.242822	0.750023	1.253367
C105	C	1.288576	0.000011	0.479819
C106	C	1.538576	0.250011	0.729819
C107	C	1.788576	0.500011	0.979819
C108	C	2.038576	0.750011	1.229819
C109	C	1.302377	0.000009	0.371615
C110	C	1.552377	0.250009	0.621615
C111	C	1.802377	0.500009	0.871615
C112	C	2.052377	0.750009	1.121615
C113	C	1.411404	0.000011	0.329291
C114	C	1.661404	0.250011	0.579291
C115	C	1.911404	0.500011	0.829291
C116	C	2.161404	0.750011	1.079291
C117	C	1.425204	-0.000000	0.221085
C118	C	1.675204	0.250000	0.471085
C119	C	1.925204	0.500000	0.721085
C120	C	2.175204	0.750000	0.971085
C121	C	1.220958	-0.000003	0.197539
C122	C	1.470958	0.249997	0.447539
C123	C	1.720958	0.499997	0.697539
C124	C	1.970958	0.749997	0.947539
C125	C	1.207158	-0.000000	0.305743
C126	C	1.457158	0.250000	0.555743
C127	C	1.707158	0.500000	0.805743
C128	C	1.957158	0.750000	1.055743
H129	H	1.595397	0.000010	0.360703
H130	H	1.845397	0.250010	0.610703
H131	H	2.095397	0.500010	0.860703
H132	H	2.345397	0.750010	1.110703
H133	H	1.143424	-0.000020	0.143894
H134	H	1.393424	0.249980	0.393894
H135	H	1.643424	0.499980	0.643894
H136	H	1.893424	0.749980	0.893894
H137	H	1.513979	-0.000003	0.186627
H138	H	1.763979	0.249997	0.436627
H139	H	2.013979	0.499997	0.686627
H140	H	2.263979	0.749997	0.936627
H141	H	1.199811	0.000023	0.514298
H142	H	1.449811	0.250023	0.764298
H143	H	1.699811	0.500023	1.014298
H144	H	1.949811	0.750023	1.264298
H145	H	1.118391	0.000002	0.340218
H146	H	1.368391	0.250002	0.590218
H147	H	1.618391	0.500002	0.840218
H148	H	1.868391	0.750002	1.090218
N149	N	1.595521	0.000035	0.574417
N150	N	1.845521	0.250035	0.824417
N151	N	2.095521	0.500035	1.074417
N152	N	2.345521	0.750035	1.324417
H153	H	1.666679	0.000036	0.531182
H154	H	1.916679	0.250036	0.781182
H155	H	2.166679	0.500036	1.031182
H156	H	2.416679	0.750036	1.281182
H157	H	1.594242	-0.080261	0.619826
H158	H	1.844242	0.169739	0.869826
H159	H	2.094242	0.419739	1.119826
H160	H	2.344242	0.669739	1.369826
