data_functionalizedCrystal
_audit_creation_method	'MofGen! by Chris Wilmer'
_symmetry_space_group_name_H-M	'P1'
_symmetry_Int_Tables_number	1
_symmetry_cell_setting	triclinic
loop_
_symmetry_equiv_pos_as_xyz
  x,y,z
_cell_length_a	17.640280
_cell_length_b	17.640112
_cell_length_c	12.594509
_cell_angle_alpha	78.825183
_cell_angle_beta	78.772581
_cell_angle_gamma	87.815931
loop_
_atom_site_label
_atom_site_type_symbol
_atom_site_fract_x
_atom_site_fract_y
_atom_site_fract_z
Zn1	Zn	-0.067369	-1.221969	-0.251375
Zn2	Zn	-0.194372	-1.247569	-0.031895
Zn3	Zn	-0.093094	-1.094997	-0.100921
Zn4	Zn	-0.220006	-1.120648	-0.237354
O5	O	-0.143710	-1.171296	-0.155386
O6	O	-0.062722	-1.331620	-0.199241
O7	O	-0.180976	-1.227309	0.107899
O8	O	0.016583	-1.090392	-0.155634
O9	O	-0.156031	-1.350428	-0.037990
O10	O	0.035484	-1.183677	-0.266172
O11	O	-0.106567	-1.115215	0.057186
O12	O	-0.131423	-0.992145	-0.142039
O13	O	-0.199720	-1.134110	-0.388164
O14	O	-0.224665	-1.010991	-0.242275
O15	O	-0.087578	-1.208550	-0.398465
O16	O	-0.304038	-1.252181	-0.024394
O17	O	-0.322870	-1.158933	-0.175344
C18	C	-0.341003	-1.211139	-0.090876
C19	C	-0.425392	-1.228254	-0.063299
C20	C	-0.183618	-0.974017	-0.198126
C21	C	-0.200708	-0.889624	-0.216430
C22	C	-0.752141	-1.041589	-0.365206
C23	C	-0.831437	-1.057672	-0.339259
C24	C	-0.811748	-1.154832	-0.182200
C25	C	-0.732449	-1.138759	-0.208137
C26	C	-0.702652	-1.082136	-0.299641
C27	C	-0.682960	-1.179307	-0.142572
C28	C	-0.603668	-1.163232	-0.168504
C29	C	-0.573865	-1.106610	-0.260001
C30	C	-0.623360	-1.066062	-0.325573
C31	C	-0.712759	-1.235926	-0.051064
C32	C	-0.663270	-1.276473	0.014502
C33	C	-0.583976	-1.260403	-0.011435
C34	C	-0.554173	-1.203781	-0.102932
C35	C	-0.534481	-1.300951	0.054137
C36	C	-0.455189	-1.284877	0.028205
C37	C	-0.474881	-1.187707	-0.128864
C38	C	-0.143639	-1.171335	-0.433016
C39	C	-0.143608	-1.171352	-0.551325
C40	C	0.054357	-1.131317	-0.220167
C41	C	0.138762	-1.114281	-0.247773
C42	C	-0.103648	-1.369345	-0.112480
C43	C	-0.086575	-1.453741	-0.094195
C44	C	-0.013860	-0.562831	-0.016348
C45	C	-0.029935	-0.483534	-0.033557
C46	C	-0.127161	-0.503240	-0.137655
C47	C	-0.111092	-0.582539	-0.120459
C48	C	-0.054441	-0.612329	-0.059804
C49	C	-0.151673	-0.632037	-0.163915
C50	C	-0.135607	-0.711330	-0.146717
C51	C	-0.078961	-0.741126	-0.086062
C52	C	-0.038376	-0.691622	-0.042605
C53	C	-0.208327	-0.602247	-0.224564
C54	C	-0.248908	-0.651744	-0.268020
C55	C	-0.232839	-0.731038	-0.250828
C56	C	-0.176193	-0.760834	-0.190173
C57	C	-0.273425	-0.780542	-0.294284
C58	C	-0.257359	-0.859835	-0.277085
C59	C	-0.160127	-0.840127	-0.172974
C60	C	-0.204532	-1.130883	-0.685753
C61	C	-0.139043	-1.098317	-0.641615
C62	C	-0.209097	-1.203883	-0.593901
C63	C	-0.077986	-1.138767	-0.718014
C64	C	-0.148080	-1.244374	-0.670284
C65	C	-0.082538	-1.211824	-0.626188
C66	C	-0.143718	-1.171289	0.121155
C67	C	-0.143505	-1.171376	0.239426
H68	H	-0.509301	-1.093519	-0.281107
H69	H	0.003121	-0.443234	0.001826
H70	H	-0.295035	-0.627479	-0.317401
N71	N	0.019499	-0.722073	0.019333
N72	N	0.076811	-0.756563	-0.024451
H73	H	0.117683	-0.778073	0.019289
N74	N	-0.152922	-1.321818	-0.686967
N75	N	-0.210088	-1.362781	-0.637662
H76	H	-0.213516	-1.417479	-0.649441
H77	H	-0.256049	-1.096606	-0.712121
H78	H	-0.450619	-1.141604	-0.203383
N79	N	-0.062536	-0.822119	-0.068509
N80	N	0.003850	-0.845544	-0.102579
H81	H	0.015451	-0.902746	-0.090184
H82	H	-0.558755	-1.347048	0.128645
H83	H	-0.319555	-0.756276	-0.343660
N84	N	-0.278627	-1.238400	-0.526638
N85	N	-0.294784	-1.306598	-0.527686
H86	H	-0.343892	-1.330972	-0.480185
N87	N	-0.134217	-1.020861	-0.624952
N88	N	-0.077628	-0.979497	-0.675531
H89	H	-0.074222	-0.924792	-0.663768
N90	N	0.044025	-0.593252	0.045586
N91	N	0.080266	-0.549050	0.084367
H92	H	0.121149	-0.570533	0.128102
N93	N	-0.404643	-1.326296	0.095192
N94	N	-0.431257	-1.376848	0.176887
H95	H	-0.395560	-1.406100	0.224203
N96	N	-0.298822	-0.910391	-0.321471
N97	N	-0.349401	-0.883784	-0.375622
H98	H	-0.378688	-0.919490	-0.406967
N99	N	-0.017791	-1.254747	-0.593382
N100	N	-0.007610	-1.262126	-0.496422
H101	H	0.038119	-1.292436	-0.473251
N102	N	-0.592926	-1.008230	-0.419059
N103	N	-0.637118	-0.972037	-0.477604
H104	H	-0.615624	-0.931195	-0.543627
N105	N	-0.185027	-0.472795	-0.199600
N106	N	-0.199368	-0.401998	-0.214947
H107	H	-0.240235	-0.380496	-0.258699
N108	N	-0.721703	-0.983738	-0.458664
N109	N	-0.687301	-0.926408	-0.446084
H110	H	-0.665804	-0.885551	-0.512083
H111	H	-0.221406	-0.537680	-0.238565
N112	N	-0.881980	-1.016237	-0.406243
N113	N	-0.855363	-0.965681	-0.487931
H114	H	-0.891059	-0.936414	-0.535235
H115	H	-0.836021	-1.200932	-0.107695
H116	H	-0.687542	-1.322573	0.089007
N117	N	-0.793756	-1.252338	-0.024555
N118	N	-0.841185	-1.200304	-0.003476
H119	H	-0.898389	-1.211895	0.015248
N120	N	-0.102266	-0.870561	-0.111003
N121	N	-0.119961	-0.920169	-0.024804
H122	H	-0.079099	-0.941662	0.018963
N123	N	-0.008458	-1.104166	-0.785163
N124	N	0.002793	-1.098563	-0.887486
H125	H	0.051893	-1.074120	-0.934914
