data_functionalizedCrystal
_audit_creation_method	'MofGen! by Chris Wilmer'
_symmetry_space_group_name_H-M	'P1'
_symmetry_Int_Tables_number	1
_symmetry_cell_setting	triclinic
loop_
_symmetry_equiv_pos_as_xyz
  x,y,z
_cell_length_a	6.817900
_cell_length_b	10.992421
_cell_length_c	10.992410
_cell_angle_alpha	91.831025
_cell_angle_beta	108.764651
_cell_angle_gamma	108.764763
loop_
_atom_site_label
_atom_site_type_symbol
_atom_site_fract_x
_atom_site_fract_y
_atom_site_fract_z
V1	V	-4.114248	-0.177761	-0.400575
O2	O	-4.072376	0.008542	-0.392968
O3	O	-4.091827	-0.352470	-0.397818
O4	O	-4.091840	-0.175026	-0.575288
O5	O	-4.072363	-0.170129	-0.214270
V6	V	-4.591142	-0.155477	-0.378294
O7	O	-4.390048	-0.226642	-0.449452
O8	O	-4.765539	-0.106595	-0.329417
O9	O	-4.390356	0.019232	-0.381051
O10	O	-4.750411	-0.341780	-0.385901
O11	O	-4.750424	-0.163108	-0.564599
O12	O	-4.390343	-0.158211	-0.203581
C13	C	-3.942307	-0.395060	-0.391494
C14	C	-4.005435	-0.537887	-0.390404
C15	C	-3.942322	-0.168712	-0.617873
C16	C	-4.005457	-0.167632	-0.760702
C17	C	-3.873099	-0.733174	-0.381618
C18	C	-3.807017	-0.584530	-0.382242
C19	C	-4.076044	-0.576522	-0.270588
C20	C	-4.140279	-0.725065	-0.269320
C21	C	-4.271785	-0.763647	-0.514935
C22	C	-4.202731	-0.615133	-0.517535
C23	C	-3.872580	-0.157795	-0.955826
C24	C	-3.807029	-0.159451	-0.807343
C25	C	-4.203473	-0.294312	-0.837793
C26	C	-4.267786	-0.293192	-0.986360
C27	C	-4.145552	-0.047893	-0.948352
C28	C	-4.074843	-0.047293	-0.799340
C29	C	-4.203219	0.061816	-0.387371
C30	C	-4.119331	0.204641	-0.388470
C31	C	-4.203203	-0.164530	-0.160989
C32	C	-4.119306	-0.165603	-0.018159
H33	H	-3.749893	-0.558765	-0.467855
H34	H	-4.042638	0.048305	-0.968721
N35	N	-4.263829	-0.825776	-0.628661
N36	N	-4.145686	-0.894191	-0.617880
H37	H	-4.140042	-0.938069	-0.698192
H38	H	-3.757306	-0.753734	-0.290415
N39	N	-3.841264	-0.263895	-1.015996
N40	N	-3.778345	-0.343234	-0.949222
H41	H	-3.756225	-0.418166	-0.991719
H42	H	-4.451634	-0.804764	-0.521215
N43	N	-3.840769	-0.791470	-0.488346
N44	N	-3.875774	-0.910735	-0.503317
H45	H	-3.852968	-0.951933	-0.578698
N46	N	-4.392137	-0.307603	-0.801667
N47	N	-4.566413	-0.403175	-0.853266
H48	H	-4.699659	-0.412562	-0.827750
H49	H	-4.029479	-0.742580	-0.174188
H50	H	-4.216956	-0.045805	-0.766828
N51	N	-4.146052	-0.406390	-0.805650
N52	N	-3.959493	-0.393288	-0.726032
H53	H	-3.918926	-0.472440	-0.703330
N54	N	-3.899667	-0.508514	-0.152511
N55	N	-3.817620	-0.570538	-0.069783
H56	H	-3.693043	-0.522512	0.013609
N57	N	-3.620495	-0.518750	-0.267732
N58	N	-3.538786	-0.582610	-0.187098
H59	H	-3.407052	-0.536154	-0.106217
H60	H	-4.153731	-0.591237	-0.606180
N61	N	-4.248238	-0.404977	-1.044422
N62	N	-4.292096	-0.424359	-1.164435
H63	H	-4.278279	-0.503307	-1.205439
H64	H	-4.352513	-0.584926	-0.530916
N65	N	-4.370087	-0.053678	-0.999597
N66	N	-4.510354	-0.144006	-1.087139
H67	H	-4.668934	-0.148101	-1.123338
N68	N	-3.895124	0.070262	-0.733663
N69	N	-3.716547	0.065534	-0.658659
H70	H	-3.589616	0.148555	-0.612262
H71	H	-4.316491	-0.765948	-0.269130
H72	H	-4.221676	-0.546286	-0.271970
H73	H	-3.658574	-0.068362	-0.754011
N74	N	-3.725561	-0.042734	-0.979461
N75	N	-3.800897	0.034858	-1.042526
H76	H	-3.697067	0.116125	-1.059225
H77	H	-3.749849	-0.245200	-0.782519
H78	H	-4.449788	-0.304208	-1.028990
