data_functionalizedCrystal
_audit_creation_method	'MofGen! by Chris Wilmer'
_symmetry_space_group_name_H-M	'P1'
_symmetry_Int_Tables_number	1
_symmetry_cell_setting	triclinic
loop_
_symmetry_equiv_pos_as_xyz
  x,y,z
_cell_length_a	16.109301
_cell_length_b	13.339070
_cell_length_c	14.586319
_cell_angle_alpha	89.998714
_cell_angle_beta	89.999213
_cell_angle_gamma	99.545388
loop_
_atom_site_label
_atom_site_type_symbol
_atom_site_fract_x
_atom_site_fract_y
_atom_site_fract_z
O1	O	1.133153	0.130021	-0.076178
O2	O	0.894827	0.146201	-0.076192
O3	O	0.986638	-0.009144	-0.076184
O4	O	1.041342	0.285365	-0.076186
O5	O	0.986629	-0.009146	0.076297
O6	O	0.894818	0.146199	0.076289
O7	O	1.133144	0.130018	0.076303
Cu8	Cu	1.013980	0.138108	0.090219
Cu9	Cu	1.013991	0.138111	-0.090107
O10	O	1.041333	0.285363	0.076295
C11	C	0.863697	0.145545	0.000047
C12	C	0.770947	0.143580	0.000041
C13	C	0.568905	0.231189	0.000051
C14	C	0.481756	0.229335	0.000057
C15	C	0.459072	0.045023	0.000055
C16	C	0.546219	0.046879	0.000055
C17	C	0.601133	0.139965	0.000049
C18	C	0.426838	0.136255	0.000054
C19	C	0.332347	0.134244	0.000061
C20	C	0.695630	0.141976	0.000044
C21	C	0.977393	-0.046831	0.000055
C22	C	0.949849	-0.159124	0.000050
C23	C	1.164017	-0.523987	0.000063
C24	C	1.189898	-0.418483	0.000073
C25	C	1.129888	-0.353638	0.000067
C26	C	1.043992	-0.394307	0.000051
C27	C	1.018108	-0.499822	0.000048
C28	C	0.983979	-0.329473	0.000052
C29	C	0.898083	-0.370142	0.000037
C30	C	0.872203	-0.475647	0.000033
C31	C	0.932213	-0.540492	0.000039
C32	C	1.009863	-0.223958	0.000055
C33	C	0.863954	-0.199793	0.000041
C34	C	0.838073	-0.305297	0.000030
C35	C	1.164275	0.130675	0.000063
C36	C	1.257024	0.132640	0.000062
C37	C	1.050578	0.323050	0.000054
C38	C	1.078122	0.435343	0.000054
N39	N	1.013978	0.138106	0.217051
N40	N	1.013998	0.138106	-0.216939
C41	C	1.054656	0.069342	0.452061
C42	C	1.054658	0.069340	0.548042
C43	C	0.973315	0.206873	0.548044
C44	C	0.973308	0.206870	0.452065
C45	C	1.013984	0.138105	0.404075
C46	C	1.013992	0.138106	0.596036
C47	C	1.013994	0.138104	0.700103
C48	C	1.013981	0.138106	0.300002
H49	H	0.572459	-0.027412	0.000056
H50	H	0.940199	0.262860	0.587127
H51	H	0.815089	-0.146996	0.000040
H52	H	1.087775	0.013345	0.587109
C53	C	1.331518	-0.452975	0.000088
C54	C	1.284310	-0.373782	0.000087
H55	H	1.389806	-0.425375	0.000092
H56	H	1.318381	-0.493627	0.053255
H57	H	1.318389	-0.493620	-0.053092
H58	H	1.297434	-0.333140	0.053271
H59	H	1.297452	-0.333113	-0.053085
C60	C	0.892909	0.342829	0.461700
C61	C	0.928601	0.282463	0.399312
H62	H	0.865313	0.389496	0.429130
H63	H	0.853292	0.300716	0.499139
H64	H	0.935921	0.379228	0.499132
H65	H	0.885587	0.246058	0.361884
H66	H	0.968221	0.324582	0.361857
H67	H	0.414350	-0.030764	0.000066
C68	C	0.582570	0.413185	0.000065
C69	C	0.629267	0.333507	0.000057
H70	H	0.619835	0.476353	0.000077
H71	H	0.548112	0.408634	-0.053106
H72	H	0.548103	0.408613	0.053242
H73	H	0.663730	0.338075	-0.053123
H74	H	0.663740	0.338061	0.053233
H75	H	1.079800	-0.190856	0.000068
C76	C	0.396911	0.334171	-0.078328
C77	C	0.446329	0.329611	0.000054
H78	H	0.375037	0.396078	-0.078325
H79	H	0.430437	0.331066	-0.131492
H80	H	0.351735	0.278467	-0.078314
H81	H	0.491509	0.385311	0.000037
H82	H	0.412801	0.332726	0.053232
H83	H	1.150966	-0.267732	0.000075
C84	C	1.219553	-0.656665	-0.078313
C85	C	1.229973	-0.595264	0.000072
H86	H	1.260279	-0.700664	-0.078306
H87	H	1.164698	-0.695977	-0.078311
H88	H	1.226629	-0.614992	-0.131480
H89	H	1.222890	-0.636937	0.053240
H90	H	1.284840	-0.555948	0.000079
C91	C	0.855434	-0.685042	-0.078370
C92	C	0.903768	-0.656469	0.000022
H93	H	0.837881	-0.756643	-0.078383
H94	H	0.807402	-0.652258	-0.078361
H95	H	0.888246	-0.665616	-0.131532
H96	H	0.870954	-0.675888	0.053185
H97	H	0.951807	-0.689265	0.000022
C98	C	0.739878	-0.487531	-0.078368
C99	C	0.777786	-0.520352	0.000022
H100	H	0.681590	-0.515135	-0.078376
H101	H	0.746704	-0.415424	-0.078360
H102	H	0.765624	-0.509793	-0.131532
H103	H	0.752044	-0.498084	0.053186
H104	H	0.770954	-0.592475	0.000022
C105	C	0.705747	-0.317194	-0.078374
C106	C	0.743657	-0.350012	0.000016
H107	H	0.647461	-0.344806	-0.078384
H108	H	0.712566	-0.245087	-0.078364
H109	H	0.731498	-0.339449	-0.131538
H110	H	0.717911	-0.327750	0.053181
H111	H	0.736832	-0.422134	0.000014
H112	H	1.087775	0.013349	0.412990
