data_functionalizedCrystal
_audit_creation_method	'MofGen! by Chris Wilmer'
_symmetry_space_group_name_H-M	'P1'
_symmetry_Int_Tables_number	1
_symmetry_cell_setting	triclinic
loop_
_symmetry_equiv_pos_as_xyz
  x,y,z
_cell_length_a	12.759401
_cell_length_b	12.759399
_cell_length_c	12.759393
_cell_angle_alpha	90.032031
_cell_angle_beta	90.021396
_cell_angle_gamma	90.015938
loop_
_atom_site_label
_atom_site_type_symbol
_atom_site_fract_x
_atom_site_fract_y
_atom_site_fract_z
Zn1	Zn	-1.606252	0.418181	-0.594061
Zn2	Zn	-1.606145	0.593900	-0.418380
Zn3	Zn	-1.430554	0.418238	-0.418391
Zn4	Zn	-1.430541	0.593821	-0.594012
O5	O	-1.518373	0.506035	-0.506211
O6	O	-1.753259	0.441499	-0.570772
O7	O	-1.582813	0.570655	-0.271360
O8	O	-1.453911	0.271209	-0.441719
O9	O	-1.753180	0.570599	-0.441700
O10	O	-1.582995	0.271167	-0.570783
O11	O	-1.453807	0.441597	-0.271369
O12	O	-1.283531	0.441520	-0.441672
O13	O	-1.453889	0.570465	-0.741040
O14	O	-1.283522	0.570520	-0.570700
O15	O	-1.582983	0.441423	-0.741075
O16	O	-1.582801	0.740910	-0.441652
O17	O	-1.453785	0.740852	-0.570689
C18	C	-1.245406	0.506019	-0.506183
C19	C	-1.128629	0.506037	-0.506195
C20	C	-1.518309	0.779002	-0.506187
C21	C	-1.518377	0.895779	-0.506212
C22	C	-1.073790	0.573309	-0.573273
C23	C	-0.964066	0.573311	-0.573291
C24	C	-0.964030	0.438768	-0.439145
C25	C	-1.073752	0.438760	-0.439133
C26	C	-1.518446	0.505929	-0.780244
C27	C	-1.518478	0.505883	-0.897021
C28	C	-0.792406	0.506049	-0.506233
C29	C	-0.909183	0.506047	-0.506225
C30	C	-1.518466	0.232001	-0.506258
C31	C	-1.518506	0.115225	-0.506278
C32	C	-1.585632	0.950636	-0.439099
C33	C	-1.585700	1.060360	-0.439134
C34	C	-1.451248	1.060360	-0.573398
C35	C	-1.451187	0.950638	-0.573368
C36	C	-1.451328	0.438671	-0.951887
C37	C	-1.451353	0.438638	-1.061611
C38	C	-1.585685	0.573034	-1.061594
C39	C	-1.585654	0.573071	-0.951872
C40	C	-1.518360	0.506065	-0.233244
C41	C	-1.518533	0.505814	-0.116467
H42	H	-1.118467	0.628087	-0.627883
H43	H	-1.396420	0.905970	-0.628024
N44	N	-1.378924	0.366149	-1.120789
H45	H	-1.336365	0.323595	-1.069389
H46	H	-1.421718	0.317519	-1.166333
N47	N	-1.658133	0.645502	-1.120754
H48	H	-1.647965	0.635281	-1.198589
H49	H	-1.733170	0.629169	-1.101587
N50	N	-1.378774	1.119538	-0.645813
H51	H	-1.303707	1.100515	-0.629421
H52	H	-1.395128	1.100348	-0.720862
H53	H	-1.640344	0.905972	-0.384418
N54	N	-1.132898	0.366185	-0.366786
H55	H	-1.113769	0.382407	-0.291691
H56	H	-1.210715	0.376413	-0.377046
N57	N	-0.904916	0.645873	-0.645634
H58	H	-0.956334	0.688490	-0.688111
H59	H	-0.859362	0.694441	-0.602781
N60	N	-0.904841	0.366236	-0.366788
H61	H	-0.827011	0.376457	-0.376962
H62	H	-0.923997	0.382524	-0.291733
N63	N	-1.658084	0.645574	-0.892693
H64	H	-1.733163	0.629257	-0.911796
H65	H	-1.647780	0.635373	-0.814881
N66	N	-1.658241	1.119529	-0.366751
H67	H	-1.700794	1.068123	-0.324207
H68	H	-1.615526	1.165133	-0.318107
N69	N	-1.378880	0.366205	-0.892724
H70	H	-1.336345	0.323622	-0.944136
H71	H	-1.330230	0.408978	-0.847182
