data_functionalizedCrystal
_audit_creation_method	'MofGen! by Chris Wilmer'
_symmetry_space_group_name_H-M	'P1'
_symmetry_Int_Tables_number	1
_symmetry_cell_setting	triclinic
loop_
_symmetry_equiv_pos_as_xyz
  x,y,z
_cell_length_a	6.817900
_cell_length_b	10.773890
_cell_length_c	15.185107
_cell_angle_alpha	96.200826
_cell_angle_beta	104.257894
_cell_angle_gamma	96.645716
loop_
_atom_site_label
_atom_site_type_symbol
_atom_site_fract_x
_atom_site_fract_y
_atom_site_fract_z
V1	V	-4.000657	-0.173457	-0.281908
O2	O	-4.024165	0.007443	-0.278065
O3	O	-3.918213	-0.343078	-0.278515
O4	O	-3.956447	-0.171180	-0.405527
O5	O	-3.985666	-0.165645	-0.150174
V6	V	-4.488154	-0.151773	-0.266330
O7	O	-4.253200	-0.221023	-0.316081
O8	O	-4.685809	-0.104207	-0.232157
O9	O	-4.347392	0.017848	-0.269723
O10	O	-4.582043	-0.332673	-0.270173
O11	O	-4.620542	-0.159586	-0.398064
O12	O	-4.309157	-0.154050	-0.142711
C13	C	-3.754796	-0.384416	-0.273689
C14	C	-3.768703	-0.523086	-0.271739
C15	C	-3.946893	-0.590959	-0.275128
C16	C	-3.961270	-0.734282	-0.273112
C17	C	-3.803567	-0.165142	-0.435704
C18	C	-3.848479	-0.164403	-0.536754
C19	C	-4.056346	-0.275463	-0.976023
C20	C	-4.020823	-0.046905	-0.951986
C21	C	-3.978576	-0.047618	-0.857046
C22	C	-3.975215	-0.162255	-0.821590
C23	C	-4.014102	-0.276180	-0.881075
C24	C	-3.939706	0.066303	-0.797555
C25	C	-3.897458	0.065595	-0.702608
C26	C	-3.894083	-0.049044	-0.667151
C27	C	-3.932971	-0.162972	-0.726642
C28	C	-3.929610	-0.277610	-0.691187
C29	C	-3.968483	-0.391539	-0.750676
C30	C	-4.010726	-0.390818	-0.845618
C31	C	-3.851840	-0.049765	-0.572209
C32	C	-3.887366	-0.278327	-0.596238
C33	C	-4.174149	0.059179	-0.274546
C34	C	-4.139480	0.197848	-0.276502
C35	C	-4.125379	-0.160092	-0.112529
C36	C	-4.059707	-0.160825	-0.011479
H37	H	-4.281408	-0.754163	-0.280900
H38	H	-3.819349	-0.782275	-0.268723
C39	C	-4.136218	-0.527100	-0.280839
C40	C	-4.211706	-0.545521	-0.204692
C41	C	-4.386127	-0.486728	-0.209924
H42	H	-4.101653	-0.439256	-0.281373
H43	H	-4.237917	-0.562589	-0.335505
H44	H	-4.110028	-0.510028	-0.150040
H45	H	-4.246315	-0.633352	-0.204143
H46	H	-4.487826	-0.522216	-0.264591
H47	H	-4.351544	-0.398887	-0.210461
H48	H	-4.437378	-0.499228	-0.158265
H49	H	-3.884622	-0.371679	-0.567379
C50	C	-4.098407	-0.399283	-1.040452
C51	C	-4.086378	-0.499824	-0.989075
C52	C	-4.125090	-0.613905	-1.048395
H53	H	-4.231411	-0.407924	-1.080927
H54	H	-3.999786	-0.399835	-1.075060
H55	H	-4.184995	-0.499274	-0.954483
H56	H	-3.953388	-0.491225	-0.948603
H57	H	-4.026470	-0.614457	-1.083003
H58	H	-4.258094	-0.622533	-1.088867
H59	H	-4.116916	-0.682135	-1.013544
C60	C	-3.964641	-0.515867	-0.711995
C61	C	-3.919290	-0.492097	-0.616116
C62	C	-3.915706	-0.606592	-0.580448
H63	H	-4.094582	-0.566795	-0.735307
H64	H	-3.862993	-0.558723	-0.729517
H65	H	-4.020932	-0.449261	-0.598603
H66	H	-3.789348	-0.441188	-0.592779
H67	H	-3.814058	-0.649447	-0.597969
H68	H	-4.045651	-0.657511	-0.603766
H69	H	-3.884918	-0.590479	-0.515390
C70	C	-4.024466	0.077426	-0.990653
C71	C	-4.069740	0.053672	-1.086531
C72	C	-4.073083	0.168181	-1.122184
H73	H	-4.126033	0.120372	-0.973167
H74	H	-3.894426	0.128266	-0.967294
H75	H	-4.199762	0.002853	-1.109881
H76	H	-3.968191	0.010745	-1.104041
H77	H	-3.943044	0.219021	-1.098826
H78	H	-4.174651	0.211118	-1.104692
H79	H	-4.103783	0.152080	-1.187240
H80	H	-3.626795	-0.571084	-0.267350
H81	H	-3.942460	0.159635	-0.826430
H82	H	-4.042383	-0.483573	-0.894062
C83	C	-3.855309	0.189147	-0.637878
C84	C	-3.817644	0.163988	-0.547142
C85	C	-3.778839	0.277772	-0.487487
H86	H	-3.739118	0.240311	-0.645466
H87	H	-3.970757	0.232228	-0.651364
H88	H	-3.702208	0.120927	-0.533660
H89	H	-3.933812	0.112843	-0.539525
H90	H	-3.894287	0.320852	-0.500974
H91	H	-3.662651	0.328927	-0.495084
H92	H	-3.753297	0.260716	-0.425917
H93	H	-3.820202	0.042994	-0.523778
