data_functionalizedCrystal
_audit_creation_method	'MofGen! by Chris Wilmer'
_symmetry_space_group_name_H-M	'P1'
_symmetry_Int_Tables_number	1
_symmetry_cell_setting	triclinic
loop_
_symmetry_equiv_pos_as_xyz
  x,y,z
_cell_length_a	12.759394
_cell_length_b	14.908571
_cell_length_c	14.908308
_cell_angle_alpha	90.175053
_cell_angle_beta	86.731597
_cell_angle_gamma	93.288899
loop_
_atom_site_label
_atom_site_type_symbol
_atom_site_fract_x
_atom_site_fract_y
_atom_site_fract_z
Zn1	Zn	-0.548282	-1.345341	0.587592
Zn2	Zn	-0.714462	-1.353935	0.437236
Zn3	Zn	-0.528102	-1.203654	0.428590
Zn4	Zn	-0.713213	-1.194963	0.578887
O5	O	-0.626015	-1.274473	0.508076
O6	O	-0.579294	-1.472308	0.574908
O7	O	-0.681818	-1.341234	0.310264
O8	O	-0.383762	-1.222490	0.449706
O9	O	-0.701385	-1.478622	0.464442
O10	O	-0.398588	-1.326587	0.566525
O11	O	-0.544900	-1.230824	0.303912
O12	O	-0.543690	-1.076675	0.441266
O13	O	-0.699258	-1.207676	0.705867
O14	O	-0.679690	-1.070289	0.551688
O15	O	-0.578083	-1.318159	0.712262
O16	O	-0.861313	-1.332806	0.456001
O17	O	-0.860396	-1.216010	0.560072
C18	C	-0.609365	-1.040856	0.494595
C19	C	-0.602270	-0.940913	0.488849
C20	C	-0.640782	-1.260989	0.742602
C21	C	-0.647075	-1.255243	0.842543
C22	C	-0.898977	-1.274420	0.508051
C23	C	-1.015759	-1.274478	0.508075
C24	C	-1.016672	-1.396180	0.399798
C25	C	-1.071992	-1.457053	0.345671
C26	C	-1.181719	-1.457105	0.345698
C27	C	-1.236129	-1.396278	0.399860
C28	C	-1.180809	-1.335404	0.453987
C29	C	-1.071079	-1.335358	0.453952
C30	C	-1.179897	-1.213709	0.562269
C31	C	-1.070169	-1.213651	0.562238
C32	C	-1.234306	-1.152882	0.616431
C33	C	-1.178986	-1.092002	0.670555
C34	C	-1.069252	-1.091953	0.670524
C35	C	-1.014849	-1.152778	0.616365
C36	C	-0.351989	-1.274549	0.508122
C37	C	-0.235216	-1.274582	0.508142
C38	C	-0.642730	-1.509002	0.521611
C39	C	-0.649853	-1.608945	0.527378
C40	C	-0.730752	-0.746516	0.592880
C41	C	-0.724088	-0.652610	0.587484
C42	C	-0.582274	-0.659192	0.472666
C43	C	-0.588938	-0.753098	0.478062
C44	C	-0.663180	-0.796757	0.538170
C45	C	-0.669848	-0.890665	0.543561
C46	C	-0.528030	-0.897246	0.428748
C47	C	-0.521366	-0.803340	0.423352
C48	C	-0.611232	-1.287956	0.274466
C49	C	-0.604656	-1.293877	0.174536
C50	C	-0.532697	-1.359488	1.037003
C51	C	-0.538606	-1.354092	1.130907
C52	C	-0.664798	-1.239051	1.124254
C53	C	-0.658888	-1.244447	1.030351
C54	C	-0.592837	-1.304669	0.986729
C55	C	-0.586934	-1.310069	0.892824
C56	C	-0.713118	-1.195024	0.886173
C57	C	-0.719028	-1.189627	0.980077
H58	H	-0.927325	-1.396133	0.399758
C59	C	-0.513098	-1.009770	0.313883
C60	C	-0.453748	-0.952473	0.368605
H61	H	-0.467241	-1.043867	0.276757
H62	H	-0.554033	-0.975101	0.277324
H63	H	-0.558260	-1.049210	0.350460
H64	H	-0.408591	-0.913027	0.332028
H65	H	-0.412795	-0.987144	0.405167
C66	C	-0.850721	-1.134774	0.529447
C67	C	-0.894236	-1.152728	0.616328
H68	H	-0.776260	-1.134752	0.529425
H69	H	-0.870488	-1.077669	0.510529
H70	H	-0.875894	-1.179735	0.489468
H71	H	-0.869069	-1.107763	0.656307
H72	H	-0.874460	-1.209840	0.635258
H73	H	-1.027682	-1.506580	0.301574
C74	C	-1.171611	-1.577394	0.238654
C75	C	-1.242532	-1.524015	0.286200
H76	H	-1.209157	-1.618697	0.201920
H77	H	-1.133679	-1.609490	0.279824
H78	H	-1.123909	-1.540195	0.201962
H79	H	-1.290230	-1.561213	0.322898
H80	H	-1.280482	-1.491917	0.245025
H81	H	-0.772803	-1.140595	1.015607
H82	H	-1.325475	-1.396332	0.399886
H83	H	-0.791208	-0.782063	0.641817
C84	C	-0.521838	-1.369422	0.751830
C85	C	-0.514327	-1.376258	0.844870
H86	H	-0.477013	-1.410287	0.722230
H87	H	-0.501198	-1.309901	0.732965
H88	H	-0.592397	-1.383458	0.737198
H89	H	-0.443768	-1.362216	0.859503
H90	H	-0.534960	-1.435792	0.863742
C91	C	-0.864934	-0.655540	0.701516
C92	C	-0.798366	-0.597384	0.647622
H93	H	-0.910793	-0.621444	0.738641
H94	H	-0.823987	-0.690195	0.738077
H95	H	-0.905180	-0.694411	0.664379
H96	H	-0.758114	-0.558516	0.684760
H97	H	-0.839317	-0.562713	0.611058
C98	C	-1.398435	-1.170907	0.703346
C99	C	-1.354921	-1.152944	0.616466
H100	H	-1.472897	-1.170949	0.703364
H101	H	-1.373281	-1.125948	0.743323
H102	H	-1.378649	-1.228014	0.722264
H103	H	-1.374700	-1.095833	0.597550
H104	H	-1.380085	-1.197905	0.576475
C105	C	-1.219190	-1.039363	0.820255
C106	C	-1.238796	-1.025152	0.730087
H107	H	-1.256123	-0.998094	0.857007
H108	H	-1.145932	-1.030610	0.827975
H109	H	-1.242235	-1.099022	0.836937
H110	H	-1.215744	-0.965494	0.713403
H111	H	-1.312069	-1.033898	0.722363
C112	C	-0.509039	-0.518155	0.413475
C113	C	-0.500633	-0.611190	0.406636
H114	H	-0.458629	-0.488522	0.372716
H115	H	-0.496522	-0.499337	0.473035
H116	H	-0.577666	-0.503512	0.399297
H117	H	-0.432008	-0.625834	0.420821
H118	H	-0.513142	-0.630016	0.347063
C119	C	-0.760098	-1.152211	0.739274
C120	C	-0.779229	-1.134759	0.830909
H121	H	-0.800910	-1.115005	0.705158
H122	H	-0.778808	-1.213499	0.727375
H123	H	-0.687602	-1.139949	0.723141
H124	H	-0.851724	-1.147028	0.847043
H125	H	-0.760526	-1.073457	0.842813
C126	C	-0.809343	-0.874722	0.656521
C127	C	-0.751448	-0.938657	0.609635
H128	H	-0.859713	-0.904350	0.697318
H129	H	-0.844395	-0.840342	0.615185
H130	H	-0.763184	-0.836123	0.688868
H131	H	-0.797607	-0.977251	0.577281
H132	H	-0.716395	-0.973052	0.650976
H133	H	-0.460918	-0.767780	0.374416
C134	C	-0.952524	-1.072367	0.790708
C135	C	-1.008448	-1.025040	0.730026
H136	H	-0.914995	-1.031056	0.827445
H137	H	-0.904418	-1.108570	0.758447
H138	H	-1.000239	-1.109559	0.827394
H139	H	-0.960732	-0.987852	0.693334
H140	H	-1.056559	-0.988821	0.762289
C141	C	-0.356101	-1.405001	1.010631
C142	C	-0.460102	-1.425683	0.989044
H143	H	-0.311285	-1.445865	0.981018
H144	H	-0.351019	-1.409640	1.073743
H145	H	-0.335464	-1.345473	0.991755
H146	H	-0.480742	-1.485209	1.007925
H147	H	-0.465189	-1.421052	0.925918
C148	C	-0.404817	-1.360547	1.237239
C149	C	-0.472496	-1.414352	1.186167
H150	H	-0.363996	-1.397751	1.271349
H151	H	-0.444999	-1.323924	1.276659
H152	H	-0.359543	-1.323486	1.198341
H153	H	-0.517776	-1.451408	1.225065
H154	H	-0.432311	-1.450990	1.146743
H155	H	-0.718573	-1.190021	1.159788
