data_functionalizedCrystal
_audit_creation_method	'MofGen! by Chris Wilmer'
_symmetry_space_group_name_H-M	'P1'
_symmetry_Int_Tables_number	1
_symmetry_cell_setting	triclinic
loop_
_symmetry_equiv_pos_as_xyz
  x,y,z
_cell_length_a	19.288840
_cell_length_b	23.532407
_cell_length_c	17.766277
_cell_angle_alpha	90.012379
_cell_angle_beta	89.983415
_cell_angle_gamma	97.012658
loop_
_atom_site_label
_atom_site_type_symbol
_atom_site_fract_x
_atom_site_fract_y
_atom_site_fract_z
O1	O	0.921145	-0.070977	-0.062730
O2	O	0.718853	-0.080576	-0.062705
O3	O	0.826099	0.007143	-0.062702
O4	O	0.813899	-0.158696	-0.062733
O5	O	0.826080	0.007147	0.062487
O6	O	0.718834	-0.080572	0.062484
O7	O	0.921127	-0.070973	0.062459
Cu8	Cu	0.819978	-0.075772	0.073902
Cu9	Cu	0.820001	-0.075777	-0.074148
O10	O	0.813880	-0.158692	0.062456
C11	C	0.692967	-0.080267	-0.000107
C12	C	0.615866	-0.079347	-0.000097
C13	C	0.825779	0.028362	-0.000105
C14	C	0.824845	0.091581	-0.000097
C15	C	0.579674	-0.078908	-0.068339
C16	C	0.507230	-0.078037	-0.068348
C17	C	0.470982	-0.077594	-0.000111
C18	C	0.507182	-0.078037	0.068140
C19	C	0.579624	-0.078914	0.068147
C20	C	0.361754	-0.042846	0.052164
C21	C	0.289314	-0.041966	0.052154
C22	C	0.247547	-0.074894	-0.000130
C23	C	0.278230	-0.108694	-0.052417
C24	C	0.350672	-0.109570	-0.052410
C25	C	0.392431	-0.076644	-0.000111
C26	C	0.132802	-0.073511	-0.068387
C27	C	0.060356	-0.072643	-0.068393
C28	C	0.060311	-0.072638	0.068097
C29	C	0.132755	-0.073511	0.068101
C30	C	0.168997	-0.073944	-0.000143
C31	C	0.882453	0.490568	-0.000133
C32	C	0.881585	0.549970	-0.000137
O33	O	0.934988	0.586608	-0.000170
N34	N	0.817827	0.572724	-0.000128
C35	C	0.754932	0.536072	-0.000122
O36	O	0.700622	0.560880	-0.000116
C37	C	0.755801	0.476671	-0.000124
C38	C	0.819563	0.453921	-0.000125
C39	C	0.946209	0.467818	-0.000135
C40	C	0.947077	0.408420	-0.000130
C41	C	0.884187	0.371773	-0.000123
C42	C	0.820430	0.394523	-0.000120
C43	C	0.692907	0.440021	-0.000124
C44	C	0.693781	0.380616	-0.000126
C45	C	0.757543	0.357866	-0.000128
C46	C	0.758408	0.298478	-0.000108
N47	N	0.822166	0.275725	-0.000117
C48	C	0.885056	0.312372	-0.000124
C49	C	0.753113	0.660818	-0.000120
C50	C	0.752244	0.720218	-0.000113
C51	C	0.878897	0.734112	-0.000129
C52	C	0.879765	0.674711	-0.000131
C53	C	0.816871	0.638065	-0.000129
C54	C	0.886873	0.187631	-0.000113
C55	C	0.887735	0.128228	-0.000104
C56	C	0.761082	0.114339	-0.000093
C57	C	0.760220	0.173737	-0.000097
C58	C	0.823121	0.210383	-0.000110
O59	O	0.705034	0.261806	-0.000077
O60	O	0.939358	0.287555	-0.000141
C61	C	0.947012	-0.071282	-0.000141
C62	C	1.024113	-0.072202	-0.000156
C63	C	0.814200	0.820089	-0.000135
C64	C	0.815134	0.756870	-0.000125
N65	N	0.819968	-0.075768	0.178032
N66	N	0.820017	-0.075777	-0.178278
C67	C	0.867472	-0.036945	0.217421
C68	C	0.867476	-0.036942	0.296222
C69	C	0.819983	-0.075772	0.335633
C70	C	0.772470	-0.114598	0.296235
C71	C	0.772462	-0.114596	0.217435
C72	C	0.810524	-0.127664	0.460462
C73	C	0.810536	-0.127667	0.539261
C74	C	0.820001	-0.075779	0.578679
C75	C	0.829469	-0.023886	0.539289
C76	C	0.829462	-0.023884	0.460489
C77	C	0.819985	-0.075779	0.421078
C78	C	0.867512	-0.036950	0.703513
C79	C	0.867511	-0.036947	0.782317
C80	C	0.772508	-0.114608	0.782328
C81	C	0.772506	-0.114606	0.703526
C82	C	0.820011	-0.075778	0.664124
H83	H	0.477756	-0.077680	-0.123921
O84	O	0.721270	-0.156480	0.661035
H85	H	0.750310	-0.184093	0.625105
O86	O	0.956511	0.103693	-0.000119
H87	H	0.986708	0.118441	0.050896
H88	H	0.733778	-0.146211	0.185364
H89	H	0.997425	0.497651	-0.000144
O90	O	0.691453	0.198284	-0.000086
H91	H	0.661264	0.183543	-0.051109
H92	H	0.030798	-0.072281	0.123657
H93	H	0.162223	-0.073865	0.123671
H94	H	0.609177	-0.079261	-0.123909
H95	H	0.906152	-0.005327	0.185341
O96	O	0.948536	0.650174	-0.000146
H97	H	0.992117	0.685642	-0.000157
H98	H	0.709879	0.084490	-0.000084
O99	O	0.383768	-0.146030	-0.108791
H100	H	0.342560	-0.168785	-0.145147
O101	O	1.015852	0.383890	-0.000139
H102	H	1.005902	0.336427	-0.000132
O103	O	0.233193	-0.144217	-0.108812
H104	H	0.177664	-0.137937	-0.100029
O105	O	0.918721	0.004926	0.338721
H106	H	0.951756	0.031923	0.298083
H107	H	0.733799	-0.146213	0.328327
H108	H	0.938093	0.217462	-0.000126
O109	O	0.618660	-0.079396	0.141757
H110	H	0.611217	-0.040420	0.174493
H111	H	0.930105	0.763961	-0.000138
H112	H	0.701894	0.630983	-0.000113
H113	H	0.700323	0.738735	-0.000099
O114	O	0.918750	0.004932	0.824800
H115	H	0.910769	-0.001586	0.886215
H116	H	0.162311	-0.073870	-0.123955
H117	H	0.640985	0.458533	-0.000127
O118	O	0.800339	-0.183634	0.581745
H119	H	0.793746	-0.219714	0.541098
H120	H	0.837169	0.018369	0.428421
H121	H	0.642564	0.350781	-0.000126
H122	H	0.837176	0.018366	0.571382
H123	H	0.395755	-0.016031	0.094744
H124	H	0.906192	-0.005332	0.671431
H125	H	0.802804	-0.169920	0.428374
O126	O	0.021318	-0.072149	-0.142000
H127	H	0.058695	-0.072585	-0.189450
O128	O	0.256225	-0.005515	0.108551
H129	H	0.277759	0.040044	0.100845
O130	O	0.468048	-0.077835	0.141740
H131	H	0.411578	-0.077247	0.130271
O132	O	0.721282	-0.156492	0.824822
H133	H	0.729270	-0.149975	0.886235
