data_functionalizedCrystal
_audit_creation_method	'MofGen! by Chris Wilmer'
_symmetry_space_group_name_H-M	'P1'
_symmetry_Int_Tables_number	1
_symmetry_cell_setting	triclinic
loop_
_symmetry_equiv_pos_as_xyz
  x,y,z
_cell_length_a	18.215407
_cell_length_b	19.805405
_cell_length_c	18.215399
_cell_angle_alpha	90.028795
_cell_angle_beta	89.980167
_cell_angle_gamma	89.971825
loop_
_atom_site_label
_atom_site_type_symbol
_atom_site_fract_x
_atom_site_fract_y
_atom_site_fract_z
Zn1	Zn	1.125057	0.269462	-0.416112
Zn2	Zn	1.625057	0.769462	0.083888
Zn3	Zn	1.124960	0.382653	-0.293043
Zn4	Zn	1.624960	0.882653	0.206957
Zn5	Zn	1.001990	0.269484	-0.293059
Zn6	Zn	1.501990	0.769484	0.206941
Zn7	Zn	1.001950	0.382615	-0.416068
Zn8	Zn	1.501950	0.882615	0.083932
O9	O	1.063489	0.326054	-0.354571
O10	O	1.563489	0.826054	0.145429
O11	O	1.228029	0.284484	-0.399798
O12	O	1.728029	0.784484	0.100202
O13	O	1.108623	0.367666	-0.190061
O14	O	1.608623	0.867666	0.309939
O15	O	1.018373	0.174765	-0.309407
O16	O	1.518373	0.674765	0.190593
O17	O	1.227957	0.367644	-0.309380
O18	O	1.727957	0.867644	0.190620
O19	O	1.108790	0.174748	-0.399813
O20	O	1.608790	0.674748	0.100187
O21	O	1.018278	0.284521	-0.190073
O22	O	1.518278	0.784521	0.309927
O23	O	0.899000	0.284485	-0.309365
O24	O	1.399000	0.784485	0.190635
O25	O	1.018304	0.367580	-0.519058
O26	O	1.518304	0.867580	-0.019058
O27	O	0.898971	0.367602	-0.399739
O28	O	1.398971	0.867602	0.100261
O29	O	1.108751	0.284447	-0.519090
O30	O	1.608751	0.784447	-0.019090
O31	O	1.108584	0.477365	-0.309338
O32	O	1.608584	0.977365	0.190662
O33	O	1.018210	0.477337	-0.399724
O34	O	1.518210	0.977337	0.100276
C35	C	0.872283	0.326042	-0.354549
C36	C	1.372283	0.826042	0.145451
C37	C	0.790484	0.326053	-0.354558
C38	C	1.290484	0.826053	0.145442
C39	C	0.602294	0.369400	-0.401557
C40	C	1.102294	0.869400	0.098443
C41	C	0.525435	0.369403	-0.401566
C42	C	1.025435	0.869403	0.098434
C43	C	0.525436	0.282719	-0.307600
C44	C	1.025436	0.782719	0.192400
C45	C	0.602294	0.282714	-0.307595
C46	C	1.102294	0.782714	0.192405
C47	C	0.640721	0.326059	-0.354573
C48	C	1.140721	0.826059	0.145427
C49	C	0.487004	0.326066	-0.354587
C50	C	0.987004	0.826066	0.145413
C51	C	0.403671	0.326068	-0.354596
C52	C	0.903671	0.826068	0.145404
C53	C	0.724060	0.326056	-0.354564
C54	C	1.224060	0.826056	0.145436
C55	C	1.063402	0.501910	-0.354541
C56	C	1.563402	1.001910	0.145459
C57	C	1.063432	0.577142	-0.354553
C58	C	1.563432	1.077142	0.145447
C59	C	1.110535	0.612478	-0.307540
C60	C	1.610535	1.112478	0.192460
C61	C	1.110565	0.683166	-0.307558
C62	C	1.610565	1.183166	0.192442
C63	C	1.063487	0.718517	-0.354587
C64	C	1.563487	1.218517	0.145413
C65	C	1.016382	0.683176	-0.401606
C66	C	1.516382	1.183176	0.098394
C67	C	1.016356	0.612489	-0.401590
C68	C	1.516356	1.112489	0.098410
C69	C	1.016483	0.968249	-0.401670
C70	C	1.516483	1.468249	0.098330
C71	C	1.016510	1.038941	-0.401681
C72	C	1.516510	1.538941	0.098319
C73	C	1.110691	1.038927	-0.307638
C74	C	1.610691	1.538927	0.192362
C75	C	1.110666	0.968239	-0.307623
C76	C	1.610666	1.468239	0.192377
C77	C	1.063564	0.932905	-0.354644
C78	C	1.563564	1.432905	0.145356
C79	C	1.063534	0.856256	-0.354624
C80	C	1.563534	1.356256	0.145376
C81	C	1.063513	0.795164	-0.354604
C82	C	1.563513	1.295164	0.145396
C83	C	1.255442	0.326066	-0.354592
C84	C	1.755442	0.826066	0.145408
C85	C	1.337241	0.326071	-0.354601
C86	C	1.837241	0.826071	0.145399
C87	C	1.063534	0.326007	-0.546524
C88	C	1.563534	0.826007	-0.046524
C89	C	1.063553	0.325987	-0.628322
C90	C	1.563553	0.825987	-0.128322
C91	C	1.063591	1.149511	-0.354625
C92	C	1.563591	1.649511	0.145375
C93	C	1.063618	1.074279	-0.354670
C94	C	1.563618	1.574279	0.145330
C95	C	1.110666	0.282659	-0.816534
C96	C	1.610666	0.782659	-0.316534
C97	C	1.110674	0.282639	-0.893393
C98	C	1.610674	0.782639	-0.393393
C99	C	1.016493	0.369210	-0.893349
C100	C	1.516493	0.869210	-0.393349
C101	C	1.016481	0.369226	-0.816491
C102	C	1.516481	0.869226	-0.316491
C103	C	1.063571	0.325952	-0.778086
C104	C	1.563571	0.825952	-0.278086
C105	C	1.063592	0.325916	-0.931802
C106	C	1.563592	0.825916	-0.431802
C107	C	1.063601	0.325895	-1.015136
C108	C	1.563601	0.825895	-0.515136
C109	C	1.063561	0.325972	-0.694747
C110	C	1.563561	0.825972	-0.194747
C111	C	1.063487	0.326051	-0.163364
C112	C	1.563487	0.826051	0.336636
C113	C	1.063610	0.325880	-0.081566
C114	C	1.563610	0.825880	0.418434
H115	H	0.494140	0.247431	-0.269352
H116	H	0.994140	0.747431	0.230648
F117	F	0.966282	0.720801	-0.451662
F118	F	1.466282	1.220801	0.048338
F119	F	0.966350	0.415303	-0.775570
F120	F	1.466350	0.915303	-0.275570
H121	H	0.633582	0.247416	-0.269335
H122	H	1.133582	0.747416	0.230665
H123	H	1.149008	0.247420	-0.785267
H124	H	1.649008	0.747420	-0.285267
H125	H	0.978155	0.404444	-0.924628
H126	H	1.478155	0.904444	-0.424628
F127	F	0.966402	1.076563	-0.451739
F128	F	1.466402	1.576563	0.048261
H129	H	0.633579	0.404693	-0.439810
H130	H	1.133579	0.904693	0.060190
F131	F	1.160638	0.574861	-0.257479
F132	F	1.660638	1.074861	0.242521
F133	F	1.160804	0.236566	-0.934309
F134	F	1.660804	0.736566	-0.434309
F135	F	0.484542	0.415532	-0.451575
F136	F	0.984542	0.915532	0.048425
H137	H	1.148920	0.711934	-0.269275
H138	H	1.648920	1.211934	0.230725
H139	H	1.148998	0.939459	-0.269325
H140	H	1.648998	1.439459	0.230675
F141	F	1.160825	1.076538	-0.257597
F142	F	1.660825	1.576538	0.242403
H143	H	0.978130	0.939485	-0.439955
H144	H	1.478130	1.439485	0.060045
H145	H	0.978001	0.583719	-0.439874
H146	H	1.478001	1.083719	0.060126
