data_functionalizedCrystal
_audit_creation_method	'MofGen! by Chris Wilmer'
_symmetry_space_group_name_H-M	'P1'
_symmetry_Int_Tables_number	1
_symmetry_cell_setting	triclinic
loop_
_symmetry_equiv_pos_as_xyz
  x,y,z
_cell_length_a	9.065218
_cell_length_b	7.540329
_cell_length_c	9.065218
_cell_angle_alpha	90.001372
_cell_angle_beta	94.984115
_cell_angle_gamma	89.998312
loop_
_atom_site_label
_atom_site_type_symbol
_atom_site_fract_x
_atom_site_fract_y
_atom_site_fract_z
O1	O	-1.960396	0.147479	0.216354
O2	O	-1.460396	0.647479	0.716354
O3	O	-1.531111	0.147481	0.234101
O4	O	-1.031111	0.647481	0.734101
O5	O	-1.754626	0.147476	0.010585
O6	O	-1.254626	0.647476	0.510585
O7	O	-1.736880	0.147484	0.439870
O8	O	-1.236880	0.647484	0.939870
O9	O	-1.754619	-0.147489	0.010583
O10	O	-1.254619	0.352511	0.510583
O11	O	-1.531103	-0.147484	0.234099
O12	O	-1.031103	0.352516	0.734099
O13	O	-1.960388	-0.147486	0.216352
O14	O	-1.460388	0.352514	0.716352
Cu15	Cu	-1.745745	-0.174418	0.225225
Cu16	Cu	-1.245745	0.325582	0.725225
Cu17	Cu	-1.745754	0.174413	0.225227
Cu18	Cu	-1.245754	0.674413	0.725227
O19	O	-1.736872	-0.147481	0.439868
O20	O	-1.236872	0.352519	0.939868
C21	C	-1.476120	-0.000001	0.232394
C22	C	-0.976120	0.499999	0.732394
C23	C	-1.312277	-0.000000	0.227294
C24	C	-0.812277	0.500000	0.727294
N25	N	-1.745749	-0.419766	0.225223
N26	N	-1.245749	0.080234	0.725223
C27	C	-1.752917	-0.000003	-0.044403
C28	C	-1.252917	0.499997	0.455597
C29	C	-1.747817	0.000005	-0.208245
C30	C	-1.247817	0.500005	0.291755
C31	C	-2.015378	0.000000	0.218059
C32	C	-1.515378	0.500000	0.718059
C33	C	-2.179221	0.000011	0.223158
C34	C	-1.679221	0.500011	0.723158
N35	N	-1.745761	0.419761	0.225218
N36	N	-1.245761	0.919761	0.725218
C37	C	-1.738582	0.000002	0.494855
C38	C	-1.238582	0.500002	0.994855
C39	C	-1.743681	0.000005	0.658698
C40	C	-1.243681	0.500005	1.158698
