data_functionalizedCrystal
_audit_creation_method	'MofGen! by Chris Wilmer'
_symmetry_space_group_name_H-M	'P1'
_symmetry_Int_Tables_number	1
_symmetry_cell_setting	triclinic
loop_
_symmetry_equiv_pos_as_xyz
  x,y,z
_cell_length_a	14.628931
_cell_length_b	14.628931
_cell_length_c	21.606444
_cell_angle_alpha	59.998545
_cell_angle_beta	89.998849
_cell_angle_gamma	59.999864
loop_
_atom_site_label
_atom_site_type_symbol
_atom_site_fract_x
_atom_site_fract_y
_atom_site_fract_z
Zr1	Zr	0.880616	1.000583	-0.081225
O2	O	0.734656	1.191293	-0.180051
O3	O	0.925361	0.809876	-0.050929
O4	O	0.925362	1.000587	-0.180051
O5	O	0.734654	1.000579	0.050924
O6	O	1.075794	1.000587	-0.180051
O7	O	0.734655	1.000582	-0.050929
O8	O	1.075793	0.659441	0.050924
O9	O	0.734656	1.341725	-0.180051
O10	O	1.056710	0.888316	-0.038009
O11	O	0.944443	0.888313	0.038003
O12	O	0.944444	1.112850	-0.114021
O13	O	0.832178	1.112848	-0.038009
Zr14	Zr	1.120536	1.000578	0.081219
Zr15	Zr	1.120538	1.000583	-0.081225
Zr16	Zr	0.880615	1.000578	0.081219
Zr17	Zr	0.880616	1.240505	-0.081225
Zr18	Zr	1.120537	0.760656	0.081219
O19	O	1.075792	1.191285	0.050923
O20	O	1.075794	1.191293	-0.180051
O21	O	0.734654	1.191285	0.050924
O22	O	1.266497	0.809868	0.180045
O23	O	1.266499	0.809876	-0.050929
O24	O	0.925359	0.809868	0.180045
O25	O	1.266498	1.000582	-0.050930
O26	O	1.075791	1.000574	0.180045
O27	O	0.925359	1.000574	0.180045
O28	O	1.266498	1.000579	0.050923
O29	O	0.925361	1.341725	-0.180051
O30	O	1.075791	0.659436	0.180045
O31	O	1.266497	0.659436	0.180045
O32	O	1.266498	0.659441	0.050924
O33	O	0.734655	1.341721	-0.050929
O34	O	0.925360	1.341721	-0.050930
O35	O	1.056708	0.888311	0.114015
O36	O	1.168975	0.888313	0.038003
O37	O	1.056709	1.112848	-0.038009
O38	O	0.944443	1.112845	0.038003
C39	C	1.000577	0.700475	-0.000002
C40	C	1.000577	0.598622	-0.000002
C41	C	0.700471	1.000581	-0.000002
C42	C	0.598618	1.000581	-0.000002
C43	C	1.079335	0.369187	0.053322
C44	C	1.079336	0.474456	0.053323
C45	C	0.553209	1.000582	-0.053328
C46	C	0.447939	1.000582	-0.053329
C47	C	1.300682	1.000581	-0.000003
C48	C	1.402535	1.000581	-0.000003
C49	C	1.000578	1.000588	-0.203195
C50	C	1.000579	1.000590	-0.272157
C51	C	1.000576	1.300686	-0.000003
C52	C	1.000576	1.402540	-0.000003
C53	C	1.083453	1.000593	-0.304556
C54	C	1.083456	1.000583	-0.369349
C55	C	1.000580	1.000581	-0.401745
C56	C	0.917702	1.000575	-0.369341
C57	C	0.917704	1.000575	-0.304546
C58	C	0.917692	1.000574	-0.630651
C59	C	0.917694	1.000578	-0.695452
C60	C	1.083444	1.000582	-0.695454
C61	C	1.083447	1.000582	-0.630659
C62	C	1.000572	1.000569	-0.598258
C63	C	1.000571	1.000577	-0.528001
C64	C	1.000576	1.000583	-0.472004
C65	C	1.000575	1.000573	0.203190
C66	C	1.000574	1.000571	0.272152
C67	C	1.300682	0.700475	-0.000003
C68	C	1.402535	0.598622	-0.000003
C69	C	1.000575	0.700468	0.203190
C70	C	1.000575	0.598612	0.272152
C71	C	1.300680	0.700468	0.203190
C72	C	1.402533	0.598612	0.272152
C73	C	0.700472	1.300694	-0.203195
C74	C	0.598620	1.402549	-0.272157
C75	C	0.700471	1.300686	-0.000003
C76	C	0.598617	1.402540	-0.000003
C77	C	1.000578	1.300694	-0.203196
C78	C	1.000578	1.402549	-0.272158
C79	C	1.059176	0.550778	0.344222
C80	C	1.059171	0.455087	0.409025
C81	C	1.000571	0.407226	0.401757
C82	C	0.941963	0.455069	0.329680
C83	C	0.941962	0.550764	0.264878
C84	C	1.508976	0.550781	0.264859
C85	C	1.604686	0.455090	0.329650
C86	C	1.593952	0.407225	0.401732
C87	C	1.487497	0.455066	0.409023
C88	C	1.391789	0.550762	0.344233
C89	C	0.492177	1.450392	-0.264865
C90	C	0.396466	1.546112	-0.329656
C91	C	0.407201	1.593982	-0.401738
C92	C	0.513656	1.546135	-0.409029
C93	C	0.609364	1.450423	-0.344239
C94	C	1.059189	1.450381	-0.264866
C95	C	1.059211	1.546072	-0.329656
C96	C	1.000615	1.593937	-0.401739
C97	C	0.942002	1.546096	-0.409029
C98	C	0.941987	1.450400	-0.344239
C99	C	1.392254	0.553214	-0.037710
C100	C	1.497523	0.447943	-0.037711
H101	H	1.146766	0.262700	0.098973
H102	H	1.517738	0.589738	0.206172
H103	H	1.000581	0.329304	0.454529
H104	H	0.894254	1.411466	-0.350187
H105	H	0.522383	1.585123	-0.467726
H106	H	1.000636	1.671859	-0.454489
Br107	Br	0.862441	0.390099	0.319829
H108	H	1.488895	0.408889	-0.069990
Br109	Br	0.252008	1.611024	-0.319743
H110	H	1.305517	0.592278	-0.069995
H111	H	1.106895	0.589736	0.350154
Br112	Br	0.888173	0.645946	-0.076098
Br113	Br	1.613019	0.467600	0.053815
H114	H	1.150939	1.000584	-0.395727
H115	H	0.850204	1.000574	-0.721828
Br116	Br	1.191721	0.427141	0.129427
Br117	Br	0.862428	0.615665	0.167072
Br118	Br	0.467601	1.000593	0.076092
Br119	Br	1.138722	1.385443	-0.167048
Br120	Br	1.138758	1.610983	-0.319744
H121	H	1.106901	0.416145	0.467706
H122	H	0.933152	0.509027	-0.045659
H123	H	1.489272	0.559566	0.032276
H124	H	0.894295	1.585082	-0.467727
H125	H	1.305122	0.589693	0.350181
Br126	Br	0.618305	1.000570	-0.129420
H127	H	1.671892	0.329304	0.454482
Br128	Br	0.382851	1.000601	-0.129432
Br129	Br	1.195927	1.000610	-0.260600
Br130	Br	0.753819	1.385499	-0.354149
H131	H	1.691357	0.416148	0.323700
H132	H	1.478773	0.416081	0.467721
H133	H	0.559564	1.000572	0.045654
H134	H	0.483415	1.411422	-0.206178
Br135	Br	1.195919	1.000596	-0.586697
H136	H	0.329261	1.671917	-0.454488
H137	H	1.150929	1.000587	-0.721839
H138	H	0.850211	1.000566	-0.604277
Br139	Br	0.805231	1.000558	-0.413300
H140	H	0.850221	1.000570	-0.278167
