data_functionalizedCrystal
_audit_creation_method	'MofGen! by Chris Wilmer'
_symmetry_space_group_name_H-M	'P1'
_symmetry_Int_Tables_number	1
_symmetry_cell_setting	triclinic
loop_
_symmetry_equiv_pos_as_xyz
  x,y,z
_cell_length_a	15.625110
_cell_length_b	15.537937
_cell_length_c	14.750779
_cell_angle_alpha	97.572959
_cell_angle_beta	120.099500
_cell_angle_gamma	113.262438
loop_
_atom_site_label
_atom_site_type_symbol
_atom_site_fract_x
_atom_site_fract_y
_atom_site_fract_z
O1	O	1.275759	-0.029832	0.364327
O2	O	0.973940	-0.071333	0.259246
O3	O	1.183619	0.091718	0.332257
O4	O	1.066080	-0.192883	0.291316
O5	O	1.242891	0.137806	0.512546
O6	O	1.033212	-0.025245	0.439535
O7	O	1.335031	0.016256	0.544616
Zn8	Zn	1.193532	0.002823	0.520701
Zn9	Zn	1.115439	-0.057900	0.283162
O10	O	1.125352	-0.146795	0.471605
C11	C	0.965891	-0.050979	0.336271
C12	C	0.853608	-0.058981	0.297179
C13	C	0.663041	-0.095382	0.143811
C14	C	0.768552	-0.087859	0.180556
C15	C	0.833176	-0.037620	0.377102
C16	C	0.727666	-0.045143	0.340373
C17	C	0.642606	-0.074024	0.223727
C18	C	0.707231	-0.023784	0.420289
C19	C	0.601732	-0.031302	0.383563
C20	C	0.516669	-0.060178	0.266922
C21	C	0.537107	-0.081541	0.187001
C22	C	0.792296	0.005103	0.536936
C23	C	0.771861	0.026462	0.616852
C24	C	0.666357	0.018937	0.580125
C25	C	0.581294	-0.009939	0.463484
C26	C	0.645918	0.040300	0.660047
C27	C	0.540420	0.032782	0.623321
C28	C	0.475795	-0.017457	0.426759
C29	C	1.225553	0.150939	0.426683
C30	C	1.262184	0.258736	0.439438
C31	C	1.343079	-0.004099	0.467589
C32	C	1.455360	0.003901	0.506674
N33	N	1.246837	0.044266	0.682817
C34	C	1.410658	0.430405	0.491131
C35	C	1.376227	0.329111	0.479143
C36	C	1.182525	0.289633	0.411699
C37	C	1.216939	0.390923	0.423676
C38	C	1.331007	0.461302	0.463394
C39	C	1.137287	0.421821	0.395939
C40	C	1.171701	0.523105	0.407921
C41	C	1.285765	0.593490	0.447640
C42	C	1.365420	0.562586	0.475376
C43	C	1.023222	0.351443	0.356229
C44	C	0.943571	0.382341	0.328492
C45	C	0.977981	0.483624	0.340466
C46	C	1.092045	0.554009	0.380186
C47	C	0.898326	0.514528	0.312731
C48	C	0.932739	0.615812	0.324713
C49	C	1.126458	0.655293	0.392168
C50	C	1.083423	0.793984	0.377181
C51	C	1.046807	0.686191	0.364431
N52	N	1.062145	-0.099335	0.121049
C53	C	0.913289	-0.215036	0.918493
C54	C	0.950646	-0.186001	1.032000
C55	C	1.136328	-0.041666	1.096618
C56	C	1.098984	-0.070686	0.983113
C57	C	0.987464	-0.157372	0.894058
C58	C	1.173159	-0.013022	0.958679
C59	C	1.135820	-0.042043	0.845185
C60	C	1.024305	-0.128728	0.756125
C61	C	0.950124	-0.186393	0.780564
C62	C	1.284682	0.073660	1.047736
C63	C	1.358857	0.131324	1.023302
C64	C	1.321515	0.102308	0.909805
C65	C	1.210001	0.015623	0.820745
C66	C	1.395696	0.159973	0.885366
C67	C	1.358357	0.130952	0.771872
C68	C	1.172662	-0.013398	0.707251
H69	H	0.715193	0.063824	0.755022
H70	H	0.406527	-0.040986	0.331772
H71	H	0.993907	-0.152358	0.663713
H72	H	0.867883	0.640971	0.302139
H73	H	1.315081	0.097283	1.140149
H74	H	0.890234	-0.232967	1.051883
H75	H	0.995209	0.268974	0.346482
H76	H	0.523774	0.050156	0.688393
H77	H	0.430766	-0.066300	0.237022
H78	H	1.089651	0.232318	0.379365
H79	H	0.805455	0.457214	0.280403
H80	H	0.822473	-0.285619	0.845977
H81	H	0.902447	-0.014101	0.472077
H82	H	0.785178	-0.105260	0.115469
H83	H	1.219339	0.712596	0.424494
H84	H	1.313781	0.675960	0.457391
H85	H	1.458301	0.619890	0.507702
H86	H	1.418759	0.177908	0.751980
H87	H	1.227131	0.028913	1.169138
H88	H	1.503539	0.487708	0.523457
H89	H	1.486502	0.230549	0.957889
H90	H	0.850697	0.325026	0.296158
H91	H	1.081846	-0.083981	0.634736
H92	H	1.441098	0.303962	0.501734
H93	H	0.593773	-0.118912	0.048824
H94	H	1.449660	0.201903	1.095823
H95	H	0.467839	-0.105071	0.092014
H96	H	0.878197	0.011222	0.566834
H97	H	0.859309	-0.256976	0.708049
H98	H	0.841131	0.049980	0.711827
