data_functionalizedCrystal
_audit_creation_method	'MofGen! by Chris Wilmer'
_symmetry_space_group_name_H-M	'P1'
_symmetry_Int_Tables_number	1
_symmetry_cell_setting	triclinic
loop_
_symmetry_equiv_pos_as_xyz
  x,y,z
_cell_length_a	16.956984
_cell_length_b	14.044190
_cell_length_c	15.455313
_cell_angle_alpha	92.904485
_cell_angle_beta	87.518126
_cell_angle_gamma	84.622598
loop_
_atom_site_label
_atom_site_type_symbol
_atom_site_fract_x
_atom_site_fract_y
_atom_site_fract_z
O1	O	1.064001	0.034660	-0.072138
O2	O	1.564001	0.534660	0.427862
O3	O	0.834198	0.067754	-0.072141
O4	O	1.334198	0.567754	0.427859
O5	O	0.945646	-0.086506	-0.072122
O6	O	1.445646	0.413494	0.427878
O7	O	0.952552	0.188920	-0.072156
O8	O	1.452552	0.688920	0.427844
O9	O	0.939271	-0.077719	0.072139
O10	O	1.439271	0.422281	0.572139
O11	O	0.827823	0.076541	0.072120
O12	O	1.327823	0.576541	0.572120
O13	O	1.057625	0.043447	0.072123
O14	O	1.557625	0.543447	0.572123
Cu15	Cu	0.942142	0.060796	0.085294
Cu16	Cu	1.442142	0.560796	0.585294
Cu17	Cu	0.949682	0.050405	-0.085312
Cu18	Cu	1.449682	0.550405	0.414688
O19	O	0.946177	0.197707	0.072105
O20	O	1.446177	0.697707	0.572105
C21	C	0.801423	0.073842	-0.000011
C22	C	1.301423	0.573842	0.499989
C23	C	0.713261	0.078881	-0.000012
C24	C	1.213261	0.578881	0.499988
C25	C	0.675182	-0.005360	0.000000
C26	C	1.175182	0.494640	0.500000
C27	C	0.592344	-0.000620	-0.000006
C28	C	1.092344	0.499380	0.499994
C29	C	0.547586	0.088361	-0.000019
C30	C	1.047586	0.588361	0.499981
C31	C	0.585671	0.172607	-0.000034
C32	C	1.085671	0.672607	0.499966
C33	C	0.668507	0.167866	-0.000033
C34	C	1.168507	0.667866	0.499967
C35	C	0.299484	0.111826	-0.000028
C36	C	0.799484	0.611826	0.499972
C37	C	0.216642	0.116560	-0.000026
C38	C	0.716642	0.616560	0.499974
C39	C	0.223321	-0.056668	-0.000000
C40	C	0.723321	0.443332	0.500000
C41	C	0.306159	-0.061400	0.000006
C42	C	0.806159	0.438600	0.500006
C43	C	0.344236	0.022846	-0.000014
C44	C	0.844236	0.522846	0.499986
N45	N	0.462913	0.093207	-0.000023
N46	N	0.962913	0.593207	0.499977
N47	N	0.428908	0.017998	-0.000016
N48	N	0.928908	0.517998	0.499984
C49	C	0.939438	-0.117190	0.000011
C50	C	1.439438	0.382810	0.500011
C51	C	0.930428	-0.221710	0.000018
C52	C	1.430428	0.278290	0.500018
C53	C	0.977857	-0.475715	-0.000015
C54	C	1.477857	0.024285	0.499985
C55	C	0.913970	-0.413079	-0.000010
C56	C	1.413970	0.086921	0.499990
C57	C	0.923130	-0.306592	0.000005
C58	C	1.423130	0.193408	0.500005
C59	C	0.968699	-0.582212	-0.000031
C60	C	1.468699	-0.082212	0.499969
C61	C	1.090401	0.037358	-0.000009
C62	C	1.590401	0.537358	0.499991
C63	C	1.178563	0.032320	-0.000014
C64	C	1.678563	0.532320	0.499986
C65	C	0.952385	0.228391	-0.000030
C66	C	1.452385	0.728391	0.499970
C67	C	0.961396	0.332910	-0.000043
C68	C	1.461396	0.832910	0.499957
N69	N	0.936844	0.068104	0.205288
N70	N	1.436844	0.568104	0.705288
N71	N	0.954985	0.043088	-0.205306
N72	N	1.454985	0.543088	0.294694
C73	C	0.984211	0.002590	0.250691
C74	C	1.484211	0.502590	0.750691
C75	C	0.980213	0.008125	0.341498
C76	C	1.480213	0.508125	0.841498
C77	C	0.928852	0.079179	0.386901
C78	C	1.428852	0.579179	0.886901
C79	C	0.881479	0.144696	0.341493
C80	C	1.381479	0.644696	0.841493
C81	C	0.885474	0.139157	0.250687
C82	C	1.385474	0.639157	0.750687
C83	C	0.911607	0.103066	0.658480
C84	C	1.411607	0.603066	1.158480
C85	C	0.907618	0.108603	0.749292
C86	C	1.407618	0.608603	1.249292
C87	C	1.006351	-0.027970	0.749290
C88	C	1.506351	0.472030	1.249290
C89	C	1.010344	-0.033500	0.658483
C90	C	1.510344	0.466500	1.158483
C91	C	0.962969	0.032014	0.613083
C92	C	1.462969	0.532014	1.113083
N93	N	0.924765	0.084840	0.479721
N94	N	1.424765	0.584840	0.979721
N95	N	0.967052	0.026348	0.520265
N96	N	1.467052	0.526348	1.020265
H97	H	0.192310	-0.125257	0.000006
H98	H	0.692310	0.374743	0.500006
N99	N	0.338354	0.197891	-0.000032
N100	N	0.838354	0.697891	0.499968
N101	N	0.324173	0.260115	0.060771
N102	N	0.824173	0.760115	0.560771
H103	H	0.351626	0.320905	0.060769
H104	H	0.851626	0.820905	0.560769
N105	N	0.837104	0.206092	0.204307
N106	N	1.337104	0.706092	0.704307
N107	N	0.868655	0.259560	0.153618
N108	N	1.368655	0.759560	0.653618
H109	H	0.834492	0.306834	0.120862
H110	H	1.334492	0.806834	0.620862
H111	H	0.561345	-0.069218	0.000003
H112	H	1.061345	0.430782	0.500003
N113	N	1.055095	-0.442662	0.000022
N114	N	1.555095	0.057338	0.500022
N115	N	1.099308	-0.461164	0.060842
N116	N	1.599308	0.038836	0.560842
H117	H	1.153857	-0.437809	0.060874
H118	H	1.653857	0.062191	0.560874
N119	N	1.036635	-0.070043	0.204330
N120	N	1.536635	0.429957	0.704330
N121	N	1.078887	-0.128568	0.244883
N122	N	1.578887	0.371432	0.744883
H123	H	1.115892	-0.179890	0.212143
H124	H	1.615892	0.320110	0.712143
N125	N	0.863220	0.170005	0.612130
N126	N	1.363220	0.670005	1.112130
N127	N	0.870059	0.257667	0.622260
N128	N	1.370059	0.757667	1.122260
H129	H	0.835883	0.304949	0.589524
H130	H	1.335883	0.804949	1.089524
N131	N	0.170933	0.207465	-0.000032
N132	N	0.670933	0.707465	0.499968
N133	N	0.204938	0.282677	-0.000045
N134	N	0.704938	0.782677	0.499955
H135	H	0.172657	0.346877	-0.000046
H136	H	0.672657	0.846877	0.499954
N137	N	0.720885	-0.096260	0.000025
N138	N	1.220885	0.403740	0.500025
N139	N	0.686872	-0.171467	0.000037
N140	N	1.186872	0.328533	0.500037
H141	H	0.719147	-0.235669	0.000054
H142	H	1.219147	0.264331	0.500054
H143	H	0.342595	-0.133858	0.000020
H144	H	0.842595	0.366142	0.500020
H145	H	0.549222	0.245057	-0.000050
H146	H	1.049222	0.745057	0.499950
H147	H	0.699509	0.236464	-0.000039
H148	H	1.199509	0.736464	0.499961
N149	N	1.028599	-0.058807	0.387861
N150	N	1.528599	0.441193	0.887861
N151	N	1.074457	-0.122241	0.347312
N152	N	1.574457	0.377759	0.847312
H153	H	1.108631	-0.169517	0.380055
H154	H	1.608631	0.330483	0.880055
H155	H	0.852396	-0.439430	-0.000016
H156	H	1.352396	0.060570	0.499984
N157	N	1.062960	-0.105936	0.612121
N158	N	1.562960	0.394064	1.112121
N159	N	1.105346	-0.164327	0.652670
N160	N	1.605346	0.335673	1.152670
H161	H	1.142564	-0.215428	0.619928
H162	H	1.642564	0.284572	1.119928
N163	N	1.054735	-0.094880	0.795680
N164	N	1.554735	0.405120	1.295680
N165	N	1.051165	-0.089927	0.876755
N166	N	1.551165	0.410073	1.376755
H167	H	1.085336	-0.137186	0.909519
H168	H	1.585336	0.362814	1.409519
H169	H	0.865791	0.166467	0.786255
H170	H	1.365791	0.666467	1.286255
H171	H	0.839656	0.202547	0.378465
H172	H	1.339656	0.702547	0.878465
