data_functionalizedCrystal
_audit_creation_method	'MofGen! by Chris Wilmer'
_symmetry_space_group_name_H-M	'P1'
_symmetry_Int_Tables_number	1
_symmetry_cell_setting	triclinic
loop_
_symmetry_equiv_pos_as_xyz
  x,y,z
_cell_length_a	11.792241
_cell_length_b	17.699104
_cell_length_c	16.176319
_cell_angle_alpha	89.991696
_cell_angle_beta	90.001799
_cell_angle_gamma	96.257534
loop_
_atom_site_label
_atom_site_type_symbol
_atom_site_fract_x
_atom_site_fract_y
_atom_site_fract_z
O1	O	-0.143640	1.004834	-0.068754
O2	O	0.356360	1.504834	0.431246
O3	O	-0.162288	0.784558	-0.068751
O4	O	0.337712	1.284558	0.431249
O5	O	0.012270	0.900041	-0.068758
O6	O	0.512270	1.400041	0.431242
O7	O	-0.318198	0.889350	-0.068748
O8	O	0.181802	1.389350	0.431252
O9	O	0.012281	0.900025	0.068736
O10	O	0.512281	1.400025	0.568736
O11	O	-0.162277	0.784542	0.068742
O12	O	0.337723	1.284542	0.568742
O13	O	-0.143628	1.004818	0.068739
O14	O	0.356372	1.504818	0.568739
Cu15	Cu	-0.152952	0.894678	0.081295
Cu16	Cu	0.347048	1.394678	0.581295
Cu17	Cu	-0.152965	0.894697	-0.081307
Cu18	Cu	0.347035	1.394697	0.418693
O19	O	-0.318187	0.889334	0.068746
O20	O	0.181813	1.389334	0.568746
C21	C	-0.161610	0.756349	-0.000004
C22	C	0.338390	1.256349	0.499996
C23	C	-0.159593	0.672321	-0.000003
C24	C	0.340407	1.172321	0.499997
C25	C	-0.250682	0.147936	-0.000009
C26	C	0.249318	0.647936	0.499991
C27	C	-0.252570	0.226890	-0.000012
C28	C	0.247430	0.726890	0.499988
C29	C	-0.150098	0.274961	-0.000015
C30	C	0.349902	0.774961	0.499985
C31	C	-0.045731	0.244075	-0.000024
C32	C	0.454269	0.744075	0.499976
C33	C	-0.043844	0.165122	-0.000027
C34	C	0.456156	0.665122	0.499973
C35	C	-0.053338	0.562481	-0.000010
C36	C	0.446662	1.062481	0.499990
C37	C	-0.055233	0.641439	-0.000004
C38	C	0.444767	1.141439	0.499996
C39	C	-0.262065	0.624249	0.000005
C40	C	0.237935	1.124249	0.500005
C41	C	-0.260178	0.545296	0.000002
C42	C	0.239822	1.045296	0.500002
C43	C	-0.155811	0.514417	-0.000012
C44	C	0.344189	1.014417	0.499988
C45	C	-0.153765	0.428806	-0.000011
C46	C	0.346235	0.928806	0.499989
C47	C	-0.152143	0.360570	-0.000010
C48	C	0.347857	0.860570	0.499990
C49	C	-0.360475	0.890014	0.000000
C50	C	0.139525	1.390014	0.500000
C51	C	-0.486465	0.892024	0.000004
C52	C	0.013535	1.392024	0.500004
C53	C	-0.717133	0.895720	-0.000017
C54	C	-0.217133	1.395720	0.499983
C55	C	-0.588773	0.893667	-0.000006
C56	C	-0.088773	1.393667	0.499994
C57	C	0.054559	0.899362	-0.000014
C58	C	0.554559	1.399362	0.499986
C59	C	0.180549	0.897352	-0.000023
C60	C	0.680549	1.397352	0.499977
C61	C	-0.144306	1.033027	-0.000010
C62	C	0.355694	1.533027	0.499990
C63	C	-0.146323	1.117055	-0.000016
C64	C	0.353677	1.617055	0.499984
N65	N	-0.152942	0.894671	0.195660
N66	N	0.347058	1.394671	0.695660
N67	N	-0.152966	0.894711	-0.195672
N68	N	0.347034	1.394711	0.304328
C69	C	-0.075679	0.945823	0.238921
C70	C	0.424321	1.445823	0.738921
C71	C	-0.075678	0.945826	0.325468
C72	C	0.424322	1.445826	0.825468
C73	C	-0.152946	0.894681	0.368753
C74	C	0.347054	1.394681	0.868753
C75	C	-0.230212	0.843524	0.325485
C76	C	0.269788	1.343524	0.825485
C77	C	-0.230207	0.843517	0.238940
C78	C	0.269793	1.343517	0.738940
C79	C	-0.230233	0.843550	0.674514
C80	C	0.269767	1.343550	1.174514
C81	C	-0.230235	0.843562	0.761065
C82	C	0.269765	1.343562	1.261065
C83	C	-0.075704	0.945859	0.761042
C84	C	0.424296	1.445859	1.261042
C85	C	-0.075699	0.945852	0.674497
C86	C	0.424301	1.445852	1.174497
C87	C	-0.152961	0.894693	0.631237
C88	C	0.347039	1.394693	1.131237
C89	C	-0.152960	0.894688	0.537393
C90	C	0.347040	1.394688	1.037393
C91	C	-0.152953	0.894689	0.462595
C92	C	0.347047	1.394689	0.962595
H93	H	0.037704	0.283221	-0.000031
H94	H	0.537704	0.783221	0.499969
C95	C	-0.372905	0.492421	0.000011
C96	C	0.127095	0.992421	0.500011
N97	N	-0.457814	0.452597	0.000017
N98	N	0.042186	0.952597	0.500017
C99	C	0.009345	1.002079	0.373052
C100	C	0.509345	1.502079	0.873052
N101	N	0.073398	1.044445	0.408891
N102	N	0.573398	1.544445	0.908891
H103	H	-0.347045	0.649399	0.000013
H104	H	0.152955	1.149399	0.500013
H105	H	0.041136	0.139981	-0.000034
H106	H	0.541136	0.639981	0.499966
H107	H	-0.012784	0.987502	0.639257
H108	H	0.487216	1.487502	1.139257
C109	C	-0.315197	0.787257	0.373101
C110	C	0.184803	1.287257	0.873101
N111	N	-0.379210	0.744875	0.408965
N112	N	0.120790	1.244875	0.908965
H113	H	-0.293158	0.801911	0.796306
H114	H	0.206842	1.301911	1.296306
H115	H	-0.293145	0.801895	0.639298
H116	H	0.206855	1.301895	1.139298
H117	H	0.028217	0.680578	-0.000009
H118	H	0.528217	1.180578	0.499991
H119	H	-0.012789	0.987514	0.796273
H120	H	0.487211	1.487514	1.296273
H121	H	-0.293121	0.801863	0.203717
H122	H	0.206879	1.301863	0.703717
H123	H	-0.012763	0.987474	0.203685
H124	H	0.487237	1.487474	0.703685
C125	C	-0.363412	0.095064	-0.000004
C126	C	0.136588	0.595064	0.499996
N127	N	-0.448324	0.055242	-0.000004
N128	N	0.051676	0.555242	0.499996
H129	H	-0.337550	0.252029	-0.000014
H130	H	0.162450	0.752029	0.499986
H131	H	0.031643	0.537350	-0.000019
H132	H	0.531643	1.037350	0.499981
