data_functionalizedCrystal
_audit_creation_method	'MofGen! by Chris Wilmer'
_symmetry_space_group_name_H-M	'P1'
_symmetry_Int_Tables_number	1
_symmetry_cell_setting	triclinic
loop_
_symmetry_equiv_pos_as_xyz
  x,y,z
_cell_length_a	14.519709
_cell_length_b	14.519709
_cell_length_c	13.930277
_cell_angle_alpha	89.994503
_cell_angle_beta	89.998398
_cell_angle_gamma	83.680145
loop_
_atom_site_label
_atom_site_type_symbol
_atom_site_fract_x
_atom_site_fract_y
_atom_site_fract_z
O1	O	1.223871	0.120891	-0.079708
O2	O	1.557205	0.454224	0.253625
O3	O	1.890538	0.787557	0.586959
O4	O	0.955394	0.135127	-0.079738
O5	O	1.288728	0.468460	0.253596
O6	O	1.622061	0.801794	0.586929
O7	O	1.096751	-0.006230	-0.079713
O8	O	1.430084	0.327104	0.253620
O9	O	1.763418	0.660437	0.586953
O10	O	1.082514	0.262247	-0.079732
O11	O	1.415848	0.595581	0.253601
O12	O	1.749181	0.928914	0.586934
O13	O	1.096731	-0.006233	0.079949
O14	O	1.430065	0.327101	0.413282
O15	O	1.763398	0.660434	0.746615
O16	O	0.955375	0.135124	0.079924
O17	O	1.288708	0.468457	0.413258
O18	O	1.622041	0.801791	0.746591
O19	O	1.223852	0.120887	0.079954
O20	O	1.557185	0.454221	0.413287
O21	O	1.890518	0.787554	0.746621
Zn22	Zn	1.089610	0.128005	0.105289
Zn23	Zn	1.422943	0.461339	0.438622
Zn24	Zn	1.756277	0.794672	0.771956
Zn25	Zn	1.089636	0.128009	-0.105073
Zn26	Zn	1.422969	0.461343	0.228261
Zn27	Zn	1.756303	0.794676	0.561594
O28	O	1.082495	0.262244	0.079930
O29	O	1.415828	0.595578	0.413263
O30	O	1.749161	0.928911	0.746596
C31	C	0.921025	0.134462	0.000090
C32	C	1.254358	0.467795	0.333423
C33	C	1.587691	0.801129	0.666756
C34	C	0.818643	0.132474	0.000079
C35	C	1.151977	0.465807	0.333412
C36	C	1.485310	0.799141	0.666745
C37	C	0.443748	0.125154	0.000123
C38	C	0.777081	0.458488	0.333456
C39	C	1.110414	0.791821	0.666790
C40	C	0.548056	0.127187	0.000110
C41	C	0.881389	0.460520	0.333444
C42	C	1.214722	0.793854	0.666777
C43	C	0.631192	0.128814	0.000100
C44	C	0.964526	0.462147	0.333433
C45	C	1.297859	0.795481	0.666767
C46	C	0.735507	0.130847	0.000089
C47	C	1.068840	0.464180	0.333422
C48	C	1.402173	0.797514	0.666756
C49	C	1.096078	-0.040591	0.000118
C50	C	1.429411	0.292742	0.333451
C51	C	1.762744	0.626076	0.666784
C52	C	1.094090	-0.142972	0.000118
C53	C	1.427423	0.190361	0.333451
C54	C	1.760756	0.523694	0.666785
C55	C	1.086770	-0.517868	0.000092
C56	C	1.420103	-0.184535	0.333426
C57	C	1.753437	0.148799	0.666759
C58	C	1.088803	-0.413560	0.000100
C59	C	1.422136	-0.080227	0.333433
C60	C	1.755469	0.253107	0.666766
C61	C	1.090430	-0.330423	0.000106
C62	C	1.423763	0.002910	0.333439
C63	C	1.757096	0.336243	0.666773
C64	C	1.092463	-0.226109	0.000112
C65	C	1.425796	0.107224	0.333445
C66	C	1.759129	0.440558	0.666778
C67	C	1.258221	0.121553	0.000125
C68	C	1.591554	0.454886	0.333458
C69	C	1.924888	0.788219	0.666791
C70	C	1.360602	0.123541	0.000129
C71	C	1.693936	0.456874	0.333463
C72	C	2.027269	0.790207	0.666796
C73	C	1.083168	0.296606	0.000097
C74	C	1.416501	0.629939	0.333430
C75	C	1.749835	0.963272	0.666763
C76	C	1.085156	0.398987	0.000090
C77	C	1.418490	0.732320	0.333423
C78	C	1.751823	1.065653	0.666757
N79	N	1.089599	0.128002	0.248855
N80	N	1.422932	0.461335	0.582188
N81	N	1.756266	0.794669	0.915522
N82	N	1.089654	0.128005	-0.248639
N83	N	1.422987	0.461339	0.084695
N84	N	1.756321	0.794672	0.418028
C85	C	1.027041	0.190577	0.701113
C86	C	1.360374	0.523911	1.034447
C87	C	1.693707	0.857244	1.367780
C88	C	1.152256	0.065434	0.701104
C89	C	1.485590	0.398767	1.034438
C90	C	1.818923	0.732101	1.367771
C91	C	1.152246	0.065431	0.600609
C92	C	1.485579	0.398764	0.933942
C93	C	1.818912	0.732098	1.267275
C94	C	1.089632	0.128003	0.550361
C95	C	1.422965	0.461337	0.883694
C96	C	1.756299	0.794670	1.217027
C97	C	1.027030	0.190578	0.600608
C98	C	1.360363	0.523912	0.933942
C99	C	1.693696	0.857245	1.267275
C100	C	1.214853	0.002863	0.550353
C101	C	1.548186	0.336197	0.883687
C102	C	1.881520	0.669530	1.217020
C103	C	1.214845	0.002859	0.449851
C104	C	1.548179	0.336192	0.783185
C105	C	1.881512	0.669525	1.116518
C106	C	1.152227	0.065427	0.399602
C107	C	1.485560	0.398760	0.732935
C108	C	1.818893	0.732094	1.066268
C109	C	1.089621	0.128004	0.449856
C110	C	1.422954	0.461337	0.783189
C111	C	1.756288	0.794671	1.116522
C112	C	1.027008	0.190576	0.399608
C113	C	1.360341	0.523910	0.732941
C114	C	1.693674	0.857243	1.066274
C115	C	0.964397	0.253149	0.449860
C116	C	1.297730	0.586483	0.783193
C117	C	1.631063	0.919816	1.116527
C118	C	0.964411	0.253147	0.550359
C119	C	1.297744	0.586480	0.883692
C120	C	1.631078	0.919813	1.217025
C121	C	1.152212	0.065430	0.299103
C122	C	1.485546	0.398763	0.632436
C123	C	1.818879	0.732096	0.965770
C124	C	1.026997	0.190577	0.299103
C125	C	1.360330	0.523910	0.632436
C126	C	1.693663	0.857244	0.965769
H127	H	0.976005	0.241528	0.258197
H128	H	1.309339	0.574861	0.591530
H129	H	1.642672	0.908195	0.924864
O130	O	1.219790	-0.002045	0.755301
O131	O	1.553123	0.331289	1.088634
O132	O	1.886456	0.664622	1.421967
H133	H	1.263324	-0.045551	0.703474
H134	H	1.596657	0.287782	1.036807
H135	H	1.929990	0.621115	1.370141
H136	H	0.913436	0.304092	0.591280
H137	H	1.246770	0.637426	0.924614
H138	H	1.580103	0.970759	1.257947
O139	O	1.219709	-0.002069	0.244892
O140	O	1.553042	0.331265	0.578225
O141	O	1.886375	0.664598	0.911559
H142	H	1.264589	0.036839	0.199083
H143	H	1.597923	0.370173	0.532416
H144	H	1.931256	0.703506	0.865749
O145	O	0.896849	0.320624	0.395662
O146	O	1.230182	0.653957	0.728996
O147	O	1.563515	0.987290	1.062329
H148	H	0.907358	0.310100	0.317338
H149	H	1.240691	0.643433	0.650671
H150	H	1.574025	0.976767	0.984005
H151	H	0.976061	0.241521	0.742031
H152	H	1.309395	0.574855	1.075365
H153	H	1.642728	0.908188	1.408698
H154	H	1.265836	-0.048077	0.591268
H155	H	1.599169	0.285257	0.924602
H156	H	1.932502	0.618590	1.257935
O157	O	1.282360	-0.064636	0.395652
O158	O	1.615694	0.268697	0.728985
O159	O	1.949027	0.602031	1.062318
H160	H	1.325895	-0.108151	0.447478
H161	H	1.659228	0.225183	0.780811
H162	H	1.992561	0.558516	1.114144
