data_functionalizedCrystal
_audit_creation_method	'MofGen! by Chris Wilmer'
_symmetry_space_group_name_H-M	'P1'
_symmetry_Int_Tables_number	1
_symmetry_cell_setting	triclinic
loop_
_symmetry_equiv_pos_as_xyz
  x,y,z
_cell_length_a	14.044191
_cell_length_b	17.699083
_cell_length_c	16.776229
_cell_angle_alpha	90.005210
_cell_angle_beta	89.997960
_cell_angle_gamma	88.237396
loop_
_atom_site_label
_atom_site_type_symbol
_atom_site_fract_x
_atom_site_fract_y
_atom_site_fract_z
O1	O	1.257289	0.182455	-0.066253
O2	O	0.981334	0.175866	-0.066263
O3	O	1.127108	0.069509	-0.066250
O4	O	1.111515	0.288812	-0.066265
O5	O	1.127094	0.069529	0.066326
O6	O	0.981321	0.175885	0.066314
O7	O	1.257275	0.182474	0.066324
Zn8	Zn	1.119296	0.179183	0.087368
Zn9	Zn	1.119314	0.179157	-0.087307
O10	O	1.111502	0.288831	0.066312
C11	C	1.126542	0.041283	0.000038
C12	C	1.124866	-0.042850	0.000038
C13	C	0.946020	0.172993	0.000025
C14	C	0.840814	0.164395	0.000021
C15	C	1.210432	-0.085567	0.000043
C16	C	1.208852	-0.164620	0.000036
C17	C	1.121704	-0.200954	0.000030
C18	C	1.036131	-0.158231	0.000023
C19	C	1.037713	-0.079180	0.000025
C20	C	1.029751	-0.477035	0.000017
C21	C	1.028176	-0.556091	0.000018
C22	C	1.200890	-0.562474	0.000027
C23	C	1.202471	-0.483423	0.000029
C24	C	1.116899	-0.440707	0.000018
C25	C	1.118614	-0.354990	0.000024
C26	C	1.119988	-0.286670	0.000029
C27	C	0.590423	0.209655	0.000026
C28	C	0.648192	0.148688	0.000029
C29	C	0.755376	0.157430	0.000024
C30	C	0.483229	0.200915	0.000030
C31	C	1.292590	0.185347	0.000035
C32	C	1.397796	0.193945	0.000034
C33	C	1.112067	0.317057	0.000022
C34	C	1.113743	0.401191	0.000016
N35	N	1.119291	0.179200	0.206580
N36	N	1.119326	0.179134	-0.206518
C37	C	1.061954	0.129335	0.751752
C38	C	1.061952	0.129341	0.668300
C39	C	1.119317	0.179151	0.626579
C40	C	1.176696	0.228953	0.668314
C41	C	1.176703	0.228943	0.751765
C42	C	1.176672	0.228996	0.331767
C43	C	1.176658	0.229004	0.248311
C44	C	1.061920	0.129394	0.248302
C45	C	1.061927	0.129384	0.331753
C46	C	1.119309	0.179183	0.373481
C47	C	1.119312	0.179174	0.463969
C48	C	1.119310	0.179164	0.536092
H49	H	1.281398	-0.055990	0.000052
Br50	Br	0.921583	-0.021206	0.000013
Br51	Br	0.642155	0.307589	0.000011
H52	H	0.960073	-0.442265	0.000008
H53	H	1.270567	-0.597262	0.000032
H54	H	1.223376	0.269568	0.214343
Br55	Br	0.596462	0.050748	0.000037
Br56	Br	1.254558	0.296548	0.611694
Br57	Br	0.917858	-0.207541	0.000002
Br58	Br	0.984089	0.061737	0.808366
H59	H	1.223395	0.269546	0.365732
H60	H	1.015236	0.088787	0.634328
H61	H	1.015210	0.088826	0.365718
H62	H	1.223422	0.269494	0.785740
H63	H	1.278528	-0.199396	0.000041
H64	H	1.273436	-0.453844	0.000037
H65	H	1.015200	0.088844	0.214317
H66	H	0.957206	-0.585672	0.000015
