data_functionalizedCrystal
_audit_creation_method	'MofGen! by Chris Wilmer'
_symmetry_space_group_name_H-M	'P1'
_symmetry_Int_Tables_number	1
_symmetry_cell_setting	triclinic
loop_
_symmetry_equiv_pos_as_xyz
  x,y,z
_cell_length_a	12.970454
_cell_length_b	19.851628
_cell_length_c	12.970454
_cell_angle_alpha	59.996520
_cell_angle_beta	89.998716
_cell_angle_gamma	60.003484
loop_
_atom_site_label
_atom_site_type_symbol
_atom_site_fract_x
_atom_site_fract_y
_atom_site_fract_z
Zr1	Zr	0.993301	0.737327	-0.135368
O2	O	0.828693	0.877859	-0.300000
O3	O	1.043752	0.596796	-0.084893
O4	O	1.043769	0.737327	-0.299993
O5	O	0.828675	0.737329	0.084767
O6	O	1.213436	0.737326	-0.299995
O7	O	0.828676	0.737328	-0.084900
O8	O	1.213406	0.485941	0.084779
O9	O	0.828705	0.988713	-0.300008
O10	O	1.191902	0.654598	-0.063376
O11	O	1.065280	0.654599	0.063246
O12	O	1.065300	0.820056	-0.190006
O13	O	0.938678	0.820057	-0.063384
Zr14	Zr	1.263899	0.737327	0.135226
Zr15	Zr	1.263901	0.737327	-0.135372
Zr16	Zr	0.993299	0.737328	0.135230
Zr17	Zr	0.993320	0.914127	-0.135381
Zr18	Zr	1.263880	0.560528	0.135239
O19	O	1.213448	0.877859	0.084751
O20	O	1.213451	0.877858	-0.300005
O21	O	0.828690	0.877861	0.084757
O22	O	1.428508	0.596796	0.299858
O23	O	1.428510	0.596794	-0.084899
O24	O	1.043749	0.596797	0.299864
O25	O	1.428525	0.737326	-0.084909
O26	O	1.213432	0.737328	0.299851
O27	O	1.043764	0.737329	0.299853
O28	O	1.428524	0.737327	0.084758
O29	O	1.043795	0.988713	-0.300011
O30	O	1.213405	0.485942	0.299869
O31	O	1.428496	0.485941	0.299866
O32	O	1.428497	0.485941	0.084776
O33	O	0.828703	0.988714	-0.084918
O34	O	1.043794	0.988713	-0.084921
O35	O	1.191900	0.654599	0.189864
O36	O	1.318522	0.654598	0.063242
O37	O	1.191920	0.820056	-0.063388
O38	O	1.065298	0.820057	0.063234
C39	C	0.790121	0.737329	-0.000066
C40	C	0.675244	0.737329	-0.000064
C41	C	1.128576	0.516178	-0.000055
C42	C	1.128568	0.441122	-0.000049
C43	C	1.059550	0.259764	0.068979
C44	C	1.009517	0.270102	-0.050084
C45	C	1.128589	0.303702	-0.000067
C46	C	1.178584	0.159649	0.118967
C47	C	1.128608	0.170958	-0.000074
C48	C	1.078486	0.315074	-0.119201
C49	C	1.247619	0.204576	0.049937
C50	C	1.197615	0.214948	-0.069198
C51	C	1.128575	0.380174	-0.000062
C52	C	1.128620	0.094493	-0.000092
C53	C	1.467079	0.737326	-0.000076
C54	C	1.581956	0.737326	-0.000078
C55	C	1.128603	0.737326	-0.338548
C56	C	1.128603	0.737326	-0.453425
C57	C	1.128624	0.958477	-0.000087
C58	C	1.128632	1.033532	-0.000092
C59	C	1.128598	0.737329	0.338407
C60	C	1.128597	0.737329	0.453283
C61	C	1.467056	0.516177	-0.000060
C62	C	1.581924	0.441121	-0.000056
C63	C	1.128574	0.516180	0.338423
C64	C	1.128565	0.441124	0.453304
C65	C	1.467053	0.516178	0.338417
C66	C	1.581921	0.441122	0.453297
C67	C	0.790147	0.958477	-0.338559
C68	C	0.675279	1.033532	-0.453439
C69	C	0.790145	0.958478	-0.000082
C70	C	0.675276	1.033534	-0.000085
C71	C	1.128626	0.958475	-0.338565
C72	C	1.128635	1.033531	-0.453446
C73	C	1.569774	0.405874	-0.066159
C74	C	1.677695	0.335360	-0.066181
C75	C	1.797765	0.300090	-0.000092
C76	C	1.809914	0.335344	0.066013
C77	C	1.701994	0.405861	0.066027
C78	C	1.194655	0.405877	0.573359
C79	C	1.194642	0.335364	0.681312
C80	C	1.128546	0.300095	0.669209
C81	C	1.062447	0.335349	0.549142
C82	C	1.062454	0.405865	0.441191
C83	C	1.701971	0.405875	0.441151
C84	C	1.809912	0.335362	0.549082
C85	C	1.797801	0.300092	0.669159
C86	C	1.677738	0.335347	0.681303
C87	C	1.569800	0.405864	0.573373
C88	C	0.555229	1.068789	-0.441292
C89	C	0.447288	1.139324	-0.549224
C90	C	0.459400	1.174597	-0.669301
C91	C	0.579462	1.139338	-0.681445
C92	C	0.687400	1.068809	-0.573515
C93	C	0.687427	1.068789	0.066006
C94	C	0.579506	1.139322	0.065998
C95	C	0.459435	1.174594	-0.000095
C96	C	0.447287	1.139337	-0.066195
C97	C	0.555206	1.068810	-0.066193
C98	C	1.194745	1.068778	-0.441302
C99	C	1.194778	1.139291	-0.549235
C100	C	1.128693	1.174561	-0.669311
C101	C	1.062581	1.139307	-0.681453
C102	C	1.062557	1.068790	-0.573521
H103	H	1.001091	0.279507	0.127279
N104	N	0.542760	1.032798	-0.133692
N105	N	0.486421	0.993464	-0.105646
H106	H	0.477620	0.968034	-0.153320
H107	H	1.711905	0.434551	0.119863
H108	H	1.220857	0.093219	0.219635
H109	H	1.248472	0.306669	0.779065
N110	N	0.591910	1.175323	0.133536
N111	N	0.495555	1.238293	0.133536
H112	H	0.504316	1.263717	0.181236
N113	N	0.994936	0.441853	0.318570
N114	N	0.935933	0.410346	0.307795
H115	H	0.888242	0.435759	0.221196
H116	H	1.008777	1.168035	-0.779233
N117	N	1.714360	0.441882	0.318503
N118	N	1.770674	0.386780	0.286305
H119	H	1.779431	0.412209	0.199686
N120	N	1.908022	0.227984	0.000025
N121	N	1.926612	0.149292	0.042881
H122	H	2.004491	0.098341	0.043014
N123	N	1.447132	0.441881	-0.133652
N124	N	1.414926	0.386777	-0.105627
H125	H	1.328311	0.412205	-0.153298
N126	N	0.349124	1.246643	-0.779530
N127	N	0.241947	1.278106	-0.768653
H128	H	0.164059	1.328988	-0.846498
H129	H	1.128723	1.231981	-0.757186
H130	H	0.349511	1.168066	-0.120006
H131	H	0.545343	1.040073	-0.343529
N132	N	1.932532	0.299370	0.536637
N133	N	1.943317	0.330865	0.429414
H134	H	2.029914	0.305448	0.420620
H135	H	0.371570	1.232022	-0.000086
H136	H	1.248558	1.040072	-0.343540
N137	N	1.665246	0.299368	-0.133715
N138	N	1.558028	0.330864	-0.192702
H139	H	1.549231	0.305447	-0.240398
N140	N	1.262190	0.441880	0.585764
N141	N	1.321184	0.410393	0.692976
H142	H	1.368881	0.435817	0.701748
H143	H	1.128551	0.242676	0.757120
H144	H	1.248611	1.167988	-0.539325
N145	N	1.373865	0.170755	0.103050
N146	N	1.438039	0.099075	0.214320
H147	H	1.527205	0.075183	0.251846
N148	N	1.908077	0.228062	0.779388
N149	N	2.015254	0.196602	0.768511
H150	H	2.093142	0.145728	0.846356
N151	N	0.324668	1.175321	-0.536779
N152	N	0.313884	1.143806	-0.429556
H153	H	0.227286	1.169226	-0.420761
N154	N	1.447165	0.441845	0.585769
N155	N	1.350790	0.504791	0.489406
H156	H	1.264178	0.530196	0.498166
H157	H	0.589309	1.168066	-0.779225
N158	N	0.995014	1.032802	-0.585958
N159	N	0.936018	1.064309	-0.693182
H160	H	0.888313	1.038895	-0.701976
H161	H	1.008633	0.306622	0.539306
N162	N	0.810016	1.032795	-0.585958
N163	N	0.842170	0.993463	-0.642292
H164	H	0.928765	0.968032	-0.651090
H165	H	1.667895	0.306620	0.779084
N166	N	0.810057	1.032790	0.133514
N167	N	0.842252	1.087902	0.105466
H168	H	0.928857	1.062486	0.153141
H169	H	0.908862	0.297067	-0.092387
H170	H	1.036095	0.381474	-0.219916
H171	H	1.255993	0.195409	-0.127672
H172	H	1.907690	0.306617	0.119820
