data_functionalizedCrystal
_audit_creation_method	'MofGen! by Chris Wilmer'
_symmetry_space_group_name_H-M	'P1'
_symmetry_Int_Tables_number	1
_symmetry_cell_setting	triclinic
loop_
_symmetry_equiv_pos_as_xyz
  x,y,z
_cell_length_a	23.532407
_cell_length_b	27.732048
_cell_length_c	22.010155
_cell_angle_alpha	89.999275
_cell_angle_beta	89.996931
_cell_angle_gamma	82.745667
loop_
_atom_site_label
_atom_site_type_symbol
_atom_site_fract_x
_atom_site_fract_y
_atom_site_fract_z
O1	O	0.755138	0.058672	-0.050456
O2	O	0.589257	0.067162	-0.050475
O3	O	0.677350	-0.007472	-0.050453
O4	O	0.667046	0.133306	-0.050477
O5	O	0.677334	-0.007461	0.050597
O6	O	0.589241	0.067173	0.050576
O7	O	0.755122	0.058683	0.050595
Cu8	Cu	0.672180	0.062929	0.059812
Cu9	Cu	0.672199	0.062916	-0.059692
O10	O	0.667030	0.133317	0.050573
C11	C	0.568033	0.066952	0.000048
C12	C	0.504818	0.066302	0.000042
C13	C	0.105629	0.106391	0.000062
C14	C	0.046230	0.105787	0.000066
O15	O	0.009406	0.142951	0.000082
N16	N	0.023699	0.061418	0.000073
C17	C	0.060570	0.017649	0.000082
O18	O	0.035951	-0.020147	0.000088
C19	C	0.119967	0.018253	0.000082
C20	C	0.142495	0.062626	0.000070
C21	C	0.128158	0.150760	0.000050
C22	C	0.187552	0.151364	0.000045
C23	C	0.224419	0.107599	0.000052
C24	C	0.201890	0.063229	0.000065
C25	C	0.156837	-0.025515	0.000096
C26	C	0.216239	-0.024907	0.000097
C27	C	0.238766	0.019466	0.000084
C28	C	0.298151	0.020068	0.000067
N29	N	0.320683	0.064437	0.000060
C30	C	0.283817	0.108203	0.000053
C31	C	-0.064170	0.016383	0.000082
C32	C	-0.123567	0.015778	0.000077
C33	C	-0.137902	0.103917	0.000062
C34	C	-0.078505	0.104521	0.000063
C35	C	-0.041639	0.060753	0.000075
C36	C	0.408551	0.109467	0.000042
C37	C	0.467951	0.110067	0.000035
C38	C	0.482282	0.021928	0.000052
C39	C	0.422886	0.021328	0.000057
C40	C	0.386021	0.065102	0.000053
O41	O	0.335010	-0.017077	0.000054
O42	O	0.308444	0.145992	0.000054
C43	C	0.677125	-0.025473	0.000074
C44	C	0.676474	-0.079129	0.000079
C45	C	0.724431	-0.417871	0.000053
C46	C	0.722014	-0.619534	0.000044
O47	O	0.765867	-0.650722	0.000023
N48	N	0.669779	-0.638738	0.000039
C49	C	0.618144	-0.607523	0.000032
O50	O	0.573659	-0.628484	0.000021
C51	C	0.620561	-0.405860	0.000036
C52	C	0.672800	-0.386659	0.000048
C53	C	0.776665	-0.398669	0.000064
C54	C	0.777269	-0.348256	0.000069
C55	C	0.725638	-0.317045	0.000064
C56	C	0.673403	-0.336247	0.000053
C57	C	0.568927	-0.374646	0.000025
C58	C	0.569536	-0.324228	0.000024
C59	C	0.621775	-0.305027	0.000036
C60	C	0.622376	-0.254622	0.000053
N61	N	0.674611	-0.235418	0.000059
C62	C	0.726242	-0.266630	0.000064
C63	C	0.616879	-0.713399	0.000031
C64	C	0.616274	-0.763814	0.000031
C65	C	0.720145	-0.775822	0.000042
C66	C	0.720749	-0.725406	0.000046
C67	C	0.669114	-0.694195	0.000036
C68	C	0.727506	-0.160758	0.000076
C69	C	0.728105	-0.110341	0.000084
C70	C	0.624235	-0.098337	0.000069
C71	C	0.623635	-0.148751	0.000065
C72	C	0.675276	-0.179961	0.000066
O73	O	0.578547	-0.223406	0.000068
O74	O	0.770721	-0.245659	0.000061
C75	C	0.723827	-0.468283	0.000047
C76	C	0.671593	-0.487485	0.000037
C77	C	0.619962	-0.456274	0.000031
C78	C	0.670988	-0.537900	0.000037
C79	C	0.722619	-0.569112	0.000042
C80	C	0.774855	-0.549908	0.000047
C81	C	0.775458	-0.499495	0.000053
C82	C	0.567727	-0.475478	0.000026
C83	C	0.567127	-0.525891	0.000021
C84	C	0.618758	-0.557103	0.000026
C85	C	0.776346	0.058894	0.000070
C86	C	0.839562	0.059544	0.000073
C87	C	0.667254	0.151319	0.000045
C88	C	0.667905	0.204975	0.000036
N89	N	0.672171	0.062938	0.143864
N90	N	0.672213	0.062903	-0.143744
C91	C	0.711209	0.029873	0.563653
C92	C	0.711211	0.029869	0.627261
O93	O	0.744380	0.001762	0.660160
N94	N	0.672199	0.062906	0.659071
C95	C	0.633177	0.095945	0.627271
O96	O	0.599994	0.124044	0.660169
C97	C	0.633172	0.095945	0.563665
C98	C	0.672191	0.062910	0.531857
C99	C	0.750224	-0.003160	0.531846
C100	C	0.750222	-0.003156	0.468243
C101	C	0.711205	0.029881	0.436447
C102	C	0.672189	0.062914	0.468254
C103	C	0.594148	0.128981	0.531866
C104	C	0.594147	0.128979	0.468255
C105	C	0.633166	0.095943	0.436447
C106	C	0.633170	0.095955	0.372855
N107	N	0.672182	0.062919	0.341045
C108	C	0.711200	0.029881	0.372840
C109	C	0.633190	0.095940	0.760849
C110	C	0.633197	0.095942	0.824454
C111	C	0.711231	0.029866	0.824440
C112	C	0.711226	0.029867	0.760833
C113	C	0.672202	0.062904	0.729038
C114	C	0.711193	0.029893	0.239269
C115	C	0.711189	0.029901	0.175660
C116	C	0.633153	0.095975	0.175680
C117	C	0.633159	0.095969	0.239284
C118	C	0.672181	0.062924	0.271076
O119	O	0.600017	0.124047	0.339915
O120	O	0.744372	0.001783	0.339935
H121	H	-0.167930	0.139553	0.000059
H122	H	-0.060167	0.140653	0.000056
H123	H	0.818712	-0.424077	0.000066
H124	H	0.562367	0.155881	0.442371
H125	H	0.404543	-0.014804	0.000058
C126	C	0.132278	-0.073643	0.000080
C127	C	0.072369	-0.064817	0.000064
C128	C	0.049727	-0.109143	0.000042
H129	H	0.144899	-0.091680	0.035314
H130	H	0.144932	-0.091660	-0.035168
H131	H	0.059720	-0.046808	0.035309
H132	H	0.059733	-0.046787	-0.035167
H133	H	0.062381	-0.127160	-0.035206
H134	H	0.062351	-0.127177	0.035276
H135	H	0.009077	-0.103161	0.000026
H136	H	-0.141903	-0.020355	0.000078
C137	C	0.590766	0.131896	0.141261
C138	C	0.556603	0.160836	0.182726
C139	C	0.517552	0.193934	0.151040
H140	H	0.567162	0.114663	0.116448
H141	H	0.611058	0.151958	0.116459
H142	H	0.536313	0.140777	0.207518
H143	H	0.580191	0.178081	0.207540
H144	H	0.537844	0.213996	0.126238
H145	H	0.493952	0.176696	0.126228
H146	H	0.494371	0.213577	0.179169
H147	H	0.525681	-0.450070	0.000020
C148	C	0.776246	-0.809657	-0.000052
C149	C	0.807734	-0.801009	-0.052033
C150	C	0.859417	-0.832165	-0.052141
H151	H	0.768482	-0.842448	-0.000086
H152	H	0.797716	-0.803859	0.035168
H153	H	0.786268	-0.806810	-0.087244
H154	H	0.815513	-0.768224	-0.052010
H155	H	0.880888	-0.826368	-0.016922
H156	H	0.851647	-0.864954	-0.052173
H157	H	0.880790	-0.826298	-0.087407
C158	C	0.792619	-0.038954	0.566438
C159	C	0.827249	-0.013356	0.602958
C160	C	0.866311	-0.046312	0.634834
H161	H	0.815906	-0.058638	0.538447
H162	H	0.772336	-0.058986	0.591291
H163	H	0.847532	0.006668	0.578108
H164	H	0.803978	0.006327	0.630961
H165	H	0.846027	-0.066345	0.659686
H166	H	0.889594	-0.065995	0.606838
H167	H	0.889808	-0.028949	0.659620
C168	C	0.256169	-0.072481	0.000075
C169	C	0.223721	-0.111465	0.000070
C170	C	0.260484	-0.155297	0.000039
H171	H	0.279653	-0.074144	0.035302
H172	H	0.279630	-0.074110	-0.035180
H173	H	0.200271	-0.109838	0.035321
H174	H	0.200239	-0.109818	-0.035154
H175	H	0.283945	-0.156925	-0.035216
H176	H	0.283966	-0.156955	0.035266
H177	H	0.238474	-0.181753	0.000030
H178	H	0.601414	0.122847	0.734965
C179	C	0.522289	-0.025601	-0.000065
C180	C	0.512185	-0.052341	-0.052053
C181	C	0.549035	-0.096124	-0.052181
H182	H	0.515536	-0.043860	0.035138
H183	H	0.560897	-0.018902	-0.000100
H184	H	0.473585	-0.059041	-0.052012
H185	H	0.518941	-0.034096	-0.087264
H186	H	0.587644	-0.089425	-0.052217
H187	H	0.542280	-0.114379	-0.016977
H188	H	0.542188	-0.114270	-0.087457
C189	C	0.753564	-0.006084	0.858890
C190	C	0.744756	-0.053545	0.843409
C191	C	0.783745	-0.086673	0.875127
H192	H	0.748016	-0.001420	0.901336
H193	H	0.791538	-0.001030	0.848452
H194	H	0.706791	-0.058598	0.853851
H195	H	0.750309	-0.058225	0.800969
H196	H	0.821720	-0.081618	0.864690
H197	H	0.778194	-0.082004	0.917571
H198	H	0.777778	-0.118879	0.864624
C199	C	0.212032	0.199530	-0.000098
C200	C	0.245697	0.202455	-0.052099
C201	C	0.268242	0.246825	-0.052259
H202	H	0.234942	0.201660	0.035095
H203	H	0.181573	0.225515	-0.000137
H204	H	0.276151	0.176477	-0.052055
H205	H	0.222799	0.200334	-0.087301
H206	H	0.237784	0.272810	-0.052297
H207	H	0.291151	0.248951	-0.017063
H208	H	0.291083	0.248818	-0.087544
H209	H	0.486290	0.146202	0.000024
H210	H	0.574829	-0.687991	0.000022
H211	H	0.098146	0.186402	0.000047
H212	H	0.769556	-0.186164	0.000075
H213	H	0.573737	-0.779443	0.000032
H214	H	0.378542	0.145112	0.000041
C215	C	0.784883	-0.089589	0.000063
C216	C	0.829968	-0.127717	0.000048
C217	C	0.882278	-0.108621	0.000018
H218	H	0.787356	-0.070181	0.035293
H219	H	0.787315	-0.070184	-0.035188
H220	H	0.827538	-0.147113	0.035295
H221	H	0.827514	-0.147128	-0.035181
H222	H	0.884709	-0.089216	-0.035233
H223	H	0.884745	-0.089213	0.035250
H224	H	0.912874	-0.134487	0.000002
H225	H	0.562376	0.155881	0.557754
C226	C	0.753622	-0.006007	0.273671
C227	C	0.787795	-0.034923	0.232191
C228	C	0.826893	-0.067993	0.263859
H229	H	0.733386	-0.026091	0.298486
H230	H	0.777210	0.011264	0.298470
H231	H	0.764210	-0.052192	0.207402
H232	H	0.808044	-0.014852	0.207375
H233	H	0.850481	-0.050722	0.288658
H234	H	0.806651	-0.088074	0.288673
H235	H	0.850087	-0.087613	0.235720
C236	C	0.510389	-0.546706	-0.000117
C237	C	0.479226	-0.530822	-0.052119
C238	C	0.426961	-0.549990	-0.052277
H239	H	0.489071	-0.535991	0.035076
H240	H	0.517393	-0.581204	-0.000154
H241	H	0.472220	-0.496331	-0.052076
H242	H	0.500526	-0.541537	-0.087320
H243	H	0.433966	-0.584488	-0.052314
H244	H	0.405649	-0.539273	-0.017081
H245	H	0.405813	-0.539218	-0.087562
C246	C	0.834045	-0.327508	0.000045
C247	C	0.879126	-0.365639	0.000032
C248	C	0.931439	-0.346549	-0.000001
H249	H	0.836522	-0.308099	0.035274
H250	H	0.836479	-0.308105	-0.035208
H251	H	0.876693	-0.385034	0.035280
H252	H	0.876668	-0.385052	-0.035195
H253	H	0.933872	-0.327146	-0.035253
H254	H	0.933909	-0.327140	0.035229
H255	H	0.962032	-0.372418	-0.000016
H256	H	0.526389	-0.390270	0.000012
C257	C	0.777423	-0.704494	-0.000042
C258	C	0.780809	-0.675894	-0.052024
C259	C	0.833008	-0.656621	-0.052124
H260	H	0.808133	-0.730257	-0.000069
H261	H	0.779820	-0.685048	0.035177
H262	H	0.778418	-0.695339	-0.087234
H263	H	0.750112	-0.650124	-0.052008
H264	H	0.835405	-0.637175	-0.016904
H265	H	0.863713	-0.682386	-0.052149
H266	H	0.835310	-0.637210	-0.087390
H267	H	0.781993	-0.030058	0.442349
C268	C	0.832235	-0.478746	0.000029
C269	C	0.877315	-0.516878	0.000016
C270	C	0.929628	-0.497787	-0.000015
H271	H	0.834711	-0.459337	0.035259
H272	H	0.834669	-0.459343	-0.035223
H273	H	0.874882	-0.536273	0.035265
H274	H	0.874858	-0.536290	-0.035210
H275	H	0.932062	-0.478384	-0.035267
H276	H	0.932098	-0.478379	0.035215
H277	H	0.960221	-0.523657	-0.000029
C278	C	0.513412	-0.290423	0.000044
C279	C	0.467540	-0.318034	0.000049
C280	C	0.415832	-0.286911	0.000076
H281	H	0.511414	-0.270493	-0.035183
H282	H	0.511448	-0.270514	0.035298
H283	H	0.469504	-0.337934	-0.035202
H284	H	0.469520	-0.337962	0.035274
H285	H	0.413867	-0.267002	0.035330
H286	H	0.413839	-0.266983	-0.035152
H287	H	0.384701	-0.305640	0.000085
C288	C	0.753477	-0.006056	0.726246
C289	C	0.723375	-0.035508	0.689751
C290	C	0.762271	-0.068618	0.657888
H291	H	0.776712	-0.025775	0.754245
H292	H	0.777042	0.011185	0.701378
H293	H	0.699821	-0.052748	0.714616
H294	H	0.700143	-0.015803	0.661740
H295	H	0.785836	-0.051377	0.633020
H296	H	0.785504	-0.088333	0.685891
H297	H	0.741853	-0.088602	0.633118
H298	H	0.581099	-0.164385	0.000072
C299	C	0.590773	0.131835	0.858874
C300	C	0.556597	0.160758	0.817406
C301	C	0.517501	0.193822	0.849089
H302	H	0.611012	0.151916	0.883689
H303	H	0.567188	0.114560	0.883674
H304	H	0.580179	0.178031	0.792617
H305	H	0.536345	0.140690	0.792590
H306	H	0.493915	0.176547	0.873889
H307	H	0.537744	0.213900	0.873903
H308	H	0.494304	0.213447	0.820958
C309	C	0.590773	0.131759	0.273902
C310	C	0.556151	0.106153	0.310426
C311	C	0.517099	0.139104	0.342327
H312	H	0.567480	0.151452	0.245926
H313	H	0.611065	0.151784	0.298753
H314	H	0.535860	0.086137	0.285577
H315	H	0.579428	0.086463	0.338414
H316	H	0.537391	0.159128	0.367179
H317	H	0.493810	0.158794	0.314347
H318	H	0.493607	0.121735	0.367117
H319	H	-0.034156	-0.019261	0.000086
H320	H	0.582198	-0.072916	0.000067
H321	H	0.816894	-0.575329	0.000054
H322	H	0.742965	0.003000	0.149765
