data_functionalizedCrystal
_audit_creation_method	'MofGen! by Chris Wilmer'
_symmetry_space_group_name_H-M	'P1'
_symmetry_Int_Tables_number	1
_symmetry_cell_setting	triclinic
loop_
_symmetry_equiv_pos_as_xyz
  x,y,z
_cell_length_a	27.731993
_cell_length_b	27.732048
_cell_length_c	14.421503
_cell_angle_alpha	89.999321
_cell_angle_beta	90.003981
_cell_angle_gamma	82.631525
loop_
_atom_site_label
_atom_site_type_symbol
_atom_site_fract_x
_atom_site_fract_y
_atom_site_fract_z
O1	O	0.640947	0.057385	-0.076872
O2	O	0.500150	0.066158	-0.076930
O3	O	0.574922	-0.008626	-0.076882
O4	O	0.566176	0.132169	-0.076921
O5	O	0.574909	-0.008615	0.077342
O6	O	0.500138	0.066169	0.077293
O7	O	0.640935	0.057396	0.077351
Cu8	Cu	0.570535	0.061783	0.091404
Cu9	Cu	0.570550	0.061770	-0.090983
O10	O	0.566164	0.132180	0.077303
C11	C	0.482137	0.065983	0.000174
C12	C	0.428480	0.065441	0.000153
C13	C	0.045327	0.061504	-0.083868
C14	C	0.246984	0.063571	-0.083894
O15	O	0.273063	0.063814	-0.155391
N16	N	0.272198	0.063836	0.000172
C17	C	0.246994	0.063581	0.084249
O18	O	0.273068	0.063848	0.155751
C19	C	0.045338	0.061510	0.084274
C20	C	0.020127	0.061251	0.000203
C21	C	0.020115	0.061244	-0.167932
C22	C	-0.030296	0.060730	-0.167925
C23	C	-0.055497	0.060476	-0.083853
C24	C	-0.030285	0.060736	0.000210
C25	C	0.020136	0.061252	0.168351
C26	C	-0.030281	0.060733	0.168349
C27	C	-0.055492	0.060473	0.084279
C28	C	-0.105897	0.059969	0.084289
N29	N	-0.131110	0.059704	0.000224
C30	C	-0.105910	0.059958	-0.083848
C31	C	0.352866	0.064669	0.084230
C32	C	0.403280	0.065187	0.084224
C33	C	0.403267	0.065177	-0.083919
C34	C	0.352852	0.064662	-0.083912
C35	C	0.327653	0.064404	0.000165
C36	C	-0.211778	0.058879	-0.083826
C37	C	-0.262195	0.058366	-0.083811
C38	C	-0.262177	0.058374	0.084331
C39	C	-0.211765	0.058889	0.084317
C40	C	-0.186567	0.059139	0.000231
O41	O	-0.132006	0.059720	0.155749
O42	O	-0.131991	0.059679	-0.155339
C43	C	0.095739	0.062018	-0.083875
C44	C	0.120950	0.062279	0.000189
C45	C	0.095750	0.062025	0.084260
C46	C	0.171364	0.062797	0.000183
C47	C	0.196564	0.063051	-0.083888
C48	C	0.171350	0.062786	-0.167954
C49	C	0.120939	0.062272	-0.167946
C50	C	0.120964	0.062290	0.168325
C51	C	0.171375	0.062804	0.168311
C52	C	0.196575	0.063058	0.084240
C53	C	0.574732	-0.026628	0.000233
C54	C	0.574179	-0.080282	0.000240
C55	C	0.614884	-0.419105	0.000209
C56	C	0.612833	-0.620765	0.000195
O57	O	0.650055	-0.652028	0.000170
N58	N	0.568497	-0.639880	0.000178
C59	C	0.524670	-0.608576	0.000158
O60	O	0.486912	-0.629462	0.000133
C61	C	0.526721	-0.406918	0.000165
C62	C	0.571061	-0.387806	0.000192
C63	C	0.659220	-0.399993	0.000235
C64	C	0.659732	-0.349581	0.000243
C65	C	0.615909	-0.318282	0.000226
C66	C	0.571573	-0.337394	0.000200
C67	C	0.482895	-0.375616	0.000138
C68	C	0.483412	-0.325199	0.000138
C69	C	0.527751	-0.306087	0.000165
C70	C	0.528262	-0.255683	0.000192
N71	N	0.572598	-0.236568	0.000209
C72	C	0.616422	-0.267867	0.000226
C73	C	0.523596	-0.714450	0.000156
C74	C	0.523083	-0.764865	0.000156
C75	C	0.611246	-0.777049	0.000192
C76	C	0.611759	-0.726634	0.000198
C77	C	0.567932	-0.695335	0.000173
C78	C	0.617494	-0.161998	0.000245
C79	C	0.618003	-0.111582	0.000257
C80	C	0.529839	-0.099401	0.000217
C81	C	0.529331	-0.149814	0.000209
C82	C	0.573162	-0.181112	0.000220
O83	O	0.491060	-0.224392	0.000206
O84	O	0.654174	-0.246972	0.000230
C85	C	0.614372	-0.469517	0.000201
C86	C	0.570036	-0.488630	0.000175
C87	C	0.526213	-0.457331	0.000158
C88	C	0.569523	-0.539044	0.000175
C89	C	0.613346	-0.570343	0.000192
C90	C	0.657683	-0.551228	0.000209
C91	C	0.658195	-0.500817	0.000218
C92	C	0.481876	-0.476446	0.000140
C93	C	0.481368	-0.526858	0.000133
C94	C	0.525191	-0.558157	0.000150
C95	C	0.658949	0.057570	0.000245
C96	C	0.712605	0.058113	0.000260
C97	C	0.566353	0.150181	0.000187
C98	C	0.566906	0.203836	0.000173
N99	N	0.570529	0.061792	0.219685
N100	N	0.570561	0.061757	-0.219264
C101	C	0.535948	0.096357	0.469317
C102	C	0.579558	0.105405	0.531134
C103	C	0.570540	0.061781	0.408847
C104	C	0.526941	0.052745	0.531123
C105	C	0.570548	0.061771	0.591568
C106	C	0.614172	0.070850	0.469304
C107	C	0.561527	0.018171	0.469287
C108	C	0.605169	0.027200	0.531077
C109	C	0.570535	0.061788	0.303586
C110	C	0.570558	0.061763	0.696827
H111	H	0.423793	0.065385	-0.152373
H112	H	0.693365	-0.576721	0.000228
N113	N	0.437113	-0.444472	0.000119
N114	N	0.427563	-0.414977	-0.064887
H115	H	0.395946	-0.392396	-0.064899
N116	N	0.197126	0.063060	0.254194
N117	N	0.229968	0.029256	0.272955
H118	H	0.248153	0.029432	0.333609
H119	H	0.506724	0.125620	0.442200
H120	H	0.553882	-0.018693	0.442099
H121	H	0.634457	-0.002047	0.558024
H122	H	0.445259	-0.542414	0.000119
N123	N	0.480682	0.043169	0.565194
N124	N	0.443190	0.071283	0.545402
H125	H	0.410518	0.064526	0.569464
N126	N	0.660445	0.080487	0.435408
N127	N	0.697991	0.052599	0.455832
H128	H	0.730671	0.059406	0.431893
N129	N	0.485078	-0.067423	0.000171
N130	N	0.455518	-0.068970	-0.064865
H131	H	0.423905	-0.046383	-0.064907
H132	H	0.694908	-0.425472	0.000246
N133	N	-0.287940	0.058104	-0.169700
N134	N	-0.265430	0.058331	-0.244755
H135	H	-0.283611	0.058145	-0.305413
H136	H	0.332328	0.064450	-0.152370
N137	N	-0.186043	0.059127	-0.169716
N138	N	-0.186968	0.024980	-0.225998
H139	H	-0.168793	0.025157	-0.286658
N140	N	-0.056035	0.060454	-0.253812
N141	N	-0.045683	0.026420	-0.310087
H142	H	-0.063857	0.026224	-0.370751
N143	N	0.045844	0.061500	-0.253825
N144	N	0.023319	0.061266	-0.328867
H145	H	0.041486	0.061449	-0.389536
H146	H	0.587189	0.142280	0.558300
H147	H	0.646929	-0.802542	0.000206
N148	N	0.662270	-0.193956	0.000273
N149	N	0.691833	-0.192399	0.065301
H150	H	0.723457	-0.214969	0.065328
N151	N	0.429021	0.065465	0.170109
N152	N	0.406508	0.065239	0.245162
H153	H	0.424686	0.065433	0.305822
H154	H	0.447722	-0.299717	0.000116
N155	N	0.327139	0.064416	0.170130
N156	N	0.328067	0.098566	0.226402
H157	H	0.309899	0.098391	0.287071
N158	N	0.045874	0.061510	0.254237
N159	N	0.023360	0.061275	0.329286
H160	H	0.041536	0.061454	0.389949
H161	H	-0.050796	0.060527	0.236817
H162	H	-0.282704	0.058170	0.152780
N163	N	-0.186020	0.059179	0.170199
N164	N	-0.208531	0.058967	0.245256
H165	H	-0.190352	0.059175	0.305913
H166	H	0.493226	-0.165375	0.000213
H167	H	0.647864	-0.711077	0.000219
N168	N	0.095199	0.061998	-0.253833
N169	N	0.105549	0.027965	-0.310111
H170	H	0.087374	0.027770	-0.370774
N171	N	0.197104	0.063048	-0.253823
N172	N	0.242117	0.063506	-0.253804
H173	H	0.260308	0.063688	-0.314445
H174	H	0.100451	0.062081	0.236787
H175	H	0.654110	-0.096024	0.000281
H176	H	0.486977	-0.780421	0.000150
N177	N	0.705028	-0.330071	0.000267
N178	N	0.744149	-0.358030	0.000279
H179	H	0.776142	-0.344254	0.000292
H180	H	0.487905	-0.688970	0.000136
N181	N	0.437599	-0.395122	0.000109
N182	N	0.398478	-0.367161	0.000083
H183	H	0.366484	-0.380936	0.000059
H184	H	0.694301	-0.485261	0.000239
