data_functionalizedCrystal
_audit_creation_method	'MofGen! by Chris Wilmer'
_symmetry_space_group_name_H-M	'P1'
_symmetry_Int_Tables_number	1
_symmetry_cell_setting	triclinic
loop_
_symmetry_equiv_pos_as_xyz
  x,y,z
_cell_length_a	21.295418
_cell_length_b	21.295417
_cell_length_c	21.395356
_cell_angle_alpha	89.969378
_cell_angle_beta	89.957220
_cell_angle_gamma	90.046319
loop_
_atom_site_label
_atom_site_type_symbol
_atom_site_fract_x
_atom_site_fract_y
_atom_site_fract_z
Zn1	Zn	0.962350	-0.250359	-0.354570
Zn2	Zn	1.212350	-0.000359	-0.104570
Zn3	Zn	1.462350	0.249641	0.145430
Zn4	Zn	1.712350	0.499641	0.395430
Zn5	Zn	0.962254	-0.355628	-0.249787
Zn6	Zn	1.212254	-0.105628	0.000213
Zn7	Zn	1.462254	0.144372	0.250213
Zn8	Zn	1.712254	0.394372	0.500213
Zn9	Zn	0.857075	-0.250405	-0.249771
Zn10	Zn	1.107075	-0.000405	0.000229
Zn11	Zn	1.357075	0.249595	0.250229
Zn12	Zn	1.607075	0.499595	0.500229
Zn13	Zn	0.857042	-0.355624	-0.354492
Zn14	Zn	1.107042	-0.105624	-0.104492
Zn15	Zn	1.357042	0.144376	0.145508
Zn16	Zn	1.607042	0.394376	0.395508
O17	O	0.909680	-0.303004	-0.302155
O18	O	1.159680	-0.053004	-0.052155
O19	O	1.409680	0.196996	0.197845
O20	O	1.659680	0.446996	0.447845
O21	O	1.050427	-0.264306	-0.340709
O22	O	1.300427	-0.014306	-0.090709
O23	O	1.550427	0.235694	0.159291
O24	O	1.800427	0.485694	0.409291
O25	O	0.948275	-0.341691	-0.162107
O26	O	1.198275	-0.091691	0.087893
O27	O	1.448275	0.158309	0.337893
O28	O	1.698275	0.408309	0.587893
O29	O	0.871093	-0.162310	-0.263699
O30	O	1.121093	0.087690	-0.013699
O31	O	1.371093	0.337690	0.236301
O32	O	1.621093	0.587690	0.486301
O33	O	1.050356	-0.341646	-0.263725
O34	O	1.300356	-0.091646	-0.013725
O35	O	1.550356	0.158354	0.236275
O36	O	1.800356	0.408354	0.486275
O37	O	0.948439	-0.162276	-0.340694
O38	O	1.198439	0.087724	-0.090694
O39	O	1.448439	0.337724	0.159306
O40	O	1.698439	0.587724	0.409306
O41	O	0.871000	-0.264384	-0.162095
O42	O	1.121000	-0.014384	0.087905
O43	O	1.371000	0.235616	0.337905
O44	O	1.621000	0.485616	0.587905
O45	O	0.768981	-0.264380	-0.263624
O46	O	1.018981	-0.014380	-0.013624
O47	O	1.268981	0.235620	0.236376
O48	O	1.518981	0.485620	0.486376
O49	O	0.871038	-0.341639	-0.442180
O50	O	1.121038	-0.091639	-0.192180
O51	O	1.371038	0.158361	0.057820
O52	O	1.621038	0.408361	0.307820
O53	O	0.768957	-0.341684	-0.340561
O54	O	1.018957	-0.091684	-0.090561
O55	O	1.268957	0.158316	0.159439
O56	O	1.518957	0.408316	0.409439
O57	O	0.948407	-0.264302	-0.442237
O58	O	1.198407	-0.014302	-0.192237
O59	O	1.448407	0.235698	0.057763
O60	O	1.698407	0.485698	0.307763
O61	O	0.948244	-0.443717	-0.263650
O62	O	1.198244	-0.193717	-0.013650
O63	O	1.448244	0.056283	0.236350
O64	O	1.698244	0.306283	0.486350
O65	O	0.870945	-0.443714	-0.340576
O66	O	1.120945	-0.193714	-0.090576
O67	O	1.370945	0.056286	0.159424
O68	O	1.620945	0.306286	0.409424
C69	C	0.746129	-0.303037	-0.302083
C70	C	0.996129	-0.053037	-0.052083
C71	C	1.246129	0.196963	0.197917
C72	C	1.496129	0.446963	0.447917
C73	C	0.676160	-0.303067	-0.302067
C74	C	0.926160	-0.053067	-0.052067
C75	C	1.176160	0.196933	0.197933
C76	C	1.426160	0.446933	0.447933
C77	C	0.643298	-0.343372	-0.342068
C78	C	0.893298	-0.093372	-0.092068
C79	C	1.143298	0.156628	0.157932
C80	C	1.393298	0.406628	0.407932
C81	C	0.577555	-0.343356	-0.342096
C82	C	0.827555	-0.093356	-0.092096
C83	C	1.077555	0.156644	0.157904
C84	C	1.327555	0.406644	0.407904
C85	C	0.544678	-0.303042	-0.302112
C86	C	0.794678	-0.053042	-0.052112
C87	C	1.044678	0.196958	0.197888
C88	C	1.294678	0.446958	0.447888
C89	C	0.577549	-0.262729	-0.262107
C90	C	0.827549	-0.012729	-0.012107
C91	C	1.077549	0.237271	0.237893
C92	C	1.327549	0.487271	0.487893
C93	C	0.643290	-0.262741	-0.262085
C94	C	0.893290	-0.012741	-0.012085
C95	C	1.143290	0.237259	0.237915
C96	C	1.393290	0.487259	0.487915
N97	N	0.441403	-0.298124	-0.247311
N98	N	0.691403	-0.048124	0.002689
N99	N	0.941403	0.201876	0.252689
N100	N	1.191403	0.451876	0.502689
N101	N	0.378952	-0.298116	-0.247335
N102	N	0.628952	-0.048116	0.002665
N103	N	0.878952	0.201884	0.252665
N104	N	1.128952	0.451884	0.502665
C105	C	0.346603	-0.303002	-0.302178
C106	C	0.596603	-0.053002	-0.052178
C107	C	0.846603	0.196998	0.197822
C108	C	1.096603	0.446998	0.447822
N109	N	0.379066	-0.307909	-0.356999
N110	N	0.629066	-0.057909	-0.106999
N111	N	0.879066	0.192091	0.143001
N112	N	1.129066	0.442091	0.393001
N113	N	0.441523	-0.307920	-0.356975
N114	N	0.691523	-0.057920	-0.106975
N115	N	0.941523	0.192080	0.143025
N116	N	1.191523	0.442080	0.393025
C117	C	0.473393	-0.303024	-0.302132
C118	C	0.723393	-0.053024	-0.052132
C119	C	0.973393	0.196976	0.197868
C120	C	1.223393	0.446976	0.447868
C121	C	0.242455	-0.343293	-0.342214
C122	C	0.492455	-0.093293	-0.092214
C123	C	0.742455	0.156707	0.157786
C124	C	0.992455	0.406707	0.407786
C125	C	0.176712	-0.343273	-0.342243
C126	C	0.426712	-0.093273	-0.092243
C127	C	0.676712	0.156727	0.157757
C128	C	0.926712	0.406727	0.407757
C129	C	0.176706	-0.262649	-0.262248
C130	C	0.426706	-0.012649	-0.012248
C131	C	0.676706	0.237351	0.237752
C132	C	0.926706	0.487351	0.487752
C133	C	0.242448	-0.262665	-0.262225
C134	C	0.492448	-0.012665	-0.012225
C135	C	0.742448	0.237335	0.237775
C136	C	0.992448	0.487335	0.487775
C137	C	0.275319	-0.302991	-0.302207
C138	C	0.525319	-0.052991	-0.052207
C139	C	0.775319	0.197009	0.197793
C140	C	1.025319	0.447009	0.447793
C141	C	0.909598	-0.466556	-0.302120
C142	C	1.159598	-0.216556	-0.052120
C143	C	1.409598	0.033444	0.197880
C144	C	1.659598	0.283444	0.447880
C145	C	0.909620	-0.536524	-0.302126
C146	C	1.159620	-0.286524	-0.052126
C147	C	1.409620	-0.036524	0.197874
C148	C	1.659620	0.213476	0.447874
C149	C	0.949905	-0.569371	-0.262112
C150	C	1.199905	-0.319371	-0.012112
C151	C	1.449905	-0.069371	0.237888
C152	C	1.699905	0.180629	0.487888
C153	C	0.949935	-0.635114	-0.262126
C154	C	1.199935	-0.385114	-0.012126
C155	C	1.449935	-0.135114	0.237874
C156	C	1.699935	0.114886	0.487874
C157	C	0.909668	-0.668006	-0.302148
C158	C	1.159668	-0.418006	-0.052148
C159	C	1.409668	-0.168006	0.197852
C160	C	1.659668	0.081994	0.447852
C161	C	0.869380	-0.635151	-0.342170
C162	C	1.119380	-0.385151	-0.092170
C163	C	1.369380	-0.135151	0.157830
C164	C	1.619380	0.114849	0.407830
C165	C	0.869356	-0.569410	-0.342159
C166	C	1.119356	-0.319410	-0.092159
C167	C	1.369356	-0.069410	0.157841
C168	C	1.619356	0.180590	0.407841
N169	N	0.854601	-0.771287	-0.306900
N170	N	1.104601	-0.521287	-0.056900
N171	N	1.354601	-0.271287	0.193100
N172	N	1.604601	-0.021287	0.443100
N173	N	0.854625	-0.833739	-0.306907
N174	N	1.104625	-0.583739	-0.056907
N175	N	1.354625	-0.333739	0.193093
N176	N	1.604625	-0.083739	0.443093
C177	C	0.909738	-0.866081	-0.302184
C178	C	1.159738	-0.616081	-0.052184
C179	C	1.409738	-0.366081	0.197816
C180	C	1.659738	-0.116081	0.447816
N181	N	0.964827	-0.833612	-0.297442
N182	N	1.214827	-0.583612	-0.047442
N183	N	1.464827	-0.333612	0.202558
N184	N	1.714827	-0.083612	0.452558
N185	N	0.964802	-0.771155	-0.297432
N186	N	1.214802	-0.521155	-0.047432
N187	N	1.464802	-0.271155	0.202568
N188	N	1.714802	-0.021155	0.452568
C189	C	0.909690	-0.739292	-0.302164
C190	C	1.159690	-0.489292	-0.052164
C191	C	1.409690	-0.239292	0.197836
C192	C	1.659690	0.010708	0.447836
C193	C	0.950059	-0.970214	-0.262182
C194	C	1.200059	-0.720214	-0.012182
C195	C	1.450059	-0.470214	0.237818
C196	C	1.700059	-0.220214	0.487818
C197	C	0.950089	-1.035957	-0.262201
C198	C	1.200089	-0.785957	-0.012201
C199	C	1.450089	-0.535957	0.237799
C200	C	1.700089	-0.285957	0.487799
C201	C	0.869529	-1.035994	-0.342242
C202	C	1.119529	-0.785994	-0.092242
C203	C	1.369529	-0.535994	0.157758
C204	C	1.619529	-0.285994	0.407758
C205	C	0.869504	-0.970251	-0.342227
C206	C	1.119504	-0.720251	-0.092227
C207	C	1.369504	-0.470251	0.157773
C208	C	1.619504	-0.220251	0.407773
C209	C	0.909768	-0.937365	-0.302194
C210	C	1.159768	-0.687365	-0.052194
C211	C	1.409768	-0.437365	0.197806
C212	C	1.659768	-0.187365	0.447806
C213	C	1.073871	-0.302971	-0.302228
C214	C	1.323871	-0.052971	-0.052228
C215	C	1.573871	0.197029	0.197772
C216	C	1.823871	0.447029	0.447772
C217	C	1.143839	-0.302957	-0.302259
C218	C	1.393839	-0.052957	-0.052259
C219	C	1.643839	0.197043	0.197741
C220	C	1.893839	0.447043	0.447741
C221	C	0.909730	-0.302965	-0.465578
C222	C	1.159730	-0.052965	-0.215578
C223	C	1.409730	0.197035	0.034422
C224	C	1.659730	0.447035	0.284422
C225	C	0.909751	-0.302948	-0.535219
C226	C	1.159751	-0.052948	-0.285219
C227	C	1.409751	0.197052	-0.035219
C228	C	1.659751	0.447052	0.214781
C229	C	0.909780	-0.138814	-0.302203
C230	C	1.159780	0.111186	-0.052203
C231	C	1.409780	0.361186	0.197797
C232	C	1.659780	0.611186	0.447797
C233	C	0.909823	-0.068846	-0.302224
C234	C	1.159823	0.181154	-0.052224
C235	C	1.409823	0.431154	0.197776
C236	C	1.659823	0.681154	0.447776
C237	C	0.869525	-0.262690	-0.567917
C238	C	1.119525	-0.012690	-0.317917
C239	C	1.369525	0.237310	-0.067917
C240	C	1.619525	0.487310	0.182083
C241	C	0.869523	-0.262679	-0.633352
C242	C	1.119523	-0.012679	-0.383352
C243	C	1.369523	0.237321	-0.133352
C244	C	1.619523	0.487321	0.116648
C245	C	0.909758	-0.302918	-0.666088
C246	C	1.159758	-0.052918	-0.416088
C247	C	1.409758	0.197082	-0.166088
C248	C	1.659758	0.447082	0.083912
C249	C	0.949987	-0.343184	-0.633383
C250	C	1.199987	-0.093184	-0.383383
C251	C	1.449987	0.156816	-0.133383
C252	C	1.699987	0.406816	0.116617
C253	C	0.949983	-0.343199	-0.567948
C254	C	1.199983	-0.093199	-0.317948
C255	C	1.449983	0.156801	-0.067948
C256	C	1.699983	0.406801	0.182052
C257	C	0.966475	-0.307852	-0.769793
C258	C	1.216475	-0.057852	-0.519793
C259	C	1.466475	0.192148	-0.269793
C260	C	1.716475	0.442148	-0.019793
C261	C	0.966479	-0.307832	-0.835226
C262	C	1.216479	-0.057832	-0.585226
C263	C	1.466479	0.192168	-0.335226
C264	C	1.716479	0.442168	-0.085226
C265	C	0.909768	-0.302876	-0.867909
C266	C	1.159768	-0.052876	-0.617909
C267	C	1.409768	0.197124	-0.367909
C268	C	1.659768	0.447124	-0.117909
C269	C	0.853051	-0.297926	-0.835151
C270	C	1.103051	-0.047926	-0.585151
C271	C	1.353051	0.202074	-0.335151
C272	C	1.603051	0.452074	-0.085151
C273	C	0.853047	-0.297941	-0.769716
C274	C	1.103047	-0.047941	-0.519716
C275	C	1.353047	0.202059	-0.269716
C276	C	1.603047	0.452059	-0.019716
C277	C	0.909766	-0.302907	-0.737040
C278	C	1.159766	-0.052907	-0.487040
C279	C	1.409766	0.197093	-0.237040
C280	C	1.659766	0.447093	0.012960
C281	C	0.869536	-0.262603	-0.971559
C282	C	1.119536	-0.012603	-0.721559
C283	C	1.369536	0.237397	-0.471559
C284	C	1.619536	0.487397	-0.221559
C285	C	0.869533	-0.262596	-1.036995
C286	C	1.119533	-0.012596	-0.786995
C287	C	1.369533	0.237404	-0.536995
C288	C	1.619533	0.487404	-0.286995
C289	C	0.950003	-0.343098	-1.037024
C290	C	1.200003	-0.093098	-0.787024
C291	C	1.450003	0.156902	-0.537024
C292	C	1.700003	0.406902	-0.287024
C293	C	0.950001	-0.343109	-0.971589
C294	C	1.200001	-0.093109	-0.721589
C295	C	1.450001	0.156891	-0.471589
C296	C	1.700001	0.406891	-0.221589
C297	C	0.909768	-0.302858	-0.938860
C298	C	1.159768	-0.052858	-0.688860
C299	C	1.409768	0.197142	-0.438860
C300	C	1.659768	0.447142	-0.188860
C301	C	0.909667	-0.302998	-0.139367
C302	C	1.159667	-0.052998	0.110633
C303	C	1.409667	0.197002	0.360633
C304	C	1.659667	0.447002	0.610633
C305	C	0.909768	-0.302837	-0.069726
C306	C	1.159768	-0.052837	0.180274
C307	C	1.409768	0.197163	0.430274
C308	C	1.659768	0.447163	0.680274
H309	H	0.149956	-0.376093	-0.374821
H310	H	0.399956	-0.126093	-0.124821
H311	H	0.649956	0.123907	0.125179
H312	H	0.899956	0.373907	0.375179
N313	N	0.826049	-0.934818	-0.385381
N314	N	1.076049	-0.684818	-0.135381
N315	N	1.326049	-0.434818	0.114619
N316	N	1.576049	-0.184818	0.364619
H317	H	0.800543	-0.965629	-0.410737
H318	H	1.050543	-0.715629	-0.160737
H319	H	1.300543	-0.465629	0.089263
H320	H	1.550543	-0.215629	0.339263
H321	H	0.796922	-0.907595	-0.359833
H322	H	1.046922	-0.657595	-0.109833
H323	H	1.296922	-0.407595	0.140167
H324	H	1.546922	-0.157595	0.390167
N325	N	0.993382	-0.670544	-0.218954
N326	N	1.243382	-0.420544	0.031046
N327	N	1.493382	-0.170544	0.281046
N328	N	1.743382	0.079456	0.531046
H329	H	0.967816	-0.697867	-0.189896
H330	H	1.217816	-0.447867	0.060104
H331	H	1.467816	-0.197867	0.310104
H332	H	1.717816	0.052133	0.560104
H333	H	1.022548	-0.697735	-0.244492
H334	H	1.272548	-0.447735	0.005508
H335	H	1.522548	-0.197735	0.255508
H336	H	1.772548	0.052265	0.505508
N337	N	0.826136	-0.219201	-0.936255
N338	N	1.076136	0.030799	-0.686255
N339	N	1.326136	0.280799	-0.436255
N340	N	1.576136	0.530799	-0.186255
H341	H	0.832240	-0.225316	-0.889840
H342	H	1.082240	0.024684	-0.639840
H343	H	1.332240	0.274684	-0.389840
H344	H	1.582240	0.524684	-0.139840
H345	H	0.835959	-0.174239	-0.947715
H346	H	1.085959	0.075761	-0.697715
H347	H	1.335959	0.325761	-0.447715
H348	H	1.585959	0.575761	-0.197715
H349	H	0.670057	-0.376207	-0.374626
H350	H	0.920057	-0.126207	-0.124626
H351	H	1.170057	0.123793	0.125374
H352	H	1.420057	0.373793	0.375374
H353	H	0.982743	-0.375981	-0.541327
H354	H	1.232743	-0.125981	-0.291327
H355	H	1.482743	0.124019	-0.041327
H356	H	1.732743	0.374019	0.208673
H357	H	1.012660	-0.311883	-0.743188
H358	H	1.262660	-0.061883	-0.493188
H359	H	1.512660	0.188117	-0.243188
H360	H	1.762660	0.438117	0.006812
H361	H	0.550776	-0.229904	-0.229553
H362	H	0.800776	0.020096	0.020447
H363	H	1.050776	0.270096	0.270447
H364	H	1.300776	0.520096	0.520447
H365	H	0.836772	-0.229815	-1.063616
H366	H	1.086772	0.020185	-0.813616
H367	H	1.336772	0.270185	-0.563616
H368	H	1.586772	0.520185	-0.313616
N369	N	1.027649	-0.313171	-0.870555
N370	N	1.277649	-0.063171	-0.620555
N371	N	1.527649	0.186829	-0.370555
N372	N	1.777649	0.436829	-0.120555
H373	H	1.063574	-0.316322	-0.839923
H374	H	1.313574	-0.066322	-0.589923
H375	H	1.563574	0.183678	-0.339923
H376	H	1.813574	0.433678	-0.089923
H377	H	1.026715	-0.351952	-0.897692
H378	H	1.276715	-0.101952	-0.647692
H379	H	1.526715	0.148048	-0.397692
H380	H	1.776715	0.398048	-0.147692
N381	N	0.678739	-0.219263	-0.218943
N382	N	0.928739	0.030737	0.031057
N383	N	1.178739	0.280737	0.281057
N384	N	1.428739	0.530737	0.531057
H385	H	0.647938	-0.193717	-0.193619
H386	H	0.897938	0.056283	0.056381
H387	H	1.147938	0.306283	0.306381
H388	H	1.397938	0.556283	0.556381
H389	H	0.705959	-0.244850	-0.189889
H390	H	0.955959	0.005150	0.060111
H391	H	1.205959	0.255150	0.310111
H392	H	1.455959	0.505150	0.560111
H393	H	0.982898	-1.062701	-0.229618
H394	H	1.232898	-0.812701	0.020382
H395	H	1.482898	-0.562701	0.270382
H396	H	1.732898	-0.312701	0.520382
H397	H	0.149938	-0.229821	-0.229695
H398	H	0.399938	0.020179	0.020305
H399	H	0.649938	0.270179	0.270305
H400	H	0.899938	0.520179	0.520305
H401	H	0.269205	-0.229848	-0.229648
H402	H	0.519205	0.020152	0.020352
H403	H	0.769205	0.270152	0.270352
H404	H	1.019205	0.520152	0.520352
H405	H	0.982765	-0.375861	-1.063677
H406	H	1.232765	-0.125861	-0.813677
H407	H	1.482765	0.124139	-0.563677
H408	H	1.732765	0.374139	-0.313677
H409	H	0.982747	-0.375948	-0.660040
H410	H	1.232747	-0.125948	-0.410040
H411	H	1.482747	0.124052	-0.160040
H412	H	1.732747	0.374052	0.089960
H413	H	0.836746	-1.062774	-0.374831
H414	H	1.086746	-0.812774	-0.124831
H415	H	1.336746	-0.562774	0.125169
H416	H	1.586746	-0.312774	0.375169
N417	N	0.542100	-0.386829	-0.385244
N418	N	0.792100	-0.136829	-0.135244
N419	N	1.042100	0.113171	0.114756
N420	N	1.292100	0.363171	0.364756
H421	H	0.572899	-0.412375	-0.410569
H422	H	0.822899	-0.162375	-0.160569
H423	H	1.072899	0.087625	0.089431
H424	H	1.322899	0.337625	0.339431
H425	H	0.514767	-0.415918	-0.359690
H426	H	0.764767	-0.165918	-0.109690
H427	H	1.014767	0.084082	0.140310
H428	H	1.264767	0.334082	0.390310
N429	N	0.826140	-0.219272	-0.532616
N430	N	1.076140	0.030728	-0.282616
N431	N	1.326140	0.280728	-0.032616
N432	N	1.576140	0.530728	0.217384
H433	H	0.800659	-0.193764	-0.563263
H434	H	1.050659	0.056236	-0.313263
H435	H	1.300659	0.306236	-0.063263
H436	H	1.550659	0.556236	0.186737
H437	H	0.796987	-0.244898	-0.505435
H438	H	1.046987	0.005102	-0.255435
H439	H	1.296987	0.255102	-0.005435
H440	H	1.546987	0.505102	0.244565
N441	N	0.277914	-0.386778	-0.385339
N442	N	0.527914	-0.136778	-0.135339
N443	N	0.777914	0.113222	0.114661
N444	N	1.027914	0.363222	0.364661
H445	H	0.305129	-0.415923	-0.359811
H446	H	0.555129	-0.165923	-0.109811
H447	H	0.805129	0.084077	0.140189
H448	H	1.055129	0.334077	0.390189
H449	H	0.247077	-0.412264	-0.410679
H450	H	0.497077	-0.162264	-0.160679
H451	H	0.747077	0.087736	0.089321
H452	H	0.997077	0.337736	0.339321
N453	N	0.826134	-0.219257	-0.668630
N454	N	1.076134	0.030743	-0.418630
N455	N	1.326134	0.280743	-0.168630
N456	N	1.576134	0.530743	0.081370
H457	H	0.800646	-0.193762	-0.637967
H458	H	1.050646	0.056238	-0.387967
H459	H	1.300646	0.306238	-0.137967
H460	H	1.550646	0.556238	0.112033
H461	H	0.851782	-0.190118	-0.695804
H462	H	1.101782	0.059882	-0.445804
H463	H	1.351782	0.309882	-0.195804
H464	H	1.601782	0.559882	0.054196
N465	N	0.993340	-0.533901	-0.218944
N466	N	1.243340	-0.283901	0.031056
N467	N	1.493340	-0.033901	0.281056
N468	N	1.743340	0.216099	0.531056
H469	H	1.018868	-0.564690	-0.193600
H470	H	1.268868	-0.314690	0.056400
H471	H	1.518868	-0.064690	0.306400
H472	H	1.768868	0.185310	0.556400
H473	H	1.022447	-0.506578	-0.244487
H474	H	1.272447	-0.256578	0.005513
H475	H	1.522447	-0.006578	0.255513
H476	H	1.772447	0.243422	0.505513
N477	N	0.825950	-0.670624	-0.385339
N478	N	1.075950	-0.420624	-0.135339
N479	N	1.325950	-0.170624	0.114661
N480	N	1.575950	0.079376	0.364661
H481	H	0.832076	-0.717255	-0.379273
H482	H	1.082076	-0.467255	-0.129273
H483	H	1.332076	-0.217255	0.120727
H484	H	1.582076	0.032745	0.370727
H485	H	0.780994	-0.659190	-0.375530
H486	H	1.030994	-0.409190	-0.125530
H487	H	1.280994	-0.159190	0.124470
H488	H	1.530994	0.090810	0.374470
H489	H	0.836550	-0.542665	-0.374745
H490	H	1.086550	-0.292665	-0.124745
H491	H	1.336550	-0.042665	0.125255
H492	H	1.586550	0.207335	0.375255
N493	N	0.993485	-0.934738	-0.219008
N494	N	1.243485	-0.684738	0.030992
N495	N	1.493485	-0.434738	0.280992
N496	N	1.743485	-0.184738	0.530992
H497	H	1.019014	-0.965525	-0.193664
H498	H	1.269014	-0.715525	0.056336
H499	H	1.519014	-0.465525	0.306336
H500	H	1.769014	-0.215525	0.556336
H501	H	1.022591	-0.907406	-0.244543
H502	H	1.272591	-0.657406	0.005457
H503	H	1.522591	-0.407406	0.255457
H504	H	1.772591	-0.157406	0.505457
H505	H	0.806866	-0.293911	-0.743047
H506	H	1.056866	-0.043911	-0.493047
H507	H	1.306866	0.206089	-0.243047
H508	H	1.556866	0.456089	0.006953
N509	N	0.791875	-0.292613	-0.870390
N510	N	1.041875	-0.042613	-0.620390
N511	N	1.291875	0.207387	-0.370390
N512	N	1.541875	0.457387	-0.120390
H513	H	0.800479	-0.293370	-0.916813
H514	H	1.050479	-0.043370	-0.666813
H515	H	1.300479	0.206630	-0.416813
H516	H	1.550479	0.456630	-0.166813
H517	H	0.763734	-0.329038	-0.858904
H518	H	1.013734	-0.079038	-0.608904
H519	H	1.263734	0.170962	-0.358904
H520	H	1.513734	0.420962	-0.108904
H521	H	0.982759	-0.375890	-0.944967
H522	H	1.232759	-0.125890	-0.694967
H523	H	1.482759	0.124110	-0.444967
H524	H	1.732759	0.374110	-0.194967
