data_functionalizedCrystal
_audit_creation_method	'MofGen! by Chris Wilmer'
_symmetry_space_group_name_H-M	'P1'
_symmetry_Int_Tables_number	1
_symmetry_cell_setting	triclinic
loop_
_symmetry_equiv_pos_as_xyz
  x,y,z
_cell_length_a	12.594517
_cell_length_b	21.295417
_cell_length_c	12.594509
_cell_angle_alpha	89.963755
_cell_angle_beta	89.978673
_cell_angle_gamma	90.030306
loop_
_atom_site_label
_atom_site_type_symbol
_atom_site_fract_x
_atom_site_fract_y
_atom_site_fract_z
Zn1	Zn	1.627160	-0.250594	-0.601801
Zn2	Zn	1.627006	-0.355872	-0.423797
Zn3	Zn	1.449164	-0.250621	-0.423830
Zn4	Zn	1.449101	-0.355829	-0.601727
O5	O	1.538108	-0.303229	-0.512789
O6	O	1.776085	-0.264566	-0.578205
O7	O	1.603377	-0.341940	-0.274856
O8	O	1.472866	-0.162528	-0.447482
O9	O	1.775972	-0.341914	-0.447427
O10	O	1.603639	-0.162508	-0.578237
O11	O	1.472717	-0.264612	-0.274879
O12	O	1.300210	-0.264570	-0.447411
O13	O	1.472759	-0.341839	-0.750683
O14	O	1.300164	-0.341865	-0.578112
O15	O	1.603578	-0.264524	-0.750737
O16	O	1.603316	-0.443956	-0.447356
O17	O	1.472610	-0.443924	-0.578080
C18	C	1.261567	-0.303216	-0.512757
C19	C	1.143261	-0.303226	-0.512769
C20	C	1.074002	-0.261127	-0.441817
C21	C	1.003167	-0.318547	-0.415623
C22	C	1.003298	-0.245834	-0.538981
C23	C	1.073984	-0.360676	-0.486525
C24	C	1.074121	-0.287924	-0.609928
C25	C	1.003318	-0.345384	-0.583771
C26	C	1.537968	-0.466780	-0.512730
C27	C	1.538006	-0.536748	-0.512740
C28	C	1.606125	-0.569611	-0.444742
C29	C	1.606175	-0.635353	-0.444766
C30	C	1.538087	-0.668231	-0.512777
C31	C	1.469963	-0.635361	-0.580789
C32	C	1.469923	-0.569619	-0.580770
N33	N	1.444976	-0.771496	-0.520881
N34	N	1.445018	-0.833948	-0.520892
C35	C	1.538206	-0.866306	-0.512838
N36	N	1.631353	-0.833853	-0.504752
N37	N	1.631311	-0.771396	-0.504735
C38	C	1.538123	-0.739516	-0.512805
C39	C	1.606385	-0.970454	-0.444862
C40	C	1.606436	-1.036197	-0.444893
C41	C	1.470215	-1.036203	-0.580910
C42	C	1.470173	-0.970461	-0.580885
C43	C	1.538256	-0.937590	-0.512855
C44	C	1.815729	-0.303242	-0.512821
C45	C	1.934034	-0.303247	-0.512835
C46	C	1.538179	-0.303174	-0.790410
C47	C	1.538209	-0.303150	-0.908715
C48	C	1.538277	-0.139038	-0.512871
C49	C	1.538349	-0.069070	-0.512906
C50	C	1.467079	-0.345178	-0.977939
C51	C	1.564193	-0.360559	-1.048726
C52	C	1.441171	-0.287731	-1.048728
C53	C	1.635374	-0.318561	-0.977944
C54	C	1.512287	-0.245707	-0.977939
C55	C	1.609468	-0.261066	-1.048694
C56	C	1.538098	-0.303238	-0.236248
C57	C	1.538274	-0.303084	-0.117943
H58	H	0.972192	-0.197296	-0.561087
C59	C	1.690853	-0.213013	-1.090411
C60	C	1.653892	-0.157857	-1.160333
C61	C	1.735280	-0.109808	-1.202053
C62	C	1.853630	-0.116915	-1.173851
C63	C	1.890597	-0.172073	-1.103925
C64	C	1.809209	-0.220122	-1.062205
H65	H	1.566277	-0.152594	-1.181213
H66	H	1.707913	-0.068977	-1.253816
H67	H	1.913878	-0.081346	-1.204734
H68	H	1.978212	-0.177336	-1.083045
H69	H	1.836575	-0.260954	-1.010442
H70	H	1.490297	-0.197170	-0.946822
H71	H	1.717489	-0.331630	-0.946982
C72	C	1.394982	-0.533467	-0.655569
C73	C	1.273993	-0.542575	-0.646775
C74	C	1.199049	-0.506422	-0.721573
C75	C	1.245096	-0.461160	-0.805164
C76	C	1.366091	-0.452050	-0.813961
C77	C	1.441034	-0.488203	-0.739163
H78	H	1.239901	-0.576082	-0.584893
H79	H	1.109480	-0.513166	-0.715060
H80	H	1.189618	-0.434397	-0.860534
H81	H	1.400183	-0.418543	-0.875844
H82	H	1.530603	-0.481459	-0.745676
C83	C	1.681026	-0.533457	-0.369917
C84	C	1.672412	-0.542561	-0.248913
C85	C	1.747316	-0.506407	-0.174090
C86	C	1.830833	-0.461148	-0.220270
C87	C	1.839450	-0.452041	-0.341281
C88	C	1.764546	-0.488196	-0.416105
H89	H	1.610585	-0.576067	-0.214721
H90	H	1.740937	-0.513149	-0.084509
H91	H	1.886281	-0.434384	-0.164882
H92	H	1.901278	-0.418536	-0.375473
H93	H	1.770926	-0.481454	-0.505685
H94	H	1.359080	-0.274717	-1.079821
C95	C	0.961066	-0.336048	-0.304661
C96	C	0.840608	-0.339825	-0.284614
C97	C	0.798516	-0.357319	-0.173647
C98	C	0.876882	-0.371037	-0.082729
C99	C	0.997347	-0.367262	-0.102774
C100	C	1.039439	-0.349767	-0.213740
H101	H	0.782590	-0.329669	-0.351919
H102	H	0.709339	-0.360114	-0.158809
H103	H	0.845723	-0.383988	-0.000585
H104	H	1.055364	-0.377417	-0.035468
H105	H	1.128615	-0.346972	-0.228578
C106	C	0.961640	-0.393543	-0.664867
C107	C	0.891802	-0.371711	-0.758177
C108	C	0.850121	-0.419871	-0.839267
C109	C	0.878278	-0.489863	-0.827047
C110	C	0.948120	-0.511699	-0.733733
C111	C	0.989801	-0.463538	-0.652644
H112	H	0.870955	-0.319895	-0.767226
H113	H	0.798419	-0.403707	-0.908343
H114	H	0.847424	-0.525515	-0.887074
H115	H	0.968967	-0.563514	-0.724684
H116	H	1.041503	-0.479703	-0.583567
H117	H	1.104905	-0.409235	-0.464291
C118	C	1.681105	-0.671511	-0.369956
C119	C	1.764675	-0.716643	-0.416152
C120	C	1.839603	-0.752797	-0.341340
C121	C	1.830961	-0.743819	-0.220332
C122	C	1.747387	-0.698685	-0.174128
C123	C	1.672459	-0.662531	-0.248940
H124	H	1.771076	-0.723291	-0.505736
H125	H	1.901470	-0.786208	-0.375544
H126	H	1.886427	-0.770582	-0.164951
H127	H	1.740986	-0.692037	-0.084545
H128	H	1.610592	-0.629119	-0.214737
C129	C	1.115945	-0.213080	-0.360665
C130	C	1.087891	-0.220118	-0.242234
C131	C	1.129836	-0.172075	-0.161081
C132	C	1.199833	-0.116994	-0.198359
C133	C	1.227890	-0.109954	-0.316796
C134	C	1.185946	-0.157997	-0.397949
H135	H	1.036072	-0.260894	-0.214633
H136	H	1.109066	-0.177287	-0.073406
H137	H	1.230883	-0.081429	-0.138285
H138	H	1.279709	-0.069177	-0.344397
H139	H	1.206715	-0.152785	-0.485624
H140	H	1.414527	-0.662134	-0.636166
C141	C	1.116267	-0.270400	-0.720856
C142	C	1.088463	-0.206228	-0.769906
C143	C	1.130611	-0.188695	-0.880834
C144	C	1.200563	-0.235335	-0.942711
C145	C	1.228371	-0.299512	-0.893661
C146	C	1.186223	-0.317044	-0.782733
H147	H	1.036676	-0.171698	-0.724101
H148	H	1.110025	-0.141188	-0.917144
H149	H	1.231764	-0.222357	-1.024827
H150	H	1.280157	-0.334041	-0.939467
H151	H	1.206808	-0.364552	-0.746423
H152	H	1.661826	-0.943689	-0.389471
H153	H	1.661914	-1.062953	-0.389523
H154	H	1.414781	-1.062971	-0.636291
H155	H	1.414699	-0.943702	-0.636251
H156	H	1.406974	-0.380775	-0.946873
H157	H	1.586154	-0.409109	-1.079819
