data_functionalizedCrystal
_audit_creation_method	'MofGen! by Chris Wilmer'
_symmetry_space_group_name_H-M	'P1'
_symmetry_Int_Tables_number	1
_symmetry_cell_setting	triclinic
loop_
_symmetry_equiv_pos_as_xyz
  x,y,z
_cell_length_a	19.805405
_cell_length_b	19.121224
_cell_length_c	19.805399
_cell_angle_alpha	87.533523
_cell_angle_beta	90.026615
_cell_angle_gamma	87.541003
loop_
_atom_site_label
_atom_site_type_symbol
_atom_site_fract_x
_atom_site_fract_y
_atom_site_fract_z
Zn1	Zn	-0.225464	-1.073743	0.427003
Zn2	Zn	0.274536	-0.573743	0.927003
Zn3	Zn	-0.338656	-1.073654	0.313813
Zn4	Zn	0.161344	-0.573654	0.813813
Zn5	Zn	-0.230297	-0.956291	0.308984
Zn6	Zn	0.269703	-0.456291	0.808984
Zn7	Zn	-0.343433	-0.956253	0.422119
Zn8	Zn	0.156567	-0.456253	0.922119
O9	O	-0.284463	-1.014985	0.367980
O10	O	0.215537	-0.514985	0.867980
O11	O	-0.236457	-1.172019	0.416054
O12	O	0.263543	-0.672019	0.916054
O13	O	-0.324306	-1.058065	0.218455
O14	O	0.175694	-0.558065	0.718455
O15	O	-0.134937	-0.971925	0.324663
O16	O	0.365063	-0.471925	0.824663
O17	O	-0.319619	-1.171954	0.332893
O18	O	0.180381	-0.671954	0.832893
O19	O	-0.131386	-1.058217	0.411371
O20	O	0.368614	-0.558217	0.911371
O21	O	-0.244695	-0.971838	0.214907
O22	O	0.255305	-0.471838	0.714907
O23	O	-0.249327	-0.857999	0.319927
O24	O	0.250673	-0.357999	0.819927
O25	O	-0.327760	-0.971859	0.517484
O26	O	0.172240	-0.471859	1.017484
O27	O	-0.332447	-0.857970	0.403046
O28	O	0.167553	-0.357970	0.903046
O29	O	-0.241089	-1.058179	0.521073
O30	O	0.258911	-0.558179	1.021073
O31	O	-0.434008	-1.058027	0.328157
O32	O	0.065992	-0.558027	0.828157
O33	O	-0.437518	-0.971773	0.407728
O34	O	0.062482	-0.471773	0.907728
C35	C	-0.291930	-0.832500	0.360433
C36	C	0.208070	-0.332500	0.860433
C37	C	-0.295141	-0.754431	0.357220
C38	C	0.204859	-0.254431	0.857220
C39	C	-0.460322	-1.014905	0.367952
C40	C	0.039678	-0.514905	0.867952
C41	C	-0.535553	-1.014935	0.367965
C42	C	-0.035553	-0.514935	0.867965
C43	C	-0.315469	-0.312891	0.336897
C44	C	0.184531	0.187109	0.836897
C45	C	-0.312449	-0.386245	0.339910
C46	C	0.187551	0.113755	0.839910
C47	C	-0.267711	-0.422957	0.384785
C48	C	0.232289	0.077043	0.884785
C49	C	-0.225987	-0.386313	0.426643
C50	C	0.274013	0.113687	0.926643
C51	C	-0.229005	-0.312961	0.423626
C52	C	0.270995	0.187039	0.923626
C53	C	-0.256434	-0.644435	0.396061
C54	C	0.243566	-0.144435	0.896061
C55	C	-0.253421	-0.717792	0.399077
C56	C	0.246579	-0.217792	0.899077
C57	C	-0.339882	-0.717719	0.312343
C58	C	0.160118	-0.217719	0.812343
C59	C	-0.342899	-0.644365	0.309332
C60	C	0.157101	-0.144365	0.809332
C61	C	-0.301172	-0.607727	0.351188
C62	C	0.198828	-0.107727	0.851188
C63	C	-0.264624	-0.497936	0.387867
C64	C	0.235376	0.002064	0.887867
C65	C	-0.304256	-0.532750	0.348102
C66	C	0.195744	-0.032750	0.848102
C67	C	-0.568991	-1.059841	0.413147
C68	C	-0.068991	-0.559841	0.913147
C69	C	-0.639678	-1.059866	0.413161
C70	C	-0.139678	-0.559866	0.913161
C71	C	-0.676926	-1.014989	0.367989
C72	C	-0.176926	-0.514989	0.867989
C73	C	-0.643483	-0.970079	0.322805
C74	C	-0.143483	-0.470079	0.822805
C75	C	-0.572797	-0.970050	0.322795
C76	C	-0.072797	-0.470050	0.822795
C77	C	-0.928552	-0.970191	0.322844
C78	C	-0.428552	-0.470191	0.822844
C79	C	-0.999243	-0.970225	0.322856
C80	C	-0.499243	-0.470225	0.822856
C81	C	-0.995433	-1.060007	0.413210
C82	C	-0.495433	-0.560007	0.913210
C83	C	-0.924747	-1.059979	0.413200
C84	C	-0.424747	-0.559979	0.913200
C85	C	-0.891310	-1.015066	0.368019
C86	C	-0.391310	-0.515066	0.868019
C87	C	-0.814663	-1.015038	0.368006
C88	C	-0.314663	-0.515038	0.868006
C89	C	-0.753572	-1.015020	0.367999
C90	C	-0.253572	-0.515020	0.867999
C91	C	-0.107916	-1.015085	0.368023
C92	C	0.392084	-0.515085	0.868023
C93	C	-0.032682	-1.015127	0.368042
C94	C	0.467318	-0.515127	0.868042
C95	C	-0.284418	-1.015025	0.544524
C96	C	0.215582	-0.515025	1.044524
C97	C	-0.284399	-1.015042	0.619757
C98	C	0.215601	-0.515042	1.119757
C99	C	-0.276961	-0.198184	0.375549
C100	C	0.223039	0.301816	0.875549
C101	C	-0.273750	-0.276252	0.378754
C102	C	0.226250	0.223748	0.878754
C103	C	-0.284456	-1.014987	0.192124
C104	C	0.215544	-0.514987	0.692124
C105	C	-0.284279	-1.015106	0.116897
C106	C	0.215721	-0.515106	0.616897
C107	C	-0.239268	-1.059989	0.656971
C108	C	0.260732	-0.559989	1.156971
C109	C	-0.239248	-1.059997	0.727660
C110	C	0.260752	-0.559997	1.227660
C111	C	-0.284363	-1.015059	0.761133
C112	C	0.215637	-0.515059	1.261133
C113	C	-0.329497	-0.970106	0.723914
C114	C	0.170503	-0.470106	1.223914
C115	C	-0.329513	-0.970096	0.653227
C116	C	0.170487	-0.470096	1.153227
C117	C	-0.329433	-0.970146	1.008989
C118	C	0.170567	-0.470146	1.508989
C119	C	-0.329414	-0.970161	1.079682
C120	C	0.170586	-0.470161	1.579682
C121	C	-0.239167	-1.060047	1.083422
C122	C	0.260833	-0.560047	1.583422
C123	C	-0.239183	-1.060036	1.012735
C124	C	0.260817	-0.560036	1.512735
C125	C	-0.284314	-1.015081	0.975522
C126	C	0.215686	-0.515081	1.475522
C127	C	-0.284334	-1.015073	0.898873
C128	C	0.215666	-0.515073	1.398873
C129	C	-0.284347	-1.015070	0.837781
C130	C	0.215653	-0.515070	1.337781
H131	H	-0.346420	-0.416073	0.305825
H132	H	0.153580	0.083927	0.805825
H133	H	-0.340679	-0.502855	0.311563
H134	H	0.159321	-0.002855	0.811563
H135	H	-0.379328	-0.614479	0.272790
H136	H	0.120672	-0.114479	0.772790
H137	H	-0.666900	-1.096438	0.449947
H138	H	-0.166900	-0.596438	0.949947
H139	H	-0.366258	-0.933488	0.622927
H140	H	0.133742	-0.433488	1.122927
H141	H	-0.366229	-0.933515	0.751174
H142	H	0.133771	-0.433515	1.251174
N143	N	-0.884578	-1.108381	0.461926
N144	N	-0.384578	-0.608381	0.961926
H145	H	-0.856427	-1.079803	0.492082
H146	H	-0.356427	-0.579803	0.992082
H147	H	-0.853943	-1.140928	0.435743
H148	H	-0.353943	-0.640928	0.935743
H149	H	-0.366154	-0.933564	1.106934
H150	H	0.133846	-0.433564	1.606934
H151	H	-0.351903	-0.283005	0.300358
H152	H	0.148097	0.216995	0.800358
N153	N	-0.216394	-0.537541	0.436283
N154	N	0.283606	-0.037541	0.936283
H155	H	-0.183738	-0.567982	0.410097
H156	H	0.316262	-0.067982	0.910097
H157	H	-0.242766	-0.567933	0.468826
H158	H	0.257234	-0.067933	0.968826
N159	N	-0.384882	-0.757234	0.267197
N160	N	0.115118	-0.257234	0.767197
H161	H	-0.376183	-0.809273	0.275914
H162	H	0.123817	-0.309273	0.775914
H163	H	-0.374806	-0.744391	0.218349
H164	H	0.125194	-0.244391	0.718349
N165	N	-0.177746	-0.425906	0.475056
N166	N	0.322254	0.074094	0.975056
H167	H	-0.182170	-0.477935	0.470624
H168	H	0.317830	0.022065	0.970624
H169	H	-0.188889	-0.413093	0.522844
H170	H	0.311111	0.086907	1.022844
H171	H	-1.029568	-0.933677	0.286071
H172	H	-0.529568	-0.433677	0.786071
N173	N	-0.892493	-0.921759	0.274110
N174	N	-0.392493	-0.421759	0.774110
H175	H	-0.926817	-0.893340	0.245493
H176	H	-0.426817	-0.393340	0.745493
H177	H	-0.861988	-0.950361	0.243990
H178	H	-0.361988	-0.450361	0.743990
H179	H	-1.022665	-1.096575	0.450001
H180	H	-0.522665	-0.596575	0.950001
H181	H	-0.216986	-0.747682	0.435618
H182	H	0.283014	-0.247682	0.935618
H183	H	-0.195030	-0.283130	0.457708
H184	H	0.304970	0.216870	0.957708
H185	H	-0.222461	-0.614613	0.430147
H186	H	0.277539	-0.114613	0.930147
N187	N	-0.683654	-0.921676	0.274081
N188	N	-0.183654	-0.421676	0.774081
H189	H	-0.733507	-0.928510	0.280940
H190	H	-0.233507	-0.428510	0.780940
H191	H	-0.670864	-0.932637	0.226204
H192	H	-0.170864	-0.432637	0.726204
H193	H	-0.202447	-1.096632	0.985484
H194	H	0.297553	-0.596632	1.485484
N195	N	-0.536728	-0.921614	0.274066
N196	N	-0.036728	-0.421614	0.774066
H197	H	-0.571049	-0.893190	0.245450
H198	H	-0.071049	-0.393190	0.745450
H199	H	-0.506221	-0.950211	0.243944
H200	H	-0.006221	-0.450211	0.743944
H201	H	-0.538668	-1.096388	0.449928
H202	H	-0.038668	-0.596388	0.949928
H203	H	-0.202531	-1.096585	0.629722
H204	H	0.297469	-0.596585	1.129722
N205	N	-0.378086	-0.921638	0.968857
N206	N	0.121914	-0.421638	1.468857
H207	H	-0.406657	-0.893168	1.000790
H208	H	0.093343	-0.393168	1.500790
H209	H	-0.408257	-0.950179	0.940688
H210	H	0.091743	-0.450179	1.440688
N211	N	-0.190557	-1.108462	0.767798
N212	N	0.309443	-0.608462	1.267798
H213	H	-0.161979	-1.136927	0.735866
H214	H	0.338021	-0.636927	1.235866
H215	H	-0.216761	-1.140957	0.798475
H216	H	0.283239	-0.640957	1.298475
H217	H	-0.202417	-1.096649	1.113730
H218	H	0.297583	-0.596649	1.613730
