data_functionalizedCrystal
_audit_creation_method	'MofGen! by Chris Wilmer'
_symmetry_space_group_name_H-M	'P1'
_symmetry_Int_Tables_number	1
_symmetry_cell_setting	triclinic
loop_
_symmetry_equiv_pos_as_xyz
  x,y,z
_cell_length_a	34.408637
_cell_length_b	34.407814
_cell_length_c	34.404193
_cell_angle_alpha	60.004510
_cell_angle_beta	60.009006
_cell_angle_gamma	59.994604
loop_
_atom_site_label
_atom_site_type_symbol
_atom_site_fract_x
_atom_site_fract_y
_atom_site_fract_z
O1	O	0.053973	-0.567860	0.474801
O2	O	0.020377	-0.442124	0.382567
O3	O	0.100004	-0.521670	0.382483
O4	O	-0.025653	-0.488314	0.474886
O5	O	0.126426	-0.495253	0.408816
O6	O	0.046800	-0.415707	0.408900
O7	O	0.080396	-0.541443	0.501134
Zn8	Zn	0.067793	-0.474381	0.459198
Zn9	Zn	0.032980	-0.509186	0.424503
O10	O	0.000769	-0.461897	0.501219
N11	N	0.091552	-0.450631	0.482879
N12	N	0.009225	-0.532940	0.400823
C13	C	0.142848	-0.268847	0.534081
C14	C	0.142979	-0.399386	0.664559
C15	C	0.142862	-0.399365	0.534081
C16	C	0.273409	-0.399338	0.533986
C17	C	0.157225	-0.311914	0.548422
C18	C	0.157300	-0.385019	0.621491
C19	C	0.230339	-0.384991	0.548370
C20	C	0.157235	-0.385007	0.548422
C21	C	0.124548	-0.214028	0.515827
C22	C	0.124571	-0.417639	0.515827
C23	C	0.175526	-0.366733	0.566676
C24	C	0.353121	-0.385580	0.491988
C25	C	0.402952	-0.402180	0.475348
C26	C	0.402981	-0.482812	0.506096
C27	C	0.353151	-0.466211	0.522737
C28	C	0.136544	-0.189099	0.466839
C29	C	0.119905	-0.139265	0.450247
C30	C	0.079280	-0.139291	0.531632
C31	C	0.095918	-0.189125	0.548224
C32	C	0.075577	-0.405615	0.527900
C33	C	0.058953	-0.422228	0.511301
C34	C	0.140315	-0.462889	0.470566
C35	C	0.156941	-0.446276	0.487159
C36	C	0.075772	-0.405653	0.744326
C37	C	0.059206	-0.422280	0.794159
C38	C	0.140607	-0.462951	0.794094
C39	C	0.157172	-0.446325	0.744260
C40	C	0.124753	-0.417674	0.719377
C41	C	0.328223	-0.417595	0.515681
C42	C	-0.172390	-0.583988	0.349141
C43	C	-0.041751	-0.584138	0.218783
C44	C	-0.041941	-0.584130	0.349402
C45	C	-0.041957	-0.714607	0.349338
C46	C	-0.129326	-0.598388	0.334853
C47	C	-0.056165	-0.598473	0.261852
C48	C	-0.056282	-0.671535	0.334962
C49	C	-0.056272	-0.598469	0.334999
C50	C	-0.227205	-0.565659	0.367327
C51	C	-0.023703	-0.565882	0.367734
C52	C	-0.074511	-0.616717	0.316667
C53	C	-0.055754	-0.794298	0.391257
C54	C	-0.039181	-0.844132	0.407888
C55	C	0.041447	-0.844215	0.377269
C56	C	0.024873	-0.794381	0.360637
C57	C	-0.252183	-0.577666	0.416302
C58	C	-0.302014	-0.561001	0.432833
C59	C	-0.301886	-0.520329	0.351410
C60	C	-0.252055	-0.536994	0.334880
C61	C	-0.035709	-0.516892	0.355682
C62	C	-0.019129	-0.500308	0.372353
C63	C	0.021465	-0.581700	0.413115
C64	C	0.004884	-0.598286	0.396450
C65	C	-0.035389	-0.516907	0.139026
C66	C	-0.018707	-0.500324	0.089193
C67	C	0.021949	-0.581721	0.089240
C68	C	0.005268	-0.598303	0.139074
C69	C	-0.023402	-0.565894	0.163965
C70	C	-0.023728	-0.769425	0.367633
N71	N	0.427173	-0.450553	0.482630
O72	O	0.589997	-0.458460	0.365361
O73	O	0.590185	-0.550997	0.490963
O74	O	0.590104	-0.550786	0.411309
O75	O	0.590077	-0.458671	0.445016
O76	O	0.510940	-0.524462	0.437777
O77	O	0.511020	-0.524674	0.517432
O78	O	0.510832	-0.432136	0.391830
Zn79	Zn	0.498357	-0.474225	0.458833
Zn80	Zn	0.602660	-0.508908	0.423960
O81	O	0.510913	-0.432348	0.471484
N82	N	0.673844	-0.532580	0.400158
N83	N	0.091520	-0.115070	0.482873
O84	O	-0.025663	0.047841	0.474857
O85	O	0.099940	0.047877	0.382299
O86	O	0.020247	0.047844	0.382560
O87	O	0.054030	0.047874	0.474596
O88	O	0.046674	-0.031326	0.408942
O89	O	0.126367	-0.031293	0.408680
O90	O	0.000764	-0.031329	0.501238
Zn91	Zn	0.067761	-0.043881	0.459148
Zn92	Zn	0.032943	0.060429	0.424389
O93	O	0.080457	-0.031296	0.500977
N94	N	0.009178	0.131618	0.400665
N95	N	0.091852	-0.450680	0.818332
O96	O	0.083862	-0.567845	0.981235
O97	O	-0.008657	-0.442198	0.981276
O98	O	-0.008441	-0.521875	0.981252
O99	O	0.083646	-0.488168	0.981258
O100	O	0.017919	-0.495468	0.902085
O101	O	0.017703	-0.415791	0.902109
O102	O	0.110222	-0.541438	0.902067
Zn103	Zn	0.068148	-0.474422	0.889518
Zn104	Zn	0.033417	-0.509214	0.993825
O105	O	0.110006	-0.461761	0.902091
N106	N	0.009712	-0.532961	1.065011
C107	C	0.030439	-0.413071	0.383027
C108	C	0.129046	-0.511580	0.382922
C109	C	0.070334	-0.570496	0.500675
C110	C	-0.028274	-0.471987	0.500780
C111	C	0.550625	-0.550579	0.520021
C112	C	0.550527	-0.550317	0.421379
C113	C	0.550389	-0.432554	0.362773
C114	C	0.550491	-0.432816	0.461414
C115	C	0.128944	0.008394	0.382712
C116	C	0.030287	0.008256	0.383068
C117	C	-0.028273	0.008252	0.500793
C118	C	0.070417	0.008292	0.500470
C119	C	-0.008218	-0.413165	0.941698
C120	C	-0.007945	-0.511830	0.941653
C121	C	0.109783	-0.570471	0.941646
C122	C	0.109516	-0.471800	0.941673
H123	H	0.019320	-0.412483	0.814467
C124	C	0.180085	-0.265477	0.456136
C125	C	0.168012	-0.216472	0.431227
H126	H	0.199515	-0.282376	0.434150
H127	H	0.151922	-0.273654	0.475590
H128	H	0.197014	-0.273637	0.475555
H129	H	0.151080	-0.208311	0.411811
H130	H	0.196180	-0.208292	0.411765
H131	H	0.164941	0.008624	0.353583
H132	H	-0.064344	0.008241	0.529850
C133	C	0.039644	0.008291	0.580352
C134	C	0.080180	0.008301	0.539507
H135	H	0.045671	0.008300	0.604450
H136	H	0.032102	-0.019322	0.591354
H137	H	0.013669	0.035895	0.572953
H138	H	0.106155	-0.019305	0.546906
H139	H	0.087728	0.035917	0.528504
C140	C	-0.030486	-0.334976	0.941724
C141	C	-0.047433	-0.364453	0.941715
H142	H	-0.054698	-0.304904	0.941738
H143	H	-0.003448	-0.330804	0.914116
H144	H	-0.021828	-0.349227	0.969330
H145	H	-0.056088	-0.350204	0.914107
H146	H	-0.074480	-0.368623	0.969327
H147	H	0.138832	-0.606554	0.941627
H148	H	-0.036863	-0.519031	0.941619
H149	H	0.023050	0.008252	0.354152
C150	C	0.550417	-0.352907	0.430601
C151	C	0.550482	-0.393751	0.471144
H152	H	0.550415	-0.328792	0.436607
H153	H	0.522792	-0.341930	0.423082
H154	H	0.578005	-0.360298	0.404618
H155	H	0.522892	-0.386361	0.497127
H156	H	0.578110	-0.404729	0.478669
H157	H	0.166679	-0.486211	0.447227
C158	C	0.061325	-0.364121	0.303107
C159	C	0.020752	-0.364313	0.343916
H160	H	0.055344	-0.334018	0.278963
H161	H	0.068857	-0.388313	0.292156
H162	H	0.087287	-0.369893	0.310524
H163	H	-0.005210	-0.358545	0.336499
H164	H	0.013214	-0.340114	0.354868
C165	C	-0.077096	-0.503021	0.580718
C166	C	-0.076994	-0.462398	0.539952
H167	H	-0.107175	-0.497101	0.604900
H168	H	-0.052883	-0.510542	0.591636
H169	H	-0.071306	-0.528969	0.573267
H170	H	-0.082780	-0.436451	0.547403
H171	H	-0.101214	-0.454871	0.529033
C172	C	0.159468	-0.423787	0.900973
C173	C	0.148576	-0.462066	0.941665
H174	H	0.183583	-0.417781	0.900968
H175	H	0.131763	-0.396280	0.900989
H176	H	0.170452	-0.431345	0.873366
H177	H	0.137588	-0.454507	0.969273
H178	H	0.176286	-0.489580	0.941654
C179	C	-0.006356	-0.367120	0.749401
C180	C	0.040135	-0.374159	0.716977
H181	H	-0.028356	-0.347681	0.732515
H182	H	-0.011125	-0.351910	0.768834
H183	H	-0.011119	-0.396997	0.768837
H184	H	0.044899	-0.344283	0.697544
H185	H	0.044905	-0.389369	0.697536
H186	H	0.167007	-0.486271	0.814352
C187	C	0.509817	-0.573196	0.400557
C188	C	0.550540	-0.589384	0.411648
H189	H	0.509824	-0.597316	0.394553
H190	H	0.509776	-0.545489	0.373057
H191	H	0.482232	-0.565812	0.426546
H192	H	0.578125	-0.596765	0.385658
H193	H	0.550585	-0.617100	0.439151
C194	C	-0.006983	-0.384078	0.483053
C195	C	0.005097	-0.409011	0.524571
H196	H	-0.040233	-0.375916	0.491247
H197	H	0.009911	-0.403509	0.463608
H198	H	0.001172	-0.355896	0.466153
H199	H	-0.003056	-0.437195	0.541470
H200	H	-0.011804	-0.389580	0.544024
H201	H	0.197059	-0.456117	0.723950
H202	H	0.550674	-0.579628	0.556096
C203	C	0.550291	-0.410283	0.284609
C204	C	0.550310	-0.393330	0.314079
H205	H	0.550245	-0.386068	0.254547
H206	H	0.522704	-0.418958	0.298874
H207	H	0.577917	-0.437317	0.280413
H208	H	0.522682	-0.366298	0.318278
H209	H	0.577900	-0.384649	0.299810
H210	H	0.049217	-0.382297	0.551240
C211	C	0.186287	-0.559426	0.332782
C212	C	0.177765	-0.521173	0.343749
H213	H	0.216365	-0.565349	0.308601
H214	H	0.162072	-0.551895	0.321863
H215	H	0.186210	-0.586978	0.360446
H216	H	0.177839	-0.493619	0.316086
H217	H	0.201987	-0.528701	0.354666
C218	C	0.235697	-0.488126	0.445214
C219	C	0.210797	-0.459485	0.473883
H220	H	0.268945	-0.496280	0.437018
H221	H	0.227492	-0.471214	0.417058
H222	H	0.227547	-0.516311	0.462126
H223	H	0.218945	-0.431298	0.456970
H224	H	0.219007	-0.476397	0.502043
H225	H	0.332881	-0.492283	0.542031
H226	H	0.423225	-0.376108	0.456057
C227	C	0.398005	-0.560847	0.538161
C228	C	0.430383	-0.536250	0.513849
H229	H	0.414925	-0.593839	0.542949
H230	H	0.378549	-0.549162	0.519921
H231	H	0.378589	-0.556228	0.568106
H232	H	0.449797	-0.540867	0.483903
H233	H	0.449847	-0.547939	0.532090
H234	H	0.129672	-0.118967	0.410356
C235	C	0.358099	-0.307547	0.459927
C236	C	0.325718	-0.332139	0.484235
H237	H	0.341182	-0.274556	0.455142
H238	H	0.377514	-0.312165	0.429985
H239	H	0.377556	-0.319238	0.478172
H240	H	0.306263	-0.320451	0.465987
H241	H	0.306295	-0.327518	0.514181
C242	C	0.072779	-0.123964	0.595866
C243	C	0.047815	-0.111918	0.567246
H244	H	0.053352	-0.107069	0.617855
H245	H	0.100938	-0.115780	0.576405
H246	H	0.080972	-0.157212	0.612754
H247	H	0.039625	-0.078670	0.550355
H248	H	0.019647	-0.120099	0.586709
C249	C	0.124321	-0.245139	0.614059
C250	C	0.082749	-0.216511	0.602076
H251	H	0.116194	-0.262044	0.647306
H252	H	0.141218	-0.225680	0.605849
H253	H	0.143742	-0.267114	0.597151
H254	H	0.063330	-0.194534	0.618980
H255	H	0.065845	-0.235972	0.610290
C256	C	-0.060586	-0.421534	0.094158
C257	C	-0.031895	-0.446474	0.061783
H258	H	-0.068728	-0.388289	0.077235
H259	H	-0.043718	-0.429716	0.113639
H260	H	-0.088774	-0.429680	0.113551
H261	H	-0.003705	-0.438331	0.042392
H262	H	-0.048763	-0.438289	0.042294
H263	H	0.045284	-0.608113	0.068976
C264	C	-0.044529	-0.488361	0.195102
C265	C	-0.066906	-0.481280	0.166383
H266	H	-0.063987	-0.466369	0.211993
H267	H	-0.014652	-0.483606	0.175708
H268	H	-0.039780	-0.519911	0.217087
H269	H	-0.071652	-0.449732	0.144396
H270	H	-0.096792	-0.486032	0.185779
H271	H	0.077514	-0.606615	0.529644
H272	H	-0.058984	-0.490504	0.332300
H273	H	-0.231954	-0.601008	0.442726
C274	C	0.047123	-0.677095	0.134114
C275	C	0.018442	-0.652154	0.166487
H276	H	0.055252	-0.710340	0.151037
H277	H	0.075314	-0.668963	0.114724
H278	H	0.030249	-0.668903	0.114629
H279	H	0.035317	-0.660345	0.185970
H280	H	-0.009754	-0.660290	0.185885
H281	H	0.044746	-0.608091	0.436494
C282	C	-0.015327	-0.425874	0.309543
C283	C	-0.032308	-0.446458	0.359102
H284	H	-0.023457	-0.392631	0.301363
H285	H	-0.029299	-0.431105	0.295509
H286	H	0.018293	-0.439922	0.298150
H287	H	-0.065929	-0.432412	0.370496
H288	H	-0.018338	-0.441223	0.373142
C289	C	0.046677	-0.677077	0.438416
C290	C	0.018083	-0.652138	0.409693
H291	H	0.054828	-0.710322	0.446588
H292	H	0.029736	-0.668890	0.466582
H293	H	0.074864	-0.668936	0.421552
H294	H	-0.010106	-0.660276	0.426557
H295	H	0.035024	-0.660328	0.381522
H296	H	0.081021	-0.864532	0.371574
C297	C	0.106237	-0.799476	0.332049
C298	C	0.060080	-0.767042	0.334671
H299	H	0.127971	-0.782597	0.316022
H300	H	0.114588	-0.818913	0.315061
H301	H	0.107454	-0.818909	0.363288
H302	H	0.058861	-0.747612	0.303432
H303	H	0.051726	-0.747597	0.351658
H304	H	-0.095331	-0.773979	0.396956
C305	C	-0.097552	-0.859417	0.403570
C306	C	-0.074385	-0.871478	0.433859
H307	H	-0.119286	-0.876298	0.419607
H308	H	-0.074708	-0.867607	0.375899
H309	H	-0.114378	-0.826165	0.394670
H310	H	-0.057556	-0.904729	0.442756
H311	H	-0.097232	-0.863290	0.461538
C312	C	-0.297138	-0.602891	0.511658
C313	C	-0.329474	-0.574205	0.486669
H314	H	-0.314091	-0.611046	0.544894
H315	H	-0.277699	-0.586012	0.503535
H316	H	-0.277701	-0.631074	0.503495
H317	H	-0.348909	-0.546019	0.494829
H318	H	-0.348921	-0.591084	0.494796
H319	H	-0.231721	-0.527215	0.295000
C320	C	-0.296754	-0.481810	0.269264
C321	C	-0.329203	-0.488823	0.315744
H322	H	-0.313619	-0.462356	0.247246
H323	H	-0.277328	-0.511688	0.264503
H324	H	-0.277314	-0.466621	0.264520
H325	H	-0.348641	-0.504015	0.320489
H326	H	-0.348637	-0.458938	0.320507
