data_functionalizedCrystal
_audit_creation_method	'MofGen! by Chris Wilmer'
_symmetry_space_group_name_H-M	'P1'
_symmetry_Int_Tables_number	1
_symmetry_cell_setting	triclinic
loop_
_symmetry_equiv_pos_as_xyz
  x,y,z
_cell_length_a	14.908571
_cell_length_b	14.908579
_cell_length_c	14.908694
_cell_angle_alpha	83.252790
_cell_angle_beta	83.592472
_cell_angle_gamma	89.792543
loop_
_atom_site_label
_atom_site_type_symbol
_atom_site_fract_x
_atom_site_fract_y
_atom_site_fract_z
Zn1	Zn	1.387400	0.474949	-0.617420
Zn2	Zn	1.887400	0.974949	-0.117420
Zn3	Zn	1.370832	0.616579	-0.473782
Zn4	Zn	1.870832	1.116579	0.026218
Zn5	Zn	1.228310	0.456497	-0.456349
Zn6	Zn	1.728310	0.956497	0.043651
Zn7	Zn	1.228268	0.616509	-0.616377
Zn8	Zn	1.728268	1.116509	-0.116377
O9	O	1.303702	0.541134	-0.540982
O10	O	1.803702	1.041134	-0.040982
O11	O	1.511446	0.501488	-0.606099
O12	O	2.011446	1.001488	-0.106099
O13	O	1.345010	0.587651	-0.344385
O14	O	1.845010	1.087651	0.155615
O15	O	1.256365	0.332706	-0.470856
O16	O	1.756365	0.832706	0.029144
O17	O	1.499274	0.605544	-0.500569
O18	O	1.999274	1.105544	-0.000569
O19	O	1.373247	0.346263	-0.589194
O20	O	1.873247	0.846263	-0.089194
O21	O	1.240300	0.470039	-0.331576
O22	O	1.740300	0.970039	0.168424
O23	O	1.102061	0.469971	-0.469844
O24	O	1.602061	0.969971	0.030156
O25	O	1.256293	0.605424	-0.743601
O26	O	1.756293	1.105424	-0.243601
O27	O	1.102030	0.587532	-0.587416
O28	O	1.602030	1.087532	-0.087416
O29	O	1.373207	0.501420	-0.744367
O30	O	1.873207	1.001420	-0.244367
O31	O	1.344970	0.742809	-0.499557
O32	O	1.844970	1.242809	0.000443
O33	O	1.240228	0.742757	-0.604321
O34	O	1.740228	1.242757	-0.104321
C35	C	1.069312	0.526742	-0.526626
C36	C	1.569312	1.026742	-0.026626
C37	C	0.969038	0.520608	-0.520507
C38	C	1.469038	1.020608	-0.020507
C39	C	1.290822	0.775518	-0.553739
C40	C	1.790822	1.275518	-0.053739
C41	C	1.285396	0.875796	-0.559232
C42	C	1.785396	1.375796	-0.059232
C43	C	1.316593	0.555473	-0.777857
C44	C	1.816593	1.055473	-0.277857
C45	C	1.322087	0.561583	-0.878799
C46	C	1.822087	1.061583	-0.378799
C47	C	0.780612	0.631668	-0.631290
C48	C	1.280612	1.131668	-0.131290
C49	C	0.686396	0.625908	-0.625544
C50	C	1.186396	1.125908	-0.125544
C51	C	0.686390	0.503324	-0.503274
C52	C	1.186390	1.003324	-0.003274
C53	C	0.780606	0.509084	-0.509020
C54	C	1.280606	1.009084	-0.009020
C55	C	0.827713	0.573259	-0.573029
C56	C	1.327713	1.073259	-0.073029
C57	C	0.921930	0.579023	-0.578770
C58	C	1.421930	1.079023	-0.078770
C59	C	0.921923	0.456436	-0.456505
C60	C	1.421923	0.956436	0.043495
C61	C	0.827707	0.450676	-0.450759
C62	C	1.327707	0.950676	0.049241
C63	C	1.539008	0.555582	-0.555395
C64	C	2.039008	1.055582	-0.055395
C65	C	1.639282	0.561739	-0.561537
C66	C	2.139282	1.061739	-0.061537
C67	C	1.384391	1.064234	-0.460564
C68	C	1.884391	1.564234	0.039436
C69	C	1.379296	1.158453	-0.465723
C70	C	1.879296	1.658453	0.034277
C71	C	1.270115	1.158457	-0.574711
C72	C	1.770115	1.658457	-0.074711
C73	C	1.275211	1.064238	-0.569553
C74	C	1.775211	1.564238	-0.069553
C75	C	1.332349	1.017129	-0.512476
C76	C	1.832349	1.517129	-0.012476
C77	C	1.337440	0.922907	-0.507314
C78	C	1.837440	1.422907	-0.007314
C79	C	1.228265	0.922913	-0.616307
C80	C	1.728265	1.422913	-0.116307
C81	C	1.223169	1.017133	-0.621465
C82	C	1.723169	1.517133	-0.121465
C83	C	1.316653	1.305837	-0.528208
C84	C	1.816653	1.805837	-0.028208
C85	C	1.322159	1.205568	-0.522793
C86	C	1.822159	1.705568	-0.022793
C87	C	1.223353	0.450597	-1.055143
C88	C	1.723353	0.950597	-0.555143
C89	C	1.228511	0.456335	-1.149986
C90	C	1.728511	0.956335	-0.649986
C91	C	1.337557	0.578802	-1.163331
C92	C	1.837557	1.078802	-0.663331
C93	C	1.332398	0.573063	-1.068488
C94	C	1.832398	1.073063	-0.568488
C95	C	1.275295	0.508958	-1.014396
C96	C	1.775295	1.008958	-0.514396
C97	C	1.270142	0.503216	-0.919551
C98	C	1.770142	1.003216	-0.419551
C99	C	1.379183	0.625686	-0.932898
C100	C	1.879183	1.125686	-0.432898
C101	C	1.384341	0.631424	-1.027742
C102	C	1.884341	1.131424	-0.527742
C103	C	1.290917	0.526788	-0.305028
C104	C	1.790917	1.026788	0.194972
C105	C	1.285613	0.520434	-0.204084
C106	C	1.785613	1.020434	0.295916
H107	H	0.818967	0.683926	-0.683404
H108	H	1.318967	1.183926	-0.183404
O109	O	1.435419	1.209263	-0.409727
O110	O	1.935419	1.709263	0.090273
H111	H	1.475999	1.160672	-0.369169
H112	H	1.975999	1.660672	0.130831
H113	H	1.176866	0.398393	-1.011100
H114	H	1.676866	0.898393	-0.511100
O115	O	1.399083	0.872100	-0.445771
O116	O	1.899083	1.372100	0.054229
H117	H	1.393884	0.798668	-0.450902
H118	H	1.893884	1.298668	0.049098
H119	H	1.223602	1.196830	-0.621186
H120	H	1.723602	1.696830	-0.121186
H121	H	0.648050	0.673469	-0.672988
H122	H	1.148050	1.173469	-0.172988
O123	O	0.635572	0.434139	-0.434210
O124	O	1.135572	0.934139	0.065790
H125	H	0.562144	0.439963	-0.439993
H126	H	1.062144	0.939963	0.060007
O127	O	1.446018	1.013409	-0.399016
O128	O	1.946018	1.513409	0.100984
H129	H	1.425757	1.026265	-0.327772
H130	H	1.925757	1.526265	0.172228
H131	H	1.186214	0.408812	-1.183157
H132	H	1.686214	0.908812	-0.683157
H133	H	1.185886	0.884550	-0.658574
H134	H	1.685886	1.384550	-0.158574
H135	H	1.223650	0.451015	-0.875511
H136	H	1.723650	0.951015	-0.375511
H137	H	1.384034	0.631004	-1.207388
H138	H	1.884034	1.131004	-0.707388
O139	O	1.161530	1.067942	-0.683011
O140	O	1.661530	1.567942	-0.183011
H141	H	1.166721	1.141372	-0.677870
H142	H	1.666721	1.641372	-0.177870
O143	O	0.972749	0.648220	-0.647821
O144	O	1.472749	1.148220	-0.147821
H145	H	1.010938	0.694227	-0.612229
H146	H	1.510938	1.194227	-0.112229
O147	O	1.435213	0.688628	-0.888940
O148	O	1.935213	1.188628	-0.388940
H149	H	1.507856	0.678586	-0.910639
H150	H	2.007856	1.178586	-0.410639
H151	H	1.430829	0.683620	-1.071796
H152	H	1.930829	1.183620	-0.571796
O153	O	0.776895	0.381484	-0.381698
O154	O	1.276895	0.881484	0.118302
H155	H	0.703466	0.387301	-0.387478
H156	H	1.203466	0.887301	0.112522
O157	O	0.972722	0.393428	-0.393662
O158	O	1.472722	0.893428	0.106338
H159	H	1.046152	0.408209	-0.408412
H160	H	1.546152	0.908209	0.091588
