data_functionalizedCrystal
_audit_creation_method	'MofGen! by Chris Wilmer'
_symmetry_space_group_name_H-M	'P1'
_symmetry_Int_Tables_number	1
_symmetry_cell_setting	triclinic
loop_
_symmetry_equiv_pos_as_xyz
  x,y,z
_cell_length_a	10.540510
_cell_length_b	10.540510
_cell_length_c	14.586319
_cell_angle_alpha	89.998684
_cell_angle_beta	89.996246
_cell_angle_gamma	84.513311
loop_
_atom_site_label
_atom_site_type_symbol
_atom_site_fract_x
_atom_site_fract_y
_atom_site_fract_z
O1	O	1.685888	0.178721	-0.076241
O2	O	1.316469	0.195617	-0.076241
O3	O	1.509626	0.002459	-0.076240
O4	O	1.492731	0.371879	-0.076241
O5	O	1.509613	0.002456	0.076241
O6	O	1.316455	0.195614	0.076240
O7	O	1.685875	0.178718	0.076240
Cu8	Cu	1.501164	0.187166	0.090163
Cu9	Cu	1.501180	0.187169	-0.090163
O10	O	1.492717	0.371876	0.076240
C11	C	1.269159	0.194356	-0.000000
C12	C	1.128209	0.190589	-0.000001
C13	C	1.508361	-0.044846	-0.000002
C14	C	1.504594	-0.185795	-0.000007
C15	C	0.910739	0.324775	-0.000351
C16	C	1.057334	0.328793	-0.000002
C17	C	1.083449	0.119841	0.087071
C18	C	0.936688	0.116801	0.087139
C19	C	0.936898	0.113926	-0.086260
C20	C	1.083239	0.120482	-0.087406
C21	C	1.638780	-0.403265	0.000342
C22	C	1.642798	-0.256670	-0.000006
C23	C	1.433854	-0.230545	-0.087079
C24	C	1.430815	-0.377305	-0.087148
C25	C	1.427922	-0.377117	0.086252
C26	C	1.434477	-0.230777	0.087398
C27	C	1.733185	0.179979	-0.000002
C28	C	1.874135	0.183746	-0.000008
C29	C	1.493983	0.419181	-0.000001
C30	C	1.497750	0.560130	-0.000001
N31	N	1.501162	0.187162	0.216995
N32	N	1.501192	0.187162	-0.216995
C33	C	1.586721	0.101661	0.452001
C34	C	1.586724	0.101658	0.547982
C35	C	1.415624	0.272667	0.547992
C36	C	1.415615	0.272663	0.452012
C37	C	1.501171	0.187162	0.404019
C38	C	1.501183	0.187163	0.595980
C39	C	1.501186	0.187160	0.700047
C40	C	1.501166	0.187163	0.299946
H41	H	1.086680	0.384141	-0.062421
H42	H	1.656386	0.032035	0.587047
H43	H	1.692617	-0.445227	0.062786
H44	H	1.111857	0.171958	-0.151821
H45	H	1.692318	-0.446775	-0.061749
H46	H	1.479170	-0.417525	-0.152235
F47	F	1.324551	0.363664	0.400942
F48	F	1.295709	-0.407352	-0.092318
H49	H	1.332111	-0.183145	-0.090317
F50	F	1.484938	-0.432675	0.172515
F51	F	1.501746	-0.193379	0.171595
F52	F	1.302590	-0.166632	0.094272
F53	F	1.292295	-0.406055	0.087020
H54	H	0.867221	0.378307	0.061739
F55	F	0.855903	0.395158	-0.081971
H56	H	1.345968	0.342283	0.587077
H57	H	1.656384	0.032039	0.412928
H58	H	1.085727	0.384475	0.062519
H59	H	0.913704	0.013433	0.091094
F60	F	0.884104	0.179999	0.172211
F61	F	1.147380	-0.011406	-0.094277
F62	F	1.715574	-0.219542	-0.081732
F63	F	1.715117	-0.218317	0.081587
F64	F	1.145393	-0.013150	0.091303
F65	F	1.123760	0.184056	0.171770
H66	H	1.482992	-0.199692	-0.151878
H67	H	0.894351	0.157511	-0.152257
F68	F	0.907963	-0.021701	-0.087028
