data_functionalizedCrystal
_audit_creation_method	'MofGen! by Chris Wilmer'
_symmetry_space_group_name_H-M	'P1'
_symmetry_Int_Tables_number	1
_symmetry_cell_setting	triclinic
loop_
_symmetry_equiv_pos_as_xyz
  x,y,z
_cell_length_a	29.839134
_cell_length_b	29.839132
_cell_length_c	29.839126
_cell_angle_alpha	89.973634
_cell_angle_beta	90.029638
_cell_angle_gamma	89.959876
loop_
_atom_site_label
_atom_site_type_symbol
_atom_site_fract_x
_atom_site_fract_y
_atom_site_fract_z
Zn1	Zn	0.686742	0.178949	0.254118
Zn2	Zn	1.020075	0.512283	0.587451
Zn3	Zn	1.353408	0.845616	0.920785
Zn4	Zn	0.686659	0.254070	0.178985
Zn5	Zn	1.019992	0.587403	0.512318
Zn6	Zn	1.353325	0.920736	0.845652
Zn7	Zn	0.611614	0.178948	0.178988
Zn8	Zn	0.944948	0.512281	0.512321
Zn9	Zn	1.278281	0.845615	0.845654
Zn10	Zn	0.611567	0.254046	0.254074
Zn11	Zn	0.944900	0.587380	0.587407
Zn12	Zn	1.278234	0.920713	0.920740
O13	O	0.649145	0.216503	0.216541
O14	O	0.982479	0.549837	0.549874
O15	O	1.315812	0.883170	0.883208
O16	O	0.749598	0.188925	0.244169
O17	O	1.082931	0.522258	0.577503
O18	O	1.416264	0.855591	0.910836
O19	O	0.676689	0.244114	0.116118
O20	O	1.010022	0.577447	0.449452
O21	O	1.343356	0.910781	0.782785
O22	O	0.621635	0.116081	0.188974
O23	O	0.954968	0.449414	0.522307
O24	O	1.288301	0.782748	0.855640
O25	O	0.749537	0.244115	0.188969
O26	O	1.082870	0.577449	0.522303
O27	O	1.416203	0.910782	0.855636
O28	O	0.676830	0.116082	0.244172
O29	O	1.010164	0.449415	0.577505
O30	O	1.343497	0.782749	0.910838
O31	O	0.621554	0.188922	0.116120
O32	O	0.954888	0.522256	0.449454
O33	O	1.288221	0.855589	0.782787
O34	O	0.548741	0.188899	0.188930
O35	O	0.882074	0.522233	0.522264
O36	O	1.215408	0.855566	0.855597
O37	O	0.621554	0.244075	0.316947
O38	O	0.954887	0.577409	0.650280
O39	O	1.288221	0.910742	0.983613
O40	O	0.548706	0.244074	0.244096
O41	O	0.882040	0.577407	0.577429
O42	O	1.215373	0.910741	0.910762
O43	O	0.676784	0.188902	0.316979
O44	O	1.010118	0.522235	0.650313
O45	O	1.343451	0.855569	0.983646
O46	O	0.676643	0.316934	0.188926
O47	O	1.009976	0.650267	0.522259
O48	O	1.343310	0.983600	0.855593
O49	O	0.621474	0.316917	0.244093
O50	O	0.954807	0.650250	0.577427
O51	O	1.288140	0.983583	0.910760
C52	C	0.532423	0.216484	0.216509
C53	C	0.865756	0.549818	0.549842
C54	C	1.199090	0.883151	0.883175
C55	C	0.482488	0.216487	0.216506
C56	C	0.815822	0.549820	0.549839
C57	C	1.149155	0.883154	0.883172
C58	C	0.172836	0.245275	0.245230
C59	C	0.506170	0.578608	0.578564
C60	C	0.839503	0.911942	0.911897
C61	C	-0.014837	0.245288	0.245250
C62	C	0.318497	0.578621	0.578584
C63	C	0.651830	0.911954	0.911917
O64	O	-0.039109	0.269743	0.269654
O65	O	0.294225	0.603077	0.602988
O66	O	0.627558	0.936410	0.936321
N67	N	-0.038297	0.216520	0.216575
N68	N	0.295037	0.549853	0.549908
N69	N	0.628370	0.883186	0.883242
C70	C	-0.014836	0.187744	0.187894
C71	C	0.318498	0.521078	0.521228
C72	C	0.651831	0.854411	0.854561
O73	O	-0.039096	0.163273	0.163508
O74	O	0.294237	0.496606	0.496841
O75	O	0.627571	0.829939	0.830175
C76	C	0.172837	0.187730	0.187877
C77	C	0.506170	0.521063	0.521210
C78	C	0.839503	0.854397	0.854544
C79	C	0.196294	0.216503	0.216551
C80	C	0.529628	0.549836	0.549885
C81	C	0.862961	0.883170	0.883218
C82	C	0.196294	0.274046	0.273903
C83	C	0.529627	0.607379	0.607236
C84	C	0.862961	0.940712	0.940569
C85	C	0.243209	0.274044	0.273896
C86	C	0.576543	0.607377	0.607229
C87	C	0.909876	0.940711	0.940562
C88	C	0.266667	0.245272	0.245216
C89	C	0.600001	0.578605	0.578550
C90	C	0.933334	0.911938	0.911883
C91	C	0.243210	0.216501	0.216544
C92	C	0.576543	0.549835	0.549878
C93	C	0.909876	0.883168	0.883211
C94	C	0.196297	0.158953	0.159199
C95	C	0.529630	0.492286	0.492533
C96	C	0.862964	0.825619	0.825866
C97	C	0.243218	0.158951	0.159198
C98	C	0.576551	0.492284	0.492532
C99	C	0.909885	0.825617	0.825865
C100	C	0.266676	0.187724	0.187872
C101	C	0.600009	0.521057	0.521206
C102	C	0.933342	0.854391	0.854539
C103	C	0.313583	0.187727	0.187858
C104	C	0.646916	0.521061	0.521191
C105	C	0.980250	0.854394	0.854525
N106	N	0.337043	0.216495	0.216534
N107	N	0.670376	0.549829	0.549867
N108	N	1.003710	0.883162	0.883200
C109	C	0.313585	0.245268	0.245213
C110	C	0.646918	0.578601	0.578546
C111	C	0.980252	0.911934	0.911879
C112	C	-0.113366	0.187755	0.187905
C113	C	0.219967	0.521088	0.521238
C114	C	0.553300	0.854421	0.854572
C115	C	-0.160284	0.187759	0.187909
C116	C	0.173049	0.521092	0.521242
C117	C	0.506383	0.854426	0.854575
C118	C	-0.160282	0.245302	0.245265
C119	C	0.173051	0.578635	0.578599
C120	C	0.506385	0.911968	0.911932
C121	C	-0.113363	0.245300	0.245259
C122	C	0.219970	0.578633	0.578592
C123	C	0.553303	0.911966	0.911926
C124	C	-0.089906	0.216523	0.216581
C125	C	0.243427	0.549856	0.549914
C126	C	0.576760	0.883189	0.883247
C127	C	0.412111	0.245262	0.245196
C128	C	0.745444	0.578595	0.578529
C129	C	1.078778	0.911929	0.911862
C130	C	0.459031	0.245259	0.245185
C131	C	0.792364	0.578592	0.578518
C132	C	1.125697	0.911926	0.911851
C133	C	0.459024	0.187715	0.187830
C134	C	0.792358	0.521048	0.521163
C135	C	1.125691	0.854381	0.854497
C136	C	0.412109	0.187719	0.187839
C137	C	0.745442	0.521053	0.521172
C138	C	1.078776	0.854386	0.854506
C139	C	0.388653	0.216494	0.216525
C140	C	0.721987	0.549828	0.549859
C141	C	1.055320	0.883161	0.883192
O142	O	0.337884	0.163281	0.163471
O143	O	0.671217	0.496614	0.496804
O144	O	1.004551	0.829948	0.830137
O145	O	0.337854	0.269729	0.269603
O146	O	0.671187	0.603062	0.602936
O147	O	1.004520	0.936395	0.936269
C148	C	0.125921	0.245277	0.245237
C149	C	0.459254	0.578610	0.578571
C150	C	0.792588	0.911944	0.911904
C151	C	0.102463	0.216506	0.216565
C152	C	0.435797	0.549840	0.549899
C153	C	0.769130	0.883173	0.883232
C154	C	0.125921	0.187734	0.187886
C155	C	0.459254	0.521068	0.521219
C156	C	0.792588	0.854401	0.854553
C157	C	0.055545	0.216511	0.216569
C158	C	0.388879	0.549844	0.549902
C159	C	0.722212	0.883177	0.883236
C160	C	0.032088	0.245283	0.245248
C161	C	0.365421	0.578616	0.578582
C162	C	0.698754	0.911949	0.911915
C163	C	0.055548	0.274051	0.273924
C164	C	0.388881	0.607384	0.607257
C165	C	0.722214	0.940717	0.940590
C166	C	0.102463	0.274049	0.273917
C167	C	0.435796	0.607382	0.607250
C168	C	0.769130	0.940716	0.940583
C169	C	0.102461	0.158966	0.159211
C170	C	0.435794	0.492300	0.492544
C171	C	0.769128	0.825633	0.825877
C172	C	0.055546	0.158971	0.159220
C173	C	0.388879	0.492304	0.492553
C174	C	0.722212	0.825637	0.825886
C175	C	0.032088	0.187743	0.187899
C176	C	0.365421	0.521076	0.521232
C177	C	0.698754	0.854410	0.854565
C178	C	0.649056	0.333226	0.216514
C179	C	0.982390	0.666559	0.549848
C180	C	1.315723	0.999893	0.883181
C181	C	0.649059	0.383160	0.216518
C182	C	0.982393	0.716494	0.549851
C183	C	1.315726	1.049827	0.883185
C184	C	0.677892	0.692800	0.187839
C185	C	1.011226	1.026133	0.521172
C186	C	1.344559	1.359467	0.854506
C187	C	0.677935	0.880473	0.187849
C188	C	1.011269	1.213806	0.521183
C189	C	1.344602	1.547140	0.854516
O190	O	0.702402	0.904735	0.163458
O191	O	1.035735	1.238068	0.496791
O192	O	1.369068	1.571401	0.830124
N193	N	0.649192	0.903945	0.216548
N194	N	0.982526	1.237279	0.549882
N195	N	1.315859	1.570612	0.883215
C196	C	0.620439	0.880497	0.245249
C197	C	0.953772	1.213830	0.578582
C198	C	1.287106	1.547163	0.911916
O199	O	0.595996	0.904767	0.269663
O200	O	0.929329	1.238101	0.602996
O201	O	1.262662	1.571434	0.936330
C202	C	0.620399	0.692824	0.245241
C203	C	0.953732	1.026158	0.578574
C204	C	1.287065	1.359491	0.911908
C205	C	0.649140	0.669354	0.216537
C206	C	0.982473	1.002688	0.549870
C207	C	1.315807	1.336021	0.883203
C208	C	0.706632	0.669330	0.159138
C209	C	1.039965	1.002664	0.492471
C210	C	1.373299	1.335997	0.825804
C211	C	0.706619	0.622415	0.159134
C212	C	1.039953	0.955748	0.492467
C213	C	1.373286	1.289081	0.825800
C214	C	0.677867	0.598969	0.187831
C215	C	1.011200	0.932302	0.521165
C216	C	1.344534	1.265636	0.854498
C217	C	0.649127	0.622439	0.216533
C218	C	0.982461	0.955772	0.549866
C219	C	1.315794	1.289106	0.883199
C220	C	0.591648	0.669376	0.273943
C221	C	0.924981	1.002710	0.607277
C222	C	1.258314	1.336043	0.940610
C223	C	0.591641	0.622455	0.273940
C224	C	0.924974	0.955789	0.607273
C225	C	1.258308	1.289122	0.940606
C226	C	0.620383	0.598985	0.245235
C227	C	0.953716	0.932319	0.578569
C228	C	1.287049	1.265652	0.911902
C229	C	0.620362	0.552078	0.245226
C230	C	0.953696	0.885411	0.578560
C231	C	1.287029	1.218745	0.911893
N232	N	0.649105	0.528606	0.216527
N233	N	0.982439	0.861939	0.549860
N234	N	1.315772	1.195272	0.883194
C235	C	0.677858	0.552051	0.187830
C236	C	1.011191	0.885385	0.521163
C237	C	1.344524	1.218718	0.854496
C238	C	0.620461	0.979027	0.245251
C239	C	0.953795	1.312360	0.578584
C240	C	1.287128	1.645694	0.911917
C241	C	0.620471	1.025945	0.245252
C242	C	0.953804	1.359278	0.578586
C243	C	1.287138	1.692612	0.911919
C244	C	0.677968	1.025918	0.187853
C245	C	1.011301	1.359252	0.521186
C246	C	1.344635	1.692585	0.854520
C247	C	0.677956	0.979000	0.187850
C248	C	1.011289	1.312333	0.521183
C249	C	1.344623	1.645666	0.854516
C250	C	0.649204	0.955555	0.216552
C251	C	0.982538	1.288888	0.549885
C252	C	1.315871	1.622222	0.883218
C253	C	0.677828	0.453525	0.187823
C254	C	1.011162	0.786859	0.521156
C255	C	1.344495	1.120192	0.854490
C256	C	0.677812	0.406606	0.187820
C257	C	1.011145	0.739939	0.521154
C258	C	1.344478	1.073273	0.854487
C259	C	0.620317	0.406637	0.245221
C260	C	0.953650	0.739970	0.578554
C261	C	1.286983	1.073303	0.911888
C262	C	0.620331	0.453552	0.245222
C263	C	0.953665	0.786885	0.578556
C264	C	1.286998	1.120219	0.911889
C265	C	0.649091	0.476995	0.216522
C266	C	0.982424	0.810329	0.549855
C267	C	1.315757	1.143662	0.883189
O268	O	0.595912	0.527787	0.269609
O269	O	0.929246	0.861121	0.602942
O270	O	1.262579	1.194454	0.936275
O271	O	0.702304	0.527772	0.163426
O272	O	1.035638	0.861106	0.496760
O273	O	1.368971	1.194439	0.830093
C274	C	0.677905	0.739716	0.187843
C275	C	1.011238	1.073049	0.521176
C276	C	1.344572	1.406382	0.854510
C277	C	0.649166	0.763185	0.216545
C278	C	0.982499	1.096519	0.549878
C279	C	1.315832	1.429852	0.883211
C280	C	0.620413	0.739740	0.245242
C281	C	0.953747	1.073073	0.578575
C282	C	1.287080	1.406406	0.911909
C283	C	0.649175	0.810103	0.216546
C284	C	0.982508	1.143437	0.549880
C285	C	1.315842	1.476770	0.883213
C286	C	0.677927	0.833549	0.187849
C287	C	1.011261	1.166882	0.521182
C288	C	1.344594	1.500215	0.854515
C289	C	0.706670	0.810077	0.159150
C290	C	1.040003	1.143410	0.492483
C291	C	1.373337	1.476743	0.825816
C292	C	0.706657	0.763161	0.159146
C293	C	1.039991	1.096494	0.492479
C294	C	1.373324	1.429828	0.825812
C295	C	0.591671	0.763212	0.273941
C296	C	0.925004	1.096545	0.607275
C297	C	1.258337	1.429879	0.940608
C298	C	0.591685	0.810128	0.273942
C299	C	0.925019	1.143461	0.607276
C300	C	1.258352	1.476794	0.940609
C301	C	0.620437	0.833573	0.245245
C302	C	0.953771	1.166906	0.578578
C303	C	1.287104	1.500240	0.911912
C304	C	0.766324	0.216523	0.216574
C305	C	1.099657	0.549856	0.549907
C306	C	1.432990	0.883189	0.883241
C307	C	0.816258	0.216531	0.216588
C308	C	1.149591	0.549864	0.549921
C309	C	1.482925	0.883198	0.883255
C310	C	0.649230	1.099325	0.216568
C311	C	0.982563	1.432658	0.549901
C312	C	1.315897	1.765992	0.883235
C313	C	0.649223	1.049391	0.216555
C314	C	0.982556	1.382724	0.549888
C315	C	1.315890	1.716057	0.883222
C316	C	0.649173	0.216486	0.333720
C317	C	0.982507	0.549819	0.667053
C318	C	1.315840	0.883153	1.000386
C319	C	0.649185	0.216479	0.383654
C320	C	0.982518	0.549812	0.716987
C321	C	1.315852	0.883145	1.050321
C322	C	0.649144	0.216488	0.099819
C323	C	0.982477	0.549821	0.433152
C324	C	1.315810	0.883155	0.766485
C325	C	0.649219	0.216369	0.049884
C326	C	0.982552	0.549702	0.383218
C327	C	1.315885	0.883036	0.716551
C328	C	0.620485	0.187695	0.693301
C329	C	0.953819	0.521029	1.026635
C330	C	1.287152	0.854362	1.359968
C331	C	0.620498	0.187664	0.880974
C332	C	0.953831	0.520998	1.214308
C333	C	1.287165	0.854331	1.547641
O334	O	0.596074	0.163236	0.905243
O335	O	0.929407	0.496570	1.238576
O336	O	1.262741	0.829903	1.571909
N337	N	0.649206	0.216394	0.904439
N338	N	0.982540	0.549728	1.237773
N339	N	1.315873	0.883061	1.571106
C340	C	0.677911	0.245137	0.880983
C341	C	1.011245	0.578470	1.214316
C342	C	1.344578	0.911803	1.547650
O343	O	0.702327	0.269576	0.905247
O344	O	1.035660	0.602909	1.238581
O345	O	1.368993	0.936243	1.571914
C346	C	0.677896	0.245170	0.693311
C347	C	1.011229	0.578503	1.026644
C348	C	1.344563	0.911836	1.359977
C349	C	0.649189	0.216434	0.669848
C350	C	0.982523	0.549768	1.003182
C351	C	1.315856	0.883101	1.336515
C352	C	0.591780	0.158963	0.669839
C353	C	0.925114	0.492296	1.003172
C354	C	1.258447	0.825630	1.336506
C355	C	0.591779	0.158969	0.622923
C356	C	0.925113	0.492303	0.956257
C357	C	1.258446	0.825636	1.289590
C358	C	0.620483	0.187708	0.599470
C359	C	0.953816	0.521042	0.932804
C360	C	1.287150	0.854375	1.266137
C361	C	0.649188	0.216441	0.622933
C362	C	0.982521	0.549774	0.956266
C363	C	1.315855	0.883107	1.289599
C364	C	0.706599	0.273914	0.669855
C365	C	1.039932	0.607247	1.003188
C366	C	1.373265	0.940580	1.336522
C367	C	0.706591	0.273920	0.622934
C368	C	1.039925	0.607254	0.956267
C369	C	1.373258	0.940587	1.289601
C370	C	0.677884	0.245185	0.599472
C371	C	1.011218	0.578518	0.932805
C372	C	1.344551	0.911852	1.266138
C373	C	0.677891	0.245186	0.552564
C374	C	1.011224	0.578519	0.885898
C375	C	1.344557	0.911853	1.219231
N376	N	0.649182	0.216456	0.529099
N377	N	0.982516	0.549789	0.862433
N378	N	1.315849	0.883123	1.195766
C379	C	0.620479	0.187717	0.552553
C380	C	0.953812	0.521050	0.885886
C381	C	1.287145	0.854384	1.219219
C382	C	0.677918	0.245117	0.979514
C383	C	1.011251	0.578450	1.312847
C384	C	1.344585	0.911783	1.646180
C385	C	0.677923	0.245108	1.026431
C386	C	1.011256	0.578441	1.359765
C387	C	1.344589	0.911774	1.693098
C388	C	0.620509	0.187636	1.026420
C389	C	0.953842	0.520969	1.359753
C390	C	1.287175	0.854303	1.693086
C391	C	0.620507	0.187643	0.979501
C392	C	0.953840	0.520976	1.312834
C393	C	1.287173	0.854309	1.646168
C394	C	0.649210	0.216386	0.956049
C395	C	0.982543	0.549720	1.289382
C396	C	1.315876	0.883053	1.622715
C397	C	0.620479	0.187732	0.454027
C398	C	0.953812	0.521066	0.787360
C399	C	1.287145	0.854399	1.120693
C400	C	0.620481	0.187740	0.407107
C401	C	0.953815	0.521073	0.740440
C402	C	1.287148	0.854406	1.073774
C403	C	0.677893	0.245213	0.407123
C404	C	1.011227	0.578546	0.740456
C405	C	1.344560	0.911880	1.073789
C406	C	0.677893	0.245204	0.454038
C407	C	1.011226	0.578537	0.787372
C408	C	1.344559	0.911871	1.120705
C409	C	0.649182	0.216462	0.477489
C410	C	0.982515	0.549795	0.810822
C411	C	1.315848	0.883129	1.144156
O412	O	0.702298	0.269605	0.528267
O413	O	1.035632	0.602938	0.861601
O414	O	1.368965	0.936271	1.194934
O415	O	0.596060	0.163288	0.528280
O416	O	0.929393	0.496622	0.861613
O417	O	1.262727	0.829955	1.194947
C418	C	0.620487	0.187689	0.740217
C419	C	0.953820	0.521022	1.073550
C420	C	1.287153	0.854356	1.406883
C421	C	0.649192	0.216422	0.763679
C422	C	0.982525	0.549755	1.097013
C423	C	1.315858	0.883088	1.430346
C424	C	0.677895	0.245161	0.740226
C425	C	1.011229	0.578494	1.073559
C426	C	1.344562	0.911827	1.406893
C427	C	0.649196	0.216413	0.810597
C428	C	0.982529	0.549746	1.143930
C429	C	1.315863	0.883080	1.477264
C430	C	0.620492	0.187674	0.834050
C431	C	0.953826	0.521007	1.167383
C432	C	1.287159	0.854341	1.500717
C433	C	0.591784	0.158944	0.810585
C434	C	0.925117	0.492277	1.143919
C435	C	1.258451	0.825610	1.477252
C436	C	0.591783	0.158950	0.763670
C437	C	0.925116	0.492284	1.097003
C438	C	1.258449	0.825617	1.430337
C439	C	0.706604	0.273891	0.763691
C440	C	1.039937	0.607224	1.097024
C441	C	1.373270	0.940557	1.430358
C442	C	0.706603	0.273882	0.810606
C443	C	1.039936	0.607215	1.143940
C444	C	1.373269	0.940548	1.477273
C445	C	0.677899	0.245143	0.834060
C446	C	1.011232	0.578476	1.167393
C447	C	1.344566	0.911809	1.500726
H448	H	0.036450	0.135541	0.135866
H449	H	0.369784	0.468874	0.469199
H450	H	0.703117	0.802207	0.802532
H451	H	0.121556	0.135536	0.135856
H452	H	0.454889	0.468869	0.469189
H453	H	0.788222	0.802203	0.802523
H454	H	0.597047	0.959942	0.268624
H455	H	0.930381	1.293275	0.601957
H456	H	1.263714	1.626608	0.935291
H457	H	-0.179379	0.164333	0.164555
H458	H	0.153954	0.497667	0.497888
H459	H	0.487287	0.831000	0.831221
C460	C	0.484834	0.276915	0.276722
C461	C	0.818167	0.610248	0.610055
C462	C	1.151500	0.943581	0.943389
H463	H	0.516136	0.272799	0.272608
H464	H	0.849470	0.606133	0.605941
H465	H	1.182803	0.939466	0.939274
H466	H	0.477171	0.270388	0.306922
H467	H	0.810504	0.603722	0.640255
H468	H	1.143837	0.937055	0.973588
H469	H	0.477116	0.307090	0.270083
H470	H	0.810449	0.640423	0.603416
H471	H	1.143782	0.973756	0.936750
H472	H	0.597105	0.164338	0.388006
H473	H	0.930438	0.497671	0.721339
H474	H	1.263771	0.831005	1.054673
C475	C	0.709593	1.051714	0.156285
C476	C	1.042927	1.385047	0.489619
C477	C	1.376260	1.718381	0.822952
H478	H	0.705481	1.083017	0.160401
H479	H	1.038815	1.416351	0.493735
H480	H	1.372148	1.749684	0.827068
H481	H	0.703037	1.044048	0.126092
H482	H	1.036371	1.377381	0.459425
H483	H	1.369704	1.710714	0.792759
H484	H	0.739775	1.043998	0.162896
H485	H	1.073109	1.377331	0.496230
H486	H	1.406442	1.710664	0.829563
C487	C	0.709575	0.953187	0.156279
C488	C	1.042908	1.286520	0.489612
C489	C	1.376241	1.619854	0.822946
H490	H	0.726700	0.973874	0.139191
H491	H	1.060033	1.307207	0.472525
H492	H	1.393367	1.640541	0.805858
H493	H	0.692400	0.934908	0.136684
H494	H	1.025734	1.268241	0.470017
H495	H	1.359067	1.601574	0.803351
H496	H	0.729139	0.934861	0.173488
H497	H	1.062473	1.268194	0.506821
H498	H	1.395806	1.601527	0.840154
C499	C	0.709431	0.380792	0.156247
C500	C	1.042764	0.714125	0.489580
C501	C	1.376097	1.047458	0.822913
H502	H	0.726559	0.401477	0.139160
H503	H	1.059892	0.734811	0.472494
H504	H	1.393226	1.068144	0.805827
H505	H	0.692254	0.362515	0.136651
H506	H	1.025588	0.695849	0.469984
H507	H	1.358921	1.029182	0.803317
H508	H	0.728993	0.362462	0.173455
H509	H	1.062326	0.695795	0.506788
H510	H	1.395659	1.029129	0.840122
C511	C	0.128261	0.305696	0.305462
C512	C	0.461594	0.639030	0.638795
C513	C	0.794927	0.972363	0.972129
H514	H	0.107565	0.322827	0.322544
H515	H	0.440898	0.656160	0.655877
H516	H	0.774232	0.989494	0.989210
H517	H	0.146541	0.325248	0.288243
H518	H	0.479874	0.658581	0.621576
H519	H	0.813208	0.991915	0.954909
H520	H	0.146584	0.288535	0.325070
H521	H	0.479918	0.621869	0.658403
H522	H	0.813251	0.955202	0.991737
H523	H	0.597062	1.045050	0.268622
H524	H	0.930396	1.378383	0.601955
H525	H	1.263729	1.711717	0.935289
C526	C	0.170504	0.127298	0.127661
C527	C	0.503837	0.460631	0.460994
C528	C	0.837170	0.793965	0.794327
H529	H	0.191200	0.110160	0.110587
H530	H	0.524534	0.443494	0.443921
H531	H	0.857867	0.776827	0.777254
H532	H	0.152176	0.144449	0.108051
H533	H	0.485509	0.477783	0.441385
H534	H	0.818842	0.811116	0.774718
H535	H	0.152227	0.107747	0.144889
H536	H	0.485561	0.441080	0.478223
H537	H	0.818894	0.774413	0.811556
C538	C	0.588900	0.156114	0.479816
C539	C	0.922234	0.489447	0.813149
C540	C	1.255567	0.822781	1.146483
H541	H	0.571810	0.139002	0.459118
H542	H	0.905143	0.472335	0.792451
H543	H	1.238477	0.805669	1.125784
H544	H	0.569308	0.173288	0.498105
H545	H	0.902642	0.506621	0.831438
H546	H	1.235975	0.839954	1.164772
H547	H	0.606107	0.136537	0.498131
H548	H	0.939440	0.469870	0.831464
H549	H	1.272773	0.803203	1.164797
C550	C	0.588695	0.380843	0.276791
C551	C	0.922029	0.714176	0.610125
C552	C	1.255362	1.047509	0.943458
H553	H	0.571577	0.401538	0.293887
H554	H	0.904911	0.734871	0.627220
H555	H	1.238244	1.068204	0.960553
H556	H	0.605872	0.362515	0.296379
H557	H	0.939205	0.695849	0.629712
H558	H	1.272539	1.029182	0.963045
H559	H	0.569124	0.362566	0.259584
H560	H	0.902457	0.695899	0.592918
H561	H	1.235790	1.029232	0.926251
H562	H	0.393019	0.268692	0.268556
H563	H	0.726352	0.602026	0.601889
H564	H	1.059686	0.935359	0.935223
C565	C	-0.087569	0.156103	0.156352
C566	C	0.245764	0.489436	0.489685
C567	C	0.579098	0.822770	0.823018
H568	H	-0.108265	0.138977	0.139273
H569	H	0.225069	0.472310	0.472606
H570	H	0.558402	0.805643	0.805940
H571	H	-0.069243	0.136547	0.173566
H572	H	0.264091	0.469881	0.506899
H573	H	0.597424	0.803214	0.840232
H574	H	-0.069291	0.173263	0.136741
H575	H	0.264042	0.506597	0.470074
H576	H	0.597375	0.839930	0.803408
C577	C	0.269007	0.305689	0.305443
C578	C	0.602340	0.639022	0.638776
C579	C	0.935674	0.972356	0.972110
H580	H	0.248311	0.322819	0.322525
H581	H	0.581645	0.656152	0.655859
H582	H	0.914978	0.989486	0.989192
H583	H	0.287289	0.325242	0.288226
H584	H	0.620622	0.658575	0.621559
H585	H	0.953955	0.991908	0.954892
H586	H	0.287330	0.288526	0.325050
H587	H	0.620663	0.621859	0.658384
H588	H	0.953996	0.955193	0.991717
C589	C	0.560068	0.835939	0.305520
C590	C	0.893402	1.169273	0.638854
C591	C	1.226735	1.502606	0.972187
H592	H	0.542948	0.815252	0.322613
H593	H	0.876281	1.148586	0.655946
H594	H	1.209614	1.481919	0.989279
H595	H	0.540506	0.854273	0.288321
H596	H	0.873839	1.187606	0.621655
H597	H	1.207172	1.520939	0.954988
H598	H	0.577252	0.854211	0.325117
H599	H	0.910586	1.187545	0.658451
H600	H	1.243919	1.520878	0.991784
C601	C	-0.087564	0.276946	0.276804
C602	C	0.245769	0.610279	0.610137
C603	C	0.579103	0.943613	0.943470
H604	H	-0.108258	0.294079	0.293885
H605	H	0.225075	0.627412	0.627218
H606	H	0.558408	0.960746	0.960551
H607	H	-0.069282	0.296496	0.259584
H608	H	0.264052	0.629829	0.592917
H609	H	0.597385	0.963162	0.926251
H610	H	-0.069242	0.259784	0.296413
H611	H	0.264092	0.593117	0.629746
H612	H	0.597425	0.926451	0.963079
H613	H	0.177200	0.297475	0.297259
H614	H	0.510533	0.630809	0.630592
H615	H	0.843866	0.964142	0.963926
C616	C	0.709504	0.276713	1.052235
C617	C	1.042837	0.610046	1.385568
C618	C	1.376170	0.943380	1.718902
H619	H	0.726593	0.293831	1.031543
H620	H	1.059927	0.627165	1.364877
H621	H	1.393260	0.960498	1.698210
H622	H	0.729096	0.259531	1.070552
H623	H	1.062430	0.592864	1.403885
H624	H	1.395763	0.926197	1.737218
H625	H	0.692301	0.296284	1.070523
H626	H	1.025634	0.629618	1.403857
H627	H	1.358967	0.962951	1.737190
H628	H	0.729976	0.297296	0.744600
H629	H	1.063310	0.630629	1.077934
H630	H	1.396643	0.963962	1.411267
C631	C	-0.186091	0.276947	0.276815
C632	C	0.147242	0.610281	0.610148
C633	C	0.480576	0.943614	0.943482
H634	H	-0.217393	0.272823	0.272711
H635	H	0.115941	0.606157	0.606044
H636	H	0.449274	0.939490	0.939377
H637	H	-0.178429	0.307125	0.270190
H638	H	0.154905	0.640458	0.603524
H639	H	0.488238	0.973791	0.936857
H640	H	-0.178381	0.270406	0.307012
H641	H	0.154953	0.603740	0.640346
H642	H	0.488286	0.937073	0.973679
C643	C	0.269018	0.127295	0.127651
C644	C	0.602351	0.460629	0.460985
C645	C	0.935685	0.793962	0.794318
H646	H	0.248325	0.110164	0.110575
H647	H	0.581658	0.443497	0.443908
H648	H	0.914992	0.776830	0.777242
H649	H	0.287345	0.107745	0.144871
H650	H	0.620678	0.441078	0.478205
H651	H	0.954011	0.774411	0.811538
H652	H	0.287296	0.144452	0.108038
H653	H	0.620630	0.477785	0.441371
H654	H	0.953963	0.811119	0.774705
H655	H	0.393009	0.164291	0.164489
H656	H	0.726342	0.497624	0.497823
H657	H	1.059675	0.830957	0.831156
C658	C	0.709498	0.276732	0.953722
C659	C	1.042832	0.610065	1.287055
C660	C	1.376165	0.943399	1.620388
H661	H	0.726598	0.293835	0.974420
H662	H	1.059931	0.627168	1.307753
H663	H	1.393264	0.960502	1.641087
H664	H	0.692300	0.296311	0.935405
H665	H	1.025634	0.629644	1.268738
H666	H	1.358967	0.962977	1.602072
H667	H	0.729089	0.259550	0.935435
H668	H	1.062422	0.592883	1.268768
H669	H	1.395755	0.926216	1.602101
C670	C	0.738171	0.305529	0.695654
C671	C	1.071504	0.638862	1.028987
C672	C	1.404838	0.972196	1.362320
H673	H	0.755257	0.322648	0.674960
H674	H	1.088591	0.655981	1.008293
H675	H	1.421924	0.989315	1.341626
H676	H	0.757767	0.288354	0.713973
H677	H	1.091100	0.621687	1.047307
H678	H	1.424434	0.955020	1.380640
H679	H	0.720963	0.325099	0.713938
H680	H	1.054296	0.658432	1.047272
H681	H	1.387630	0.991766	1.380605
C682	C	0.709460	0.479307	0.156250
C683	C	1.042793	0.812640	0.489583
C684	C	1.376126	1.145973	0.822917
H685	H	0.726569	0.458604	0.139155
H686	H	1.059902	0.791937	0.472488
H687	H	1.393235	1.125270	0.805822
H688	H	0.729032	0.497583	0.173452
H689	H	1.062366	0.830916	0.506786
H690	H	1.395699	1.164249	0.840119
H691	H	0.692287	0.497634	0.136655
H692	H	1.025620	0.830967	0.469989
H693	H	1.358953	1.164300	0.803322
C694	C	0.738166	0.305539	0.597139
C695	C	1.071499	0.638872	0.930473
C696	C	1.404833	0.972205	1.263806
H697	H	0.755263	0.322647	0.617835
H698	H	1.088597	0.655980	0.951168
H699	H	1.421930	0.989314	1.284502
H700	H	0.720963	0.325112	0.578822
H701	H	1.054296	0.658446	0.912155
H702	H	1.387630	0.991779	1.245489
H703	H	0.757759	0.288359	0.578852
H704	H	1.091092	0.621692	0.912185
H705	H	1.424425	0.955026	1.245519
H706	H	0.478132	0.164291	0.164479
H707	H	0.811466	0.497624	0.497812
H708	H	1.144799	0.830957	0.831145
C709	C	0.560035	0.695183	0.305522
C710	C	0.893368	1.028516	0.638855
C711	C	1.226701	1.361850	0.972188
H712	H	0.542917	0.674494	0.322614
H713	H	0.876250	1.007827	0.655948
H714	H	1.209584	1.341160	0.989281
H715	H	0.540470	0.713515	0.288324
H716	H	0.873803	1.046848	0.621657
H717	H	1.207136	1.380181	0.954990
H718	H	0.577217	0.713457	0.325119
H719	H	0.910551	1.046790	0.658452
H720	H	1.243884	1.380123	0.991785
H721	H	0.036440	0.297479	0.297274
H722	H	0.369773	0.630813	0.630607
H723	H	0.703107	0.964146	0.963941
H724	H	0.568401	0.135572	0.603825
H725	H	0.901735	0.468905	0.937158
H726	H	1.235068	0.802238	1.270491
H727	H	0.701273	0.268598	0.473142
H728	H	1.034606	0.601931	0.806476
H729	H	1.367940	0.935264	1.139809
C730	C	0.738241	0.596604	0.127564
C731	C	1.071574	0.929937	0.460898
C732	C	1.404907	1.263270	0.794231
H733	H	0.755367	0.617292	0.110480
H734	H	1.088701	0.950626	0.443813
H735	H	1.422034	1.283959	0.777146
H736	H	0.721069	0.578325	0.107967
H737	H	1.054402	0.911658	0.441300
H738	H	1.387736	1.244992	0.774633
H739	H	0.757804	0.578277	0.144774
H740	H	1.091137	0.911610	0.478108
H741	H	1.424471	1.244944	0.811441
C742	C	0.560014	0.596667	0.305511
C743	C	0.893347	0.930000	0.638845
C744	C	1.226680	1.263333	0.972178
H745	H	0.564123	0.565362	0.301403
H746	H	0.897457	0.898695	0.634737
H747	H	1.230790	1.232029	0.968070
H748	H	0.529834	0.604389	0.298907
H749	H	0.863168	0.937722	0.632240
H750	H	1.196501	1.271056	0.965573
H751	H	0.566579	0.604335	0.335705
H752	H	0.899912	0.937668	0.669038
H753	H	1.233246	1.271001	1.002372
H754	H	0.730048	0.688415	0.135769
H755	H	1.063381	1.021748	0.469102
H756	H	1.396715	1.355081	0.802435
H757	H	0.730062	0.744055	0.135772
H758	H	1.063395	1.077389	0.469105
H759	H	1.396728	1.410722	0.802439
C760	C	0.588716	0.479370	0.276795
C761	C	0.922049	0.812703	0.610129
C762	C	1.255383	1.146037	0.943462
H763	H	0.571592	0.458685	0.293887
H764	H	0.904926	0.792018	0.627221
H765	H	1.238259	1.125352	0.960554
H766	H	0.569156	0.497705	0.259595
H767	H	0.902490	0.831038	0.592928
H768	H	1.235823	1.164372	0.926261
H769	H	0.605901	0.497641	0.296393
H770	H	0.939234	0.830974	0.629726
H771	H	1.272568	1.164308	0.963059
H772	H	0.730080	0.829174	0.135782
H773	H	1.063413	1.162507	0.469115
H774	H	1.396747	1.495841	0.802448
C775	C	0.560206	0.127345	0.695630
C776	C	0.893539	0.460678	1.028964
C777	C	1.226873	0.794011	1.362297
H778	H	0.543115	0.110234	0.674931
H779	H	0.876448	0.443568	1.008264
H780	H	1.209782	0.776901	1.341598
H781	H	0.540614	0.144516	0.713922
H782	H	0.873948	0.477850	1.047255
H783	H	1.207281	0.811183	1.380589
H784	H	0.577414	0.107766	0.713942
H785	H	0.910747	0.441099	1.047276
H786	H	1.244080	0.774433	1.380609
H787	H	0.568257	0.744126	0.297311
H788	H	0.901591	1.077460	0.630644
H789	H	1.234924	1.410793	0.963977
H790	H	0.568407	0.135551	0.744571
H791	H	0.901740	0.468884	1.077904
H792	H	1.235073	0.802218	1.411238
H793	H	0.597131	0.164244	0.960401
H794	H	0.930465	0.497577	1.293734
H795	H	1.263798	0.830910	1.627068
C796	C	0.709463	0.276825	0.381318
C797	C	1.042796	0.610159	0.714652
C798	C	1.376130	0.943492	1.047985
H799	H	0.705344	0.272715	0.350016
H800	H	1.038678	0.606049	0.683350
H801	H	1.372011	0.939382	1.016683
H802	H	0.739656	0.270260	0.389020
H803	H	1.072989	0.603594	0.722353
H804	H	1.406323	0.936927	1.055686
H805	H	0.702856	0.307009	0.388994
H806	H	1.036189	0.640343	0.722328
H807	H	1.369523	0.973676	1.055661
C808	C	0.560206	0.127336	0.836390
C809	C	0.893539	0.460670	1.169723
C810	C	1.226873	0.794003	1.503056
H811	H	0.564318	0.131455	0.867692
H812	H	0.897651	0.464788	1.201025
H813	H	1.230985	0.798121	1.534358
H814	H	0.566799	0.097151	0.828719
H815	H	0.900133	0.430484	1.162052
H816	H	1.233466	0.763818	1.495385
H817	H	0.530014	0.133915	0.828685
H818	H	0.863348	0.467248	1.162018
H819	H	1.196681	0.800582	1.495351
C820	C	0.588925	0.156033	1.052224
C821	C	0.922259	0.489367	1.385557
C822	C	1.255592	0.822700	1.718890
H823	H	0.593037	0.160151	1.083526
H824	H	0.926371	0.493484	1.416859
H825	H	1.259704	0.826818	1.750192
H826	H	0.595513	0.125846	1.044553
H827	H	0.928846	0.459180	1.377887
H828	H	1.262179	0.792513	1.711220
H829	H	0.558735	0.162618	1.044518
H830	H	0.892069	0.495952	1.377851
H831	H	1.225402	0.829285	1.711184
H832	H	0.729984	0.297281	0.829706
H833	H	1.063317	0.630614	1.163039
H834	H	1.396650	0.963947	1.496372
