data_functionalizedCrystal
_audit_creation_method	'MofGen! by Chris Wilmer'
_symmetry_space_group_name_H-M	'P1'
_symmetry_Int_Tables_number	1
_symmetry_cell_setting	triclinic
loop_
_symmetry_equiv_pos_as_xyz
  x,y,z
_cell_length_a	19.188933
_cell_length_b	19.188930
_cell_length_c	17.666332
_cell_angle_alpha	89.993235
_cell_angle_beta	89.994846
_cell_angle_gamma	83.145175
loop_
_atom_site_label
_atom_site_type_symbol
_atom_site_fract_x
_atom_site_fract_y
_atom_site_fract_z
O1	O	0.926146	0.087171	-0.062932
O2	O	0.722835	0.098903	-0.062940
O3	O	0.830358	-0.008619	-0.062921
O4	O	0.818624	0.194693	-0.062951
O5	O	0.830344	-0.008615	0.062976
O6	O	0.722821	0.098907	0.062957
O7	O	0.926132	0.087174	0.062965
Cu8	Cu	0.824475	0.093041	0.074456
Cu9	Cu	0.824492	0.093037	-0.074431
O10	O	0.818609	0.194696	0.062946
C11	C	0.696817	0.098525	0.000008
C12	C	0.619313	0.097384	0.000005
C13	C	0.066065	0.089237	-0.068612
C14	C	0.138889	0.090305	-0.068615
C15	C	0.175299	0.090844	0.000011
C16	C	0.138880	0.090297	0.068645
C17	C	0.066058	0.089222	0.068647
N18	N	0.284313	0.132264	0.051087
N19	N	0.353490	0.133287	0.051081
C20	C	0.394707	0.094082	0.000012
N21	N	0.364132	0.053824	-0.051062
N22	N	0.294948	0.052805	-0.051059
C23	C	0.254262	0.092009	0.000018
C24	C	0.510082	0.095782	-0.068621
C25	C	0.582908	0.096846	-0.068621
C26	C	0.582897	0.096845	0.068641
C27	C	0.510073	0.095774	0.068639
C28	C	0.473669	0.095246	0.000006
C29	C	0.829971	-0.034628	0.000030
C30	C	0.828830	-0.112132	0.000036
C31	C	0.952150	0.087553	0.000016
C32	C	1.029655	0.088694	0.000013
C33	C	0.891921	-0.157056	0.000043
C34	C	0.890849	-0.229880	0.000030
C35	C	0.826683	-0.257777	0.000027
C36	C	0.763584	-0.212843	0.000017
C37	C	0.764658	-0.140021	0.000021
N38	N	0.777631	-0.365781	0.042870
N39	N	0.776616	-0.434959	0.042868
C40	C	0.823445	-0.477185	0.000012
N41	N	0.871339	-0.447621	-0.042832
N42	N	0.872357	-0.378436	-0.042826
C43	C	0.825512	-0.336739	0.000022
C44	C	0.885378	-0.601073	0.000004
C45	C	0.884304	-0.673898	-0.000013
C46	C	0.757037	-0.656860	-0.000019
C47	C	0.758113	-0.584037	-0.000010
C48	C	0.822286	-0.556148	0.000005
C49	C	0.818997	0.220705	-0.000006
C50	C	0.820137	0.298210	-0.000018
N51	N	0.824469	0.093043	0.179176
N52	N	0.824504	0.093029	-0.179150
C53	C	0.866719	0.135264	0.781220
C54	C	0.866712	0.135271	0.701973
C55	C	0.824499	0.093029	0.662357
C56	C	0.782276	0.050791	0.701996
C57	C	0.782279	0.050791	0.781242
N58	N	0.822808	0.031869	0.537942
N59	N	0.822809	0.031871	0.462661
C60	C	0.824486	0.093029	0.423593
N61	N	0.826175	0.154186	0.462650
N62	N	0.826178	0.154183	0.537937
C63	C	0.824490	0.093026	0.576428
C64	C	0.866695	0.135277	0.298035
C65	C	0.866683	0.135285	0.218786
C66	C	0.782251	0.050798	0.218811
C67	C	0.782259	0.050796	0.298058
C68	C	0.824485	0.093034	0.337666
H69	H	0.480427	0.095335	0.124521
H70	H	0.168540	0.090751	-0.124499
N71	N	0.176054	0.090866	0.138752
N72	N	0.143531	0.090392	0.200023
H73	H	0.169784	0.090795	0.249539
H74	H	0.901057	0.169683	0.186521
H75	H	0.036430	0.088804	-0.124498
N76	N	0.028873	0.088665	0.138756
N77	N	0.061386	0.089140	0.200026
H78	H	0.035124	0.088747	0.249542
N79	N	0.620088	0.097401	0.138736
N80	N	0.654137	0.147203	0.154043
H81	H	0.680407	0.147594	0.203549
N82	N	0.691498	-0.685359	-0.000031
N83	N	0.690547	-0.750379	-0.000039
H84	H	0.644258	-0.770510	-0.000051
H85	H	0.713280	-0.103444	0.000017
N86	N	0.693660	-0.538154	-0.000013
N87	N	0.636372	-0.563068	-0.000019
H88	H	0.590848	-0.530664	-0.000024
N89	N	0.472903	0.095238	-0.138731
N90	N	0.505427	0.095714	-0.200001
H91	H	0.479172	0.095328	-0.249518
H92	H	0.612553	0.097282	-0.124506
N93	N	0.957475	-0.128581	0.000056
N94	N	1.013803	-0.168705	0.000059
H95	H	1.060102	-0.148594	0.000067
N96	N	0.955292	-0.275788	0.000034
N97	N	0.968899	-0.318320	-0.053032
H98	H	1.014412	-0.350743	-0.053029
N99	N	0.739169	0.007621	0.661546
N100	N	0.701488	-0.030098	0.696943
H101	H	0.671043	-0.060591	0.668376
N102	N	0.698046	-0.241347	0.000007
N103	N	0.697096	-0.306368	0.000003
H104	H	0.650807	-0.326499	-0.000007
H105	H	0.937631	-0.578365	0.000012
H106	H	0.935682	-0.710475	-0.000012
N107	N	0.909854	0.178412	0.821665
N108	N	0.947543	0.216121	0.786266
H109	H	0.978008	0.246595	0.814831
N110	N	0.909852	0.178407	0.661493
N111	N	0.947556	0.216107	0.696866
H112	H	0.978030	0.246567	0.668280
N113	N	0.739149	0.007644	0.821715
N114	N	0.701456	-0.030065	0.786340
H115	H	0.670995	-0.060539	0.814924
N116	N	0.909828	0.178424	0.338487
N117	N	0.947513	0.216139	0.303090
H118	H	0.977976	0.246613	0.331656
N119	N	0.739128	0.007659	0.178343
N120	N	0.739127	0.007668	0.107588
H121	H	0.708668	-0.022798	0.079003
N122	N	0.739135	0.007647	0.338531
N123	N	0.701444	-0.030064	0.303155
H124	H	0.670983	-0.060539	0.331738
