data_functionalizedCrystal
_audit_creation_method	'MofGen! by Chris Wilmer'
_symmetry_space_group_name_H-M	'P1'
_symmetry_Int_Tables_number	1
_symmetry_cell_setting	triclinic
loop_
_symmetry_equiv_pos_as_xyz
  x,y,z
_cell_length_a	12.759395
_cell_length_b	12.594516
_cell_length_c	12.759387
_cell_angle_alpha	89.971765
_cell_angle_beta	89.982772
_cell_angle_gamma	90.017589
loop_
_atom_site_label
_atom_site_type_symbol
_atom_site_fract_x
_atom_site_fract_y
_atom_site_fract_z
Zn1	Zn	1.606225	-0.423645	-0.594022
Zn2	Zn	1.606121	-0.601662	-0.418349
Zn3	Zn	1.430533	-0.423702	-0.418359
Zn4	Zn	1.430511	-0.601587	-0.593989
O5	O	1.518348	-0.512649	-0.506180
O6	O	1.753232	-0.447267	-0.570729
O7	O	1.582795	-0.578110	-0.271330
O8	O	1.453891	-0.274749	-0.441679
O9	O	1.753156	-0.578055	-0.441663
O10	O	1.582971	-0.274707	-0.570738
O11	O	1.453791	-0.447364	-0.271336
O12	O	1.283509	-0.447292	-0.441646
O13	O	1.453854	-0.577927	-0.741014
O14	O	1.283493	-0.577983	-0.570681
O15	O	1.582950	-0.447194	-0.741039
O16	O	1.582774	-0.750597	-0.441631
O17	O	1.453754	-0.750542	-0.570672
C18	C	1.245380	-0.512636	-0.506162
C19	C	1.128603	-0.512656	-0.506179
C20	C	1.128625	-0.648965	-0.640325
C21	C	1.073775	-0.717127	-0.707401
C22	C	0.964054	-0.717140	-0.707414
C23	C	0.909180	-0.648981	-0.640346
C24	C	0.964029	-0.580818	-0.573270
C25	C	1.073754	-0.580815	-0.573262
C26	C	0.964008	-0.444506	-0.439130
C27	C	1.073729	-0.444497	-0.439111
C28	C	0.909133	-0.376347	-0.372062
C29	C	0.963983	-0.308188	-0.304979
C30	C	1.073711	-0.308178	-0.304968
C31	C	1.128579	-0.376334	-0.372034
C32	C	1.518279	-0.789190	-0.506169
C33	C	1.518345	-0.907495	-0.506200
C34	C	1.448165	-0.976757	-0.576336
C35	C	1.422569	-1.047627	-0.480469
C36	C	1.544037	-1.047425	-0.602083
C37	C	1.492699	-0.976807	-0.410282
C38	C	1.614212	-0.976598	-0.531961
C39	C	1.588652	-1.047436	-0.436028
C40	C	1.792381	-0.512663	-0.506198
C41	C	1.909158	-0.512669	-0.506206
C42	C	1.518411	-0.512546	-0.780213
C43	C	1.518438	-0.512502	-0.896990
C44	C	1.518445	-0.235028	-0.506213
C45	C	1.518487	-0.116723	-0.506227
C46	C	1.652844	-0.648574	-1.116408
C47	C	1.719990	-0.716668	-1.061533
C48	C	1.719955	-0.716709	-0.951812
C49	C	1.652765	-0.648650	-0.896962
C50	C	1.585619	-0.580556	-0.951837
C51	C	1.585663	-0.580520	-1.061561
C52	C	1.451292	-0.444408	-0.951865
C53	C	1.451331	-0.444360	-1.061587
C54	C	1.384102	-0.376349	-0.897015
C55	C	1.316960	-0.308247	-0.951890
C56	C	1.316998	-0.308209	-1.061619
C57	C	1.384185	-0.376266	-1.116461
C58	C	1.518345	-0.512675	-0.233212
C59	C	1.518521	-0.512419	-0.116436
H60	H	0.919296	-0.252693	-0.250383
C61	C	1.793897	-0.791524	-1.121868
H62	H	1.784312	-0.781743	-1.195074
H63	H	1.778492	-0.863044	-1.103878
H64	H	1.864490	-0.775948	-1.103883
C65	C	1.573361	-1.089278	-0.711615
H66	H	1.635395	-1.130706	-0.706925
H67	H	1.584933	-1.031064	-0.757553
H68	H	1.517852	-1.131887	-0.737937
H69	H	1.652889	-0.648538	-1.205749
C70	C	0.903717	-0.792070	-0.781241
H71	H	0.952107	-0.832651	-0.821193
H72	H	0.860962	-0.751372	-0.827073
H73	H	0.860867	-0.838416	-0.741008
H74	H	1.652734	-0.648698	-0.807621
H75	H	1.774637	-0.772151	-0.907133
C76	C	0.788489	-0.648991	-0.640365
H77	H	0.763682	-0.699349	-0.689917
H78	H	0.763691	-0.580330	-0.658652
H79	H	0.763636	-0.667321	-0.572535
C80	C	1.384065	-0.376390	-0.776325
H81	H	1.433684	-0.426683	-0.751497
H82	H	1.316253	-0.394798	-0.751499
H83	H	1.402257	-0.307707	-0.751520
C84	C	1.384227	-0.376222	-1.237152
H85	H	1.334620	-0.325917	-1.261981
H86	H	1.366046	-0.444899	-1.261963
H87	H	1.452045	-0.357804	-1.261970
H88	H	1.262255	-0.252844	-0.907223
C89	C	1.243138	-0.233302	-1.121973
H90	H	1.203126	-0.192775	-1.073589
H91	H	1.197361	-0.273995	-1.164776
H92	H	1.283366	-0.186906	-1.164775
H93	H	1.118466	-0.772619	-0.762008
C94	C	0.788443	-0.376364	-0.372071
H95	H	0.763633	-0.426728	-0.421615
H96	H	0.763636	-0.307707	-0.390360
H97	H	0.763600	-0.394691	-0.304235
C98	C	1.249316	-0.648949	-0.640318
H99	H	1.274141	-0.699295	-0.689872
H100	H	1.274115	-0.667258	-0.572487
H101	H	1.274150	-0.580279	-0.658617
H102	H	1.118364	-0.252664	-0.250354
H103	H	1.341562	-1.078849	-0.458703
C104	C	1.463283	-0.935083	-0.300728
H105	H	1.463373	-0.859653	-0.301397
H106	H	1.512869	-0.959847	-0.250874
H107	H	1.395439	-0.959995	-0.282336
C108	C	1.249269	-0.376323	-0.372021
H109	H	1.274081	-0.325972	-0.322465
H110	H	1.274121	-0.358008	-0.439851
H111	H	1.274066	-0.444988	-0.353722
H112	H	1.388709	-0.945722	-0.635562
C113	C	1.668910	-1.089110	-0.355836
H114	H	1.720283	-1.130558	-0.390898
H115	H	1.634076	-1.131648	-0.305138
H116	H	1.701897	-1.030826	-0.322011
C117	C	1.723637	-0.934456	-0.561407
H118	H	1.741745	-0.958602	-0.629574
H119	H	1.773689	-0.959734	-0.512275
H120	H	1.722983	-0.859035	-0.560557
