data_functionalizedCrystal
_audit_creation_method	'MofGen! by Chris Wilmer'
_symmetry_space_group_name_H-M	'P1'
_symmetry_Int_Tables_number	1
_symmetry_cell_setting	triclinic
loop_
_symmetry_equiv_pos_as_xyz
  x,y,z
_cell_length_a	33.359482
_cell_length_b	33.359897
_cell_length_c	33.359725
_cell_angle_alpha	90.003509
_cell_angle_beta	59.997361
_cell_angle_gamma	119.999857
loop_
_atom_site_label
_atom_site_type_symbol
_atom_site_fract_x
_atom_site_fract_y
_atom_site_fract_z
O1	O	0.353555	-0.275022	-0.011918
O2	O	0.271476	-0.216723	0.011874
O3	O	0.353556	-0.216728	-0.070210
O4	O	0.271475	-0.275017	0.070166
O5	O	0.286882	-0.283397	-0.070209
O6	O	0.204802	-0.283391	0.011875
O7	O	0.286881	-0.341691	-0.011917
Cu8	Cu	0.239754	-0.318629	-0.000021
Cu9	Cu	0.318603	-0.239785	-0.000022
O10	O	0.204801	-0.341686	0.070167
C11	C	0.117469	-0.146357	0.028824
C12	C	0.141365	-0.098114	0.029163
C13	C	0.044880	-0.146360	0.028821
C14	C	0.068885	-0.098117	0.029159
C15	C	0.117467	-0.073770	0.028821
C16	C	0.068888	-0.170595	0.029162
C17	C	0.123174	-0.219108	0.022937
C18	C	0.149743	-0.242114	0.019221
C19	C	0.199410	-0.217308	0.017357
C20	C	0.228221	-0.242249	0.013326
C21	C	0.222512	-0.169498	0.019213
C22	C	0.195944	-0.146494	0.022931
C23	C	0.146277	-0.171300	0.024791
C24	C	0.196108	0.004686	0.022931
C25	C	0.222831	0.054260	0.019212
C26	C	0.199892	0.079121	0.017345
C27	C	0.228866	0.132873	0.013310
C28	C	0.150225	0.054413	0.019200
C29	C	0.123501	0.004842	0.022921
C30	C	0.146445	-0.020020	0.024785
C31	C	-0.027682	-0.219115	0.022930
C32	C	-0.073533	-0.242121	0.019205
C33	C	-0.096532	-0.217319	0.017337
C34	C	-0.146250	-0.242263	0.013302
C35	C	-0.073684	-0.169510	0.019191
C36	C	-0.027833	-0.146502	0.022914
C37	C	-0.004834	-0.171306	0.024784
O38	O	-0.279113	-0.341710	-0.011933
O39	O	-0.162527	-0.283409	0.011857
O40	O	-0.162523	-0.283417	-0.070226
O41	O	-0.279117	-0.341702	0.070150
O42	O	-0.162525	-0.216747	-0.070229
O43	O	-0.162530	-0.216739	0.011855
O44	O	-0.279116	-0.275040	-0.011936
Cu45	Cu	-0.220823	-0.239802	-0.000041
Cu46	Cu	-0.220820	-0.318647	-0.000037
O47	O	-0.279120	-0.275032	0.070147
C48	C	0.440887	-0.146362	-0.367169
C49	C	0.489471	-0.098121	-0.391404
C50	C	0.440887	-0.146362	-0.294579
C51	C	0.489471	-0.098121	-0.318925
C52	C	0.513479	-0.073776	-0.367168
C53	C	0.416990	-0.170597	-0.318926
C54	C	0.362242	-0.219111	-0.366981
C55	C	0.335517	-0.242117	-0.389830
C56	C	0.358456	-0.217314	-0.437632
C57	C	0.329480	-0.242254	-0.462409
C58	C	0.408126	-0.169505	-0.462593
C59	C	0.434851	-0.146502	-0.439745
C60	C	0.411907	-0.171305	-0.391939
C61	C	0.586046	0.004675	-0.439920
C62	C	0.631904	0.054247	-0.462926
C63	C	0.654902	0.079110	-0.438121
C64	C	0.704623	0.132860	-0.463063
C65	C	0.632052	0.054404	-0.390311
C66	C	0.586198	0.004834	-0.367307
C67	C	0.563195	-0.020028	-0.392111
C68	C	0.362242	-0.219111	-0.216126
C69	C	0.335513	-0.242115	-0.166549
C70	C	0.358452	-0.217311	-0.141686
C71	C	0.329476	-0.242252	-0.087934
C72	C	0.408117	-0.169505	-0.166390
C73	C	0.434846	-0.146500	-0.215964
C74	C	0.411907	-0.171305	-0.240830
C75	C	0.513469	-0.412073	-0.028888
C76	C	0.489461	-0.460315	-0.029228
C77	C	0.440880	-0.412069	-0.028885
C78	C	0.416981	-0.460312	-0.029225
C79	C	0.440877	-0.484660	-0.028888
C80	C	0.489463	-0.387835	-0.029226
C81	C	0.586036	-0.339323	-0.022998
C82	C	0.631893	-0.316318	-0.019282
C83	C	0.654891	-0.341123	-0.017418
C84	C	0.704610	-0.316183	-0.013386
C85	C	0.632039	-0.388933	-0.019276
C86	C	0.586186	-0.411936	-0.022995
C87	C	0.563185	-0.387131	-0.024854
C88	C	0.435173	-0.563114	-0.023000
C89	C	0.408603	-0.612688	-0.019283
C90	C	0.358935	-0.637549	-0.017416
C91	C	0.330123	-0.691300	-0.013383
C92	C	0.335832	-0.612841	-0.019271
C93	C	0.362401	-0.563270	-0.022990
C94	C	0.412069	-0.538409	-0.024853
C95	C	0.435180	-0.339316	-0.022992
C96	C	0.408609	-0.316310	-0.019266
C97	C	0.358941	-0.341112	-0.017399
C98	C	0.330131	-0.316168	-0.013364
C99	C	0.335835	-0.388920	-0.019255
C100	C	0.362402	-0.411928	-0.022979
C101	C	0.412074	-0.387124	-0.024847
O102	O	0.286869	0.290972	-0.011933
O103	O	0.204790	0.150598	0.011856
O104	O	0.286873	0.232673	-0.070226
O105	O	0.204786	0.208897	0.070150
O106	O	0.353545	0.232676	-0.070223
O107	O	0.271462	0.150601	0.011859
O108	O	0.353540	0.290974	-0.011930
Cu109	Cu	0.318588	0.220788	-0.000035
Cu110	Cu	0.239742	0.220785	-0.000039
O111	O	0.271457	0.208899	0.070153
O112	O	0.837491	0.290955	-0.495825
O113	O	0.720897	0.150584	-0.437535
O114	O	0.720900	0.232667	-0.437531
O115	O	0.837488	0.208873	-0.495830
O116	O	0.720902	0.232668	-0.504203
O117	O	0.720899	0.150586	-0.504207
O118	O	0.837492	0.290957	-0.562497
Cu119	Cu	0.779196	0.220772	-0.539440
Cu120	Cu	0.779194	0.220770	-0.460592
O121	O	0.837489	0.208875	-0.562502
O122	O	0.271470	-0.275022	-0.562502
O123	O	0.353555	-0.216729	-0.504210
O124	O	0.271474	-0.216725	-0.504206
O125	O	0.353552	-0.275025	-0.562506
O126	O	0.204801	-0.283393	-0.437535
O127	O	0.286883	-0.283396	-0.437539
O128	O	0.204797	-0.341689	-0.495830
Cu129	Cu	0.239753	-0.318630	-0.460597
Cu130	Cu	0.318600	-0.239788	-0.539444
O131	O	0.286879	-0.341693	-0.495834
C132	C	0.044876	-0.484640	0.367125
C133	C	0.068883	-0.460295	0.391361
C134	C	0.117468	-0.412053	0.294537
C135	C	0.141365	-0.387819	0.318883
C136	C	0.117467	-0.412054	0.367126
C137	C	0.068884	-0.460294	0.318882
C138	C	-0.027690	-0.563091	0.366935
C139	C	-0.073548	-0.612663	0.389783
C140	C	-0.096547	-0.637526	0.437585
C141	C	-0.146267	-0.691275	0.462361
C142	C	-0.073697	-0.612820	0.462547
C143	C	-0.027843	-0.563250	0.439700
C144	C	-0.004840	-0.538387	0.391894
C145	C	0.123168	-0.412244	0.439879
C146	C	0.149736	-0.389395	0.462886
C147	C	0.199405	-0.341596	0.438083
C148	C	0.228216	-0.316821	0.463025
C149	C	0.222511	-0.316635	0.390272
C150	C	0.195943	-0.339481	0.367267
C151	C	0.146274	-0.387285	0.392071
C152	C	0.123171	-0.412241	0.216082
C153	C	0.149744	-0.389395	0.166505
C154	C	0.199413	-0.341595	0.141643
C155	C	0.228224	-0.316819	0.087891
C156	C	0.222517	-0.316637	0.166348
C157	C	0.195948	-0.339482	0.215922
C158	C	0.146275	-0.387284	0.240787
C159	C	0.117487	-0.073804	-0.367188
C160	C	0.141386	-0.098150	-0.391423
C161	C	0.044896	-0.146388	-0.294598
C162	C	0.068906	-0.170624	-0.318943
C163	C	0.117490	-0.146391	-0.367186
C164	C	0.068902	-0.098147	-0.318945
C165	C	0.123184	0.004648	-0.367001
C166	C	0.149751	0.054221	-0.389852
C167	C	0.199420	0.079082	-0.437654
C168	C	0.228229	0.132831	-0.462432
C169	C	0.222527	0.054375	-0.462614
C170	C	0.195961	0.004805	-0.439766
C171	C	0.146291	-0.020056	-0.391959
C172	C	0.196138	-0.146204	-0.439938
C173	C	0.222866	-0.169054	-0.462943
C174	C	0.199928	-0.216853	-0.438138
C175	C	0.228906	-0.241630	-0.463079
C176	C	0.150258	-0.241812	-0.390328
C177	C	0.123531	-0.218965	-0.367324
C178	C	0.146473	-0.171161	-0.392129
C179	C	-0.027673	-0.146197	-0.216145
C180	C	-0.073527	-0.169042	-0.166568
C181	C	-0.096524	-0.216841	-0.141704
C182	C	-0.146245	-0.241615	-0.087952
C183	C	-0.073671	-0.241800	-0.166407
C184	C	-0.027817	-0.218957	-0.215982
C185	C	-0.004820	-0.171156	-0.240848
C186	C	-0.559134	-0.412061	0.367109
C187	C	-0.583029	-0.460302	0.391345
C188	C	-0.486539	-0.412063	0.294520
C189	C	-0.510545	-0.460303	0.318867
C190	C	-0.559129	-0.484648	0.367110
C191	C	-0.510549	-0.387827	0.318865
C192	C	-0.564840	-0.339311	0.366919
C193	C	-0.591411	-0.316305	0.389768
C194	C	-0.641080	-0.341108	0.437570
C195	C	-0.669894	-0.316166	0.462346
C196	C	-0.664183	-0.388916	0.462531
C197	C	-0.637612	-0.411920	0.439684
C198	C	-0.587943	-0.387118	0.391878
C199	C	-0.637772	-0.563098	0.439863
C200	C	-0.664495	-0.612670	0.462870
C201	C	-0.641553	-0.637533	0.438066
C202	C	-0.670527	-0.691283	0.463008
C203	C	-0.591884	-0.612828	0.390255
C204	C	-0.565161	-0.563258	0.367251
C205	C	-0.588107	-0.538395	0.392054
C206	C	-0.413974	-0.339315	0.216065
C207	C	-0.368120	-0.316313	0.166488
C208	C	-0.345119	-0.341117	0.141625
C209	C	-0.295398	-0.316177	0.087873
C210	C	-0.367967	-0.388923	0.166331
C211	C	-0.413821	-0.411927	0.215905
C212	C	-0.436823	-0.387121	0.240770
C213	C	0.513457	0.249581	-0.367175
C214	C	0.489450	0.249914	-0.391411
C215	C	0.440870	0.249593	-0.294590
C216	C	0.416972	0.249926	-0.318937
C217	C	0.440868	0.249578	-0.367178
C218	C	0.489451	0.249929	-0.318933
C219	C	0.586021	0.243693	-0.366982
C220	C	0.631877	0.239972	-0.389828
C221	C	0.654874	0.238098	-0.437629
C222	C	0.704592	0.234061	-0.462402
C223	C	0.632024	0.239949	-0.462591
C224	C	0.586172	0.243672	-0.439746
C225	C	0.563171	0.245542	-0.391942
C226	C	0.435164	0.243672	-0.439929
C227	C	0.408596	0.239948	-0.462936
C228	C	0.358928	0.238086	-0.438134
C229	C	0.330117	0.234046	-0.463076
C230	C	0.335825	0.239952	-0.390325
C231	C	0.362394	0.243678	-0.367321
C232	C	0.412061	0.245536	-0.392122
C233	C	0.435169	0.243718	-0.216136
C234	C	0.408599	0.240003	-0.166561
C235	C	0.358931	0.238141	-0.141699
C236	C	0.330122	0.234117	-0.087949
C237	C	0.335827	0.239990	-0.166405
C238	C	0.362393	0.243703	-0.215978
C239	C	0.412065	0.245567	-0.240841
O240	O	0.353571	0.290929	-0.562523
O241	O	0.271485	0.150556	-0.504233
O242	O	0.353562	0.232633	-0.504225
O243	O	0.271494	0.208852	-0.562530
O244	O	0.286886	0.232635	-0.437555
O245	O	0.204809	0.150558	-0.437563
O246	O	0.286895	0.290931	-0.495853
Cu247	Cu	0.239764	0.220745	-0.460620
Cu248	Cu	0.318616	0.220742	-0.539465
O249	O	0.204818	0.208854	-0.495860
C250	C	0.117462	0.191994	0.367105
C251	C	0.068881	0.191659	0.391338
C252	C	0.117461	0.191980	0.294516
C253	C	0.068880	0.191645	0.318860
C254	C	0.044874	0.191993	0.367101
C255	C	0.141358	0.191645	0.318864
C256	C	0.196104	0.197884	0.366920
C257	C	0.222828	0.201607	0.389770
C258	C	0.199891	0.203481	0.437570
C259	C	0.228867	0.207519	0.462348
C260	C	0.150225	0.201629	0.462529
C261	C	0.123500	0.197904	0.439680
C262	C	0.146442	0.196034	0.391876
C263	C	-0.027687	0.197898	0.439848
C264	C	-0.073541	0.201620	0.462851
C265	C	-0.096539	0.203481	0.438046
C266	C	-0.146256	0.207519	0.462984
C267	C	-0.073691	0.201615	0.390237
C268	C	-0.027840	0.197890	0.367236
C269	C	-0.004838	0.196034	0.392041
C270	C	0.196102	0.197856	0.216066
C271	C	0.222829	0.201571	0.166491
C272	C	0.199891	0.203432	0.141626
C273	C	0.228865	0.207456	0.087875
C274	C	0.150229	0.201582	0.166328
C275	C	0.123501	0.197869	0.215901
C276	C	0.146440	0.196006	0.240768
H277	H	-0.009231	-0.107574	0.024424
C278	C	0.434015	0.237974	-0.139385
C279	C	0.452495	0.277711	-0.116529
C280	C	0.477908	0.275680	-0.089350
C281	C	0.484841	0.233913	-0.085026
C282	C	0.466360	0.194173	-0.107882
C283	C	0.440947	0.196204	-0.135062
H284	H	0.447363	0.308633	-0.119730
H285	H	0.491588	0.305098	-0.072430
H286	H	0.503653	0.232409	-0.064905
H287	H	0.471492	0.163252	-0.104682
H288	H	0.427267	0.166786	-0.151982
H289	H	-0.572597	-0.277381	0.369441
C290	C	0.068868	0.195864	0.467133
C291	C	0.013766	0.151014	0.476979
C292	C	-0.040867	0.148972	0.504434
C293	C	-0.040397	0.191780	0.522041
C294	C	0.014708	0.236633	0.512195
C295	C	0.069341	0.238675	0.484741
H296	H	0.013416	0.119321	0.463945
H297	H	-0.081660	0.115768	0.511723
H298	H	-0.080840	0.190268	0.542365
H299	H	0.015057	0.268325	0.525229
H300	H	0.110133	0.271879	0.477452
C301	C	-0.635846	-0.486712	0.444892
C302	C	-0.633466	-0.505506	0.485279
C303	C	-0.686282	-0.531919	0.538822
C304	C	-0.741478	-0.539538	0.551980
C305	C	-0.743859	-0.520744	0.511592
C306	C	-0.691043	-0.494331	0.458048
H307	H	-0.592605	-0.499866	0.475540
H308	H	-0.684519	-0.545832	0.568720
H309	H	-0.780575	-0.559090	0.591616
H310	H	-0.784720	-0.526383	0.521331
H311	H	-0.692807	-0.480418	0.428151
C312	C	0.221378	-0.022371	-0.467218
C313	C	0.239866	-0.045222	-0.445969
C314	C	0.265285	-0.072397	-0.473421
C315	C	0.272216	-0.076722	-0.522122
C316	C	0.253727	-0.053870	-0.543373
C317	C	0.228308	-0.026695	-0.515921
H318	H	0.234736	-0.042021	-0.409916
H319	H	0.278972	-0.089313	-0.457690
H320	H	0.291033	-0.096838	-0.542444
H321	H	0.258857	-0.057071	-0.579426
H322	H	0.214621	-0.009779	-0.531652
H323	H	-0.490448	-0.479848	0.299319
H324	H	0.567582	-0.450863	-0.024508
C325	C	0.657321	0.237884	-0.515174
C326	C	0.682168	0.280674	-0.557596
C327	C	0.707463	0.278610	-0.610179
C328	C	0.707910	0.233755	-0.620340
C329	C	0.683062	0.190962	-0.577917
C330	C	0.657767	0.193026	-0.525334
H331	H	0.681838	0.313882	-0.550075
H332	H	0.725857	0.310289	-0.641583
H333	H	0.726634	0.232227	-0.659265
H334	H	0.683392	0.157754	-0.585438
H335	H	0.639373	0.161347	-0.493930
C336	C	0.221338	0.195812	0.243417
C337	C	0.228220	0.154034	0.247876
C338	C	0.253462	0.151996	0.275225
C339	C	0.271822	0.191737	0.298114
C340	C	0.264941	0.233518	0.293655
C341	C	0.239699	0.235556	0.266306
H342	H	0.214627	0.124613	0.230932
H343	H	0.258555	0.121067	0.278526
H344	H	0.290508	0.190229	0.318359
H345	H	0.278534	0.262940	0.310600
H346	H	0.234606	0.266485	0.263006
C347	C	0.516618	-0.071711	-0.292524
C348	C	0.578182	-0.052919	-0.313704
C349	C	0.605329	-0.026507	-0.287305
C350	C	0.570912	-0.018888	-0.239726
C351	C	0.509345	-0.037681	-0.218543
C352	C	0.482198	-0.064093	-0.244941
H353	H	0.603662	-0.058558	-0.348928
H354	H	0.650905	-0.012595	-0.302987
H355	H	0.591008	0.000664	-0.220184
H356	H	0.483865	-0.032041	-0.183319
H357	H	0.436622	-0.078005	-0.229260
C358	C	-0.510199	-0.312027	0.314334
C359	C	-0.455180	-0.302314	0.304162
C360	C	-0.400541	-0.275031	0.251575
C361	C	-0.400923	-0.257461	0.209160
C362	C	-0.455945	-0.267173	0.219331
C363	C	-0.510583	-0.294456	0.271918
H364	H	-0.454895	-0.315322	0.335561
H365	H	-0.359811	-0.267842	0.244046
H366	H	-0.360476	-0.237264	0.170233
H367	H	-0.456229	-0.254166	0.187932
H368	H	-0.551314	-0.301645	0.279447
H369	H	0.650471	0.238457	-0.369498
C370	C	-0.002704	-0.536071	0.467151
C371	C	0.022022	-0.554152	0.484759
C372	C	0.047163	-0.526971	0.512209
C373	C	0.047578	-0.481710	0.522050
C374	C	0.022851	-0.463627	0.504441
C375	C	-0.002290	-0.490807	0.476992
H376	H	0.021716	-0.587659	0.477474
H377	H	0.065468	-0.540358	0.525244
H378	H	0.066189	-0.461590	0.542370
H379	H	0.023157	-0.430120	0.511726
H380	H	-0.020595	-0.477421	0.463957
H381	H	0.131551	0.203155	0.501453
C382	C	-0.718826	-0.416201	0.515117
C383	C	-0.720359	-0.394826	0.556375
C384	C	-0.775000	-0.422113	0.608960
C385	C	-0.828108	-0.470775	0.620287
C386	C	-0.826577	-0.492152	0.579027
C387	C	-0.771936	-0.464865	0.526442
H388	H	-0.681044	-0.358802	0.547992
H389	H	-0.776134	-0.406288	0.639503
H390	H	-0.868557	-0.490974	0.659213
H391	H	-0.865893	-0.528176	0.587411
H392	H	-0.770802	-0.480690	0.495900
H393	H	0.567321	-0.015567	-0.460121
C394	C	0.068901	-0.246410	-0.314734
C395	C	0.069375	-0.264011	-0.272398
C396	C	0.014746	-0.291454	-0.219806
C397	C	-0.040357	-0.301295	-0.209550
C398	C	-0.040833	-0.283693	-0.251887
C399	C	0.013796	-0.256251	-0.304479
H400	H	0.110167	-0.256727	-0.279989
H401	H	0.015099	-0.304484	-0.188466
H402	H	-0.080796	-0.321610	-0.170618
H403	H	-0.081625	-0.290978	-0.244296
H404	H	0.013443	-0.243221	-0.335820
C405	C	0.277499	-0.141599	-0.515531
C406	C	0.277034	-0.123984	-0.557868
C407	C	0.331668	-0.096533	-0.610457
C408	C	0.386768	-0.086696	-0.620709
C409	C	0.387235	-0.104311	-0.578371
C410	C	0.332601	-0.131762	-0.525782
H411	H	0.236244	-0.131266	-0.550280
H412	H	0.331322	-0.083493	-0.641798
H413	H	0.427211	-0.066375	-0.659638
H414	H	0.428025	-0.097029	-0.585959
H415	H	0.332947	-0.144802	-0.494441
C416	C	-0.098968	-0.294384	-0.139057
C417	C	-0.161596	-0.335640	-0.116161
C418	C	-0.186895	-0.388224	-0.088810
C419	C	-0.149566	-0.399552	-0.084355
C420	C	-0.086933	-0.358295	-0.107252
C421	C	-0.061634	-0.305712	-0.134603
H422	H	-0.189234	-0.327255	-0.119458
H423	H	-0.233260	-0.418765	-0.071860
H424	H	-0.168293	-0.438478	-0.064108
H425	H	-0.059296	-0.366680	-0.103955
H426	H	-0.015269	-0.275171	-0.151552
H427	H	-0.573206	-0.633079	0.370063
H428	H	-0.490486	-0.348203	0.299307
C429	C	0.068532	-0.464825	0.243431
C430	C	0.015418	-0.476158	0.247885
C431	C	-0.039217	-0.528744	0.275233
C432	C	-0.040738	-0.569997	0.298127
C433	C	0.012379	-0.558665	0.293674
C434	C	0.067014	-0.506079	0.266326
H435	H	0.016542	-0.445618	0.230937
H436	H	-0.078537	-0.537132	0.278529
H437	H	-0.081182	-0.608924	0.318371
H438	H	0.011255	-0.589205	0.310622
H439	H	0.106334	-0.497691	0.263030
C440	C	0.364158	0.250662	-0.292532
C441	C	0.308970	0.208631	-0.284926
C442	C	0.256156	0.209364	-0.258521
C443	C	0.258531	0.252129	-0.239722
C444	C	0.313722	0.294163	-0.247327
C445	C	0.366536	0.293430	-0.273732
H446	H	0.307209	0.176971	-0.298843
H447	H	0.215300	0.178247	-0.252892
H448	H	0.219436	0.252671	-0.220176
H449	H	0.315483	0.325823	-0.233410
H450	H	0.407392	0.324547	-0.279362
H451	H	0.567570	0.245180	-0.460072
C452	C	0.560739	-0.312034	-0.025051
C453	C	0.498111	-0.333402	0.014686
C454	C	0.472811	-0.306115	0.012637
C455	C	0.510139	-0.257460	-0.029147
C456	C	0.572771	-0.236089	-0.068887
C457	C	0.598071	-0.263377	-0.066839
H458	H	0.470476	-0.369422	0.045620
H459	H	0.426447	-0.321935	0.042056
H460	H	0.491411	-0.237260	-0.030664
H461	H	0.600407	-0.200070	-0.099822
H462	H	0.644435	-0.247557	-0.096257
H463	H	0.262976	0.074625	-0.501540
H464	H	-0.008960	-0.239316	0.024455
C465	C	0.068872	0.195832	0.243074
C466	C	0.013768	0.150993	0.288340
C467	C	-0.040861	0.148957	0.315513
C468	C	-0.040387	0.191760	0.297420
C469	C	0.014719	0.236602	0.252153
C470	C	0.069348	0.238638	0.224980
H471	H	0.013415	0.119305	0.301735
H472	H	-0.081654	0.115762	0.349023
H473	H	-0.080827	0.190253	0.317535
H474	H	0.015072	0.268290	0.238758
H475	H	0.110141	0.271833	0.191470
C476	C	0.434028	-0.263722	-0.017227
C477	C	0.494444	-0.221389	-0.060038
C478	C	0.519861	-0.168800	-0.057996
C479	C	0.484862	-0.158543	-0.013143
C480	C	0.424443	-0.200877	0.029670
C481	C	0.399026	-0.253466	0.027628
H482	H	0.520356	-0.228981	-0.093243
H483	H	0.564588	-0.137463	-0.089689
H484	H	0.503677	-0.119614	-0.011632
H485	H	0.398531	-0.193285	0.062876
H486	H	0.354299	-0.284804	0.059322
H487	H	-0.009238	0.196371	0.328310
C488	C	0.281195	-0.416206	-0.017202
C489	C	0.281579	-0.433777	-0.060001
C490	C	0.226941	-0.461060	-0.057951
C491	C	0.171921	-0.470772	-0.013101
C492	C	0.171536	-0.453201	0.029701
C493	C	0.226173	-0.425918	0.027651
H494	H	0.322310	-0.426588	-0.093204
H495	H	0.227227	-0.474067	-0.089636
H496	H	0.131475	-0.490969	-0.011584
H497	H	0.130804	-0.460390	0.062904
H498	H	0.225887	-0.412911	0.059336
C499	C	0.336989	-0.536092	-0.025030
C500	C	0.318503	-0.513234	0.014705
C501	C	0.293090	-0.486057	0.012667
C502	C	0.286163	-0.481737	-0.029106
C503	C	0.304650	-0.504595	-0.068843
C504	C	0.330063	-0.531772	-0.066805
H505	H	0.323630	-0.516432	0.045630
H506	H	0.279405	-0.469135	0.042083
H507	H	0.267351	-0.461618	-0.030615
H508	H	0.299523	-0.501397	-0.099768
H509	H	0.343749	-0.548694	-0.096222
H510	H	0.343584	-0.450857	-0.024487
C511	C	0.277152	-0.264052	0.362986
C512	C	0.276771	-0.221635	0.345419
C513	C	0.331411	-0.169052	0.318131
C514	C	0.386432	-0.158885	0.308411
C515	C	0.386815	-0.201303	0.325978
C516	C	0.332175	-0.253886	0.353266
H517	H	0.236039	-0.229160	0.352615
H518	H	0.331127	-0.137652	0.305127
H519	H	0.426880	-0.119960	0.288211
H520	H	0.427547	-0.193777	0.318783
H521	H	0.332459	-0.285286	0.366271
H522	H	0.048782	-0.479839	0.431003
H523	H	0.214764	-0.319159	0.236036
C524	C	-0.098680	-0.639838	0.362328
C525	C	-0.123395	-0.621751	0.344710
C526	C	-0.148532	-0.648929	0.317257
C527	C	-0.148955	-0.694194	0.307422
C528	C	-0.124239	-0.712284	0.325041
C529	C	-0.099102	-0.685106	0.352494
H530	H	-0.123082	-0.588240	0.351990
H531	H	-0.166828	-0.635537	0.304215
H532	H	-0.167563	-0.714313	0.287100
H533	H	-0.124552	-0.745795	0.317761
H534	H	-0.080806	-0.698498	0.365536
C535	C	0.277457	0.203645	0.362319
C536	C	0.276983	0.160837	0.344707
C537	C	0.331612	0.162872	0.317258
C538	C	0.386714	0.207714	0.307420
C539	C	0.387190	0.250525	0.325032
C540	C	0.332561	0.248490	0.352481
H541	H	0.236192	0.127639	0.351990
H542	H	0.331259	0.131180	0.304221
H543	H	0.427153	0.209220	0.287100
H544	H	0.427982	0.283723	0.317749
H545	H	0.332914	0.280182	0.365518
C546	C	0.124321	-0.416852	0.515474
C547	C	0.117403	-0.465547	0.526715
C548	C	0.091992	-0.493000	0.579303
C549	C	0.073497	-0.471758	0.620651
C550	C	0.080414	-0.423061	0.609411
C551	C	0.105826	-0.395608	0.556823
H552	H	0.131095	-0.481274	0.496106
H553	H	0.086871	-0.529049	0.587623
H554	H	0.054686	-0.492081	0.659580
H555	H	0.066723	-0.407334	0.640020
H556	H	0.110946	-0.359559	0.548503
C557	C	0.516630	-0.071713	-0.444956
C558	C	0.538219	-0.092897	-0.485338
C559	C	0.565384	-0.066487	-0.538889
C560	C	0.570960	-0.018894	-0.552059
C561	C	0.549371	0.002292	-0.511676
C562	C	0.522206	-0.024117	-0.458124
H563	H	0.534091	-0.128130	-0.475590
H564	H	0.581366	-0.082171	-0.568783
H565	H	0.591069	0.000656	-0.591700
H566	H	0.553498	0.037525	-0.521423
H567	H	0.506224	-0.008434	-0.428230
H568	H	-0.008965	-0.542848	0.328010
C569	C	0.657027	-0.263732	-0.017237
C570	C	0.681742	-0.221399	-0.060038
C571	C	0.706881	-0.168810	-0.057996
C572	C	0.707304	-0.158554	-0.013153
C573	C	0.682588	-0.200887	0.029652
C574	C	0.657449	-0.253476	0.027610
H575	H	0.681430	-0.228991	-0.093237
H576	H	0.725177	-0.137472	-0.089683
H577	H	0.725913	-0.119624	-0.011641
H578	H	0.682900	-0.193295	0.062850
H579	H	0.639153	-0.284814	0.059297
H580	H	0.082729	-0.239312	0.024457
H581	H	-0.656458	-0.542855	0.460063
H582	H	0.343558	-0.239311	-0.328055
C583	C	0.364177	-0.224143	-0.292521
C584	C	0.366558	-0.264530	-0.273731
C585	C	0.313746	-0.318074	-0.247327
C586	C	0.258554	-0.331230	-0.239714
C587	C	0.256171	-0.290843	-0.258505
C588	C	0.308982	-0.237299	-0.284909
H589	H	0.407416	-0.254792	-0.279366
H590	H	0.315511	-0.347971	-0.233417
H591	H	0.219460	-0.370867	-0.220169
H592	H	0.215312	-0.300581	-0.252870
H593	H	0.307217	-0.207401	-0.298819
C594	C	0.489803	0.245723	-0.467214
C595	C	0.489419	0.202924	-0.484783
C596	C	0.544055	0.204971	-0.512067
C597	C	0.599076	0.249818	-0.521782
C598	C	0.599462	0.292621	-0.504213
C599	C	0.544825	0.290574	-0.476929
H600	H	0.448687	0.169722	-0.477591
H601	H	0.543769	0.173285	-0.525073
H602	H	0.639521	0.251334	-0.541980
H603	H	0.640194	0.325822	-0.511404
H604	H	0.545112	0.322260	-0.463923
C605	C	0.433358	-0.142219	-0.515178
C606	C	0.440239	-0.093558	-0.526504
C607	C	0.465475	-0.066270	-0.579088
C608	C	0.483830	-0.087643	-0.620347
C609	C	0.476950	-0.136307	-0.609023
C610	C	0.451714	-0.163595	-0.556438
H611	H	0.426651	-0.077734	-0.495960
H612	H	0.470568	-0.030245	-0.587471
H613	H	0.502511	-0.067443	-0.659274
H614	H	0.490537	-0.152131	-0.639567
H615	H	0.446621	-0.199619	-0.548056
H616	H	0.343575	0.245202	-0.236091
C617	C	0.277462	0.081436	0.017170
C618	C	0.279070	0.104290	0.056906
C619	C	0.333701	0.131471	0.054864
C620	C	0.386726	0.135797	0.013086
C621	C	0.385120	0.112942	-0.026653
C622	C	0.330489	0.085761	-0.024611
H623	H	0.239816	0.101088	0.087835
H624	H	0.334889	0.148390	0.084281
H625	H	0.427167	0.155918	0.011574
H626	H	0.424374	0.116144	-0.057582
H627	H	0.329300	0.068842	-0.054028
H628	H	0.131553	0.203100	0.146078
C629	C	0.433355	-0.142217	-0.139040
C630	C	0.451713	-0.163591	-0.116145
C631	C	0.476951	-0.136306	-0.088795
C632	C	0.483831	-0.087645	-0.084340
C633	C	0.465472	-0.066268	-0.107236
C634	C	0.440235	-0.093554	-0.134586
H635	H	0.446621	-0.199615	-0.119442
H636	H	0.490541	-0.152131	-0.071846
H637	H	0.502513	-0.067447	-0.064094
H638	H	0.470565	-0.030245	-0.103939
H639	H	0.426645	-0.077729	-0.151535
H640	H	0.263263	0.203075	0.146383
C641	C	0.041758	-0.071748	-0.292520
C642	C	0.076183	-0.024177	-0.284899
C643	C	0.049040	0.002219	-0.258465
C644	C	-0.012528	-0.018956	-0.239652
C645	C	-0.046957	-0.066529	-0.247273
C646	C	-0.019814	-0.092925	-0.273707
H647	H	0.121762	-0.008500	-0.298826
H648	H	0.074526	0.037436	-0.252824
H649	H	-0.032621	0.000584	-0.220085
H650	H	-0.092536	-0.082206	-0.233347
H651	H	-0.045301	-0.128142	-0.279348
C652	C	-0.098982	-0.142223	0.017137
C653	C	-0.061653	-0.093566	-0.024647
C654	C	-0.086953	-0.066281	-0.026699
C655	C	-0.149584	-0.087653	0.013032
C656	C	-0.186917	-0.136312	0.054819
C657	C	-0.161616	-0.163597	0.056871
H658	H	-0.015286	-0.077743	-0.054061
H659	H	-0.059317	-0.030260	-0.057632
H660	H	-0.168313	-0.067455	0.011513
H661	H	-0.233284	-0.152135	0.084233
H662	H	-0.189253	-0.199618	0.087804
H663	H	0.377885	-0.479856	-0.029767
H664	H	0.131584	-0.280737	-0.370133
H665	H	0.214753	-0.107568	0.024445
H666	H	-0.008951	-0.107275	-0.236389
C667	C	0.124338	0.081398	-0.362400
C668	C	0.117419	0.085733	-0.313706
C669	C	0.092005	0.112913	-0.286257
C670	C	0.073510	0.135758	-0.307503
C671	C	0.080428	0.131423	-0.356200
C672	C	0.105842	0.104243	-0.383649
H673	H	0.131111	0.068822	-0.297976
H674	H	0.086884	0.116122	-0.250208
H675	H	0.054697	0.155878	-0.287183
H676	H	0.066736	0.148334	-0.371929
H677	H	0.110963	0.101034	-0.419698
H678	H	0.262957	-0.149303	0.017695
H679	H	0.509556	-0.348198	-0.029767
H680	H	0.214786	0.196359	0.327996
C681	C	0.041745	-0.071709	0.029896
C682	C	0.076174	-0.024124	-0.012131
C683	C	0.049037	0.002285	-0.011394
C684	C	-0.012529	-0.018891	0.031369
C685	C	-0.046961	-0.066479	0.073399
C686	C	-0.019824	-0.092888	0.072662
H687	H	0.121752	-0.008446	-0.043790
H688	H	0.074526	0.037513	-0.042508
H689	H	-0.032617	0.000659	0.031915
H690	H	-0.092539	-0.082157	0.105058
H691	H	-0.045314	-0.128116	0.103776
C692	C	-0.438956	-0.464513	0.243083
C693	C	-0.501543	-0.505858	0.265935
C694	C	-0.526678	-0.558445	0.293113
C695	C	-0.489224	-0.569687	0.297439
C696	C	-0.426633	-0.528341	0.274586
C697	C	-0.401499	-0.475754	0.247408
H698	H	-0.529272	-0.497537	0.262734
H699	H	-0.573012	-0.589052	0.310031
H700	H	-0.507830	-0.608615	0.317558
H701	H	-0.398905	-0.536662	0.277787
H702	H	-0.355164	-0.445147	0.230491
C703	C	0.434008	0.237895	-0.515522
C704	C	0.440921	0.196113	-0.526758
C705	C	0.466331	0.194060	-0.579344
C706	C	0.484826	0.233788	-0.620695
C707	C	0.477914	0.275573	-0.609461
C708	C	0.452505	0.277627	-0.556874
H709	H	0.427229	0.166701	-0.496146
H710	H	0.471448	0.163128	-0.587661
H711	H	0.503636	0.232268	-0.659623
H712	H	0.491606	0.304985	-0.640072
H713	H	0.447388	0.308559	-0.548558
H714	H	0.509546	0.250458	-0.431050
H715	H	-0.092133	-0.281048	0.017696
H716	H	-0.524718	-0.543144	0.328324
H717	H	0.048789	-0.479841	0.299338
C718	C	0.489807	0.245767	-0.243484
C719	C	0.489418	0.202969	-0.225523
C720	C	0.544052	0.205013	-0.252869
C721	C	0.599076	0.249854	-0.298177
C722	C	0.599467	0.292655	-0.316141
C723	C	0.544832	0.290612	-0.288794
H724	H	0.448684	0.169772	-0.191981
H725	H	0.543762	0.173329	-0.239571
H726	H	0.639519	0.251367	-0.318421
H727	H	0.640200	0.325853	-0.349683
H728	H	0.545122	0.322296	-0.302093
C729	C	-0.719129	-0.639842	0.515458
C730	C	-0.718666	-0.621753	0.557794
C731	C	-0.773300	-0.648930	0.610382
C732	C	-0.828398	-0.694194	0.620635
C733	C	-0.828863	-0.712285	0.578298
C734	C	-0.774229	-0.685109	0.525709
H735	H	-0.677878	-0.588244	0.550205
H736	H	-0.772955	-0.635537	0.641723
H737	H	-0.868841	-0.714312	0.659565
H738	H	-0.869651	-0.745794	0.585887
H739	H	-0.774574	-0.698501	0.494369
H740	H	0.180460	-0.348182	0.299335
H741	H	0.180454	-0.078570	0.029714
C742	C	0.221349	-0.312033	0.314680
C743	C	0.281765	-0.294425	0.272339
C744	C	0.307169	-0.266978	0.219751
C745	C	0.272157	-0.257139	0.209504
C746	C	0.211738	-0.274747	0.251846
C747	C	0.186334	-0.302194	0.304434
H748	H	0.307686	-0.301708	0.279923
H749	H	0.351895	-0.253943	0.188406
H750	H	0.290963	-0.236821	0.170575
H751	H	0.185817	-0.267464	0.244262
H752	H	0.141607	-0.315229	0.335779
C753	C	0.277158	-0.264053	0.139000
C754	C	0.330270	-0.252725	0.134546
C755	C	0.384909	-0.200141	0.107197
C756	C	0.386434	-0.158885	0.084302
C757	C	0.333320	-0.170211	0.088755
C758	C	0.278681	-0.222795	0.116104
H759	H	0.329143	-0.283267	0.151495
H760	H	0.424228	-0.191757	0.103900
H761	H	0.426881	-0.119959	0.064056
H762	H	0.334447	-0.139670	0.071806
H763	H	0.239362	-0.231180	0.119400
C764	C	0.280887	-0.294702	-0.139380
C765	C	0.227869	-0.305950	-0.135065
C766	C	0.173240	-0.358540	-0.107893
C767	C	0.171629	-0.399881	-0.085035
C768	C	0.224649	-0.388634	-0.089349
C769	C	0.279278	-0.336045	-0.116521
H770	H	0.229060	-0.275346	-0.151986
H771	H	0.133992	-0.366865	-0.104699
H772	H	0.131190	-0.438811	-0.064921
H773	H	0.223459	-0.419238	-0.072428
H774	H	0.318527	-0.327719	-0.119715
C775	C	-0.342667	-0.416212	0.138982
C776	C	-0.342207	-0.425931	0.093676
C777	C	-0.316904	-0.453218	0.066327
C778	C	-0.292060	-0.470785	0.084283
C779	C	-0.292518	-0.461066	0.129591
C780	C	-0.317821	-0.433779	0.156940
H781	H	-0.360599	-0.412927	0.080382
H782	H	-0.316565	-0.460413	0.032787
H783	H	-0.273329	-0.490984	0.064038
H784	H	-0.274126	-0.474070	0.142886
H785	H	-0.318161	-0.426585	0.190480
H786	H	0.343562	-0.239313	-0.236370
C787	C	-0.098668	-0.141588	-0.139402
C788	C	-0.061220	-0.092881	-0.135089
C789	C	-0.086363	-0.065426	-0.107922
C790	C	-0.148954	-0.086678	-0.085068
C791	C	-0.186406	-0.135387	-0.089381
C792	C	-0.161263	-0.162842	-0.116548
H793	H	-0.014883	-0.077146	-0.152007
H794	H	-0.058638	-0.029368	-0.104730
H795	H	-0.167566	-0.066354	-0.064958
H796	H	-0.232743	-0.151122	-0.072463
H797	H	-0.188988	-0.198901	-0.119740
C798	C	0.281186	0.237902	-0.363041
C799	C	0.279659	0.277626	-0.384421
C800	C	0.225022	0.275577	-0.357135
C801	C	0.171910	0.233803	-0.308470
C802	C	0.173435	0.194075	-0.287088
C803	C	0.228073	0.196124	-0.314374
H804	H	0.318977	0.308553	-0.420448
H805	H	0.223893	0.304987	-0.372963
H806	H	0.131464	0.232286	-0.288271
H807	H	0.134117	0.163149	-0.251061
H808	H	0.229201	0.166715	-0.298546
C809	C	0.281188	0.237941	-0.139058
C810	C	0.279667	0.277678	-0.116168
C811	C	0.225030	0.275631	-0.088821
C812	C	0.171916	0.233847	-0.084364
C813	C	0.173435	0.194107	-0.107255
C814	C	0.228072	0.196154	-0.134602
H815	H	0.318987	0.308612	-0.119467
H816	H	0.223906	0.305050	-0.071875
H817	H	0.131471	0.232332	-0.064120
H818	H	0.134115	0.163173	-0.103956
H819	H	0.229196	0.166735	-0.151548
C820	C	-0.098990	0.203663	0.362949
C821	C	-0.061656	0.245437	0.314283
C822	C	-0.086953	0.247484	0.286993
C823	C	-0.149585	0.207757	0.308369
C824	C	-0.186923	0.165981	0.357037
C825	C	-0.161626	0.163934	0.384327
H826	H	-0.015289	0.274847	0.298457
H827	H	-0.059313	0.278410	0.250965
H828	H	-0.168311	0.209273	0.288167
H829	H	-0.233290	0.136570	0.372863
H830	H	-0.189266	0.133008	0.420355
C831	C	0.041738	-0.224141	0.029894
C832	C	0.020141	-0.264536	0.072654
C833	C	-0.007012	-0.318079	0.073382
C834	C	-0.012568	-0.331227	0.031350
C835	C	0.009030	-0.290831	-0.011414
C836	C	0.036183	-0.237288	-0.012142
H837	H	0.024253	-0.254804	0.103772
H838	H	-0.023000	-0.347982	0.105039
H839	H	-0.032668	-0.370862	0.031889
H840	H	0.004918	-0.300563	-0.042531
H841	H	0.052171	-0.207384	-0.043798
C842	C	-0.098671	0.203672	0.515438
C843	C	-0.061217	0.245454	0.526677
C844	C	-0.086352	0.247506	0.579264
C845	C	-0.148940	0.207775	0.620612
C846	C	-0.186397	0.165990	0.609374
C847	C	-0.161263	0.163939	0.556787
H848	H	-0.014883	0.274867	0.496067
H849	H	-0.058623	0.278438	0.587583
H850	H	-0.167545	0.209294	0.659540
H851	H	-0.232732	0.136577	0.639983
H852	H	-0.188992	0.133006	0.548468
H853	H	0.130928	-0.281041	0.017712
H854	H	-0.008966	0.196379	0.460052
H855	H	0.214791	-0.015556	0.024452
H856	H	-0.092432	-0.633071	0.501473
C857	C	0.124991	0.081765	0.017144
C858	C	0.160123	0.127063	-0.027708
C859	C	0.134886	0.154411	-0.029762
C860	C	0.074517	0.136461	0.013035
C861	C	0.039381	0.091160	0.057891
C862	C	0.064618	0.063812	0.059946
H863	H	0.204816	0.140353	-0.059392
H864	H	0.160897	0.187945	-0.062968
H865	H	0.055835	0.156705	0.011514
H866	H	-0.005312	0.077870	0.089575
H867	H	0.038607	0.030278	0.093151
H868	H	0.295078	-0.281041	-0.369504
C869	C	0.124323	-0.416853	0.139337
C870	C	0.105838	-0.395611	0.116476
C871	C	0.080417	-0.423072	0.089307
C872	C	0.073482	-0.471776	0.084998
C873	C	0.091968	-0.493021	0.107859
C874	C	0.117388	-0.465560	0.135029
H875	H	0.110971	-0.359554	0.119666
H876	H	0.066733	-0.407345	0.072383
H877	H	0.054665	-0.492105	0.064885
H878	H	0.086835	-0.529077	0.104670
H879	H	0.131072	-0.481287	0.151952
C880	C	0.516593	-0.486731	-0.029965
C881	C	0.578156	-0.465563	-0.072728
C882	C	0.605283	-0.491982	-0.073463
C883	C	0.570846	-0.539569	-0.031435
C884	C	0.509279	-0.560740	0.011331
C885	C	0.482153	-0.534321	0.012066
H886	H	0.603652	-0.430334	-0.103842
H887	H	0.650859	-0.476310	-0.105122
H888	H	0.590927	-0.559126	-0.031979
H889	H	0.483784	-0.595969	0.042446
H890	H	0.436577	-0.549993	0.043725
H891	H	0.343580	0.245192	-0.328393
C892	C	0.657353	0.081756	-0.363024
C893	C	0.682198	0.063803	-0.345457
C894	C	0.707497	0.091151	-0.318168
C895	C	0.707949	0.136454	-0.308447
C896	C	0.683103	0.154410	-0.326015
C897	C	0.657804	0.127061	-0.353303
H898	H	0.681864	0.030265	-0.352653
H899	H	0.725890	0.077859	-0.305164
H900	H	0.726677	0.156699	-0.288247
H901	H	0.683437	0.187947	-0.318819
H902	H	0.639411	0.140354	-0.366308
H903	H	0.083061	-0.015275	0.024435
H904	H	0.048791	0.191098	0.299310
H905	H	0.048789	0.191117	0.430977
H906	H	0.475292	-0.107577	-0.460069
H907	H	0.650504	0.074356	-0.501854
H908	H	0.567595	-0.015281	-0.328381
H909	H	0.475284	-0.107572	-0.236076
H910	H	0.475628	-0.319115	-0.024516
H911	H	0.650771	-0.409128	-0.017757
H912	H	0.475618	-0.542873	-0.024519
H913	H	-0.349518	-0.277387	0.146379
H914	H	0.180458	0.191108	0.299317
C915	C	0.434017	-0.639863	-0.017241
C916	C	0.494438	-0.621781	-0.060045
C917	C	0.519848	-0.648960	-0.058004
C918	C	0.484837	-0.694222	-0.013159
C919	C	0.424413	-0.712307	0.029648
C920	C	0.399003	-0.685127	0.027606
H921	H	0.520358	-0.588273	-0.093244
H922	H	0.564578	-0.635573	-0.089692
H923	H	0.503647	-0.714342	-0.011648
H924	H	0.398493	-0.745815	0.062847
H925	H	0.354273	-0.698515	0.059295
H926	H	0.295382	-0.633093	-0.017747
H927	H	0.082723	-0.451167	0.460080
H928	H	-0.009210	-0.239281	-0.236094
H929	H	0.214820	-0.107281	-0.460140
H930	H	0.048808	-0.210263	-0.299397
H931	H	0.180485	-0.078601	-0.431060
H932	H	0.082739	-0.015592	-0.328076
H933	H	-0.432698	-0.319113	0.236309
H934	H	-0.656428	-0.450848	0.460006
H935	H	0.509545	0.250477	-0.299387
H936	H	0.567298	0.245219	-0.328058
