data_functionalizedCrystal
_audit_creation_method	'MofGen! by Chris Wilmer'
_symmetry_space_group_name_H-M	'P1'
_symmetry_Int_Tables_number	1
_symmetry_cell_setting	triclinic
loop_
_symmetry_equiv_pos_as_xyz
  x,y,z
_cell_length_a	12.827892
_cell_length_b	17.077404
_cell_length_c	17.077396
_cell_angle_alpha	89.979055
_cell_angle_beta	90.024877
_cell_angle_gamma	89.991129
loop_
_atom_site_label
_atom_site_type_symbol
_atom_site_fract_x
_atom_site_fract_y
_atom_site_fract_z
Zn1	Zn	-0.416215	-1.200095	0.443893
Zn2	Zn	-0.590977	-1.200020	0.312635
Zn3	Zn	-0.416231	-1.068827	0.312637
Zn4	Zn	-0.590895	-1.068812	0.443855
O5	O	-0.503579	-1.134439	0.378255
O6	O	-0.439425	-1.309932	0.426496
O7	O	-0.567838	-1.182591	0.202788
O8	O	-0.269993	-1.086278	0.330065
O9	O	-0.567822	-1.309877	0.330061
O10	O	-0.269981	-1.182720	0.426498
O11	O	-0.439453	-1.086205	0.202790
O12	O	-0.439373	-0.958978	0.330029
O13	O	-0.567682	-1.086253	0.553707
O14	O	-0.567697	-0.958968	0.426434
O15	O	-0.439345	-1.182706	0.553735
O16	O	-0.737202	-1.182577	0.330025
O17	O	-0.737142	-1.086179	0.426432
C18	C	-0.503529	-0.930491	0.378228
C19	C	-0.503532	-0.843241	0.378235
C20	C	-0.775089	-1.134390	0.378241
C21	C	-0.891242	-1.134440	0.378261
C22	C	-0.570518	-0.467442	0.428383
C23	C	-0.570508	-0.549422	0.428373
C24	C	-0.503583	-0.590392	0.378256
C25	C	-0.436671	-0.549378	0.328141
C26	C	-0.436687	-0.467399	0.328148
C27	C	-0.436641	-0.720248	0.328132
C28	C	-0.436623	-0.802232	0.328126
C29	C	-0.570462	-0.802271	0.428356
C30	C	-0.570478	-0.720292	0.428363
C31	C	-0.503564	-0.679283	0.378249
C32	C	-0.943023	-1.182198	0.330609
C33	C	-1.063073	-1.182251	0.330629
C34	C	-0.231009	-1.134509	0.378286
C35	C	-0.114856	-1.134540	0.378299
C36	C	-0.503502	-1.134486	0.582999
C37	C	-0.503470	-1.134506	0.670249
C38	C	-0.503620	-0.339183	0.378277
C39	C	-0.503609	-0.426433	0.378274
C40	C	-0.503581	-1.134437	0.174307
C41	C	-0.503319	-1.134568	0.087058
C42	C	-0.436639	-1.184731	0.711255
C43	C	-0.436604	-1.184741	0.793235
C44	C	-0.503406	-1.134529	0.834209
C45	C	-0.570239	-1.084298	0.793197
C46	C	-0.570268	-1.084285	0.711218
C47	C	-0.570177	-1.084330	0.964067
C48	C	-0.570150	-1.084344	1.046052
C49	C	-0.436513	-1.184785	1.046085
C50	C	-0.436542	-1.184772	0.964106
C51	C	-0.503377	-1.134543	0.923100
H52	H	-0.624994	-0.582808	0.469175
H53	H	-0.382187	-1.225641	0.826619
H54	H	-0.898479	-1.223048	0.289800
O55	O	-1.116349	-1.231030	0.282053
C56	C	-1.284580	-1.275535	0.237759
C57	C	-1.224373	-1.220249	0.292810
H58	H	-1.371928	-1.266826	0.246425
H59	H	-1.263162	-1.338833	0.251620
H60	H	-1.263210	-1.261834	0.174429
H61	H	-1.245711	-1.233879	0.356158
H62	H	-1.245797	-1.156967	0.278881
H63	H	-0.382092	-1.225683	1.079475
H64	H	-0.382245	-1.225622	0.677900
O65	O	-0.944214	-1.085683	0.427027
C66	C	-0.932948	-0.985991	0.526491
C67	C	-0.872833	-1.041183	0.471316
H68	H	-0.875262	-0.949987	0.562302
H69	H	-0.983946	-1.022026	0.567598
H70	H	-0.984151	-0.945059	0.490375
H71	H	-0.821572	-1.082125	0.507369
H72	H	-0.821900	-1.005099	0.430207
H73	H	-1.070334	-1.093647	0.419096
H74	H	-0.382152	-1.225664	0.930747
H75	H	-0.624627	-1.043412	0.826564
H76	H	-0.624942	-0.835664	0.469163
O77	O	-0.635068	-1.035491	1.085734
C78	C	-0.767654	-0.935890	1.077055
C79	C	-0.694170	-0.991162	1.032018
H80	H	-0.815472	-0.900047	1.033646
H81	H	-0.719695	-0.894818	1.115414
H82	H	-0.822250	-0.971933	1.115456
H83	H	-0.639559	-0.955182	0.993575
H84	H	-0.742194	-1.032236	0.993709
H85	H	-0.625011	-0.434090	0.469198
H86	H	-0.624584	-1.043415	0.930683
O87	O	-0.635299	-1.035482	0.671504
C88	C	-0.767826	-0.935845	0.680118
C89	C	-0.694245	-0.991087	0.725190
H90	H	-0.815487	-0.899925	0.723504
H91	H	-0.822556	-0.971836	0.641765
H92	H	-0.719847	-0.894837	0.641709
H93	H	-0.742140	-1.032106	0.763642
H94	H	-0.639512	-0.955047	0.763494
H95	H	-0.624969	-0.686936	0.469176
H96	H	-0.382184	-0.582742	0.287332
O97	O	-0.371743	-0.842003	0.279322
C98	C	-0.320795	-0.867011	0.145855
C99	C	-0.394343	-0.821933	0.201039
H100	H	-0.339026	-0.850789	0.082552
H101	H	-0.332293	-0.932655	0.154398
H102	H	-0.236555	-0.850920	0.159772
H103	H	-0.478611	-0.837959	0.187156
H104	H	-0.382755	-0.756300	0.192486
O105	O	-0.371787	-0.680373	0.279372
C106	C	-0.357540	-0.587725	0.173458
C107	C	-0.431109	-0.632849	0.228608
H108	H	-0.405472	-0.549279	0.132412
H109	H	-0.309715	-0.631050	0.137581
H110	H	-0.302954	-0.549399	0.209597
H111	H	-0.485759	-0.671176	0.192530
H112	H	-0.478861	-0.589482	0.264487
O113	O	-0.371741	-0.427648	0.279363
C114	C	-0.320834	-0.402473	0.145902
C115	C	-0.394431	-0.447551	0.201068
H116	H	-0.339167	-0.418536	0.082589
H117	H	-0.236573	-0.418613	0.159730
H118	H	-0.332323	-0.336847	0.154553
H119	H	-0.383034	-0.513188	0.192449
H120	H	-0.478665	-0.431347	0.187227
