data_functionalizedCrystal
_audit_creation_method	'MofGen! by Chris Wilmer'
_symmetry_space_group_name_H-M	'P1'
_symmetry_Int_Tables_number	1
_symmetry_cell_setting	triclinic
loop_
_symmetry_equiv_pos_as_xyz
  x,y,z
_cell_length_a	13.032831
_cell_length_b	16.120297
_cell_length_c	13.032721
_cell_angle_alpha	80.345876
_cell_angle_beta	89.097115
_cell_angle_gamma	86.057239
loop_
_atom_site_label
_atom_site_type_symbol
_atom_site_fract_x
_atom_site_fract_y
_atom_site_fract_z
Zn1	Zn	1.471908	-0.685769	0.646883
Zn2	Zn	1.458691	-0.561755	0.812079
Zn3	Zn	1.311115	-0.527021	0.616368
Zn4	Zn	1.278370	-0.681325	0.796687
O5	O	1.380021	-0.613968	0.718004
O6	O	1.612912	-0.685715	0.688009
O7	O	1.447287	-0.440670	0.779788
O8	O	1.351680	-0.535402	0.475817
O9	O	1.603202	-0.594602	0.809377
O10	O	1.469814	-0.652034	0.498236
O11	O	1.338864	-0.415151	0.636001
O12	O	1.164014	-0.531093	0.621076
O13	O	1.295870	-0.798392	0.783144
O14	O	1.139956	-0.644460	0.753555
O15	O	1.438062	-0.801657	0.673084
O16	O	1.415535	-0.590293	0.954636
O17	O	1.283054	-0.678141	0.943328
C18	C	1.114969	-0.583526	0.682335
C19	C	1.001574	-0.570525	0.667102
C20	C	0.939135	-0.620753	0.725955
C21	C	0.821935	-0.607317	0.710212
C22	C	1.364788	-0.831071	0.729801
C23	C	1.358296	-0.923587	0.734828
C24	C	1.346410	-1.092969	0.743978
C25	C	1.413874	-1.135814	0.691748
C26	C	1.407260	-1.230064	0.696839
C27	C	1.353022	-0.998710	0.738888
C28	C	1.646107	-0.644529	0.753814
C29	C	1.759498	-0.657552	0.769073
C30	C	1.344333	-0.637526	0.986479
C31	C	1.329157	-0.647642	1.101348
C32	C	1.395263	-0.397710	0.706187
C33	C	1.401991	-0.305191	0.700895
C34	C	1.415874	-0.590339	0.448486
C35	C	1.431153	-0.580270	0.333633
C36	C	1.387993	-0.608731	1.158130
C37	C	1.372309	-0.619187	1.276853
H38	H	0.972446	-0.673705	0.787993
H39	H	1.493143	-0.539218	1.294358
H40	H	0.792802	-0.710511	0.831114
H41	H	1.283692	-1.127071	0.792515
H42	H	1.267179	-0.688699	1.140630
C43	C	0.776945	-0.535779	0.626389
N44	N	0.743057	-0.481897	0.563256
C45	C	1.471730	-0.553268	1.105068
N46	N	1.534801	-0.511490	1.065104
C47	C	0.956579	-0.498990	0.583283
N48	N	0.922691	-0.445109	0.520150
H49	H	1.476597	-1.101710	0.643207
H50	H	1.310327	-0.660246	1.316130
