data_functionalizedCrystal
_audit_creation_method	'MofGen! by Chris Wilmer'
_symmetry_space_group_name_H-M	'P1'
_symmetry_Int_Tables_number	1
_symmetry_cell_setting	triclinic
loop_
_symmetry_equiv_pos_as_xyz
  x,y,z
_cell_length_a	12.837943
_cell_length_b	15.944551
_cell_length_c	11.295483
_cell_angle_alpha	94.094426
_cell_angle_beta	85.461227
_cell_angle_gamma	89.163839
loop_
_atom_site_label
_atom_site_type_symbol
_atom_site_fract_x
_atom_site_fract_y
_atom_site_fract_z
O1	O	1.382450	0.213265	-0.099009
O2	O	1.882450	0.713265	0.400991
O3	O	1.080644	0.202478	-0.099016
O4	O	1.580644	0.702478	0.400984
O5	O	1.239788	0.086257	-0.099002
O6	O	1.739788	0.586257	0.400998
O7	O	1.223306	0.329487	-0.099023
O8	O	1.723306	0.829487	0.400977
O9	O	1.225810	0.096448	0.099048
O10	O	1.725810	0.596448	0.599048
O11	O	1.066666	0.212669	0.099034
O12	O	1.566666	0.712669	0.599034
O13	O	1.368472	0.223456	0.099040
O14	O	1.868472	0.723456	0.599040
Cu15	Cu	1.216293	0.218993	0.117121
Cu16	Cu	1.716293	0.718993	0.617121
Cu17	Cu	1.232823	0.206941	-0.117096
Cu18	Cu	1.732823	0.706941	0.382904
O19	O	1.209328	0.339677	0.099026
O20	O	1.709328	0.839677	0.599026
C21	C	1.035034	0.203930	0.000008
C22	C	1.535034	0.703930	0.500008
C23	C	0.919957	0.193062	0.000006
C24	C	1.419957	0.693062	0.500006
C25	C	1.232115	0.060004	0.000023
C26	C	1.732115	0.560004	0.500023
C27	C	1.230063	-0.033407	0.000024
C28	C	1.730063	0.466593	0.500024
C29	C	0.679007	0.323714	0.000011
C30	C	1.179007	0.823714	0.500011
C31	C	0.570881	0.313507	0.000010
C32	C	1.070881	0.813507	0.500010
C33	C	0.595575	0.162440	0.000011
C34	C	1.095575	0.662440	0.500011
C35	C	0.703701	0.172648	0.000012
C36	C	1.203701	0.672648	0.500012
C37	C	0.745413	0.253287	0.000011
C38	C	1.245413	0.753287	0.500011
C39	C	0.853542	0.263494	0.000003
C40	C	1.353542	0.763494	0.500003
C41	C	0.878234	0.112428	0.000013
C42	C	1.378234	0.612428	0.500013
C43	C	0.770107	0.102221	0.000011
C44	C	1.270107	0.602221	0.500011
C45	C	1.126515	-0.256548	0.000005
C46	C	1.626515	0.243452	0.500005
C47	C	1.167708	-0.308694	0.097657
C48	C	1.667708	0.191306	0.597657
C49	C	1.226352	-0.204430	0.000015
C50	C	1.726352	0.295570	0.500015
C51	C	1.181513	-0.318722	-0.097604
C52	C	1.681513	0.181278	0.402396
C53	C	1.222761	-0.369631	0.000001
C54	C	1.722761	0.130369	0.500001
C55	C	1.267567	-0.255341	0.097747
C56	C	1.767567	0.244659	0.597747
C57	C	1.281364	-0.265369	-0.097602
C58	C	1.781364	0.234631	0.402398
C59	C	1.322627	-0.317491	0.000073
C60	C	1.822627	0.182509	0.500073
C61	C	1.228418	-0.109262	0.000024
C62	C	1.728418	0.390738	0.500024
C63	C	1.220702	-0.464796	0.000000
C64	C	1.720702	0.035204	0.500000
C65	C	1.414082	0.222005	0.000014
C66	C	1.914082	0.722005	0.500014
C67	C	1.529160	0.232872	0.000008
C68	C	2.029160	0.732872	0.500008
C69	C	1.217002	0.365931	-0.000001
C70	C	1.717002	0.865931	0.499999
C71	C	1.219054	0.459340	-0.000010
C72	C	1.719054	0.959340	0.499990
N73	N	1.204674	0.227469	0.281856
N74	N	1.704674	0.727469	0.781856
N75	N	1.244451	0.198459	-0.281831
N76	N	1.744451	0.698459	0.218169
C77	C	1.328092	0.137394	0.531156
C78	C	1.828092	0.637394	1.031156
C79	C	1.319318	0.143806	0.655819
C80	C	1.819318	0.643806	1.155819
C81	C	1.178349	0.246701	0.655847
C82	C	1.678349	0.746701	1.155847
C83	C	1.187123	0.240289	0.531184
C84	C	1.687123	0.740289	1.031184
C85	C	1.261997	0.185634	0.468843
C86	C	1.761997	0.685634	0.968843
C87	C	1.270775	0.179227	0.344178
C88	C	1.770775	0.679227	0.844178
C89	C	1.129802	0.282117	0.344208
C90	C	1.629802	0.782117	0.844208
C91	C	1.121028	0.288530	0.468871
C92	C	1.621028	0.788530	0.968871
H93	H	0.887502	0.329155	0.000004
H94	H	1.387502	0.829155	0.500004
H95	H	1.075986	0.321401	0.293458
H96	H	1.575986	0.821401	0.793458
H97	H	1.119654	-0.327932	0.180211
H98	H	1.619654	0.172068	0.680211
C99	C	1.346233	-0.239350	-0.209137
C100	C	1.846233	0.260650	0.290863
N101	N	1.395086	-0.219750	-0.293155
N102	N	1.895086	0.280250	0.206845
C103	C	1.316682	-0.218033	0.209403
C104	C	1.816682	0.281967	0.709403
N105	N	1.353670	-0.189930	0.293504
N106	N	1.853670	0.310070	0.793504
C107	C	1.038663	0.348640	0.537460
C108	C	1.538663	0.848640	1.037460
N109	N	0.976623	0.393916	0.589120
N110	N	1.476623	0.893916	1.089120
C111	C	1.132315	-0.356161	-0.209132
C112	C	1.632315	0.143839	0.290868
N113	N	1.095253	-0.384356	-0.293131
N114	N	1.595253	0.115644	0.206869
C115	C	0.724893	0.412417	0.000002
C116	C	1.224893	0.912417	0.500002
N117	N	0.759453	0.479230	-0.000005
N118	N	1.259453	0.979230	0.499995
H119	H	0.932315	0.055081	0.000004
H120	H	1.432315	0.555081	0.500004
H121	H	1.405566	-0.344011	0.000130
H122	H	1.905566	0.155989	0.500130
H123	H	1.331744	0.134727	0.293421
H124	H	1.831744	0.634727	0.793421
C125	C	0.497837	0.390983	0.000012
C126	C	0.997837	0.890983	0.500012
N127	N	0.442819	0.449341	0.000015
N128	N	0.942819	0.949341	0.500015
H129	H	1.043639	-0.229864	0.000101
H130	H	1.543639	0.270136	0.500101
C131	C	0.549670	0.073744	0.000026
C132	C	1.049670	0.573744	0.500026
N133	N	0.515094	0.006937	0.000038
N134	N	1.015094	0.506937	0.500038
C135	C	0.724211	0.013521	0.000011
C136	C	1.224211	0.513521	0.500011
N137	N	0.689643	-0.053289	0.000007
N138	N	1.189643	0.446711	0.500007
C139	C	1.095969	0.306795	0.724443
C140	C	1.595969	0.806795	1.224443
N141	N	1.033913	0.352052	0.776111
N142	N	1.533913	0.852052	1.276111
C143	C	1.392024	0.090734	0.724360
C144	C	1.892024	0.590734	1.224360
N145	N	1.446788	0.050757	0.775984
N146	N	1.946788	0.550757	1.275984
C147	C	1.410457	0.077278	0.462579
C148	C	1.910457	0.577278	0.962579
N149	N	1.472496	0.031997	0.410928
N150	N	1.972496	0.531997	0.910928
