data_functionalizedCrystal
_audit_creation_method	'MofGen! by Chris Wilmer'
_symmetry_space_group_name_H-M	'P1'
_symmetry_Int_Tables_number	1
_symmetry_cell_setting	triclinic
loop_
_symmetry_equiv_pos_as_xyz
  x,y,z
_cell_length_a	14.971486
_cell_length_b	10.868271
_cell_length_c	11.792241
_cell_angle_alpha	90.005281
_cell_angle_beta	83.903772
_cell_angle_gamma	89.999359
loop_
_atom_site_label
_atom_site_type_symbol
_atom_site_fract_x
_atom_site_fract_y
_atom_site_fract_z
O1	O	1.187537	0.102181	0.147907
O2	O	0.927208	0.102215	0.165620
O3	O	1.063690	0.102188	-0.008448
O4	O	1.051055	0.102207	0.321975
O5	O	1.063679	-0.102456	-0.008454
O6	O	0.927197	-0.102430	0.165613
O7	O	1.187526	-0.102464	0.147901
Zn8	Zn	1.057359	-0.134938	0.156756
Zn9	Zn	1.057374	0.134690	0.156765
O10	O	1.051044	-0.102437	0.321968
C11	C	0.893874	-0.000103	0.164824
C12	C	0.794568	-0.000091	0.162451
N13	N	1.057356	-0.318953	0.156749
C14	C	0.737752	-0.000087	0.264710
C15	C	0.644444	-0.000105	0.262473
C16	C	0.607953	-0.000119	0.157975
C17	C	0.664776	-0.000127	0.055707
C18	C	0.758082	-0.000117	0.057946
C19	C	0.470294	-0.000144	0.051049
C20	C	0.376981	-0.000151	0.048810
C21	C	0.356656	-0.000132	0.255577
C22	C	0.449963	-0.000122	0.257815
C23	C	0.506779	-0.000128	0.155547
C24	C	1.057370	-0.569959	0.156762
C25	C	1.057359	-0.430281	0.156758
C26	C	1.220859	-0.000143	0.148696
C27	C	1.320166	-0.000147	0.151070
C28	C	1.062891	-0.000133	-0.050737
C29	C	1.060515	-0.000132	-0.176735
N30	N	1.057385	0.318704	0.156762
C31	C	1.056147	-0.000111	-0.407419
C32	C	1.058574	-0.000122	-0.279050
C33	C	1.051843	-0.000113	0.364257
C34	C	1.054219	-0.000106	0.490256
H35	H	0.598187	-0.000100	0.345744
O36	O	0.301508	0.000084	0.354955
C37	C	0.318134	0.106068	0.418402
H38	H	0.349721	0.180144	0.358524
H39	H	0.365962	0.082123	0.484158
C40	C	0.190220	0.063138	0.553312
C41	C	0.229009	0.154124	0.479767
H42	H	0.135245	0.092779	0.591170
H43	H	0.179020	-0.008268	0.510570
H44	H	0.230085	0.043193	0.608099
H45	H	0.189148	0.174057	0.424974
H46	H	0.240200	0.225534	0.522502
H47	H	0.516553	-0.000150	-0.032229
H48	H	0.635057	-0.000156	-0.029377
O49	O	0.813404	-0.000170	-0.041284
C50	C	0.903583	-0.000131	-0.016903
H51	H	0.907592	-0.038866	0.072250
H52	H	0.930539	0.098049	-0.021167
C53	C	0.955338	-0.032815	-0.214440
C54	C	0.960263	-0.080399	-0.104944
H55	H	0.990303	-0.082322	-0.268750
H56	H	0.894583	-0.032837	-0.230868
H57	H	0.977800	0.049001	-0.217977
H58	H	0.937791	-0.162207	-0.101405
H59	H	1.021015	-0.080393	-0.088517
H60	H	0.767455	-0.000075	0.349805
H61	H	0.479670	-0.000099	0.342907
H62	H	0.347274	-0.000164	-0.036282
