data_functionalizedCrystal
_audit_creation_method	'MofGen! by Chris Wilmer'
_symmetry_space_group_name_H-M	'P1'
_symmetry_Int_Tables_number	1
_symmetry_cell_setting	triclinic
loop_
_symmetry_equiv_pos_as_xyz
  x,y,z
_cell_length_a	19.121147
_cell_length_b	12.827892
_cell_length_c	12.827885
_cell_angle_alpha	90.031912
_cell_angle_beta	92.461506
_cell_angle_gamma	87.578819
loop_
_atom_site_label
_atom_site_type_symbol
_atom_site_fract_x
_atom_site_fract_y
_atom_site_fract_z
Zn1	Zn	-1.073739	0.484258	-0.658991
Zn2	Zn	-1.073647	0.659030	-0.484239
Zn3	Zn	-0.956284	0.476841	-0.476809
Zn4	Zn	-0.956255	0.651488	-0.651488
O5	O	-1.014981	0.567904	-0.567882
O6	O	-1.172011	0.513703	-0.642060
O7	O	-1.058053	0.634914	-0.337016
O8	O	-0.971915	0.331592	-0.501007
O9	O	-1.171944	0.642107	-0.513670
O10	O	-1.058209	0.337041	-0.634855
O11	O	-0.971827	0.501061	-0.331557
O12	O	-0.857996	0.493747	-0.493731
O13	O	-0.971865	0.629252	-0.798721
O14	O	-0.857974	0.622059	-0.622066
O15	O	-1.058180	0.506389	-0.804234
O16	O	-1.058024	0.804262	-0.506394
O17	O	-0.971777	0.798721	-0.629271
C18	C	-0.832501	0.556281	-0.556279
C19	C	-0.754435	0.551333	-0.551339
C20	C	-0.312910	0.519947	-0.520059
C21	C	-0.386261	0.524601	-0.524705
C22	C	-0.422941	0.593844	-0.593737
C23	C	-0.386267	0.658428	-0.658135
C24	C	-0.312917	0.653768	-0.653493
C25	C	-0.644411	0.611258	-0.611095
C26	C	-0.717766	0.615915	-0.615730
C27	C	-0.717755	0.482086	-0.482301
C28	C	-0.644404	0.477436	-0.477661
C29	C	-0.607735	0.542017	-0.542062
C30	C	-0.497918	0.598605	-0.598486
C31	C	-0.532760	0.537250	-0.537318
C32	C	-1.014906	0.839409	-0.567849
C33	C	-1.014939	0.955564	-0.567873
C34	C	-0.198174	0.579569	-0.579519
C35	C	-0.276240	0.584529	-0.584449
C36	C	-1.057614	1.009961	-0.634160
C37	C	-1.057649	1.130013	-0.634187
C38	C	-1.015030	0.567807	-0.840455
C39	C	-1.015050	0.567765	-0.956610
C40	C	-1.015047	1.295338	-0.567929
C41	C	-1.015002	1.179182	-0.567923
C42	C	-0.972397	0.501519	-1.005694
C43	C	-0.972417	0.501474	-1.125746
C44	C	-1.014974	0.567928	-0.296371
C45	C	-1.015089	0.567684	-0.180226
H46	H	-0.416138	0.714803	-0.714347
H47	H	-0.283050	0.463563	-0.463844
F48	F	-0.967211	1.010858	-0.493726
H49	H	-0.935861	0.444840	-0.958839
H50	H	-0.283061	0.706355	-0.705929
H51	H	-1.051582	0.624450	-1.003465
F52	F	-0.924688	0.427334	-1.180929
H53	H	-0.978466	1.132420	-0.511166
H54	H	-1.051611	0.624399	-1.138011
F55	F	-0.425284	0.455857	-0.456178
F56	F	-0.605371	0.403734	-0.404193
F57	F	-1.105332	0.954667	-0.708322
H58	H	-0.614564	0.663848	-0.663531
H59	H	-0.747618	0.429507	-0.429871
H60	H	-1.094188	1.176783	-0.690933
F61	F	-0.756802	0.689617	-0.689206
F62	F	-0.536962	0.672311	-0.671939
F63	F	-0.493721	0.463555	-0.463856
