data_functionalizedCrystal
_audit_creation_method	'MofGen! by Chris Wilmer'
_symmetry_space_group_name_H-M	'P1'
_symmetry_Int_Tables_number	1
_symmetry_cell_setting	triclinic
loop_
_symmetry_equiv_pos_as_xyz
  x,y,z
_cell_length_a	12.759401
_cell_length_b	19.121063
_cell_length_c	12.759393
_cell_angle_alpha	92.404035
_cell_angle_beta	89.979062
_cell_angle_gamma	92.470439
loop_
_atom_site_label
_atom_site_type_symbol
_atom_site_fract_x
_atom_site_fract_y
_atom_site_fract_z
Zn1	Zn	1.588334	-0.279551	-0.611809
Zn2	Zn	2.088334	0.220449	-0.111809
Zn3	Zn	1.580690	-0.397017	-0.443603
Zn4	Zn	2.080690	0.102983	0.056397
Zn5	Zn	1.412630	-0.279588	-0.436146
Zn6	Zn	1.912630	0.220412	0.063854
Zn7	Zn	1.405092	-0.396968	-0.619238
Zn8	Zn	1.905092	0.103032	-0.119238
O9	O	1.496686	-0.338281	-0.527699
O10	O	1.996686	0.161719	-0.027699
O11	O	1.734340	-0.295138	-0.589508
O12	O	2.234340	0.204862	-0.089508
O13	O	1.558352	-0.381476	-0.295595
O14	O	2.058352	0.118524	0.204405
O15	O	1.442291	-0.181299	-0.453218
O16	O	1.942291	0.318701	0.046782
O17	O	1.728724	-0.381440	-0.465928
O18	O	2.228724	0.118560	0.034072
O19	O	1.571380	-0.181271	-0.582277
O20	O	2.071380	0.318729	-0.082277
O21	O	1.434879	-0.295201	-0.290117
O22	O	1.934879	0.204799	0.209883
O23	O	1.264609	-0.295154	-0.460422
O24	O	1.764609	0.204846	0.039578
O25	O	1.429444	-0.381356	-0.765271
O26	O	1.929444	0.118644	-0.265271
O27	O	1.259071	-0.381393	-0.594938
O28	O	1.759071	0.118607	-0.094938
O29	O	1.564071	-0.295090	-0.759813
O30	O	2.064071	0.204910	-0.259813
O31	O	1.551042	-0.495295	-0.473132
O32	O	2.051042	0.004705	0.026868
O33	O	1.422032	-0.495259	-0.602169
O34	O	1.922032	0.004741	-0.102169
C35	C	1.223720	-0.338272	-0.527678
C36	C	1.723720	0.161728	-0.027678
C37	C	1.106942	-0.338286	-0.527694
C38	C	1.606942	0.161714	-0.027694
C39	C	1.484918	-0.520761	-0.539289
C40	C	1.984918	-0.020761	-0.039289
C41	C	1.479980	-0.598827	-0.544282
C42	C	1.979980	-0.098827	-0.044282
C43	C	1.049220	-0.383259	-0.597636
C44	C	1.549220	0.116741	-0.097636
C45	C	0.939495	-0.383261	-0.597657
C46	C	1.439495	0.116739	-0.097657
C47	C	0.945226	-0.293316	-0.457786
C48	C	1.445226	0.206684	0.042214
C49	C	1.054948	-0.293311	-0.457771
C50	C	1.554948	0.206689	0.042229
C51	C	1.544881	-0.635498	-0.479500
C52	C	2.044881	-0.135498	0.020500
C53	C	1.540243	-0.708849	-0.484203
C54	C	2.040243	-0.208849	0.015797
C55	C	1.470697	-0.745528	-0.553682
C56	C	1.970697	-0.245528	-0.053682
C57	C	1.405794	-0.708852	-0.618471
C58	C	1.905794	-0.208852	-0.118471
C59	C	1.410438	-0.635502	-0.613773
C60	C	1.910438	-0.135502	-0.113773
C61	C	1.453316	-0.966997	-0.571229
C62	C	1.953316	-0.466997	-0.071229
C63	C	1.448675	-1.040352	-0.575920
C64	C	1.948675	-0.540352	-0.075920
C65	C	1.583126	-1.040344	-0.441653
C66	C	2.083126	-0.540344	0.058347
C67	C	1.587759	-0.966993	-0.436957
C68	C	2.087759	-0.466993	0.063043
C69	C	1.522860	-0.930323	-0.501749
C70	C	2.022860	-0.430323	-0.001749
C71	C	1.465952	-0.820504	-0.558488
C72	C	1.965952	-0.320504	-0.058488
C73	C	1.527611	-0.855348	-0.496948
C74	C	2.027611	-0.355348	0.003052
C75	C	1.770719	-0.338290	-0.527721
C76	C	2.270719	0.161710	-0.027721
C77	C	1.887495	-0.338294	-0.527731
C78	C	2.387495	0.161706	-0.027731
C79	C	1.496769	-0.338214	-0.801728
C80	C	1.996769	0.161786	-0.301728
C81	C	1.496805	-0.338185	-0.918503
C82	C	1.996805	0.161815	-0.418503
C83	C	1.508529	-0.155088	-0.516087
C84	C	2.008529	0.344912	-0.016087
C85	C	1.513576	-0.077023	-0.511139
C86	C	2.013576	0.422977	-0.011139
C87	C	1.566910	-0.293259	-0.970524
C88	C	2.066910	0.206741	-0.470524
C89	C	1.566930	-0.293229	-1.080246
C90	C	2.066930	0.206771	-0.580246
C91	C	1.426735	-0.383056	-1.085917
C92	C	1.926735	0.116944	-0.585917
C93	C	1.426711	-0.383083	-0.976196
C94	C	1.926711	0.116917	-0.476196
C95	C	1.496667	-0.338298	-0.254733
C96	C	1.996667	0.161702	0.245267
C97	C	1.496848	-0.338128	-0.137946
C98	C	1.996848	0.161872	0.362054
H99	H	0.892502	-0.419882	-0.654611
H100	H	1.392502	0.080118	-0.154611
H101	H	1.644389	-0.937130	-0.380382
H102	H	2.144389	-0.437130	0.119618
H103	H	1.601508	-0.605639	-0.422919
H104	H	2.101508	-0.105639	0.077081
C105	C	1.635728	-1.152780	-0.389253
C106	C	2.135728	-0.652780	0.110747
C107	C	1.654479	-1.080653	-0.370455
C108	C	2.154479	-0.580653	0.129545
H109	H	1.679791	-1.177663	-0.345304
H110	H	2.179791	-0.677663	0.154696
H111	H	1.564394	-1.164849	-0.374572
H112	H	2.064394	-0.664849	0.125428
H113	H	1.650300	-1.164744	-0.460630
H114	H	2.150300	-0.664744	0.039370
H115	H	1.639899	-1.068688	-0.299079
H116	H	2.139899	-0.568688	0.200921
H117	H	1.725829	-1.068578	-0.385128
H118	H	2.225829	-0.568578	0.114872
C119	C	1.317213	-0.884582	-0.580416
C120	C	1.817213	-0.384582	-0.080416
C121	C	1.381974	-0.926689	-0.642435
C122	C	1.881974	-0.426689	-0.142435
H123	H	1.273173	-0.859692	-0.624378
H124	H	1.773173	-0.359692	-0.124378
H125	H	1.275238	-0.913244	-0.536450
H126	H	1.775238	-0.413244	-0.036450
H127	H	1.359312	-0.852245	-0.538371
H128	H	1.859312	-0.352245	-0.038371
H129	H	1.339875	-0.959030	-0.684474
H130	H	1.839875	-0.459030	-0.184474
H131	H	1.423953	-0.898025	-0.686419
H132	H	1.923953	-0.398025	-0.186419
H133	H	1.349173	-0.738721	-0.675047
H134	H	1.849173	-0.238721	-0.175047
H135	H	1.369615	-0.419666	-0.933840
H136	H	1.869615	0.080334	-0.433840
H137	H	0.902879	-0.256700	-0.400855
H138	H	1.402879	0.243300	0.099145
H139	H	1.357590	-0.605645	-0.666526
H140	H	1.857590	-0.105645	-0.166526
H141	H	1.623982	-0.256698	-0.923553
H142	H	2.123982	0.243302	-0.423553
C143	C	1.288155	-0.471848	-1.080500
C144	C	1.788155	0.028152	-0.580500
C145	C	1.349697	-0.432412	-1.149336
C146	C	1.849697	0.067588	-0.649336
H147	H	1.240592	-0.502316	-1.119653
H148	H	1.740592	-0.002316	-0.619653
H149	H	1.332182	-0.498724	-1.039416
H150	H	1.832182	0.001276	-0.539416
H151	H	1.249938	-0.441248	-1.035759
H152	H	1.749938	0.058752	-0.535759
H153	H	1.387920	-0.463012	-1.194073
H154	H	1.887920	0.036988	-0.694073
H155	H	1.305664	-0.405534	-1.190438
H156	H	1.805664	0.094466	-0.690438
H157	H	1.091550	-0.419879	-0.654575
H158	H	1.591550	0.080121	-0.154575
C159	C	1.381848	-1.152797	-0.642724
C160	C	1.881848	-0.652797	-0.142724
C161	C	1.372224	-1.080672	-0.652296
C162	C	1.872224	-0.580672	-0.152296
H163	H	1.334646	-1.177687	-0.689866
H164	H	1.834646	-0.677687	-0.189866
H165	H	1.451665	-1.164767	-0.658929
H166	H	1.951665	-0.664767	-0.158929
H167	H	1.365744	-1.164851	-0.572886
H168	H	1.865744	-0.664851	-0.072886
H169	H	1.388336	-1.068617	-0.722132
H170	H	1.888336	-0.568617	-0.222132
H171	H	1.302392	-1.068697	-0.636098
H172	H	1.802392	-0.568697	-0.136098
H173	H	1.624015	-0.256644	-1.122597
H174	H	2.124015	0.243356	-0.622597
H175	H	1.593091	-0.738703	-0.431450
H176	H	2.093091	-0.238703	0.068550
C177	C	1.049600	-0.204406	-0.319501
C178	C	1.549600	0.295594	0.180499
C179	C	1.118405	-0.243875	-0.380882
C180	C	1.618405	0.256125	0.119118
H181	H	1.088778	-0.173891	-0.272034
H182	H	1.588778	0.326109	0.227966
H183	H	1.008559	-0.177580	-0.363642
H184	H	1.508559	0.322420	0.136358
H185	H	1.004811	-0.234984	-0.281186
H186	H	1.504811	0.265016	0.218814
H187	H	1.163189	-0.213297	-0.419203
H188	H	1.663189	0.286703	0.080797
H189	H	1.159465	-0.270703	-0.336735
H190	H	1.659465	0.229297	0.163265
H191	H	1.584239	-0.825482	-0.440382
H192	H	2.084239	-0.325482	0.059618
H193	H	1.409326	-0.850376	-0.615056
H194	H	1.909326	-0.350376	-0.115056
