data_functionalizedCrystal
_audit_creation_method	'MofGen! by Chris Wilmer'
_symmetry_space_group_name_H-M	'P1'
_symmetry_Int_Tables_number	1
_symmetry_cell_setting	triclinic
loop_
_symmetry_equiv_pos_as_xyz
  x,y,z
_cell_length_a	13.897448
_cell_length_b	12.759401
_cell_length_c	12.759393
_cell_angle_alpha	90.019559
_cell_angle_beta	89.966654
_cell_angle_gamma	89.984158
loop_
_atom_site_label
_atom_site_type_symbol
_atom_site_fract_x
_atom_site_fract_y
_atom_site_fract_z
Zn1	Zn	-0.384006	-1.606234	-0.593998
Zn2	Zn	-0.545335	-1.606119	-0.418313
Zn3	Zn	-0.384050	-1.430535	-0.418334
Zn4	Zn	-0.545255	-1.430515	-0.593951
O5	O	-0.464662	-1.518351	-0.506149
O6	O	-0.405421	-1.753239	-0.570704
O7	O	-0.523993	-1.582788	-0.271294
O8	O	-0.249063	-1.453899	-0.441665
O9	O	-0.523949	-1.753155	-0.441629
O10	O	-0.249030	-1.582983	-0.570725
O11	O	-0.405497	-1.453788	-0.271310
O12	O	-0.405420	-1.283512	-0.441619
O13	O	-0.523813	-1.453864	-0.740978
O14	O	-0.523856	-1.283497	-0.570644
O15	O	-0.405344	-1.582964	-0.741013
O16	O	-0.680306	-1.582768	-0.441583
O17	O	-0.680247	-1.453753	-0.570623
C18	C	-0.464635	-1.245383	-0.506130
C19	C	-0.464647	-1.128607	-0.506146
C20	C	-0.526414	-1.073764	-0.573217
C21	C	-0.526422	-0.964040	-0.573227
C22	C	-0.402895	-0.964011	-0.439085
C23	C	-0.402882	-1.073733	-0.439082
C24	C	-0.597734	-1.073780	-0.650660
C25	C	-0.597743	-0.964056	-0.650669
C26	C	-0.715276	-1.518274	-0.506119
C27	C	-0.822490	-1.518337	-0.506141
C28	C	-1.018785	-1.518448	-0.506207
C29	C	-0.909552	-1.518383	-0.506173
C30	C	-0.213069	-1.518456	-0.506203
C31	C	-0.105855	-1.518501	-0.506225
C32	C	-0.464564	-1.518424	-0.780182
C33	C	-0.464523	-1.518456	-0.896959
C34	C	-0.464681	-0.792384	-0.506164
C35	C	-0.464668	-0.909161	-0.506159
C36	C	-0.402830	-1.585687	-0.951841
C37	C	-0.402795	-1.585712	-1.061565
C38	C	-0.526154	-1.451271	-1.061516
C39	C	-0.526184	-1.451242	-0.951794
C40	C	-0.331612	-1.663309	-0.951870
C41	C	-0.331577	-1.663334	-1.061594
C42	C	-0.464689	-1.518338	-0.233182
C43	C	-0.464459	-1.518510	-0.116406
H44	H	-0.571076	-0.930060	-0.728022
C45	C	-0.230705	-1.633902	-0.911662
H46	H	-0.230729	-1.633895	-0.837204
H47	H	-0.214000	-1.566117	-0.936471
H48	H	-0.185135	-1.683572	-0.936492
C49	C	-0.698631	-0.923791	-0.621032
H50	H	-0.740113	-0.981689	-0.608825
H51	H	-0.723517	-0.882451	-0.676675
H52	H	-0.694499	-0.882404	-0.559292
C53	C	-0.594027	-1.377268	-0.891427
H54	H	-0.630746	-1.337247	-0.939802
H55	H	-0.557120	-1.331505	-0.848639
H56	H	-0.636084	-1.417417	-0.848609
H57	H	-0.576354	-1.396546	-1.106176
C58	C	-0.693548	-1.119739	-0.611110
H59	H	-0.690270	-1.194100	-0.612451
H60	H	-0.744491	-1.096757	-0.655075
H61	H	-0.704983	-1.096725	-0.541389
C62	C	-0.367779	-1.767694	-0.905883
H63	H	-0.383860	-1.814201	-0.961330
H64	H	-0.423110	-1.755176	-0.863958
H65	H	-0.318667	-1.798114	-0.864001
H66	H	-0.260598	-1.634224	-1.095644
C67	C	-0.334960	-0.903651	-0.365316
H68	H	-0.298167	-0.952031	-0.325375
H69	H	-0.371808	-0.860820	-0.319470
H70	H	-0.292976	-0.860877	-0.405598
C71	C	-0.334936	-1.134056	-0.365307
H72	H	-0.298163	-1.085658	-0.325361
H73	H	-0.292950	-1.176884	-0.405575
H74	H	-0.371785	-1.176832	-0.319450
C75	C	-0.570817	-1.114059	-0.760627
H76	H	-0.559745	-1.056166	-0.805853
H77	H	-0.621969	-1.155421	-0.787562
H78	H	-0.514112	-1.155427	-0.756304
H79	H	-0.351588	-1.744703	-1.091374
