data_functionalizedCrystal
_audit_creation_method	'MofGen! by Chris Wilmer'
_symmetry_space_group_name_H-M	'P1'
_symmetry_Int_Tables_number	1
_symmetry_cell_setting	triclinic
loop_
_symmetry_equiv_pos_as_xyz
  x,y,z
_cell_length_a	21.295418
_cell_length_b	21.295418
_cell_length_c	16.959447
_cell_angle_alpha	89.972529
_cell_angle_beta	89.962187
_cell_angle_gamma	90.044200
loop_
_atom_site_label
_atom_site_type_symbol
_atom_site_fract_x
_atom_site_fract_y
_atom_site_fract_z
Zn1	Zn	0.962328	-0.250353	-0.447333
Zn2	Zn	1.462328	0.249647	0.052667
Zn3	Zn	0.962245	-0.355623	-0.315153
Zn4	Zn	1.462245	0.144377	0.184847
Zn5	Zn	0.857062	-0.250401	-0.315124
Zn6	Zn	1.357062	0.249599	0.184876
Zn7	Zn	0.857025	-0.355618	-0.447245
Zn8	Zn	1.357025	0.144382	0.052755
O9	O	0.909665	-0.302999	-0.381214
O10	O	1.409665	0.197001	0.118786
O11	O	1.050407	-0.264300	-0.429849
O12	O	1.550407	0.235700	0.070151
O13	O	0.948274	-0.341688	-0.204538
O14	O	1.448274	0.158312	0.295462
O15	O	0.871076	-0.162305	-0.332687
O16	O	1.371076	0.337695	0.167313
O17	O	1.050346	-0.341641	-0.332736
O18	O	1.550346	0.158359	0.167264
O19	O	0.948415	-0.162270	-0.429820
O20	O	1.448415	0.337730	0.070180
O21	O	0.870996	-0.264381	-0.204517
O22	O	1.370996	0.235619	0.295483
O23	O	0.768968	-0.264376	-0.332601
O24	O	1.268968	0.235624	0.167399
O25	O	0.871012	-0.341631	-0.557868
O26	O	1.371012	0.158369	-0.057868
O27	O	0.768940	-0.341678	-0.429670
O28	O	1.268940	0.158322	0.070330
O29	O	0.948378	-0.264294	-0.557933
O30	O	1.448378	0.235706	-0.057933
O31	O	0.948237	-0.443712	-0.332651
O32	O	1.448237	0.056288	0.167349
O33	O	0.870932	-0.443708	-0.429698
O34	O	1.370932	0.056292	0.070302
C35	C	0.746114	-0.303032	-0.381123
C36	C	1.246114	0.196968	0.118877
C37	C	0.676145	-0.303061	-0.381103
C38	C	1.176145	0.196939	0.118897
C39	C	0.909589	-0.466550	-0.381185
C40	C	1.409589	0.033450	0.118815
C41	C	0.909614	-0.536518	-0.381199
C42	C	1.409614	-0.036518	0.118801
C43	C	0.950014	-1.035905	-0.431893
C44	C	1.450014	-0.535905	0.068107
C45	C	0.949995	-0.970162	-0.431880
C46	C	1.449995	-0.470162	0.068120
C47	C	0.909751	-0.937358	-0.381263
C48	C	1.409751	-0.437358	0.118737
C49	C	0.869534	-0.970301	-0.330641
C50	C	1.369534	-0.470301	0.169359
C51	C	0.869558	-1.036043	-0.330649
C52	C	1.369558	-0.536043	0.169351
N53	N	0.854614	-0.834204	-0.375099
N54	N	1.354614	-0.334204	0.124901
N55	N	0.854593	-0.771752	-0.375096
N56	N	1.354593	-0.271752	0.124904
C57	C	0.909677	-0.739283	-0.381234
C58	C	1.409677	-0.239283	0.118766
N59	N	0.964784	-0.771625	-0.387391
N60	N	1.464784	-0.271625	0.112609
N61	N	0.964804	-0.834082	-0.387398
N62	N	1.464804	-0.334082	0.112602
C63	C	0.909721	-0.866072	-0.381248
C64	C	1.409721	-0.366072	0.118752
C65	C	0.949875	-0.635062	-0.431836
C66	C	1.449875	-0.135062	0.068164
C67	C	0.949858	-0.569318	-0.431818
C68	C	1.449858	-0.069318	0.068182
C69	C	0.869390	-0.569459	-0.330582
C70	C	1.369390	-0.069459	0.169418
C71	C	0.869413	-0.635201	-0.330596
C72	C	1.369413	-0.135201	0.169404
C73	C	0.909655	-0.667999	-0.381227
C74	C	1.409655	-0.167999	0.118773
C75	C	0.643281	-0.343366	-0.431571
C76	C	1.143281	0.156634	0.068429
C77	C	0.577538	-0.343350	-0.431606
C78	C	1.077538	0.156650	0.068394
C79	C	0.544663	-0.303037	-0.381160
C80	C	1.044663	0.196963	0.118840
C81	C	0.577535	-0.262724	-0.330688
C82	C	1.077535	0.237276	0.169312
C83	C	0.643277	-0.262737	-0.330660
C84	C	1.143277	0.237263	0.169340
N85	N	0.441392	-0.298119	-0.312025
N86	N	0.941392	0.201881	0.187975
N87	N	0.378941	-0.298111	-0.312054
N88	N	0.878941	0.201889	0.187946
C89	C	0.346588	-0.302997	-0.381243
C90	C	0.846588	0.197003	0.118757
N91	N	0.379046	-0.307902	-0.450404
N92	N	0.879046	0.192098	0.049596
N93	N	0.441503	-0.307914	-0.450373
N94	N	0.941503	0.192086	0.049627
C95	C	0.473378	-0.303019	-0.381185
C96	C	0.973378	0.196981	0.118815
C97	C	0.242438	-0.343286	-0.431754
C98	C	0.742438	0.156714	0.068246
C99	C	0.176695	-0.343267	-0.431791
C100	C	0.676695	0.156733	0.068209
C101	C	0.176693	-0.262644	-0.330866
C102	C	0.676693	0.237356	0.169134
C103	C	0.242435	-0.262661	-0.330836
C104	C	0.742435	0.237339	0.169164
C105	C	0.275304	-0.302985	-0.381279
C106	C	0.775304	0.197015	0.118721
C107	C	1.073855	-0.302966	-0.381306
C108	C	1.573855	0.197034	0.118694
C109	C	1.143824	-0.302952	-0.381345
C110	C	1.643824	0.197048	0.118655
C111	C	0.909700	-0.302957	-0.587382
C112	C	1.409700	0.197043	-0.087382
C113	C	0.909716	-0.302939	-0.675239
C114	C	1.409716	0.197061	-0.175239
C115	C	0.909759	-0.138808	-0.381260
C116	C	1.409759	0.361192	0.118740
C117	C	0.909799	-0.068840	-0.381280
C118	C	1.409799	0.431160	0.118720
C119	C	0.869442	-0.343197	-0.716481
C120	C	1.369442	0.156803	-0.216481
C121	C	0.949999	-0.262660	-0.716551
C122	C	1.449999	0.237340	-0.216551
C123	C	0.950012	-0.262639	-0.799097
C124	C	1.450012	0.237361	-0.299097
C125	C	0.909739	-0.302898	-0.840338
C126	C	1.409739	0.197102	-0.340338
C127	C	0.869453	-0.343176	-0.799034
C128	C	1.369453	0.156824	-0.299034
C129	C	0.990293	-0.222357	-0.840407
C130	C	1.490293	0.277643	-0.340407
C131	C	0.990307	-0.222334	-0.922958
C132	C	1.490307	0.277666	-0.422958
C133	C	0.950037	-0.262596	-0.964201
C134	C	1.450037	0.237404	-0.464201
C135	C	0.909750	-0.302877	-0.922892
C136	C	1.409750	0.197123	-0.422892
C137	C	0.869477	-0.343135	-0.964134
C138	C	1.369477	0.156865	-0.464134
C139	C	0.829192	-0.383420	-0.922826
C140	C	1.329192	0.116580	-0.422826
C141	C	0.829183	-0.383438	-0.840277
C142	C	1.329183	0.116562	-0.340277
C143	C	0.950046	-0.262577	-1.046750
C144	C	1.450046	0.237423	-0.546750
C145	C	0.869487	-0.343114	-1.046687
C146	C	1.369487	0.156886	-0.546687
C147	C	0.909666	-0.302995	-0.175848
C148	C	1.409666	0.197005	0.324152
C149	C	0.909773	-0.302836	-0.087992
C150	C	1.409773	0.197164	0.412008
H151	H	0.982787	-1.062605	-0.473114
H152	H	1.482787	-0.562605	0.026886
H153	H	0.982841	-0.229773	-1.080379
H154	H	1.482841	0.270227	-0.580379
H155	H	0.149926	-0.229817	-0.289795
H156	H	0.649926	0.270183	0.210205
F157	F	0.786328	-0.426260	-0.966728
F158	F	1.286328	0.073740	-0.466728
H159	H	0.550764	-0.229900	-0.289615
H160	H	1.050764	0.270100	0.210385
H161	H	0.836645	-0.375998	-0.682844
H162	H	1.336645	0.124002	-0.182844
H163	H	0.982744	-0.943341	-0.473097
H164	H	1.482744	-0.443341	0.026903
F165	F	0.826705	-0.935388	-0.276768
F166	F	1.326705	-0.435388	0.223232
F167	F	0.992665	-0.534266	-0.485686
F168	F	1.492665	-0.034266	0.014314
H169	H	0.982785	-0.229881	-0.682967
H170	H	1.482785	0.270119	-0.182967
F171	F	0.678258	-0.386281	-0.485260
F172	F	1.178258	0.113719	0.014740
F173	F	0.826563	-0.534550	-0.276705
F174	F	1.326563	-0.034550	0.223295
F175	F	0.678255	-0.219837	-0.276942
F176	F	1.178255	0.280163	0.223058
F177	F	0.786309	-0.426305	-0.796310
F178	F	1.286309	0.073695	-0.296310
F179	F	0.542554	-0.386249	-0.485324
F180	F	1.042554	0.113751	0.014676
F181	F	0.826753	-1.071096	-0.276778
F182	F	1.326753	-0.571096	0.223222
H183	H	0.836664	-0.662018	-0.289385
H184	H	1.336664	-0.162018	0.210615
F185	F	0.992708	-0.669970	-0.485714
F186	F	1.492708	-0.169970	0.014286
H187	H	0.269201	-0.376118	-0.472832
H188	H	0.769201	0.123882	0.027168
H189	H	0.149937	-0.376086	-0.472893
H190	H	0.649937	0.123914	0.027107
H191	H	0.269194	-0.229844	-0.289735
H192	H	0.769194	0.270156	0.210265
H193	H	1.023079	-0.189579	-0.806822
H194	H	1.523079	0.310421	-0.306822
H195	H	0.836694	-0.375900	-1.080260
H196	H	1.336694	0.124100	-0.580260
F197	F	1.033192	-0.179471	-0.966914
F198	F	1.533192	0.320529	-0.466914
