data_functionalizedCrystal
_audit_creation_method	'MofGen! by Chris Wilmer'
_symmetry_space_group_name_H-M	'P1'
_symmetry_Int_Tables_number	1
_symmetry_cell_setting	triclinic
loop_
_symmetry_equiv_pos_as_xyz
  x,y,z
_cell_length_a	10.654541
_cell_length_b	13.101018
_cell_length_c	10.654545
_cell_angle_alpha	86.606245
_cell_angle_beta	84.484678
_cell_angle_gamma	93.393545
loop_
_atom_site_label
_atom_site_type_symbol
_atom_site_fract_x
_atom_site_fract_y
_atom_site_fract_z
O1	O	1.674698	0.085178	0.169521
O2	O	1.309220	0.085186	0.186330
O3	O	1.500361	0.085181	-0.004814
O4	O	1.483557	0.085183	0.360665
O5	O	1.486631	-0.085249	0.008913
O6	O	1.295490	-0.085244	0.200056
O7	O	1.660968	-0.085252	0.183247
Zn8	Zn	1.476049	-0.112307	0.193831
Zn9	Zn	1.494139	0.112241	0.175746
O10	O	1.469827	-0.085247	0.374391
C11	C	1.255557	-0.000028	0.191959
C12	C	1.116114	-0.000024	0.188268
C13	C	1.088145	-0.000010	0.416832
C14	C	1.008652	0.000001	0.529374
C15	C	0.877634	0.000002	0.525898
C16	C	0.826107	-0.000012	0.409868
C17	C	0.905600	-0.000023	0.297326
C18	C	1.036620	-0.000021	0.300814
C19	C	0.933568	-0.000044	0.068766
C20	C	1.064587	-0.000038	0.072238
C21	C	0.882041	-0.000057	-0.047264
C22	C	0.961535	-0.000061	-0.159810
C23	C	1.092561	-0.000061	-0.156329
C24	C	1.144080	-0.000049	-0.040304
N25	N	1.463713	-0.265556	0.206173
C26	C	1.523264	-0.525467	0.146598
C27	C	1.446939	-0.474592	0.222965
C28	C	1.456274	-0.358274	0.213620
C29	C	1.513930	-0.641796	0.155942
C30	C	1.714631	-0.000036	0.177618
C31	C	1.854075	-0.000033	0.181308
C32	C	1.492262	-0.000032	-0.044749
C33	C	1.488570	-0.000026	-0.184192
N34	N	1.506486	0.265490	0.163394
C35	C	1.503554	0.185782	-0.199166
C36	C	1.509316	0.278686	-0.272162
C37	C	1.505847	0.278687	-0.403181
C38	C	1.496612	0.185775	-0.461205
C39	C	1.490850	0.092871	-0.388209
C40	C	1.494323	0.092880	-0.257188
C41	C	1.475857	-0.092935	-0.373234
C42	C	1.479335	-0.092938	-0.242216
C43	C	1.466621	-0.185847	-0.431259
C44	C	1.460868	-0.278753	-0.358263
C45	C	1.464339	-0.278750	-0.227237
C46	C	1.473573	-0.185842	-0.169220
C47	C	1.477926	-0.000032	0.414326
C48	C	1.481619	-0.000031	0.553769
H49	H	0.919571	-0.000071	-0.254272
N50	N	0.740731	-0.000047	-0.051016
H51	H	0.720154	-0.000056	-0.141593
H52	H	0.698678	-0.063220	-0.001826
H53	H	1.493772	0.185784	-0.567887
H54	H	1.157277	-0.000074	-0.247975
H55	H	1.050620	0.000009	0.623844
H56	H	1.453341	-0.354395	-0.405516
N57	N	1.351097	-0.532605	0.318871
H58	H	1.263292	-0.514008	0.302167
H59	H	1.358041	-0.608662	0.311991
H60	H	1.250761	-0.000037	-0.037460
N61	N	1.619082	-0.467457	0.050680
H62	H	1.612241	-0.391383	0.057511
H63	H	1.706848	-0.486126	0.067418
H64	H	1.516834	0.354333	-0.224904
H65	H	1.463790	-0.185839	-0.537941
N66	N	1.458115	-0.378955	-0.148506
H67	H	1.451737	-0.437807	-0.205149
H68	H	1.536948	-0.383015	-0.103325
N69	N	0.791901	-0.000004	0.647289
H70	H	0.813671	0.063174	0.692772
H71	H	0.701113	-0.000048	0.627385
H72	H	1.510527	0.354337	-0.462614
N73	N	1.229458	0.000007	0.420578
H74	H	1.250038	0.000021	0.511154
H75	H	1.261334	-0.063177	0.381586
N76	N	0.684794	-0.000040	0.406117
H77	H	0.642254	-0.000041	0.495018
H78	H	0.663900	0.063132	0.355261
N79	N	1.507319	0.185780	-0.057856
H80	H	1.514048	0.258733	-0.032175
H81	H	1.427489	0.149268	-0.013941
N82	N	1.477313	-0.185851	-0.027907
H83	H	1.558808	-0.149385	-0.008783
H84	H	1.403320	-0.149386	0.010121
