data_functionalizedCrystal
_audit_creation_method	'MofGen! by Chris Wilmer'
_symmetry_space_group_name_H-M	'P1'
_symmetry_Int_Tables_number	1
_symmetry_cell_setting	triclinic
loop_
_symmetry_equiv_pos_as_xyz
  x,y,z
_cell_length_a	29.839131
_cell_length_b	19.805407
_cell_length_c	19.805398
_cell_angle_alpha	90.018017
_cell_angle_beta	89.972098
_cell_angle_gamma	89.957352
loop_
_atom_site_label
_atom_site_type_symbol
_atom_site_fract_x
_atom_site_fract_y
_atom_site_fract_z
Zn1	Zn	-0.178856	-1.034640	-0.382749
Zn2	Zn	0.154477	-0.701307	-0.049416
Zn3	Zn	0.487810	-0.367974	0.283918
Zn4	Zn	-0.253982	-1.034533	-0.269557
Zn5	Zn	0.079352	-0.701200	0.063776
Zn6	Zn	0.412685	-0.367866	0.397110
Zn7	Zn	-0.178868	-0.921462	-0.269569
Zn8	Zn	0.154465	-0.588129	0.063764
Zn9	Zn	0.487798	-0.254796	0.397097
Zn10	Zn	-0.253962	-0.921389	-0.382699
Zn11	Zn	0.079372	-0.588056	-0.049366
Zn12	Zn	0.412705	-0.254722	0.283967
O13	O	-0.216417	-0.978006	-0.326144
O14	O	0.116916	-0.644673	0.007190
O15	O	0.450250	-0.311339	0.340523
O16	O	-0.188825	-1.129343	-0.367750
O17	O	0.144508	-0.796009	-0.034416
O18	O	0.477841	-0.462676	0.298917
O19	O	-0.244031	-1.019520	-0.174842
O20	O	0.089302	-0.686186	0.158491
O21	O	0.422635	-0.352853	0.491825
O22	O	-0.116000	-0.936551	-0.284609
O23	O	0.217334	-0.603218	0.048724
O24	O	0.550667	-0.269885	0.382058
O25	O	-0.244020	-1.129264	-0.284588
O26	O	0.089314	-0.795930	0.048746
O27	O	0.422647	-0.462597	0.382079
O28	O	-0.115991	-1.019703	-0.367762
O29	O	0.217343	-0.686369	-0.034428
O30	O	0.550676	-0.353036	0.298905
O31	O	-0.188846	-0.936447	-0.174851
O32	O	0.144488	-0.603114	0.158482
O33	O	0.477821	-0.269780	0.491815
O34	O	-0.188826	-0.826736	-0.284561
O35	O	0.144507	-0.493403	0.048772
O36	O	0.477841	-0.160069	0.382106
O37	O	-0.243985	-0.936426	-0.477423
O38	O	0.089348	-0.603093	-0.144089
O39	O	0.422681	-0.269759	0.189244
O40	O	-0.243997	-0.826682	-0.367677
O41	O	0.089336	-0.493349	-0.034344
O42	O	0.422670	-0.160015	0.298990
O43	O	-0.188806	-1.019632	-0.477459
O44	O	0.144527	-0.686298	-0.144126
O45	O	0.477861	-0.352965	0.189207
O46	O	-0.316846	-1.019448	-0.284540
O47	O	0.016487	-0.686115	0.048794
O48	O	0.349820	-0.352782	0.382127
O49	O	-0.316832	-0.936322	-0.367665
O50	O	0.016502	-0.602989	-0.034332
O51	O	0.349835	-0.269655	0.299002
C52	C	-0.216411	-0.802150	-0.326115
C53	C	0.116922	-0.468817	0.007218
C54	C	0.450256	-0.135483	0.340551
C55	C	-0.216419	-0.726918	-0.326119
C56	C	0.116914	-0.393585	0.007214
C57	C	0.450248	-0.060251	0.340548
C58	C	-0.187725	-0.265172	-0.369522
C59	C	0.145608	0.068162	-0.036189
C60	C	0.478941	0.401495	0.297144
C61	C	-0.187727	-0.335860	-0.369519
C62	C	0.145607	-0.002527	-0.036186
C63	C	0.478940	0.330807	0.297148
C64	C	-0.216419	-0.371156	-0.326152
C65	C	0.116914	-0.037823	0.007182
C66	C	0.450248	0.295510	0.340515
C67	C	-0.245115	-0.335761	-0.282790
C68	C	0.088219	-0.002427	0.050544
C69	C	0.421552	0.330906	0.383877
C70	C	-0.245115	-0.265073	-0.282797
C71	C	0.088218	0.068260	0.050536
C72	C	0.421551	0.401593	0.383870
C73	C	-0.245114	-0.620834	-0.282760
C74	C	0.088220	-0.287500	0.050573
C75	C	0.421553	0.045833	0.383906
C76	C	-0.245110	-0.691526	-0.282755
C77	C	0.088223	-0.358193	0.050578
C78	C	0.421557	-0.024859	0.383912
C79	C	-0.187725	-0.691620	-0.369483
C80	C	0.145608	-0.358287	-0.036149
C81	C	0.478942	-0.024954	0.297184
C82	C	-0.187726	-0.620933	-0.369490
C83	C	0.145608	-0.287600	-0.036156
C84	C	0.478941	0.045733	0.297177
C85	C	-0.216423	-0.585544	-0.326131
C86	C	0.116910	-0.252210	0.007203
C87	C	0.450244	0.081123	0.340536
C88	C	-0.216422	-0.508895	-0.326135
C89	C	0.116912	-0.175562	0.007198
C90	C	0.450245	0.157771	0.340531
C91	C	-0.216418	-0.447803	-0.326143
C92	C	0.116915	-0.114470	0.007191
C93	C	0.450248	0.218863	0.340524
C94	C	-0.333140	-0.977884	-0.326110
C95	C	0.000194	-0.644551	0.007223
C96	C	0.333527	-0.311217	0.340556
C97	C	-0.383074	-0.977893	-0.326118
C98	C	-0.049741	-0.644560	0.007215
C99	C	0.283593	-0.311227	0.340548
C100	C	-0.692712	-1.021369	-0.282924
C101	C	-0.359379	-0.688035	0.050410
C102	C	-0.026046	-0.354702	0.383743
C103	C	-0.880385	-1.021452	-0.282950
C104	C	-0.547052	-0.688119	0.050383
C105	C	-0.213719	-0.354786	0.383717
O106	O	-0.904646	-1.058319	-0.246198
O107	O	-0.571313	-0.724986	0.087135
O108	O	-0.237979	-0.391653	0.420468
N109	N	-0.903859	-0.978146	-0.326195
N110	N	-0.570526	-0.644813	0.007139
N111	N	-0.237192	-0.311480	0.340472
C112	C	-0.880412	-0.934820	-0.369439
C113	C	-0.547078	-0.601486	-0.036106
C114	C	-0.213745	-0.268153	0.297227
O115	O	-0.904683	-0.897992	-0.406227
O116	O	-0.571350	-0.564659	-0.072894
O117	O	-0.238017	-0.231326	0.260439
C118	C	-0.692739	-0.934740	-0.369416
C119	C	-0.359406	-0.601407	-0.036083
C120	C	-0.026073	-0.268073	0.297251
C121	C	-0.669268	-0.978044	-0.326163
C122	C	-0.335935	-0.644711	0.007170
C123	C	-0.002602	-0.311377	0.340503
C124	C	-0.669241	-1.064669	-0.239675
C125	C	-0.335908	-0.731336	0.093658
C126	C	-0.002575	-0.398003	0.426991
C127	C	-0.622326	-1.064646	-0.239666
C128	C	-0.288992	-0.731312	0.093667
C129	C	0.044341	-0.397979	0.427000
C130	C	-0.598882	-1.021321	-0.282906
C131	C	-0.265548	-0.687987	0.050427
C132	C	0.067785	-0.354654	0.383760
C133	C	-0.622353	-0.978020	-0.326155
C134	C	-0.289019	-0.644687	0.007179
C135	C	0.044314	-0.311353	0.340512
C136	C	-0.669293	-0.891417	-0.412663
C137	C	-0.335959	-0.558084	-0.079330
C138	C	-0.002626	-0.224751	0.254003
C139	C	-0.622372	-0.891403	-0.412655
C140	C	-0.289038	-0.558069	-0.079322
C141	C	0.044295	-0.224736	0.254012
C142	C	-0.598900	-0.934706	-0.369402
C143	C	-0.265567	-0.601373	-0.036069
C144	C	0.067766	-0.268040	0.297264
C145	C	-0.551993	-0.934671	-0.369386
C146	C	-0.218660	-0.601338	-0.036052
C147	C	0.114674	-0.268005	0.297281
N148	N	-0.528519	-0.977977	-0.326141
N149	N	-0.195186	-0.644644	0.007192
N150	N	0.138147	-0.311311	0.340526
C151	C	-0.551964	-1.021302	-0.282901
C152	C	-0.218630	-0.687969	0.050432
C153	C	0.114703	-0.354635	0.383766
C154	C	-0.978942	-0.934864	-0.369448
C155	C	-0.645609	-0.601530	-0.036114
C156	C	-0.312275	-0.268197	0.297219
C157	C	-1.025860	-0.934883	-0.369453
C158	C	-0.692527	-0.601549	-0.036119
C159	C	-0.359193	-0.268216	0.297214
C160	C	-1.025831	-1.021516	-0.282964
C161	C	-0.692497	-0.688183	0.050369
C162	C	-0.359164	-0.354849	0.383703
C163	C	-0.978912	-1.021493	-0.282956
C164	C	-0.645579	-0.688160	0.050377
C165	C	-0.312245	-0.354827	0.383711
C166	C	-0.955469	-0.978170	-0.326203
C167	C	-0.622135	-0.644836	0.007131
C168	C	-0.288802	-0.311503	0.340464
C169	C	-0.453438	-1.021248	-0.282886
C170	C	-0.120105	-0.687915	0.050448
C171	C	0.213229	-0.354581	0.383781
C172	C	-0.406518	-1.021218	-0.282879
C173	C	-0.073185	-0.687885	0.050455
C174	C	0.260148	-0.354552	0.383788
C175	C	-0.406552	-0.934588	-0.369370
C176	C	-0.073218	-0.601254	-0.036036
C177	C	0.260115	-0.267921	0.297297
C178	C	-0.453467	-0.934614	-0.369374
C179	C	-0.120134	-0.601281	-0.036041
C180	C	0.213199	-0.267948	0.297292
C181	C	-0.476909	-0.977950	-0.326130
C182	C	-0.143576	-0.644617	0.007203
C183	C	0.189758	-0.311283	0.340537
O184	O	-0.527704	-0.897829	-0.406123
O185	O	-0.194370	-0.564495	-0.072790
O186	O	0.138963	-0.231162	0.260543
O187	O	-0.527684	-1.058134	-0.246129
O188	O	-0.194350	-0.724801	0.087204
O189	O	0.138983	-0.391468	0.420537
C190	C	-0.739628	-1.021393	-0.282932
C191	C	-0.406295	-0.688059	0.050401
C192	C	-0.072961	-0.354726	0.383734
C193	C	-0.763099	-0.978092	-0.326181
C194	C	-0.429766	-0.644758	0.007152
C195	C	-0.096432	-0.311425	0.340486
C196	C	-0.739655	-0.934767	-0.369421
C197	C	-0.406321	-0.601434	-0.036087
C198	C	-0.072988	-0.268100	0.297246
C199	C	-0.810017	-0.978111	-0.326186
C200	C	-0.476684	-0.644777	0.007147
C201	C	-0.143350	-0.311444	0.340481
C202	C	-0.833461	-1.021435	-0.282946
C203	C	-0.500128	-0.688102	0.050387
C204	C	-0.166794	-0.354769	0.383720
C205	C	-0.809988	-1.064741	-0.239701
C206	C	-0.476654	-0.731408	0.093632
C207	C	-0.143321	-0.398075	0.426965
C208	C	-0.763072	-1.064717	-0.239693
C209	C	-0.429739	-0.731384	0.093641
C210	C	-0.096405	-0.398051	0.426974
C211	C	-0.763128	-0.891461	-0.412666
C212	C	-0.429795	-0.558128	-0.079332
C213	C	-0.096462	-0.224795	0.254001
C214	C	-0.810044	-0.891488	-0.412670
C215	C	-0.476711	-0.558155	-0.079337
C216	C	-0.143377	-0.224822	0.253996
C217	C	-0.833488	-0.934813	-0.369430
C218	C	-0.500155	-0.601480	-0.036097
C219	C	-0.166821	-0.268146	0.297236
C220	C	-0.099239	-0.978147	-0.326192
C221	C	0.234095	-0.644814	0.007141
C222	C	0.567428	-0.311481	0.340474
C223	C	-0.049304	-0.978207	-0.326213
C224	C	0.284029	-0.644874	0.007120
C225	C	0.617362	-0.311541	0.340454
C226	C	-0.216392	-0.978033	-0.502687
C227	C	0.116941	-0.644699	-0.169353
C228	C	0.450275	-0.311366	0.163980
C229	C	-0.216382	-0.978044	-0.577919
C230	C	0.116952	-0.644711	-0.244585
C231	C	0.450285	-0.311377	0.088748
C232	C	-0.216421	-0.154549	-0.326167
C233	C	0.116912	0.178785	0.007166
C234	C	0.450245	0.512118	0.340500
C235	C	-0.216418	-0.229781	-0.326162
C236	C	0.116915	0.103553	0.007171
C237	C	0.450249	0.436886	0.340505
C238	C	-0.187570	-1.021451	-1.039730
C239	C	0.145763	-0.688117	-0.706397
C240	C	0.479097	-0.354784	-0.373063
C241	C	-0.187584	-1.021440	-0.969041
C242	C	0.145750	-0.688107	-0.635708
C243	C	0.479083	-0.354773	-0.302375
C244	C	-0.216319	-0.978113	-0.933681
C245	C	0.117014	-0.644780	-0.600347
C246	C	0.450348	-0.311447	-0.267014
C247	C	-0.245046	-0.934799	-0.969012
C248	C	0.088288	-0.601466	-0.635678
C249	C	0.421621	-0.268133	-0.302345
C250	C	-0.245034	-0.934814	-1.039699
C251	C	0.088299	-0.601481	-0.706366
C252	C	0.421633	-0.268147	-0.373032
C253	C	-0.245094	-0.934741	-0.683938
C254	C	0.088239	-0.601407	-0.350605
C255	C	0.421572	-0.268074	-0.017272
C256	C	-0.245103	-0.934728	-0.613246
C257	C	0.088230	-0.601395	-0.279913
C258	C	0.421564	-0.268061	0.053421
C259	C	-0.187644	-1.021367	-0.613281
C260	C	0.145689	-0.688033	-0.279947
C261	C	0.479022	-0.354700	0.053386
C262	C	-0.187633	-1.021381	-0.683968
C263	C	0.145701	-0.688048	-0.350635
C264	C	0.479034	-0.354714	-0.017301
C265	C	-0.216361	-0.978070	-0.719293
C266	C	0.116973	-0.644737	-0.385960
C267	C	0.450306	-0.311403	-0.052626
C268	C	-0.216346	-0.978083	-0.795941
C269	C	0.116987	-0.644750	-0.462608
C270	C	0.450321	-0.311416	-0.129275
C271	C	-0.216332	-0.978097	-0.857033
C272	C	0.117002	-0.644763	-0.523700
C273	C	0.450335	-0.311430	-0.190367
C274	C	-0.216409	-0.978019	-0.150288
C275	C	0.116924	-0.644685	0.183046
C276	C	0.450257	-0.311352	0.516379
C277	C	-0.216293	-0.978138	-0.075056
C278	C	0.117040	-0.644805	0.258277
C279	C	0.450373	-0.311472	0.591610
H280	H	-0.268478	-0.364504	-0.247482
H281	H	0.064855	-0.031171	0.085851
H282	H	0.398188	0.302162	0.419185
H283	H	-0.268444	-0.899525	-0.940215
H284	H	0.064889	-0.566192	-0.606882
H285	H	0.398222	-0.232858	-0.273549
H286	H	-0.268481	-0.236259	-0.247490
H287	H	0.064853	0.097074	0.085843
H288	H	0.398186	0.430408	0.419177
N289	N	-0.156773	-0.374042	-0.416268
N290	N	0.176561	-0.040708	-0.082934
N291	N	0.509894	0.292625	0.250399
H292	H	-0.175052	-0.403366	-0.447585
H293	H	0.158281	-0.070033	-0.114251
H294	H	0.491615	0.263300	0.219082
H295	H	-0.138595	-0.340921	-0.443694
H296	H	0.194738	-0.007587	-0.110361
H297	H	0.528071	0.325746	0.222973
H298	H	-0.164195	-1.056711	-0.940282
H299	H	0.169138	-0.723377	-0.606949
H300	H	0.502471	-0.390044	-0.273615
H301	H	-1.044927	-1.056793	-0.247757
H302	H	-0.711594	-0.723460	0.085577
H303	H	-0.378260	-0.390126	0.418910
N304	N	-0.156773	-0.582864	-0.416255
N305	N	0.176560	-0.249530	-0.082922
N306	N	0.509893	0.083803	0.250412
H307	H	-0.138595	-0.616011	-0.443723
H308	H	0.194738	-0.282677	-0.110389
H309	H	0.528071	0.050656	0.222944
H310	H	-0.175085	-0.553524	-0.447532
H311	H	0.158248	-0.220191	-0.114199
H312	H	0.491582	0.113142	0.219135
H313	H	-0.164359	-0.720443	-0.404790
H314	H	0.168974	-0.387110	-0.071456
H315	H	0.502307	-0.053777	0.261877
N316	N	-0.156774	-0.227104	-0.416291
N317	N	0.176559	0.106229	-0.082957
N318	N	0.509893	0.439562	0.250376
H319	H	-0.138598	-0.260254	-0.443758
H320	H	0.194736	0.073080	-0.110425
H321	H	0.528069	0.406413	0.222908
H322	H	-0.175087	-0.197766	-0.447568
H323	H	0.158247	0.135567	-0.114234
H324	H	0.491580	0.468900	0.219099
N325	N	-0.737849	-0.844723	-0.459302
N326	N	-0.404516	-0.511389	-0.125968
N327	N	-0.071182	-0.178056	0.207365
H328	H	-0.718418	-0.813364	-0.431759
H329	H	-0.385085	-0.480031	-0.098426
H330	H	-0.051751	-0.146698	0.234908
H331	H	-0.718375	-0.872238	-0.490689
H332	H	-0.385042	-0.538905	-0.157355
H333	H	-0.051709	-0.205571	0.175978
N334	N	-0.276104	-0.888002	-0.575107
N335	N	0.057230	-0.554669	-0.241773
N336	N	0.390563	-0.221336	0.091560
H337	H	-0.271750	-0.894566	-0.524967
H338	H	0.061584	-0.561232	-0.191633
H339	H	0.394917	-0.227899	0.141700
H340	H	-0.269113	-0.839671	-0.587458
H341	H	0.064221	-0.506338	-0.254125
H342	H	0.397554	-0.173005	0.079208
N343	N	-0.276057	-0.729598	-0.235977
N344	N	0.057276	-0.396265	0.097356
N345	N	0.390610	-0.062931	0.430689
H346	H	-0.294238	-0.696453	-0.208511
H347	H	0.039096	-0.363120	0.124822
H348	H	0.372429	-0.029787	0.458156
H349	H	-0.296868	-0.758918	-0.263471
H350	H	0.036465	-0.425585	0.069862
H351	H	0.369798	-0.092251	0.403195
H352	H	-0.268480	-0.592028	-0.247453
H353	H	0.064854	-0.258695	0.085881
H354	H	0.398187	0.074639	0.419214
H355	H	-0.387410	-1.056481	-0.247655
H356	H	-0.054076	-0.723148	0.085678
H357	H	0.279257	-0.389815	0.419012
H358	H	-0.472519	-1.056538	-0.247674
H359	H	-0.139185	-0.723204	0.085660
H360	H	0.194148	-0.389871	0.418993
H361	H	-0.603218	-1.099909	-0.204449
H362	H	-0.269885	-0.766576	0.128885
H363	H	0.063448	-0.433242	0.462218
H364	H	-0.688325	-1.099953	-0.204464
H365	H	-0.354991	-0.766620	0.128869
H366	H	-0.021658	-0.433287	0.462203
H367	H	-0.959804	-1.056755	-0.247737
H368	H	-0.626471	-0.723422	0.085597
H369	H	-0.293138	-0.390089	0.418930
N370	N	-0.381257	-0.887860	-0.416000
N371	N	-0.047923	-0.554527	-0.082667
N372	N	0.285410	-0.221194	0.250667
H373	H	-0.361759	-0.915344	-0.447385
H374	H	-0.028426	-0.582010	-0.114051
H375	H	0.304908	-0.248677	0.219282
H376	H	-0.403268	-0.860436	-0.443359
H377	H	-0.069935	-0.527103	-0.110025
H378	H	0.263398	-0.193769	0.223308
N379	N	-1.051173	-0.888165	-0.416092
N380	N	-0.717839	-0.554832	-0.082758
N381	N	-0.384506	-0.221498	0.250575
H382	H	-1.029197	-0.860719	-0.443481
H383	H	-0.695864	-0.527386	-0.110148
H384	H	-0.362531	-0.194052	0.223186
H385	H	-1.070609	-0.915700	-0.447447
H386	H	-0.737276	-0.582366	-0.114114
H387	H	-0.403943	-0.249033	0.219220
H388	H	-0.959858	-0.899583	-0.404665
H389	H	-0.626524	-0.566249	-0.071332
H390	H	-0.293191	-0.232916	0.262001
H391	H	-0.688395	-0.856152	-0.447881
H392	H	-0.355062	-0.522818	-0.114548
H393	H	-0.021728	-0.189485	0.218786
H394	H	-0.268424	-0.899545	-1.068461
H395	H	0.064909	-0.566212	-0.735127
H396	H	0.398243	-0.232879	-0.401794
H397	H	-0.268486	-0.899473	-0.712691
H398	H	0.064847	-0.566140	-0.379358
H399	H	0.398181	-0.232806	-0.046025
H400	H	-0.603286	-0.856124	-0.447874
H401	H	-0.269953	-0.522790	-0.114540
H402	H	0.063380	-0.189457	0.218793
H403	H	-0.472578	-0.899355	-0.404596
H404	H	-0.139245	-0.566022	-0.071263
H405	H	0.194088	-0.232688	0.262071
H406	H	-0.743965	-1.099979	-0.204473
H407	H	-0.410632	-0.766646	0.128861
H408	H	-0.077299	-0.433313	0.462194
H409	H	-0.829084	-1.100016	-0.204492
H410	H	-0.495751	-0.766683	0.128841
H411	H	-0.162417	-0.433349	0.462175
H412	H	-0.164167	-1.056728	-1.068516
H413	H	0.169166	-0.723395	-0.735182
H414	H	0.502499	-0.390061	-0.401849
N415	N	-0.835357	-0.844772	-0.459318
N416	N	-0.502023	-0.511439	-0.125985
N417	N	-0.168690	-0.178106	0.207349
H418	H	-0.813381	-0.817326	-0.486707
H419	H	-0.480048	-0.483992	-0.153373
H420	H	-0.146714	-0.150659	0.179960
H421	H	-0.854790	-0.872312	-0.490674
H422	H	-0.521457	-0.538979	-0.157340
H423	H	-0.188123	-0.205645	0.175993
H424	H	-0.164232	-1.056660	-0.712755
H425	H	0.169102	-0.723326	-0.379422
H426	H	0.502435	-0.389993	-0.046089
N427	N	-0.156667	-1.068097	-0.575181
N428	N	0.176666	-0.734763	-0.241847
N429	N	0.510000	-0.401430	0.091486
H430	H	-0.161037	-1.061522	-0.525035
H431	H	0.172297	-0.728188	-0.191701
H432	H	0.505630	-0.394855	0.141632
H433	H	-0.163665	-1.116426	-0.587549
H434	H	0.169668	-0.783093	-0.254216
H435	H	0.503001	-0.449760	0.079118
