data_functionalizedCrystal
_audit_creation_method	'MofGen! by Chris Wilmer'
_symmetry_space_group_name_H-M	'P1'
_symmetry_Int_Tables_number	1
_symmetry_cell_setting	triclinic
loop_
_symmetry_equiv_pos_as_xyz
  x,y,z
_cell_length_a	14.908571
_cell_length_b	17.640280
_cell_length_c	17.640968
_cell_angle_alpha	65.682561
_cell_angle_beta	74.904415
_cell_angle_gamma	74.921313
loop_
_atom_site_label
_atom_site_type_symbol
_atom_site_fract_x
_atom_site_fract_y
_atom_site_fract_z
Zn1	Zn	1.555676	-0.299421	-0.465002
Zn2	Zn	1.555601	-0.465086	-0.299360
Zn3	Zn	1.375958	-0.319733	-0.319659
Zn4	Zn	1.427677	-0.431792	-0.431770
O5	O	1.478728	-0.379008	-0.378948
O6	O	1.684415	-0.326830	-0.448442
O7	O	1.510095	-0.468240	-0.185812
O8	O	1.378185	-0.200810	-0.361342
O9	O	1.684360	-0.448544	-0.326746
O10	O	1.510223	-0.185887	-0.468125
O11	O	1.378112	-0.361450	-0.200726
O12	O	1.254070	-0.329165	-0.329118
O13	O	1.466333	-0.391798	-0.552418
O14	O	1.292068	-0.411494	-0.411485
O15	O	1.560373	-0.294545	-0.576834
O16	O	1.560245	-0.576898	-0.294521
O17	O	1.466260	-0.552437	-0.391802
C18	C	1.239686	-0.368921	-0.368898
C19	C	1.137430	-0.364622	-0.364615
C20	C	0.984900	-0.442465	-0.442161
C21	C	0.888822	-0.438428	-0.438139
C22	C	0.849196	-0.352506	-0.352554
C23	C	0.945273	-0.356543	-0.356576
C24	C	1.013123	-0.401525	-0.401380
C25	C	1.109202	-0.405567	-0.405397
C26	C	1.069574	-0.319640	-0.319818
C27	C	0.973496	-0.315603	-0.315796
C28	C	1.518885	-0.594802	-0.337372
C29	C	1.536153	-0.687117	-0.319617
C30	C	1.347975	-0.927239	-0.514148
C31	C	1.364198	-1.013989	-0.497438
C32	C	1.462158	-1.039378	-0.396250
C33	C	1.445946	-0.952628	-0.412955
C34	C	1.388853	-0.896565	-0.471904
C35	C	1.486825	-0.921954	-0.370710
C36	C	1.470610	-0.835212	-0.387410
C37	C	1.413518	-0.779145	-0.446355
C38	C	1.372639	-0.809823	-0.488604
C39	C	1.543912	-0.978019	-0.311757
C40	C	1.584790	-0.947345	-0.269513
C41	C	1.568582	-0.860601	-0.286217
C42	C	1.511489	-0.804533	-0.345161
C43	C	1.609460	-0.829922	-0.243968
C44	C	1.593246	-0.743180	-0.260668
C45	C	1.495275	-0.717791	-0.361861
C46	C	1.718704	-0.389135	-0.389037
C47	C	1.820968	-0.393451	-0.393336
C48	C	1.519131	-0.337192	-0.595609
C49	C	1.536348	-0.319372	-0.687937
C50	C	1.438443	-0.162369	-0.420705
C51	C	1.421276	-0.070051	-0.438499
C52	C	1.348201	-0.513945	-0.928032
C53	C	1.364396	-0.497191	-1.014791
C54	C	1.462312	-0.395931	-1.040203
C55	C	1.446121	-0.412673	-0.953444
C56	C	1.389065	-0.471682	-0.897365
C57	C	1.486985	-0.370410	-0.922778
C58	C	1.470799	-0.387155	-0.836027
C59	C	1.413749	-0.446162	-0.779942
C60	C	1.372879	-0.488426	-0.810614
C61	C	1.544046	-0.311406	-0.978858
C62	C	1.584911	-0.269143	-0.948191
C63	C	1.568720	-0.285883	-0.861439
C64	C	1.511669	-0.344891	-0.805355
C65	C	1.609589	-0.243619	-0.830767
C66	C	1.593403	-0.260364	-0.744016
C67	C	1.495483	-0.361635	-0.718603
C68	C	1.438525	-0.420604	-0.163143
C69	C	1.421442	-0.438197	-0.070868
H70	H	1.164444	-0.442196	-0.441877
Br71	Br	0.881408	-0.254552	-0.255000
Br72	Br	1.107879	-0.264088	-0.264457
Br73	Br	1.539639	-1.115469	-0.316252
H74	H	1.301715	-0.561974	-0.882371
H75	H	1.508769	-0.347888	-1.085873
H76	H	1.326393	-0.536456	-0.764953
Br77	Br	1.662346	-0.189067	-1.024304
Br78	Br	1.308697	-1.055617	-0.554763
H79	H	1.557225	-0.297777	-1.049495
Br80	Br	1.687034	-0.163552	-0.906881
Br81	Br	1.648710	-0.701547	-0.203325
H82	H	1.631272	-0.993003	-0.221514
Br83	Br	1.417804	-0.641696	-0.441876
Br84	Br	1.391788	-0.468897	-0.662205
Br85	Br	1.308929	-0.554554	-1.056407
H86	H	1.448997	-0.409665	-0.672943
H87	H	1.400310	-0.708515	-0.459945
H88	H	1.040144	-0.479097	-0.478636
H89	H	1.626678	-0.225948	-0.719047
Br90	Br	0.850522	-0.493986	-0.493491
H91	H	0.793937	-0.315877	-0.316084
H92	H	1.326156	-0.764173	-0.536612
H93	H	1.557114	-1.048649	-0.298164
Br94	Br	1.270504	-0.851144	-0.594162
H95	H	1.655938	-0.875582	-0.195966
