data_functionalizedCrystal
_audit_creation_method	'MofGen! by Chris Wilmer'
_symmetry_space_group_name_H-M	'P1'
_symmetry_Int_Tables_number	1
_symmetry_cell_setting	triclinic
loop_
_symmetry_equiv_pos_as_xyz
  x,y,z
_cell_length_a	18.215407
_cell_length_b	13.032721
_cell_length_c	18.215399
_cell_angle_alpha	82.845262
_cell_angle_beta	90.019833
_cell_angle_gamma	97.205008
loop_
_atom_site_label
_atom_site_type_symbol
_atom_site_fract_x
_atom_site_fract_y
_atom_site_fract_z
Zn1	Zn	1.087881	-0.416041	0.453320
Zn2	Zn	1.072167	-0.590804	0.345882
Zn3	Zn	0.964810	-0.416075	0.330271
Zn4	Zn	0.949162	-0.590746	0.468902
O5	O	1.018505	-0.503417	0.399594
O6	O	1.188780	-0.439234	0.439081
O7	O	1.057898	-0.567665	0.240831
O8	O	0.994261	-0.269831	0.333539
O9	O	1.177235	-0.567632	0.360147
O10	O	1.084681	-0.269806	0.423943
O11	O	0.979024	-0.439292	0.229361
O12	O	0.859751	-0.439236	0.348648
O13	O	0.967591	-0.567533	0.569816
O14	O	0.848254	-0.567566	0.450500
O15	O	1.069507	-0.439177	0.558368
O16	O	1.042724	-0.737036	0.375256
O17	O	0.952353	-0.736993	0.465638
C18	C	0.827300	-0.503399	0.399571
C19	C	0.745500	-0.503416	0.399581
C20	C	0.551329	-0.570343	0.452566
C21	C	0.474470	-0.570346	0.452575
C22	C	0.486431	-0.436510	0.346640
C23	C	0.563289	-0.436502	0.346634
C24	C	0.595736	-0.503424	0.399597
C25	C	0.442019	-0.503435	0.399612
C26	C	0.358685	-0.503438	0.399621
C27	C	0.679075	-0.503420	0.399588
C28	C	0.994156	-0.774933	0.423847
C29	C	0.983806	-0.891089	0.434248
C30	C	1.023945	-0.942861	0.394199
C31	C	1.013250	-1.062914	0.404947
C32	C	1.210456	-0.503435	0.399617
C33	C	1.292254	-0.503443	0.399627
C34	C	1.018556	-0.503345	0.591540
C35	C	1.018578	-0.503314	0.673337
C36	C	1.042969	-0.230840	0.375262
C37	C	1.053395	-0.114684	0.364893
C38	C	1.018503	-0.503413	0.208387
C39	C	1.018650	-0.503149	0.126565
C40	C	1.071668	-0.436417	0.855565
C41	C	1.071680	-0.436386	0.932421
C42	C	0.965554	-0.570049	0.944331
C43	C	0.965540	-0.570074	0.867476
C44	C	1.018601	-0.503259	0.823095
C45	C	1.018627	-0.503204	0.976807
C46	C	1.018639	-0.503172	1.060137
C47	C	1.018589	-0.503290	0.739759
H48	H	0.577745	-0.624833	0.495693
C49	C	0.907196	-0.643549	0.993149
H50	H	0.875585	-0.683355	0.962801
H51	H	0.931267	-0.689074	1.027199
H52	H	0.878720	-0.603558	1.019556
C53	C	1.130057	-0.362865	0.968136
H54	H	1.161657	-0.323085	0.930695
H55	H	1.106000	-0.317317	0.994048
H56	H	1.158541	-0.402841	1.001691
H57	H	1.095684	-1.070135	0.322648
C58	C	1.081069	-0.882687	0.337129
H59	H	1.104869	-0.930737	0.313400
H60	H	1.056699	-0.840168	0.301258
H61	H	1.116893	-0.840046	0.361525
H62	H	0.922321	-0.624504	0.841039
C63	C	0.956126	-1.123085	0.462023
H64	H	0.932334	-1.075035	0.485760
H65	H	0.920305	-1.165734	0.437635
H66	H	0.980505	-1.165596	0.497897
H67	H	0.599447	-0.382002	0.303500
C68	C	0.425627	-0.643954	0.510843
H69	H	0.455961	-0.683810	0.542380
H70	H	0.399240	-0.604036	0.539390
H71	H	0.391552	-0.689445	0.486704
H72	H	0.941526	-0.935643	0.476495
H73	H	0.460003	-0.382025	0.303519
H74	H	1.114872	-0.382009	0.819432
