data_functionalizedCrystal
_audit_creation_method	'MofGen! by Chris Wilmer'
_symmetry_space_group_name_H-M	'P1'
_symmetry_Int_Tables_number	1
_symmetry_cell_setting	triclinic
loop_
_symmetry_equiv_pos_as_xyz
  x,y,z
_cell_length_a	17.699083
_cell_length_b	15.995350
_cell_length_c	16.776229
_cell_angle_alpha	89.995580
_cell_angle_beta	89.998886
_cell_angle_gamma	83.387695
loop_
_atom_site_label
_atom_site_type_symbol
_atom_site_fract_x
_atom_site_fract_y
_atom_site_fract_z
O1	O	1.004255	0.105885	-0.066173
O2	O	1.504255	0.605885	0.433827
O3	O	0.783899	0.119661	-0.066198
O4	O	1.283899	0.619661	0.433802
O5	O	0.900100	-0.009127	-0.066184
O6	O	1.400100	0.490873	0.433816
O7	O	0.888053	0.234673	-0.066187
O8	O	1.388053	0.734673	0.433813
O9	O	0.900085	-0.009135	0.066393
O10	O	1.400085	0.490865	0.566393
O11	O	0.783884	0.119653	0.066378
O12	O	1.283884	0.619653	0.566378
O13	O	1.004239	0.105877	0.066404
O14	O	1.504239	0.605877	0.566404
Zn15	Zn	0.894059	0.112764	0.087441
Zn16	Zn	1.394059	0.612764	0.587441
Zn17	Zn	0.894079	0.112774	-0.087235
Zn18	Zn	1.394079	0.612774	0.412765
O19	O	0.888038	0.234665	0.066390
O20	O	1.388038	0.734665	0.566390
C21	C	0.755694	0.119163	0.000087
C22	C	1.255694	0.619163	0.500087
C23	C	0.671673	0.117683	0.000077
C24	C	1.171673	0.617683	0.500077
C25	C	0.899595	-0.040324	0.000103
C26	C	1.399595	0.459676	0.500103
C27	C	0.898101	-0.133272	0.000098
C28	C	1.398101	0.366728	0.500098
C29	C	0.623178	0.193278	0.000076
C30	C	1.123178	0.693278	0.500076
C31	C	0.544232	0.191882	0.000087
C32	C	1.044232	0.691882	0.500087
C33	C	0.513783	0.114889	0.000092
C34	C	1.013783	0.614889	0.500092
C35	C	0.562285	0.039287	0.000095
C36	C	1.062285	0.539287	0.500095
C37	C	0.641229	0.040685	0.000090
C38	C	1.141229	0.540685	0.500090
C39	C	0.243912	0.033651	0.000115
C40	C	0.743912	0.533651	0.500115
C41	C	0.164962	0.032259	0.000117
C42	C	0.664962	0.532259	0.500117
C43	C	0.146916	0.184848	0.000111
C44	C	0.646916	0.684848	0.500111
C45	C	0.225860	0.186245	0.000106
C46	C	0.725860	0.686245	0.500106
C47	C	0.274354	0.110644	0.000114
C48	C	0.774354	0.610644	0.500114
C49	C	0.359956	0.112159	0.000104
C50	C	0.859956	0.612159	0.500104
C51	C	0.428183	0.113373	0.000096
C52	C	0.928183	0.613373	0.500096
C53	C	0.892739	-0.471008	0.000100
C54	C	1.392739	0.028992	0.500100
C55	C	0.809983	-0.423406	-0.000207
C56	C	1.309983	0.076594	0.499793
C57	C	0.811476	-0.326719	0.000092
C58	C	1.311476	0.173281	0.500092
C59	C	0.895399	-0.303453	0.000099
C60	C	1.395399	0.196547	0.500099
C61	C	0.936209	-0.344618	0.075810
C62	C	1.436209	0.155382	0.575810
C63	C	0.934130	-0.441250	0.075873
C64	C	1.434130	0.058750	0.575873
C65	C	0.935857	-0.441602	-0.074891
C66	C	1.435857	0.058398	0.425109
C67	C	0.935837	-0.344657	-0.075892
C68	C	1.435837	0.155343	0.424108
C69	C	0.896907	-0.208759	0.000101
C70	C	1.396907	0.291241	0.500101
C71	C	0.891234	-0.565703	0.000104
C72	C	1.391234	-0.065703	0.500104
C73	C	1.032445	0.106375	0.000117
C74	C	1.532445	0.606375	0.500117
C75	C	1.116465	0.107856	0.000122
C76	C	1.616465	0.607856	0.500122
C77	C	0.888544	0.265863	0.000101
C78	C	1.388544	0.765863	0.500101
C79	C	0.890037	0.358810	0.000101
C80	C	1.390037	0.858810	0.500101
N81	N	0.894051	0.112756	0.206652
N82	N	1.394051	0.612756	0.706652
N83	N	0.894094	0.112775	-0.206446
N84	N	1.394094	0.612775	0.293554
C85	C	0.945520	0.055752	0.248375
C86	C	1.445520	0.555752	0.748375
C87	C	0.945524	0.055752	0.331827
C88	C	1.445524	0.555752	0.831827
C89	C	0.894062	0.112760	0.373555
C90	C	1.394062	0.612760	0.873555
C91	C	0.842587	0.169766	0.331825
C92	C	1.342587	0.669766	0.831825
C93	C	0.842580	0.169762	0.248375
C94	C	1.342580	0.669762	0.748375
C95	C	0.842614	0.169783	0.668373
C96	C	1.342614	0.669783	1.168373
C97	C	0.842627	0.169784	0.751829
C98	C	1.342627	0.669784	1.251829
C99	C	0.945559	0.055772	0.751825
C100	C	1.445559	0.555772	1.251825
C101	C	0.945552	0.055768	0.668375
C102	C	1.445552	0.555768	1.168375
C103	C	0.894074	0.112771	0.626653
C104	C	1.394074	0.612771	1.126653
C105	C	0.894069	0.112770	0.536164
C106	C	1.394069	0.612770	1.036164
C107	C	0.894070	0.112765	0.464041
C108	C	1.394070	0.612765	0.964041
H109	H	0.504750	0.253440	0.000085
H110	H	1.004750	0.753440	0.500085
H111	H	0.908806	-0.462084	-0.132275
H112	H	1.408806	0.037916	0.367725
H113	H	0.994888	-0.473622	0.079313
H114	H	1.494888	0.026378	0.579313
N115	N	0.656008	0.276326	0.000071
N116	N	1.156008	0.776326	0.500071
H117	H	0.688362	0.280306	0.049215
H118	H	1.188362	0.780306	0.549215
H119	H	0.688318	0.280264	-0.049110
H120	H	1.188318	0.780264	0.450890
H121	H	0.680714	-0.020873	0.000090
H122	H	1.180714	0.479127	0.500090
N123	N	0.094608	0.266391	0.000138
N124	N	0.594608	0.766391	0.500138
H125	H	0.125878	0.315376	0.000136
H126	H	0.625878	0.815376	0.500136
H127	H	0.061447	0.269152	-0.049001
H128	H	0.561447	0.769152	0.450999
H129	H	0.250646	0.248941	0.000098
H130	H	0.750646	0.748941	0.500098
N131	N	0.787062	0.231240	0.203369
N132	N	1.287062	0.731240	0.703369
H133	H	0.754462	0.267356	0.242464
H134	H	1.254462	0.767356	0.742464
H135	H	0.816028	0.268217	0.168734
H136	H	1.316028	0.768217	0.668734
H137	H	0.800681	0.216180	0.365805
H138	H	1.300681	0.716180	0.865805
N139	N	0.896366	-0.308425	-0.150088
N140	N	1.396366	0.191575	0.349912
H141	H	0.852474	-0.265496	-0.134552
H142	H	1.352474	0.234504	0.365448
H143	H	0.933633	-0.280499	-0.183683
H144	H	1.433633	0.219501	0.316317
H145	H	0.987434	0.009334	0.365798
H146	H	1.487434	0.509334	0.865798
H147	H	0.987460	0.009350	0.634403
H148	H	1.487460	0.509350	1.134403
N149	N	0.132118	-0.050787	0.000124
N150	N	0.632118	0.449213	0.500124
H151	H	0.174818	-0.098469	0.000130
H152	H	0.674818	0.401531	0.500130
H153	H	0.099756	-0.054684	0.049272
H154	H	0.599756	0.445316	0.549272
N155	N	0.768983	-0.288971	-0.071794
N156	N	1.268983	0.211029	0.428206
H157	H	0.749110	-0.335135	-0.103963
H158	H	1.249110	0.164865	0.396037
H159	H	0.724970	-0.247526	-0.053653
H160	H	1.224970	0.252474	0.446347
H161	H	0.987430	0.009334	0.214406
H162	H	1.487430	0.509334	0.714406
N163	N	0.296211	-0.047887	0.000128
N164	N	0.796211	0.452113	0.500128
H165	H	0.264940	-0.096871	0.000130
H166	H	0.764940	0.403129	0.500130
H167	H	0.329362	-0.050635	-0.049018
H168	H	0.829362	0.449365	0.450982
H169	H	0.987473	0.009354	0.785804
H170	H	1.487473	0.509354	1.285804
N171	N	0.529448	-0.043757	0.000113
N172	N	1.029448	0.456243	0.500113
H173	H	0.472078	-0.033173	0.000116
H174	H	0.972078	0.466827	0.500116
H175	H	0.547187	-0.076833	-0.049031
H176	H	1.047187	0.423167	0.450969
H177	H	0.776912	-0.441867	-0.054501
H178	H	1.276912	0.058133	0.445499
H179	H	0.777046	-0.442936	0.053777
H180	H	1.277046	0.057064	0.553777
N181	N	0.787114	0.231269	0.796838
N182	N	1.287114	0.731269	1.296838
H183	H	0.754499	0.267377	0.757745
H184	H	1.254499	0.767377	1.257745
H185	H	0.753669	0.199250	0.831470
H186	H	1.253669	0.699250	1.331470
H187	H	0.779168	-0.298792	0.054450
H188	H	1.279168	0.201208	0.554450
H189	H	0.800701	0.216198	0.634409
H190	H	1.300701	0.716198	1.134409
H191	H	0.904358	-0.459494	0.132463
H192	H	1.404358	0.040506	0.632463
N193	N	1.017882	-0.326088	0.079525
N194	N	1.517882	0.173912	0.579525
H195	H	1.019459	-0.263220	0.081931
H196	H	1.519459	0.236780	0.581931
H197	H	1.042971	-0.353204	0.128647
H198	H	1.542971	0.146796	0.628647
N199	N	0.898650	-0.306943	0.150431
N200	N	1.398650	0.193057	0.650431
H201	H	0.843458	-0.317411	0.151178
H202	H	1.343458	0.182589	0.651178
H203	H	0.925366	-0.333848	0.198789
H204	H	1.425366	0.166152	0.698789
N205	N	1.016906	-0.324481	-0.081947
N206	N	1.516906	0.175519	0.418053
H207	H	1.028622	-0.288184	-0.035306
H208	H	1.528622	0.211816	0.464694
H209	H	1.052607	-0.378492	-0.081294
H210	H	1.552607	0.121508	0.418706
N211	N	1.016680	-0.483832	-0.075565
N212	N	1.516680	0.016168	0.424435
H213	H	1.025356	-0.521830	-0.027556
H214	H	1.525356	-0.021830	0.472444
H215	H	1.025725	-0.518291	-0.125821
H216	H	1.525725	-0.018291	0.374179
