data_functionalizedCrystal
_audit_creation_method	'MofGen! by Chris Wilmer'
_symmetry_space_group_name_H-M	'P1'
_symmetry_Int_Tables_number	1
_symmetry_cell_setting	triclinic
loop_
_symmetry_equiv_pos_as_xyz
  x,y,z
_cell_length_a	19.077409
_cell_length_b	18.050590
_cell_length_c	19.076919
_cell_angle_alpha	87.729485
_cell_angle_beta	85.523525
_cell_angle_gamma	92.320386
loop_
_atom_site_label
_atom_site_type_symbol
_atom_site_fract_x
_atom_site_fract_y
_atom_site_fract_z
Zn1	Zn	1.061699	-0.265697	0.355443
Zn2	Zn	1.066366	-0.384694	0.237560
Zn3	Zn	0.948555	-0.265722	0.242291
Zn4	Zn	0.943796	-0.395051	0.360122
O5	O	1.005104	-0.327791	0.298854
O6	O	1.160966	-0.277138	0.335867
O7	O	1.054683	-0.364589	0.139541
O8	O	0.963602	-0.161793	0.257323
O9	O	1.164394	-0.364565	0.249259
O10	O	1.046729	-0.161775	0.340455
O11	O	0.968127	-0.277180	0.143017
O12	O	0.849276	-0.287222	0.261860
O13	O	0.955491	-0.382215	0.458148
O14	O	0.845780	-0.382239	0.348430
O15	O	1.042115	-0.287180	0.454710
O16	O	1.050068	-0.489993	0.253796
O17	O	0.960016	-0.497602	0.343842
C18	C	0.821949	-0.335858	0.306166
C19	C	0.743594	-0.339327	0.309311
C20	C	0.302344	-0.364155	0.331901
C21	C	0.375967	-0.360900	0.328933
C22	C	0.414573	-0.309729	0.282452
C23	C	0.379552	-0.261814	0.238931
C24	C	0.305930	-0.265074	0.241896
C25	C	0.634952	-0.294672	0.268755
C26	C	0.708578	-0.291415	0.265795
C27	C	0.704988	-0.390502	0.355797
C28	C	0.631365	-0.393753	0.358761
C29	C	0.596351	-0.345842	0.315237
N30	N	0.489828	-0.306399	0.279418
N31	N	0.521097	-0.349176	0.318268
C32	C	1.005051	-0.520744	0.298828
C33	C	1.005092	-0.603289	0.298838
C34	C	1.054157	-0.798573	0.249933
C35	C	1.068789	-0.849984	0.313582
C36	C	1.005131	-0.754419	0.298864
C37	C	0.990569	-0.850087	0.235241
C38	C	1.005170	-0.900403	0.298884
C39	C	1.019795	-0.804742	0.362546
C40	C	0.941546	-0.804840	0.284163
C41	C	0.956152	-0.856232	0.347858
C42	C	1.005110	-0.670321	0.298852
C43	C	1.005190	-0.984499	0.298904
C44	C	1.188974	-0.319693	0.291513
C45	C	1.267328	-0.316243	0.288385
C46	C	0.997752	-0.335850	0.482722
C47	C	0.994619	-0.339284	0.561076
C48	C	1.005176	-0.134084	0.298895
C49	C	1.005206	-0.051538	0.298912
C50	C	1.012468	-0.319708	0.115699
C51	C	1.015738	-0.316058	0.037340
C52	C	1.038244	-0.291420	0.596098
C53	C	1.035292	-0.294645	0.669720
C54	C	0.988717	-0.345738	0.708319
C55	C	0.945086	-0.393604	0.673291
C56	C	0.948036	-0.390375	0.599671
C57	C	0.975056	-0.360696	0.928693
C58	C	0.972112	-0.363922	1.002318
C59	C	1.062317	-0.264962	0.998742
C60	C	1.065265	-0.261741	0.925120
C61	C	1.021632	-0.309604	0.890099
N62	N	0.985699	-0.349036	0.783572
N63	N	1.024647	-0.306302	0.814847
H64	H	0.277421	-0.226057	0.206462
H65	H	0.404474	-0.399916	0.364367
H66	H	0.934183	-0.405530	1.033743
C67	C	0.750468	-0.235954	0.215203
C68	C	0.735342	-0.249767	0.146149
C69	C	0.773928	-0.198704	0.099527
H70	H	0.738041	-0.187025	0.225985
H71	H	0.799337	-0.240885	0.219628
H72	H	0.686485	-0.244830	0.141726
H73	H	0.747773	-0.298686	0.135344
H74	H	0.822796	-0.203635	0.103952
H75	H	0.761497	-0.149778	0.110316
H76	H	0.763675	-0.208073	0.052668
C77	C	0.927761	-0.412781	0.890719
C78	C	0.942368	-0.486372	0.907984
C79	C	0.898812	-0.534372	0.873010
H80	H	0.879898	-0.404613	0.904658
H81	H	0.936179	-0.403596	0.841337
H82	H	0.933944	-0.495554	0.957356
H83	H	0.990222	-0.494563	0.894043
H84	H	0.907230	-0.525187	0.823628
H85	H	0.850952	-0.526199	0.886952
H86	H	0.908721	-0.584309	0.884715
C87	C	0.894562	-0.449191	0.715105
C88	C	0.910590	-0.521208	0.696554
C89	C	0.864058	-0.572436	0.735050
H90	H	0.899010	-0.444364	0.763980
H91	H	0.847674	-0.439923	0.704917
H92	H	0.957467	-0.530474	0.706748
H93	H	0.906138	-0.526059	0.647686
H94	H	0.817169	-0.563168	0.724862
H95	H	0.868509	-0.567603	0.783922
H96	H	0.874922	-0.621305	0.722464
H97	H	0.599937	-0.435424	0.396610
C98	C	1.109645	-0.212870	1.036677
C99	C	1.095049	-0.139283	1.019380
C100	C	1.138640	-0.091271	1.054305
H101	H	1.101264	-0.222005	1.086060
H102	H	1.157502	-0.221077	1.022706
H103	H	1.047204	-0.131079	1.033356
H104	H	1.103434	-0.130125	0.970004
H105	H	1.186496	-0.099478	1.040333
H106	H	1.130255	-0.100412	1.103686
H107	H	1.128747	-0.041337	1.042569
C108	C	0.260306	-0.419637	0.382347
C109	C	0.188335	-0.412225	0.375646
C110	C	0.149591	-0.463319	0.422111
H111	H	0.272688	-0.468564	0.371505
H112	H	0.270455	-0.410386	0.429261
H113	H	0.178190	-0.421482	0.328743
H114	H	0.175932	-0.363309	0.386494
H115	H	0.159740	-0.454068	0.469024
H116	H	0.161979	-0.512242	0.411265
H117	H	0.100754	-0.458292	0.417575
C118	C	1.109341	-0.764951	0.194722
C119	C	1.076557	-0.721673	0.145389
C120	C	1.127369	-0.690697	0.094517
H121	H	1.142325	-0.734720	0.216767
H122	H	1.133058	-0.803532	0.171622
H123	H	1.052852	-0.683097	0.168486
H124	H	1.043577	-0.751888	0.123325
H125	H	1.151085	-0.729278	0.071417
H126	H	1.160350	-0.660469	0.116569
H127	H	1.105131	-0.661335	0.061035
H128	H	0.912504	-0.429344	0.571157
H129	H	1.122578	-0.869885	0.326030
H130	H	1.032072	-0.784853	0.416408
H131	H	0.914707	-0.881279	0.389292
H132	H	0.733505	-0.429509	0.391231
C133	C	0.974262	-0.876771	0.163461
C134	C	1.030370	-0.916903	0.135444
C135	C	1.015384	-0.941484	0.069316
H136	H	0.932578	-0.907764	0.168185
H137	H	0.967733	-0.835222	0.132878
H138	H	1.036891	-0.958446	0.166019
H139	H	1.072061	-0.885925	0.130702
H140	H	1.008856	-0.899935	0.038733
H141	H	0.973699	-0.972474	0.074047
H142	H	1.053453	-0.968710	0.050295
H143	H	1.103194	-0.220138	0.893698
H144	H	0.606452	-0.255662	0.233312
C145	C	0.869810	-0.778418	0.267493
C146	C	0.825350	-0.839778	0.256490
C147	C	0.759266	-0.815465	0.241115
H148	H	0.850137	-0.751926	0.305775
H149	H	0.874815	-0.746803	0.226233
H150	H	0.820344	-0.871382	0.297746
H151	H	0.845001	-0.866277	0.218207
H152	H	0.764270	-0.783849	0.199854
H153	H	0.739599	-0.788972	0.279398
H154	H	0.729094	-0.857093	0.233641
C155	C	0.421589	-0.206282	0.188536
C156	C	0.493558	-0.213666	0.195266
C157	C	0.532302	-0.162513	0.148862
H158	H	0.411487	-0.215476	0.141607
H159	H	0.409159	-0.157374	0.199431
H160	H	0.505984	-0.262563	0.184366
H161	H	0.503682	-0.204466	0.242185
H162	H	0.519872	-0.113605	0.159757
H163	H	0.522194	-0.171711	0.101936
H164	H	0.581137	-0.167512	0.153427
H165	H	1.076173	-0.249817	0.564676
C166	C	1.082743	-0.242643	0.707614
C167	C	1.124180	-0.197225	0.658053
C168	C	1.167909	-0.149317	0.692934
H169	H	1.054721	-0.212659	0.737414
H170	H	1.112333	-0.270943	0.735087
H171	H	1.094593	-0.168928	0.630592
H172	H	1.152217	-0.227190	0.628251
H173	H	1.197499	-0.177617	0.720407
H174	H	1.139880	-0.119337	0.722733
H175	H	1.196033	-0.118500	0.659312
