data_functionalizedCrystal
_audit_creation_method	'MofGen! by Chris Wilmer'
_symmetry_space_group_name_H-M	'P1'
_symmetry_Int_Tables_number	1
_symmetry_cell_setting	triclinic
loop_
_symmetry_equiv_pos_as_xyz
  x,y,z
_cell_length_a	23.096457
_cell_length_b	12.970454
_cell_length_c	12.970454
_cell_angle_alpha	59.999644
_cell_angle_beta	89.998496
_cell_angle_gamma	59.999719
loop_
_atom_site_label
_atom_site_type_symbol
_atom_site_fract_x
_atom_site_fract_y
_atom_site_fract_z
Zr1	Zr	0.557764	1.128538	-0.135342
O2	O	0.465316	1.343627	-0.299962
O3	O	0.586105	0.913448	-0.084877
O4	O	0.586104	1.128540	-0.299969
O5	O	0.465316	1.128534	0.084798
O6	O	0.681385	1.128543	-0.299975
O7	O	0.465316	1.128535	-0.084870
O8	O	0.681386	0.743783	0.084785
O9	O	0.465316	1.513295	-0.299963
O10	O	0.669299	1.001920	-0.063359
O11	O	0.598192	1.001918	0.063266
O12	O	0.598192	1.255161	-0.189977
O13	O	0.527085	1.255158	-0.063351
Zr14	Zr	0.709726	1.128542	0.135248
Zr15	Zr	0.709726	1.128543	-0.135352
Zr16	Zr	0.557765	1.128537	0.135258
Zr17	Zr	0.557764	1.399138	-0.135343
Zr18	Zr	0.709726	0.857942	0.135249
O19	O	0.681386	1.343632	0.084782
O20	O	0.681385	1.343634	-0.299976
O21	O	0.465317	1.343625	0.084796
O22	O	0.802175	0.913453	0.299868
O23	O	0.802174	0.913455	-0.084891
O24	O	0.586106	0.913446	0.299882
O25	O	0.802174	1.128545	-0.084892
O26	O	0.681386	1.128540	0.299874
O27	O	0.586106	1.128537	0.299881
O28	O	0.802175	1.128545	0.084776
O29	O	0.586104	1.513298	-0.299970
O30	O	0.681386	0.743782	0.299876
O31	O	0.802175	0.743785	0.299868
O32	O	0.802175	0.743786	0.084778
O33	O	0.465316	1.513294	-0.084872
O34	O	0.586105	1.513297	-0.084880
O35	O	0.669299	1.001919	0.189883
O36	O	0.740406	1.001922	0.063257
O37	O	0.669299	1.255162	-0.063360
O38	O	0.598192	1.255159	0.063265
C39	C	0.633745	0.790061	-0.000045
C40	C	0.633745	0.675184	-0.000045
C41	C	0.443665	1.128534	-0.000035
C42	C	0.379154	1.128532	-0.000030
C43	C	0.385965	0.996347	0.066051
C44	C	0.325349	0.996345	0.066056
C45	C	0.257923	1.128536	-0.000044
C46	C	0.251114	1.260738	-0.066128
C47	C	0.311729	1.260736	-0.066121
N48	N	0.135127	1.226932	-0.107618
N49	N	0.077547	1.226925	-0.107622
C50	C	0.075290	1.128549	-0.000067
N51	N	0.132794	1.030158	0.107492
N52	N	0.190380	1.030161	0.107494
C53	C	0.192192	1.128552	-0.000058
C54	C	0.016378	0.996353	0.066026
C55	C	-0.044240	0.996356	0.066035
C56	C	-0.118475	1.260752	-0.066161
C57	C	-0.057857	1.260745	-0.066158
C58	C	0.009567	1.128541	-0.000067
C59	C	0.823826	1.128546	-0.000059
C60	C	0.888337	1.128548	-0.000064
C61	C	0.633745	1.128542	-0.338526
C62	C	0.633744	1.128542	-0.453403
C63	C	0.633745	1.467019	-0.000049
C64	C	0.633745	1.581896	-0.000049
C65	C	0.633746	1.128538	0.338432
C66	C	0.633746	1.128538	0.453309
C67	C	0.823826	0.790066	-0.000058
C68	C	0.888337	0.675192	-0.000061
C69	C	0.633746	0.790059	0.338434
C70	C	0.633746	0.675182	0.453311
C71	C	0.823826	0.790065	0.338421
C72	C	0.888338	0.675189	0.453295
C73	C	0.443664	1.467015	-0.338516
C74	C	0.379152	1.581891	-0.453389
C75	C	0.443665	1.467013	-0.000036
C76	C	0.379154	1.581888	-0.000033
C77	C	0.633745	1.467021	-0.338528
C78	C	0.633744	1.581898	-0.453405
C79	C	0.881515	0.621244	-0.066167
C80	C	0.942125	0.513322	-0.066195
C81	C	1.009556	0.459342	-0.000111
C82	C	1.016376	0.513300	0.065997
C83	C	0.955767	0.621227	0.066017
C84	C	0.955757	0.621244	0.441143
C85	C	1.016378	0.513322	0.549068
C86	C	1.009580	0.459339	0.669144
C87	C	0.942154	0.513295	0.681293
C88	C	0.881534	0.621223	0.573369
C89	C	0.311734	1.635849	-0.441237
C90	C	0.251112	1.743805	-0.549162
C91	C	0.257911	1.797793	-0.669238
C92	C	0.325337	1.743831	-0.681387
C93	C	0.385957	1.635884	-0.573463
C94	C	0.385975	1.635847	0.066061
C95	C	0.325366	1.743799	0.066060
C96	C	0.257935	1.797783	-0.000028
C97	C	0.251115	1.743820	-0.066131
C98	C	0.311724	1.635877	-0.066136
H99	H	0.330896	0.888701	0.119868
O100	O	1.081923	0.460820	0.537475
C101	C	1.133977	0.353973	0.658470
H102	H	1.110363	0.371675	0.730031
H103	H	1.152956	0.241066	0.685973
C104	C	1.226104	0.344126	0.568926
C105	C	1.197102	0.365875	0.656817
H106	H	1.265044	0.351461	0.567907
H107	H	1.191034	0.416106	0.487409
H108	H	1.241913	0.250037	0.591856
H109	H	1.181285	0.459969	0.633878
H110	H	1.232170	0.293910	0.738331
H111	H	0.826641	0.665131	0.583281
H112	H	1.058946	0.371457	0.757012
O113	O	0.451489	1.583192	0.130423
C114	C	0.488781	1.431944	0.223175
H115	H	0.449453	1.402394	0.247753
H116	H	0.524747	1.370213	0.185341
C117	C	0.582364	1.426326	0.312211
C118	C	0.534059	1.390034	0.342407
H119	H	0.610296	1.400471	0.385757
H120	H	0.557241	1.528224	0.249720
H121	H	0.612328	1.374880	0.280681
H122	H	0.504091	1.441493	0.373921
H123	H	0.559178	1.288144	0.404906
O124	O	0.185557	1.796375	-0.130208
C125	C	0.133533	1.903235	-0.116039
H126	H	0.157172	1.885500	-0.026776
H127	H	0.114571	2.016133	-0.201438
C128	C	0.041355	1.913199	-0.215414
C129	C	0.070387	1.891408	-0.105773
H130	H	0.002401	1.905909	-0.209088
H131	H	0.076403	1.841209	-0.224965
H132	H	0.025558	2.007280	-0.286569
H133	H	0.086190	1.797322	-0.034623
H134	H	0.035339	1.963382	-0.096210
O135	O	0.304965	1.583569	-0.130351
C136	C	0.232450	1.654396	-0.188696
H137	H	0.200136	1.698883	-0.136849
H138	H	0.214590	1.748137	-0.291288
C139	C	0.260707	1.490402	-0.247561
C140	C	0.221018	1.545030	-0.183875
H141	H	0.253654	1.422943	-0.244593
H142	H	0.309561	1.442687	-0.208257
H143	H	0.245819	1.568531	-0.333049
H144	H	0.235913	1.466904	-0.098386
H145	H	0.172165	1.592730	-0.223164
O146	O	0.962245	0.673790	0.324415
C147	C	0.894289	0.780650	0.231746
H148	H	0.854111	0.762917	0.273804
H149	H	0.878842	0.893548	0.197988
C150	C	0.944546	0.790604	0.067648
C151	C	0.895200	0.768817	0.119302
H152	H	0.945108	0.783311	-0.001716
H153	H	0.990330	0.718615	0.130080
H154	H	0.931668	0.884686	0.039527
H155	H	0.908084	0.674731	0.147436
H156	H	0.849418	0.840791	0.056871
H157	H	0.440850	1.591952	-0.583372
O158	O	0.081823	0.867807	0.130351
C159	C	0.074834	0.751132	0.188667
H160	H	0.020742	0.789891	0.201747
H161	H	0.079806	0.710474	0.126731
C162	C	0.199991	0.578641	0.302301
C163	C	0.133556	0.626243	0.318375
H164	H	0.236215	0.501601	0.382308
H165	H	0.204701	0.657246	0.263009
H166	H	0.204125	0.544770	0.250683
H167	H	0.129421	0.660130	0.369978
H168	H	0.128848	0.547640	0.357679
H169	H	0.440861	0.888697	0.119859
H170	H	0.936629	0.469326	0.779073
H171	H	0.306185	1.591897	-0.343475
H172	H	1.071286	0.469333	0.119800
H173	H	0.306178	1.368380	-0.119929
O174	O	-0.184020	1.389034	-0.130351
C175	C	-0.236062	1.360694	-0.116158
H176	H	-0.212441	1.247086	-0.091820
H177	H	-0.255024	1.366959	-0.037025
C178	C	-0.328213	1.614275	-0.270319
C179	C	-0.299203	1.474744	-0.240438
H180	H	-0.367163	1.684629	-0.346977
H181	H	-0.293152	1.633370	-0.279878
H182	H	-0.344009	1.619475	-0.204365
H183	H	-0.283399	1.469540	-0.306383
H184	H	-0.334263	1.455650	-0.230892
H185	H	0.196218	1.787723	-0.539246
H186	H	0.196211	1.368368	-0.119946
H187	H	0.330933	1.787717	0.119893
H188	H	0.936558	0.469403	-0.120028
H189	H	-0.038688	0.888711	0.119855
O190	O	0.815965	0.673788	-0.130262
C191	C	0.763922	0.780648	-0.116111
H192	H	0.787539	0.762917	-0.026835
H193	H	0.744964	0.893546	-0.201502
C194	C	0.671771	0.790598	-0.215551
C195	C	0.700777	0.768812	-0.105895
H196	H	0.632818	0.783303	-0.209255
H197	H	0.706832	0.718608	-0.225090
H198	H	0.655978	0.884679	-0.286700
H199	H	0.716576	0.674726	-0.034752
H200	H	0.665716	0.840786	-0.096344
H201	H	-0.063407	1.368385	-0.119977
H202	H	0.961332	0.665137	0.119856
H203	H	1.058902	0.371459	-0.000136
H204	H	0.208545	1.885690	-0.757106
H205	H	0.330864	1.787802	-0.779165
H206	H	0.208589	1.885677	-0.000014
