data_functionalizedCrystal
_audit_creation_method	'MofGen! by Chris Wilmer'
_symmetry_space_group_name_H-M	'P1'
_symmetry_Int_Tables_number	1
_symmetry_cell_setting	triclinic
loop_
_symmetry_equiv_pos_as_xyz
  x,y,z
_cell_length_a	16.625548
_cell_length_b	16.625545
_cell_length_c	12.759393
_cell_angle_alpha	89.966045
_cell_angle_beta	89.978375
_cell_angle_gamma	90.026626
loop_
_atom_site_label
_atom_site_type_symbol
_atom_site_fract_x
_atom_site_fract_y
_atom_site_fract_z
Zn1	Zn	1.232672	-0.320931	-0.594053
Zn2	Zn	1.482672	-0.070931	-0.344053
Zn3	Zn	1.732672	0.179069	-0.094053
Zn4	Zn	1.982672	0.429069	0.155947
Zn5	Zn	1.232565	-0.455788	-0.418366
Zn6	Zn	1.482565	-0.205788	-0.168366
Zn7	Zn	1.732565	0.044212	0.081634
Zn8	Zn	1.982565	0.294212	0.331634
Zn9	Zn	1.097831	-0.320975	-0.418383
Zn10	Zn	1.347831	-0.070975	-0.168383
Zn11	Zn	1.597831	0.179025	0.081617
Zn12	Zn	1.847831	0.429025	0.331617
Zn13	Zn	1.097797	-0.455728	-0.593998
Zn14	Zn	1.347797	-0.205728	-0.343998
Zn15	Zn	1.597797	0.044272	-0.093998
Zn16	Zn	1.847797	0.294272	0.156002
O17	O	1.165216	-0.388355	-0.506200
O18	O	1.415216	-0.138355	-0.256200
O19	O	1.665216	0.111645	-0.006200
O20	O	1.915216	0.361645	0.243800
O21	O	1.345490	-0.338826	-0.570764
O22	O	1.595490	-0.088826	-0.320764
O23	O	1.845490	0.161174	-0.070764
O24	O	2.095490	0.411174	0.179236
O25	O	1.214662	-0.437948	-0.271347
O26	O	1.464662	-0.187948	-0.021347
O27	O	1.714662	0.062052	0.228653
O28	O	1.964662	0.312052	0.478653
O29	O	1.115777	-0.208137	-0.441716
O30	O	1.365777	0.041863	-0.191716
O31	O	1.615777	0.291863	0.058284
O32	O	1.865777	0.541863	0.308284
O33	O	1.345412	-0.437905	-0.441688
O34	O	1.595412	-0.187905	-0.191688
O35	O	1.845412	0.062095	0.058312
O36	O	2.095412	0.312095	0.308312
O37	O	1.214844	-0.208104	-0.570780
O38	O	1.464844	0.041896	-0.320780
O39	O	1.714844	0.291896	-0.070780
O40	O	1.964844	0.541896	0.179220
O41	O	1.115673	-0.338902	-0.271359
O42	O	1.365673	-0.088902	-0.021359
O43	O	1.615673	0.161098	0.228641
O44	O	1.865673	0.411098	0.478641
O45	O	0.984994	-0.338844	-0.441662
O46	O	1.234994	-0.088844	-0.191662
O47	O	1.484994	0.161156	0.058338
O48	O	1.734994	0.411156	0.308338
O49	O	1.115718	-0.437803	-0.741026
O50	O	1.365718	-0.187803	-0.491026
O51	O	1.615718	0.062197	-0.241026
O52	O	1.865718	0.312197	0.008974
O53	O	0.984969	-0.437846	-0.570686
O54	O	1.234969	-0.187846	-0.320686
O55	O	1.484969	0.062154	-0.070686
O56	O	1.734969	0.312154	0.179314
O57	O	1.214810	-0.338768	-0.741067
O58	O	1.464810	-0.088768	-0.491067
O59	O	1.714810	0.161232	-0.241067
O60	O	1.964810	0.411232	0.008933
O61	O	1.214629	-0.568612	-0.441634
O62	O	1.464629	-0.318612	-0.191634
O63	O	1.714629	-0.068612	0.058366
O64	O	1.964629	0.181388	0.308366
O65	O	1.115615	-0.568568	-0.570670
O66	O	1.365615	-0.318568	-0.320670
O67	O	1.615615	-0.068568	-0.070670
O68	O	1.865615	0.181432	0.179330
C69	C	1.165128	-0.597846	-0.506167
C70	C	1.415128	-0.347846	-0.256167
C71	C	1.665128	-0.097846	-0.006167
C72	C	1.915128	0.152154	0.243833
C73	C	1.165165	-0.687467	-0.506188
C74	C	1.415165	-0.437467	-0.256188
C75	C	1.665165	-0.187467	-0.006188
C76	C	1.915165	0.062533	0.243812
C77	C	0.955725	-0.388344	-0.506171
C78	C	1.205725	-0.138344	-0.256171
C79	C	1.455725	0.111656	-0.006171
C80	C	1.705725	0.361656	0.243829
C81	C	0.866104	-0.388358	-0.506183
C82	C	1.116104	-0.138358	-0.256183
C83	C	1.366104	0.111642	-0.006183
C84	C	1.616104	0.361642	0.243817
C85	C	1.165196	-0.760250	-0.506209
C86	C	1.415196	-0.510250	-0.256209
C87	C	1.665196	-0.260250	-0.006209
C88	C	1.915196	-0.010250	0.243791
C89	C	1.165243	-0.851558	-0.506232
C90	C	1.415243	-0.601558	-0.256232
C91	C	1.665243	-0.351558	-0.006232
C92	C	1.915243	-0.101558	0.243768
C93	C	1.165285	-0.924334	-0.506245
C94	C	1.415285	-0.674334	-0.256245
C95	C	1.665285	-0.424334	-0.006245
C96	C	1.915285	-0.174334	0.243755
C97	C	1.165331	-1.015649	-0.506267
C98	C	1.415331	-0.765649	-0.256267
C99	C	1.665331	-0.515649	-0.006267
C100	C	1.915331	-0.265649	0.243733
C101	C	0.537928	-0.388363	-0.506228
C102	C	0.787928	-0.138363	-0.256228
C103	C	1.037928	0.111637	-0.006228
C104	C	1.287928	0.361637	0.243772
C105	C	0.629237	-0.388360	-0.506212
C106	C	0.879237	-0.138360	-0.256212
C107	C	1.129237	0.111640	-0.006212
C108	C	1.379237	0.361640	0.243788
C109	C	0.702013	-0.388361	-0.506205
C110	C	0.952013	-0.138361	-0.256205
C111	C	1.202013	0.111639	-0.006205
C112	C	1.452013	0.361639	0.243795
C113	C	0.793328	-0.388357	-0.506190
C114	C	1.043328	-0.138357	-0.256190
C115	C	1.293328	0.111643	-0.006190
C116	C	1.543328	0.361643	0.243810
C117	C	1.375525	-0.388367	-0.506230
C118	C	1.625525	-0.138367	-0.256230
C119	C	1.875525	0.111633	-0.006230
C120	C	2.125525	0.361633	0.243770
C121	C	1.465146	-0.388373	-0.506243
C122	C	1.715146	-0.138373	-0.256243
C123	C	1.965146	0.111627	-0.006243
C124	C	2.215146	0.361627	0.243757
C125	C	1.165272	-0.388274	-0.780233
C126	C	1.415272	-0.138274	-0.530233
C127	C	1.665272	0.111726	-0.280233
C128	C	1.915272	0.361726	-0.030233
C129	C	1.165296	-0.388239	-0.897010
C130	C	1.415296	-0.138239	-0.647010
C131	C	1.665296	0.111761	-0.397010
C132	C	1.915296	0.361761	-0.147010
C133	C	1.165326	-0.178046	-0.506256
C134	C	1.415326	0.071954	-0.256256
C135	C	1.665326	0.321954	-0.006256
C136	C	1.915326	0.571954	0.243744
C137	C	1.165373	-0.088425	-0.506280
C138	C	1.415373	0.161575	-0.256280
C139	C	1.665373	0.411575	-0.006280
C140	C	1.915373	0.661575	0.243720
C141	C	1.113771	-0.336656	-0.951878
C142	C	1.363771	-0.086656	-0.701878
C143	C	1.613771	0.163344	-0.451878
C144	C	1.863771	0.413344	-0.201878
C145	C	1.113790	-0.336631	-1.061602
C146	C	1.363790	-0.086631	-0.811602
C147	C	1.613790	0.163369	-0.561602
C148	C	1.863790	0.413369	-0.311602
C149	C	1.216866	-0.439774	-1.061581
C150	C	1.466866	-0.189774	-0.811581
C151	C	1.716866	0.060226	-0.561581
C152	C	1.966866	0.310226	-0.311581
C153	C	1.216842	-0.439803	-0.951859
C154	C	1.466842	-0.189803	-0.701859
C155	C	1.716842	0.060197	-0.451859
C156	C	1.966842	0.310197	-0.201859
C157	C	1.165206	-0.388378	-0.233233
C158	C	1.415206	-0.138378	0.016767
C159	C	1.665206	0.111622	0.266767
C160	C	1.915206	0.361622	0.516767
C161	C	1.165339	-0.388186	-0.116456
C162	C	1.415339	-0.138186	0.133544
C163	C	1.665339	0.111814	0.383544
C164	C	1.915339	0.361814	0.633544
H165	H	1.071799	-0.294670	-0.907224
H166	H	1.321799	-0.044670	-0.657224
H167	H	1.571799	0.205330	-0.407224
H168	H	1.821799	0.455330	-0.157224
H169	H	1.258833	-0.481755	-1.106252
H170	H	1.508833	-0.231755	-0.856252
H171	H	1.758833	0.018245	-0.606252
H172	H	2.008833	0.268245	-0.356252
H173	H	1.071833	-0.294628	-1.106271
H174	H	1.321833	-0.044628	-0.856271
H175	H	1.571833	0.205372	-0.606271
H176	H	1.821833	0.455372	-0.356271
H177	H	1.258802	-0.481811	-0.907184
H178	H	1.508802	-0.231811	-0.657184
H179	H	1.758802	0.018189	-0.407184
H180	H	2.008802	0.268189	-0.157184
