data_functionalizedCrystal
_audit_creation_method	'MofGen! by Chris Wilmer'
_symmetry_space_group_name_H-M	'P1'
_symmetry_Int_Tables_number	1
_symmetry_cell_setting	triclinic
loop_
_symmetry_equiv_pos_as_xyz
  x,y,z
_cell_length_a	21.395362
_cell_length_b	19.805405
_cell_length_c	21.395355
_cell_angle_alpha	90.017223
_cell_angle_beta	90.043940
_cell_angle_gamma	90.042604
loop_
_atom_site_label
_atom_site_type_symbol
_atom_site_fract_x
_atom_site_fract_y
_atom_site_fract_z
Zn1	Zn	0.957877	-0.269255	0.354591
Zn2	Zn	0.957787	-0.382425	0.249816
Zn3	Zn	0.853092	-0.269286	0.249793
Zn4	Zn	0.853068	-0.382438	0.354521
O5	O	0.905456	-0.325851	0.302180
O6	O	1.045543	-0.284248	0.340732
O7	O	0.943871	-0.367424	0.162135
O8	O	0.867039	-0.174565	0.263714
O9	O	1.045476	-0.367393	0.263754
O10	O	0.944024	-0.174542	0.340709
O11	O	0.866952	-0.284302	0.162118
O12	O	0.765411	-0.284315	0.263646
O13	O	0.866999	-0.367417	0.442208
O14	O	0.765393	-0.367448	0.340589
O15	O	0.944002	-0.284261	0.442260
O16	O	0.943848	-0.477143	0.263686
O17	O	0.866912	-0.477153	0.340612
C18	C	0.742668	-0.325887	0.302107
C19	C	0.673027	-0.325918	0.302091
C20	C	0.640321	-0.369263	0.342096
C21	C	0.574886	-0.369246	0.342124
C22	C	0.542159	-0.325892	0.302136
C23	C	0.574872	-0.282539	0.262129
C24	C	0.640306	-0.282553	0.262106
C25	C	0.438434	-0.320440	0.245731
C26	C	0.373001	-0.320431	0.245752
C27	C	0.340338	-0.325848	0.302205
C28	C	0.373116	-0.331287	0.358639
C29	C	0.438550	-0.331301	0.358616
C30	C	0.471206	-0.325873	0.302156
C31	C	0.236680	-0.369177	0.342243
C32	C	0.171243	-0.369156	0.342272
C33	C	0.171231	-0.282452	0.262272
C34	C	0.236666	-0.282470	0.262248
C35	C	0.269387	-0.325836	0.302233
C36	C	0.905384	-0.501707	0.302157
C37	C	0.905411	-0.576939	0.302169
C38	C	0.945474	-0.612213	0.342292
C39	C	0.945496	-0.682901	0.342303
C40	C	0.905459	-0.718315	0.302188
C41	C	0.865392	-0.683036	0.262064
C42	C	0.865367	-0.612349	0.262056
C43	C	0.865493	-0.968109	0.262096
C44	C	0.865523	-1.038801	0.262106
C45	C	0.945622	-1.038662	0.342343
C46	C	0.945597	-0.967975	0.342335
C47	C	0.905528	-0.932702	0.302213
C48	C	0.905503	-0.856053	0.302202
C49	C	0.905487	-0.794962	0.302196
C50	C	1.068879	-0.325816	0.302253
C51	C	1.138520	-0.325800	0.302285
C52	C	0.905508	-0.325837	0.465604
C53	C	0.905530	-0.325831	0.535245
C54	C	0.905545	-0.149308	0.302217
C55	C	0.905582	-0.074076	0.302232
C56	C	0.905440	-0.325816	0.139393
C57	C	0.905539	-0.325631	0.069752
C58	C	0.945623	-0.282530	0.567986
C59	C	0.945623	-0.282501	0.633421
C60	C	0.905535	-0.325785	0.666113
C61	C	0.865434	-0.369089	0.633364
C62	C	0.865431	-0.369112	0.567930
C63	C	0.900563	-0.386731	0.769778
C64	C	0.900570	-0.386709	0.835211
C65	C	0.905539	-0.325714	0.867934
C66	C	0.910514	-0.264738	0.835216
C67	C	0.910512	-0.264762	0.769782
C68	C	0.905533	-0.325765	0.737066
C69	C	0.945633	-0.282378	0.971628
C70	C	0.945628	-0.282347	1.037064
C71	C	0.865443	-0.368941	1.037006
C72	C	0.865445	-0.368966	0.971571
C73	C	0.905543	-0.325685	0.938885
H74	H	0.666935	-0.247254	0.229530
F75	F	0.822776	-0.720727	0.219376
F76	F	0.822843	-0.930578	0.219399
H77	H	0.144585	-0.247150	0.229716
F78	F	0.988212	-0.930289	0.385029
H79	H	0.978270	-0.247237	0.660084
F80	F	0.895280	-0.451604	0.870027
F81	F	0.895288	-0.451657	0.734959
F82	F	0.473433	-0.337086	0.418676
F83	F	0.540041	-0.236397	0.219573
F84	F	0.988130	-0.720439	0.385014
F85	F	0.822773	-0.415003	1.071795
H86	H	0.914561	-0.215070	0.861857
F87	F	0.338360	-0.337050	0.418726
F88	F	0.822907	-1.076489	0.219409
H89	H	0.832743	-0.583629	0.229385
H90	H	0.832779	-0.404372	0.541273
F91	F	0.473189	-0.314676	0.185641
F92	F	0.271506	-0.415327	0.384801
F93	F	0.915804	-0.199869	0.734963
F94	F	0.136435	-0.415288	0.384856
H95	H	0.666958	-0.404574	0.374656
H96	H	0.978246	-1.067389	0.375015
F97	F	0.988298	-0.236464	0.533204
H98	H	0.263295	-0.247178	0.229669
F99	F	0.988307	-0.236312	0.936839
H100	H	0.346318	-0.316007	0.199800
F101	F	0.822773	-0.415055	0.936724
F102	F	0.988311	-0.236266	1.071910
H103	H	0.548252	-0.404542	0.374702
H104	H	0.832792	-0.404329	0.659986
F105	F	0.988091	-0.574530	0.384985
