data_functionalizedCrystal
_audit_creation_method	'MofGen! by Chris Wilmer'
_symmetry_space_group_name_H-M	'P1'
_symmetry_Int_Tables_number	1
_symmetry_cell_setting	triclinic
loop_
_symmetry_equiv_pos_as_xyz
  x,y,z
_cell_length_a	21.295418
_cell_length_b	21.295417
_cell_length_c	12.759393
_cell_angle_alpha	90.039170
_cell_angle_beta	90.040879
_cell_angle_gamma	90.046319
loop_
_atom_site_label
_atom_site_type_symbol
_atom_site_fract_x
_atom_site_fract_y
_atom_site_fract_z
Zn1	Zn	0.962338	-0.250306	0.594554
Zn2	Zn	1.462338	0.249694	1.094554
Zn3	Zn	0.962246	-0.355590	0.418850
Zn4	Zn	1.462246	0.144410	0.918850
Zn5	Zn	0.857067	-0.250368	0.418824
Zn6	Zn	1.357067	0.249632	0.918824
Zn7	Zn	0.857031	-0.355571	0.594423
Zn8	Zn	1.357031	0.144429	1.094423
O9	O	0.909670	-0.302959	0.506663
O10	O	1.409670	0.197041	1.006663
O11	O	1.050415	-0.264255	0.571312
O12	O	1.550415	0.235745	1.071312
O13	O	0.948270	-0.341666	0.271826
O14	O	1.448270	0.158334	0.771826
O15	O	0.871085	-0.162270	0.442179
O16	O	1.371085	0.337730	0.942179
O17	O	1.050347	-0.341607	0.442223
O18	O	1.550347	0.158393	0.942223
O19	O	0.948427	-0.162225	0.571286
O20	O	1.448427	0.337775	1.071286
O21	O	0.870995	-0.264360	0.271807
O22	O	1.370995	0.235640	0.771807
O23	O	0.768972	-0.264341	0.442052
O24	O	1.268972	0.235659	0.942052
O25	O	0.871024	-0.341573	0.741462
O26	O	1.371024	0.158427	1.241462
O27	O	0.768946	-0.341633	0.571064
O28	O	1.268946	0.158367	1.071064
O29	O	0.948393	-0.264236	0.741557
O30	O	1.448393	0.235764	1.241557
O31	O	0.948235	-0.443677	0.442097
O32	O	1.448235	0.056323	0.942097
O33	O	0.870934	-0.443663	0.571089
O34	O	1.370934	0.056337	1.071089
C35	C	0.746119	-0.302992	0.506542
C36	C	1.246119	0.197008	1.006542
C37	C	0.676150	-0.303021	0.506515
C38	C	1.176150	0.196979	1.006515
C39	C	0.643287	-0.343320	0.573591
C40	C	1.143287	0.156680	1.073591
C41	C	0.577544	-0.343305	0.573638
C42	C	1.077544	0.156695	1.073638
C43	C	0.544668	-0.302997	0.506591
C44	C	1.044668	0.197003	1.006591
C45	C	0.577540	-0.262690	0.439510
C46	C	1.077540	0.237310	0.939510
C47	C	0.643281	-0.262702	0.439472
C48	C	1.143281	0.237298	0.939472
N49	N	0.441395	-0.298087	0.414700
N50	N	0.941395	0.201913	0.914700
N51	N	0.378943	-0.298079	0.414738
N52	N	0.878943	0.201921	0.914738
C53	C	0.346593	-0.302957	0.506702
C54	C	0.846593	0.197043	1.006702
N55	N	0.379054	-0.307855	0.598627
N56	N	0.879054	0.192145	1.098627
N57	N	0.441511	-0.307866	0.598587
N58	N	0.941511	0.192134	1.098587
C59	C	0.473383	-0.302979	0.506625
C60	C	0.973383	0.197021	1.006625
C61	C	0.242444	-0.343241	0.573835
C62	C	0.742444	0.156759	1.073835
C63	C	0.176700	-0.343221	0.573884
C64	C	0.676700	0.156779	1.073884
C65	C	0.176697	-0.262609	0.439746
C66	C	0.676697	0.237391	0.939746
C67	C	0.242440	-0.262626	0.439707
C68	C	0.742440	0.237374	0.939707
C69	C	0.275309	-0.302945	0.506750
C70	C	0.775309	0.197055	1.006750
C71	C	0.909588	-0.466510	0.506605
C72	C	1.409588	0.033490	1.006605
C73	C	0.909610	-0.536479	0.506615
C74	C	1.409610	-0.036479	1.006615
C75	C	0.949896	-0.569332	0.439517
C76	C	1.449896	-0.069332	0.939517
C77	C	0.949926	-0.635074	0.439541
C78	C	1.449926	-0.135074	0.939541
C79	C	0.909658	-0.667961	0.506651
C80	C	1.409658	-0.167961	1.006651
C81	C	0.869369	-0.635100	0.573762
C82	C	1.369369	-0.135100	1.073762
C83	C	0.869345	-0.569359	0.573744
C84	C	1.369345	-0.069359	1.073744
N85	N	0.854590	-0.771241	0.514620
N86	N	1.354590	-0.271241	1.014620
N87	N	0.854615	-0.833693	0.514631
N88	N	1.354615	-0.333693	1.014631
C89	C	0.909728	-0.866036	0.506711
C90	C	1.409728	-0.366036	1.006711
N91	N	0.964817	-0.833568	0.498760
N92	N	1.464817	-0.333568	0.998760
N93	N	0.964792	-0.771111	0.498743
N94	N	1.464792	-0.271111	0.998743
C95	C	0.909679	-0.739246	0.506679
C96	C	1.409679	-0.239246	1.006679
C97	C	0.950050	-0.970174	0.439636
C98	C	1.450050	-0.470174	0.939636
C99	C	0.950081	-1.035918	0.439667
C100	C	1.450081	-0.535918	0.939667
C101	C	0.869518	-1.035942	0.573882
C102	C	1.369518	-0.535942	1.073882
C103	C	0.869493	-0.970200	0.573857
C104	C	1.369493	-0.470200	1.073857
C105	C	0.909758	-0.937320	0.506728
C106	C	1.409758	-0.437320	1.006728
C107	C	1.073861	-0.302926	0.506785
C108	C	1.573861	0.197074	1.006785
C109	C	1.143829	-0.302912	0.506837
C110	C	1.643829	0.197088	1.006837
C111	C	0.909714	-0.302895	0.780696
C112	C	1.409714	0.197105	1.280696
C113	C	0.909733	-0.302868	0.897473
C114	C	1.409733	0.197132	1.397473
C115	C	0.909770	-0.138768	0.506744
C116	C	1.409770	0.361232	1.006744
C117	C	0.909813	-0.068800	0.506779
C118	C	1.409813	0.431200	1.006779
C119	C	0.909663	-0.302977	0.233695
C120	C	1.409663	0.197023	0.733695
C121	C	0.909766	-0.302826	0.116919
C122	C	1.409766	0.197174	0.616919
C123	C	0.950025	-0.262595	0.952387
C124	C	1.450025	0.237405	1.452387
C125	C	0.950040	-0.262572	1.062111
C126	C	1.450040	0.237428	1.562111
C127	C	0.869470	-0.343102	1.061998
C128	C	1.369470	0.156898	1.561998
C129	C	0.869452	-0.343121	0.952276
C130	C	1.369452	0.156879	1.452276
C131	C	0.990306	-0.222342	0.897584
C132	C	1.490306	0.277658	1.397584
C133	C	1.030601	-0.182066	0.952498
C134	C	1.530601	0.317934	1.452498
C135	C	1.030616	-0.182044	1.062222
C136	C	1.530616	0.317956	1.562222
C137	C	0.990336	-0.222297	1.117032
C138	C	1.490336	0.277703	1.617032
H139	H	0.269198	-0.229813	0.385081
H140	H	0.769198	0.270187	0.885081
H141	H	0.269208	-0.376068	0.628431
H142	H	0.769208	0.123932	1.128431
H143	H	0.149930	-0.229787	0.385160
H144	H	0.649930	0.270213	0.885160
C145	C	1.074939	-0.137737	1.122624
C146	C	1.574939	0.362263	1.622624
N147	N	1.108327	-0.104367	1.168116
N148	N	1.608327	0.395633	1.668116
H149	H	0.982684	-0.542563	0.384860
H150	H	1.482684	-0.042563	0.884860
H151	H	0.982734	-0.661829	0.384902
H152	H	1.482734	-0.161829	0.884902
C153	C	0.825223	-1.072114	0.647707
C154	C	1.325223	-0.572114	1.147707
N155	N	0.791860	-1.099362	0.703315
N156	N	1.291860	-0.599362	1.203315
C157	C	0.825071	-0.671277	0.647579
C158	C	1.325071	-0.171277	1.147579
N159	N	0.791706	-0.698525	0.703182
N160	N	1.291706	-0.198525	1.203182
H161	H	0.670045	-0.376151	0.628184
H162	H	1.170045	0.123849	1.128184
H163	H	0.149944	-0.376037	0.628512
H164	H	0.649944	0.123963	1.128512
C165	C	0.679432	-0.218371	0.365675
C166	C	1.179432	0.281629	0.865675
N167	N	0.706663	-0.184982	0.310086
N168	N	1.206663	0.315018	0.810086
H169	H	0.550781	-0.376121	0.628263
H170	H	1.050781	0.123879	1.128263
C171	C	0.825132	-0.387427	0.891867
C172	C	1.325132	0.112573	1.391867
N173	N	0.791750	-0.420799	0.846368
N174	N	1.291750	0.079201	1.346368
H175	H	0.990344	-0.222268	1.206377
H176	H	1.490344	0.277732	1.706377
H177	H	0.836538	-0.542609	0.628384
H178	H	1.336538	-0.042609	1.128384
H179	H	0.982891	-1.062666	0.385030
H180	H	1.482891	-0.562666	0.885030
C181	C	0.541375	-0.218351	0.365757
C182	C	1.041375	0.281649	0.865757
N183	N	0.514135	-0.184952	0.310207
N184	N	1.014135	0.315048	0.810207
C185	C	0.994352	-0.934004	0.365809
C186	C	1.494352	-0.434004	0.865809
N187	N	1.027722	-0.906762	0.310206
N188	N	1.527722	-0.406762	0.810206
H189	H	0.836685	-0.943449	0.628489
H190	H	1.336685	-0.443449	1.128489
H191	H	0.990299	-0.222358	0.808241
H192	H	1.490299	0.277642	1.308241
H193	H	1.063392	-0.149290	0.907864
H194	H	1.563392	0.350710	1.407864
C195	C	0.825165	-0.387378	1.122294
C196	C	1.325165	0.112622	1.622294
N197	N	0.791795	-0.420729	1.167709
N198	N	1.291795	0.079271	1.667709
