data_functionalizedCrystal
_audit_creation_method	'MofGen! by Chris Wilmer'
_symmetry_space_group_name_H-M	'P1'
_symmetry_Int_Tables_number	1
_symmetry_cell_setting	triclinic
loop_
_symmetry_equiv_pos_as_xyz
  x,y,z
_cell_length_a	12.759401
_cell_length_b	16.625546
_cell_length_c	12.759393
_cell_angle_alpha	89.964325
_cell_angle_beta	89.979527
_cell_angle_gamma	90.023993
loop_
_atom_site_label
_atom_site_type_symbol
_atom_site_fract_x
_atom_site_fract_y
_atom_site_fract_z
Zn1	Zn	1.606205	-0.320925	-0.593986
Zn2	Zn	1.606074	-0.455781	-0.418292
Zn3	Zn	1.430505	-0.320970	-0.418322
Zn4	Zn	1.430472	-0.455723	-0.593930
O5	O	1.518314	-0.388350	-0.506132
O6	O	1.753208	-0.338820	-0.570692
O7	O	1.582743	-0.437941	-0.271275
O8	O	1.453881	-0.208131	-0.441660
O9	O	1.753112	-0.437898	-0.441610
O10	O	1.582967	-0.208099	-0.570720
O11	O	1.453754	-0.338895	-0.271297
O12	O	1.283480	-0.338839	-0.441605
O13	O	1.453824	-0.437799	-0.740958
O14	O	1.283455	-0.437842	-0.570623
O15	O	1.582934	-0.338764	-0.741000
O16	O	1.582711	-0.568606	-0.441555
O17	O	1.453697	-0.568563	-0.570595
C18	C	1.245346	-0.388340	-0.506112
C19	C	1.128570	-0.388355	-0.506128
C20	C	1.073723	-0.439984	-0.573202
C21	C	0.963998	-0.439988	-0.573223
C22	C	0.963979	-0.336730	-0.439086
C23	C	1.073701	-0.336723	-0.439071
C24	C	1.518214	-0.597841	-0.506088
C25	C	1.518268	-0.687462	-0.506105
C26	C	1.518451	-1.015637	-0.506214
C27	C	1.518397	-0.924329	-0.506187
C28	C	1.518359	-0.851552	-0.506159
C29	C	1.518306	-0.760238	-0.506132
C30	C	1.792347	-0.388360	-0.506154
C31	C	1.909124	-0.388365	-0.506163
C32	C	1.518390	-0.388270	-0.780166
C33	C	1.518423	-0.388237	-0.896943
C34	C	1.518442	-0.178041	-0.506200
C35	C	1.518497	-0.088420	-0.506228
C36	C	1.585677	-0.336630	-1.061559
C37	C	1.585657	-0.336661	-0.951835
C38	C	1.451212	-0.439790	-0.951780
C39	C	1.451238	-0.439762	-1.061502
C40	C	1.518298	-0.388371	-0.233165
C41	C	1.518469	-0.388177	-0.116389
H42	H	0.919347	-0.482028	-0.627843
H43	H	1.118358	-0.294675	-0.384451
C44	C	0.904534	-0.280727	-0.366109
C45	C	0.931185	-0.298172	-0.262115
C46	C	0.876458	-0.246593	-0.194858
H47	H	0.831317	-0.288076	-0.375581
H48	H	0.922568	-0.226551	-0.381548
H49	H	0.913145	-0.352336	-0.246681
H50	H	1.004393	-0.290819	-0.252611
H51	H	0.894491	-0.192417	-0.210298
H52	H	0.803243	-0.253946	-0.204339
H53	H	0.894540	-0.258418	-0.124292
C54	C	1.378192	-0.495890	-0.892375
C55	C	1.319369	-0.541050	-0.963882
C56	C	1.252107	-0.592751	-0.909200
H57	H	1.332324	-0.465158	-0.849566
H58	H	1.418344	-0.531073	-0.849595
H59	H	1.279220	-0.505872	-1.006643
H60	H	1.365209	-0.571798	-1.006693
H61	H	1.292259	-0.627934	-0.866420
H62	H	1.206246	-0.562013	-0.866392
H63	H	1.212195	-0.623404	-0.957708
C64	C	1.658616	-0.280501	-1.121017
C65	C	1.635803	-0.200731	-1.094331
C66	C	1.702986	-0.149003	-1.149069
H67	H	1.649075	-0.287754	-1.194233
H68	H	1.729212	-0.292263	-1.103015
H69	H	1.565224	-0.188972	-1.112340
H70	H	1.645351	-0.193452	-1.021125
H71	H	1.773582	-0.160766	-1.131067
H72	H	1.693439	-0.156263	-1.222282
H73	H	1.687523	-0.094874	-1.130963
H74	H	1.118394	-0.482024	-0.627806
C75	C	1.378211	-0.495604	-1.121179
C76	C	1.310935	-0.449936	-1.184208
C77	C	1.243669	-0.501351	-1.239209
H78	H	1.338061	-0.526347	-1.072902
H79	H	1.418372	-0.530709	-1.164029
H80	H	1.270778	-0.414845	-1.141361
H81	H	1.351056	-0.419194	-1.232504
H82	H	1.283831	-0.536456	-1.282059
H83	H	1.203527	-0.532092	-1.190925
H84	H	1.198021	-0.470373	-1.281988
H85	H	1.640386	-0.294687	-0.907198
