data_functionalizedCrystal
_audit_creation_method	'MofGen! by Chris Wilmer'
_symmetry_space_group_name_H-M	'P1'
_symmetry_Int_Tables_number	1
_symmetry_cell_setting	triclinic
loop_
_symmetry_equiv_pos_as_xyz
  x,y,z
_cell_length_a	18.215407
_cell_length_b	12.759394
_cell_length_c	18.215407
_cell_angle_alpha	90.010676
_cell_angle_beta	90.006572
_cell_angle_gamma	90.012280
loop_
_atom_site_label
_atom_site_type_symbol
_atom_site_fract_x
_atom_site_fract_y
_atom_site_fract_z
Zn1	Zn	1.125045	-0.418500	0.416081
Zn2	Zn	1.124998	-0.594153	0.293020
Zn3	Zn	1.002001	-0.418481	0.293034
Zn4	Zn	1.001965	-0.594130	0.416051
O5	O	1.063502	-0.506316	0.354546
O6	O	1.228023	-0.441819	0.399764
O7	O	1.108678	-0.570851	0.190038
O8	O	1.018357	-0.271462	0.309374
O9	O	1.227989	-0.570870	0.309352
O10	O	1.108757	-0.271477	0.399777
O11	O	1.018312	-0.441785	0.190048
O12	O	0.899012	-0.441763	0.309345
O13	O	1.018296	-0.570831	0.519039
O14	O	0.898985	-0.570812	0.399725
O15	O	1.108723	-0.441797	0.519061
O16	O	1.108643	-0.741171	0.309322
O17	O	1.018251	-0.741154	0.399712
C18	C	0.872296	-0.506284	0.354533
C19	C	0.790497	-0.506295	0.354545
C20	C	0.602320	-0.439237	0.401697
C21	C	0.525461	-0.439246	0.401700
C22	C	0.525436	-0.573425	0.307408
C23	C	0.602294	-0.573410	0.307403
C24	C	0.640733	-0.506317	0.354551
C25	C	0.487017	-0.506341	0.354559
C26	C	0.403684	-0.506352	0.354562
C27	C	0.724072	-0.506305	0.354548
C28	C	1.063458	-0.779284	0.354529
C29	C	1.063506	-0.896060	0.354546
C30	C	1.157702	-0.896024	0.260493
C31	C	1.204819	-0.950867	0.213476
C32	C	1.204862	-1.060589	0.213496
C33	C	1.157785	-1.115470	0.260540
C34	C	1.110668	-1.060627	0.307557
C35	C	1.110628	-0.950903	0.307531
C36	C	1.016477	-1.060663	0.401612
C37	C	1.016429	-0.950941	0.401590
C38	C	0.969400	-1.115544	0.448656
C39	C	0.922278	-1.060701	0.495671
C40	C	0.922236	-0.950973	0.495649
C41	C	0.969312	-0.896099	0.448607
C42	C	1.255455	-0.506349	0.354560
C43	C	1.337254	-0.506363	0.354565
C44	C	1.063511	-0.506313	0.546499
C45	C	1.063514	-0.506312	0.628298
C46	C	1.063567	-0.232283	0.354580
C47	C	1.063594	-0.115506	0.354595
C48	C	1.110579	-0.439133	0.893369
C49	C	1.110584	-0.439132	0.816510
C50	C	1.016428	-0.573509	0.816476
C51	C	1.016427	-0.573514	0.893334
C52	C	1.063502	-0.506320	0.931778
C53	C	1.063508	-0.506315	0.778062
C54	C	1.063513	-0.506315	0.694728
C55	C	1.063498	-0.506321	1.015117
C56	C	1.063491	-0.506337	1.163340
C57	C	1.063495	-0.506322	1.081541
H58	H	0.494188	-0.384620	0.440090
Br59	Br	1.157500	-1.264378	0.260221
H60	H	0.978091	-0.628232	0.924607
Br61	Br	1.157875	-0.747116	0.260691
Br62	Br	0.952541	-0.664691	0.764298
H63	H	1.243233	-1.105242	0.175214
Br64	Br	1.268712	-0.876383	0.149639
Br65	Br	0.654486	-0.348180	0.465682
H66	H	0.883955	-1.105394	0.533974
H67	H	0.494129	-0.628050	0.269022
Br68	Br	0.654431	-0.664440	0.243404
Br69	Br	1.174462	-0.347937	0.945541
H70	H	0.969441	-1.204885	0.448672
H71	H	0.883870	-0.906326	0.533939
H72	H	0.969278	-0.806757	0.448579
H73	H	1.148920	-0.384423	0.785240
