data_functionalizedCrystal
_audit_creation_method	'MofGen! by Chris Wilmer'
_symmetry_space_group_name_H-M	'P1'
_symmetry_Int_Tables_number	1
_symmetry_cell_setting	triclinic
loop_
_symmetry_equiv_pos_as_xyz
  x,y,z
_cell_length_a	17.077404
_cell_length_b	13.031981
_cell_length_c	13.032268
_cell_angle_alpha	89.068348
_cell_angle_beta	97.162711
_cell_angle_gamma	97.186978
loop_
_atom_site_label
_atom_site_type_symbol
_atom_site_fract_x
_atom_site_fract_y
_atom_site_fract_z
Zn1	Zn	1.103470	-0.483444	-0.529420
Zn2	Zn	1.107569	-0.633632	-0.335591
Zn3	Zn	0.990691	-0.461637	-0.357466
Zn4	Zn	0.957882	-0.655380	-0.507513
O5	O	1.039903	-0.558523	-0.432497
O6	O	1.213857	-0.503391	-0.503721
O7	O	1.107512	-0.592588	-0.194579
O8	O	1.017667	-0.320593	-0.398599
O9	O	1.216869	-0.613734	-0.361316
O10	O	1.100526	-0.336615	-0.524933
O11	O	1.021642	-0.466225	-0.210651
O12	O	0.876496	-0.487313	-0.377356
O13	O	0.961748	-0.650800	-0.654332
O14	O	0.852391	-0.629655	-0.487595
O15	O	1.068711	-0.524479	-0.670427
O16	O	1.075697	-0.780453	-0.340074
O17	O	0.965722	-0.796431	-0.466384
C18	C	0.835962	-0.558478	-0.432473
C19	C	0.748710	-0.558487	-0.432484
C20	C	0.360356	-0.632778	-0.489806
C21	C	0.442339	-0.632763	-0.489792
C22	C	0.495853	-0.558552	-0.432510
C23	C	0.467380	-0.484359	-0.375230
C24	C	0.385398	-0.484380	-0.375239
C25	C	0.638255	-0.484319	-0.375218
C26	C	0.720242	-0.484297	-0.375211
C27	C	0.695196	-0.632702	-0.489771
C28	C	0.613214	-0.632723	-0.489780
C29	C	0.584747	-0.558528	-0.432501
C30	C	1.017613	-0.825766	-0.398500
C31	C	1.008146	-0.940098	-0.383991
C32	C	1.044884	-0.998922	-0.440090
C33	C	1.035100	-1.117090	-0.425095
C34	C	1.244641	-0.558569	-0.432522
C35	C	1.331888	-0.558589	-0.432533
C36	C	1.011113	-0.592498	-0.700738
C37	C	0.998844	-0.606976	-0.815046
C38	C	1.062299	-0.290239	-0.466650
C39	C	1.071843	-0.175913	-0.481203
C40	C	1.046297	-0.550930	-0.873971
C41	C	1.033618	-0.565892	-0.992115
C42	C	1.068633	-0.524606	-0.165310
C43	C	1.081078	-0.509838	-0.051039
H44	H	0.718377	-0.693113	-0.536412
H45	H	0.510957	-0.423939	-0.328585
C46	C	1.050798	-0.895409	-0.593679
C47	C	1.097123	-0.948815	-0.519917
H48	H	1.083052	-0.864472	-0.642957
H49	H	1.008918	-0.942326	-0.627691
H50	H	1.029019	-0.843198	-0.560411
H51	H	1.118898	-1.001031	-0.553184
H52	H	1.139017	-0.901894	-0.485902
H53	H	0.996396	-1.154208	-0.365966
C54	C	1.081642	-0.397377	-0.770636
C55	C	1.113818	-0.471202	-0.824006
H56	H	1.123330	-0.348162	-0.739786
H57	H	1.046273	-0.363292	-0.817550
H58	H	1.053511	-0.430613	-0.718364
H59	H	1.141944	-0.437967	-0.876284
H60	H	1.149201	-0.505291	-0.777089
H61	H	0.948826	-0.666029	-0.852063
H62	H	1.110539	-1.138797	-0.540342
C63	C	0.966610	-0.645028	-1.149437
C64	C	0.966100	-0.645636	-1.042070
H65	H	0.924932	-0.694264	-1.180274
H66	H	0.959014	-0.578133	-1.175781
H67	H	1.016229	-0.662294	-1.165069
H68	H	0.916482	-0.628362	-1.026437
H69	H	0.973690	-0.712546	-1.015716
H70	H	1.131092	-0.450768	-1.014029
H71	H	0.316789	-0.693204	-0.536458
C72	C	0.956323	-1.097564	-0.304761
C73	C	0.955904	-0.990200	-0.304164
H74	H	0.924073	-1.128490	-0.255474
H75	H	0.935935	-1.123848	-0.371629
H76	H	1.009247	-1.113167	-0.287567
H77	H	0.902981	-0.974597	-0.321365
H78	H	0.976289	-0.963907	-0.237281
H79	H	0.362221	-0.423964	-0.328605
C80	C	0.518502	-0.664756	-0.626251
C81	C	0.473629	-0.714309	-0.552758
H82	H	0.537821	-0.715103	-0.665121
H83	H	0.486022	-0.625006	-0.671349
H84	H	0.562105	-0.620567	-0.592119
H85	H	0.430023	-0.758493	-0.586891
H86	H	0.506111	-0.754077	-0.507654
C87	C	0.736770	-0.337641	-0.261926
C88	C	0.779067	-0.402746	-0.312219
H89	H	0.773088	-0.287304	-0.223027
H90	H	0.703265	-0.304036	-0.311787
H91	H	0.705282	-0.377432	-0.216841
H92	H	0.810551	-0.362956	-0.357310
H93	H	0.812586	-0.436353	-0.262351
C94	C	0.562090	-0.452297	-0.238760
C95	C	0.606960	-0.402760	-0.312263
H96	H	0.542773	-0.401942	-0.199898
H97	H	0.518493	-0.496491	-0.272876
H98	H	0.594578	-0.492041	-0.193647
H99	H	0.574469	-0.363022	-0.357381
H100	H	0.650562	-0.358548	-0.278145
H101	H	0.569644	-0.693148	-0.536429
