data_functionalizedCrystal
_audit_creation_method	'MofGen! by Chris Wilmer'
_symmetry_space_group_name_H-M	'P1'
_symmetry_Int_Tables_number	1
_symmetry_cell_setting	triclinic
loop_
_symmetry_equiv_pos_as_xyz
  x,y,z
_cell_length_a	14.809374
_cell_length_b	20.875652
_cell_length_c	20.875641
_cell_angle_alpha	64.820057
_cell_angle_beta	81.061316
_cell_angle_gamma	53.026461
loop_
_atom_site_label
_atom_site_type_symbol
_atom_site_fract_x
_atom_site_fract_y
_atom_site_fract_z
Zr1	Zr	0.852172	0.691289	-0.147605
O2	O	0.703612	0.819355	-0.226030
O3	O	0.902782	0.558951	-0.127397
O4	O	0.902777	0.683623	-0.252069
O5	O	0.697856	0.702221	0.001345
O6	O	1.054116	0.682435	-0.268248
O7	O	0.703617	0.694684	-0.101359
O8	O	1.054126	0.459421	-0.045233
O9	O	0.697846	0.925236	-0.221670
O10	O	1.031186	0.614080	-0.126222
O11	O	0.913943	0.620592	-0.037501
O12	O	0.913937	0.767376	-0.184285
O13	O	0.796694	0.773887	-0.095564
Zr14	Zr	1.084351	0.701417	-0.009608
Zr15	Zr	1.093540	0.689396	-0.173409
Zr16	Zr	0.842983	0.703311	0.016196
Zr17	Zr	0.842976	0.860157	-0.140650
Zr18	Zr	1.093547	0.532550	-0.016563
O19	O	1.033741	0.833755	-0.029816
O20	O	1.046806	0.816662	-0.262720
O21	O	0.690546	0.836448	0.006873
O22	O	1.232912	0.573352	0.068817
O23	O	1.245977	0.556259	-0.164087
O24	O	0.889717	0.576044	0.105506
O25	O	1.238667	0.690486	-0.158558
O26	O	1.033746	0.709084	0.094856
O27	O	0.882407	0.710271	0.111035
O28	O	1.232906	0.698023	-0.055855
O29	O	0.889701	0.923730	-0.242180
O30	O	1.046822	0.468976	0.084967
O31	O	1.238677	0.467471	0.064456
O32	O	1.245981	0.457916	-0.065744
O33	O	0.690542	0.934791	-0.091470
O34	O	0.882397	0.933286	-0.111980
O35	O	1.022586	0.625331	0.027072
O36	O	1.139829	0.618819	-0.061649
O37	O	1.022580	0.772115	-0.119713
O38	O	0.905337	0.778627	-0.030992
C39	C	0.979764	0.485126	-0.087306
C40	C	0.983668	0.413437	-0.090259
C41	C	1.012217	0.009553	-0.111878
C42	C	1.008542	0.076913	-0.109101
C43	C	0.945511	0.113985	-0.061396
C44	C	0.886142	0.083699	-0.016471
C45	C	0.889811	0.016344	-0.019252
C46	C	0.927968	0.315796	-0.048115
C47	C	0.924306	0.383154	-0.045336
C48	C	1.046705	0.376365	-0.137967
C49	C	1.050374	0.309005	-0.140741
C50	C	0.991001	0.278728	-0.095818
N51	N	0.941755	0.182836	-0.058555
N52	N	0.994750	0.209882	-0.098664
C53	C	0.666347	0.698722	-0.046330
C54	C	0.563879	0.699526	-0.035376
C55	C	0.521213	0.695938	-0.084264
C56	C	0.415308	0.696769	-0.072943
C57	C	1.270177	0.693985	-0.110883
C58	C	1.372644	0.693181	-0.121837
C59	C	0.979755	0.681316	-0.283497
C60	C	0.983656	0.676213	-0.353034
C61	C	0.956759	0.907581	-0.069907
C62	C	0.952855	0.979269	-0.066954
C63	C	0.924288	0.753832	-0.416012
C64	C	0.927968	0.749031	-0.481350
C65	C	0.991010	0.666611	-0.483707
C66	C	1.050386	0.588986	-0.420722
C67	C	1.046712	0.593787	-0.355387
C68	C	1.008568	0.643670	-0.675859
C69	C	1.012235	0.638875	-0.741201
C70	C	0.889819	0.798921	-0.801824
C71	C	0.886145	0.803715	-0.736485
C72	C	0.945525	0.726090	-0.673506
N73	N	0.994771	0.661702	-0.550491
N74	N	0.941770	0.731000	-0.606725
C75	C	0.956768	0.711391	0.126283
C76	C	0.952867	0.716494	0.195821
C77	C	1.281679	0.482757	-0.119583
C78	C	1.388050	0.410265	-0.133489
C79	C	0.968270	0.500163	0.117584
C80	C	0.968273	0.433578	0.184169
C81	C	1.270185	0.497794	0.085307
C82	C	1.372655	0.430405	0.140938
C83	C	0.666338	0.894912	-0.242521
C84	C	0.563868	0.962301	-0.298152
C85	C	0.654844	0.909949	-0.037631
C86	C	0.548473	0.982442	-0.023724
C87	C	0.968253	0.892543	-0.274797
C88	C	0.968250	0.959129	-0.341382
C89	C	1.381293	0.373747	-0.173733
C90	C	1.481231	0.305641	-0.186814
C91	C	1.587925	0.274049	-0.159646
C92	C	1.594680	0.310574	-0.119401
C93	C	1.494743	0.378683	-0.106325
C94	C	1.024985	0.404783	0.249151
C95	C	1.024982	0.342229	0.311722
C96	C	0.968275	0.308467	0.309308
C97	C	0.911556	0.337268	0.244320
C98	C	0.911552	0.399825	0.181751
C99	C	1.481986	0.395360	0.120751
C100	C	1.578277	0.332049	0.173015
C101	C	1.565235	0.303781	0.245466
C102	C	1.455893	0.338833	0.265654
C103	C	1.359604	0.402147	0.213390
C104	C	0.454537	0.997355	-0.277964
C105	C	0.358245	1.060686	-0.330227
C106	C	0.371287	1.088958	-0.402678
C107	C	0.480629	1.053902	-0.422866
C108	C	0.576918	0.990576	-0.370603
C109	C	0.555230	1.018966	0.016513
C110	C	0.455292	1.087089	0.029577
C111	C	0.348598	1.118683	0.002407
C112	C	0.341843	1.082156	-0.037836
C113	C	0.441780	1.014038	-0.050903
C114	C	1.024969	0.992872	-0.338946
C115	C	1.024988	1.055427	-0.401506
C116	C	0.968281	1.084242	-0.466501
C117	C	0.911561	1.050493	-0.468936
C118	C	0.911549	0.987934	-0.406377
H119	H	1.063549	-0.020630	-0.150721
H120	H	1.095055	0.530581	-0.304108
O121	O	0.850353	0.951553	-0.409006
H122	H	0.810916	0.982113	-0.464711
H123	H	0.269223	1.089219	-0.313776
H124	H	0.968299	1.135182	-0.517435
H125	H	1.101699	0.278823	-0.179585
O126	O	0.850441	1.081554	-0.539047
H127	H	0.811014	1.047571	-0.530243
H128	H	1.669291	0.218589	-0.170298
H129	H	1.056877	0.101570	-0.145681
O130	O	1.072585	0.559950	-0.607936
H131	H	1.136192	0.557804	-0.583376
H132	H	0.563090	0.692247	-0.134498
H133	H	1.500260	0.408407	-0.073551
H134	H	0.414519	0.689489	-0.172075
O135	O	1.110724	0.409031	-0.186428
H136	H	1.097576	0.462103	-0.176488
O137	O	0.856311	0.423149	0.006114
H138	H	0.815630	0.390787	0.036879
H139	H	0.879626	0.291150	-0.011534
H140	H	1.071163	0.432266	0.251130
O141	O	1.241688	0.439921	0.235174
H142	H	1.228444	0.473003	0.269221
O143	O	1.696203	0.294239	0.151234
H144	H	1.689086	0.324523	0.092073
H145	H	0.841470	-0.008310	0.017328
O146	O	0.818215	0.123639	0.035017
H147	H	0.825667	0.175542	0.029422
O148	O	0.267427	1.157269	-0.459046
H149	H	0.189215	1.176889	-0.432829
O150	O	1.266222	0.407822	-0.203047
H151	H	1.278332	0.370987	-0.233236
O152	O	0.508432	0.704398	0.031175
H153	H	0.479581	0.766073	0.033698
O154	O	0.694841	0.952757	-0.392381
H155	H	0.687721	0.983052	-0.451542
O156	O	0.359853	0.701656	-0.006394
H157	H	0.285368	0.701548	-0.007948
H158	H	1.492627	0.418366	0.061760
O159	O	0.856292	0.842729	-0.413471
H160	H	0.815637	0.895895	-0.468244
H161	H	0.968287	0.257529	0.360261
O162	O	1.080233	0.549972	-0.743742
H163	H	1.147163	0.543476	-0.778731
O164	O	0.863932	0.832748	-0.549278
H165	H	0.819466	0.890866	-0.536661
H166	H	0.436263	0.984302	-0.083665
O167	O	0.494679	1.084401	-0.501013
H168	H	0.586880	1.049396	-0.506280
O169	O	1.118386	0.500092	-0.423270
H170	H	1.209372	0.462161	-0.402867
O171	O	0.670301	0.984909	0.045809
H172	H	0.658191	1.021771	0.075972
H173	H	1.475709	0.275911	-0.219584
H174	H	1.643648	0.252226	0.288016
H175	H	1.071174	0.318787	0.364632
H176	H	0.443896	0.974340	-0.218974
O177	O	1.709759	0.276490	-0.090092
H178	H	1.778107	0.222986	-0.105942
O179	O	0.818142	0.892611	-0.733941
H180	H	0.777480	0.945780	-0.788712
H181	H	0.841476	0.862119	-0.853107
H182	H	0.865386	0.309769	0.242365
O183	O	0.850570	0.430753	0.111638
H184	H	0.811218	0.396710	0.120469
H185	H	1.445290	0.315808	0.324650
H186	H	0.460814	1.116819	0.062347
O187	O	0.240811	1.192130	0.016527
H188	H	0.263446	1.212201	0.049086
H189	H	0.254960	1.107890	-0.059955
H190	H	1.071146	0.969420	-0.286030
H191	H	1.071175	1.082899	-0.399510
