data_functionalizedCrystal
_audit_creation_method	'MofGen! by Chris Wilmer'
_symmetry_space_group_name_H-M	'P1'
_symmetry_Int_Tables_number	1
_symmetry_cell_setting	triclinic
loop_
_symmetry_equiv_pos_as_xyz
  x,y,z
_cell_length_a	16.625548
_cell_length_b	11.169416
_cell_length_c	11.169409
_cell_angle_alpha	90.027647
_cell_angle_beta	89.976108
_cell_angle_gamma	89.986850
loop_
_atom_site_label
_atom_site_type_symbol
_atom_site_fract_x
_atom_site_fract_y
_atom_site_fract_z
Zn1	Zn	1.232765	0.477676	-0.678688
Zn2	Zn	1.566098	0.811010	-0.345355
Zn3	Zn	1.899432	1.144343	-0.012021
Zn4	Zn	1.232685	0.678417	-0.478021
Zn5	Zn	1.566018	1.011750	-0.144688
Zn6	Zn	1.899352	1.345083	0.188646
Zn7	Zn	1.097919	0.477750	-0.478011
Zn8	Zn	1.431252	0.811083	-0.144677
Zn9	Zn	1.764586	1.144417	0.188656
Zn10	Zn	1.097922	0.678320	-0.678654
Zn11	Zn	1.431255	1.011653	-0.345321
Zn12	Zn	1.764588	1.344987	-0.011988
O13	O	1.165323	0.578041	-0.578344
O14	O	1.498656	0.911374	-0.245010
O15	O	1.831989	1.244707	0.088323
O16	O	1.345587	0.504315	-0.652088
O17	O	1.678920	0.837648	-0.318754
O18	O	2.012254	1.170981	0.014579
O19	O	1.214773	0.651869	-0.310070
O20	O	1.548107	0.985202	0.023263
O21	O	1.881440	1.318536	0.356597
O22	O	1.115839	0.309791	-0.504641
O23	O	1.449172	0.643124	-0.171307
O24	O	1.782506	0.976457	0.162026
O25	O	1.345528	0.651798	-0.504658
O26	O	1.678861	0.985131	-0.171325
O27	O	2.012195	1.318464	0.162008
O28	O	1.214910	0.309736	-0.652077
O29	O	1.548243	0.643070	-0.318744
O30	O	1.881577	0.976403	0.014589
O31	O	1.115761	0.504440	-0.310062
O32	O	1.449095	0.837774	0.023271
O33	O	1.782428	1.171107	0.356604
O34	O	0.985087	0.504346	-0.504608
O35	O	1.318420	0.837680	-0.171275
O36	O	1.651754	1.171013	0.162059
O37	O	1.115844	0.651633	-0.846609
O38	O	1.449177	0.984966	-0.513275
O39	O	1.782510	1.318299	-0.179942
O40	O	0.985089	0.651704	-0.652020
O41	O	1.318422	0.985037	-0.318687
O42	O	1.651756	1.318371	0.014647
O43	O	1.214913	0.504221	-0.846633
O44	O	1.548246	0.837554	-0.513300
O45	O	1.881579	1.170887	-0.179967
O46	O	1.214776	0.846354	-0.504626
O47	O	1.548109	1.179687	-0.171292
O48	O	1.881443	1.513020	0.162041
O49	O	1.115766	0.846282	-0.652030
O50	O	1.449099	1.179616	-0.318697
O51	O	1.782433	1.512949	0.014637
C52	C	0.955832	0.578024	-0.578310
C53	C	1.289165	0.911357	-0.244977
C54	C	1.622499	1.244690	0.088357
C55	C	0.866211	0.578045	-0.578324
C56	C	1.199544	0.911378	-0.244991
C57	C	1.532877	1.244712	0.088343
C58	C	1.165284	0.889865	-0.578352
C59	C	1.498618	1.223199	-0.245018
C60	C	1.831951	1.556532	0.088315
C61	C	1.165342	1.023265	-0.578395
C62	C	1.498675	1.356599	-0.245062
C63	C	1.832008	1.689932	0.088271
C64	C	1.165387	0.577908	-0.891386
C65	C	1.498721	0.911241	-0.558053
C66	C	1.832054	1.244574	-0.224719
C67	C	1.165415	0.577851	-1.024786
C68	C	1.498748	0.911184	-0.691453
C69	C	1.832082	1.244518	-0.358120
C70	C	0.538035	0.578053	-0.578375
C71	C	0.871368	0.911386	-0.245042
C72	C	1.204702	1.244720	0.088291
C73	C	0.629344	0.578048	-0.578357
C74	C	0.962677	0.911381	-0.245024
C75	C	1.296010	1.244714	0.088309
C76	C	0.702120	0.578050	-0.578349
C77	C	1.035453	0.911383	-0.245015
C78	C	1.368787	1.244716	0.088318
C79	C	0.793434	0.578043	-0.578333
C80	C	1.126768	0.911376	-0.244999
C81	C	1.460101	1.244710	0.088334
C82	C	1.375632	0.578059	-0.578378
C83	C	1.708965	0.911392	-0.245045
C84	C	2.042298	1.244725	0.088289
C85	C	1.465253	0.578067	-0.578393
C86	C	1.798586	0.911400	-0.245059
C87	C	2.131919	1.244733	0.088274
C88	C	1.165377	1.264998	-0.578378
C89	C	1.498711	1.598332	-0.245044
C90	C	1.832044	1.931665	0.088289
C91	C	1.165386	1.131598	-0.578433
C92	C	1.498720	1.464932	-0.245100
C93	C	1.832053	1.798265	0.088233
C94	C	1.165305	0.578087	-0.266519
C95	C	1.498638	0.911420	0.066815
C96	C	1.831971	1.244753	0.400148
C97	C	1.165433	0.577805	-0.133119
C98	C	1.498767	0.911138	0.200214
C99	C	1.832100	1.244472	0.533547
