data_functionalizedCrystal
_audit_creation_method	'MofGen! by Chris Wilmer'
_symmetry_space_group_name_H-M	'P1'
_symmetry_Int_Tables_number	1
_symmetry_cell_setting	triclinic
loop_
_symmetry_equiv_pos_as_xyz
  x,y,z
_cell_length_a	16.109301
_cell_length_b	11.792241
_cell_length_c	15.186229
_cell_angle_alpha	89.996105
_cell_angle_beta	89.999362
_cell_angle_gamma	83.827448
loop_
_atom_site_label
_atom_site_type_symbol
_atom_site_fract_x
_atom_site_fract_y
_atom_site_fract_z
O1	O	1.103817	0.145885	-0.073173
O2	O	0.861841	0.164040	-0.073187
O3	O	0.988701	-0.010259	-0.073174
O4	O	0.976957	0.320185	-0.073187
O5	O	0.988692	-0.010262	0.073284
O6	O	0.861832	0.164038	0.073270
O7	O	1.103809	0.145883	0.073284
Zn8	Zn	0.982819	0.154960	0.096530
Zn9	Zn	0.982830	0.154963	-0.096433
O10	O	0.976948	0.320182	0.073271
C11	C	0.830858	0.163304	0.000040
C12	C	0.738552	0.161099	0.000034
C13	C	0.516743	0.259398	0.000041
C14	C	0.430012	0.257318	0.000047
C15	C	0.448914	0.050517	0.000051
C16	C	0.535642	0.052599	0.000052
C17	C	0.569554	0.157043	0.000042
C18	C	0.396095	0.152880	0.000047
C19	C	0.302059	0.150624	0.000053
C20	C	0.663597	0.159300	0.000037
C21	C	0.987959	-0.052545	0.000055
C22	C	0.985751	-0.178539	0.000054
C23	C	0.981691	-0.409216	0.000039
C24	C	0.983947	-0.280850	0.000047
C25	C	1.134791	0.146619	0.000055
C26	C	1.227097	0.148824	0.000055
C27	C	0.977690	0.362468	0.000040
C28	C	0.979898	0.488462	0.000035
N29	N	0.982817	0.154957	0.228223
N30	N	0.982838	0.154957	-0.228126
C31	C	1.039011	0.077803	0.453952
C32	C	1.039013	0.077800	0.546141
C33	C	0.926639	0.232115	0.546139
C34	C	0.926633	0.232111	0.453951
C35	C	0.982824	0.154957	0.407860
C36	C	0.982832	0.154958	0.592237
C37	C	0.982835	0.154955	0.692193
C38	C	0.982820	0.154957	0.307897
H39	H	0.578644	-0.030757	0.000055
H40	H	0.880875	0.294939	0.416420
O41	O	0.378677	0.356715	0.000195
C42	C	0.327929	0.361690	0.076036
H43	H	0.359428	0.303643	0.129056
H44	H	0.264738	0.332333	0.058890
C45	C	0.276620	0.556485	0.045300
C46	C	0.315310	0.485198	0.110423
H47	H	0.268832	0.632671	0.066510
H48	H	0.310806	0.553133	-0.005797
H49	H	0.223964	0.532007	0.031018
H50	H	0.367969	0.509668	0.124696
H51	H	0.281132	0.488558	0.161524
O52	O	0.549548	0.360949	0.000078
C53	C	0.484333	0.450843	0.000057
H54	H	0.425281	0.419042	0.027785
H55	H	0.472203	0.482422	-0.070205
C56	C	0.581779	0.588399	0.023439
C57	C	0.509252	0.549342	0.057501
H58	H	0.597151	0.649160	0.058869
H59	H	0.625717	0.527837	0.023449
H60	H	0.571661	0.614706	-0.035113
H61	H	0.519374	0.523023	0.116047
H62	H	0.465317	0.609902	0.057502
O63	O	0.415832	-0.050835	0.000014
C64	C	0.327958	-0.030727	0.000033
H65	H	0.307991	0.057853	-0.027695
H66	H	0.303792	-0.036225	0.070295
C67	C	0.316109	-0.229789	-0.023347
C68	C	0.291585	-0.120997	-0.057410
H69	H	0.293671	-0.285474	-0.058776
H70	H	0.375311	-0.243338	-0.023356
H71	H	0.295968	-0.234354	0.035205
H72	H	0.311734	-0.116429	-0.115956
H73	H	0.232385	-0.107450	-0.057412
O74	O	1.093521	0.002915	0.409042
C75	C	1.081439	0.019409	0.317790
H76	H	1.050822	0.109655	0.305179
H77	H	1.039400	-0.044806	0.291670
C78	C	1.203993	-0.108579	0.285917
C79	C	1.166395	0.002266	0.270428
H80	H	1.256396	-0.119159	0.256700
H81	H	1.212132	-0.119695	0.347395
H82	H	1.168952	-0.162079	0.264150
H83	H	1.201431	0.055762	0.292203
H84	H	1.158264	0.013391	0.208952
O85	O	0.871948	0.306949	0.590876
C86	C	0.789566	0.288482	0.568343
H87	H	0.788751	0.197611	0.543007
H88	H	0.765423	0.351381	0.514831
C89	C	0.734290	0.417703	0.681361
C90	C	0.733288	0.306091	0.650249
H91	H	0.699574	0.428570	0.731883
H92	H	0.789792	0.430149	0.696540
H93	H	0.714173	0.470107	0.636760
H94	H	0.753414	0.253691	0.694846
H95	H	0.677788	0.293637	0.635080
O96	O	1.093675	0.002813	0.590779
C97	C	1.143249	-0.065302	0.530325
H98	H	1.144393	-0.018766	0.464608
H99	H	1.115878	-0.149627	0.520526
C100	C	1.231427	-0.145815	0.647013
C101	C	1.232838	-0.088654	0.566301
H102	H	1.286689	-0.160225	0.669206
H103	H	1.198027	-0.099928	0.687743
H104	H	1.208613	-0.216080	0.638837
H105	H	1.255641	-0.018385	0.574481
H106	H	1.266245	-0.134530	0.525573
