data_functionalizedCrystal
_audit_creation_method	'MofGen! by Chris Wilmer'
_symmetry_space_group_name_H-M	'P1'
_symmetry_Int_Tables_number	1
_symmetry_cell_setting	triclinic
loop_
_symmetry_equiv_pos_as_xyz
  x,y,z
_cell_length_a	12.594509
_cell_length_b	18.215407
_cell_length_c	18.215405
_cell_angle_alpha	90.025333
_cell_angle_beta	90.034644
_cell_angle_gamma	90.021159
loop_
_atom_site_label
_atom_site_type_symbol
_atom_site_fract_x
_atom_site_fract_y
_atom_site_fract_z
Zn1	Zn	-0.601808	-1.125082	0.292953
Zn2	Zn	-0.423809	-1.124987	0.416033
Zn3	Zn	-0.423837	-1.002011	0.292986
Zn4	Zn	-0.601740	-1.001980	0.415984
O5	O	-0.512799	-1.063515	0.354489
O6	O	-0.578213	-1.228053	0.309287
O7	O	-0.274867	-1.108648	0.399745
O8	O	-0.447485	-1.018389	0.189998
O9	O	-0.447438	-1.227984	0.399714
O10	O	-0.578240	-1.108809	0.189973
O11	O	-0.274888	-1.018298	0.309343
O12	O	-0.447420	-0.899023	0.309295
O13	O	-0.750695	-1.018336	0.399629
O14	O	-0.578124	-0.899000	0.399661
O15	O	-0.750745	-1.108778	0.309239
O16	O	-0.447372	-1.108617	0.519011
O17	O	-0.578097	-1.018245	0.518974
C18	C	-0.512768	-0.872309	0.354477
C19	C	-0.512780	-0.790510	0.354489
C20	C	-0.512747	-1.063437	0.545695
C21	C	-0.512761	-1.063471	0.627494
C22	C	-0.790420	-1.063564	0.354425
C23	C	-0.908725	-1.063585	0.354397
C24	C	-0.977951	-1.014409	0.403532
C25	C	-1.048738	-1.081558	0.421513
C26	C	-1.048737	-0.996489	0.336372
C27	C	-0.977954	-1.130769	0.372413
C28	C	-0.977947	-1.045655	0.287241
C29	C	-1.048702	-1.112850	0.305196
C30	C	-0.236258	-1.063508	0.354500
C31	C	-0.117953	-1.063630	0.354320
C32	C	-0.512830	-1.255468	0.354502
C33	C	-0.512843	-1.337267	0.354508
C34	C	-0.580753	-0.602323	0.401616
C35	C	-0.580766	-0.525464	0.401619
C36	C	-0.444868	-0.525459	0.307375
C37	C	-0.444861	-0.602316	0.307370
C38	C	-0.512802	-0.640746	0.354494
C39	C	-0.512822	-0.487030	0.354502
C40	C	-0.512836	-0.403697	0.354504
C41	C	-0.512789	-0.724085	0.354492
C42	C	-0.512873	-1.063613	0.162536
C43	C	-0.512905	-1.063655	0.080737
C44	C	-0.444818	-1.110639	0.815683
C45	C	-0.444844	-1.110672	0.892541
C46	C	-0.580856	-1.016485	0.892543
C47	C	-0.580835	-1.016457	0.815686
C48	C	-0.512810	-1.063532	0.777258
C49	C	-0.512857	-1.063594	0.930974
C50	C	-0.512885	-1.063629	1.014307
C51	C	-0.512782	-1.063498	0.693919
H52	H	-0.946887	-0.972855	0.445149
C53	C	-0.654367	-0.483654	0.452824
C54	C	-0.593986	-0.439477	0.499933
C55	C	-0.661757	-0.400944	0.547108
H56	H	-0.694851	-0.517467	0.480957
H57	H	-0.700806	-0.453656	0.424733
H58	H	-0.547567	-0.469472	0.528022
H59	H	-0.553505	-0.405650	0.471821
H60	H	-0.708195	-0.370946	0.519016
H61	H	-0.702237	-0.434762	0.575236
H62	H	-0.620799	-0.370960	0.579072
H63	H	-0.389429	-1.148972	0.784396
H64	H	-1.079571	-1.154504	0.263611
H65	H	-0.636207	-0.978097	0.784398
C66	C	-0.370904	-1.161843	0.934127
C67	C	-0.311312	-1.203048	0.884020
C68	C	-0.243176	-1.250190	0.922302
H69	H	-0.411552	-1.193971	0.964062
H70	H	-0.324441	-1.133737	0.964144
H71	H	-0.357769	-1.231151	0.854017
H72	H	-0.270642	-1.170940	0.854084
H73	H	-0.196713	-1.222085	0.952318
H74	H	-0.283833	-1.282313	0.952235
H75	H	-0.202728	-1.278148	0.888310
C76	C	-1.090132	-0.920831	0.315931
C77	C	-1.052748	-0.901726	0.246130
C78	C	-1.090867	-0.832038	0.227279
H79	H	-1.065931	-0.885863	0.350843
H80	H	-1.165559	-0.921490	0.315566
H81	H	-0.977337	-0.901061	0.246500
H82	H	-1.076946	-0.936674	0.211202
H83	H	-1.166294	-0.832698	0.226914
H84	H	-1.066663	-0.797077	0.262196
H85	H	-1.065516	-0.819069	0.179915
C86	C	-0.371145	-0.483600	0.256295
C87	C	-0.385673	-0.408067	0.266398
C88	C	-0.317767	-0.369486	0.219361
H89	H	-0.386785	-0.496131	0.206831
H90	H	-0.299577	-0.496127	0.267011
H91	H	-0.457225	-0.395545	0.255677
H92	H	-0.370026	-0.395515	0.315852
H93	H	-0.246199	-0.382013	0.230077
H94	H	-0.333413	-0.382023	0.169900
H95	H	-0.327608	-0.318233	0.226214
H96	H	-0.636077	-0.633611	0.439986
C97	C	-1.090153	-1.101671	0.497246
C98	C	-1.054335	-1.049981	0.548508
C99	C	-1.092471	-1.068474	0.618279
H100	H	-1.064900	-1.148989	0.510462
H101	H	-1.165580	-1.101948	0.496587
H102	H	-0.978923	-1.049711	0.549169
H103	H	-1.079584	-1.002659	0.535316
H104	H	-1.167899	-1.068752	0.617621
H105	H	-1.067216	-1.115793	0.631488
H106	H	-1.068183	-1.033402	0.653068
H107	H	-0.946827	-1.030446	0.230498
C108	C	-0.936473	-1.206415	0.392816
C109	C	-0.825311	-1.205495	0.392668
C110	C	-0.787060	-1.275161	0.411472
H111	H	-0.961149	-1.241454	0.358135
H112	H	-0.961242	-1.219252	0.440365
H113	H	-0.800552	-1.192667	0.345126
H114	H	-0.800606	-1.170471	0.427349
H115	H	-0.811829	-1.287998	0.459020
H116	H	-0.811743	-1.310194	0.376788
H117	H	-0.711634	-1.274544	0.411380
C118	C	-0.370963	-0.643906	0.256178
C119	C	-0.311438	-0.593802	0.214928
C120	C	-0.243350	-0.632088	0.167771
H121	H	-0.411642	-0.673915	0.224080
H122	H	-0.324456	-0.673848	0.284275
H123	H	-0.357939	-0.563872	0.186833
H124	H	-0.270737	-0.563792	0.247007
H125	H	-0.196843	-0.662030	0.195868
H126	H	-0.284038	-0.662095	0.135677
H127	H	-0.202947	-0.598098	0.139782
C128	C	-0.654583	-0.965398	0.934400
C129	C	-0.640029	-0.975489	1.009933
C130	C	-0.707917	-0.928431	1.048513
H131	H	-0.726154	-0.976086	0.921847
H132	H	-0.638920	-0.915938	0.921894
H133	H	-0.655699	-1.024938	1.022435
H134	H	-0.568472	-0.964796	1.022509
H135	H	-0.692254	-0.878970	1.036006
H136	H	-0.779483	-0.939122	1.035953
H137	H	-0.698044	-0.935266	1.099766
