data_functionalizedCrystal
_audit_creation_method	'MofGen! by Chris Wilmer'
_symmetry_space_group_name_H-M	'P1'
_symmetry_Int_Tables_number	1
_symmetry_cell_setting	triclinic
loop_
_symmetry_equiv_pos_as_xyz
  x,y,z
_cell_length_a	15.538191
_cell_length_b	10.654550
_cell_length_c	9.730223
_cell_angle_alpha	90.004253
_cell_angle_beta	90.004814
_cell_angle_gamma	65.878512
loop_
_atom_site_label
_atom_site_type_symbol
_atom_site_fract_x
_atom_site_fract_y
_atom_site_fract_z
O1	O	-1.247254	0.406664	-0.114305
O2	O	-0.973939	0.262089	-0.114305
O3	O	-1.116880	0.520053	-0.114296
O4	O	-1.104312	0.148700	-0.114314
O5	O	-1.116871	0.520054	0.114283
O6	O	-0.973930	0.262090	0.114275
O7	O	-1.247244	0.406665	0.114274
Zn8	Zn	-1.110586	0.334378	0.150567
Zn9	Zn	-1.110598	0.334376	-0.150597
O10	O	-1.104303	0.148701	0.114266
C11	C	-0.938938	0.246964	-0.000015
C12	C	-0.834659	0.201907	-0.000014
C13	C	-1.115953	0.566420	-0.000007
C14	C	-1.113192	0.704573	-0.000009
C15	C	-1.282246	0.421790	-0.000019
C16	C	-1.386525	0.466847	-0.000028
C17	C	-0.543944	0.649529	-0.000015
C18	C	-0.445955	0.607160	-0.000018
C19	C	-0.425069	0.368846	-0.000028
C20	C	-0.523058	0.411195	-0.000019
C21	C	-0.582488	0.551538	-0.000013
C22	C	-0.561602	0.313204	-0.000017
C23	C	-0.659583	0.355550	-0.000015
C24	C	-0.719019	0.495886	-0.000014
C25	C	-0.680469	0.593884	-0.000011
C26	C	-0.502170	0.172861	-0.000033
C27	C	-0.540715	0.074870	-0.000031
C28	C	-0.638697	0.117216	-0.000019
C29	C	-0.698133	0.257553	-0.000018
C30	C	-0.677248	0.019219	-0.000022
C31	C	-0.775228	0.061564	-0.000019
C32	C	-0.796114	0.299898	-0.000015
C33	C	-1.105231	0.102334	-0.000026
C34	C	-1.107991	-0.035819	-0.000033
N35	N	-1.110584	0.334382	0.356103
C36	C	-1.197353	0.823402	-0.000010
C37	C	-1.194754	0.953208	-0.000027
C38	C	-1.023824	0.845339	-0.000036
C39	C	-1.026424	0.715536	-0.000029
N40	N	-1.110607	0.334385	-0.356133
C41	C	-1.173900	0.448583	0.428033
C42	C	-1.173910	0.448587	0.571916
C43	C	-1.047284	0.220177	0.571927
C44	C	-1.047271	0.220179	0.428047
H45	H	-0.798801	0.530362	-0.000030
H46	H	-0.422389	0.138388	-0.000039
C47	C	-1.242609	0.572755	0.649835
C48	C	-1.226599	0.688879	0.614826
C49	C	-1.289877	0.803297	0.686562
H50	H	-1.233617	0.556612	0.745850
H51	H	-1.305393	0.587756	0.626206
H52	H	-1.163831	0.673880	0.638464
H53	H	-1.235599	0.705066	0.518823
H54	H	-1.352660	0.818298	0.662934
H55	H	-1.280880	0.787140	0.782574
H56	H	-1.279029	0.882103	0.662810
C57	C	-0.978506	0.096365	0.650220
C58	C	-0.920610	0.136915	0.732881
C59	C	-0.857251	0.022898	0.805036
H60	H	-0.940702	0.028272	0.586933
H61	H	-1.012611	0.059622	0.706407
H62	H	-0.886508	0.173638	0.676699
H63	H	-0.958389	0.204991	0.796194
H64	H	-0.891355	-0.013846	0.861223
H65	H	-0.819453	-0.045188	0.741738
H66	H	-0.817966	0.050397	0.861139
H67	H	-1.263287	1.049958	-0.000030
H68	H	-1.268005	0.814483	0.000003
C69	C	-0.978483	0.096021	0.350189
C70	C	-0.923060	-0.004014	0.443986
C71	C	-0.859692	-0.118404	0.372314
H72	H	-0.939005	0.123094	0.294076
H73	H	-1.012577	0.059192	0.294071
H74	H	-0.888969	0.032810	0.500080
H75	H	-0.962512	-0.031126	0.500102
H76	H	-0.893787	-0.155233	0.316195
H77	H	-0.820221	-0.091317	0.316203
H78	H	-0.822087	-0.186296	0.435943
H79	H	-0.844506	0.414180	-0.000003
H80	H	-0.953180	0.854282	-0.000050
C81	C	-1.242696	0.572436	0.349812
C82	C	-1.300635	0.531958	0.267166
C83	C	-1.364008	0.646027	0.195091
H84	H	-1.208633	0.609215	0.293616
H85	H	-1.280461	0.640490	0.413190
H86	H	-1.262874	0.463927	0.203795
H87	H	-1.334719	0.495194	0.323328
H88	H	-1.401773	0.714081	0.258469
H89	H	-1.329937	0.682797	0.138903
H90	H	-1.403333	0.618581	0.139017
H91	H	-0.957885	0.618775	-0.000033
H92	H	-0.728861	0.708165	0.000001
H93	H	-0.592336	0.763810	-0.000002
H94	H	-0.376668	0.254578	-0.000038
C95	C	-0.476074	-0.077451	-0.000246
C96	C	-0.419203	-0.108726	-0.117830
C97	C	-0.359638	-0.249029	-0.118061
H98	H	-0.512947	-0.129905	-0.000312
H99	H	-0.437358	-0.098951	0.079422
H100	H	-0.457915	-0.087241	-0.197478
H101	H	-0.382311	-0.056308	-0.117789
H102	H	-0.320922	-0.270528	-0.038392
H103	H	-0.396518	-0.301470	-0.118123
H104	H	-0.321038	-0.270264	-0.197833
H105	H	-0.628845	-0.095049	-0.000040
H106	H	-0.806611	-0.018230	-0.000006
H107	H	-0.414577	0.686967	-0.000021
