data_functionalizedCrystal
_audit_creation_method	'MofGen! by Chris Wilmer'
_symmetry_space_group_name_H-M	'P1'
_symmetry_Int_Tables_number	1
_symmetry_cell_setting	triclinic
loop_
_symmetry_equiv_pos_as_xyz
  x,y,z
_cell_length_a	19.805407
_cell_length_b	19.121063
_cell_length_c	19.805398
_cell_angle_alpha	92.409806
_cell_angle_beta	89.986879
_cell_angle_gamma	92.469032
loop_
_atom_site_label
_atom_site_type_symbol
_atom_site_fract_x
_atom_site_fract_y
_atom_site_fract_z
Zn1	Zn	1.023190	-0.279623	-0.394203
Zn2	Zn	1.523190	0.220377	0.105797
Zn3	Zn	1.018285	-0.397078	-0.285838
Zn4	Zn	1.518285	0.102922	0.214162
Zn5	Zn	0.910016	-0.279645	-0.281028
Zn6	Zn	1.410016	0.220355	0.218972
Zn7	Zn	0.905138	-0.397038	-0.398983
Zn8	Zn	1.405138	0.102962	0.101017
O9	O	0.964157	-0.338346	-0.340013
O10	O	1.464157	0.161654	0.159987
O11	O	1.117255	-0.295211	-0.379840
O12	O	1.617255	0.204789	0.120160
O13	O	1.003913	-0.381526	-0.190484
O14	O	1.503913	0.118474	0.309516
O15	O	0.929123	-0.181357	-0.292027
O16	O	1.429123	0.318643	0.207973
O17	O	1.113652	-0.381505	-0.300225
O18	O	1.613652	0.118495	0.199775
O19	O	1.012271	-0.181342	-0.375176
O20	O	1.512271	0.318658	0.124824
O21	O	0.924368	-0.295248	-0.186950
O22	O	1.424368	0.204752	0.313050
O23	O	0.814653	-0.295210	-0.296663
O24	O	1.314653	0.204790	0.203337
O25	O	0.920808	-0.381437	-0.493064
O26	O	1.420808	0.118563	0.006936
O27	O	0.811069	-0.381458	-0.383323
O28	O	1.311069	0.118542	0.116677
O29	O	1.007541	-0.295173	-0.489552
O30	O	1.507541	0.204827	0.010448
O31	O	0.999182	-0.495357	-0.304860
O32	O	1.499182	0.004643	0.195140
O33	O	0.916053	-0.495328	-0.387987
O34	O	1.416053	0.004672	0.112013
C35	C	0.788302	-0.338333	-0.339990
C36	C	1.288302	0.161667	0.160010
C37	C	0.713069	-0.338344	-0.339997
C38	C	1.213069	0.161656	0.160003
C39	C	0.675874	-0.383321	-0.385054
C40	C	1.175874	0.116679	0.114946
C41	C	0.605185	-0.383322	-0.385064
C42	C	1.105185	0.116678	0.114936
C43	C	0.571694	-0.338349	-0.340013
C44	C	1.071694	0.161651	0.159987
C45	C	0.608894	-0.293367	-0.294954
C46	C	1.108894	0.206633	0.205046
C47	C	0.679582	-0.293363	-0.294948
C48	C	1.179582	0.206637	0.205052
C49	C	0.323820	-0.293383	-0.294977
C50	C	0.823820	0.206617	0.205023
C51	C	0.253128	-0.293392	-0.294985
C52	C	0.753128	0.206608	0.205015
C53	C	0.249424	-0.383342	-0.385093
C54	C	0.749424	0.116658	0.114907
C55	C	0.320111	-0.383338	-0.385087
C56	C	0.820111	0.116662	0.114913
C57	C	0.357306	-0.338353	-0.340031
C58	C	0.857306	0.161647	0.159969
C59	C	0.433954	-0.338352	-0.340022
C60	C	0.933954	0.161648	0.159978
C61	C	0.495046	-0.338354	-0.340018
C62	C	0.995046	0.161646	0.159982
C63	C	0.956574	-0.520827	-0.347479
C64	C	1.456574	-0.020827	0.152521
C65	C	0.953392	-0.598893	-0.350696
C66	C	1.453392	-0.098893	0.149304
C67	C	0.995212	-0.635560	-0.308963
C68	C	1.495212	-0.135560	0.191037
C69	C	0.992223	-0.708912	-0.311992
C70	C	1.492223	-0.208912	0.188008
C71	C	0.947411	-0.745594	-0.356751
C72	C	1.447411	-0.245594	0.143249
C73	C	0.905590	-0.708922	-0.398489
C74	C	1.405590	-0.208922	0.101511
C75	C	0.908582	-0.635572	-0.395462
C76	C	1.408582	-0.135572	0.104538
C77	C	0.936211	-0.967064	-0.368055
C78	C	1.436211	-0.467064	0.131945
C79	C	0.933220	-1.040419	-0.371077
C80	C	1.433220	-0.540419	0.128923
C81	C	1.019855	-1.040404	-0.284581
C82	C	1.519855	-0.540404	0.215419
C83	C	1.022841	-0.967053	-0.281556
C84	C	1.522841	-0.467053	0.218444
C85	C	0.981022	-0.930387	-0.323296
C86	C	1.481022	-0.430387	0.176704
C87	C	0.944353	-0.820571	-0.359847
C88	C	1.444353	-0.320571	0.140153
C89	C	0.984084	-0.855411	-0.320203
C90	C	1.484084	-0.355411	0.179797
C91	C	1.140699	-0.338360	-0.340036
C92	C	1.640699	0.161640	0.159964
C93	C	1.215931	-0.338366	-0.340045
C94	C	1.715931	0.161634	0.159955
C95	C	0.964177	-0.338299	-0.516554
C96	C	1.464177	0.161701	-0.016554
C97	C	0.964186	-0.338278	-0.591785
C98	C	1.464186	0.161722	-0.091785
C99	C	0.971788	-0.155153	-0.332532
C100	C	1.471788	0.344847	0.167468
C101	C	0.975040	-0.077087	-0.329344
C102	C	1.475040	0.422913	0.170656
C103	C	1.005716	-0.383091	-1.055409
C104	C	1.505716	0.116909	-0.555409
C105	C	1.005697	-0.383110	-0.984721
C106	C	1.505697	0.116890	-0.484721
C107	C	0.964273	-0.338199	-0.947543
C108	C	1.464273	0.161801	-0.447543
C109	C	0.922861	-0.293271	-0.981057
C110	C	1.422861	0.206729	-0.481057
C111	C	0.922878	-0.293256	-1.051744
C112	C	1.422878	0.206744	-0.551744
C113	C	0.922793	-0.293331	-0.695986
C114	C	1.422793	0.206669	-0.195986
C115	C	0.922782	-0.293348	-0.625295
C116	C	1.422782	0.206652	-0.125295
C117	C	1.005612	-0.383186	-0.628964
C118	C	1.505612	0.116814	-0.128964
C119	C	1.005629	-0.383171	-0.699650
C120	C	1.505629	0.116829	-0.199650
C121	C	0.964215	-0.338245	-0.733158
C122	C	1.464215	0.161755	-0.233158
C123	C	0.964235	-0.338226	-0.809806
C124	C	1.464235	0.161774	-0.309806
C125	C	0.964256	-0.338214	-0.870897
C126	C	1.464256	0.161786	-0.370897
C127	C	0.964178	-0.338343	-0.164157
C128	C	1.464178	0.161657	0.335843
C129	C	0.964309	-0.338165	-0.088918
C130	C	1.464309	0.161835	0.411082
H131	H	0.219132	-0.419968	-0.421782
H132	H	0.719132	0.080032	0.078218
H133	H	0.907866	-0.850446	-0.396289
H134	H	1.407866	-0.350446	0.103711
C135	C	0.564271	-0.432840	-0.434587
C136	C	1.064271	0.067160	0.065413
H137	H	0.594341	-0.459642	-0.461399
H138	H	1.094341	0.040358	0.038601
H139	H	0.537798	-0.406056	-0.463043
H140	H	1.037798	0.093944	0.036957
H141	H	0.535440	-0.463396	-0.409857
H142	H	1.035440	0.036604	0.090143
C143	C	0.356949	-0.432805	-0.434645
C144	C	0.856949	0.067195	0.065355
H145	H	0.324672	-0.459588	-0.461486
H146	H	0.824672	0.040412	0.038514
H147	H	0.383249	-0.463371	-0.409957
H148	H	0.883249	0.036629	0.090043
H149	H	0.385645	-0.405968	-0.463080
H150	H	0.885645	0.094032	0.036920
H151	H	0.902160	-0.937216	-0.402040
H152	H	1.402160	-0.437216	0.097960
H153	H	1.026277	-0.738763	-0.278008
H154	H	1.526277	-0.238763	0.221992
C155	C	0.216288	-0.243914	-0.245431
C156	C	0.716288	0.256086	0.254569
H157	H	0.248563	-0.217116	-0.218601
H158	H	0.748563	0.282884	0.281399
H159	H	0.187590	-0.270740	-0.216996
H160	H	0.687590	0.229260	0.283004
H161	H	0.189991	-0.213351	-0.270133
H162	H	0.689991	0.286649	0.229867
H163	H	1.039332	-0.419768	-0.601673
H164	H	1.539332	0.080232	-0.101673
C165	C	1.033375	-0.815066	-0.270970
C166	C	1.533375	-0.315066	0.229030
H167	H	1.057858	-0.847406	-0.246548
H168	H	1.557858	-0.347406	0.253452
H169	H	1.008667	-0.786493	-0.240280
H170	H	1.508667	-0.286493	0.259720
H171	H	1.064020	-0.786410	-0.295712
H172	H	1.564020	-0.286410	0.204288
C173	C	0.877247	-0.243908	-0.732835
C174	C	1.377247	0.256092	-0.232835
H175	H	0.852582	-0.217158	-0.700568
H176	H	1.352582	0.282842	-0.200568
H177	H	0.846641	-0.270762	-0.761506
H178	H	1.346641	0.229238	-0.261506
H179	H	0.904425	-0.213300	-0.759161
H180	H	1.404425	0.286700	-0.259161
C181	C	0.877287	-0.243877	-0.940167
C182	C	1.377287	0.256123	-0.440167
H183	H	0.852621	-0.217125	-0.970250
H184	H	1.352621	0.282875	-0.470250
H185	H	0.904438	-0.213279	-0.911340
H186	H	1.404438	0.286721	-0.411340
H187	H	0.846670	-0.270759	-0.913692
H188	H	1.346670	0.229241	-0.413692
H189	H	0.703137	-0.419946	-0.421738
H190	H	1.203137	0.080054	0.078262
H191	H	0.354095	-0.256759	-0.258284
H192	H	0.854095	0.243241	0.241716
H193	H	1.039363	-0.419739	-0.729917
H194	H	1.539363	0.080261	-0.229917
C195	C	0.856296	-0.749271	-0.447721
C196	C	1.356296	-0.249271	0.052279
H197	H	0.860497	-0.798207	-0.443542
H198	H	1.360497	-0.298207	0.056458
H199	H	0.866659	-0.737211	-0.492711
H200	H	1.366659	-0.237211	0.007289
H201	H	0.811313	-0.737293	-0.437272
H202	H	1.311313	-0.237293	0.062728
H203	H	0.889160	-0.256672	-1.079025
H204	H	1.389160	0.243328	-0.579025
C205	C	1.072139	-0.926707	-0.232325
C206	C	1.572139	-0.426707	0.267675
H207	H	1.096622	-0.959051	-0.207908
H208	H	1.596622	-0.459051	0.292092
H209	H	1.047435	-0.898135	-0.201631
H210	H	1.547435	-0.398135	0.298369
H211	H	1.102782	-0.898051	-0.257069
H212	H	1.602782	-0.398051	0.242931
C213	C	0.572055	-0.243900	-0.245396
C214	C	1.072055	0.256100	0.254604
H215	H	0.524628	-0.250349	-0.251847
H216	H	1.024628	0.249651	0.248153
H217	H	0.585599	-0.196721	-0.253442
H218	H	1.085599	0.303279	0.246558
H219	H	0.583204	-0.254124	-0.200319
H220	H	1.083204	0.245876	0.299681
H221	H	0.874529	-0.605718	-0.429446
H222	H	1.374529	-0.105718	0.070554
C223	C	1.051285	-0.432492	-1.096298
C224	C	1.551285	0.067508	-0.596298
H225	H	1.075938	-0.459255	-1.066215
H226	H	1.575938	0.040745	-0.566215
H227	H	1.081902	-0.405622	-1.122777
H228	H	1.581902	0.094378	-0.622777
H229	H	1.024122	-0.463090	-1.125121
H230	H	1.524122	0.036910	-0.625121
C231	C	1.044507	-0.595216	-0.259728
C232	C	1.544507	-0.095216	0.240272
H233	H	1.068989	-0.627562	-0.235313
H234	H	1.568989	-0.127562	0.264687
H235	H	1.019805	-0.566644	-0.229033
H236	H	1.519805	-0.066644	0.270967
H237	H	1.075151	-0.566560	-0.284471
H238	H	1.575151	-0.066560	0.215529
C239	C	0.877211	-0.243948	-0.584397
C240	C	1.377211	0.256052	-0.084397
H241	H	0.883140	-0.250388	-0.537500
H242	H	1.383140	0.249612	-0.037500
H243	H	0.831309	-0.254224	-0.596396
H244	H	1.331309	0.245776	-0.096396
H245	H	0.889085	-0.196752	-0.594057
H246	H	1.389085	0.303248	-0.094057
C247	C	0.720497	-0.243887	-0.245386
C248	C	1.220497	0.256113	0.254614
H249	H	0.690427	-0.217106	-0.218553
H250	H	1.190427	0.282894	0.281447
H251	H	0.749348	-0.213319	-0.270076
H252	H	1.249348	0.286681	0.229924
H253	H	0.746950	-0.270714	-0.216945
H254	H	1.246950	0.229286	0.283055
H255	H	1.053903	-1.070266	-0.250600
H256	H	1.553903	-0.570266	0.249400
H257	H	0.896737	-1.070284	-0.407537
H258	H	1.396737	-0.570284	0.092463
H259	H	1.039406	-0.419702	-0.957442
H260	H	1.539406	0.080298	-0.457442
