data_functionalizedCrystal
_audit_creation_method	'MofGen! by Chris Wilmer'
_symmetry_space_group_name_H-M	'P1'
_symmetry_Int_Tables_number	1
_symmetry_cell_setting	triclinic
loop_
_symmetry_equiv_pos_as_xyz
  x,y,z
_cell_length_a	16.109301
_cell_length_b	17.699083
_cell_length_c	15.186229
_cell_angle_alpha	89.995368
_cell_angle_beta	89.999362
_cell_angle_gamma	83.372248
loop_
_atom_site_label
_atom_site_type_symbol
_atom_site_fract_x
_atom_site_fract_y
_atom_site_fract_z
O1	O	1.102963	0.097285	-0.073175
O2	O	0.860880	0.109391	-0.073189
O3	O	0.988761	-0.006841	-0.073174
O4	O	0.975082	0.213517	-0.073190
O5	O	0.988753	-0.006843	0.073284
O6	O	0.860872	0.109390	0.073268
O7	O	1.102955	0.097283	0.073283
Zn8	Zn	0.981912	0.103336	0.096529
Zn9	Zn	0.981923	0.103338	-0.096435
O10	O	0.975074	0.213516	0.073267
C11	C	0.829902	0.108900	0.000038
C12	C	0.737609	0.107430	0.000033
C13	C	0.988267	-0.035040	0.000055
C14	C	0.986796	-0.119060	0.000055
C15	C	0.515224	0.172981	0.000038
C16	C	0.428506	0.171594	0.000044
C17	C	0.448618	0.033688	0.000050
C18	C	0.535334	0.035076	0.000051
C19	C	0.568635	0.104725	0.000040
C20	C	0.395200	0.101949	0.000046
C21	C	0.301177	0.100445	0.000052
C22	C	0.662664	0.106230	0.000036
C23	C	1.061860	-0.167574	0.000061
C24	C	1.060473	-0.246519	0.000053
C25	C	0.984022	-0.276949	0.000046
C26	C	0.908953	-0.228429	0.000038
C27	C	0.910341	-0.149485	0.000039
C28	C	0.903356	-0.546800	0.000030
C29	C	0.901974	-0.625750	0.000031
C30	C	1.053488	-0.643834	0.000044
C31	C	1.054876	-0.564890	0.000046
C32	C	0.979807	-0.516377	0.000033
C33	C	0.981312	-0.430776	0.000040
C34	C	0.982517	-0.362549	0.000045
C35	C	1.133933	0.097774	0.000054
C36	C	1.226226	0.099244	0.000053
C37	C	0.975568	0.241714	0.000037
C38	C	0.977039	0.325734	0.000031
N39	N	0.981910	0.103334	0.228221
N40	N	0.981931	0.103334	-0.228128
C41	C	1.038555	0.051884	0.453951
C42	C	1.038558	0.051882	0.546141
C43	C	0.925280	0.154787	0.546136
C44	C	0.925274	0.154785	0.453948
C45	C	0.981916	0.103334	0.407858
C46	C	0.981925	0.103334	0.592236
C47	C	0.981927	0.103333	0.692192
C48	C	0.981913	0.103334	0.307896
H49	H	0.542334	0.229694	0.000036
H50	H	1.117130	-0.540119	0.000056
O51	O	1.093487	0.001782	0.409237
C52	C	1.080115	-0.073132	0.431822
H53	H	1.013548	-0.073495	0.457156
H54	H	1.126227	-0.095340	0.485352
C55	C	1.174897	-0.124027	0.318844
C56	C	1.093136	-0.124474	0.349953
H57	H	1.182933	-0.155699	0.268345
H58	H	1.183909	-0.073556	0.303630
H59	H	1.213314	-0.142532	0.363459
H60	H	1.054721	-0.105960	0.305341
H61	H	1.084118	-0.174943	0.365157
O62	O	1.126336	-0.691069	0.000008
C63	C	1.108725	-0.767273	0.000023
H64	H	1.043430	-0.770283	-0.027713
H65	H	1.111916	-0.790112	0.070285
C66	C	1.253573	-0.811902	-0.023344
C67	C	1.173380	-0.815598	-0.057415
H68	H	1.293457	-0.841712	-0.058770
H69	H	1.265439	-0.760562	-0.023350
H70	H	1.256221	-0.830933	0.035208
H71	H	1.170730	-0.796559	-0.115961
H72	H	1.161515	-0.866936	-0.057420
H73	H	1.084677	0.009985	0.583667
H74	H	0.578824	-0.020510	0.000055
O75	O	0.870347	0.204740	0.591047
C76	C	0.882484	0.193700	0.682299
H77	H	0.948638	0.165428	0.694887
H78	H	0.835506	0.155730	0.708471
C79	C	0.788584	0.305849	0.714156
C80	C	0.869839	0.271130	0.729618
H81	H	0.780780	0.353610	0.743346
H82	H	0.780404	0.313286	0.652678
H83	H	0.749445	0.274199	0.735967
H84	H	0.908976	0.302776	0.707797
H85	H	0.878025	0.263701	0.791093
H86	H	0.879148	0.196682	0.416417
O87	O	0.376742	0.237969	-0.000000
C88	C	0.424733	0.299736	0.000014
H89	H	0.489494	0.280510	-0.027714
H90	H	0.430866	0.321084	0.070275
C91	C	0.301848	0.387953	-0.023368
C92	C	0.381387	0.364341	-0.057432
H93	H	0.275110	0.427807	-0.058800
H94	H	0.269515	0.346340	-0.023375
H95	H	0.306970	0.405738	0.035182
H96	H	0.376264	0.346548	-0.115976
H97	H	0.413719	0.405953	-0.057436
H98	H	0.839715	-0.650523	0.000027
H99	H	0.421494	-0.023018	0.000064
O100	O	0.830361	-0.499790	0.000068
C101	C	0.762590	-0.543580	0.000047
H102	H	0.783816	-0.602507	0.027772
H103	H	0.739147	-0.549189	-0.070216
C104	C	0.665484	-0.431859	0.023432
C105	C	0.691552	-0.504233	0.057492
H106	H	0.621662	-0.407587	0.058863
H107	H	0.711142	-0.402356	0.023443
H108	H	0.645954	-0.436544	-0.035120
H109	H	0.711091	-0.499546	0.116038
H110	H	0.645896	-0.533734	0.057491
O111	O	0.834615	-0.257860	-0.000011
C112	C	0.768660	-0.198109	0.000004
H113	H	0.791861	-0.144485	-0.027721
H114	H	0.745506	-0.186937	0.070264
C115	C	0.668052	-0.286232	-0.023388
C116	C	0.696547	-0.220371	-0.057447
H117	H	0.623567	-0.299964	-0.058823
H118	H	0.712487	-0.326488	-0.023395
H119	H	0.648763	-0.276913	0.035162
H120	H	0.715844	-0.229694	-0.115991
H121	H	0.652113	-0.180117	-0.057451
O122	O	1.136198	-0.138144	0.000027
C123	C	1.202152	-0.197896	0.000049
H124	H	1.178952	-0.251516	-0.027678
H125	H	1.225299	-0.209078	0.070312
C126	C	1.302765	-0.109773	-0.023331
C127	C	1.274272	-0.175628	-0.057393
H128	H	1.347254	-0.096036	-0.058760
H129	H	1.258331	-0.069516	-0.023343
H130	H	1.322048	-0.119100	0.035221
H131	H	1.254981	-0.166297	-0.115940
H132	H	1.318705	-0.215883	-0.057393
O133	O	0.837501	-0.102249	-0.000002
C134	C	0.855118	-0.026046	0.000020
H135	H	0.920418	-0.023036	-0.027701
H136	H	0.851914	-0.003218	0.070283
C137	C	0.710276	0.018594	-0.023374
C138	C	0.790476	0.022291	-0.057428
H139	H	0.670400	0.048412	-0.058807
H140	H	0.698406	-0.032745	-0.023386
H141	H	0.707618	0.037616	0.035178
H142	H	0.793135	0.003261	-0.115974
H143	H	0.802345	0.073628	-0.057428
O144	O	1.133370	-0.293673	-0.000098
C145	C	1.137102	-0.339882	-0.075943
H146	H	1.094531	-0.310955	-0.128960
H147	H	1.115703	-0.397287	-0.058802
C148	C	1.279881	-0.387416	-0.045213
C149	C	1.227599	-0.351884	-0.110332
H150	H	1.335704	-0.394823	-0.066425
H151	H	1.277366	-0.356287	0.005887
H152	H	1.262038	-0.435249	-0.030935
H153	H	1.245436	-0.304048	-0.124601
H154	H	1.230119	-0.383006	-0.161436
