data_functionalizedCrystal
_audit_creation_method	'MofGen! by Chris Wilmer'
_symmetry_space_group_name_H-M	'P1'
_symmetry_Int_Tables_number	1
_symmetry_cell_setting	triclinic
loop_
_symmetry_equiv_pos_as_xyz
  x,y,z
_cell_length_a	18.215407
_cell_length_b	19.077068
_cell_length_c	19.077314
_cell_angle_alpha	90.121627
_cell_angle_beta	87.718516
_cell_angle_gamma	92.327501
loop_
_atom_site_label
_atom_site_type_symbol
_atom_site_fract_x
_atom_site_fract_y
_atom_site_fract_z
Zn1	Zn	1.096804	-0.263804	0.408541
Zn2	Zn	1.596804	0.236196	0.908541
Zn3	Zn	1.096313	-0.386032	0.295748
Zn4	Zn	1.596313	0.113968	0.795748
Zn5	Zn	0.978476	-0.268542	0.291048
Zn6	Zn	1.478476	0.231458	0.791048
Zn7	Zn	0.968566	-0.381279	0.413214
Zn8	Zn	1.468566	0.118721	0.913214
O9	O	1.035040	-0.324914	0.352138
O10	O	1.535040	0.175086	0.852138
O11	O	1.199723	-0.280024	0.393590
O12	O	1.699723	0.219976	0.893590
O13	O	1.084624	-0.374420	0.196793
O14	O	1.584624	0.125580	0.696793
O15	O	0.998526	-0.169580	0.302711
O16	O	1.498526	0.330420	0.802711
O17	O	1.199362	-0.369825	0.310721
O18	O	1.699362	0.130175	0.810721
O19	O	1.085461	-0.166098	0.389033
O20	O	1.585461	0.333902	0.889033
O21	O	0.998050	-0.288100	0.193340
O22	O	1.498050	0.211900	0.693340
O23	O	0.874178	-0.283491	0.307242
O24	O	1.374178	0.216509	0.807242
O25	O	0.981634	-0.361723	0.510925
O26	O	1.481634	0.138277	1.010925
O27	O	0.866897	-0.366318	0.396997
O28	O	1.366897	0.133682	0.896997
O29	O	1.075851	-0.275414	0.507492
O30	O	1.575851	0.224586	1.007492
O31	O	1.075014	-0.483735	0.315252
O32	O	1.575014	0.016265	0.815252
O33	O	0.981159	-0.480243	0.401554
O34	O	1.481159	0.019757	0.901554
C35	C	0.843835	-0.324903	0.352117
C36	C	1.343835	0.175097	0.852117
C37	C	0.762035	-0.324914	0.352125
C38	C	1.262035	0.175086	0.852125
C39	C	0.570068	-0.368115	0.398807
C40	C	1.070068	0.131885	0.898807
C41	C	0.493209	-0.368117	0.398816
C42	C	0.993209	0.131883	0.898816
C43	C	0.500762	-0.281725	0.305484
C44	C	1.000762	0.218275	0.805484
C45	C	0.577620	-0.281720	0.305479
C46	C	1.077620	0.218280	0.805479
C47	C	0.612271	-0.324919	0.352140
C48	C	1.112271	0.175081	0.852140
C49	C	0.458554	-0.324926	0.352153
C50	C	0.958554	0.175074	0.852153
C51	C	0.375220	-0.324928	0.352163
C52	C	0.875220	0.175072	0.852163
C53	C	0.695610	-0.324917	0.352132
C54	C	1.195610	0.175083	0.852132
C55	C	1.026977	-0.507485	0.359436
C56	C	1.526977	-0.007485	0.859436
C57	C	1.023594	-0.585589	0.362581
C58	C	1.523594	-0.085589	0.862581
C59	C	1.070906	-0.624076	0.319164
C60	C	1.570906	-0.124076	0.819164
C61	C	1.067728	-0.697462	0.322127
C62	C	1.567728	-0.197462	0.822127
C63	C	1.017235	-0.732361	0.368504
C64	C	1.517235	-0.232361	0.868504
C65	C	0.969922	-0.693869	0.411926
C66	C	1.469922	-0.193869	0.911926
C67	C	0.973103	-0.620483	0.408967
C68	C	1.473103	-0.120483	0.908967
C69	C	1.002479	-0.951647	0.382173
C70	C	1.502479	-0.451647	0.882173
C71	C	0.999300	-1.025038	0.385128
C72	C	1.499300	-0.525038	0.885128
C73	C	1.097107	-1.028626	0.295329
C74	C	1.597107	-0.528626	0.795329
C75	C	1.100282	-0.955239	0.292371
C76	C	1.600282	-0.455239	0.792371
C77	C	1.052971	-0.916754	0.335796
C78	C	1.552971	-0.416754	0.835796
N79	N	1.013984	-0.807374	0.371532
N80	N	1.513984	-0.307374	0.871532
N81	N	1.056226	-0.841742	0.332771
N82	N	1.556226	-0.341742	0.832771
C83	C	1.226991	-0.324926	0.352159
C84	C	1.726991	0.175074	0.852159
C85	C	1.308790	-0.324931	0.352168
C86	C	1.808790	0.175069	0.852168
C87	C	1.027692	-0.317510	0.535418
C88	C	1.527692	0.182490	1.035418
C89	C	1.024560	-0.314354	0.613521
C90	C	1.524560	0.185646	1.113521
C91	C	1.043153	-0.141629	0.344826
C92	C	1.543153	0.358371	0.844826
C93	C	1.046611	-0.063524	0.341711
C94	C	1.546611	0.436476	0.841711
C95	C	1.042404	-0.332239	0.169568
C96	C	1.542404	0.167761	0.669568
C97	C	1.045687	-0.335196	0.091458
C98	C	1.545687	0.164804	0.591458
C99	C	1.068160	-0.357811	0.652014
C100	C	1.568160	0.142189	1.152014
C101	C	1.065219	-0.354838	0.725400
C102	C	1.565219	0.145162	1.225400
C103	C	1.018672	-0.308411	0.760291
C104	C	1.518672	0.191589	1.260291
C105	C	0.975071	-0.264949	0.721792
C106	C	1.475071	0.235051	1.221792
C107	C	0.978017	-0.267919	0.648408
C108	C	1.478017	0.232081	1.148408
C109	C	1.005031	-0.294705	0.979574
C110	C	1.505031	0.205295	1.479574
C111	C	1.002087	-0.291739	1.052964
C112	C	1.502087	0.208261	1.552964
C113	C	1.092236	-0.381628	1.056567
C114	C	1.592236	0.118372	1.556567
C115	C	1.095175	-0.384597	0.983181
C116	C	1.595175	0.115403	1.483181
C117	C	1.051576	-0.341133	0.944688
C118	C	1.551576	0.158867	1.444688
N119	N	1.015662	-0.305372	0.835303
N120	N	1.515662	0.194628	1.335303
N121	N	1.054590	-0.344169	0.869678
N122	N	1.554590	0.155831	1.369678
H123	H	1.112020	-0.595667	0.281395
H124	H	1.612020	-0.095667	0.781395
H125	H	0.472540	-0.246555	0.267493
H126	H	0.972540	0.253445	0.767493
F127	F	0.622538	-0.235739	0.255810
F128	F	1.122538	0.264261	0.755810
H129	H	1.135626	-1.059969	0.259976
H130	H	1.635626	-0.559969	0.759976
H131	H	0.958190	-1.053449	0.422907
H132	H	1.458190	-0.553449	0.922907
H133	H	0.458851	-0.403291	0.436818
H134	H	0.958851	0.096709	0.936818
H135	H	1.106254	-0.728795	0.286771
H136	H	1.606254	-0.228795	0.786771
H137	H	1.141397	-0.926827	0.254607
H138	H	1.641397	-0.426827	0.754607
H139	H	0.942515	-0.232530	0.617067
H140	H	1.442515	0.267470	1.117067
H141	H	0.969527	-0.259316	0.948243
H142	H	1.469527	0.240684	1.448243
H143	H	0.598279	-0.403289	0.436803
H144	H	1.098279	0.096711	0.936803
F145	F	0.952126	-0.910697	0.428390
F146	F	1.452126	-0.410697	0.928390
F147	F	0.916187	-0.731012	0.461289
F148	F	1.416187	-0.231012	0.961289
H149	H	0.934578	-0.589148	0.444323
H150	H	1.434578	-0.089148	0.944323
H151	H	1.106066	-0.395616	0.623611
H152	H	1.606066	0.104384	1.123611
F153	F	1.111620	-0.401095	0.766365
F154	F	1.611620	0.098905	1.266365
F155	F	1.144717	-0.434010	0.946053
F156	F	1.644717	0.065990	1.446053
F157	F	1.138635	-0.427882	1.097538
F158	F	1.638635	0.072118	1.597538
H159	H	0.937175	-0.227144	0.750206
H160	H	1.437175	0.272856	1.250206
H161	H	0.964185	-0.253927	1.081370
H162	H	1.464185	0.246073	1.581370
