data_functionalizedCrystal
_audit_creation_method	'MofGen! by Chris Wilmer'
_symmetry_space_group_name_H-M	'P1'
_symmetry_Int_Tables_number	1
_symmetry_cell_setting	triclinic
loop_
_symmetry_equiv_pos_as_xyz
  x,y,z
_cell_length_a	35.277640
_cell_length_b	35.288085
_cell_length_c	35.277682
_cell_angle_alpha	59.997005
_cell_angle_beta	89.996902
_cell_angle_gamma	59.999936
loop_
_atom_site_label
_atom_site_type_symbol
_atom_site_fract_x
_atom_site_fract_y
_atom_site_fract_z
O1	O	0.260035	0.334272	-0.011290
O2	O	0.204913	0.256671	0.011213
O3	O	0.204912	0.334269	-0.066411
O4	O	0.260036	0.256674	0.066334
O5	O	0.267959	0.271241	-0.066410
O6	O	0.267960	0.193643	0.011213
O7	O	0.323082	0.271244	-0.011290
Zn8	Zn	0.305531	0.222436	-0.000038
Zn9	Zn	0.222464	0.305479	-0.000038
O10	O	0.323083	0.193646	0.066334
C11	C	0.364509	0.388002	-0.023608
C12	C	0.341119	0.361397	-0.020385
C13	C	0.341590	0.433930	-0.023931
C14	C	0.433150	0.388005	-0.023613
C15	C	0.483152	0.361403	-0.020395
C16	C	0.410127	0.433934	-0.023935
C17	C	0.364507	0.456628	-0.023613
C18	C	0.341115	0.503398	-0.020396
C19	C	0.410129	0.365412	-0.023930
C20	C	0.322217	0.541183	-0.017796
C21	C	0.322222	0.339902	-0.017781
C22	C	0.523548	0.339911	-0.017795
C23	C	0.298508	0.588586	-0.014535
C24	C	0.298515	0.312936	-0.014514
C25	C	0.574227	0.312949	-0.014533
C26	C	0.027625	0.061861	0.034093
C27	C	0.050647	0.015934	0.034413
C28	C	0.096269	0.061859	0.034096
C29	C	0.119187	0.015932	0.034415
C30	C	0.096268	-0.006762	0.034093
C31	C	0.050648	0.084451	0.034416
C32	C	-0.137907	0.185442	0.021664
C33	C	-0.184784	0.210707	0.018150
C34	C	-0.208300	0.189023	0.016384
C35	C	-0.259130	0.216420	0.012564
C36	C	-0.184935	0.142070	0.018137
C37	C	-0.138060	0.116805	0.021657
C38	C	-0.114546	0.138493	0.023421
C39	C	0.138183	-0.159817	0.021660
C40	C	0.159788	-0.203166	0.018145
C41	C	0.204994	-0.224912	0.016380
C42	C	0.228421	-0.271908	0.012562
C43	C	0.228596	-0.203308	0.018136
C44	C	0.206995	-0.159967	0.021659
C45	C	0.161783	-0.138221	0.023418
C46	C	0.138188	0.185434	0.021675
C47	C	0.159792	0.210701	0.018157
C48	C	0.205000	0.189015	0.016394
C49	C	0.228426	0.216410	0.012578
C50	C	0.228599	0.142067	0.018145
C51	C	0.206993	0.116804	0.021661
C52	C	0.161787	0.138489	0.023430
C53	C	-0.063718	0.111096	0.027234
C54	C	-0.023203	0.089258	0.030276
C55	C	0.119693	0.089254	0.030281
C56	C	0.138365	0.111090	0.027242
C57	C	0.119691	-0.053758	0.030275
C58	C	0.138362	-0.091221	0.027233
C59	C	0.095977	0.466060	-0.438568
C60	C	0.050357	0.511987	-0.461486
C61	C	0.095977	0.466060	-0.369925
C62	C	0.050357	0.511987	-0.392947
C63	C	0.027334	0.534682	-0.438567
C64	C	0.118895	0.443469	-0.392948
C65	C	0.207165	0.342481	-0.480485
C66	C	0.228922	0.317217	-0.502090
C67	C	0.205467	0.338902	-0.547297
C68	C	0.229053	0.311506	-0.570722
C69	C	0.160254	0.385855	-0.570898
C70	C	0.138502	0.411119	-0.549295
C71	C	0.161960	0.389430	-0.504086
C72	C	-0.138197	0.687740	-0.549753
C73	C	-0.185073	0.731090	-0.571510
C74	C	-0.208591	0.752835	-0.548056
C75	C	-0.259418	0.799832	-0.571639
C76	C	-0.185226	0.731230	-0.502843
C77	C	-0.138349	0.687888	-0.481090
C78	C	-0.114837	0.666143	-0.504550
C79	C	0.207165	0.342481	-0.204394
C80	C	0.228921	0.317213	-0.157515
C81	C	0.205465	0.338898	-0.133999
C82	C	0.229051	0.311502	-0.083169
C83	C	0.160254	0.385847	-0.157362
C84	C	0.138500	0.411111	-0.204239
C85	C	0.161962	0.389426	-0.227753
C86	C	0.138368	0.416826	-0.480662
C87	C	0.119564	0.438664	-0.461991
C88	C	0.119565	0.438664	-0.319097
C89	C	0.138368	0.416826	-0.278582
C90	C	-0.023493	0.581679	-0.462154
C91	C	-0.064008	0.619142	-0.480957
O92	O	0.724110	0.193655	0.011196
O93	O	0.591365	0.271256	-0.011308
O94	O	0.668977	0.193662	0.066316
O95	O	0.646498	0.271249	-0.066428
O96	O	0.668975	0.256693	0.066311
O97	O	0.591364	0.334288	-0.011313
O98	O	0.724108	0.256686	0.011190
Zn99	Zn	0.657736	0.305495	-0.000062
Zn100	Zn	0.657738	0.222448	-0.000055
O101	O	0.646497	0.334281	-0.066434
O102	O	0.267953	0.712704	0.011194
O103	O	0.323075	0.602495	-0.011309
O104	O	0.323072	0.602484	0.066315
O105	O	0.267956	0.712715	-0.066430
O106	O	0.260024	0.602489	0.066309
O107	O	0.260027	0.602500	-0.011315
O108	O	0.204904	0.712709	0.011188
Zn109	Zn	0.222455	0.657605	-0.000064
Zn110	Zn	0.305525	0.657599	-0.000057
O111	O	0.204907	0.712719	-0.066436
O112	O	-0.408921	0.925433	-0.602616
O113	O	-0.276178	0.815217	-0.547497
O114	O	-0.353795	0.815213	-0.547490
O115	O	-0.331304	0.925436	-0.602624
O116	O	-0.353797	0.815215	-0.610537
O117	O	-0.276180	0.815218	-0.610544
O118	O	-0.408923	0.925434	-0.665664
Zn119	Zn	-0.342552	0.870327	-0.648114
Zn120	Zn	-0.342549	0.870325	-0.565047
O121	O	-0.331306	0.925438	-0.665671
O122	O	0.260040	0.256670	-0.665375
O123	O	0.204912	0.334269	-0.610253
O124	O	0.204915	0.256669	-0.610247
O125	O	0.260037	0.334270	-0.665381
O126	O	0.267960	0.193642	-0.547200
O127	O	0.267958	0.271242	-0.547207
O128	O	0.323085	0.193643	-0.602329
Zn129	Zn	0.305531	0.222436	-0.564758
Zn130	Zn	0.222466	0.305476	-0.647824
O131	O	0.323083	0.271243	-0.602335
C132	C	0.433158	0.071300	0.293191
C133	C	0.483159	0.024531	0.316581
C134	C	0.410136	0.093994	0.316110
C135	C	0.364515	0.139922	0.224549
C136	C	0.341123	0.166525	0.174548
C137	C	0.341597	0.162513	0.247573
C138	C	0.364516	0.139922	0.293193
C139	C	0.341125	0.166524	0.316584
C140	C	0.410135	0.093995	0.247571
C141	C	0.322228	0.188016	0.335482
C142	C	0.523556	-0.013252	0.335478
C143	C	0.322225	0.188019	0.134151
C144	C	0.298520	0.214979	0.359191
C145	C	0.574235	-0.060654	0.359185
C146	C	0.298517	0.214982	0.083472
C147	C	0.681233	0.139975	0.293161
C148	C	0.678009	0.166582	0.316548
C149	C	0.681548	0.094050	0.316081
C150	C	0.681248	0.139963	0.224524
C151	C	0.678040	0.166559	0.174524
C152	C	0.681563	0.094039	0.247548
C153	C	0.681232	0.071350	0.293166
C154	C	0.678006	0.024584	0.316558
C155	C	0.681564	0.162559	0.247543
C156	C	0.675400	-0.013197	0.335457
C157	C	0.675403	0.188079	0.335442
C158	C	0.675447	0.188046	0.134128
C159	C	0.672130	-0.060596	0.359166
C160	C	0.672135	0.215048	0.359146
C161	C	0.672196	0.215002	0.083451
C162	C	0.364490	0.387980	0.293167
C163	C	0.341096	0.361378	0.316556
C164	C	0.410110	0.365385	0.316088
C165	C	0.364494	0.456607	0.224527
C166	C	0.341105	0.503380	0.174525
C167	C	0.410114	0.433908	0.247552
C168	C	0.433134	0.387977	0.293172
C169	C	0.483136	0.361370	0.316565
C170	C	0.341574	0.433911	0.247547
C171	C	0.523532	0.339874	0.335464
C172	C	0.322197	0.339885	0.335451
C173	C	0.322210	0.541168	0.134129
C174	C	0.574211	0.312907	0.359174
C175	C	0.298486	0.312921	0.359157
C176	C	0.298504	0.588575	0.083449
C177	C	0.623685	0.534347	-0.438579
C178	C	0.623372	0.511646	-0.461493
C179	C	0.623671	0.465732	-0.369936
C180	C	0.623358	0.443134	-0.392954
C181	C	0.623690	0.465719	-0.438572
C182	C	0.623353	0.511658	-0.392961
C183	C	0.636112	0.687410	-0.480504
C184	C	0.639629	0.730760	-0.502111
C185	C	0.641403	0.752499	-0.547315
C186	C	0.645224	0.799496	-0.570743
C187	C	0.639657	0.730888	-0.570913
C188	C	0.636134	0.687546	-0.549308
C189	C	0.634362	0.665807	-0.504101
C190	C	0.636151	0.411366	-0.549743
C191	C	0.639672	0.386247	-0.571496
C192	C	0.641435	0.339290	-0.548040
C193	C	0.645260	0.312048	-0.571619
C194	C	0.639671	0.317456	-0.502829
C195	C	0.636141	0.342578	-0.481081
C196	C	0.634384	0.389535	-0.504543
C197	C	0.636059	0.411430	-0.204413
C198	C	0.639568	0.386320	-0.157535
C199	C	0.641329	0.339363	-0.134017
C200	C	0.645136	0.312135	-0.083189
C201	C	0.639585	0.317516	-0.157377
C202	C	0.636078	0.342625	-0.204252
C203	C	0.634311	0.389586	-0.227768
C204	C	0.630547	0.618806	-0.480676
C205	C	0.627504	0.581344	-0.462004
C206	C	0.627476	0.438507	-0.319110
C207	C	0.630508	0.416807	-0.278596
C208	C	0.627514	0.438480	-0.462155
C209	C	0.630562	0.416769	-0.480954
O210	O	0.646397	0.271324	0.452738
O211	O	0.668903	0.193717	0.397624
O212	O	0.591280	0.271325	0.397607
O213	O	0.724020	0.193716	0.452754
O214	O	0.591295	0.334345	0.334562
O215	O	0.668918	0.256737	0.334579
O216	O	0.646412	0.334345	0.389693
Zn217	Zn	0.657667	0.305547	0.352126
Zn218	Zn	0.657648	0.222515	0.435190
O219	O	0.724035	0.256737	0.389709
C220	C	0.027648	1.061913	-0.438592
C221	C	0.050673	1.084504	-0.461508
C222	C	0.096288	0.993282	-0.369947
C223	C	0.119208	1.015978	-0.392967
C224	C	0.096293	1.061909	-0.438587
C225	C	0.050668	1.015982	-0.392972
C226	C	-0.137885	1.116252	-0.480517
C227	C	-0.184762	1.141367	-0.502125
C228	C	-0.208275	1.188328	-0.547331
C229	C	-0.259104	1.215568	-0.570759
C230	C	-0.184907	1.210170	-0.570931
C231	C	-0.138032	1.185050	-0.549325
C232	C	-0.114521	1.138089	-0.504116
C233	C	0.138219	1.185491	-0.549766
C234	C	0.159827	1.210754	-0.571521
C235	C	0.205032	1.189069	-0.548065
C236	C	0.228462	1.216461	-0.571646
C237	C	0.228631	1.142112	-0.502852
C238	C	0.207027	1.116844	-0.481101
C239	C	0.161816	1.138542	-0.504563
C240	C	0.138193	0.840210	-0.204418
C241	C	0.159794	0.796860	-0.157539
C242	C	0.205001	0.775110	-0.134021
C243	C	0.228423	0.728108	-0.083192
C244	C	0.228603	0.796715	-0.157382
C245	C	0.207000	0.840066	-0.204259
C246	C	0.161795	0.861807	-0.227775
C247	C	-0.063694	1.110857	-0.480691
C248	C	-0.023179	1.089149	-0.462018
C249	C	0.119708	0.946280	-0.319120
C250	C	0.138377	0.908813	-0.278605
C251	C	0.119719	1.089305	-0.462172
C252	C	0.138392	1.111142	-0.480972
H253	H	0.428612	0.328452	-0.024442
H254	H	-0.119009	1.202835	-0.568543
C255	C	0.435075	0.315463	0.366726
H256	H	0.414820	0.305193	0.377136
H257	H	0.443757	0.323476	0.385780
H258	H	0.462046	0.286918	0.368497
C259	C	0.169823	-0.009729	0.035115
H260	H	0.180237	0.010375	0.035259
H261	H	0.171595	-0.009920	0.008335
H262	H	0.188878	-0.045475	0.062189
H263	H	0.140568	-0.220751	0.016715
C264	C	0.634212	0.663776	-0.575262
H265	H	0.631858	0.634851	-0.555921
H266	H	0.661650	0.651170	-0.583064
H267	H	0.607935	0.690646	-0.602813
H268	H	0.304114	0.199470	0.229088
H269	H	0.428598	0.452904	0.229068
C270	C	0.290937	0.459580	0.222577
H271	H	0.280521	0.439474	0.242831
H272	H	0.289163	0.459779	0.195602
H273	H	0.271885	0.495323	0.213900
C274	C	0.622660	0.393210	-0.367986
H275	H	0.622522	0.382943	-0.388242
H276	H	0.595591	0.401217	-0.359299
H277	H	0.649443	0.364666	-0.341016
C278	C	0.133870	1.262405	-0.621247
H279	H	0.153214	1.274342	-0.630842
H280	H	0.106324	1.289343	-0.621914
H281	H	0.126064	1.255389	-0.641666
C282	C	0.088773	0.462760	-0.575253
H283	H	0.077917	0.472056	-0.605269
H284	H	0.088727	0.491025	-0.578127
H285	H	0.068991	0.457054	-0.558380
C286	C	0.682264	0.068374	0.222584
H287	H	0.682413	0.088476	0.192060
H288	H	0.655483	0.068186	0.221002
H289	H	0.709335	0.032627	0.239287
C290	C	0.622683	0.537298	-0.512127
H291	H	0.622546	0.567954	-0.522541
H292	H	0.595617	0.547664	-0.531186
H293	H	0.649469	0.512099	-0.513890
H294	H	0.622833	0.530658	-0.374482
H295	H	0.101688	0.449338	-0.223258
C296	C	0.682220	0.068406	0.366710
H297	H	0.682351	0.088520	0.377118
H298	H	0.709283	0.032658	0.385780
H299	H	0.655430	0.068231	0.368462
H300	H	0.641058	0.748346	-0.482891
C301	C	0.025689	-0.009744	0.035138
H302	H	-0.004835	0.010360	0.035283
H303	H	0.042398	-0.045485	0.062215
H304	H	0.024103	-0.009946	0.008362
H305	H	0.428613	0.452925	-0.024451
H306	H	0.640991	0.404111	-0.138518
C307	C	0.025682	0.134371	0.035117
H308	H	-0.004843	0.144639	0.035260
H309	H	0.024105	0.162914	0.008340
H310	H	0.042381	0.126352	0.062193
H311	H	0.428619	0.074992	0.353596
C312	C	0.169530	0.393544	-0.367977
H313	H	0.179943	0.383277	-0.388232
H314	H	0.171298	0.365004	-0.341005
H315	H	0.188587	0.401558	-0.359297
C316	C	0.682262	0.212483	0.222569
H317	H	0.682399	0.222756	0.242821
H318	H	0.655486	0.241021	0.195595
H319	H	0.709338	0.204468	0.213891
C320	C	0.634118	0.463083	-0.230279
H321	H	0.635665	0.472495	-0.209653
H322	H	0.605892	0.491290	-0.255686
H323	H	0.659608	0.457325	-0.241449
C324	C	0.133834	0.262340	0.016233
H325	H	0.103819	0.271633	0.017794
H326	H	0.130960	0.290607	-0.011994
H327	H	0.150706	0.256632	0.041723
H328	H	0.226214	0.078573	0.023092
H329	H	0.265733	0.278988	-0.482870
H330	H	0.032180	0.996990	-0.374492
C331	C	0.134453	0.409706	-0.131498
H332	H	0.153884	0.387941	-0.100236
H333	H	0.106910	0.410968	-0.132032
H334	H	0.126657	0.444929	-0.146270
H335	H	0.226216	-0.142382	0.023091
C336	C	0.290956	0.459588	-0.024625
H337	H	0.280545	0.439477	-0.024759
H338	H	0.271898	0.495333	-0.051694
H339	H	0.289190	0.459775	0.002159
C340	C	0.634158	0.663506	-0.430781
H341	H	0.635696	0.682587	-0.419825
H342	H	0.659639	0.626857	-0.411045
H343	H	0.605924	0.666334	-0.430801
C344	C	0.278320	-0.227223	0.016193
H345	H	0.287805	-0.256127	0.013839
H346	H	0.298789	-0.239888	0.043622
H347	H	0.279039	-0.200405	-0.010094
C348	C	0.232964	0.863823	-0.229958
H349	H	0.213624	0.892757	-0.261243
H350	H	0.260509	0.836952	-0.229358
H351	H	0.240772	0.876426	-0.215128
C352	C	0.088465	0.209286	0.023623
H353	H	0.077502	0.240867	0.022073
H354	H	0.088481	0.183872	0.051855
H355	H	0.068733	0.217840	-0.001862
H356	H	0.265441	1.124451	-0.483755
C357	C	-0.112043	0.209295	0.023611
H358	H	-0.132669	0.240870	0.022069
H359	H	-0.100866	0.217849	-0.001872
H360	H	-0.086640	0.183879	0.051844
H361	H	0.641099	0.748593	-0.607720
C362	C	-0.210482	0.262351	0.016217
H363	H	-0.189765	0.271651	0.017768
H364	H	-0.221654	0.256656	0.041700
H365	H	-0.235878	0.290615	-0.012016
H366	H	0.634717	0.449600	-0.568851
H367	H	0.641109	0.404028	-0.608306
H368	H	0.031875	0.530980	-0.498970
H369	H	0.265411	0.124409	0.016709
C370	C	0.435101	0.068336	0.222601
H371	H	0.465626	0.037677	0.242855
H372	H	0.436679	0.093529	0.195627
H373	H	0.418402	0.057963	0.213923
H374	H	0.641100	0.279225	-0.483733
C375	C	0.134456	0.409705	-0.620621
H376	H	0.153884	0.387932	-0.630107
H377	H	0.126654	0.444927	-0.641090
H378	H	0.106913	0.410961	-0.621340
H379	H	0.634704	0.324798	-0.444271
C380	C	0.278334	0.772785	-0.131518
H381	H	0.287824	0.743868	-0.100256
H382	H	0.279069	0.799588	-0.132049
H383	H	0.298793	0.760125	-0.146291
C384	C	0.634151	0.318598	-0.229947
H385	H	0.635697	0.287041	-0.209229
H386	H	0.659638	0.309980	-0.241112
H387	H	0.605922	0.343951	-0.255348
H388	H	-0.204373	0.748941	-0.483748
C389	C	0.641515	0.265868	-0.131511
H390	H	0.643848	0.254045	-0.100250
H391	H	0.667798	0.238863	-0.132040
H392	H	0.614082	0.272841	-0.146285
H393	H	0.226245	1.078611	-0.444291
C394	C	-0.112333	0.663825	-0.575556
H395	H	-0.081071	0.634912	-0.556124
H396	H	-0.112868	0.690635	-0.603100
H397	H	-0.127100	0.651161	-0.583353
H398	H	0.156694	0.996974	-0.374482
H399	H	0.032187	1.121468	-0.498989
C400	C	0.133831	0.773097	-0.131845
H401	H	0.103817	0.792253	-0.152566
H402	H	0.130956	0.775922	-0.106445
H403	H	0.150702	0.736453	-0.120681
C404	C	-0.210801	0.118220	0.016196
H405	H	-0.242066	0.139993	0.013846
H406	H	-0.196037	0.082998	0.043627
H407	H	-0.210265	0.116963	-0.010089
C408	C	0.088466	0.864133	-0.230282
H409	H	0.077499	0.845064	-0.209655
H410	H	0.088474	0.861315	-0.255689
H411	H	0.068742	0.900782	-0.241453
C412	C	-0.112360	0.065159	0.023592
H413	H	-0.133078	0.055863	0.022036
H414	H	-0.086964	0.036899	0.051822
H415	H	-0.101190	0.070857	-0.001894
H416	H	0.101372	-0.142116	0.023095
C417	C	-0.112025	1.064593	-0.430793
H418	H	-0.132653	1.055180	-0.419836
H419	H	-0.100850	1.070339	-0.411059
H420	H	-0.086622	1.036387	-0.430811
H421	H	-0.203784	1.123580	-0.482907
C422	C	-0.210770	1.261824	-0.620653
H423	H	-0.242036	1.273659	-0.630140
H424	H	-0.196005	1.254866	-0.641122
H425	H	-0.210233	1.288820	-0.621371
C426	C	-0.210772	0.754846	-0.621235
H427	H	-0.190057	0.735684	-0.632087
H428	H	-0.221945	0.791490	-0.641025
H429	H	-0.236169	0.752009	-0.621268
C430	C	0.088493	1.209351	-0.575571
H431	H	0.079002	1.187585	-0.556141
H432	H	0.087767	1.210616	-0.603116
H433	H	0.068030	1.244573	-0.583368
C434	C	0.025389	0.537652	-0.367981
H435	H	0.045644	0.517547	-0.337457
H436	H	-0.001583	0.537846	-0.366400
H437	H	0.016710	0.573397	-0.384684
H438	H	0.226270	0.324818	-0.223536
H439	H	0.265730	0.278980	-0.138494
H440	H	0.226270	0.324817	-0.443675
H441	H	-0.119328	0.670303	-0.444279
