data_functionalizedCrystal
_audit_creation_method	'MofGen! by Chris Wilmer'
_symmetry_space_group_name_H-M	'P1'
_symmetry_Int_Tables_number	1
_symmetry_cell_setting	triclinic
loop_
_symmetry_equiv_pos_as_xyz
  x,y,z
_cell_length_a	25.639242
_cell_length_b	25.639240
_cell_length_c	25.639233
_cell_angle_alpha	90.025929
_cell_angle_beta	90.014348
_cell_angle_gamma	90.025061
loop_
_atom_site_label
_atom_site_type_symbol
_atom_site_fract_x
_atom_site_fract_y
_atom_site_fract_z
Zn1	Zn	0.799247	-0.208322	0.295607
Zn2	Zn	1.299247	0.291678	0.795607
Zn3	Zn	0.799179	-0.295741	0.208160
Zn4	Zn	1.299179	0.204259	0.708160
Zn5	Zn	0.711823	-0.208309	0.208183
Zn6	Zn	1.211823	0.291691	0.708183
Zn7	Zn	0.711777	-0.295716	0.295562
Zn8	Zn	1.211777	0.204284	0.795562
O9	O	0.755506	-0.252022	0.251878
O10	O	1.255506	0.247978	0.751878
O11	O	0.872403	-0.219933	0.284016
O12	O	1.372403	0.280067	0.784016
O13	O	0.787582	-0.284148	0.134998
O14	O	1.287582	0.215852	0.634998
O15	O	0.723467	-0.135146	0.219808
O16	O	1.223467	0.364854	0.719808
O17	O	0.872353	-0.284160	0.219770
O18	O	1.372353	0.215840	0.719770
O19	O	0.787697	-0.135155	0.284038
O20	O	1.287697	0.364845	0.784038
O21	O	0.723402	-0.219912	0.135015
O22	O	1.223402	0.280088	0.635015
O23	O	0.638652	-0.219889	0.219765
O24	O	1.138652	0.280111	0.719765
O25	O	0.723389	-0.284118	0.368733
O26	O	1.223389	0.215882	0.868733
O27	O	0.638618	-0.284106	0.283962
O28	O	1.138618	0.215894	0.783962
O29	O	0.787653	-0.219910	0.368766
O30	O	1.287653	0.280090	0.868766
O31	O	0.787538	-0.368903	0.219726
O32	O	1.287538	0.131097	0.719726
O33	O	0.723324	-0.368885	0.283940
O34	O	1.223324	0.131115	0.783940
C35	C	0.619664	-0.251994	0.251861
C36	C	1.119664	0.248006	0.751861
C37	C	0.561550	-0.251994	0.251866
C38	C	1.061550	0.248006	0.751866
C39	C	0.310390	-0.218639	0.285392
C40	C	0.810390	0.281361	0.785392
C41	C	0.364994	-0.218634	0.285389
C42	C	0.864994	0.281366	0.785389
O43	O	0.393260	-0.190251	0.313891
O44	O	0.893260	0.309749	0.813891
N45	N	0.392276	-0.252016	0.251884
N46	N	0.892276	0.247984	0.751884
C47	C	0.364950	-0.285409	0.218383
C48	C	0.864950	0.214591	0.718383
O49	O	0.393169	-0.313803	0.189885
O50	O	0.893169	0.186197	0.689885
C51	C	0.310347	-0.285417	0.218389
C52	C	0.810347	0.214583	0.718389
C53	C	0.283068	-0.252028	0.251893
C54	C	0.783068	0.247972	0.751893
C55	C	0.283112	-0.185254	0.318894
C56	C	0.783112	0.314746	0.818894
C57	C	0.228511	-0.185258	0.318896
C58	C	0.728511	0.314742	0.818896
C59	C	0.201189	-0.218648	0.285397
C60	C	0.701189	0.281352	0.785397
C61	C	0.228468	-0.252033	0.251895
C62	C	0.728468	0.247967	0.751895
C63	C	0.283022	-0.318812	0.184892
C64	C	0.783022	0.181188	0.684892
C65	C	0.228415	-0.318817	0.184901
C66	C	0.728415	0.181183	0.684901
C67	C	0.201136	-0.285429	0.218405
C68	C	0.701136	0.214571	0.718405
C69	C	0.146545	-0.285427	0.218398
C70	C	0.646545	0.214573	0.718398
N71	N	0.119264	-0.252045	0.251904
N72	N	0.619264	0.247955	0.751904
C73	C	0.146586	-0.218655	0.285403
C74	C	0.646586	0.281345	0.785403
C75	C	0.479621	-0.285392	0.218374
C76	C	0.979621	0.214608	0.718374
C77	C	0.534223	-0.285382	0.218365
C78	C	1.034223	0.214618	0.718365
C79	C	0.534264	-0.218607	0.285372
C80	C	1.034264	0.281393	0.785372
C81	C	0.479660	-0.218614	0.285378
C82	C	0.979660	0.281386	0.785378
C83	C	0.452339	-0.252010	0.251879
C84	C	0.952339	0.247990	0.751879
C85	C	0.031921	-0.218667	0.285404
C86	C	0.531921	0.281333	0.785404
C87	C	-0.022685	-0.218673	0.285402
C88	C	0.477315	0.281327	0.785402
C89	C	-0.022721	-0.285450	0.218397
C90	C	0.477279	0.214550	0.718397
C91	C	0.031880	-0.285442	0.218398
C92	C	0.531880	0.214558	0.718398
C93	C	0.059199	-0.252049	0.251905
C94	C	0.559199	0.247951	0.751905
O95	O	0.118245	-0.313797	0.189913
O96	O	0.618245	0.186203	0.689913
O97	O	0.118360	-0.190271	0.313902
O98	O	0.618360	0.309729	0.813902
C99	C	0.755432	-0.387865	0.251837
C100	C	1.255432	0.112135	0.751837
C101	C	0.755449	-0.445979	0.251837
C102	C	1.255449	0.054021	0.751837
C103	C	0.788967	-0.806308	0.285383
C104	C	1.288967	-0.306308	0.785383
C105	C	0.788983	-0.860912	0.285394
C106	C	1.288983	-0.360912	0.785394
O107	O	0.817394	-0.889120	0.313874
O108	O	1.317394	-0.389120	0.813874
N109	N	0.755579	-0.888261	0.251929
N110	N	1.255579	-0.388261	0.751929
C111	C	0.722154	-0.861003	0.218455
C112	C	1.222154	-0.361003	0.718455
O113	O	0.693742	-0.889279	0.189991
O114	O	1.193742	-0.389279	0.689991
C115	C	0.722136	-0.806399	0.218447
C116	C	1.222136	-0.306399	0.718447
C117	C	0.755546	-0.779053	0.251911
C118	C	1.255546	-0.279053	0.751911
C119	C	0.822374	-0.778962	0.318844
C120	C	1.322374	-0.278962	0.818844
C121	C	0.822359	-0.724361	0.318833
C122	C	1.322359	-0.224361	0.818833
C123	C	0.788938	-0.697107	0.285360
C124	C	1.288938	-0.197107	0.785360
C125	C	0.755531	-0.724453	0.251899
C126	C	1.255531	-0.224453	0.751899
C127	C	0.688708	-0.779142	0.184976
C128	C	1.188708	-0.279142	0.684976
C129	C	0.688693	-0.724535	0.184972
C130	C	1.188693	-0.224535	0.684972
C131	C	0.722103	-0.697189	0.218435
C132	C	1.222103	-0.197189	0.718435
C133	C	0.722094	-0.642598	0.218415
C134	C	1.222094	-0.142598	0.718415
N135	N	0.755498	-0.615249	0.251880
N136	N	1.255498	-0.115249	0.751880
C137	C	0.788920	-0.642504	0.285353
C138	C	1.288920	-0.142504	0.785353
C139	C	0.722193	-0.975673	0.218474
C140	C	1.222193	-0.475673	0.718474
C141	C	0.722213	-1.030276	0.218478
C142	C	1.222213	-0.530276	0.718478
C143	C	0.789041	-1.030181	0.285418
C144	C	1.289041	-0.530181	0.785418
C145	C	0.789024	-0.975578	0.285411
C146	C	1.289024	-0.475578	0.785411
C147	C	0.755597	-0.948324	0.251939
C148	C	1.255597	-0.448324	0.751939
C149	C	0.788887	-0.527838	0.285326
C150	C	1.288887	-0.027838	0.785326
C151	C	0.788870	-0.473233	0.285310
C152	C	1.288870	0.026767	0.785310
C153	C	0.722040	-0.473332	0.218372
C154	C	1.222040	0.026668	0.718372
C155	C	0.722058	-0.527933	0.218386
C156	C	1.222058	-0.027933	0.718386
C157	C	0.755483	-0.555185	0.251867
C158	C	1.255483	-0.055185	0.751867
O159	O	0.693697	-0.614355	0.189951
O160	O	1.193697	-0.114355	0.689951
O161	O	0.817322	-0.614221	0.313816
O162	O	1.317322	-0.114221	0.813816
C163	C	0.891879	-0.252051	0.251895
C164	C	1.391879	0.247949	0.751895
C165	C	0.949993	-0.252063	0.251903
C166	C	1.449993	0.247937	0.751903
C167	C	0.755523	-0.252013	0.388251
C168	C	1.255523	0.247987	0.888251
C169	C	0.755530	-0.252009	0.446365
C170	C	1.255530	0.247991	0.946365
C171	C	0.755595	-0.115649	0.251931
C172	C	1.255595	0.384351	0.751931
C173	C	0.755632	-0.057535	0.251953
C174	C	1.255632	0.442465	0.751953
C175	C	0.755520	-0.251993	0.116036
C176	C	1.255520	0.248007	0.616036
C177	C	0.755614	-0.251850	0.057922
C178	C	1.255614	0.248150	0.557922
C179	C	0.789035	-0.218476	0.806751
C180	C	1.289035	0.281524	1.306751
C181	C	0.789041	-0.218462	0.861356
C182	C	1.289041	0.281538	1.361356
O183	O	0.817486	-0.190013	0.889612
O184	O	1.317486	0.309987	1.389612
N185	N	0.755588	-0.251886	0.888648
N186	N	1.255588	0.248114	1.388648
C187	C	0.722122	-0.285324	0.861333
C188	C	1.222122	0.214676	1.361333
O189	O	0.693668	-0.313752	0.889561
O190	O	1.193668	0.186248	1.389561
C191	C	0.722114	-0.285335	0.806730
C192	C	1.222114	0.214665	1.306730
C193	C	0.755573	-0.251912	0.779440
C194	C	1.255573	0.248088	1.279440
C195	C	0.822491	-0.185056	0.779462
C196	C	1.322491	0.314944	1.279462
C197	C	0.822485	-0.185071	0.724861
C198	C	1.322485	0.314929	1.224861
C199	C	0.789023	-0.218507	0.697550
C200	C	1.289023	0.281493	1.197550
C201	C	0.755567	-0.251927	0.724840
C202	C	1.255567	0.248073	1.224840
C203	C	0.688646	-0.318770	0.779416
C204	C	1.188646	0.181230	1.279416
C205	C	0.688640	-0.318778	0.724809
C206	C	1.188640	0.181222	1.224809
C207	C	0.722099	-0.285355	0.697519
C208	C	1.222099	0.214645	1.197519
C209	C	0.722099	-0.285379	0.642928
C210	C	1.222099	0.214621	1.142928
N211	N	0.755552	-0.251954	0.615636
N212	N	1.255552	0.248046	1.115636
C213	C	0.789014	-0.218518	0.642947
C214	C	1.289014	0.281482	1.142947
C215	C	0.722143	-0.285296	0.976004
C216	C	1.222143	0.214704	1.476004
C217	C	0.722154	-0.285288	1.030606
C218	C	1.222154	0.214712	1.530606
C219	C	0.789072	-0.218425	1.030625
C220	C	1.289072	0.281575	1.530625
C221	C	0.789063	-0.218437	0.976022
C222	C	1.289063	0.281563	1.476022
C223	C	0.755596	-0.251872	0.948712
C224	C	1.255596	0.248128	1.448712
C225	C	0.789000	-0.218553	0.528282
C226	C	1.289000	0.281447	1.028282
C227	C	0.788992	-0.218573	0.473676
C228	C	1.288992	0.281427	0.973676
C229	C	0.722072	-0.285434	0.473662
C230	C	1.222072	0.214566	0.973662
C231	C	0.722081	-0.285416	0.528263
C232	C	1.222081	0.214584	1.028263
C233	C	0.755547	-0.251971	0.555571
C234	C	1.255547	0.248029	1.055571
O235	O	0.693668	-0.313812	0.614637
O236	O	1.193668	0.186188	1.114637
O237	O	0.817459	-0.190090	0.614712
O238	O	1.317459	0.309910	1.114712
H239	H	0.054091	-0.312625	0.191112
H240	H	0.554091	0.187375	0.691112
H241	H	0.816249	-0.191318	0.550510
H242	H	1.316249	0.308682	1.050510
H243	H	0.816308	-0.191220	0.953806
H244	H	1.316308	0.308780	1.453806
H245	H	0.816228	-0.953316	0.312660
H246	H	1.316228	-0.453316	0.812660
H247	H	0.849730	-0.157853	0.702647
H248	H	1.349730	0.342147	1.202647
H249	H	0.457454	-0.191426	0.312659
H250	H	0.957454	0.308574	0.812659
H251	H	0.305223	-0.346001	0.157609
H252	H	0.805223	0.153999	0.657609
H253	H	0.695012	-1.052536	0.191223
H254	H	1.195012	-0.552536	0.691223
H255	H	0.556519	-0.191420	0.312649
H256	H	1.056519	0.308580	0.812649
H257	H	0.694974	-0.953486	0.191213
H258	H	1.194974	-0.453486	0.691213
H259	H	0.849740	-0.157825	0.801693
H260	H	1.349740	0.342175	1.301693
O261	O	0.685992	-0.321462	0.557700
O262	O	1.185992	0.178538	1.057700
H263	H	0.709372	-0.348064	0.582579
H264	H	1.209372	0.151936	1.082579
O265	O	0.450155	-0.321408	0.182235
O266	O	0.950155	0.178592	0.682235
H267	H	0.425274	-0.297969	0.155685
H268	H	0.925274	0.202031	0.655685
H269	H	0.816078	-0.450970	0.312560
H270	H	1.316078	0.049030	0.812560
H271	H	0.661503	-0.801398	0.157726
H272	H	1.161503	-0.301398	0.657726
H273	H	0.816317	-0.191199	1.052871
H274	H	1.316317	0.308801	1.552871
H275	H	0.206306	-0.158072	0.346181
H276	H	0.706306	0.341928	0.846181
H277	H	-0.044976	-0.312633	0.191121
H278	H	0.455024	0.187367	0.691121
H279	H	0.816254	-1.052382	0.312674
H280	H	1.316254	-0.552382	0.812674
H281	H	0.661471	-0.702348	0.157715
H282	H	1.161471	-0.202348	0.657715
H283	H	0.661380	-0.346000	0.702576
H284	H	1.161380	0.154000	1.202576
O285	O	0.824940	-0.557228	0.321433
O286	O	1.324940	-0.057228	0.821433
H287	H	0.848168	-0.529032	0.344692
H288	H	1.348168	-0.029032	0.844692
O289	O	0.652554	-0.354819	0.808838
O290	O	1.152554	0.145181	1.308838
H291	H	0.658177	-0.349203	0.851398
H292	H	1.158177	0.150797	1.351398
H293	H	0.694889	-0.312526	0.953771
H294	H	1.194889	0.187474	1.453771
O295	O	-0.052108	-0.182662	0.321541
O296	O	0.447892	0.317338	0.821541
H297	H	-0.023932	-0.159448	0.344837
H298	H	0.476068	0.340552	0.844837
O299	O	0.061383	-0.182646	0.321538
O300	O	0.561383	0.317354	0.821538
H301	H	0.033234	-0.159430	0.344826
H302	H	0.533234	0.340570	0.844826
O303	O	0.312576	-0.149232	0.355022
O304	O	0.812576	0.350768	0.855022
H305	H	0.284426	-0.126018	0.378311
H306	H	0.784426	0.373982	0.878311
O307	O	0.686067	-0.321338	1.060039
O308	O	1.186067	0.178662	1.560039
H309	H	0.662797	-0.344585	1.031868
H310	H	1.162797	0.155415	1.531868
H311	H	0.556429	-0.312565	0.191077
H312	H	1.056429	0.187435	0.691077
O313	O	0.686026	-0.557433	0.182294
O314	O	1.186026	-0.057433	0.682294
H315	H	0.662782	-0.529305	0.159018
H316	H	1.162782	-0.029305	0.659018
H317	H	0.694830	-0.312658	0.451416
H318	H	1.194830	0.187342	0.951416
H319	H	0.206173	-0.346013	0.157623
H320	H	0.706173	0.153987	0.657623
O321	O	0.858402	-0.694869	0.354918
O322	O	1.358402	-0.194869	0.854918
H323	H	0.881642	-0.723002	0.378191
H324	H	1.381642	-0.223002	0.878191
H325	H	0.694830	-0.451133	0.191117
H326	H	1.194830	0.048867	0.691117
H327	H	0.849590	-0.801147	0.346105
H328	H	1.349590	-0.301147	0.846105
H329	H	0.816241	-0.191355	0.451460
H330	H	1.316241	0.308645	0.951460
