data_functionalizedCrystal
_audit_creation_method	'MofGen! by Chris Wilmer'
_symmetry_space_group_name_H-M	'P1'
_symmetry_Int_Tables_number	1
_symmetry_cell_setting	triclinic
loop_
_symmetry_equiv_pos_as_xyz
  x,y,z
_cell_length_a	23.532407
_cell_length_b	22.010155
_cell_length_c	23.532407
_cell_angle_alpha	89.990798
_cell_angle_beta	97.151322
_cell_angle_gamma	90.010358
loop_
_atom_site_label
_atom_site_type_symbol
_atom_site_fract_x
_atom_site_fract_y
_atom_site_fract_z
O1	O	0.755269	0.050455	-0.069133
O2	O	0.589406	0.050474	-0.079137
O3	O	0.677339	0.050453	0.008797
O4	O	0.667336	0.050476	-0.157067
O5	O	0.677312	-0.050597	0.008797
O6	O	0.589379	-0.050576	-0.079137
O7	O	0.755243	-0.050595	-0.069133
Cu8	Cu	0.672308	-0.059812	-0.074135
Cu9	Cu	0.672340	0.059691	-0.074135
O10	O	0.667309	-0.050574	-0.157067
C11	C	0.568176	-0.000049	-0.078882
C12	C	0.504959	-0.000042	-0.078116
N13	N	0.672291	-0.143865	-0.074135
C14	C	0.105856	-0.000063	-0.125350
C15	C	0.046456	-0.000067	-0.124638
O16	O	0.009711	-0.000083	-0.168424
N17	N	0.023830	-0.000073	-0.072362
C18	C	0.060607	-0.000082	-0.020794
O19	O	0.035908	-0.000088	0.023737
C20	C	0.120006	-0.000082	-0.021506
C21	C	0.142629	-0.000070	-0.073785
C22	C	0.128479	-0.000051	-0.177625
C23	C	0.187876	-0.000046	-0.178336
C24	C	0.224649	-0.000053	-0.126772
C25	C	0.202025	-0.000065	-0.074497
C26	C	0.156783	-0.000096	0.030062
C27	C	0.216185	-0.000097	0.029345
C28	C	0.238808	-0.000084	-0.022934
C29	C	0.298194	-0.000067	-0.023643
N30	N	0.320820	-0.000061	-0.075920
C31	C	0.284048	-0.000054	-0.127484
C32	C	-0.064135	-0.000082	-0.019302
C33	C	-0.123533	-0.000077	-0.018589
C34	C	-0.137680	-0.000063	-0.122434
C35	C	-0.078281	-0.000064	-0.123146
C36	C	-0.041509	-0.000076	-0.071578
C37	C	0.408784	-0.000043	-0.128974
C38	C	0.468186	-0.000035	-0.129680
C39	C	0.482329	-0.000052	-0.025836
C40	C	0.422932	-0.000057	-0.025129
C41	C	0.386160	-0.000054	-0.076702
O42	O	0.334974	-0.000054	0.020119
O43	O	0.308755	-0.000055	-0.172007
C44	C	0.706685	-0.563643	-0.108496
C45	C	0.706692	-0.627251	-0.108494
O46	O	0.735915	-0.660141	-0.137705
N47	N	0.672351	-0.659072	-0.074128
C48	C	0.638005	-0.627282	-0.039758
O49	O	0.608796	-0.660189	-0.010527
C50	C	0.638002	-0.563676	-0.039757
C51	C	0.672341	-0.531858	-0.074129
C52	C	0.741022	-0.531825	-0.142864
C53	C	0.741014	-0.468222	-0.142867
C54	C	0.706670	-0.436437	-0.108500
C55	C	0.672333	-0.468255	-0.074131
C56	C	0.603660	-0.531887	-0.005383
C57	C	0.603660	-0.468276	-0.005384
C58	C	0.637999	-0.436458	-0.039757
C59	C	0.637981	-0.372866	-0.039766
N60	N	0.672322	-0.341045	-0.074132
C61	C	0.706667	-0.372830	-0.108498
C62	C	0.638015	-0.760860	-0.039762
C63	C	0.638015	-0.824465	-0.039766
C64	C	0.706703	-0.824429	-0.108502
C65	C	0.706700	-0.760823	-0.108501
C66	C	0.672356	-0.729039	-0.074128
C67	C	0.706648	-0.239259	-0.108501
C68	C	0.706635	-0.175650	-0.108502
C69	C	0.637950	-0.175691	-0.039764
C70	C	0.637960	-0.239295	-0.039765
C71	C	0.672313	-0.271077	-0.074135
O72	O	0.608775	-0.339935	-0.010568
O73	O	0.735876	-0.339916	-0.137719
C74	C	0.776472	-0.000071	-0.069388
C75	C	0.839689	-0.000073	-0.070154
C76	C	0.677071	-0.000074	0.030013
C77	C	0.676305	-0.000078	0.093230
N78	N	0.672362	0.143744	-0.074131
C79	C	0.667577	-0.000046	-0.178283
C80	C	0.668343	-0.000037	-0.241500
C81	C	0.723539	-0.000050	0.492333
C82	C	0.722827	-0.000046	0.551733
O83	O	0.766613	-0.000028	0.588478
N84	N	0.670551	-0.000040	0.574359
C85	C	0.618983	-0.000033	0.537582
O86	O	0.574452	-0.000027	0.562281
C87	C	0.619695	-0.000033	0.478182
C88	C	0.671974	-0.000045	0.455560
C89	C	0.775814	-0.000061	0.469710
C90	C	0.776525	-0.000067	0.410313
C91	C	0.724961	-0.000062	0.373540
C92	C	0.672685	-0.000051	0.396164
C93	C	0.568127	-0.000022	0.441406
C94	C	0.568844	-0.000022	0.382004
C95	C	0.621123	-0.000034	0.359381
C96	C	0.621832	-0.000052	0.299995
N97	N	0.674109	-0.000057	0.277368
C98	C	0.725673	-0.000062	0.314141
C99	C	0.617491	-0.000031	0.662324
C100	C	0.616778	-0.000035	0.721722
C101	C	0.720623	-0.000047	0.735869
C102	C	0.721335	-0.000047	0.676470
C103	C	0.669767	-0.000037	0.639698
C104	C	0.727163	-0.000075	0.189405
C105	C	0.727869	-0.000083	0.130003
C106	C	0.624025	-0.000069	0.115860
C107	C	0.623318	-0.000064	0.175257
C108	C	0.674891	-0.000065	0.212029
O109	O	0.578070	-0.000067	0.263215
O110	O	0.770196	-0.000060	0.289433
H111	H	0.486602	-0.000025	-0.172255
H112	H	0.609986	-0.149800	-0.011785
H113	H	0.575698	-0.557782	0.022607
H114	H	0.734667	-0.850321	-0.136486
C115	C	0.212347	0.000057	-0.235143
C116	C	0.193615	0.052041	-0.266297
C117	C	0.216133	0.052152	-0.318638
H118	H	0.252988	0.000089	-0.228278
H119	H	0.199676	-0.035161	-0.256387
H120	H	0.206289	0.087250	-0.245058
H121	H	0.152977	0.052020	-0.273178
H122	H	0.203462	0.016934	-0.339882
H123	H	0.256773	0.052182	-0.311767
H124	H	0.203422	0.087419	-0.339785
H125	H	0.734598	-0.149747	-0.136494
C126	C	0.600657	-0.726464	-0.002430
C127	C	0.570575	-0.767951	0.027650
C128	C	0.536150	-0.736292	0.062041
H129	H	0.624077	-0.701647	0.023950
H130	H	0.574281	-0.701668	-0.025890
H131	H	0.596947	-0.792737	0.051109
H132	H	0.547144	-0.792770	0.001285
H133	H	0.509774	-0.711496	0.038580
H134	H	0.559574	-0.711476	0.088417
H135	H	0.515731	-0.764436	0.082450
H136	H	0.378851	-0.000042	-0.170970
H137	H	0.819097	-0.000074	0.391900
C138	C	0.778365	-0.433792	-0.180197
C139	C	0.808453	-0.475253	-0.210276
C140	C	0.842876	-0.443564	-0.244665
H141	H	0.754944	-0.408977	-0.206577
H142	H	0.804738	-0.408992	-0.156735
H143	H	0.782084	-0.500043	-0.233737
H144	H	0.831885	-0.500070	-0.183911
H145	H	0.869248	-0.418763	-0.221203
H146	H	0.819450	-0.418750	-0.271041
H147	H	0.863298	-0.471690	-0.265074
H148	H	0.575496	-0.000028	0.632386
C149	C	0.568000	0.000036	0.075994
C150	C	0.536515	0.052025	0.086174
C151	C	0.484899	0.052144	0.049464
H152	H	0.575836	0.000066	0.037361
H153	H	0.546503	-0.035178	0.082830
H154	H	0.558008	0.087230	0.079335
H155	H	0.528664	0.052006	0.124801
H156	H	0.463402	0.016930	0.056299
H157	H	0.492741	0.052172	0.010833
H158	H	0.463528	0.087415	0.056370
C159	C	0.778155	-0.000021	0.652022
C160	C	0.823156	-0.000012	0.696947
C161	C	0.875508	0.000023	0.674451
H162	H	0.780668	-0.035249	0.629156
H163	H	0.780632	0.035233	0.629160
H164	H	0.820680	-0.035262	0.719800
H165	H	0.820662	0.035213	0.719816
H166	H	0.877986	0.035277	0.651588
H167	H	0.878015	-0.035205	0.651585
H168	H	0.906048	0.000035	0.704928
C169	C	0.566308	-0.433878	0.031952
C170	C	0.536229	-0.475363	0.062039
C171	C	0.501809	-0.443699	0.096431
H172	H	0.589731	-0.409060	0.058328
H173	H	0.539931	-0.409084	0.008492
H174	H	0.562604	-0.500147	0.085497
H175	H	0.512796	-0.500183	0.035678
H176	H	0.475432	-0.418905	0.072971
H177	H	0.525237	-0.418882	0.122804
H178	H	0.481393	-0.471841	0.116845
H179	H	0.574207	-0.000036	0.740136
C180	C	0.256177	-0.000012	0.085292
C181	C	0.290707	0.051971	0.087915
C182	C	0.327557	0.052067	0.139440
H183	H	0.234265	0.000012	0.116574
H184	H	0.279672	-0.035231	0.087178
H185	H	0.267214	0.087180	0.086035
H186	H	0.312631	0.051958	0.056645
H187	H	0.351053	0.016848	0.141325
H188	H	0.305641	0.052090	0.170717
H189	H	0.350994	0.087333	0.141224
H190	H	0.404512	-0.000058	0.017441
H191	H	0.098544	-0.000048	-0.219617
H192	H	0.609991	-0.265202	-0.011784
C193	C	0.831865	-0.000101	0.509534
C194	C	0.877790	-0.000125	0.476996
C195	C	0.929437	-0.000176	0.513658
H196	H	0.833845	0.035126	0.533012
H197	H	0.833769	-0.035355	0.532994
H198	H	0.875887	0.035126	0.453546
H199	H	0.875829	-0.035350	0.453520
H200	H	0.931341	-0.035430	0.537118
H201	H	0.931411	0.035052	0.537134
H202	H	0.960603	-0.000198	0.491586
H203	H	0.734622	-0.265129	-0.136488
C204	C	-0.053692	0.000072	-0.179891
C205	C	-0.020007	0.052068	-0.183343
C206	C	0.002644	0.052218	-0.235613
H207	H	-0.030783	-0.035125	-0.182389
H208	H	-0.084089	0.000112	-0.210512
H209	H	0.010387	0.052023	-0.152730
H210	H	-0.042903	0.087274	-0.180855
H211	H	-0.027754	0.052257	-0.266234
H212	H	0.025550	0.017018	-0.238106
H213	H	0.025497	0.087499	-0.237964
H214	H	0.768992	-0.557698	-0.170850
H215	H	0.762610	-0.000048	0.765821
C216	C	0.744047	-0.726391	-0.145834
C217	C	0.774131	-0.767849	-0.175919
C218	C	0.808549	-0.736156	-0.210310
H219	H	0.720622	-0.701575	-0.172210
H220	H	0.770421	-0.701591	-0.122373
H221	H	0.747760	-0.792639	-0.199377
H222	H	0.797567	-0.792666	-0.149557
H223	H	0.834923	-0.711356	-0.186850
H224	H	0.785120	-0.711342	-0.236683
H225	H	0.828969	-0.764281	-0.230723
C226	C	-0.147980	-0.000114	0.038231
C227	C	-0.103055	-0.000133	0.083232
C228	C	-0.125551	-0.000179	0.135584
H229	H	-0.170844	0.035113	0.040751
H230	H	-0.170844	-0.035369	0.040701
H231	H	-0.080201	0.035118	0.080763
H232	H	-0.080187	-0.035357	0.080730
H233	H	-0.148415	-0.035434	0.138054
H234	H	-0.148415	0.035048	0.138099
H235	H	-0.095074	-0.000198	0.166124
C236	C	-0.024146	0.000011	0.036647
C237	C	0.010385	0.051993	0.039267
C238	C	0.047232	0.052095	0.090795
H239	H	-0.046061	0.000040	0.067927
H240	H	-0.000651	-0.035208	0.038539
H241	H	-0.013107	0.087203	0.037381
H242	H	0.032313	0.051975	0.008000
H243	H	0.070727	0.016875	0.092686
H244	H	0.025312	0.052122	0.122070
H245	H	0.070669	0.087360	0.092577
C246	C	0.783217	-0.000110	0.229227
C247	C	0.829144	-0.000137	0.196691
C248	C	0.880789	-0.000182	0.233355
H249	H	0.785196	0.035120	0.252701
H250	H	0.785122	-0.035362	0.252691
H251	H	0.827241	0.035111	0.173237
H252	H	0.827185	-0.035365	0.173219
H253	H	0.882694	-0.035434	0.256819
H254	H	0.882762	0.035048	0.256827
H255	H	0.911957	-0.000206	0.211285
C256	C	0.132343	-0.000147	0.086883
C257	C	0.177271	-0.000174	0.131881
C258	C	0.154780	-0.000232	0.184236
H259	H	0.109478	0.035079	0.089412
H260	H	0.109479	-0.035403	0.089349
H261	H	0.200124	0.035078	0.129416
H262	H	0.200139	-0.035397	0.129370
H263	H	0.131917	-0.035488	0.186701
H264	H	0.131916	0.034994	0.186759
H265	H	0.185260	-0.000257	0.214773
H266	H	0.512280	-0.000056	0.016146
H267	H	0.526850	-0.000013	0.352066
H268	H	0.525555	-0.000009	0.459814
C269	C	0.566574	-0.000181	0.199853
C270	C	0.563107	-0.052170	0.233542
C271	C	0.510839	-0.052297	0.256197
H272	H	0.564089	0.035021	0.222759
H273	H	0.535951	-0.000214	0.169457
H274	H	0.593722	-0.052132	0.263934
H275	H	0.565582	-0.087381	0.210649
H276	H	0.480216	-0.052330	0.225801
H277	H	0.508359	-0.017093	0.279101
H278	H	0.508478	-0.087574	0.279054
H279	H	-0.167632	-0.000060	-0.164421
H280	H	0.770443	-0.000094	0.111587
H281	H	0.610046	-0.850366	-0.011784
