data_functionalizedCrystal
_audit_creation_method	'MofGen! by Chris Wilmer'
_symmetry_space_group_name_H-M	'P1'
_symmetry_Int_Tables_number	1
_symmetry_cell_setting	triclinic
loop_
_symmetry_equiv_pos_as_xyz
  x,y,z
_cell_length_a	13.339070
_cell_length_b	14.044220
_cell_length_c	11.804365
_cell_angle_alpha	102.927057
_cell_angle_beta	74.875130
_cell_angle_gamma	104.409086
loop_
_atom_site_label
_atom_site_type_symbol
_atom_site_fract_x
_atom_site_fract_y
_atom_site_fract_z
O1	O	1.405383	0.472644	-0.099085
O2	O	1.105089	0.408756	-0.099076
O3	O	1.250726	0.301532	-0.099069
O4	O	1.259745	0.579868	-0.099093
O5	O	1.212382	0.329720	0.098985
O6	O	1.066744	0.436945	0.098978
O7	O	1.367038	0.500832	0.098969
Cu8	Cu	1.213390	0.471462	0.117057
Cu9	Cu	1.258737	0.438126	-0.117165
O10	O	1.221401	0.608057	0.098961
C11	C	1.047253	0.412058	-0.000048
C12	C	0.932048	0.379890	-0.000044
C13	C	0.589834	0.630011	-0.000084
C14	C	0.698075	0.660237	-0.000092
C15	C	0.756574	0.590153	-0.000079
C16	C	0.706820	0.489838	-0.000060
C17	C	0.598569	0.459607	-0.000062
C18	C	0.765309	0.419749	-0.000057
C19	C	0.715555	0.319434	-0.000038
C20	C	0.607315	0.289209	-0.000040
C21	C	0.548817	0.359293	-0.000052
C22	C	0.873560	0.449980	-0.000055
C23	C	0.882295	0.279576	-0.000034
C24	C	0.774054	0.249350	-0.000026
C25	C	1.227608	0.279274	-0.000041
C26	C	1.215837	0.170953	-0.000039
C27	C	1.194321	-0.027371	-0.000056
C28	C	1.277803	-0.063049	-0.000062
C29	C	1.265832	-0.173403	-0.000071
C30	C	1.206291	0.082993	-0.000047
C31	C	1.424874	0.497530	-0.000062
C32	C	1.540081	0.529697	-0.000074
C33	C	1.244520	0.630314	-0.000069
C34	C	1.256292	0.738634	-0.000078
N35	N	1.181503	0.494911	0.281796
N36	N	1.290631	0.414672	-0.281904
C37	C	1.367201	0.358346	0.655754
C38	C	1.391322	0.340602	0.531094
C39	C	1.338869	0.379178	0.468763
C40	C	1.262292	0.435500	0.531106
C41	C	1.238175	0.453251	0.655778
C42	C	1.209842	0.474083	0.468787
C43	C	1.133265	0.530405	0.531129
C44	C	1.109151	0.548153	0.655790
C45	C	1.161604	0.509578	0.718120
C46	C	1.233960	0.456332	0.344115
C47	C	1.104933	0.551237	0.344138
C48	C	1.080812	0.568980	0.468799
H49	H	0.844709	0.614769	-0.000088
O50	O	1.034690	0.602743	0.716479
C51	C	0.867771	0.606136	0.857205
C52	C	0.952027	0.544210	0.788575
H53	H	0.800906	0.558832	0.915492
H54	H	0.905519	0.674724	0.915634
H55	H	0.834476	0.630685	0.791222
H56	H	0.985352	0.519590	0.854472
H57	H	0.914224	0.475671	0.730128
H58	H	1.358282	-0.010728	-0.000144
O59	O	1.362485	0.361982	0.347669
C60	C	1.497252	0.382229	0.168739
C61	C	1.470657	0.401757	0.305882
H62	H	1.584702	0.414395	0.134913
H63	H	1.480151	0.298458	0.134846
H64	H	1.446558	0.419437	0.134927
H65	H	1.521332	0.364610	0.339796
H66	H	1.487728	0.485540	0.339694
H67	H	1.141963	0.524020	0.819629
O68	O	1.098352	-0.089784	-0.000261
C69	C	0.955240	-0.158373	-0.102810
C70	C	1.063931	-0.087660	-0.102745
H71	H	0.927366	-0.156663	-0.185646
H72	H	0.962521	-0.237567	-0.102891
H73	H	0.895327	-0.133184	-0.019880
H74	H	1.123901	-0.112758	-0.185661
H75	H	1.056564	-0.008481	-0.102601
O76	O	1.308200	0.401443	0.283658
C77	C	1.361036	0.243189	0.245721
C78	C	1.276869	0.305253	0.314212
H79	H	1.335746	0.165415	0.270417
H80	H	1.369295	0.237002	0.145886
H81	H	1.440426	0.281240	0.270216
H82	H	1.197433	0.267253	0.289816
H83	H	1.268702	0.311445	0.414029
O84	O	1.465522	0.285628	0.470785
C85	C	1.518100	0.127294	0.433320
C86	C	1.434005	0.189511	0.501548
H87	H	1.492660	0.049578	0.458186
H88	H	1.526472	0.120974	0.333446
H89	H	1.597472	0.165305	0.457882
H90	H	1.354587	0.151550	0.477086
H91	H	1.425725	0.195835	0.601406
H92	H	1.409908	0.326949	0.706512
O93	O	1.006493	0.623711	0.529549
C94	C	0.912118	0.693058	0.721619
C95	C	0.996323	0.631080	0.652969
H96	H	0.903853	0.699018	0.821416
H97	H	0.937358	0.770927	0.697189
H98	H	0.832744	0.655049	0.697060
H99	H	1.075726	0.669002	0.677490
H100	H	0.970994	0.553213	0.677404
H101	H	1.062223	0.582651	0.293390
H102	H	0.738579	0.741912	-0.000116
O103	O	0.922058	0.547372	-0.000125
C104	C	1.084923	0.669478	-0.000072
C105	C	1.030139	0.559139	-0.000020
H106	H	1.172310	0.679031	0.000039
H107	H	1.077612	0.693776	-0.082985
H108	H	1.045376	0.717329	0.082786
H109	H	1.069647	0.511211	-0.082821
H110	H	1.037441	0.534922	0.082948
H111	H	0.542197	0.687061	-0.000104
O112	O	0.559138	0.191732	0.000024
C113	C	0.579243	0.025896	-0.000022
C114	C	0.633927	0.136259	-0.000067
H115	H	0.639689	-0.018990	-0.000122
H116	H	0.512761	0.019229	0.082882
H117	H	0.544799	-0.004268	-0.082888
H118	H	0.668434	0.166493	0.082742
H119	H	0.700355	0.142859	-0.083027
H120	H	0.460677	0.334688	-0.000045
H121	H	0.733530	0.167670	-0.000021
O122	O	0.939250	0.211557	-0.000179
C123	C	1.086367	0.132148	-0.102810
C124	C	1.021965	0.209218	-0.102774
H125	H	1.153242	0.130217	-0.185761
H126	H	1.121293	0.153834	-0.019979
H127	H	1.032184	0.055276	-0.102749
H128	H	1.076078	0.286117	-0.102876
H129	H	0.987025	0.187447	-0.185597
