data_functionalizedCrystal
_audit_creation_method	'MofGen! by Chris Wilmer'
_symmetry_space_group_name_H-M	'P1'
_symmetry_Int_Tables_number	1
_symmetry_cell_setting	triclinic
loop_
_symmetry_equiv_pos_as_xyz
  x,y,z
_cell_length_a	18.215407
_cell_length_b	18.215404
_cell_length_c	18.215399
_cell_angle_alpha	89.972485
_cell_angle_beta	89.981439
_cell_angle_gamma	90.015559
loop_
_atom_site_label
_atom_site_type_symbol
_atom_site_fract_x
_atom_site_fract_y
_atom_site_fract_z
Zn1	Zn	-1.125077	0.293154	0.416093
Zn2	Zn	-0.875077	0.543154	0.666093
Zn3	Zn	-0.625077	0.793154	0.916093
Zn4	Zn	-0.375077	1.043154	1.166093
Zn5	Zn	-1.124988	0.416225	0.293028
Zn6	Zn	-0.874988	0.666225	0.543028
Zn7	Zn	-0.624988	0.916225	0.793028
Zn8	Zn	-0.374988	1.166225	1.043028
Zn9	Zn	-1.002010	0.293159	0.293043
Zn10	Zn	-0.752010	0.543159	0.543043
Zn11	Zn	-0.502010	0.793159	0.793043
Zn12	Zn	-0.252010	1.043159	1.043043
Zn13	Zn	-1.001978	0.416166	0.416055
Zn14	Zn	-0.751978	0.666166	0.666055
Zn15	Zn	-0.501978	0.916166	0.916055
Zn16	Zn	-0.251978	1.166166	1.166055
O17	O	-1.063513	0.354676	0.354555
O18	O	-0.813513	0.604676	0.604555
O19	O	-0.563513	0.854676	0.854555
O20	O	-0.313513	1.104676	1.104555
O21	O	-1.228050	0.309503	0.399777
O22	O	-0.978050	0.559503	0.649777
O23	O	-0.728050	0.809503	0.899777
O24	O	-0.478050	1.059503	1.149777
O25	O	-1.108651	0.399928	0.190045
O26	O	-0.858651	0.649928	0.440045
O27	O	-0.608651	0.899928	0.690045
O28	O	-0.358651	1.149928	0.940045
O29	O	-1.018386	0.190174	0.309388
O30	O	-0.768386	0.440174	0.559388
O31	O	-0.518386	0.690174	0.809388
O32	O	-0.268386	0.940174	1.059388
O33	O	-1.227984	0.399922	0.309362
O34	O	-0.977984	0.649922	0.559362
O35	O	-0.727984	0.899922	0.809362
O36	O	-0.477984	1.149922	1.059362
O37	O	-1.108803	0.190171	0.399792
O38	O	-0.858803	0.440171	0.649792
O39	O	-0.608803	0.690171	0.899792
O40	O	-0.358803	0.940171	1.149792
O41	O	-1.018299	0.309512	0.190057
O42	O	-0.768299	0.559512	0.440057
O43	O	-0.518299	0.809512	0.690057
O44	O	-0.268299	1.059512	0.940057
O45	O	-0.899021	0.309454	0.309352
O46	O	-0.649021	0.559454	0.559352
O47	O	-0.399021	0.809454	0.809352
O48	O	-0.149021	1.059454	1.059352
O49	O	-1.018331	0.399821	0.519045
O50	O	-0.768331	0.649821	0.769045
O51	O	-0.518331	0.899821	1.019045
O52	O	-0.268331	1.149821	1.269045
O53	O	-0.898998	0.399826	0.399728
O54	O	-0.648998	0.649826	0.649728
O55	O	-0.398998	0.899826	0.899728
O56	O	-0.148998	1.149826	1.149728
O57	O	-1.108772	0.309445	0.519072
O58	O	-0.858772	0.559445	0.769072
O59	O	-0.608772	0.809445	1.019072
O60	O	-0.358772	1.059445	1.269072
O61	O	-1.108620	0.519202	0.309325
O62	O	-0.858620	0.769202	0.559325
O63	O	-0.608620	1.019202	0.809325
O64	O	-0.358620	1.269202	1.059325
O65	O	-1.018245	0.519158	0.399713
O66	O	-0.768245	0.769158	0.649713
O67	O	-0.518245	1.019158	0.899713
O68	O	-0.268245	1.269158	1.149713
C69	C	-0.872307	0.354634	0.354538
C70	C	-0.622307	0.604634	0.604538
C71	C	-0.372307	0.854634	0.854538
C72	C	-0.122307	1.104634	1.104538
C73	C	-0.790508	0.354634	0.354548
C74	C	-0.540508	0.604634	0.604548
C75	C	-0.290508	0.854634	0.854548
C76	C	-0.040508	1.104634	1.104548
C77	C	-1.063439	0.545882	0.354530
C78	C	-0.813439	0.795882	0.604530
C79	C	-0.563439	1.045882	0.854530
C80	C	-0.313439	1.295882	1.104530
C81	C	-1.063475	0.627681	0.354543
C82	C	-0.813475	0.877681	0.604543
C83	C	-0.563475	1.127681	0.854543
C84	C	-0.313475	1.377681	1.104543
C85	C	-1.063558	0.354625	0.546508
C86	C	-0.813558	0.604625	0.796508
C87	C	-0.563558	0.854625	1.046508
C88	C	-0.313558	1.104625	1.296508
C89	C	-1.063577	0.354604	0.628307
C90	C	-0.813577	0.604604	0.878307
C91	C	-0.563577	0.854604	1.128307
C92	C	-0.313577	1.104604	1.378307
C93	C	-0.525479	0.307659	0.401702
C94	C	-0.275479	0.557659	0.651702
C95	C	-0.025479	0.807659	0.901702
C96	C	0.224521	1.057659	1.151702
C97	C	-0.602338	0.307651	0.401701
C98	C	-0.352338	0.557651	0.651701
C99	C	-0.102338	0.807651	0.901701
C100	C	0.147662	1.057651	1.151701
C101	C	-0.602289	0.401669	0.307410
C102	C	-0.352289	0.651669	0.557410
C103	C	-0.102289	0.901669	0.807410
C104	C	0.147711	1.151669	1.057410
C105	C	-0.525431	0.401680	0.307416
C106	C	-0.275431	0.651680	0.557416
C107	C	-0.025431	0.901680	0.807416
C108	C	0.224569	1.151680	1.057416
C109	C	-0.487029	0.354671	0.354561
C110	C	-0.237029	0.604671	0.604561
C111	C	0.012971	0.854671	0.854561
C112	C	0.262971	1.104671	1.104561
C113	C	-0.640745	0.354651	0.354554
C114	C	-0.390745	0.604651	0.604554
C115	C	-0.140745	0.854651	0.854554
C116	C	0.109255	1.104651	1.104554
C117	C	-0.724078	0.354643	0.354552
C118	C	-0.474078	0.604643	0.604552
C119	C	-0.224078	0.854643	0.854552
C120	C	0.025922	1.104643	1.104552
C121	C	-0.403690	0.354680	0.354564
C122	C	-0.153690	0.604680	0.604564
C123	C	0.096310	0.854680	0.854564
C124	C	0.346310	1.104680	1.104564
C125	C	-0.255466	0.354706	0.354569
C126	C	-0.005466	0.604706	0.604569
C127	C	0.244534	0.854706	0.854569
C128	C	0.494534	1.104706	1.104569
C129	C	-0.337265	0.354688	0.354567
C130	C	-0.087265	0.604688	0.604567
C131	C	0.162735	0.854688	0.854567
C132	C	0.412735	1.104688	1.104567
C133	C	-1.110647	0.815874	0.307575
C134	C	-0.860647	1.065874	0.557575
C135	C	-0.610647	1.315874	0.807575
C136	C	-0.360647	1.565874	1.057575
C137	C	-1.110681	0.892732	0.307597
C138	C	-0.860681	1.142732	0.557597
C139	C	-0.610681	1.392732	0.807597
C140	C	-0.360681	1.642732	1.057597
C141	C	-1.016492	0.892727	0.401641
C142	C	-0.766492	1.142727	0.651641
C143	C	-0.516492	1.392727	0.901641
C144	C	-0.266492	1.642727	1.151641
C145	C	-1.016462	0.815869	0.401622
C146	C	-0.766462	1.065869	0.651622
C147	C	-0.516462	1.315869	0.901622
C148	C	-0.266462	1.565869	1.151622
C149	C	-1.063538	0.777445	0.354585
C150	C	-0.813538	1.027445	0.604585
C151	C	-0.563538	1.277445	0.854585
C152	C	-0.313538	1.527445	1.104585
C153	C	-1.063603	0.931161	0.354625
C154	C	-0.813603	1.181161	0.604625
C155	C	-0.563603	1.431161	0.854625
C156	C	-0.313603	1.681161	1.104625
C157	C	-1.063640	1.014494	0.354650
C158	C	-0.813640	1.264494	0.604650
C159	C	-0.563640	1.514494	0.854650
C160	C	-0.313640	1.764494	1.104650
C161	C	-1.063503	0.694106	0.354562
C162	C	-0.813503	0.944106	0.604562
C163	C	-0.563503	1.194106	0.854562
C164	C	-0.313503	1.444106	1.104562
C165	C	-1.063612	1.162723	0.354610
C166	C	-0.813612	1.412723	0.604610
C167	C	-0.563612	1.662723	0.854610
C168	C	-0.313612	1.912723	1.104610
C169	C	-1.063667	1.080924	0.354667
C170	C	-0.813667	1.330924	0.604667
C171	C	-0.563667	1.580924	0.854667
C172	C	-0.313667	1.830924	1.104667
C173	C	-1.063511	0.354674	0.163349
C174	C	-0.813511	0.604674	0.413349
C175	C	-0.563511	0.854674	0.663349
C176	C	-0.313511	1.104674	0.913349
C177	C	-1.063635	0.354488	0.081550
C178	C	-0.813635	0.604488	0.331550
C179	C	-0.563635	0.854488	0.581550
C180	C	-0.313635	1.104488	0.831550
C181	C	-1.110687	0.307501	0.816516
C182	C	-0.860687	0.557501	1.066516
C183	C	-0.610687	0.807501	1.316516
C184	C	-0.360687	1.057501	1.566516
C185	C	-1.110695	0.307480	0.893375
C186	C	-0.860695	0.557480	1.143375
C187	C	-0.610695	0.807480	1.393375
C188	C	-0.360695	1.057480	1.643375
C189	C	-1.016520	0.401593	0.893335
C190	C	-0.766520	0.651593	1.143335
C191	C	-0.516520	0.901593	1.393335
C192	C	-0.266520	1.151593	1.643335
C193	C	-1.016508	0.401610	0.816478
C194	C	-0.766508	0.651610	1.066478
C195	C	-0.516508	0.901610	1.316478
C196	C	-0.266508	1.151610	1.566478
C197	C	-1.063596	0.354565	0.778070
C198	C	-0.813596	0.604565	1.028070
C199	C	-0.563596	0.854565	1.278070
C200	C	-0.313596	1.104565	1.528070
C201	C	-1.063616	0.354527	0.931786
C202	C	-0.813616	0.604527	1.181786
C203	C	-0.563616	0.854527	1.431786
C204	C	-0.313616	1.104527	1.681786
C205	C	-1.063625	0.354504	1.015120
C206	C	-0.813625	0.604504	1.265120
C207	C	-0.563625	0.854504	1.515120
C208	C	-0.313625	1.104504	1.765120
C209	C	-1.063586	0.354587	0.694731
C210	C	-0.813586	0.604587	0.944731
C211	C	-0.563586	0.854587	1.194731
C212	C	-0.313586	1.104587	1.444731
H213	H	-0.633641	0.269370	0.440089
H214	H	-0.383641	0.519370	0.690089
H215	H	-0.133641	0.769370	0.940089
H216	H	0.116359	1.019370	1.190089
H217	H	-0.978156	0.439935	0.785174
H218	H	-0.728156	0.689935	1.035174
H219	H	-0.478156	0.939935	1.285174
H220	H	-0.228156	1.189935	1.535174
C221	C	-0.483133	0.453394	0.255556
C222	C	-0.233133	0.703394	0.505556
C223	C	0.016867	0.953394	0.755556
C224	C	0.266867	1.203394	1.005556
H225	H	-0.517011	0.481382	0.227470
H226	H	-0.267011	0.731382	0.477470
H227	H	-0.017011	0.981382	0.727470
H228	H	0.232989	1.231382	0.977470
H229	H	-0.453157	0.485497	0.283656
H230	H	-0.203157	0.735497	0.533656
H231	H	0.046843	0.985497	0.783656
H232	H	0.296843	1.235497	1.033656
H233	H	-0.453143	0.425201	0.223540
H234	H	-0.203143	0.675201	0.473540
H235	H	0.046857	0.925201	0.723540
H236	H	0.296857	1.175201	0.973540
C237	C	-1.162428	0.773605	0.255839
C238	C	-0.912428	1.023605	0.505839
C239	C	-0.662428	1.273605	0.755839
C240	C	-0.412428	1.523605	1.005839
H241	H	-1.155658	0.722328	0.262553
H242	H	-0.905658	0.972328	0.512553
H243	H	-0.655658	1.222328	0.762553
H244	H	-0.405658	1.472328	1.012553
H245	H	-1.211874	0.786158	0.266655
H246	H	-0.961874	1.036158	0.516655
H247	H	-0.711874	1.286158	0.766655
H248	H	-0.461874	1.536158	1.016655
H249	H	-1.151685	0.786248	0.206384
H250	H	-0.901685	1.036248	0.456384
H251	H	-0.651685	1.286248	0.706384
H252	H	-0.401685	1.536248	0.956384
C253	C	-0.483238	0.255961	0.453568
C254	C	-0.233238	0.505961	0.703568
C255	C	0.016762	0.755961	0.953568
C256	C	0.266762	1.005961	1.203568
H257	H	-0.517149	0.227967	0.481648
H258	H	-0.267149	0.477967	0.731648
H259	H	-0.017149	0.727967	0.981648
H260	H	0.232851	0.977967	1.231648
H261	H	-0.453247	0.223863	0.425478
H262	H	-0.203247	0.473863	0.675478
H263	H	0.046753	0.723863	0.925478
H264	H	0.296753	0.973863	1.175478
H265	H	-0.453268	0.284164	0.485589
H266	H	-0.203268	0.534164	0.735589
H267	H	0.046732	0.784164	0.985589
H268	H	0.296732	1.034164	1.235589
C269	C	-0.644534	0.453367	0.255548
C270	C	-0.394534	0.703367	0.505548
C271	C	-0.144534	0.953367	0.755548
C272	C	0.105466	1.203367	1.005548
H273	H	-0.695815	0.446622	0.262290
H274	H	-0.445815	0.696622	0.512290
H275	H	-0.195815	0.946622	0.762290
H276	H	0.054185	1.196622	1.012290
H277	H	-0.631939	0.502830	0.266232
H278	H	-0.381939	0.752830	0.516232
H279	H	-0.131939	1.002830	0.766232
H280	H	0.118061	1.252830	1.016232
H281	H	-0.631918	0.442530	0.206119
H282	H	-0.381918	0.692530	0.456119
H283	H	-0.131918	0.942530	0.706119
H284	H	0.118082	1.192530	0.956119
H285	H	-1.149043	0.924018	0.269318
H286	H	-0.899043	1.174018	0.519318
H287	H	-0.649043	1.424018	0.769318
H288	H	-0.399043	1.674018	1.019318
H289	H	-0.978164	0.924021	0.439935
H290	H	-0.728164	1.174021	0.689935
H291	H	-0.478164	1.424021	0.939935
H292	H	-0.228164	1.674021	1.189935
H293	H	-1.149026	0.269192	0.785247
H294	H	-0.899026	0.519192	1.035247
H295	H	-0.649026	0.769192	1.285247
H296	H	-0.399026	1.019192	1.535247
H297	H	-1.149040	0.269154	0.924675
H298	H	-0.899040	0.519154	1.174675
H299	H	-0.649040	0.769154	1.424675
H300	H	-0.399040	1.019154	1.674675
C301	C	-0.964639	0.773595	0.453334
C302	C	-0.714639	1.023595	0.703334
C303	C	-0.464639	1.273595	0.953334
C304	C	-0.214639	1.523595	1.203334
H305	H	-0.936600	0.807485	0.481343
H306	H	-0.686600	1.057485	0.731343
H307	H	-0.436600	1.307485	0.981343
H308	H	-0.186600	1.557485	1.231343
H309	H	-0.992760	0.743570	0.485417
H310	H	-0.742760	0.993570	0.735417
H311	H	-0.492760	1.243570	0.985417
H312	H	-0.242760	1.493570	1.235417
H313	H	-0.932578	0.743655	0.425139
H314	H	-0.682578	0.993655	0.675139
H315	H	-0.432578	1.243655	0.925139
H316	H	-0.182578	1.493655	1.175139
C317	C	-0.964735	0.453344	0.935585
C318	C	-0.714735	0.703344	1.185585
C319	C	-0.464735	0.953344	1.435585
C320	C	-0.214735	1.203344	1.685585
H321	H	-0.971491	0.446600	0.986866
H322	H	-0.721491	0.696600	1.236866
H323	H	-0.471491	0.946600	1.486866
H324	H	-0.221491	1.196600	1.736866
H325	H	-0.915290	0.442571	0.922986
H326	H	-0.665290	0.692571	1.172986
H327	H	-0.415290	0.942571	1.422986
H328	H	-0.165290	1.192571	1.672986
H329	H	-0.975488	0.502798	0.922977
H330	H	-0.725488	0.752798	1.172977
H331	H	-0.475488	1.002798	1.422977
H332	H	-0.225488	1.252798	1.672977
