data_functionalizedCrystal
_audit_creation_method	'MofGen! by Chris Wilmer'
_symmetry_space_group_name_H-M	'P1'
_symmetry_Int_Tables_number	1
_symmetry_cell_setting	triclinic
loop_
_symmetry_equiv_pos_as_xyz
  x,y,z
_cell_length_a	12.594517
_cell_length_b	13.032721
_cell_length_c	13.033429
_cell_angle_alpha	89.068252
_cell_angle_beta	97.160047
_cell_angle_gamma	97.204386
loop_
_atom_site_label
_atom_site_type_symbol
_atom_site_fract_x
_atom_site_fract_y
_atom_site_fract_z
Zn1	Zn	1.501909	-0.335506	-0.633494
Zn2	Zn	2.001909	0.164494	-0.133494
Zn3	Zn	1.496124	-0.529360	-0.483356
Zn4	Zn	1.996124	-0.029360	0.016644
Zn5	Zn	1.343317	-0.357403	-0.461539
Zn6	Zn	1.843317	0.142597	0.038461
Zn7	Zn	1.298824	-0.507440	-0.655268
Zn8	Zn	1.798824	-0.007440	-0.155268
O9	O	1.410044	-0.432427	-0.558414
O10	O	1.910044	0.067573	-0.058414
O11	O	1.650084	-0.361230	-0.613596
O12	O	2.150084	0.138770	-0.113596
O13	O	1.492054	-0.524887	-0.336552
O14	O	1.992054	-0.024887	0.163448
O15	O	1.385397	-0.210579	-0.466107
O16	O	1.885397	0.289421	0.033893
O17	O	1.645834	-0.503654	-0.503290
O18	O	2.145834	-0.003654	-0.003290
O19	O	1.501914	-0.194491	-0.592441
O20	O	2.001914	0.305509	-0.092441
O21	O	1.379787	-0.398551	-0.320524
O22	O	1.879787	0.101449	0.179476
O23	O	1.188473	-0.377297	-0.487220
O24	O	1.688473	0.122703	0.012780
O25	O	1.309564	-0.466295	-0.796289
O26	O	1.809564	0.033705	-0.296289
O27	O	1.155784	-0.487528	-0.629551
O28	O	1.655784	0.012472	-0.129551
O29	O	1.458770	-0.339976	-0.780292
O30	O	1.958770	0.160024	-0.280292
O31	O	1.448910	-0.670372	-0.524403
O32	O	1.948910	-0.170372	-0.024403
O33	O	1.303954	-0.654268	-0.650706
O34	O	1.803954	-0.154268	-0.150706
C35	C	1.371003	-0.699634	-0.592307
C36	C	1.871003	-0.199634	-0.092307
C37	C	1.354394	-0.813941	-0.606841
C38	C	1.854394	-0.313941	-0.106841
C39	C	1.133509	-0.432411	-0.558381
C40	C	1.633509	0.067589	-0.058381
C41	C	1.015200	-0.432425	-0.558395
C42	C	1.515200	0.067575	-0.058395
C43	C	1.418763	-0.872831	-0.550875
C44	C	1.918763	-0.372831	-0.050875
C45	C	1.401599	-0.990974	-0.565895
C46	C	1.901599	-0.490974	-0.065895
C47	C	0.963695	-0.372360	-0.481100
C48	C	1.463695	0.127640	0.018900
C49	C	0.882056	-0.469385	-0.467710
C50	C	1.382056	0.030615	0.032290
C51	C	0.886031	-0.335444	-0.571808
C52	C	1.386031	0.164556	-0.071808
C53	C	0.935118	-0.529506	-0.544962
C54	C	1.435118	-0.029506	-0.044962
C55	C	0.939104	-0.395496	-0.649096
C56	C	1.439104	0.104504	-0.149096
C57	C	0.857484	-0.492581	-0.635750
C58	C	1.357484	0.007419	-0.135750
C59	C	1.687658	-0.432445	-0.558448
C60	C	2.187658	0.067555	-0.058448
C61	C	1.805961	-0.432452	-0.558462
C62	C	2.305961	0.067548	-0.058462
C63	C	1.379849	-0.398248	-0.826648
C64	C	1.879849	0.101752	-0.326648
C65	C	1.366982	-0.383683	-0.940953
C66	C	1.866982	0.116317	-0.440953
C67	C	1.449264	-0.164175	-0.524412
C68	C	1.949264	0.335825	-0.024412
C69	C	1.465977	-0.049862	-0.509922
C70	C	1.965977	0.450138	-0.009922
C71	C	1.403499	-0.424659	-1.117983
C72	C	1.903499	0.075341	-0.617983
C73	C	1.416799	-0.439707	-0.999842
C74	C	1.916799	0.060293	-0.499842
C75	C	1.440193	-0.466400	-0.291215
C76	C	1.940193	0.033600	0.208785
C77	C	1.453309	-0.480675	-0.176873
C78	C	1.953309	0.019325	0.323127
H79	H	1.486583	-0.835786	-0.491844
H80	H	1.986583	-0.335786	0.008156
Br81	Br	1.288567	-1.052704	-0.664307
Br82	Br	1.788567	-0.552704	-0.164307
H83	H	1.505804	-0.539770	-1.139828
H84	H	2.005804	-0.039770	-0.639828
H85	H	1.469297	-0.498806	-0.962801
H86	H	1.969297	0.001194	-0.462801
Br87	Br	1.241367	-0.875676	-0.705248
Br88	Br	1.741367	-0.375676	-0.205248
H89	H	1.314494	-0.324574	-0.977991
H90	H	1.814494	0.175426	-0.477991
Br91	Br	1.040450	-0.287803	-0.372052
Br92	Br	1.540450	0.212197	0.127948
Br93	Br	1.579025	-0.988132	-0.411526
Br94	Br	2.079025	-0.488132	0.088474
H95	H	0.956912	-0.611568	-0.533559
H96	H	1.456912	-0.111568	-0.033559
Br97	Br	0.839905	-0.521478	-0.339918
Br98	Br	1.339905	-0.021478	0.160082
Br99	Br	0.781028	-0.577368	-0.744763
Br100	Br	1.281028	-0.077368	-0.244763
Br101	Br	0.981303	-0.343367	-0.776851
Br102	Br	1.481303	0.156633	-0.276851
Br103	Br	0.849488	-0.198730	-0.590669
Br104	Br	1.349488	0.301270	-0.090669
Br105	Br	1.316018	-0.326144	-1.179714
Br106	Br	1.816018	0.173856	-0.679714
