data_functionalizedCrystal
_audit_creation_method	'MofGen! by Chris Wilmer'
_symmetry_space_group_name_H-M	'P1'
_symmetry_Int_Tables_number	1
_symmetry_cell_setting	triclinic
loop_
_symmetry_equiv_pos_as_xyz
  x,y,z
_cell_length_a	11.792241
_cell_length_b	17.699083
_cell_length_c	16.776229
_cell_angle_alpha	89.991718
_cell_angle_beta	89.996975
_cell_angle_gamma	96.261785
loop_
_atom_site_label
_atom_site_type_symbol
_atom_site_fract_x
_atom_site_fract_y
_atom_site_fract_z
O1	O	1.505659	-0.103739	0.066213
O2	O	1.175190	-0.114431	0.066231
O3	O	1.349761	0.001054	0.066214
O4	O	1.331088	-0.219224	0.066229
O5	O	1.349758	0.001065	-0.066362
O6	O	1.175187	-0.114420	-0.066345
O7	O	1.505656	-0.103729	-0.066364
Zn8	Zn	1.340421	-0.109073	-0.087404
Zn9	Zn	1.340425	-0.109087	0.087271
O10	O	1.331085	-0.219214	-0.066347
C11	C	1.132906	-0.113754	-0.000055
C12	C	1.006916	-0.111744	-0.000048
N13	N	1.340429	-0.109090	0.206483
C14	C	1.349091	0.029260	-0.000074
C15	C	1.347083	0.113289	-0.000074
C16	C	0.776248	-0.108048	-0.000071
C17	C	0.904609	-0.110101	-0.000058
C18	C	1.547941	-0.104406	-0.000076
C19	C	1.673930	-0.106416	-0.000078
C20	C	1.331756	-0.247420	-0.000057
C21	C	1.333763	-0.331449	-0.000051
C22	C	1.449553	0.161364	-0.000081
C23	C	1.447660	0.240317	-0.000074
C24	C	1.343297	0.271194	-0.000066
C25	C	1.240819	0.223113	-0.000056
C26	C	1.242713	0.144161	-0.000058
C27	C	1.233178	0.541517	-0.000049
C28	C	1.231292	0.620475	-0.000050
C29	C	1.438126	0.637673	-0.000066
C30	C	1.440020	0.558721	-0.000067
C31	C	1.337543	0.510647	-0.000054
C32	C	1.339596	0.425037	-0.000060
C33	C	1.341242	0.356803	-0.000065
N34	N	1.340427	-0.109063	-0.206615
C35	C	1.417872	-0.058056	0.248192
C36	C	1.417876	-0.058054	0.331644
C37	C	1.340431	-0.109084	0.373385
C38	C	1.262984	-0.160124	0.331670
C39	C	1.262986	-0.160129	0.248219
C40	C	1.262975	-0.160106	0.668217
C41	C	1.262977	-0.160095	0.751674
C42	C	1.417866	-0.058030	0.751642
C43	C	1.417868	-0.058035	0.668192
C44	C	1.340425	-0.109078	0.626483
C45	C	1.340423	-0.109080	0.535995
C46	C	1.340427	-0.109078	0.463872
H47	H	1.534538	0.136230	-0.000093
N48	N	1.183847	-0.212228	0.625626
N49	N	1.113546	-0.187810	0.579059
H50	H	1.057653	-0.224623	0.548978
H51	H	1.199930	-0.201677	0.365660
N52	N	1.552341	0.289413	-0.000073
N53	N	1.645515	0.261835	-0.000082
H54	H	1.719452	0.296509	-0.000079
N55	N	1.546634	0.527194	-0.000083
N56	N	1.638120	0.570128	-0.000089
H57	H	1.713420	0.547864	-0.000098
H58	H	1.521567	0.676825	-0.000073
N59	N	1.496978	-0.005936	0.205546
N60	N	1.496971	-0.005944	0.131037
H61	H	1.552842	0.030866	0.100919
N62	N	1.124671	0.652004	-0.000046
N63	N	1.033183	0.609073	-0.000036
H64	H	0.957885	0.631340	-0.000035
H65	H	1.480928	-0.016471	0.785610
H66	H	1.480927	-0.016480	0.634209
H67	H	1.149735	0.502384	-0.000039
N68	N	1.183873	-0.212266	0.205624
N69	N	1.114729	-0.257824	0.242899
H70	H	1.058855	-0.294650	0.212818
H71	H	1.159272	0.105019	-0.000052
N72	N	1.134225	0.254666	-0.000056
N73	N	1.110100	0.296811	-0.055941
H74	H	1.034816	0.319096	-0.055945
N75	N	1.497135	-0.006015	0.374237
N76	N	1.566368	0.039481	0.336959
H77	H	1.622403	0.076199	0.367039
N78	N	1.183855	-0.212228	0.794300
N79	N	1.114716	-0.257797	0.757053
H80	H	1.058837	-0.294613	0.787157
