data_functionalizedCrystal
_audit_creation_method	'MofGen! by Chris Wilmer'
_symmetry_space_group_name_H-M	'P1'
_symmetry_Int_Tables_number	1
_symmetry_cell_setting	triclinic
loop_
_symmetry_equiv_pos_as_xyz
  x,y,z
_cell_length_a	6.817900
_cell_length_b	9.170285
_cell_length_c	9.514088
_cell_angle_alpha	80.288326
_cell_angle_beta	118.843545
_cell_angle_gamma	112.460155
loop_
_atom_site_label
_atom_site_type_symbol
_atom_site_fract_x
_atom_site_fract_y
_atom_site_fract_z
V1	V	-4.242798	-0.218426	-0.469790
O2	O	-4.200475	0.007653	-0.492295
O3	O	-4.217577	-0.430366	-0.436331
O4	O	-4.277331	-0.216313	-0.688481
O5	O	-4.140308	-0.207882	-0.238400
V6	V	-4.712676	-0.191237	-0.445788
O7	O	-4.533987	-0.278067	-0.522440
O8	O	-4.871684	-0.131595	-0.393138
O9	O	-4.514690	0.020704	-0.479247
O10	O	-4.872396	-0.417315	-0.423283
O11	O	-4.932563	-0.201780	-0.677178
O12	O	-4.454936	-0.193349	-0.227098
C13	C	-4.065534	-0.481994	-0.421116
C14	C	-4.126753	-0.655266	-0.395217
C15	C	-4.141753	-0.208946	-0.742756
C16	C	-4.251424	-0.208622	-0.921338
C17	C	-4.330075	0.072324	-0.494457
C18	C	-4.248098	0.245594	-0.520366
C19	C	-4.253853	-0.200721	-0.172814
C20	C	-4.123419	-0.201038	0.005769
H21	H	-4.069752	-0.702961	-0.268287
O22	O	-4.482413	-0.216354	-1.009809
C23	C	-4.632828	-0.356920	-0.975750
H24	H	-4.539084	-0.447302	-0.927167
H25	H	-4.675243	-0.331296	-0.882305
C26	C	-4.981606	-0.311982	-1.190071
C27	C	-4.866476	-0.422995	-1.130414
H28	H	-5.125736	-0.352739	-1.285472
H29	H	-4.880271	-0.217277	-1.213014
H30	H	-5.016930	-0.290639	-1.112186
H31	H	-4.831127	-0.444322	-1.208290
H32	H	-4.967811	-0.517706	-1.107487
O33	O	-4.316003	-0.697267	-0.671685
C34	C	-4.237588	-0.531171	-0.664676
H35	H	-4.209354	-0.492045	-0.546734
H36	H	-4.062120	-0.479050	-0.672270
C37	C	-4.461778	-0.521051	-0.950941
C38	C	-4.427120	-0.472996	-0.806088
H39	H	-4.578683	-0.485163	-1.038173
H40	H	-4.514602	-0.632952	-0.955665
H41	H	-4.315541	-0.477613	-0.957246
H42	H	-4.573348	-0.516450	-0.799776
H43	H	-4.374326	-0.361100	-0.801366
O44	O	-3.892473	-0.193391	-0.905859
C45	C	-3.741996	-0.052792	-0.939823
H46	H	-3.848787	-0.009511	-1.062855
H47	H	-3.666408	0.040988	-0.844599
C48	C	-3.404313	-0.137516	-0.788251
C49	C	-3.535471	-0.084365	-0.939367
H50	H	-3.276912	-0.156988	-0.787963
H51	H	-3.505689	-0.232238	-0.765363
H52	H	-3.341346	-0.059358	-0.708914
H53	H	-3.598461	-0.162531	-1.018698
H54	H	-3.434101	0.010343	-0.962269
