data_functionalizedCrystal
_audit_creation_method	'MofGen! by Chris Wilmer'
_symmetry_space_group_name_H-M	'P1'
_symmetry_Int_Tables_number	1
_symmetry_cell_setting	triclinic
loop_
_symmetry_equiv_pos_as_xyz
  x,y,z
_cell_length_a	26.210047
_cell_length_b	10.540539
_cell_length_c	10.540539
_cell_angle_alpha	84.525492
_cell_angle_beta	90.006695
_cell_angle_gamma	89.992938
loop_
_atom_site_label
_atom_site_type_symbol
_atom_site_fract_x
_atom_site_fract_y
_atom_site_fract_z
O1	O	0.042402	-1.685898	-0.178882
O2	O	0.042408	-1.316484	-0.195738
O3	O	0.042405	-1.509619	-0.002604
O4	O	0.042406	-1.492763	-0.372017
O5	O	-0.042453	-1.509582	-0.002634
O6	O	-0.042450	-1.316447	-0.195768
O7	O	-0.042456	-1.685860	-0.178912
Cu8	Cu	-0.050201	-1.501150	-0.187343
Cu9	Cu	0.050154	-1.501194	-0.187308
O10	O	-0.042452	-1.492726	-0.372047
C11	C	-0.000020	-1.269163	-0.194489
C12	C	-0.000017	-1.128215	-0.190707
N13	N	-0.120785	-1.501128	-0.187367
C14	C	-0.000024	-1.508336	0.044684
C15	C	-0.000021	-1.504554	0.185632
C16	C	-0.473301	-1.586706	-0.101807
C17	C	-0.686959	-1.586733	-0.101790
O18	O	-0.714583	-1.659446	-0.029048
N19	N	-0.713679	-1.501201	-0.187280
C20	C	-0.686980	-1.415650	-0.272775
O21	O	-0.714610	-1.342891	-0.345480
C22	C	-0.473323	-1.415617	-0.272785
C23	C	-0.446606	-1.501164	-0.187298
C24	C	-0.446584	-1.672245	-0.016326
C25	C	-0.393172	-1.672242	-0.016336
C26	C	-0.366478	-1.586699	-0.101827
C27	C	-0.393195	-1.501160	-0.187308
C28	C	-0.446625	-1.330060	-0.358273
C29	C	-0.393208	-1.330057	-0.358265
C30	C	-0.366491	-1.415604	-0.272778
C31	C	-0.313089	-1.415615	-0.272808
N32	N	-0.286369	-1.501148	-0.187318
C33	C	-0.313064	-1.586690	-0.101828
C34	C	-0.799154	-1.415675	-0.272765
C35	C	-0.852568	-1.415684	-0.272764
C36	C	-0.852543	-1.586767	-0.101777
C37	C	-0.799128	-1.586762	-0.101785
C38	C	-0.772434	-1.501207	-0.187275
C39	C	-0.200896	-1.586678	-0.101855
C40	C	-0.147479	-1.586670	-0.101877
C41	C	-0.147509	-1.415584	-0.272858
C42	C	-0.200921	-1.415595	-0.272842
C43	C	-0.227613	-1.501147	-0.187330
O44	O	-0.285432	-1.342932	-0.345502
O45	O	-0.285425	-1.659419	-0.029114
C46	C	-0.526712	-1.586709	-0.101797
C47	C	-0.553429	-1.501170	-0.187278
C48	C	-0.526734	-1.415628	-0.272769
C49	C	-0.606843	-1.501179	-0.187277
C50	C	-0.633538	-1.586721	-0.101787
C51	C	-0.606818	-1.672254	-0.016296
C52	C	-0.553407	-1.672251	-0.016306
C53	C	-0.553454	-1.330095	-0.358259
C54	C	-0.606865	-1.330106	-0.358243
C55	C	-0.633560	-1.415648	-0.272752
N56	N	0.120737	-1.501226	-0.187273
C57	C	-0.000026	-1.733182	-0.180161
C58	C	-0.000025	-1.874130	-0.183943
C59	C	-0.000216	-0.944788	-0.045790
C60	C	-0.000020	-1.091406	-0.049624
C61	C	0.048439	-1.066563	-0.258585
C62	C	0.048474	-0.920019	-0.253770
C63	C	-0.048025	-0.919488	-0.256675
C64	C	-0.048660	-1.066470	-0.257974
C65	C	-0.000023	-1.494008	-0.419335
C66	C	-0.000022	-1.497790	-0.560283
C67	C	0.000172	-1.359637	0.369059
C68	C	-0.000019	-1.363471	0.222441
C69	C	-0.048480	-1.572429	0.247273
C70	C	-0.048521	-1.567614	0.393817
C71	C	0.047979	-1.570525	0.394370
C72	C	0.048619	-1.571825	0.247388
H73	H	-0.125728	-1.656338	-0.032263
H74	H	0.050242	-1.088917	-0.362193
N75	N	-0.096495	-1.501111	0.431171
H76	H	-0.117108	-1.560815	0.491827
H77	H	-0.117380	-1.475197	0.352412
H78	H	-0.468371	-1.260400	-0.427883
H79	H	0.084696	-0.891825	-0.203577
N80	N	-0.050877	-1.709662	0.217650
H81	H	-0.082324	-1.751419	0.258206
H82	H	-0.019467	-1.756266	0.252593
N83	N	0.045558	-0.904806	0.027748
H84	H	0.045146	-0.950634	0.116378
H85	H	0.044338	-0.809758	0.033506
N86	N	-0.229680	-1.678956	-0.009636
H87	H	-0.204644	-1.733142	0.044503
H88	H	-0.251839	-1.735515	-0.058783
N89	N	0.096631	-1.510065	0.436175
H90	H	0.126945	-1.558210	0.406080
H91	H	0.097263	-1.513007	0.532214
H92	H	-0.628615	-1.260446	-0.427868
H93	H	-0.371422	-1.741897	0.053278
H94	H	-0.034382	-1.304117	0.399254
H95	H	-0.222674	-1.345947	-0.342466
H96	H	0.084501	-1.109168	-0.211408
N97	N	0.045992	-1.292725	0.166011
H98	H	0.066582	-1.258762	0.236376
H99	H	0.034380	-1.219469	0.103974
H100	H	0.034776	-1.133167	0.004188
N101	N	-0.096680	-0.877690	-0.196219
H102	H	-0.088098	-0.828919	-0.121064
H103	H	-0.117705	-0.955121	-0.166353
H104	H	-0.034813	-1.309657	0.180673
N105	N	0.052494	-1.708083	0.215321
H106	H	0.084075	-1.748803	0.256259
H107	H	0.054634	-1.709611	0.119811
H108	H	-0.874317	-1.346037	-0.342389
H109	H	0.050674	-0.872051	-0.355235
H110	H	-0.084508	-1.107416	-0.208387
N111	N	-0.118712	-1.323324	-0.365063
H112	H	-0.080821	-1.336305	-0.352084
H113	H	-0.128052	-1.233143	-0.349517
H114	H	-0.051586	-1.090695	-0.360834
H115	H	-0.048352	-0.872261	-0.358578
H116	H	-0.468314	-1.741903	0.053297
H117	H	-0.371476	-1.260384	-0.427880
N118	N	0.048412	-1.705509	0.456917
H119	H	0.017683	-1.719534	0.514353
H120	H	0.080580	-1.720214	0.509012
H121	H	-0.050721	-1.669078	0.441785
H122	H	-0.084540	-1.525249	0.204660
N123	N	-0.524594	-1.764520	0.075897
H124	H	-0.549617	-1.818702	0.130050
H125	H	-0.502433	-1.715421	0.132494
H126	H	0.034923	-1.303921	0.397672
H127	H	-0.777423	-1.346003	-0.342384
H128	H	0.084468	-1.522162	0.206542
H129	H	-0.777378	-1.656421	-0.032174
H130	H	-0.874287	-1.656421	-0.032169
H131	H	-0.628561	-1.741911	0.053310
H132	H	-0.531723	-1.260435	-0.427875
H133	H	-0.034967	-0.916187	0.009933
N134	N	-0.046031	-1.147845	0.021114
H135	H	-0.066624	-1.077484	0.055075
H136	H	-0.034420	-1.209883	0.094371
