data_functionalizedCrystal
_audit_creation_method	'MofGen! by Chris Wilmer'
_symmetry_space_group_name_H-M	'P1'
_symmetry_Int_Tables_number	1
_symmetry_cell_setting	triclinic
loop_
_symmetry_equiv_pos_as_xyz
  x,y,z
_cell_length_a	17.699083
_cell_length_b	16.992695
_cell_length_c	16.176319
_cell_angle_alpha	89.993125
_cell_angle_beta	89.998611
_cell_angle_gamma	86.975619
loop_
_atom_site_label
_atom_site_type_symbol
_atom_site_fract_x
_atom_site_fract_y
_atom_site_fract_z
O1	O	1.010252	0.099146	-0.068631
O2	O	1.510252	0.599146	0.431369
O3	O	0.790676	0.112045	-0.068658
O4	O	1.290676	0.612045	0.431342
O5	O	0.899584	-0.008546	-0.068638
O6	O	1.399584	0.491454	0.431362
O7	O	0.901344	0.219736	-0.068651
O8	O	1.401344	0.719736	0.431349
O9	O	0.899567	-0.008553	0.068855
O10	O	1.399567	0.491447	0.568855
O11	O	0.790660	0.112037	0.068835
O12	O	1.290660	0.612037	0.568835
O13	O	1.010235	0.099138	0.068862
O14	O	1.510235	0.599138	0.568862
Cu15	Cu	0.900446	0.105587	0.081403
Cu16	Cu	1.400446	0.605587	0.581403
Cu17	Cu	0.900465	0.105596	-0.081199
Cu18	Cu	1.400465	0.605596	0.418801
O19	O	0.901328	0.219729	0.068842
O20	O	1.401328	0.719729	0.568842
C21	C	0.762442	0.111579	0.000085
C22	C	1.262442	0.611579	0.500085
C23	C	0.678338	0.110192	0.000075
C24	C	1.178338	0.610192	0.500075
C25	C	0.897311	-0.037758	0.000108
C26	C	1.397311	0.462242	0.500108
C27	C	0.890554	-0.124789	0.000107
C28	C	1.390554	0.375211	0.500107
C29	C	0.634124	0.180976	0.000071
C30	C	1.134124	0.680976	0.500071
C31	C	0.555099	0.179669	0.000082
C32	C	1.055099	0.679669	0.500082
C33	C	0.520290	0.107576	0.000091
C34	C	1.020290	0.607576	0.500091
C35	C	0.564510	0.036787	0.000097
C36	C	1.064510	0.536787	0.500097
C37	C	0.643533	0.038095	0.000092
C38	C	1.143533	0.538095	0.500092
C39	C	0.245818	0.031509	0.000118
C40	C	0.745818	0.531509	0.500118
C41	C	0.166789	0.030206	0.000120
C42	C	0.666789	0.530206	0.500120
C43	C	0.157384	0.173082	0.000108
C44	C	0.657384	0.673082	0.500108
C45	C	0.236408	0.174391	0.000103
C46	C	0.736408	0.674391	0.500103
C47	C	0.280621	0.103602	0.000113
C48	C	0.780621	0.603602	0.500113
C49	C	0.366308	0.105020	0.000103
C50	C	0.866308	0.605020	0.500103
C51	C	0.434604	0.106157	0.000095
C52	C	0.934604	0.606157	0.500095
C53	C	0.955751	-0.175154	0.000116
C54	C	1.455751	0.324846	0.500116
C55	C	0.949398	-0.256928	0.000107
C56	C	1.449398	0.243072	0.500107
C57	C	0.877846	-0.288336	0.000096
C58	C	1.377846	0.211664	0.500096
C59	C	0.812643	-0.237965	0.000084
C60	C	1.312643	0.262035	0.500084
C61	C	0.818998	-0.156192	0.000087
C62	C	1.318998	0.343808	0.500087
C63	C	0.851510	-0.531884	0.000081
C64	C	1.351510	-0.031884	0.500081
C65	C	0.845160	-0.613663	0.000081
C66	C	1.345160	-0.113663	0.500081
C67	C	0.981915	-0.632621	0.000102
C68	C	1.481915	-0.132621	0.500102
C69	C	0.988263	-0.550845	0.000110
C70	C	1.488263	-0.050845	0.500110
C71	C	0.923061	-0.500481	0.000094
C72	C	1.423061	-0.000481	0.500094
N73	N	0.871350	-0.371923	0.000090
N74	N	1.371350	0.128077	0.500090
N75	N	0.929558	-0.416897	0.000095
N76	N	1.429558	0.083103	0.500095
C77	C	1.038469	0.099604	0.000117
C78	C	1.538469	0.599604	0.500117
C79	C	1.122574	0.100991	0.000122
C80	C	1.622574	0.600991	0.500122
C81	C	0.903601	0.248941	0.000094
C82	C	1.403601	0.748941	0.500094
C83	C	0.910358	0.335972	0.000090
C84	C	1.410358	0.835972	0.500090
N85	N	0.900438	0.105580	0.195768
N86	N	1.400438	0.605580	0.695768
N87	N	0.900479	0.105597	-0.195564
N88	N	1.400479	0.605597	0.304436
C89	C	0.948679	0.052204	0.239041
C90	C	1.448679	0.552204	0.739041
C91	C	0.948683	0.052203	0.325588
C92	C	1.448683	0.552203	0.825588
C93	C	0.900449	0.105583	0.368861
C94	C	1.400449	0.605583	0.868861
C95	C	0.852202	0.158961	0.325582
C96	C	1.352202	0.658961	0.825582
C97	C	0.852195	0.158957	0.239036
C98	C	1.352195	0.658957	0.739036
C99	C	0.852229	0.158976	0.674610
C100	C	1.352229	0.658976	1.174610
C101	C	0.852242	0.158977	0.761161
C102	C	1.352242	0.658977	1.261161
C103	C	0.948717	0.052222	0.761162
C104	C	1.448717	0.552222	1.261162
C105	C	0.948709	0.052218	0.674617
C106	C	1.448709	0.552218	1.174617
C107	C	0.900461	0.105593	0.631345
C108	C	1.400461	0.605593	1.131345
C109	C	0.900456	0.105593	0.537501
C110	C	1.400456	0.605593	1.037501
C111	C	0.900457	0.105588	0.462703
C112	C	1.400457	0.605588	0.962703
H113	H	0.519103	0.237308	0.000078
H114	H	1.019103	0.737308	0.500078
C115	C	1.001755	-0.006502	0.373185
C116	C	1.501755	0.493498	0.873185
H117	H	1.030489	-0.038285	0.335019
H118	H	1.530489	0.461715	0.835019
H119	H	0.972571	-0.039108	0.406958
H120	H	1.472571	0.460892	0.906958
H121	H	1.034963	0.021673	0.406935
H122	H	1.534963	0.521673	0.906935
H123	H	0.765906	-0.115186	0.000080
H124	H	1.265906	0.384814	0.500080
H125	H	0.987989	0.008755	0.639387
H126	H	1.487989	0.508755	1.139387
C127	C	0.274694	0.253692	0.000097
C128	C	0.774694	0.753692	0.500097
H129	H	0.237043	0.295662	0.000104
H130	H	0.737043	0.795662	0.500104
H131	H	0.305326	0.257177	-0.047850
H132	H	0.805326	0.757177	0.452150
H133	H	0.305324	0.257165	0.048050
H134	H	0.805324	0.757165	0.548050
H135	H	0.138450	-0.028504	0.000128
H136	H	0.638450	0.471496	0.500128
H137	H	0.988001	0.008758	0.796403
H138	H	1.488001	0.508758	1.296403
H139	H	0.987960	0.008740	0.203814
H140	H	1.487960	0.508740	0.703814
C141	C	0.294446	-0.046354	0.000117
C142	C	0.794446	0.453646	0.500117
H143	H	0.346495	-0.035255	0.000121
H144	H	0.846495	0.464745	0.500121
H145	H	0.283424	-0.075916	-0.047828
H146	H	0.783424	0.424084	0.452172
H147	H	0.283427	-0.075924	0.048071
H148	H	0.783427	0.424076	0.548071
H149	H	0.536162	-0.021912	0.000116
H150	H	1.036162	0.478088	0.500116
C151	C	0.766450	-0.648211	0.000054
C152	C	1.266450	-0.148211	0.500054
H153	H	0.728527	-0.606505	0.000035
H154	H	1.228527	-0.106505	0.500035
H155	H	0.761115	-0.679724	0.047998
H156	H	1.261115	-0.179724	0.547998
H157	H	0.761147	-0.679710	-0.047902
H158	H	1.261147	-0.179710	0.452098
C159	C	1.053634	-0.688018	0.000111
C160	C	1.553634	-0.188018	0.500111
H161	H	1.097156	-0.657600	0.000123
H162	H	1.597156	-0.157600	0.500123
H163	H	1.054004	-0.720306	-0.047836
H164	H	1.554004	-0.220306	0.452164
H165	H	1.053993	-0.720317	0.048064
H166	H	1.553993	-0.220317	0.548064
C167	C	0.799165	0.217692	0.627022
C168	C	1.299165	0.717692	1.127022
H169	H	0.770448	0.249488	0.665191
H170	H	1.270448	0.749488	1.165191
H171	H	0.765953	0.189533	0.593269
H172	H	1.265953	0.689533	1.093269
H173	H	0.828362	0.250296	0.593253
H174	H	1.328362	0.750296	1.093253
H175	H	1.014017	-0.149588	0.000131
H176	H	1.514017	0.350412	0.500131
C177	C	0.799133	0.217671	0.191432
C178	C	1.299133	0.717671	0.691432
H179	H	0.806032	0.210019	0.133692
H180	H	1.306032	0.710019	0.633692
H181	H	0.810512	0.269987	0.205603
H182	H	1.310512	0.769987	0.705603
H183	H	0.748112	0.209215	0.205624
H184	H	1.248112	0.709215	0.705624
C185	C	0.692168	-0.039767	0.000088
C186	C	1.192168	0.460233	0.500088
H187	H	0.660121	-0.082891	0.000085
H188	H	1.160121	0.417109	0.500085
H189	H	0.723194	-0.042232	0.048031
H190	H	1.223194	0.457768	0.548031
H191	H	0.723187	-0.042221	-0.047868
H192	H	1.223187	0.457779	0.452132
H193	H	0.812925	0.202421	0.360819
H194	H	1.312925	0.702421	0.860819
C195	C	1.066969	-0.516298	0.000129
C196	C	1.566969	-0.016298	0.500129
H197	H	1.061415	-0.460384	0.000139
H198	H	1.561415	0.039616	0.500139
H199	H	1.094036	-0.533585	-0.047811
H200	H	1.594036	-0.033585	0.452189
H201	H	1.094008	-0.533603	0.048089
H202	H	1.594008	-0.033603	0.548089
H203	H	0.121377	0.230722	0.000103
H204	H	0.621377	0.730722	0.500103
C205	C	1.021115	-0.312326	0.000126
C206	C	1.521115	0.187674	0.500126
H207	H	1.064639	-0.281909	0.000145
H208	H	1.564639	0.218091	0.500145
H209	H	1.021493	-0.344616	-0.047821
H210	H	1.521493	0.155384	0.452179
H211	H	1.021467	-0.344624	0.048079
H212	H	1.521467	0.155376	0.548079
C213	C	0.799180	0.217691	0.808764
C214	C	1.299180	0.717691	1.308764
H215	H	0.806102	0.210053	0.866504
H216	H	1.306102	0.710053	1.366504
H217	H	0.748158	0.209238	0.794593
H218	H	1.248158	0.709238	1.294593
H219	H	0.810559	0.270010	0.794570
H220	H	1.310559	0.770010	1.294570
C221	C	0.672407	0.260279	0.000061
C222	C	1.172407	0.760279	0.500061
H223	H	0.634754	0.302247	0.000068
H224	H	1.134754	0.802247	0.500068
H225	H	0.703038	0.263764	-0.047887
H226	H	1.203038	0.763764	0.452113
H227	H	0.703039	0.263756	0.048013
H228	H	1.203039	0.763756	0.548013
H229	H	0.798417	-0.490887	0.000069
H230	H	1.298417	0.009113	0.500069
H231	H	0.754384	-0.263544	0.000070
H232	H	1.254384	0.236456	0.500070
