data_functionalizedCrystal
_audit_creation_method	'MofGen! by Chris Wilmer'
_symmetry_space_group_name_H-M	'P1'
_symmetry_Int_Tables_number	1
_symmetry_cell_setting	triclinic
loop_
_symmetry_equiv_pos_as_xyz
  x,y,z
_cell_length_a	6.817900
_cell_length_b	19.551136
_cell_length_c	10.992410
_cell_angle_alpha	94.498803
_cell_angle_beta	108.764651
_cell_angle_gamma	101.650842
loop_
_atom_site_label
_atom_site_type_symbol
_atom_site_fract_x
_atom_site_fract_y
_atom_site_fract_z
V1	V	-4.078377	-0.096677	-0.401226
O2	O	-4.074100	0.004646	-0.392937
O3	O	-4.020700	-0.191693	-0.399108
O4	O	-4.056521	-0.095190	-0.575929
O5	O	-4.038031	-0.092526	-0.214892
V6	V	-4.559767	-0.084557	-0.378863
O7	O	-4.344313	-0.123261	-0.450281
O8	O	-4.744028	-0.057973	-0.329808
O9	O	-4.394237	0.010460	-0.380981
O10	O	-4.681441	-0.185880	-0.387152
O11	O	-4.717510	-0.088708	-0.565196
O12	O	-4.358417	-0.086044	-0.204160
C13	C	-3.862585	-0.214857	-0.392940
C14	C	-3.896891	-0.292534	-0.392373
C15	C	-3.855901	-0.319024	-0.274366
C16	C	-3.888201	-0.392009	-0.273793
C17	C	-3.961452	-0.438500	-0.391234
C18	C	-4.002457	-0.412002	-0.509257
C19	C	-3.970177	-0.339019	-0.509826
C20	C	-3.938901	-0.559511	-0.476387
C21	C	-3.971166	-0.632492	-0.475812
C22	C	-4.061027	-0.663604	-0.389482
C23	C	-4.118582	-0.621724	-0.303704
C24	C	-4.086302	-0.548741	-0.304274
C25	C	-3.996462	-0.517639	-0.390629
C26	C	-4.055059	-0.769232	-0.270846
C27	C	-4.087374	-0.842218	-0.270279
C28	C	-4.201611	-0.862210	-0.505745
C29	C	-4.169315	-0.789225	-0.506309
C30	C	-4.096030	-0.742740	-0.388856
C31	C	-3.908277	-0.091755	-0.618491
C32	C	-3.971629	-0.091168	-0.761315
C33	C	-3.840737	-0.085818	-0.956404
C34	C	-3.774853	-0.086719	-0.807926
C35	C	-4.144081	-0.160064	-0.838870
C36	C	-4.208621	-0.159455	-0.987433
C37	C	-4.135887	-0.026047	-0.948528
C38	C	-4.065299	-0.025721	-0.799513
C39	C	-4.215693	0.033619	-0.387145
C40	C	-4.160627	0.111296	-0.387721
C41	C	-4.170001	-0.089481	-0.161591
C42	C	-4.085888	-0.090065	-0.018765
H43	H	-4.191735	-0.647053	-0.233397
H44	H	-4.175073	-0.207928	-1.034020
H45	H	-4.202680	-0.767657	-0.602403
H46	H	-3.742041	-0.035938	-0.974906
N47	N	-3.976033	-0.719088	-0.144174
H48	H	-3.954987	-0.746948	-0.069327
H49	H	-4.084431	-0.690777	-0.143663
H50	H	-3.796242	-0.281180	-0.178726
H51	H	-3.644779	-0.037179	-0.754261
N52	N	-3.909030	-0.677645	-0.568310
H53	H	-3.991355	-0.673513	-0.660844
H54	H	-3.943065	-0.728580	-0.554741
N55	N	-4.280638	-0.912344	-0.632417
H56	H	-4.294876	-0.962599	-0.614152
H57	H	-4.175662	-0.901548	-0.679554
N58	N	-3.785075	-0.146746	-1.020357
H59	H	-3.917969	-0.177086	-1.089551
H60	H	-3.723450	-0.176071	-0.952804
N61	N	-4.446751	-0.167385	-1.043961
H62	H	-4.523154	-0.213539	-1.026924
H63	H	-4.490305	-0.167020	-1.140798
N64	N	-3.843997	-0.420592	-0.146510
H65	H	-3.792677	-0.380070	-0.072192
H66	H	-3.730623	-0.448031	-0.136782
N67	N	-3.841990	-0.525958	-0.569512
H68	H	-3.810412	-0.563560	-0.623755
H69	H	-3.705213	-0.489698	-0.518681
H70	H	-3.700369	-0.133354	-0.783417
H71	H	-4.062103	-0.449860	-0.604877
N72	N	-4.014386	-0.310443	-0.637110
H73	H	-4.065698	-0.350967	-0.711425
H74	H	-3.879195	-0.278193	-0.638097
N75	N	-4.340461	-0.167679	-0.800781
H76	H	-4.319475	-0.126443	-0.732720
H77	H	-4.365021	-0.213220	-0.764351
H78	H	-4.313942	-0.028551	-0.989385
H79	H	-4.133171	-0.514646	-0.234432
H80	H	-4.080290	-0.208656	-0.813583
H81	H	-4.052386	0.026271	-0.968544
H82	H	-3.940957	0.025246	-0.746821
N83	N	-4.253854	-0.024640	-0.756355
H84	H	-4.369606	-0.069112	-0.799199
H85	H	-4.310429	0.017977	-0.782167
N86	N	-4.043183	-0.870794	-0.142995
H87	H	-3.991857	-0.830268	-0.068681
H88	H	-3.929817	-0.898237	-0.133259
