data_functionalizedCrystal
_audit_creation_method	'MofGen! by Chris Wilmer'
_symmetry_space_group_name_H-M	'P1'
_symmetry_Int_Tables_number	1
_symmetry_cell_setting	triclinic
loop_
_symmetry_equiv_pos_as_xyz
  x,y,z
_cell_length_a	21.295420
_cell_length_b	21.295417
_cell_length_c	21.395355
_cell_angle_alpha	89.979596
_cell_angle_beta	89.975403
_cell_angle_gamma	90.025484
loop_
_atom_site_label
_atom_site_type_symbol
_atom_site_fract_x
_atom_site_fract_y
_atom_site_fract_z
Zn1	Zn	0.962359	-0.250753	-0.354254
Zn2	Zn	1.462359	0.249247	0.145746
Zn3	Zn	0.962263	-0.356004	-0.249473
Zn4	Zn	1.462263	0.143996	0.250527
Zn5	Zn	0.857082	-0.250745	-0.249491
Zn6	Zn	1.357082	0.249255	0.250509
Zn7	Zn	0.857053	-0.355980	-0.354213
Zn8	Zn	1.357053	0.144020	0.145787
O9	O	0.909689	-0.303371	-0.301858
O10	O	1.409689	0.196629	0.198142
O11	O	1.050435	-0.264728	-0.340364
O12	O	1.550435	0.235272	0.159636
O13	O	0.948282	-0.342048	-0.161797
O14	O	1.448282	0.157952	0.338203
O15	O	0.871100	-0.162657	-0.263412
O16	O	1.371100	0.337343	0.236588
O17	O	1.050365	-0.342056	-0.263382
O18	O	1.550365	0.157944	0.236618
O19	O	0.948446	-0.162663	-0.340381
O20	O	1.448446	0.337337	0.159619
O21	O	0.871006	-0.264715	-0.161810
O22	O	1.371006	0.235285	0.338190
O23	O	0.768989	-0.264692	-0.263372
O24	O	1.268989	0.235308	0.236628
O25	O	0.871050	-0.342015	-0.441896
O26	O	1.371050	0.157985	0.058104
O27	O	0.768967	-0.342008	-0.340312
O28	O	1.268967	0.157992	0.159688
O29	O	0.948418	-0.264705	-0.441926
O30	O	1.448418	0.235295	0.058074
O31	O	0.948254	-0.444091	-0.263343
O32	O	1.448254	0.055909	0.236657
O33	O	0.870957	-0.444073	-0.340295
O34	O	1.370957	0.055927	0.159705
C35	C	0.746138	-0.303347	-0.301840
C36	C	1.246138	0.196653	0.198160
C37	C	0.676169	-0.303352	-0.301847
C38	C	1.176169	0.196648	0.198153
C39	C	0.176748	-0.263201	-0.342017
C40	C	0.676748	0.236799	0.157983
C41	C	0.242490	-0.263196	-0.342017
C42	C	0.742490	0.236804	0.157983
C43	C	0.275330	-0.303390	-0.301872
C44	C	0.775330	0.196610	0.198128
C45	C	0.242422	-0.343603	-0.261736
C46	C	0.742422	0.156397	0.238264
C47	C	0.176681	-0.343611	-0.261742
C48	C	0.676681	0.156389	0.238258
N49	N	0.378520	-0.308125	-0.247010
N50	N	0.878520	0.191875	0.252990
N51	N	0.440971	-0.308114	-0.247007
N52	N	0.940971	0.191886	0.252993
C53	C	0.473405	-0.303369	-0.301854
C54	C	0.973405	0.196631	0.198146
N55	N	0.441027	-0.298624	-0.356706
N56	N	0.941027	0.201376	0.143294
N57	N	0.378570	-0.298632	-0.356709
N58	N	0.878570	0.201368	0.143291
C59	C	0.346615	-0.303386	-0.301862
C60	C	0.846615	0.196614	0.198138
C61	C	0.577590	-0.263157	-0.341990
C62	C	1.077590	0.236843	0.158010
C63	C	0.643334	-0.263157	-0.341991
C64	C	1.143334	0.236843	0.158009
C65	C	0.643265	-0.343560	-0.261705
C66	C	1.143265	0.156440	0.238295
C67	C	0.577522	-0.343563	-0.261710
C68	C	1.077522	0.156437	0.238290
C69	C	0.544689	-0.303359	-0.301852
C70	C	1.044689	0.196641	0.198148
C71	C	0.909609	-0.466922	-0.301826
C72	C	1.409609	0.033078	0.198174
C73	C	0.909632	-0.536891	-0.301833
C74	C	1.409632	-0.036891	0.198167
C75	C	0.949883	-0.569703	-0.341940
C76	C	1.449883	-0.069703	0.158060
C77	C	0.949906	-0.635445	-0.341955
C78	C	1.449906	-0.135445	0.158045
C79	C	0.909683	-0.668373	-0.301853
C80	C	1.409683	-0.168373	0.198147
C81	C	0.869424	-0.635553	-0.261744
C82	C	1.369424	-0.135553	0.238256
C83	C	0.869399	-0.569811	-0.261734
C84	C	1.369399	-0.069811	0.238266
N85	N	0.904924	-0.771625	-0.247019
N86	N	1.404924	-0.271625	0.252981
N87	N	0.904952	-0.834076	-0.247031
N88	N	1.404952	-0.334076	0.252969
C89	C	0.909757	-0.866448	-0.301881
C90	C	1.409757	-0.366448	0.198119
N91	N	0.914545	-0.834008	-0.356722
N92	N	1.414545	-0.334008	0.143278
N93	N	0.914520	-0.771551	-0.356710
N94	N	1.414520	-0.271551	0.143290
C95	C	0.909706	-0.739658	-0.301860
C96	C	1.409706	-0.239658	0.198140
C97	C	0.950034	-0.970546	-0.342008
C98	C	1.450034	-0.470546	0.157992
C99	C	0.950052	-1.036289	-0.342024
C100	C	1.450052	-0.536289	0.157976
C101	C	0.869574	-1.036395	-0.261807
C102	C	1.369574	-0.536395	0.238193
C103	C	0.869553	-0.970653	-0.261796
C104	C	1.369553	-0.470653	0.238204
C105	C	0.909786	-0.937732	-0.301896
C106	C	1.409786	-0.437732	0.198104
C107	C	1.073879	-0.303395	-0.301876
C108	C	1.573879	0.196605	0.198124
C109	C	1.143847	-0.303406	-0.301884
C110	C	1.643847	0.196594	0.198116
C111	C	0.909741	-0.303358	-0.465281
C112	C	1.409741	0.196642	0.034719
C113	C	0.909764	-0.303353	-0.534922
C114	C	1.409764	0.196647	-0.034922
C115	C	0.909787	-0.139181	-0.301903
C116	C	1.409787	0.360819	0.198097
C117	C	0.909828	-0.069212	-0.301923
C118	C	1.409828	0.430788	0.198077
C119	C	0.950047	-0.263096	-0.567652
C120	C	1.450047	0.236904	-0.067652
C121	C	0.950047	-0.263068	-0.633087
C122	C	1.450047	0.236932	-0.133087
C123	C	0.909769	-0.303310	-0.665791
C124	C	1.409769	0.196690	-0.165791
C125	C	0.869477	-0.343570	-0.633053
C126	C	1.369477	0.156430	-0.133053
C127	C	0.869475	-0.343591	-0.567619
C128	C	1.369475	0.156409	-0.067619
C129	C	0.904770	-0.359989	-0.769454
C130	C	1.404770	0.140011	-0.269454
C131	C	0.904777	-0.359969	-0.834887
C132	C	1.404777	0.140031	-0.334887
C133	C	0.909772	-0.303243	-0.867612
C134	C	1.409772	0.196757	-0.367612
C135	C	0.914774	-0.246536	-0.834895
C136	C	1.414774	0.253464	-0.334895
C137	C	0.914772	-0.246557	-0.769460
C138	C	1.414772	0.253443	-0.269460
C139	C	0.909766	-0.303291	-0.736743
C140	C	1.409766	0.196709	-0.236743
C141	C	0.950057	-0.262953	-0.971294
C142	C	1.450057	0.237047	-0.471294
C143	C	0.950052	-0.262925	-1.036730
C144	C	1.450052	0.237075	-0.536730
C145	C	0.869486	-0.343432	-1.036695
C146	C	1.369486	0.156568	-0.536695
C147	C	0.869488	-0.343455	-0.971259
C148	C	1.369488	0.156545	-0.471259
C149	C	0.909777	-0.303216	-0.938563
C150	C	1.409777	0.196784	-0.438563
C151	C	0.909673	-0.303338	-0.139070
C152	C	1.409673	0.196662	0.360930
C153	C	0.909773	-0.303166	-0.069429
C154	C	1.409773	0.196834	0.430571
H155	H	0.550856	-0.230420	-0.374676
H156	H	1.050856	0.269580	0.125324
F157	F	0.992751	-0.670374	-0.384641
F158	F	1.492751	-0.170374	0.115359
F159	F	0.826614	-0.670597	-0.219067
F160	F	1.326614	-0.170597	0.280933
F161	F	0.678349	-0.220368	-0.384714
F162	F	1.178349	0.279632	0.115286
H163	H	0.836621	-0.543095	-0.229074
H164	H	1.336621	-0.043095	0.270926
F165	F	0.826712	-0.935730	-0.219109
F166	F	1.326712	-0.435730	0.280891
H167	H	0.918843	-0.200344	-0.861537
H168	H	1.418843	0.299656	-0.361537
F169	F	0.920092	-0.186207	-0.734643
F170	F	1.420092	0.313793	-0.234643
H171	H	0.982855	-0.230139	-1.063378
H172	H	1.482855	0.269861	-0.563378
H173	H	0.982860	-0.230185	-0.944671
H174	H	1.482860	0.269815	-0.444671
H175	H	0.550735	-0.376300	-0.229026
H176	H	1.050735	0.123700	0.270974
H177	H	0.982853	-0.230329	-0.541035
H178	H	1.482853	0.269671	-0.041035
F179	F	0.992913	-0.220209	-0.667928
F180	F	1.492913	0.279791	-0.167928
F181	F	0.992851	-0.935507	-0.384687
F182	F	1.492851	-0.435507	0.115313
H183	H	0.836685	-0.376191	-1.063321
H184	H	1.336685	0.123809	-0.563321
H185	H	0.836688	-0.376240	-0.944611
H186	H	1.336688	0.123760	-0.444611
F187	F	0.899459	-0.420322	-0.869701
F188	F	1.399459	0.079678	-0.369701
H189	H	0.982829	-1.063004	-0.374687
H190	H	1.482829	-0.563004	0.125313
H191	H	0.900534	-0.406171	-0.742816
H192	H	1.400534	0.093829	-0.242816
H193	H	0.836681	-0.376332	-0.659684
H194	H	1.336681	0.123668	-0.159684
H195	H	0.836668	-0.376372	-0.540971
H196	H	1.336668	0.123628	-0.040971
F197	F	0.826764	-1.071435	-0.219129
F198	F	1.326764	-0.571435	0.280871
H199	H	0.150019	-0.230466	-0.374706
H200	H	0.650019	0.269534	0.125294
H201	H	0.269283	-0.230454	-0.374697
H202	H	0.769283	0.269546	0.125303
H203	H	0.269164	-0.376330	-0.229052
H204	H	0.769164	0.123670	0.270948
H205	H	0.149894	-0.376351	-0.229060
H206	H	0.649894	0.123649	0.270940
F207	F	0.992701	-0.534670	-0.384621
F208	F	1.492701	-0.034670	0.115379
F209	F	0.678211	-0.386341	-0.218984
F210	F	1.178211	0.113659	0.281016
