data_functionalizedCrystal
_audit_creation_method	'MofGen! by Chris Wilmer'
_symmetry_space_group_name_H-M	'P1'
_symmetry_Int_Tables_number	1
_symmetry_cell_setting	triclinic
loop_
_symmetry_equiv_pos_as_xyz
  x,y,z
_cell_length_a	12.759401
_cell_length_b	25.639240
_cell_length_c	12.759393
_cell_angle_alpha	90.044235
_cell_angle_beta	90.018567
_cell_angle_gamma	90.031802
loop_
_atom_site_label
_atom_site_type_symbol
_atom_site_fract_x
_atom_site_fract_y
_atom_site_fract_z
Zn1	Zn	1.606124	-0.208133	0.593891
Zn2	Zn	1.605962	-0.295580	0.418172
Zn3	Zn	1.430425	-0.208159	0.418230
Zn4	Zn	1.430359	-0.295538	0.593813
O5	O	1.518218	-0.251853	0.506027
O6	O	1.753123	-0.219740	0.570590
O7	O	1.582638	-0.284012	0.271159
O8	O	1.453828	-0.134990	0.441588
O9	O	1.753005	-0.283987	0.441490
O10	O	1.582912	-0.134971	0.570646
O11	O	1.453671	-0.219784	0.271201
O12	O	1.283396	-0.219743	0.441513
O13	O	1.453714	-0.283915	0.740845
O14	O	1.283347	-0.283940	0.570514
O15	O	1.582847	-0.219699	0.740902
O16	O	1.582573	-0.368740	0.441415
O17	O	1.453558	-0.368709	0.570457
C18	C	1.245250	-0.251840	0.506012
C19	C	1.128474	-0.251848	0.506031
C20	C	1.073666	-0.218458	0.573357
C21	C	0.963942	-0.218468	0.573364
C22	C	0.963843	-0.285262	0.438714
C23	C	1.073565	-0.285249	0.438703
C24	C	1.128575	-0.185056	0.640684
C25	C	1.073768	-0.151663	0.708017
C26	C	0.964044	-0.151673	0.708023
C27	C	0.909127	-0.185076	0.640697
C28	C	1.518069	-0.387695	0.505944
C29	C	1.518102	-0.445809	0.505944
C30	C	1.585465	-0.806124	0.573348
C31	C	1.585496	-0.860728	0.573369
O32	O	1.642595	-0.888924	0.630594
N33	N	1.518363	-0.888092	0.506128
C34	C	1.451188	-0.860848	0.438869
O35	O	1.394088	-0.889137	0.381678
C36	C	1.451152	-0.806245	0.438853
C37	C	1.518297	-0.778884	0.506091
C38	C	1.652604	-0.778763	0.640581
C39	C	1.652574	-0.724163	0.640558
C40	C	1.585406	-0.696923	0.573302
C41	C	1.518267	-0.724283	0.506068
C42	C	1.383972	-0.779002	0.371600
C43	C	1.383941	-0.724395	0.371591
C44	C	1.451086	-0.697034	0.438829
C45	C	1.451069	-0.642443	0.438789
N46	N	1.518202	-0.615080	0.506030
C47	C	1.585370	-0.642320	0.573287
C48	C	1.451266	-0.975518	0.438907
C49	C	1.451306	-1.030121	0.438916
C50	C	1.585614	-1.029997	0.573419
C51	C	1.585578	-0.975394	0.573403
C52	C	1.518399	-0.948155	0.506148
C53	C	1.585303	-0.527655	0.573233
C54	C	1.585270	-0.473049	0.573201
C55	C	1.450959	-0.473177	0.438703
C56	C	1.450995	-0.527778	0.438730
C57	C	1.518171	-0.555015	0.506004
O58	O	1.393996	-0.614213	0.381597
O59	O	1.642450	-0.614024	0.630478
C60	C	1.792251	-0.251865	0.506042
C61	C	1.909027	-0.251871	0.506048
C62	C	1.518291	-0.251800	0.780060
C63	C	1.518323	-0.251777	0.896837
C64	C	1.518395	-0.115480	0.506132
C65	C	1.518471	-0.057365	0.506177
C66	C	1.518205	-0.251867	0.233059
C67	C	1.518377	-0.251743	0.116283
C68	C	1.585572	-0.218337	0.951730
C69	C	1.585597	-0.218318	1.061454
C70	C	1.451120	-0.285185	1.061382
C71	C	1.451091	-0.285200	0.951660
C72	C	1.652803	-0.184914	0.896907
C73	C	1.720059	-0.151471	0.951801
C74	C	1.720084	-0.151452	1.061525
C75	C	1.652853	-0.184876	1.116355
H76	H	0.919422	-0.124480	0.762841
H77	H	1.652867	-0.184852	1.205700
H78	H	0.819782	-0.185070	0.640686
C79	C	0.903442	-0.322006	0.364669
H80	H	0.951799	-0.341888	0.324564
H81	H	0.860642	-0.344815	0.404775
H82	H	0.860633	-0.301981	0.318971
H83	H	1.707300	-0.800936	0.695356
H84	H	1.118190	-0.312439	0.383880
H85	H	1.640253	-0.953120	0.628155
C86	C	1.659123	-0.442955	0.647174
H87	H	1.699119	-0.467002	0.687241
H88	H	1.704915	-0.421653	0.607026
H89	H	1.618886	-0.421652	0.692911
C90	C	1.659495	-1.059966	0.647408
H91	H	1.699483	-1.035853	0.687450
H92	H	1.619288	-1.081263	0.693151
H93	H	1.705308	-1.081266	0.607257
H94	H	1.396641	-1.052393	0.384153
C95	C	1.377186	-0.321952	1.121693
H96	H	1.386843	-0.317157	1.194902
H97	H	1.306598	-0.314303	1.103720
H98	H	1.392522	-0.357087	1.103676
C99	C	1.794004	-0.114707	0.891492
H100	H	1.784366	-0.119510	0.818283
H101	H	1.778683	-0.079574	0.909502
H102	H	1.864591	-0.122365	0.909475
C103	C	1.794063	-0.114672	1.121910
H104	H	1.784450	-0.119445	1.195109
H105	H	1.864635	-0.122336	1.103922
H106	H	1.778734	-0.079541	1.103962
H107	H	1.118488	-0.124465	0.762825
C108	C	1.377075	-0.443206	0.364731
H109	H	1.386670	-0.406769	0.374363
H110	H	1.392482	-0.452178	0.294153
H111	H	1.306479	-0.452176	0.380064
C112	C	1.377378	-0.945560	0.364908
H113	H	1.337413	-0.969681	0.324862
H114	H	1.331559	-0.924260	0.405041
H115	H	1.417586	-0.924265	0.319153
H116	H	1.639996	-0.549825	0.628020
C117	C	1.726430	-0.694073	0.714524
H118	H	1.766426	-0.718123	0.754583
H119	H	1.772221	-0.672771	0.674374
H120	H	1.686202	-0.672769	0.760269
H121	H	1.652793	-0.184927	0.807564
C122	C	1.377122	-0.321983	0.891268
H123	H	1.386727	-0.317201	0.818070
H124	H	1.392449	-0.357112	0.909212
H125	H	1.306543	-0.314320	0.909253
C126	C	1.249267	-0.185042	0.640677
H127	H	1.274122	-0.160365	0.690410
H128	H	1.274073	-0.218791	0.658703
H129	H	1.274066	-0.175952	0.572910
H130	H	1.329233	-0.702219	0.316825
C131	C	1.310103	-0.809087	0.297645
H132	H	1.270092	-0.785036	0.257604
H133	H	1.350313	-0.830394	0.251899
H134	H	1.264311	-0.830385	0.337812
C135	C	1.377141	-0.557876	0.364769
H136	H	1.337130	-0.533830	0.324715
H137	H	1.417357	-0.579187	0.319036
H138	H	1.331347	-0.579171	0.404941
