data_functionalizedCrystal
_audit_creation_method	'MofGen! by Chris Wilmer'
_symmetry_space_group_name_H-M	'P1'
_symmetry_Int_Tables_number	1
_symmetry_cell_setting	triclinic
loop_
_symmetry_equiv_pos_as_xyz
  x,y,z
_cell_length_a	17.077404
_cell_length_b	14.908520
_cell_length_c	14.908308
_cell_angle_alpha	96.360765
_cell_angle_beta	93.278091
_cell_angle_gamma	93.320938
loop_
_atom_site_label
_atom_site_type_symbol
_atom_site_fract_x
_atom_site_fract_y
_atom_site_fract_z
Zn1	Zn	1.153728	-0.389871	-0.532571
Zn2	Zn	1.153639	-0.532516	-0.389942
Zn3	Zn	1.030499	-0.381174	-0.381229
Zn4	Zn	1.014395	-0.541189	-0.541250
O5	O	1.088065	-0.461187	-0.461248
O6	O	1.263562	-0.408803	-0.513665
O7	O	1.144006	-0.505170	-0.262125
O8	O	1.053622	-0.255663	-0.394026
O9	O	1.263496	-0.513604	-0.408876
O10	O	1.144158	-0.262052	-0.505217
O11	O	1.053536	-0.393980	-0.255724
O12	O	0.918517	-0.402390	-0.402442
O13	O	1.026175	-0.528386	-0.666759
O14	O	0.906685	-0.519953	-0.520009
O15	O	1.128542	-0.417213	-0.660383
O16	O	1.128391	-0.660331	-0.417291
O17	O	1.026089	-0.666704	-0.528457
C18	C	0.884119	-0.461170	-0.461222
C19	C	0.796868	-0.461185	-0.461234
C20	C	0.749738	-0.522482	-0.522363
C21	C	0.667757	-0.522485	-0.522378
C22	C	0.632907	-0.461194	-0.461258
C23	C	0.680043	-0.399891	-0.400125
C24	C	0.762023	-0.399884	-0.400116
C25	C	0.509171	-0.399910	-0.400148
C26	C	0.427186	-0.399917	-0.400156
C27	C	0.414905	-0.522510	-0.522410
C28	C	0.496885	-0.522504	-0.522400
C29	C	0.544015	-0.461201	-0.461267
C30	C	1.075503	-0.696361	-0.474781
C31	C	1.070199	-0.796971	-0.480601
C32	C	1.166857	-0.979337	-0.375874
C33	C	1.161876	-1.073869	-0.381339
C34	C	1.055261	-1.080569	-0.497001
C35	C	1.060242	-0.986037	-0.491536
C36	C	1.116041	-0.935424	-0.430969
C37	C	1.121017	-0.840891	-0.425500
C38	C	1.014406	-0.847592	-0.541166
C39	C	1.009425	-0.942124	-0.546631
C40	C	1.292807	-0.461206	-0.461274
C41	C	1.380056	-0.461214	-0.461286
C42	C	1.075572	-0.474737	-0.697331
C43	C	1.070249	-0.480512	-0.797936
C44	C	1.100697	-0.225096	-0.447681
C45	C	1.106079	-0.124488	-0.441900
C46	C	1.166839	-0.375576	-0.980343
C47	C	1.161840	-0.380998	-1.074870
C48	C	1.055248	-0.496773	-1.081518
C49	C	1.060247	-0.491351	-0.986991
C50	C	1.116045	-0.430751	-0.936407
C51	C	1.121048	-0.425334	-0.841879
C52	C	1.014452	-0.541104	-0.848528
C53	C	1.009453	-0.546526	-0.943054
C54	C	1.100558	-0.447625	-0.226079
C55	C	1.106047	-0.441596	-0.125461
H56	H	0.778106	-0.572395	-0.572131
O57	O	1.227028	-0.310228	-0.925783
H58	H	1.221975	-0.315734	-0.852672
H59	H	1.166450	-0.799682	-0.376181
O60	O	0.949236	-0.996722	-0.611940
H61	H	0.979622	-1.042393	-0.660516
O62	O	0.959630	-0.600595	-0.801153
H63	H	0.968316	-0.672683	-0.823374
O64	O	0.959581	-0.800224	-0.600578
H65	H	0.919937	-0.851303	-0.643598
H66	H	0.629386	-0.572400	-0.572154
O67	O	0.364012	-0.588689	-0.588224
H68	H	0.376793	-0.658773	-0.576557
H69	H	0.398814	-0.349999	-0.350398
O70	O	0.534478	-0.588605	-0.588323
H71	H	0.487934	-0.631227	-0.630842
H72	H	1.166483	-0.375992	-0.800695
H73	H	1.212286	-0.938127	-0.326552
O74	O	1.216618	-0.321491	-1.122271
H75	H	1.278358	-0.335977	-1.105039
O76	O	0.560010	-0.333800	-0.334205
H77	H	0.522006	-0.291191	-0.291696
H78	H	1.009819	-0.546110	-1.122719
O79	O	0.995086	-1.135179	-0.562319
H80	H	1.005695	-1.121086	-0.632323
O81	O	0.949269	-0.611882	-0.997613
H82	H	0.954327	-0.606386	-1.070725
O83	O	1.216680	-1.121237	-0.321911
H84	H	1.256311	-1.070157	-0.278875
H85	H	0.651662	-0.349983	-0.350364
O86	O	0.812863	-0.333782	-0.334174
H87	H	0.774858	-0.291171	-0.291666
