data_functionalizedCrystal
_audit_creation_method	'MofGen! by Chris Wilmer'
_symmetry_space_group_name_H-M	'P1'
_symmetry_Int_Tables_number	1
_symmetry_cell_setting	triclinic
loop_
_symmetry_equiv_pos_as_xyz
  x,y,z
_cell_length_a	17.699083
_cell_length_b	11.792241
_cell_length_c	16.176319
_cell_angle_alpha	89.993071
_cell_angle_beta	89.998611
_cell_angle_gamma	83.738215
loop_
_atom_site_label
_atom_site_type_symbol
_atom_site_fract_x
_atom_site_fract_y
_atom_site_fract_z
O1	O	1.004844	0.143527	-0.068631
O2	O	0.784565	0.162200	-0.068658
O3	O	0.900050	-0.012371	-0.068638
O4	O	0.889359	0.318098	-0.068651
O5	O	0.900034	-0.012382	0.068855
O6	O	0.784549	0.162189	0.068835
O7	O	1.004828	0.143516	0.068862
Cu8	Cu	0.894687	0.152851	0.081403
Cu9	Cu	0.894706	0.152865	-0.081199
O10	O	0.889343	0.318087	0.068842
C11	C	0.756356	0.161525	0.000085
C12	C	0.672328	0.159518	0.000075
C13	C	0.624253	0.261988	0.000071
C14	C	0.545299	0.260095	0.000082
C15	C	0.514422	0.155731	0.000091
C16	C	0.562503	0.053254	0.000097
C17	C	0.641455	0.055148	0.000092
C18	C	0.244099	0.045613	0.000118
C19	C	0.165141	0.043727	0.000120
C20	C	0.147944	0.250560	0.000108
C21	C	0.226896	0.252454	0.000103
C22	C	0.274970	0.149977	0.000113
C23	C	0.360580	0.152031	0.000103
C24	C	0.428814	0.153676	0.000095
C25	C	0.899370	-0.054660	0.000108
C26	C	0.897360	-0.180649	0.000107
C27	C	0.893664	-0.411317	0.000093
C28	C	0.895718	-0.282956	0.000101
C29	C	1.033036	0.144190	0.000117
C30	C	1.117065	0.146198	0.000122
C31	C	0.890022	0.360375	0.000094
C32	C	0.892032	0.486365	0.000090
N33	N	0.894679	0.152841	0.195768
N34	N	0.894720	0.152865	-0.195564
C35	C	0.945831	0.075573	0.239041
C36	C	0.945835	0.075572	0.325588
C37	C	0.894690	0.152845	0.368861
C38	C	0.843532	0.230118	0.325582
C39	C	0.843525	0.230113	0.239036
C40	C	0.843558	0.230139	0.674610
C41	C	0.843570	0.230140	0.761161
C42	C	0.945868	0.075598	0.761162
C43	C	0.945861	0.075593	0.674617
C44	C	0.894701	0.152861	0.631345
C45	C	0.894697	0.152860	0.537501
C46	C	0.894697	0.152853	0.462703
H47	H	0.537357	-0.031721	0.000116
H48	H	0.649386	0.346973	0.000064
H49	H	0.252031	0.337438	0.000092
O50	O	0.793839	0.305309	0.632711
C51	C	0.748690	0.373494	0.689466
H52	H	0.779734	0.374719	0.751152
H53	H	0.692321	0.336747	0.698687
C54	C	0.695456	0.494458	0.579916
C55	C	0.733587	0.495970	0.655678
H56	H	0.686136	0.570006	0.559073
H57	H	0.725871	0.448518	0.541678
H58	H	0.648485	0.463830	0.587610
H59	H	0.780560	0.526584	0.647981
H60	H	0.703179	0.541918	0.693914
H61	H	0.801871	0.293031	0.203804
H62	H	0.801884	0.293032	0.360819
O63	O	0.101135	0.350005	0.000142
C64	C	0.024828	0.325964	0.000130
H65	H	0.021435	0.236827	0.026170
H66	H	0.002012	0.330329	-0.065831
C67	C	-0.018955	0.523694	0.022063
C68	C	-0.023123	0.414218	0.054052
H69	H	-0.048535	0.578136	0.055321
H70	H	0.032454	0.539893	0.022068
H71	H	-0.037967	0.527316	-0.032904
H72	H	-0.004102	0.410594	0.109014
H73	H	-0.074530	0.398021	0.054058
O74	O	0.498634	0.359667	-0.000072
C75	C	0.512706	0.423053	-0.071278
H76	H	0.539437	0.363058	-0.121046
H77	H	0.553177	0.488631	-0.055190
C78	C	0.404471	0.558439	-0.042441
C79	C	0.437296	0.484750	-0.103568
H80	H	0.357956	0.596501	-0.062357
H81	H	0.394991	0.515737	0.005535
H82	H	0.438204	0.613077	-0.029039
H83	H	0.403567	0.430105	-0.116961
H84	H	0.446768	0.527444	-0.151547
O85	O	0.135272	-0.057757	0.000170
C86	C	0.194632	-0.147801	0.000159
H87	H	0.248392	-0.116139	0.026186
H88	H	0.205673	-0.179404	-0.065799
C89	C	0.105910	-0.285130	0.022125
C90	C	0.171938	-0.246244	0.054098
H91	H	0.091911	-0.345857	0.055393
H92	H	0.065917	-0.224467	0.022129
H93	H	0.115120	-0.311457	-0.032840
H94	H	0.162724	-0.219905	0.109058
H95	H	0.211929	-0.306906	0.054104
O96	O	0.290866	-0.053857	0.000007
C97	C	0.337034	-0.058961	-0.071214
H98	H	0.341402	0.031116	-0.094956
H99	H	0.310844	-0.110712	-0.121076
C100	C	0.411580	-0.226944	-0.020429
C101	C	0.416950	-0.116309	-0.049584
H102	H	0.460875	-0.262323	-0.007089
H103	H	0.380474	-0.223508	0.027553
H104	H	0.389752	-0.270055	-0.061985
H105	H	0.438769	-0.073196	-0.008025
H106	H	0.448061	-0.119739	-0.097559
O107	O	0.995631	0.000480	0.803069
C108	C	1.040757	-0.067740	0.746316
H109	H	1.041799	-0.021204	0.684621
H110	H	1.015837	-0.152005	0.737118
C111	C	1.121028	-0.148452	0.855861
C112	C	1.122312	-0.091291	0.780088
H113	H	1.171334	-0.162985	0.876694
H114	H	1.090623	-0.102495	0.894098
H115	H	1.100257	-0.218666	0.848186
H116	H	1.143074	-0.021073	0.787766
H117	H	1.152722	-0.137238	0.741853
H118	H	0.680598	-0.028294	0.000095
H119	H	0.987483	0.012653	0.203814
O120	O	0.995606	0.000483	0.367495
C121	C	1.040741	-0.067729	0.310744
H122	H	1.041769	-0.021202	0.249044
H123	H	1.015838	-0.152009	0.301556
C124	C	1.121033	-0.148390	0.420289
C125	C	1.122301	-0.091239	0.344510
H126	H	1.171342	-0.162897	0.441118
H127	H	1.090623	-0.102438	0.458524
H128	H	1.100276	-0.218617	0.412622
H129	H	1.143048	-0.021008	0.352179
H130	H	1.152716	-0.137181	0.306276
O131	O	0.793848	0.305046	0.803289
C132	C	0.746912	0.244340	0.853351
H133	H	0.776703	0.155475	0.866319
H134	H	0.690943	0.236724	0.820010
C135	C	0.694416	0.417504	0.919632
C136	C	0.731008	0.308361	0.935564
H137	H	0.684602	0.456997	0.970343
H138	H	0.726035	0.458404	0.885902
H139	H	0.647779	0.411142	0.891845
H140	H	0.777648	0.314725	0.963340
H141	H	0.699396	0.267463	0.969300
H142	H	0.987511	0.012673	0.639387
