data_functionalizedCrystal
_audit_creation_method	'MofGen! by Chris Wilmer'
_symmetry_space_group_name_H-M	'P1'
_symmetry_Int_Tables_number	1
_symmetry_cell_setting	triclinic
loop_
_symmetry_equiv_pos_as_xyz
  x,y,z
_cell_length_a	12.759401
_cell_length_b	16.959454
_cell_length_c	16.959447
_cell_angle_alpha	90.025463
_cell_angle_beta	90.015904
_cell_angle_gamma	90.020236
loop_
_atom_site_label
_atom_site_type_symbol
_atom_site_fract_x
_atom_site_fract_y
_atom_site_fract_z
Zn1	Zn	1.606189	-0.314672	0.446885
Zn2	Zn	2.106189	0.185328	0.946885
Zn3	Zn	1.606075	-0.446862	0.314715
Zn4	Zn	2.106075	0.053138	0.814715
Zn5	Zn	1.430499	-0.314702	0.314727
Zn6	Zn	1.930499	0.185298	0.814727
Zn7	Zn	1.430463	-0.446813	0.446858
Zn8	Zn	1.930463	0.053187	0.946858
O9	O	1.518307	-0.380762	0.380796
O10	O	2.018307	0.119238	0.880796
O11	O	1.753195	-0.332216	0.429358
O12	O	2.253195	0.167784	0.929358
O13	O	1.582752	-0.429363	0.204105
O14	O	2.082752	0.070637	0.704105
O15	O	1.453868	-0.204087	0.332275
O16	O	1.953868	0.295913	0.832275
O17	O	1.753111	-0.429335	0.332253
O18	O	2.253111	0.070665	0.832253
O19	O	1.582946	-0.204065	0.429370
O20	O	2.082946	0.295935	0.929370
O21	O	1.453757	-0.332266	0.204115
O22	O	1.953757	0.167734	0.704115
O23	O	1.283473	-0.332218	0.332249
O24	O	1.783473	0.167782	0.832249
O25	O	1.453807	-0.429252	0.557472
O26	O	1.953807	0.070748	1.057472
O27	O	1.283447	-0.429280	0.429324
O28	O	1.783447	0.070720	0.929324
O29	O	1.582912	-0.332169	0.557492
O30	O	2.082912	0.167831	1.057492
O31	O	1.582717	-0.557466	0.332227
O32	O	2.082717	-0.057466	0.832227
O33	O	1.453696	-0.557431	0.429312
O34	O	1.953696	-0.057431	0.929312
C35	C	1.245339	-0.380748	0.380785
C36	C	1.745339	0.119252	0.880785
C37	C	1.128563	-0.380761	0.380800
C38	C	1.628563	0.119239	0.880800
C39	C	1.073715	-0.431382	0.431263
C40	C	1.573715	0.068618	0.931263
C41	C	0.963990	-0.431392	0.431272
C42	C	1.463990	0.068608	0.931272
C43	C	0.963972	-0.330157	0.330346
C44	C	1.463972	0.169843	0.830346
C45	C	1.073695	-0.330144	0.330342
C46	C	1.573695	0.169856	0.830342
C47	C	1.073724	-0.489831	0.489530
C48	C	1.573724	0.010169	0.989530
C49	C	0.964000	-0.489841	0.489538
C50	C	1.464000	0.010159	0.989538
C51	C	1.518219	-0.586129	0.380783
C52	C	2.018219	-0.086129	0.880783
C53	C	1.518277	-0.673985	0.380803
C54	C	2.018277	-0.173985	0.880803
C55	C	1.451223	-1.045472	0.431343
C56	C	1.951223	-0.545472	0.931343
C57	C	1.585683	-1.045449	0.330330
C58	C	2.085683	-0.545449	0.830330
C59	C	1.585647	-0.962904	0.330323
C60	C	2.085647	-0.462904	0.830323
C61	C	1.518396	-0.921638	0.380825
C62	C	2.018396	-0.421638	0.880825
C63	C	1.451182	-0.962919	0.431336
C64	C	1.951182	-0.462919	0.931336
C65	C	1.652852	-0.921617	0.279808
C66	C	2.152852	-0.421617	0.779808
C67	C	1.652817	-0.839066	0.279798
C68	C	2.152817	-0.339066	0.779798
C69	C	1.585571	-0.797799	0.330305
C70	C	2.085571	-0.297799	0.830305
C71	C	1.518355	-0.839085	0.380818
C72	C	2.018355	-0.339085	0.880818
C73	C	1.451104	-0.797819	0.431321
C74	C	1.951104	-0.297819	0.931321
C75	C	1.383893	-0.839103	0.481838
C76	C	1.883893	-0.339103	0.981838
C77	C	1.383936	-0.921652	0.481843
C78	C	1.883936	-0.421652	0.981843
C79	C	1.585528	-0.715251	0.330300
C80	C	2.085528	-0.215251	0.830300
C81	C	1.451063	-0.715266	0.431314
C82	C	1.951063	-0.215266	0.931314
C83	C	1.792340	-0.380778	0.380807
C84	C	2.292340	0.119222	0.880807
C85	C	1.909117	-0.380784	0.380812
C86	C	2.409117	0.119216	0.880812
C87	C	1.518368	-0.380702	0.586964
C88	C	2.018368	0.119298	1.086964
C89	C	1.518394	-0.380676	0.674821
C90	C	2.018394	0.119324	1.174821
C91	C	1.518424	-0.174594	0.380827
C92	C	2.018424	0.325406	0.880827
C93	C	1.518474	-0.086738	0.380840
C94	C	2.018474	0.413262	0.880840
C95	C	1.518306	-0.380766	0.175430
C96	C	2.018306	0.119234	0.675430
C97	C	1.518484	-0.380569	0.087574
C98	C	2.018484	0.119431	0.587574
C99	C	1.585569	-0.431217	0.716092
C100	C	2.085569	0.068783	1.216092
C101	C	1.451237	-0.330115	0.716104
C102	C	1.951237	0.169885	1.216104
C103	C	1.451255	-0.330091	0.798650
C104	C	1.951255	0.169909	1.298650
C105	C	1.518430	-0.380632	0.839921
C106	C	2.018430	0.119368	1.339921
C107	C	1.585587	-0.431197	0.798645
C108	C	2.085587	0.068803	1.298645
C109	C	1.384092	-0.279534	0.839931
C110	C	1.884092	0.220466	1.339931
C111	C	1.384106	-0.279509	0.922482
C112	C	1.884106	0.220491	1.422482
C113	C	1.451287	-0.330047	0.963754
C114	C	1.951287	0.169953	1.463754
C115	C	1.518448	-0.380612	0.922474
C116	C	2.018448	0.119388	1.422474
C117	C	1.585623	-0.431153	0.963745
C118	C	2.085623	0.068847	1.463745
C119	C	1.652789	-0.481716	0.922466
C120	C	2.152789	0.018284	1.422466
C121	C	1.652768	-0.481734	0.839918
C122	C	2.152768	0.018266	1.339918
C123	C	1.451309	-0.330028	1.046303
C124	C	1.951309	0.169972	1.546303
C125	C	1.585641	-0.431133	1.046299
C126	C	2.085641	0.068867	1.546299
H127	H	0.919285	-0.288947	0.289266
H128	H	1.419285	0.211053	0.789266
H129	H	1.103531	-0.473511	0.550776
H130	H	1.603531	0.026489	1.050776
H131	H	1.707480	-0.522869	0.956080
H132	H	2.207480	-0.022869	1.456080
H133	H	1.118348	-0.288918	0.289255
H134	H	1.618348	0.211082	0.789255
H135	H	1.107732	-0.547949	0.467499
H136	H	1.607732	-0.047949	0.967499
H137	H	1.329394	-0.238391	0.806322
H138	H	1.829394	0.261609	1.306322
Br139	Br	0.907322	-0.453428	0.586529
Br140	Br	1.407322	0.046572	1.086529
H141	H	0.934198	-0.551042	0.473039
H142	H	1.434198	-0.051042	0.973039
Br143	Br	1.359798	-0.659269	0.499864
Br144	Br	1.859798	-0.159269	0.999864
Br145	Br	1.292620	-0.783090	0.550369
Br146	Br	1.792620	-0.283090	1.050369
H147	H	1.640245	-0.681641	0.289166
H148	H	2.140245	-0.181641	0.789166
H149	H	1.329415	-0.238338	0.956084
H150	H	1.829415	0.261662	1.456084
Br151	Br	1.743918	-0.550345	0.783893
Br152	Br	2.243918	-0.050345	1.283893
H153	H	1.396621	-0.288863	1.079908
H154	H	1.896621	0.211137	1.579908
H155	H	1.329215	-0.955272	0.522971
H156	H	1.829215	-0.455272	1.022971
Br157	Br	1.744119	-0.977623	0.211276
Br158	Br	2.244119	-0.477623	0.711276
H159	H	1.396504	-1.079089	0.472475
H160	H	1.896504	-0.579089	0.972475
H161	H	1.640429	-1.079053	0.289208
H162	H	2.140429	-0.579053	0.789208
H163	H	1.707544	-0.805458	0.238665
H164	H	2.207544	-0.305458	0.738665
H165	H	1.640348	-0.472287	1.079895
H166	H	2.140348	0.027713	1.579895
H167	H	1.640257	-0.472381	0.682479
H168	H	2.140257	0.027619	1.182479
Br169	Br	1.360098	-0.261510	0.660093
Br170	Br	1.860098	0.238490	1.160093
