data_functionalizedCrystal
_audit_creation_method	'MofGen! by Chris Wilmer'
_symmetry_space_group_name_H-M	'P1'
_symmetry_Int_Tables_number	1
_symmetry_cell_setting	triclinic
loop_
_symmetry_equiv_pos_as_xyz
  x,y,z
_cell_length_a	10.654550
_cell_length_b	13.339070
_cell_length_c	9.730223
_cell_angle_alpha	89.998050
_cell_angle_beta	89.999957
_cell_angle_gamma	100.057112
loop_
_atom_site_label
_atom_site_type_symbol
_atom_site_fract_x
_atom_site_fract_y
_atom_site_fract_z
O1	O	1.715933	0.142434	-0.114179
O2	O	1.355036	0.156005	-0.114204
O3	O	1.494065	0.001665	-0.114190
O4	O	1.576904	0.296774	-0.114193
O5	O	1.494051	0.001661	0.114390
O6	O	1.355022	0.156000	0.114376
O7	O	1.715919	0.142430	0.114401
Zn8	Zn	1.535468	0.149215	0.150680
Zn9	Zn	1.535487	0.149220	-0.150483
O10	O	1.576890	0.296769	0.114387
C11	C	1.307895	0.155006	0.000083
C12	C	1.167445	0.152025	0.000073
C13	C	1.118643	0.242897	0.000077
C14	C	0.986674	0.240090	0.000101
C15	C	0.952320	0.055530	0.000112
C16	C	1.084286	0.058338	0.000098
C17	C	1.480065	-0.036124	0.000097
C18	C	1.438355	-0.148719	0.000089
C19	C	1.762670	-0.511236	0.000111
C20	C	1.801862	-0.405448	0.000127
C21	C	1.710989	-0.341261	0.000117
C22	C	1.580916	-0.382871	0.000092
C23	C	1.541720	-0.488669	0.000087
C24	C	1.490039	-0.318694	0.000093
C25	C	1.359966	-0.360304	0.000068
C26	C	1.320776	-0.466092	0.000062
C27	C	1.411650	-0.530280	0.000072
C28	C	1.529235	-0.212896	0.000098
C29	C	1.308285	-0.190329	0.000074
C30	C	1.269093	-0.296117	0.000058
C31	C	1.763060	0.143429	0.000111
C32	C	1.903510	0.146410	0.000111
C33	C	1.590890	0.334559	0.000097
C34	C	1.632600	0.447153	0.000096
N35	N	1.535465	0.149210	0.356217
N36	N	1.535497	0.149217	-0.356020
C37	C	1.597066	0.080898	0.428149
C38	C	1.597079	0.080898	0.572032
C39	C	1.473888	0.217532	0.572038
C40	C	1.473869	0.217526	0.428158
H41	H	0.946947	0.314088	0.000106
O42	O	1.414161	0.284034	0.641769
C43	C	1.469610	0.384577	0.606616
H44	H	1.518087	0.384810	0.502144
H45	H	1.392364	0.433805	0.601695
H46	H	1.543213	0.416416	0.687581
O47	O	0.871360	-0.035385	0.000065
C48	C	0.744416	-0.018380	0.000108
H49	H	0.741151	0.060542	-0.043168
H50	H	0.683288	-0.078381	-0.066248
H51	H	0.706160	-0.023552	0.109773
O52	O	1.131488	-0.030036	0.000033
C53	C	1.029795	-0.113328	0.000080
H54	H	0.940754	-0.088283	-0.043189
H55	H	1.055912	-0.177055	-0.066281
H56	H	1.010489	-0.141999	0.109745
O57	O	1.748998	-0.238493	0.000374
C58	C	1.701452	-0.196960	0.118733
H59	H	1.680795	-0.258130	0.201470
H60	H	1.775269	-0.131053	0.158486
H61	H	1.609849	-0.168113	0.091951
H62	H	1.907767	-0.371577	0.000149
O63	O	1.850765	-0.573731	0.000068
C64	C	1.788274	-0.676026	0.000102
H65	H	1.687986	-0.680770	-0.043190
H66	H	1.843935	-0.723445	-0.066246
H67	H	1.782369	-0.706581	0.109766
O68	O	1.656713	0.014440	0.641967
C69	C	1.567511	-0.048616	0.725233
H70	H	1.467616	-0.051078	0.681888
H71	H	1.590806	-0.128835	0.726865
H72	H	1.571979	-0.016927	0.834276
O73	O	1.220167	-0.127843	-0.000003
C74	C	1.282652	-0.025546	0.000035
H75	H	1.382951	-0.020798	-0.043229
H76	H	1.227004	0.021871	-0.066335
H77	H	1.288529	0.005008	0.109696
O78	O	1.655592	-0.172530	-0.000133
C79	C	1.713232	-0.205267	-0.118495
H80	H	1.637824	-0.227741	-0.201243
H81	H	1.789124	-0.140814	-0.158228
H82	H	1.759358	-0.273715	-0.091726
O83	O	1.414217	0.283936	0.358125
C84	C	1.503436	0.347018	0.274905
H85	H	1.587884	0.307364	0.253345
H86	H	1.456462	0.362661	0.173732
H87	H	1.538107	0.422036	0.330342
H88	H	1.379745	-0.616422	0.000055
O89	O	1.194411	-0.506464	-0.000194
C90	C	1.136788	-0.473721	-0.118566
H91	H	1.212208	-0.451240	-0.201303
H92	H	1.060904	-0.538173	-0.158310
H93	H	1.090655	-0.405276	-0.091806
O94	O	1.199473	0.333876	-0.000182
C95	C	1.276845	0.341016	-0.118558
H96	H	1.227323	0.287803	-0.201295
H97	H	1.293526	0.422663	-0.158298
H98	H	1.372251	0.318356	-0.091805
O99	O	1.656901	0.014435	0.358477
C100	C	1.711299	-0.045842	0.452827
H101	H	1.659293	-0.047369	0.555397
H102	H	1.702286	-0.126689	0.411266
H103	H	1.816302	-0.012214	0.468111
O104	O	1.142707	-0.336422	0.000224
C105	C	1.085065	-0.303738	0.118618
H106	H	1.144923	-0.230135	0.158098
H107	H	0.985345	-0.289798	0.091979
H108	H	1.078315	-0.364849	0.201510
