data_functionalizedCrystal
_audit_creation_method	'MofGen! by Chris Wilmer'
_symmetry_space_group_name_H-M	'P1'
_symmetry_Int_Tables_number	1
_symmetry_cell_setting	triclinic
loop_
_symmetry_equiv_pos_as_xyz
  x,y,z
_cell_length_a	13.897448
_cell_length_b	13.897449
_cell_length_c	19.076919
_cell_angle_alpha	92.279427
_cell_angle_beta	92.272955
_cell_angle_gamma	90.018519
loop_
_atom_site_label
_atom_site_type_symbol
_atom_site_fract_x
_atom_site_fract_y
_atom_site_fract_z
Zn1	Zn	-0.405928	1.452744	-0.397986
Zn2	Zn	-0.560754	1.459132	-0.280295
Zn3	Zn	-0.399478	1.297927	-0.280302
Zn4	Zn	-0.567183	1.291417	-0.397947
O5	O	-0.483336	1.375305	-0.339132
O6	O	-0.426475	1.588573	-0.382387
O7	O	-0.533971	1.443145	-0.181807
O8	O	-0.265353	1.318514	-0.295932
O9	O	-0.540225	1.593265	-0.295920
O10	O	-0.270092	1.432258	-0.382394
O11	O	-0.415481	1.324708	-0.181812
O12	O	-0.421715	1.162082	-0.295894
O13	O	-0.551182	1.307420	-0.496441
O14	O	-0.544927	1.157300	-0.382327
O15	O	-0.432709	1.425947	-0.496470
O16	O	-0.696588	1.436833	-0.295882
O17	O	-0.701311	1.313614	-0.382321
C18	C	-0.483320	1.124692	-0.339108
C19	C	-0.483337	1.017478	-0.339114
C20	C	-0.483341	0.930407	-0.339126
C21	C	-0.483349	0.821174	-0.339147
C22	C	-0.733949	1.375236	-0.339112
C23	C	-0.841164	1.375293	-0.339127
C24	C	-1.037461	1.375392	-0.339171
C25	C	-0.928227	1.375334	-0.339148
C26	C	-0.231745	1.375400	-0.339168
C27	C	-0.124532	1.375440	-0.339183
C28	C	-0.493382	1.365245	-0.522706
C29	C	-0.497663	1.360958	-0.600935
C30	C	-0.483353	1.626897	-0.339157
C31	C	-0.483360	1.734110	-0.339168
C32	C	-0.437995	1.420651	-0.637703
C33	C	-0.442014	1.416611	-0.711207
C34	C	-0.505707	1.352883	-0.747941
C35	C	-0.565378	1.293183	-0.711168
C36	C	-0.561353	1.297219	-0.637666
C37	C	-0.524352	1.334191	-0.967769
C38	C	-0.528375	1.330162	-1.041276
C39	C	-0.405009	1.453590	-1.041310
C40	C	-0.400994	1.457624	-0.967806
C41	C	-0.460661	1.397921	-0.931039
N42	N	-0.509818	1.348754	-0.823074
N43	N	-0.456544	1.402045	-0.855908
C44	C	-0.473259	1.385381	-0.156272
C45	C	-0.468706	1.389855	-0.078044
H46	H	-0.386132	1.472549	-0.607799
Cl47	Cl	-0.636365	1.222170	-0.591443
H48	H	-0.617234	1.241290	-0.741083
H49	H	-0.349131	1.509521	-0.937901
H50	H	-0.393427	1.465222	-0.741140
Cl51	Cl	-0.599364	1.259136	-0.921557
Cl52	Cl	-0.330000	1.528636	-1.087535
H53	H	-0.580243	1.278264	-1.071184
