data_functionalizedCrystal
_audit_creation_method	'MofGen! by Chris Wilmer'
_symmetry_space_group_name_H-M	'P1'
_symmetry_Int_Tables_number	1
_symmetry_cell_setting	triclinic
loop_
_symmetry_equiv_pos_as_xyz
  x,y,z
_cell_length_a	12.759401
_cell_length_b	18.101395
_cell_length_c	12.759393
_cell_angle_alpha	89.966555
_cell_angle_beta	89.981504
_cell_angle_gamma	90.031265
loop_
_atom_site_label
_atom_site_type_symbol
_atom_site_fract_x
_atom_site_fract_y
_atom_site_fract_z
Zn1	Zn	1.606136	-0.294783	-0.593968
Zn2	Zn	1.605980	-0.418644	-0.418282
Zn3	Zn	1.430438	-0.294822	-0.418307
Zn4	Zn	1.430376	-0.418587	-0.593923
O5	O	1.518232	-0.356709	-0.506120
O6	O	1.753136	-0.311221	-0.570671
O7	O	1.582654	-0.402259	-0.271264
O8	O	1.453835	-0.191183	-0.441638
O9	O	1.753021	-0.402221	-0.441595
O10	O	1.582920	-0.191155	-0.570695
O11	O	1.453684	-0.311287	-0.271283
O12	O	1.283408	-0.311232	-0.441595
O13	O	1.453730	-0.402124	-0.740950
O14	O	1.283363	-0.402162	-0.570619
O15	O	1.582860	-0.311166	-0.740983
O16	O	1.582594	-0.522270	-0.441552
O17	O	1.453579	-0.522228	-0.570595
C18	C	1.245265	-0.356695	-0.506106
C19	C	1.128488	-0.356707	-0.506125
C20	C	1.073630	-0.404131	-0.573197
C21	C	0.963906	-0.404140	-0.573208
C22	C	0.963908	-0.309301	-0.439066
C23	C	1.073630	-0.309288	-0.439061
C24	C	1.073628	-0.458887	-0.650639
C25	C	0.963904	-0.458897	-0.650650
C26	C	1.518092	-0.549120	-0.506089
C27	C	1.518128	-0.631434	-0.506111
C28	C	1.518358	-0.930525	-0.506168
C29	C	1.437374	-0.899204	-0.587559
C30	C	1.436989	-0.813586	-0.587305
C31	C	1.518244	-0.782142	-0.506140
C32	C	1.488263	-0.813302	-0.395415
C33	C	1.487741	-0.898947	-0.395903
C34	C	1.629501	-0.898866	-0.534526
C35	C	1.628847	-0.813215	-0.536954
C36	C	1.518181	-0.698283	-0.506118
C37	C	1.518418	-1.014384	-0.506182
C38	C	1.792265	-0.356723	-0.506135
C39	C	1.909042	-0.356729	-0.506141
C40	C	1.518306	-0.356634	-0.780153
C41	C	1.518337	-0.356602	-0.896930
C42	C	1.518402	-0.163547	-0.506174
C43	C	1.518474	-0.081233	-0.506197
C44	C	1.585584	-0.309236	-0.951811
C45	C	1.585609	-0.309209	-1.061535
C46	C	1.451137	-0.403922	-1.061488
C47	C	1.451108	-0.403944	-0.951766
C48	C	1.663224	-0.254556	-0.951839
C49	C	1.663249	-0.254529	-1.061563
C50	C	1.518219	-0.356730	-0.233153
C51	C	1.518392	-0.356553	-0.116376
H52	H	0.919229	-0.270693	-0.384467
Cl53	Cl	1.782512	-0.286296	-0.899280
H54	H	1.455945	-0.919745	-0.669927
Cl55	Cl	1.119668	-0.435274	-0.776322
H56	H	1.641479	-0.197204	-0.922086
Cl57	Cl	1.142591	-0.249655	-0.354758
Cl58	Cl	0.911418	-0.427289	-0.770073
Cl59	Cl	1.364153	-0.780295	-0.357659
H60	H	1.692377	-0.791806	-0.481993
Cl61	Cl	1.618184	-0.170438	-1.114143
Cl62	Cl	1.788868	-0.278235	-1.107546
Cl63	Cl	1.362306	-0.929898	-0.358815
H64	H	1.107620	-0.513341	-0.621352
H65	H	1.396399	-0.442465	-1.106149
Cl66	Cl	0.917858	-0.547418	-0.616750
Cl67	Cl	1.465944	-0.781052	-0.714065
Cl68	Cl	1.663758	-0.781767	-0.662765
Cl69	Cl	1.310959	-0.932549	-0.558947
H70	H	1.354607	-0.793164	-0.568521
Cl71	Cl	1.574845	-0.930944	-0.299074
H72	H	1.396345	-0.442512	-0.907086
H73	H	1.689837	-0.919120	-0.475245
H74	H	1.656833	-0.920408	-0.613890
Cl75	Cl	1.576463	-0.781861	-0.299229
