data_functionalizedCrystal
_audit_creation_method	'MofGen! by Chris Wilmer'
_symmetry_space_group_name_H-M	'P1'
_symmetry_Int_Tables_number	1
_symmetry_cell_setting	triclinic
loop_
_symmetry_equiv_pos_as_xyz
  x,y,z
_cell_length_a	10.540514
_cell_length_b	10.540539
_cell_length_c	9.616153
_cell_angle_alpha	89.995612
_cell_angle_beta	90.002713
_cell_angle_gamma	95.479674
loop_
_atom_site_label
_atom_site_type_symbol
_atom_site_fract_x
_atom_site_fract_y
_atom_site_fract_z
O1	O	1.685901	-0.178751	0.115656
O2	O	1.316484	-0.195641	0.115654
O3	O	1.509621	-0.002489	0.115653
O4	O	1.492765	-0.371903	0.115657
O5	O	1.509613	-0.002475	-0.115638
O6	O	1.316476	-0.195627	-0.115637
O7	O	1.685894	-0.178738	-0.115635
Zn8	Zn	1.501184	-0.187180	-0.152359
Zn9	Zn	1.501194	-0.187198	0.152378
O10	O	1.492757	-0.371890	-0.115635
C11	C	1.269177	-0.194374	0.000008
C12	C	1.128227	-0.190605	0.000008
C13	C	1.057522	-0.328745	0.000012
C14	C	0.910908	-0.324871	0.000544
C15	C	0.935894	-0.115486	0.131837
C16	C	1.082433	-0.120339	0.131941
C17	C	1.082827	-0.118280	-0.131090
C18	C	0.935848	-0.116947	-0.132816
C19	C	1.508353	0.044821	0.000010
C20	C	1.504571	0.185769	0.000018
C21	C	1.733201	-0.180004	0.000013
C22	C	1.874151	-0.183774	0.000023
C23	C	1.494025	-0.419199	0.000012
C24	C	1.497807	-0.560147	0.000013
N25	N	1.501186	-0.187167	-0.360333
C26	C	1.359652	0.369182	0.000536
C27	C	1.363486	0.222564	0.000016
C28	C	1.572463	0.247440	-0.132061
C29	C	1.567648	0.393984	-0.132172
C30	C	1.570526	0.394487	0.130850
C31	C	1.571826	0.247505	0.132596
C32	C	1.604888	-0.084201	-0.580660
C33	C	1.604608	-0.083808	-0.419493
C34	C	1.368480	-0.157049	-0.418865
C35	C	1.369097	-0.156327	-0.580083
C36	C	1.529029	-0.320614	-0.580206
C37	C	1.532024	-0.319741	-0.418978
N38	N	1.501202	-0.187201	0.360352
H39	H	0.893290	-0.162306	0.230308
H40	H	1.309684	0.180809	-0.094822
H41	H	0.868241	-0.378582	-0.093924
F42	F	1.703722	0.456228	0.132015
F43	F	1.123988	-0.178375	-0.261723
H44	H	1.344753	-0.058994	-0.617701
F45	F	1.734212	-0.107521	-0.631311
F46	F	0.882261	-0.182173	-0.260282
H47	H	0.911663	-0.014100	-0.141168
F48	F	0.906729	0.019969	0.137762
H49	H	1.110661	-0.170226	0.230851
F50	F	1.144613	0.014894	-0.132771
H51	H	1.524867	0.426030	0.230957
F52	F	1.581817	0.044444	-0.633627
H53	H	1.522150	0.206637	0.230304
H54	H	1.586702	0.015178	-0.380940
H55	H	1.453433	-0.397278	-0.618360
F56	F	1.293660	0.166861	0.123767
F57	F	1.733491	-0.107496	-0.367761
H58	H	1.130439	-0.018867	0.137568
F59	F	1.286806	0.406547	0.124338
F60	F	1.706273	0.215852	0.143030
F61	F	1.265137	-0.250570	-0.631093
H62	H	1.289412	-0.230018	-0.380547
H63	H	1.304144	0.399390	-0.093649
H64	H	1.343568	-0.060813	-0.378503
F65	F	1.652904	-0.358066	-0.633323
H66	H	1.086058	-0.384778	-0.094499
H67	H	1.087752	-0.383969	0.094399
F68	F	1.510813	0.191766	-0.260534
F69	F	1.502052	0.430848	-0.261218
H70	H	1.669114	0.441962	-0.138164
F71	F	1.707888	0.218237	-0.138484
F72	F	1.659628	-0.349588	-0.368965
H73	H	0.869180	-0.378364	0.095591
F74	F	1.439828	-0.424737	-0.366340
