data_functionalizedCrystal
_audit_creation_method	'MofGen! by Chris Wilmer'
_symmetry_space_group_name_H-M	'P1'
_symmetry_Int_Tables_number	1
_symmetry_cell_setting	triclinic
loop_
_symmetry_equiv_pos_as_xyz
  x,y,z
_cell_length_a	6.817900
_cell_length_b	12.200722
_cell_length_c	14.125465
_cell_angle_alpha	94.993976
_cell_angle_beta	100.398878
_cell_angle_gamma	107.140920
loop_
_atom_site_label
_atom_site_type_symbol
_atom_site_fract_x
_atom_site_fract_y
_atom_site_fract_z
V1	V	-4.009703	-0.157727	-0.300078
V2	V	-3.759703	0.092273	-0.050078
V3	V	-3.509703	0.342273	0.199922
V4	V	-3.259703	0.592273	0.449922
O5	O	-3.978506	0.008593	-0.294261
O6	O	-3.728506	0.258593	-0.044261
O7	O	-3.478506	0.508593	0.205739
O8	O	-3.228506	0.758593	0.455739
O9	O	-3.979643	-0.313722	-0.298127
O10	O	-3.729643	-0.063722	-0.048127
O11	O	-3.479643	0.186278	0.201873
O12	O	-3.229643	0.436278	0.451873
O13	O	-3.945510	-0.154856	-0.430906
O14	O	-3.695510	0.095144	-0.180906
O15	O	-3.445510	0.345144	0.069094
O16	O	-3.195510	0.595144	0.319094
O17	O	-4.012876	-0.151372	-0.160562
O18	O	-3.762876	0.098628	0.089438
O19	O	-3.512876	0.348628	0.339438
O20	O	-3.262876	0.598628	0.589438
V21	V	-4.493001	-0.137886	-0.283378
V22	V	-4.243001	0.112114	-0.033378
V23	V	-3.993001	0.362114	0.216622
V24	V	-3.743001	0.612114	0.466622
O25	O	-4.271455	-0.201251	-0.336710
O26	O	-4.021455	0.048749	-0.086710
O27	O	-3.771455	0.298749	0.163290
O28	O	-3.521455	0.548749	0.413290
O29	O	-4.681446	-0.094362	-0.246747
O30	O	-4.431446	0.155638	0.003253
O31	O	-4.181446	0.405638	0.253253
O32	O	-3.931446	0.655638	0.503253
O33	O	-4.299854	0.018109	-0.285330
O34	O	-4.049854	0.268109	-0.035330
O35	O	-3.799854	0.518109	0.214670
O36	O	-3.549854	0.768109	0.464670
O37	O	-4.641594	-0.304206	-0.289196
O38	O	-4.391594	-0.054206	-0.039196
O39	O	-4.141594	0.195794	0.210804
O40	O	-3.891594	0.445794	0.460804
O41	O	-4.607225	-0.144241	-0.422894
O42	O	-4.357225	0.105759	-0.172894
O43	O	-4.107225	0.355759	0.077106
O44	O	-3.857225	0.605759	0.327106
O45	O	-4.333987	-0.140757	-0.152550
O46	O	-4.083987	0.109243	0.097450
O47	O	-3.833987	0.359243	0.347450
O48	O	-3.583987	0.609243	0.597450
C49	C	-3.829616	-0.351764	-0.293419
C50	C	-3.579616	-0.101764	-0.043419
C51	C	-3.329616	0.148236	0.206581
C52	C	-3.079616	0.398236	0.456581
C53	C	-3.886221	-0.479288	-0.292696
C54	C	-3.636221	-0.229288	-0.042696
C55	C	-3.386221	0.020712	0.207304
C56	C	-3.136221	0.270712	0.457304
C57	C	-3.932184	-0.582851	-0.292099
C58	C	-3.682184	-0.332851	-0.042099
C59	C	-3.432184	-0.082851	0.207901
C60	C	-3.182184	0.167149	0.457901
C61	C	-3.989867	-0.712776	-0.291356
C62	C	-3.739867	-0.462776	-0.041356
C63	C	-3.489867	-0.212776	0.208644
C64	C	-3.239867	0.037224	0.458644
C65	C	-3.786076	-0.149113	-0.462791
C66	C	-3.536076	0.100887	-0.212791
C67	C	-3.286076	0.350887	0.037209
C68	C	-3.036076	0.600887	0.287209
C69	C	-3.814996	-0.147798	-0.569744
C70	C	-3.564996	0.102202	-0.319744
C71	C	-3.314996	0.352202	-0.069744
C72	C	-3.064996	0.602202	0.180256
C73	C	-3.868005	-0.145386	-0.765566
C74	C	-3.618005	0.104614	-0.515566
C75	C	-3.368005	0.354614	-0.265566
C76	C	-3.118005	0.604614	-0.015566
C77	C	-4.054067	-0.150225	-0.817890
C78	C	-3.804067	0.099775	-0.567890
C79	C	-3.554067	0.349775	-0.317890
C80	C	-3.304067	0.599775	-0.067890
C81	C	-4.083564	-0.148882	-0.926852
C82	C	-3.833564	0.101118	-0.676852
C83	C	-3.583564	0.351118	-0.426852
C84	C	-3.333564	0.601118	-0.176852
C85	C	-3.838500	-0.146728	-0.656594
C86	C	-3.588500	0.103272	-0.406594
C87	C	-3.338500	0.353272	-0.156594
C88	C	-3.088500	0.603272	0.093406
C89	C	-4.113223	0.056145	-0.290035
C90	C	-3.863223	0.306145	-0.040035
C91	C	-3.613223	0.556145	0.209965
C92	C	-3.363223	0.806145	0.459965
C93	C	-4.035857	0.183668	-0.290764
C94	C	-3.785857	0.433668	-0.040764
C95	C	-3.535857	0.683668	0.209236
C96	C	-3.285857	0.933668	0.459236
C97	C	-4.156764	-0.146503	-0.120660
C98	C	-3.906764	0.103497	0.129340
C99	C	-3.656764	0.353497	0.379340
C100	C	-3.406764	0.603497	0.629340
C101	C	-4.107082	-0.147813	-0.013706
C102	C	-3.857082	0.102187	0.236294
C103	C	-3.607082	0.352187	0.486294
C104	C	-3.357082	0.602187	0.736294
H105	H	-4.191212	-0.155386	-0.780855
H106	H	-3.941212	0.094614	-0.530855
H107	H	-3.691212	0.344614	-0.280855
H108	H	-3.441212	0.594614	-0.030855
Cl109	Cl	-3.656291	-0.137448	-0.822746
Cl110	Cl	-3.406291	0.112552	-0.572746
Cl111	Cl	-3.156291	0.362552	-0.322746
Cl112	Cl	-2.906291	0.612552	-0.072746
