data_functionalizedCrystal
_audit_creation_method	'MofGen! by Chris Wilmer'
_symmetry_space_group_name_H-M	'P1'
_symmetry_Int_Tables_number	1
_symmetry_cell_setting	triclinic
loop_
_symmetry_equiv_pos_as_xyz
  x,y,z
_cell_length_a	12.759401
_cell_length_b	12.759399
_cell_length_c	12.759393
_cell_angle_alpha	89.969730
_cell_angle_beta	89.980926
_cell_angle_gamma	90.015277
loop_
_atom_site_label
_atom_site_type_symbol
_atom_site_fract_x
_atom_site_fract_y
_atom_site_fract_z
Zn1	Zn	1.606258	-0.418218	-0.593978
Zn2	Zn	1.606150	-0.593931	-0.418297
Zn3	Zn	1.430559	-0.418267	-0.418318
Zn4	Zn	1.430548	-0.593856	-0.593939
O5	O	1.518379	-0.506068	-0.506133
O6	O	1.753265	-0.441537	-0.570682
O7	O	1.582816	-0.570681	-0.271279
O8	O	1.453916	-0.271240	-0.441645
O9	O	1.753185	-0.570633	-0.441610
O10	O	1.583001	-0.271203	-0.570702
O11	O	1.453810	-0.441622	-0.271294
O12	O	1.283536	-0.441549	-0.441606
O13	O	1.453897	-0.570504	-0.740965
O14	O	1.283528	-0.570553	-0.570634
O15	O	1.582991	-0.441464	-0.740994
O16	O	1.582806	-0.740942	-0.441571
O17	O	1.453792	-0.740887	-0.570614
C18	C	1.245411	-0.506049	-0.506119
C19	C	1.128635	-0.506066	-0.506138
C20	C	1.073796	-0.573345	-0.573211
C21	C	0.964072	-0.573359	-0.573223
C22	C	0.964035	-0.438809	-0.439078
C23	C	1.073757	-0.438792	-0.439072
C24	C	1.073816	-0.651030	-0.650656
C25	C	0.964092	-0.651043	-0.650667
C26	C	1.518314	-0.779035	-0.506109
C27	C	1.518383	-0.895812	-0.506134
C28	C	1.585637	-0.950668	-0.439018
C29	C	1.585704	-1.060392	-0.439053
C30	C	1.451254	-1.060394	-0.573324
C31	C	1.451193	-0.950672	-0.573293
C32	C	1.709713	-1.210270	-0.401662
C33	C	1.776958	-1.265130	-0.334530
C34	C	1.793122	-1.229588	-0.232019
C35	C	1.742025	-1.139189	-0.196620
C36	C	1.674772	-1.084335	-0.263747
C37	C	1.658629	-1.119875	-0.366273
C38	C	1.327183	-0.800792	-0.610673
C39	C	1.259924	-0.745936	-0.677795
C40	C	1.243749	-0.781475	-0.780308
C41	C	1.294828	-0.871878	-0.815703
C42	C	1.362087	-0.926734	-0.748580
C43	C	1.378263	-0.891187	-0.646069
C44	C	1.792412	-0.506088	-0.506148
C45	C	1.909188	-0.506097	-0.506154
C46	C	1.518455	-0.505970	-0.780166
C47	C	1.518487	-0.505928	-0.896943
C48	C	1.518472	-0.232035	-0.506180
C49	C	1.518512	-0.115258	-0.506200
C50	C	1.585688	-0.573052	-1.061533
C51	C	1.585663	-0.573101	-0.951809
C52	C	1.451325	-0.438709	-0.951807
C53	C	1.451346	-0.438665	-1.061530
C54	C	1.623128	-0.697070	-0.801847
C55	C	1.690299	-0.764277	-0.746987
C56	C	1.792815	-0.780402	-0.782610
C57	C	1.828180	-0.729305	-0.873092
C58	C	1.761015	-0.662090	-0.927947
C59	C	1.658485	-0.645985	-0.892325
C60	C	1.413892	-0.314696	-1.211493
C61	C	1.346731	-0.247475	-1.266350
C62	C	1.244214	-0.231339	-1.230729
C63	C	1.208852	-0.282417	-1.140243
C64	C	1.276013	-0.349638	-1.085386
C65	C	1.378529	-0.365776	-1.121015
C66	C	1.518363	-0.506090	-0.233166
C67	C	1.518534	-0.505835	-0.116389
H68	H	1.103626	-0.629333	-0.732063
C69	C	1.169752	-0.721147	-0.854139
H70	H	1.167433	-0.755270	-0.920259
H71	H	1.194786	-0.651583	-0.863005
H72	H	1.101375	-0.719393	-0.824707
H73	H	1.125380	-0.269265	-1.111229
H74	H	0.934296	-0.732392	-0.628734
C75	C	1.867088	-1.289928	-0.158172
H76	H	1.869390	-1.255821	-0.092044
H77	H	1.935466	-1.291704	-0.187588
H78	H	1.842027	-1.359489	-0.149315
H79	H	1.403682	-1.000342	-0.777409
H80	H	1.911663	-0.742430	-0.902082
H81	H	1.818562	-1.338733	-0.363361
C82	C	1.659541	-0.890320	-0.365150
H83	H	1.649866	-0.817116	-0.374733
H84	H	1.730135	-0.908228	-0.380585
H85	H	1.644200	-0.908376	-0.294549
C86	C	1.866702	-0.854331	-0.722272
H87	H	1.932828	-0.856611	-0.756441
H88	H	1.837318	-0.922719	-0.720406
H89	H	1.875555	-0.829257	-0.652743
C90	C	1.134081	-0.364775	-0.365305
H91	H	1.207288	-0.374390	-0.374912
H92	H	1.116073	-0.380054	-0.294685
H93	H	1.116110	-0.294206	-0.380824
C94	C	1.618564	-0.984907	-0.224825
H95	H	1.576195	-0.957332	-0.279486
H96	H	1.669117	-0.934128	-0.204621
H97	H	1.575685	-1.001929	-0.166358
C98	C	1.377436	-0.364818	-0.891458
H99	H	1.387048	-0.374462	-0.818255
H100	H	1.306842	-0.380176	-0.909425
H101	H	1.392850	-0.294220	-0.909455
C102	C	1.119774	-0.755387	-0.611104
H103	H	1.064313	-0.801874	-0.593500
H104	H	1.161658	-0.742824	-0.550868
H105	H	1.161692	-0.785856	-0.664557
H106	H	0.930096	-0.622001	-0.728019
H107	H	1.789810	-0.620485	-1.001613
H108	H	1.755183	-1.110265	-0.113142
H109	H	1.640396	-0.627747	-1.106196
H110	H	0.919340	-0.384036	-0.384476
C111	C	1.691945	-1.249357	-0.514430
H112	H	1.644586	-1.203734	-0.549347
H113	H	1.663427	-1.318113	-0.512629
H114	H	1.756864	-1.250321	-0.550894
C115	C	1.277044	-0.910980	-0.928465
H116	H	1.317091	-0.972681	-0.939927
H117	H	1.298245	-0.858308	-0.976661
H118	H	1.204815	-0.926093	-0.938365
C119	C	1.237121	-0.405832	-0.985856
H120	H	1.291804	-0.448169	-0.958285
H121	H	1.178663	-0.448721	-1.002764
H122	H	1.216918	-0.355263	-0.935105
H123	H	1.396549	-1.105075	-0.628001
C124	C	1.344956	-0.761708	-0.497900
H125	H	1.304884	-0.700025	-0.486427
H126	H	1.417175	-0.746593	-0.487972
H127	H	1.323743	-0.814400	-0.449721
H128	H	1.539649	-0.683957	-0.772841
C129	C	1.651396	-0.820490	-0.647470
H130	H	1.580712	-0.801278	-0.634120
H131	H	1.693842	-0.800711	-0.589613
H132	H	1.655621	-0.894166	-0.657294
H133	H	1.218339	-0.672321	-0.648970
C134	C	1.170337	-0.157400	-1.291074
H135	H	1.206074	-0.129289	-1.350068
H136	H	1.148796	-0.101924	-1.246369
H137	H	1.110565	-0.195388	-1.314032
H138	H	1.375535	-0.205877	-1.340023
C139	C	1.526663	-0.332444	-1.250680
H140	H	1.538109	-0.292383	-1.312416
H141	H	1.536607	-0.404665	-1.265734
H142	H	1.574849	-0.311210	-1.198064
