data_functionalizedCrystal
_audit_creation_method	'MofGen! by Chris Wilmer'
_symmetry_space_group_name_H-M	'P1'
_symmetry_Int_Tables_number	1
_symmetry_cell_setting	triclinic
loop_
_symmetry_equiv_pos_as_xyz
  x,y,z
_cell_length_a	16.959455
_cell_length_b	12.594516
_cell_length_c	12.594517
_cell_angle_alpha	90.011943
_cell_angle_beta	90.008011
_cell_angle_gamma	90.013000
loop_
_atom_site_label
_atom_site_type_symbol
_atom_site_fract_x
_atom_site_fract_y
_atom_site_fract_z
Zn1	Zn	1.208357	-0.423947	0.601834
Zn2	Zn	1.208303	-0.601912	0.423862
Zn3	Zn	1.076200	-0.423939	0.423867
Zn4	Zn	1.076159	-0.601874	0.601796
O5	O	1.142255	-0.512918	0.512840
O6	O	1.318960	-0.447573	0.578239
O7	O	1.190774	-0.578317	0.274917
O8	O	1.093770	-0.274994	0.447493
O9	O	1.318921	-0.578324	0.447484
O10	O	1.190865	-0.275000	0.578244
O11	O	1.093718	-0.447560	0.274921
O12	O	0.965583	-0.447523	0.447456
O13	O	1.093701	-0.578259	0.750747
O14	O	0.965554	-0.578251	0.578180
O15	O	1.190826	-0.447536	0.750775
O16	O	1.190734	-0.750853	0.447447
O17	O	1.093649	-0.750825	0.578175
C18	C	0.936888	-0.512883	0.512815
C19	C	0.849032	-0.512893	0.512830
C20	C	0.477547	-0.444792	0.444914
C21	C	0.477565	-0.581131	0.580826
C22	C	0.560111	-0.581116	0.580820
C23	C	0.601379	-0.512939	0.512858
C24	C	0.560101	-0.444777	0.444903
C25	C	0.601395	-0.649284	0.648766
C26	C	0.683946	-0.649273	0.648761
C27	C	0.725215	-0.581089	0.580804
C28	C	0.683932	-0.512924	0.512847
C29	C	0.725200	-0.444747	0.444886
C30	C	0.683919	-0.376575	0.376934
C31	C	0.601370	-0.376594	0.376946
C32	C	0.807764	-0.581071	0.580792
C33	C	0.807754	-0.444731	0.444875
C34	C	1.142203	-0.789459	0.512829
C35	C	1.142253	-0.907764	0.512860
C36	C	1.089443	-0.977041	0.583913
C37	C	1.070199	-1.047881	0.486791
C38	C	1.161569	-1.047724	0.609999
C39	C	1.122971	-0.977046	0.415686
C40	C	1.214374	-0.976883	0.538961
C41	C	1.195158	-1.047690	0.441771
C42	C	1.348423	-0.512954	0.512865
C43	C	1.436279	-0.512969	0.512875
C44	C	1.142265	-0.512894	0.790460
C45	C	1.142269	-0.512884	0.908766
C46	C	1.142328	-0.235297	0.512873
C47	C	1.142359	-0.116992	0.512888
C48	C	1.195090	-0.441811	1.048798
C49	C	1.214401	-0.538909	0.977980
C50	C	1.122993	-0.415797	0.978012
C51	C	1.161614	-0.610073	1.048733
C52	C	1.070173	-0.486896	1.048772
C53	C	1.089457	-0.584060	0.977986
C54	C	1.142246	-0.512953	1.236299
C55	C	1.142266	-0.512924	1.117993
H56	H	0.443960	-0.636644	0.636151
H57	H	1.177863	-1.078769	0.692138
H58	H	1.239794	-0.381765	1.079888
H59	H	0.567751	-0.321093	0.321622
H60	H	1.106692	-0.333675	0.946944
H61	H	1.239863	-1.078517	0.381627
H62	H	1.275370	-0.560911	0.946881
H63	H	1.106606	-0.946129	0.333526
F64	F	0.990540	-1.088640	0.457940
F65	F	1.031067	-0.662729	0.937604
H66	H	1.275302	-0.945676	0.561061
H67	H	1.044703	-0.946018	0.643913
F68	F	0.557471	-0.721866	0.721062
H69	H	0.717551	-0.704782	0.704093
H70	H	0.841348	-0.389206	0.389538
F71	F	0.727848	-0.304024	0.304601
F72	F	0.851695	-0.653624	0.653100
F73	F	1.183016	-0.717444	1.089164
F74	F	0.433613	-0.372238	0.372603
H75	H	1.009222	-0.464862	1.079893
