data_functionalizedCrystal
_audit_creation_method	'MofGen! by Chris Wilmer'
_symmetry_space_group_name_H-M	'P1'
_symmetry_Int_Tables_number	1
_symmetry_cell_setting	triclinic
loop_
_symmetry_equiv_pos_as_xyz
  x,y,z
_cell_length_a	10.654550
_cell_length_b	14.421503
_cell_length_c	15.944545
_cell_angle_alpha	89.997810
_cell_angle_beta	83.990537
_cell_angle_gamma	90.011231
loop_
_atom_site_label
_atom_site_type_symbol
_atom_site_fract_x
_atom_site_fract_y
_atom_site_fract_z
O1	O	1.666318	0.077193	0.117965
O2	O	1.300694	0.077178	0.129205
O3	O	1.493495	0.077175	0.001368
O4	O	1.473518	0.077196	0.245803
O5	O	1.493463	-0.077049	0.001387
O6	O	1.300662	-0.077045	0.129224
O7	O	1.666287	-0.077031	0.117984
Cu8	Cu	1.483471	-0.091120	0.123606
Cu9	Cu	1.483509	0.091267	0.123583
O10	O	1.473486	-0.077027	0.245822
C11	C	1.253891	0.000065	0.128389
C12	C	1.114480	0.000059	0.125920
N13	N	1.483454	-0.219401	0.123621
C14	C	1.034018	0.000079	0.201189
C15	C	0.903027	0.000095	0.198864
C16	C	0.932973	0.000074	0.045995
C17	C	1.063962	0.000052	0.048321
C18	C	1.084536	0.000086	0.278788
C19	C	1.004072	0.000107	0.354063
C20	C	0.873082	0.000123	0.351738
C21	C	0.822554	0.000117	0.274138
C22	C	1.394287	-0.469053	0.182706
C23	C	1.507764	-0.530850	0.199671
C24	C	1.483485	-0.408562	0.123601
C25	C	1.370037	-0.530860	0.106657
C26	C	1.483504	-0.591284	0.123584
C27	C	1.597019	-0.468998	0.140604
C28	C	1.459217	-0.469003	0.047557
C29	C	1.572776	-0.530772	0.064489
C30	C	1.483472	-0.303301	0.123614
C31	C	1.483530	-0.696543	0.123571
C32	C	1.713090	0.000085	0.118800
C33	C	1.852501	0.000097	0.121269
C34	C	1.492651	0.000062	-0.029921
C35	C	1.490169	0.000060	-0.123182
N36	N	1.483537	0.219549	0.123562
C37	C	1.363245	0.000073	-0.394550
C38	C	1.424453	0.076116	-0.343619
C39	C	1.481317	0.000086	-0.458877
C40	C	1.424453	-0.075936	-0.343627
C41	C	1.485660	0.000071	-0.293939
C42	C	1.542494	0.076191	-0.409175
C43	C	1.542476	-0.075929	-0.409187
C44	C	1.603771	0.000133	-0.358289
C45	C	1.478812	0.000095	-0.553894
C46	C	1.488174	0.000069	-0.198925
C47	C	1.474330	0.000087	0.277111
C48	C	1.476812	0.000096	0.370372
H49	H	1.191193	0.000077	0.280690
H50	H	1.318933	-0.441954	0.232731
O51	O	1.364782	0.152738	-0.309469
C52	C	1.170653	0.239398	-0.288925
C53	C	1.238077	0.152581	-0.327622
H54	H	1.068208	0.239310	-0.303602
H55	H	1.173823	0.239009	-0.217678
H56	H	1.220054	0.304189	-0.316899
H57	H	1.188728	0.087745	-0.299715
H58	H	1.234919	0.153052	-0.398869
O59	O	1.662699	-0.562948	0.004756
C60	C	1.707368	-0.653227	-0.122018
C61	C	1.605398	-0.616830	-0.054444
H62	H	1.661082	-0.696814	-0.169889
H63	H	1.758911	-0.592177	-0.155471
H64	H	1.777625	-0.697691	-0.090681
H65	H	1.535061	-0.572381	-0.085714
H66	H	1.553952	-0.677922	-0.020996
O67	O	1.601858	0.152948	-0.443331
C68	C	1.666197	0.239037	-0.570105
C69	C	1.598917	0.152084	-0.531531
H70	H	1.663866	0.238358	-0.641421
H71	H	1.616234	0.303789	-0.542549
H72	H	1.768392	0.239307	-0.554899
H73	H	1.496721	0.151724	-0.546723
H74	H	1.648979	0.087371	-0.559088
H75	H	1.045221	0.000103	0.417242
H76	H	1.528308	-0.558015	0.263972
H77	H	1.261560	0.000144	-0.410791
H78	H	1.274088	-0.558035	0.092334
H79	H	1.705535	0.000179	-0.342209
O80	O	1.601715	-0.152715	-0.443325
C81	C	1.606453	-0.319682	-0.448477
C82	C	1.539241	-0.232791	-0.409765
H83	H	1.555986	-0.384445	-0.421347
H84	H	1.604755	-0.318636	-0.519844
H85	H	1.708445	-0.320287	-0.432859
H86	H	1.437223	-0.232129	-0.425319
H87	H	1.541041	-0.233871	-0.338408
H88	H	0.891823	0.000085	-0.017184
O89	O	1.434448	-0.436604	-0.029097
C90	C	1.286839	-0.431355	-0.133639
C91	C	1.314735	-0.468093	-0.046809
H92	H	1.190064	-0.456816	-0.147994
H93	H	1.287908	-0.352311	-0.133085
H94	H	1.361949	-0.457795	-0.184150
H95	H	1.239656	-0.441722	0.003750
H96	H	1.313712	-0.547137	-0.047435
H97	H	1.374555	-0.140222	-0.314994
H98	H	1.692988	-0.441939	0.155005
O99	O	0.795098	0.000180	0.424934
C100	C	0.779227	0.000147	0.576804
C101	C	0.867684	0.000099	0.493971
H102	H	0.837878	0.000062	0.632642
H103	H	0.717212	0.064714	0.579585
H104	H	0.717092	-0.064371	0.579503
H105	H	0.929898	0.064573	0.491217
H106	H	0.929613	-0.064511	0.491225
H107	H	0.715892	0.000116	0.272251
H108	H	1.129476	0.000038	-0.012970
