data_functionalizedCrystal
_audit_creation_method	'MofGen! by Chris Wilmer'
_symmetry_space_group_name_H-M	'P1'
_symmetry_Int_Tables_number	1
_symmetry_cell_setting	triclinic
loop_
_symmetry_equiv_pos_as_xyz
  x,y,z
_cell_length_a	15.995343
_cell_length_b	19.188924
_cell_length_c	15.072220
_cell_angle_alpha	89.996779
_cell_angle_beta	89.991823
_cell_angle_gamma	83.315574
loop_
_atom_site_label
_atom_site_type_symbol
_atom_site_fract_x
_atom_site_fract_y
_atom_site_fract_z
O1	O	1.110668	0.089966	-0.073698
O2	O	1.610668	0.589966	0.426302
O3	O	0.866851	0.101085	-0.073719
O4	O	1.366851	0.601085	0.426281
O5	O	0.995798	-0.006113	-0.073697
O6	O	1.495798	0.493887	0.426303
O7	O	0.981720	0.197164	-0.073720
O8	O	1.481720	0.697164	0.426280
O9	O	0.995766	-0.006107	0.073868
O10	O	1.495766	0.493893	0.573868
O11	O	0.866819	0.101091	0.073846
O12	O	1.366819	0.601091	0.573846
O13	O	1.110636	0.089972	0.073867
O14	O	1.610636	0.589972	0.573867
Zn15	Zn	0.988722	0.095532	0.097286
Zn16	Zn	1.488722	0.595532	0.597286
Zn17	Zn	0.988764	0.095524	-0.097138
Zn18	Zn	1.488764	0.595524	0.402862
O19	O	0.981688	0.197170	0.073845
O20	O	1.481688	0.697170	0.573845
C21	C	0.835642	0.100629	0.000060
C22	C	1.335642	0.600629	0.500060
C23	C	0.742696	0.099254	0.000053
C24	C	1.242696	0.599254	0.500053
C25	C	0.572519	0.096758	0.000065
C26	C	1.072519	0.596758	0.500065
C27	C	0.549459	0.019377	0.000073
C28	C	1.049459	0.519377	0.500073
C29	C	0.452786	0.017921	0.000413
C30	C	0.952786	0.517921	0.500413
C31	C	0.404968	0.094299	0.000076
C32	C	0.904968	0.594299	0.500076
C33	C	0.433898	0.133210	0.084171
C34	C	0.933898	0.633210	0.584171
C35	C	0.530687	0.134128	0.084236
C36	C	1.030687	0.634128	0.584236
C37	C	0.530629	0.135254	-0.083579
C38	C	1.030629	0.635254	0.416421
C39	C	0.434145	0.132398	-0.084679
C40	C	0.934145	0.632398	0.415321
C41	C	0.310275	0.092914	0.000085
C42	C	0.810275	0.592914	0.500085
C43	C	0.667211	0.098145	0.000061
C44	C	1.167211	0.598145	0.500061
C45	C	0.995327	-0.032122	0.000086
C46	C	1.495327	0.467878	0.500086
C47	C	0.993962	-0.109630	0.000088
C48	C	1.493962	0.390370	0.500088
C49	C	0.993342	-0.146034	-0.080350
C50	C	1.493342	0.353966	0.419650
C51	C	0.992047	-0.218860	-0.080357
C52	C	1.492047	0.281140	0.419643
C53	C	0.991388	-0.255281	0.000079
C54	C	1.491388	0.244719	0.500079
C55	C	0.992004	-0.218868	0.080528
C56	C	1.492004	0.281132	0.580528
C57	C	0.993291	-0.146043	0.080532
C58	C	1.493291	0.353957	0.580532
N59	N	1.037004	-0.374827	0.059950
N60	N	1.537004	0.125173	0.559950
N61	N	1.035783	-0.444008	0.059940
N62	N	1.535783	0.055992	0.559940
C63	C	0.987510	-0.474700	0.000070
C64	C	1.487510	0.025300	0.500070
N65	N	0.940514	-0.433598	-0.059803
N66	N	1.440514	0.066402	0.440197
N67	N	0.941738	-0.364411	-0.059796
N68	N	1.441738	0.135589	0.440204
C69	C	0.989993	-0.334248	0.000083
C70	C	1.489993	0.165752	0.500083
C71	C	0.985485	-0.590070	-0.080381
C72	C	1.485485	-0.090070	0.419619
C73	C	0.984184	-0.662897	-0.080384
C74	C	1.484184	-0.162897	0.419616
C75	C	0.984150	-0.662905	0.080502
C76	C	1.484150	-0.162905	0.580502
C77	C	0.985442	-0.590078	0.080503
C78	C	1.485442	-0.090078	0.580503
C79	C	0.986113	-0.553666	0.000059
C80	C	1.486113	-0.053666	0.500059
C81	C	1.141845	0.090428	0.000086
C82	C	1.641845	0.590428	0.500086
C83	C	1.234791	0.091803	0.000088
C84	C	1.734791	0.591803	0.500088
C85	C	0.982159	0.223179	0.000060
C86	C	1.482159	0.723179	0.500060
C87	C	0.983525	0.300687	0.000052
C88	C	1.483525	0.800687	0.500052
N89	N	0.988700	0.095537	0.229975
N90	N	1.488700	0.595537	0.729975
N91	N	0.988793	0.095514	-0.229826
N92	N	1.488793	0.595514	0.270174
C93	C	0.988763	0.095522	0.589176
C94	C	1.488763	0.595522	1.089176
C95	C	0.919535	0.152689	0.551557
C96	C	1.419535	0.652689	1.051557
C97	C	0.919692	0.152897	0.448732
C98	C	1.419692	0.652897	0.948732
C99	C	0.988731	0.095529	0.410972
C100	C	1.488731	0.595529	0.910972
C101	C	1.076037	0.111439	0.448269
C102	C	1.576037	0.611439	0.948269
C103	C	1.075649	0.111845	0.551127
C104	C	1.575649	0.611845	1.051127
C105	C	0.971463	0.022276	0.551282
C106	C	1.471463	0.522276	1.051282
C107	C	0.969457	0.022764	0.448419
C108	C	1.469457	0.522764	0.948419
C109	C	0.988718	0.095532	0.310259
C110	C	1.488718	0.595532	0.810259
C111	C	0.988781	0.095520	0.689889
C112	C	1.488781	0.595520	1.189889
H113	H	0.578539	-0.010125	0.060295
H114	H	1.078539	0.489875	0.560295
H115	H	0.986026	-0.560421	-0.145883
H116	H	1.486026	-0.060421	0.354117
H117	H	0.854419	0.143366	0.576314
H118	H	1.354419	0.643366	1.076314
C119	C	0.428006	-0.023015	0.082349
C120	C	0.928006	0.476985	0.582349
N121	N	0.409343	-0.053844	0.144072
N122	N	0.909343	0.446156	0.644072
C123	C	0.934211	0.225708	0.586456
C124	C	1.434211	0.725708	1.086456
N125	N	0.945268	0.280705	0.612743
N126	N	1.445268	0.780705	1.112743
C127	C	0.566990	0.098151	0.169488
C128	C	1.066990	0.598151	0.669488
N129	N	0.594330	0.071049	0.233701
N130	N	1.094330	0.571049	0.733701
C131	C	0.389369	0.207696	-0.091884
C132	C	0.889369	0.707696	0.408116
N133	N	0.355645	0.264414	-0.097303
N134	N	0.855645	0.764414	0.402697
C135	C	0.934583	0.226328	0.415469
C136	C	1.434583	0.726328	0.915469
N137	N	0.945804	0.281638	0.390417
N138	N	1.445804	0.781638	0.890417
C139	C	0.550093	0.210787	0.089077
C140	C	1.050093	0.710787	0.589077
N141	N	0.564707	0.268526	0.092729
N142	N	1.064707	0.768526	0.592729
H143	H	0.905235	0.010690	0.424042
H144	H	1.405235	0.510690	0.924042
C145	C	1.033191	-0.037399	0.413719
C146	C	1.533191	0.462601	0.913719
N147	N	1.081208	-0.082712	0.387590
N148	N	1.581208	0.417288	0.887590
C149	C	0.993978	-0.105998	0.169024
C150	C	1.493978	0.394002	0.669024
N151	N	0.994498	-0.075836	0.235678
N152	N	1.494498	0.424164	0.735678
H153	H	0.991537	-0.248505	-0.145861
H154	H	1.491537	0.251495	0.354139
H155	H	1.021951	-0.020266	0.575609
H156	H	1.521951	0.479734	1.075609
H157	H	0.985954	-0.560439	0.146005
H158	H	1.485954	-0.060439	0.646005
H159	H	0.433892	-0.012538	-0.059857
H160	H	0.933892	0.487462	0.440143
C161	C	0.568955	0.102265	-0.169719
C162	C	1.068955	0.602265	0.330281
N163	N	0.597823	0.077409	-0.234596
N164	N	1.097823	0.577409	0.265404
C165	C	1.147281	0.056687	0.415223
C166	C	1.647281	0.556687	0.915223
N167	N	1.200941	0.015447	0.390331
N168	N	1.700941	0.515447	0.890331
H169	H	0.544432	0.192211	-0.084396
H170	H	1.044432	0.692211	0.415604
C171	C	1.097185	0.182787	0.413463
C172	C	1.597185	0.682787	0.913463
N173	N	1.113108	0.236529	0.387252
N174	N	1.613108	0.736529	0.887252
C175	C	0.983544	-0.702945	-0.168877
C176	C	1.483544	-0.202945	0.331123
N177	N	0.983080	-0.733112	-0.235532
N178	N	1.483080	-0.233112	0.264468
C179	C	0.409227	0.094121	-0.168731
C180	C	0.909227	0.594121	0.331269
N181	N	0.390452	0.065290	-0.232037
N182	N	0.890452	0.565290	0.267963
H183	H	1.090934	0.165263	0.575104
H184	H	1.590934	0.665263	1.075104
H185	H	0.983608	-0.692557	0.145995
H186	H	1.483608	-0.192557	0.645995
H187	H	0.577590	-0.010618	-0.060223
H188	H	1.077590	0.489382	0.439777
C189	C	0.994072	-0.105984	-0.168841
C190	C	1.494072	0.394016	0.331159
N191	N	0.994620	-0.075817	-0.235493
N192	N	1.494620	0.424183	0.264507
C193	C	0.832004	0.140105	0.414664
C194	C	1.332004	0.640105	0.914664
N195	N	0.765951	0.130474	0.389009
N196	N	1.265951	0.630474	0.889009
H197	H	0.401843	0.189422	0.087056
H198	H	0.901843	0.689422	0.587056
H199	H	1.128758	0.071849	0.576010
H200	H	1.628758	0.571849	1.076010
H201	H	0.909197	0.006977	0.577269
H202	H	1.409197	0.506977	1.077269
H203	H	0.413891	0.106517	0.146998
H204	H	0.913891	0.606517	0.646998
H205	H	0.991466	-0.248527	0.146019
H206	H	1.491466	0.251473	0.646019
