data_functionalizedCrystal
_audit_creation_method	'MofGen! by Chris Wilmer'
_symmetry_space_group_name_H-M	'P1'
_symmetry_Int_Tables_number	1
_symmetry_cell_setting	triclinic
loop_
_symmetry_equiv_pos_as_xyz
  x,y,z
_cell_length_a	13.897449
_cell_length_b	18.101395
_cell_length_c	13.897441
_cell_angle_alpha	89.970274
_cell_angle_beta	89.978743
_cell_angle_gamma	90.031931
loop_
_atom_site_label
_atom_site_type_symbol
_atom_site_fract_x
_atom_site_fract_y
_atom_site_fract_z
Zn1	Zn	1.474592	-0.294797	-0.545449
Zn2	Zn	1.474455	-0.418650	-0.384150
Zn3	Zn	1.313288	-0.294829	-0.384160
Zn4	Zn	1.313226	-0.418603	-0.545395
O5	O	1.393890	-0.356720	-0.464789
O6	O	1.609556	-0.311233	-0.524071
O7	O	1.453044	-0.402258	-0.249170
O8	O	1.334769	-0.191192	-0.405582
O9	O	1.609455	-0.402227	-0.405565
O10	O	1.453279	-0.191168	-0.524080
O11	O	1.334635	-0.311287	-0.249177
O12	O	1.178298	-0.311241	-0.405530
O13	O	1.334663	-0.402146	-0.680384
O14	O	1.178252	-0.402177	-0.523989
O15	O	1.453218	-0.311187	-0.680424
O16	O	1.452984	-0.522277	-0.405513
O17	O	1.334529	-0.522242	-0.523979
C18	C	1.143276	-0.356708	-0.464755
C19	C	1.036062	-0.356721	-0.464763
C20	C	0.948992	-0.356724	-0.464779
C21	C	0.839760	-0.356729	-0.464809
C22	C	1.393761	-0.549130	-0.464760
C23	C	1.393794	-0.631444	-0.464780
C24	C	1.394006	-0.930535	-0.464832
C25	C	1.319650	-0.899219	-0.539553
C26	C	1.319297	-0.813601	-0.539319
C27	C	1.393901	-0.782153	-0.464807
C28	C	1.366379	-0.813308	-0.363147
C29	C	1.365899	-0.898953	-0.363594
C30	C	1.496046	-0.898877	-0.490877
C31	C	1.495446	-0.813226	-0.493106
C32	C	1.393843	-0.698293	-0.464787
C33	C	1.394061	-1.014395	-0.464846
C34	C	1.645483	-0.356732	-0.464823
C35	C	1.752697	-0.356737	-0.464837
C36	C	1.393949	-0.356658	-0.716382
C37	C	1.393974	-0.356631	-0.823596
C38	C	1.394046	-0.163558	-0.464838
C39	C	1.394112	-0.081244	-0.464859
C40	C	1.393994	-0.356610	-0.910665
C41	C	1.394022	-0.356577	-1.019898
C42	C	1.393887	-0.356728	-0.214174
C43	C	1.394048	-0.356546	-0.106961
H44	H	1.336699	-0.919764	-0.615177
H45	H	1.292578	-0.791924	-0.340690
H46	H	1.243662	-0.793179	-0.522067
H47	H	1.418832	-0.792939	-0.305956
N48	N	1.225349	-0.926308	-0.518181
N49	N	1.212665	-0.968577	-0.448158
H50	H	1.146065	-0.987711	-0.433061
N51	N	1.430870	-0.924938	-0.291351
N52	N	1.476419	-0.879818	-0.240759
H53	H	1.522293	-0.898167	-0.189727
N54	N	1.565561	-0.924283	-0.422628
N55	N	1.651674	-0.905247	-0.430548
H56	H	1.700765	-0.923194	-0.382347
N57	N	1.272325	-0.924092	-0.335911
N58	N	1.207827	-0.878384	-0.316397
H59	H	1.141737	-0.896135	-0.296844
N60	N	1.527518	-0.925913	-0.582285
N61	N	1.475116	-0.968848	-0.629350
H62	H	1.497334	-0.987945	-0.693910
N63	N	1.521480	-0.787658	-0.586954
N64	N	1.528456	-0.719925	-0.603085
H65	H	1.546838	-0.701862	-0.669366
N66	N	1.340900	-0.787179	-0.633885
N67	N	1.356342	-0.831992	-0.700519
H68	H	1.371596	-0.813336	-0.767311
N69	N	1.568613	-0.786365	-0.429802
N70	N	1.547012	-0.743696	-0.362496
H71	H	1.598683	-0.724728	-0.317777
