data_functionalizedCrystal
_audit_creation_method	'MofGen! by Chris Wilmer'
_symmetry_space_group_name_H-M	'P1'
_symmetry_Int_Tables_number	1
_symmetry_cell_setting	triclinic
loop_
_symmetry_equiv_pos_as_xyz
  x,y,z
_cell_length_a	16.992694
_cell_length_b	17.038272
_cell_length_c	16.053802
_cell_angle_alpha	92.751609
_cell_angle_beta	87.249047
_cell_angle_gamma	90.889890
loop_
_atom_site_label
_atom_site_type_symbol
_atom_site_fract_x
_atom_site_fract_y
_atom_site_fract_z
O1	O	1.054593	0.163385	-0.069325
O2	O	1.554593	0.663385	0.430675
O3	O	0.826187	0.161558	-0.069350
O4	O	1.326187	0.661558	0.430650
O5	O	0.939032	0.048571	-0.069331
O6	O	1.439032	0.548571	0.430669
O7	O	0.941748	0.276372	-0.069344
O8	O	1.441748	0.776372	0.430656
O9	O	0.932819	0.054763	0.069527
O10	O	1.432819	0.554763	0.569527
O11	O	0.819974	0.167750	0.069508
O12	O	1.319974	0.667750	0.569508
O13	O	1.048380	0.169577	0.069533
O14	O	1.548380	0.669577	0.569533
Zn15	Zn	0.933190	0.169646	0.091567
Zn16	Zn	1.433190	0.669646	0.591567
Zn17	Zn	0.941376	0.161489	-0.091384
Zn18	Zn	1.441376	0.661489	0.408616
O19	O	0.935535	0.282564	0.069514
O20	O	1.435535	0.782564	0.569514
C21	C	0.793711	0.162304	0.000076
C22	C	1.293711	0.662304	0.500076
C23	C	0.706200	0.155293	0.000067
C24	C	1.206200	0.655293	0.500067
C25	C	0.660472	0.222933	0.000064
C26	C	1.160472	0.722933	0.500064
C27	C	0.578245	0.216342	0.000076
C28	C	1.078245	0.716342	0.500076
C29	C	0.541748	0.142110	0.000085
C30	C	1.041748	0.642110	0.500085
C31	C	0.587482	0.074465	0.000091
C32	C	1.087482	0.574465	0.500091
C33	C	0.669707	0.081057	0.000085
C34	C	1.169707	0.581057	0.500085
C35	C	0.296327	0.114789	0.000109
C36	C	0.796327	0.614789	0.500109
C37	C	0.214096	0.108201	0.000112
C38	C	0.714096	0.608201	0.500112
C39	C	0.204864	0.250079	0.000099
C40	C	0.704864	0.750079	0.500099
C41	C	0.287091	0.256665	0.000088
C42	C	0.787091	0.756665	0.500088
C43	C	0.332818	0.189020	0.000098
C44	C	0.832818	0.689020	0.500098
N45	N	0.457699	0.135371	0.000094
N46	N	0.957699	0.635371	0.500094
N47	N	0.416865	0.195760	0.000095
N48	N	0.916865	0.695760	0.500095
C49	C	0.933456	0.022384	0.000098
C50	C	1.433456	0.522384	0.500098
C51	C	0.926089	-0.064871	0.000097
C52	C	1.426089	0.435129	0.500097
C53	C	0.993729	-0.110741	0.000105
C54	C	1.493729	0.389259	0.500105
C55	C	0.986802	-0.192727	0.000096
C56	C	1.486802	0.307273	0.500096
C57	C	0.912235	-0.228840	0.000085
C58	C	1.412235	0.271160	0.500085
C59	C	0.844590	-0.182964	0.000075
C60	C	1.344590	0.317036	0.500075
C61	C	0.851518	-0.100981	0.000077
C62	C	1.351518	0.399019	0.500077
C63	C	0.887761	-0.476135	0.000071
C64	C	1.387761	0.023865	0.500071
C65	C	0.880838	-0.558124	0.000071
C66	C	1.380838	-0.058124	0.500071
C67	C	1.023051	-0.567881	0.000091
C68	C	1.523051	-0.067881	0.500091
C69	C	1.029972	-0.485895	0.000099
C70	C	1.529972	0.014105	0.500099
C71	C	0.962328	-0.440026	0.000084
C72	C	1.462328	0.059974	0.500084
C73	C	0.905153	-0.312643	0.000079
C74	C	1.405153	0.187357	0.500079
C75	C	0.969410	-0.356226	0.000084
C76	C	1.469410	0.143774	0.500084
C77	C	1.080856	0.168831	0.000105
C78	C	1.580856	0.668831	0.500105
C79	C	1.168367	0.175841	0.000109
C80	C	1.668367	0.675841	0.500109
C81	C	0.941111	0.308751	0.000084
C82	C	1.441111	0.808751	0.500084
C83	C	0.948478	0.396006	0.000079
C84	C	1.448478	0.896006	0.500079
N85	N	0.927609	0.175214	0.216427
N86	N	1.427609	0.675214	0.716427
N87	N	0.946963	0.155915	-0.216243
N88	N	1.446963	0.655915	0.283757
C89	C	0.975645	0.127157	0.260129
C90	C	1.475645	0.627157	0.760129
C91	C	0.971749	0.131060	0.347535
C92	C	1.471749	0.631060	0.847535
C93	C	0.919820	0.183023	0.391237
C94	C	1.419820	0.683023	0.891237
C95	C	0.871779	0.231082	0.347529
C96	C	1.371779	0.731082	0.847529
C97	C	0.875672	0.227175	0.260125
C98	C	1.375672	0.727175	0.760125
C99	C	0.902815	0.200067	0.652644
C100	C	1.402815	0.700067	1.152644
C101	C	0.898928	0.203972	0.740055
C102	C	1.398928	0.703972	1.240055
C103	C	0.998897	0.103948	0.740054
C104	C	1.498897	0.603948	1.240054
C105	C	1.002788	0.100050	0.652648
C106	C	1.502788	0.600050	1.152648
C107	C	0.954744	0.148105	0.608948
C108	C	1.454744	0.648105	1.108948
N109	N	0.915838	0.187015	0.480580
N110	N	1.415838	0.687015	0.980580
N111	N	0.958723	0.144109	0.519606
N112	N	1.458723	0.644109	1.019606
H113	H	0.316801	0.317112	0.000071
H114	H	0.816801	0.817112	0.500071
H115	H	1.045072	0.057737	0.617067
H116	H	1.545072	0.557737	1.117067
O117	O	1.049833	-0.317275	0.000089
O118	O	1.549833	0.182725	0.500089
H119	H	1.095710	-0.362941	0.000089
H120	H	1.595710	0.137059	0.500089
O121	O	0.345636	0.041828	0.000118
O122	O	0.845636	0.541828	0.500118
H123	H	0.385849	0.038910	-0.056474
H124	H	0.885849	0.538910	0.443526
O125	O	1.050707	0.052112	0.787186
O126	O	1.550707	0.552112	1.287186
H127	H	1.039274	0.063550	0.855306
H128	H	1.539274	0.563550	1.355306
H129	H	0.184383	0.047750	0.000119
H130	H	0.684383	0.547750	0.500119
H131	H	0.557760	0.014024	0.000110
H132	H	1.057760	0.514024	0.500110
O133	O	0.842909	0.260020	0.787186
O134	O	1.342909	0.760020	1.287186
H135	H	0.876823	0.302058	0.826987
H136	H	1.376823	0.802058	1.326987
O137	O	1.023570	0.079228	0.394660
O138	O	1.523570	0.579228	0.894660
H139	H	0.986117	0.040745	0.434486
H140	H	1.486117	0.540745	0.934486
O141	O	0.851002	0.251903	0.605519
O142	O	1.351002	0.751903	1.105519
H143	H	0.888463	0.290368	0.565681
H144	H	1.388463	0.790368	1.065681
H145	H	0.167624	0.305152	0.000092
H146	H	0.667624	0.805152	0.500092
O147	O	1.074156	-0.071791	0.000109
O148	O	1.574156	0.428209	0.500109
H149	H	1.120026	-0.117464	0.000102
H150	H	1.620026	0.382536	0.500102
O151	O	0.719035	0.008104	0.000085
O152	O	1.219035	0.508104	0.500085
H153	H	0.679845	-0.044623	0.000085
H154	H	1.179845	0.455377	0.500085
O155	O	1.059755	-0.242204	0.000104
O156	O	1.559755	0.257796	0.500104
H157	H	1.057460	-0.277278	0.056694
H158	H	1.557460	0.222722	0.556694
H159	H	0.541016	0.271422	0.000072
H160	H	1.041016	0.771422	0.500072
O161	O	1.110399	-0.446943	0.000090
O162	O	1.610399	0.053057	0.500090
H163	H	1.156271	-0.492615	0.000082
H164	H	1.656271	0.007385	0.500082
O165	O	1.096009	-0.617351	0.000102
O166	O	1.596009	-0.117351	0.500102
H167	H	1.078669	-0.680427	0.000093
H168	H	1.578669	-0.180427	0.500093
H169	H	0.820113	-0.587524	0.000076
H170	H	1.320113	-0.087524	0.500076
O171	O	0.814805	-0.426665	0.000076
O172	O	1.314805	0.073335	0.500076
H173	H	0.761792	-0.465553	0.000083
H174	H	1.261792	0.034447	0.500083
H175	H	0.783876	-0.212375	0.000061
H176	H	1.283876	0.287625	0.500061
O177	O	0.778565	-0.051500	0.000078
O178	O	1.278565	0.448500	0.500078
H179	H	0.725549	-0.090383	0.000079
H180	H	1.225549	0.409617	0.500079
O181	O	0.824728	-0.351599	0.000085
O182	O	1.324728	0.148401	0.500085
H183	H	0.820704	-0.391243	-0.056507
H184	H	1.320704	0.108757	0.443493
H185	H	1.017934	0.084847	0.224552
H186	H	1.517934	0.584847	0.724552
H187	H	0.829494	0.273389	0.383117
H188	H	1.329494	0.773389	0.883117
O189	O	0.823864	0.279000	0.212975
O190	O	1.323864	0.779000	0.712975
H191	H	0.837228	0.341591	0.229723
H192	H	1.337228	0.841591	0.729723
O193	O	0.699835	0.302999	0.000062
O194	O	1.199835	0.802999	0.500062
H195	H	0.654219	0.348925	0.000073
H196	H	1.154219	0.848925	0.500073
