data_functionalizedCrystal
_audit_creation_method	'MofGen! by Chris Wilmer'
_symmetry_space_group_name_H-M	'P1'
_symmetry_Int_Tables_number	1
_symmetry_cell_setting	triclinic
loop_
_symmetry_equiv_pos_as_xyz
  x,y,z
_cell_length_a	13.330367
_cell_length_b	17.699083
_cell_length_c	17.699083
_cell_angle_alpha	96.716985
_cell_angle_beta	90.005539
_cell_angle_gamma	89.998477
loop_
_atom_site_label
_atom_site_type_symbol
_atom_site_fract_x
_atom_site_fract_y
_atom_site_fract_z
O1	O	0.083285	-1.004079	0.095711
O2	O	0.083318	-0.783701	0.108163
O3	O	0.083292	-0.900116	-0.008252
O4	O	0.083311	-0.887664	0.212126
O5	O	-0.083555	-0.900099	-0.008255
O6	O	-0.083529	-0.783684	0.108161
O7	O	-0.083562	-1.004062	0.095708
Cu8	Cu	-0.098780	-0.893872	0.101934
Cu9	Cu	0.098536	-0.893892	0.101937
O10	O	-0.083536	-0.887647	0.212124
C11	C	-0.000101	-0.755495	0.107716
C12	C	-0.000089	-0.671477	0.106377
N13	N	-0.237562	-0.893863	0.101932
C14	C	-0.000132	-0.899662	-0.036451
C15	C	-0.000132	-0.898323	-0.120469
C16	C	-0.710173	-0.842341	0.153466
C17	C	-0.710164	-0.945463	0.050403
C18	C	-0.605146	-0.945454	0.050400
C19	C	-0.552636	-0.893889	0.101932
C20	C	-0.605145	-0.842332	0.153466
C21	C	-0.552629	-0.997015	-0.001128
C22	C	-0.447605	-0.997009	-0.001132
C23	C	-0.395093	-0.945440	0.050397
C24	C	-0.447608	-0.893880	0.101933
C25	C	-0.395098	-0.842315	0.153465
C26	C	-0.447612	-0.790751	0.204998
C27	C	-0.552633	-0.790762	0.204995
C28	C	-0.290071	-0.945429	0.050400
C29	C	-0.290070	-0.842306	0.153466
N30	N	0.237317	-0.893906	0.101934
C31	C	-0.000141	-1.032268	0.096156
C32	C	-0.000146	-1.116286	0.097494
C33	C	-0.000083	-0.622856	0.174710
C34	C	-0.000096	-0.543913	0.173448
C35	C	-0.000108	-0.513592	0.103852
C36	C	-0.000117	-0.562219	0.035513
C37	C	-0.000111	-0.641161	0.036776
C38	C	-0.000142	-0.243856	0.030418
C39	C	-0.000145	-0.164908	0.029160
C40	C	-0.000128	-0.146608	0.167090
C41	C	-0.000122	-0.225550	0.168353
C42	C	-0.000136	-0.274170	0.100015
C43	C	-0.000123	-0.359769	0.101384
C44	C	-0.000113	-0.427995	0.102481
C45	C	-0.000144	-0.966656	-0.169090
C46	C	-0.000135	-0.965394	-0.248033
C47	C	-0.000121	-0.895798	-0.278354
C48	C	-0.000107	-0.827459	-0.229727
C49	C	-0.000108	-0.828722	-0.150785
C50	C	-0.000098	-0.822364	-0.548090
C51	C	-0.000099	-0.821106	-0.627038
C52	C	-0.000124	-0.959036	-0.645338
C53	C	-0.000126	-0.960299	-0.566396
C54	C	-0.000106	-0.891961	-0.517776
C55	C	-0.000114	-0.893330	-0.432177
C56	C	-0.000121	-0.894427	-0.363951
C57	C	-0.000110	-0.888102	0.240322
C58	C	-0.000103	-0.889440	0.324340
H59	H	-0.247323	-0.800312	0.195427
H60	H	-0.404855	-1.038994	-0.043093
H61	H	-0.404846	-0.748769	0.246959
C62	C	-0.300617	-1.047365	-0.051468
C63	C	-0.232349	-1.002101	-0.006240
H64	H	-0.264980	-1.082350	-0.086440
H65	H	-0.341565	-1.074530	-0.019994
H66	H	-0.341594	-1.015912	-0.078654
H67	H	-0.191377	-1.033554	0.020950
H68	H	-0.191384	-0.974934	-0.037718
C69	C	-0.000077	-0.596829	0.310925
C70	C	-0.000073	-0.656181	0.251215
H71	H	-0.000079	-0.617402	0.358156
H72	H	0.058101	-0.566421	0.307566
H73	H	-0.058266	-0.566421	0.307555
H74	H	0.058121	-0.686586	0.254582
H75	H	-0.058256	-0.686602	0.254576
H76	H	-0.000156	-0.140225	-0.027517
C77	C	-0.742513	-0.990139	-0.080680
C78	C	-0.767884	-1.002135	-0.006243
H79	H	-0.778148	-1.025128	-0.115653
H80	H	-0.759734	-0.939648	-0.088821
H81	H	-0.672450	-0.997518	-0.088049
H82	H	-0.837947	-0.994750	0.001128
H83	H	-0.750670	-1.052637	0.001902
H84	H	-0.595396	-0.748782	0.246952
C85	C	-0.742518	-0.711237	0.198066
C86	C	-0.767893	-0.785662	0.210105
H87	H	-0.778159	-0.676247	0.233030
H88	H	-0.672464	-0.703860	0.205447
H89	H	-0.759738	-0.703128	0.147558
H90	H	-0.750666	-0.793773	0.260611
H91	H	-0.837962	-0.793042	0.202731
C92	C	0.085686	-0.444518	0.252043
C93	C	-0.000079	-0.490470	0.248563
H94	H	0.085692	-0.411523	0.298417
H95	H	0.143860	-0.475694	0.249665
H96	H	0.085660	-0.415164	0.210412
H97	H	-0.000050	-0.519829	0.290191
H98	H	-0.058268	-0.459290	0.250949
H99	H	-0.000141	-0.537526	-0.021154
C100	C	0.085624	-1.076234	-0.685230
C101	C	-0.000133	-1.034158	-0.698782
H102	H	0.085612	-1.122612	-0.718220
H103	H	0.143804	-1.047699	-0.694407
H104	H	0.085607	-1.086937	-0.633873
H105	H	-0.000112	-1.023450	-0.750138
H106	H	-0.058327	-1.062699	-0.689611
H107	H	-0.595386	-1.039002	-0.043080
H108	H	-0.000147	-1.021038	-0.287618
H109	H	-0.000122	-0.107012	0.222734
C110	C	-0.000113	-0.651327	-0.099693
C111	C	-0.000108	-0.694609	-0.038338
H112	H	-0.000107	-0.684324	-0.146066
H113	H	-0.058295	-0.620160	-0.097319
H114	H	0.058072	-0.620152	-0.097309
H115	H	-0.058297	-0.725780	-0.040719
H116	H	0.058080	-0.725789	-0.040713
C117	C	-0.000152	-1.102871	-0.195117
C118	C	-0.000152	-1.043160	-0.135765
H119	H	-0.000147	-1.150102	-0.174543
H120	H	-0.058333	-1.099507	-0.225527
H121	H	0.058035	-1.099505	-0.225523
H122	H	-0.058343	-1.046523	-0.105361
H123	H	0.058034	-1.046526	-0.105342
H124	H	-0.000108	-0.250232	0.225025
H125	H	-0.000082	-0.766718	-0.508512
H126	H	-0.000154	-0.283434	-0.025228
H127	H	-0.000089	-0.770792	-0.254420
C128	C	0.085630	-1.041741	-0.488228
C129	C	-0.000138	-1.036800	-0.533067
H130	H	0.085620	-1.088969	-0.467650
H131	H	0.143802	-1.038390	-0.518642
H132	H	0.085623	-1.001220	-0.447976
H133	H	-0.000127	-1.077319	-0.573323
H134	H	-0.058325	-1.040159	-0.502651
C135	C	-0.000093	-0.769413	-0.021644
C136	C	-0.000095	-0.753608	-0.097336
H137	H	-0.000075	-0.723039	0.011351
H138	H	-0.058279	-0.797943	-0.012474
H139	H	0.058088	-0.797966	-0.012474
H140	H	-0.058281	-0.725060	-0.106508
H141	H	0.058097	-0.725066	-0.106510
C142	C	0.085714	-0.703163	-0.635749
C143	C	-0.000071	-0.744601	-0.660369
H144	H	0.085732	-0.655938	-0.656332
H145	H	0.085710	-0.694132	-0.581782
H146	H	0.143880	-0.731315	-0.652447
H147	H	-0.058238	-0.716451	-0.643666
H148	H	-0.000076	-0.753629	-0.714347
