data_functionalizedCrystal
_audit_creation_method	'MofGen! by Chris Wilmer'
_symmetry_space_group_name_H-M	'P1'
_symmetry_Int_Tables_number	1
_symmetry_cell_setting	triclinic
loop_
_symmetry_equiv_pos_as_xyz
  x,y,z
_cell_length_a	17.077404
_cell_length_b	12.594516
_cell_length_c	17.077396
_cell_angle_alpha	89.976855
_cell_angle_beta	89.980499
_cell_angle_gamma	90.016278
loop_
_atom_site_label
_atom_site_type_symbol
_atom_site_fract_x
_atom_site_fract_y
_atom_site_fract_z
Zn1	Zn	1.200092	-0.423736	-0.443872
Zn2	Zn	1.200015	-0.601736	-0.312618
Zn3	Zn	1.068824	-0.423773	-0.312620
Zn4	Zn	1.068807	-0.601673	-0.443842
O5	O	1.134434	-0.512730	-0.378238
O6	O	1.309929	-0.447359	-0.426473
O7	O	1.182586	-0.578171	-0.202771
O8	O	1.086276	-0.274822	-0.330044
O9	O	1.309872	-0.578135	-0.330041
O10	O	1.182718	-0.274795	-0.426474
O11	O	1.086201	-0.447422	-0.202773
O12	O	0.958975	-0.447361	-0.330015
O13	O	1.086248	-0.578027	-0.553693
O14	O	0.958963	-0.578064	-0.426423
O15	O	1.182702	-0.447297	-0.553715
O16	O	1.182571	-0.750674	-0.330012
O17	O	1.086173	-0.750627	-0.426421
C18	C	0.930487	-0.512710	-0.378216
C19	C	0.843237	-0.512728	-0.378226
C20	C	0.802261	-0.580887	-0.428345
C21	C	0.720280	-0.580890	-0.428357
C22	C	0.679277	-0.512737	-0.378246
C23	C	0.720259	-0.444570	-0.328125
C24	C	0.802238	-0.444563	-0.328117
C25	C	0.549389	-0.444591	-0.328144
C26	C	0.467404	-0.444599	-0.328150
C27	C	0.467431	-0.580917	-0.428384
C28	C	0.549410	-0.580910	-0.428376
C29	C	0.590386	-0.512745	-0.378253
C30	C	1.134383	-0.789271	-0.378230
C31	C	1.134433	-0.907576	-0.378253
C32	C	1.081997	-0.976843	-0.430653
C33	C	1.062873	-1.047703	-0.359026
C34	C	1.153628	-1.047515	-0.449893
C35	C	1.115271	-0.976878	-0.306587
C36	C	1.206059	-0.976684	-0.397503
C37	C	1.186963	-1.047512	-0.325826
C38	C	1.339179	-0.512750	-0.378260
C39	C	1.426428	-0.512758	-0.378269
C40	C	1.134482	-0.512651	-0.582982
C41	C	1.134502	-0.512618	-0.670232
C42	C	1.134507	-0.235109	-0.378263
C43	C	1.134539	-0.116803	-0.378273
C44	C	1.184728	-0.444541	-0.711235
C45	C	1.184737	-0.444506	-0.793216
C46	C	1.134524	-0.512553	-0.834192
C47	C	1.084293	-0.580633	-0.793183
C48	C	1.084281	-0.580662	-0.711204
C49	C	1.084325	-0.580569	-0.964053
C50	C	1.084339	-0.580541	-1.046038
C51	C	1.184782	-0.444412	-1.046065
C52	C	1.184769	-0.444442	-0.964086
C53	C	1.134538	-0.512523	-0.923083
C54	C	1.134432	-0.512731	-0.174290
C55	C	1.134564	-0.512465	-0.087041
H56	H	0.835599	-0.389055	-0.287309
H57	H	1.225619	-0.389132	-0.677878
C58	C	0.628023	-0.429601	-0.222563
C59	C	0.675189	-0.369652	-0.273043
H60	H	0.600204	-0.383347	-0.188555
H61	H	0.591890	-0.470187	-0.252414
H62	H	0.659992	-0.475913	-0.192477
H63	H	0.643220	-0.323344	-0.303134
H64	H	0.711327	-0.329047	-0.243190
C65	C	1.229384	-0.383884	-1.171741
C66	C	1.239983	-0.369556	-1.091132
H67	H	1.263458	-0.337667	-1.199564
H68	H	1.240863	-0.455382	-1.185174
H69	H	1.176643	-0.368302	-1.185153
H70	H	1.292722	-0.385146	-1.077719
H71	H	1.228509	-0.298042	-1.077693
C72	C	0.985006	-0.715189	-0.784916
C73	C	1.029097	-0.655433	-0.838221
H74	H	0.950928	-0.761364	-0.812721
H75	H	1.019191	-0.755915	-0.752944
H76	H	0.954989	-0.668810	-0.752940
H77	H	1.059119	-0.701811	-0.870193
H78	H	0.994908	-0.614704	-0.870206
H79	H	1.037575	-0.945811	-0.474902
H80	H	1.225661	-0.389037	-0.930725
C81	C	0.986496	-1.151024	-0.268788
C82	C	0.981167	-1.089822	-0.337048
H83	H	0.936052	-1.177017	-0.255223
H84	H	1.020871	-1.209098	-0.277533
H85	H	1.006169	-1.108453	-0.227312
H86	H	0.961500	-1.132395	-0.378526
H87	H	0.946780	-1.031739	-0.328307
H88	H	1.043374	-0.636087	-0.677820
C89	C	1.025368	-0.873380	-0.230072
C90	C	1.093310	-0.935178	-0.224787
H91	H	1.011807	-0.847642	-0.179572
H92	H	1.034485	-0.815130	-0.264225
H93	H	0.983731	-0.915467	-0.249992
H94	H	1.134949	-0.893089	-0.204872
H95	H	1.084197	-0.993437	-0.190622
H96	H	1.231351	-1.078346	-0.281470
C97	C	0.985040	-0.715085	-1.037781
C98	C	1.029139	-0.655332	-1.091081
H99	H	0.950959	-0.761252	-1.065591
H100	H	1.019218	-0.755820	-1.005809
H101	H	0.955025	-0.668704	-1.005805
H102	H	1.059159	-0.701712	-1.123053
H103	H	0.994956	-0.614594	-1.123066
H104	H	0.835640	-0.636389	-0.469149
C105	C	0.475607	-0.309833	-0.229086
C106	C	0.422332	-0.369676	-0.273074
H107	H	0.447779	-0.263575	-0.195088
H108	H	0.507560	-0.356143	-0.198994
H109	H	0.507605	-0.269182	-0.263345
H110	H	0.390338	-0.410334	-0.238815
H111	H	0.390365	-0.323360	-0.303168
C112	C	1.307675	-0.970120	-0.494579
C113	C	1.287744	-0.934530	-0.419506
H114	H	1.358101	-0.944087	-0.508170
H115	H	1.308193	-1.045526	-0.495215
H116	H	1.270252	-0.944865	-0.531268
H117	H	1.325164	-0.959791	-0.382816
H118	H	1.287232	-0.859107	-0.418865
C119	C	1.284029	-0.309969	-0.785008
C120	C	1.239952	-0.369681	-0.838286
H121	H	1.318121	-0.263779	-0.812834
H122	H	1.249837	-0.269261	-0.753033
H123	H	1.314032	-0.356376	-0.753033
H124	H	1.209945	-0.323274	-0.870257
H125	H	1.274148	-0.410392	-0.870275
H126	H	1.169821	-1.078543	-0.510470
H127	H	0.582793	-0.636412	-0.469177
C128	C	0.728542	-0.715661	-0.527409
C129	C	0.675240	-0.655830	-0.483437
H130	H	0.700734	-0.761935	-0.561408
H131	H	0.760532	-0.669344	-0.557498
H132	H	0.760500	-0.756296	-0.493139
H133	H	0.643286	-0.615190	-0.517707
H134	H	0.643236	-0.702153	-0.453346
C135	C	0.341780	-0.641450	-0.472920
C136	C	0.422394	-0.655840	-0.483486
H137	H	0.313975	-0.687701	-0.506938
H138	H	0.328320	-0.656938	-0.420167
H139	H	0.328372	-0.569953	-0.484501
H140	H	0.435802	-0.727336	-0.471899
H141	H	0.435859	-0.640360	-0.536251
H142	H	0.582749	-0.389073	-0.287335
H143	H	1.043410	-0.635991	-0.930671
