data_functionalizedCrystal
_audit_creation_method	'MofGen! by Chris Wilmer'
_symmetry_space_group_name_H-M	'P1'
_symmetry_Int_Tables_number	1
_symmetry_cell_setting	triclinic
loop_
_symmetry_equiv_pos_as_xyz
  x,y,z
_cell_length_a	10.654554
_cell_length_b	10.654551
_cell_length_c	17.766277
_cell_angle_alpha	89.996514
_cell_angle_beta	89.989910
_cell_angle_gamma	84.486102
loop_
_atom_site_label
_atom_site_type_symbol
_atom_site_fract_x
_atom_site_fract_y
_atom_site_fract_z
O1	O	1.667847	0.176429	-0.062602
O2	O	1.302369	0.193229	-0.062601
O3	O	1.493511	0.002090	-0.062602
O4	O	1.476706	0.367568	-0.062601
O5	O	1.493477	0.002080	0.062587
O6	O	1.302335	0.193219	0.062588
O7	O	1.667813	0.176419	0.062586
Cu8	Cu	1.485071	0.184818	0.074018
Cu9	Cu	1.485111	0.184830	-0.074032
O10	O	1.476672	0.367558	0.062587
C11	C	1.255555	0.191989	-0.000006
C12	C	1.116112	0.188295	-0.000006
C13	C	0.933549	0.068808	-0.000016
C14	C	1.064571	0.072279	-0.000008
C15	C	1.036623	0.300848	-0.000003
C16	C	0.905604	0.297376	-0.000006
C17	C	0.949686	-0.063154	-0.000022
C18	C	1.080707	-0.059684	-0.000014
C19	C	1.492259	-0.044713	-0.000009
C20	C	1.488567	-0.184156	-0.000014
C21	C	1.486853	-0.249663	-0.068253
C22	C	1.483373	-0.380683	-0.068250
C23	C	1.483326	-0.380680	0.068237
C24	C	1.486797	-0.249661	0.068233
C25	C	1.486886	-0.249667	-0.147053
C26	C	1.483406	-0.380687	-0.147050
C27	C	1.714628	0.177659	-0.000010
C28	C	1.854071	0.181353	-0.000016
C29	C	1.477923	0.414361	-0.000007
C30	C	1.481616	0.553804	-0.000007
N31	N	1.485052	0.184809	0.178148
N32	N	1.485140	0.184829	-0.178163
C33	C	1.569717	0.100215	0.217534
C34	C	1.569725	0.100209	0.296336
C35	C	1.485079	0.184819	0.335749
C36	C	1.400397	0.269419	0.296353
C37	C	1.400384	0.269414	0.217552
C38	C	1.469620	0.299057	0.460587
C39	C	1.469642	0.299064	0.539386
C40	C	1.485112	0.184834	0.578795
C41	C	1.500588	0.070594	0.539396
C42	C	1.500574	0.070589	0.460595
C43	C	1.485083	0.184833	0.421194
C44	C	1.569790	0.100227	0.703627
C45	C	1.569789	0.100220	0.782430
C46	C	1.400467	0.269441	0.782446
C47	C	1.400463	0.269438	0.703644
C48	C	1.485131	0.184832	0.664239
H49	H	1.078598	0.395310	0.000006
C50	C	1.359686	-0.420647	-0.180088
H51	H	1.361496	-0.509950	-0.178954
H52	H	1.350767	-0.392016	-0.230616
H53	H	1.290467	-0.384644	-0.151062
C54	C	1.662906	0.007154	0.660279
H55	H	1.713319	-0.043244	0.695026
H56	H	1.715573	0.052815	0.629528
H57	H	1.617262	-0.045551	0.629550
C58	C	1.600663	-0.443233	-0.187911
H59	H	1.598289	-0.532141	-0.187913
H60	H	1.674558	-0.422553	-0.162708
H61	H	1.601464	-0.413604	-0.238327
C62	C	1.307344	0.362506	0.660317
H63	H	1.256938	0.412905	0.695073
H64	H	1.254669	0.316843	0.629586
H65	H	1.352980	0.415210	0.629569
C66	C	1.517596	-0.055065	0.582735
H67	H	1.515371	-0.038707	0.635308
H68	H	1.596410	-0.099120	0.569814
H69	H	1.451477	-0.104883	0.569829
C70	C	1.662862	0.007159	0.339674
H71	H	1.650738	0.019278	0.392248
H72	H	1.746791	0.021586	0.326745
H73	H	1.648498	-0.076798	0.326771
H74	H	1.488185	-0.196329	0.123800
C75	C	1.137153	-0.126839	-0.070784
H76	H	1.226064	-0.124493	-0.070771
H77	H	1.102388	-0.085416	-0.114447
H78	H	1.117845	-0.212052	-0.070784
H79	H	0.840896	0.389021	0.000003
H80	H	1.578492	-0.220097	-0.171503
H81	H	1.638729	0.031326	0.814499
H82	H	1.331542	0.338328	0.814535
H83	H	1.400105	-0.203385	-0.177312
C84	C	1.481387	-0.452739	0.143304
H85	H	1.479080	-0.540153	0.133534
H86	H	1.408840	-0.422325	0.171343
H87	H	1.555067	-0.440210	0.171342
H88	H	1.126331	-0.099565	0.054041
H89	H	1.638656	0.031321	0.185453
H90	H	1.331475	0.338308	0.328446
C91	C	1.517576	-0.055062	0.417256
H92	H	1.526964	-0.123093	0.452006
H93	H	1.590570	-0.056851	0.386419
H94	H	1.445658	-0.062770	0.386614
C95	C	1.452622	0.424717	0.582721
H96	H	1.454861	0.408363	0.635296
H97	H	1.373798	0.468758	0.569819
H98	H	1.518728	0.474546	0.569791
H99	H	0.920308	-0.114771	0.052366
C100	C	1.452610	0.424717	0.417244
H101	H	1.443418	0.492752	0.451993
H102	H	1.379504	0.426585	0.386513
H103	H	1.524438	0.432343	0.386495
C104	C	1.307257	0.362481	0.174226
H105	H	1.256848	0.412877	0.208981
H106	H	1.254587	0.316817	0.143493
H107	H	1.352894	0.415187	0.143480
H108	H	0.914072	-0.105171	-0.054076
