data_functionalizedCrystal
_audit_creation_method	'MofGen! by Chris Wilmer'
_symmetry_space_group_name_H-M	'P1'
_symmetry_Int_Tables_number	1
_symmetry_cell_setting	triclinic
loop_
_symmetry_equiv_pos_as_xyz
  x,y,z
_cell_length_a	10.540539
_cell_length_b	10.540539
_cell_length_c	9.616153
_cell_angle_alpha	90.000094
_cell_angle_beta	89.995174
_cell_angle_gamma	95.474508
loop_
_atom_site_label
_atom_site_type_symbol
_atom_site_fract_x
_atom_site_fract_y
_atom_site_fract_z
O1	O	1.685892	-0.178895	-0.115573
O2	O	1.316479	-0.195751	-0.115589
O3	O	1.509614	-0.002617	-0.115579
O4	O	1.492758	-0.372030	-0.115583
O5	O	1.509587	-0.002621	0.115712
O6	O	1.316452	-0.195755	0.115702
O7	O	1.685865	-0.178899	0.115718
Zn8	Zn	1.501155	-0.187328	0.152433
Zn9	Zn	1.501190	-0.187323	-0.152304
O10	O	1.492731	-0.372034	0.115708
C11	C	1.269163	-0.194489	0.000054
C12	C	1.128215	-0.190707	0.000048
C13	C	0.944788	-0.045790	0.000589
C14	C	1.091406	-0.049624	0.000054
C15	C	1.066557	-0.258600	-0.132027
C16	C	0.920013	-0.253785	-0.132123
C17	C	0.919494	-0.256660	0.130899
C18	C	1.066476	-0.257959	0.132630
C19	C	1.508336	0.044684	0.000064
C20	C	1.504554	0.185632	0.000056
C21	C	1.733182	-0.180161	0.000072
C22	C	1.874130	-0.183943	0.000069
C23	C	1.494008	-0.419335	0.000062
C24	C	1.497790	-0.560283	0.000060
N25	N	1.501140	-0.187331	0.360407
C26	C	1.359637	0.369059	-0.000469
C27	C	1.363471	0.222441	0.000052
C28	C	1.572435	0.247288	0.132138
C29	C	1.567620	0.393832	0.132249
C30	C	1.570519	0.394355	-0.130772
C31	C	1.571819	0.247373	-0.132518
N32	N	1.501215	-0.187310	-0.360278
C33	C	1.397510	-0.290298	0.580772
C34	C	1.397739	-0.290684	0.419604
C35	C	1.633864	-0.217464	0.418862
C36	C	1.633299	-0.218193	0.580080
C37	C	1.473368	-0.053892	0.580319
C38	C	1.470321	-0.054757	0.419092
H39	H	0.887936	-0.211004	0.231010
H40	H	1.540848	0.025564	0.378801
H41	H	1.298585	-0.272445	0.619578
H42	H	1.415178	-0.388722	0.621270
H43	H	1.415638	-0.389668	0.381024
F44	F	1.286802	0.406440	-0.124274
H45	H	1.657654	-0.315531	0.617668
F46	F	1.737182	-0.123860	0.631051
H47	H	1.107427	-0.208361	0.230338
F48	F	1.737197	-0.122095	0.368745
F49	F	1.147095	0.020203	0.123802
F50	F	1.349518	-0.016425	0.633520
F51	F	1.502014	0.430692	0.261292
H52	H	1.669084	0.441801	0.138246
F53	F	1.707858	0.218072	0.138568
F54	F	1.703714	0.456083	-0.131931
F55	F	1.666411	-0.343253	0.366072
F56	F	1.286884	0.408968	0.122297
F57	F	1.510775	0.191609	0.260609
H58	H	1.524869	0.425910	-0.230881
F59	F	1.342700	-0.024900	0.369159
F60	F	1.507409	0.193376	-0.260253
H61	H	1.674680	0.223152	-0.140490
F62	F	1.268822	-0.267050	0.367946
F63	F	1.572196	0.046302	0.630144
H64	H	0.916192	0.009944	0.095307
F65	F	1.293134	0.167854	0.124005
H66	H	0.914592	0.009712	-0.093600
H67	H	0.891814	-0.203603	-0.230849
F68	F	1.145955	0.020413	-0.124104
F69	F	1.293656	0.166754	-0.123704
H70	H	0.872044	-0.355250	-0.138119
F71	F	0.857767	-0.389855	0.132065
F72	F	1.095803	-0.394014	-0.138478
H73	H	1.090701	-0.360819	0.140603
F74	F	1.122234	-0.196953	-0.260504
