data_functionalizedCrystal
_audit_creation_method	'MofGen! by Chris Wilmer'
_symmetry_space_group_name_H-M	'P1'
_symmetry_Int_Tables_number	1
_symmetry_cell_setting	triclinic
loop_
_symmetry_equiv_pos_as_xyz
  x,y,z
_cell_length_a	10.654546
_cell_length_b	15.995292
_cell_length_c	9.730223
_cell_angle_alpha	90.001861
_cell_angle_beta	89.998853
_cell_angle_gamma	83.976050
loop_
_atom_site_label
_atom_site_type_symbol
_atom_site_fract_x
_atom_site_fract_y
_atom_site_fract_z
O1	O	1.666264	0.117588	-0.114309
O2	O	1.300635	0.128796	-0.114304
O3	O	1.493482	0.001359	-0.114309
O4	O	1.473416	0.245025	-0.114305
O5	O	1.493480	0.001362	0.114271
O6	O	1.300632	0.128799	0.114276
O7	O	1.666261	0.117591	0.114271
Zn8	Zn	1.483447	0.123196	0.150565
Zn9	Zn	1.483449	0.123191	-0.150599
O10	O	1.473414	0.245028	0.114275
C11	C	1.253846	0.127975	-0.000014
C12	C	1.114436	0.125515	-0.000013
C13	C	1.048958	0.124349	-0.124618
C14	C	0.917968	0.122030	-0.124629
C15	C	0.917947	0.122041	0.124582
C16	C	1.048933	0.124365	0.124591
C17	C	1.048970	0.124339	-0.268498
C18	C	0.917980	0.122021	-0.268509
C19	C	1.492664	-0.029840	-0.000023
C20	C	1.490216	-0.122807	-0.000033
C21	C	1.481215	-0.460598	-0.000020
C22	C	1.620407	-0.436478	0.000489
C23	C	1.623052	-0.339787	-0.000032
C24	C	1.485681	-0.293016	-0.000026
C25	C	1.416093	-0.322522	-0.130551
C26	C	1.414417	-0.419322	-0.130655
C27	C	1.411572	-0.419192	0.129283
C28	C	1.416731	-0.322670	0.131003
C29	C	1.488198	-0.198305	-0.000033
C30	C	1.478694	-0.555308	-0.000022
C31	C	1.713050	0.118412	-0.000023
C32	C	1.852460	0.120872	-0.000033
C33	C	1.474232	0.276227	-0.000014
C34	C	1.476680	0.369194	-0.000013
N35	N	1.483454	0.123198	0.356101
N36	N	1.483452	0.123182	-0.356135
C37	C	1.568868	0.066788	0.428025
C38	C	1.568865	0.066778	0.571908
C39	C	1.398029	0.179595	0.571931
C40	C	1.398027	0.179600	0.428050
C41	C	1.667503	0.001657	0.428014
C42	C	1.667500	0.001647	0.571897
H43	H	0.864598	0.121105	0.226029
F44	F	1.080384	0.201612	-0.340704
F45	F	1.793396	0.020391	0.622944
F46	F	1.283966	-0.281633	-0.136898
F47	F	1.640601	-0.082462	0.376959
H48	H	1.328476	0.225515	0.630527
F49	F	1.690536	-0.472662	0.122839
F50	F	1.117624	0.046398	-0.326838
H51	H	1.464419	-0.302183	-0.227691
H52	H	0.865471	0.181650	-0.313166
F53	F	0.886574	0.044739	-0.340706
H54	H	1.677552	-0.320445	0.093532
H55	H	1.102238	0.125324	0.226057
H56	H	1.673761	-0.465188	-0.092593
H57	H	1.677875	-0.321066	-0.093762
H58	H	1.462613	-0.445861	-0.228229
H59	H	1.312361	-0.434464	-0.136565
H60	H	1.758414	0.022049	0.383387
H61	H	1.455406	-0.447025	0.228221
H62	H	1.467402	-0.303809	0.227565
F63	F	1.285671	-0.280338	0.141315
F64	F	1.277657	-0.438256	0.130441
H65	H	1.637800	-0.059171	0.616511
F66	F	1.307105	0.239628	0.351504
