data_functionalizedCrystal
_audit_creation_method	'MofGen! by Chris Wilmer'
_symmetry_space_group_name_H-M	'P1'
_symmetry_Int_Tables_number	1
_symmetry_cell_setting	triclinic
loop_
_symmetry_equiv_pos_as_xyz
  x,y,z
_cell_length_a	16.959455
_cell_length_b	25.639239
_cell_length_c	16.959447
_cell_angle_alpha	89.966924
_cell_angle_beta	89.985678
_cell_angle_gamma	90.035633
loop_
_atom_site_label
_atom_site_type_symbol
_atom_site_fract_x
_atom_site_fract_y
_atom_site_fract_z
Zn1	Zn	1.208282	-0.208183	-0.446894
Zn2	Zn	1.208161	-0.295624	-0.314709
Zn3	Zn	1.076110	-0.208199	-0.314731
Zn4	Zn	1.076032	-0.295585	-0.446847
O5	O	1.142146	-0.251898	-0.380795
O6	O	1.318876	-0.219792	-0.429369
O7	O	1.190627	-0.284050	-0.204101
O8	O	1.093726	-0.135032	-0.332291
O9	O	1.318788	-0.284034	-0.332253
O10	O	1.190832	-0.135020	-0.429391
O11	O	1.093609	-0.219820	-0.204117
O12	O	0.965489	-0.219782	-0.332247
O13	O	1.093593	-0.283967	-0.557464
O14	O	0.965431	-0.283983	-0.429312
O15	O	1.190756	-0.219754	-0.557498
O16	O	1.190551	-0.368784	-0.332208
O17	O	1.093476	-0.368755	-0.429290
C18	C	0.936780	-0.251880	-0.380777
C19	C	0.848923	-0.251886	-0.380788
C20	C	0.477453	-0.218441	-0.330359
C21	C	0.477442	-0.285398	-0.431277
C22	C	0.559988	-0.285390	-0.431272
C23	C	0.601270	-0.251908	-0.380809
C24	C	0.560007	-0.218433	-0.330351
C25	C	0.601258	-0.318868	-0.481723
C26	C	0.683809	-0.318863	-0.481720
C27	C	0.725092	-0.285377	-0.431260
C28	C	0.683824	-0.251901	-0.380801
C29	C	0.725106	-0.218418	-0.330338
C30	C	0.683839	-0.184939	-0.279882
C31	C	0.601290	-0.184948	-0.279891
C32	C	0.807641	-0.285368	-0.431251
C33	C	0.807660	-0.218411	-0.330330
C34	C	1.142013	-0.387740	-0.380759
C35	C	1.142029	-0.445854	-0.380770
C36	C	1.192825	-0.806220	-0.330331
C37	C	1.192855	-0.860824	-0.330341
O38	O	1.235906	-0.889063	-0.287417
N39	N	1.142285	-0.888137	-0.380847
C40	C	1.091686	-0.860842	-0.431352
O41	O	1.048675	-0.889088	-0.474313
C42	C	1.091660	-0.806239	-0.431345
C43	C	1.142228	-0.778929	-0.380830
C44	C	1.243389	-0.778910	-0.279820
C45	C	1.243358	-0.724309	-0.279809
C46	C	1.192761	-0.697019	-0.330308
C47	C	1.142196	-0.724329	-0.380818
C48	C	1.041066	-0.778946	-0.481853
C49	C	1.041045	-0.724339	-0.481842
C50	C	1.091613	-0.697029	-0.431326
C51	C	1.091568	-0.642437	-0.431306
N52	N	1.142139	-0.615125	-0.380800
C53	C	1.192735	-0.642415	-0.330301
C54	C	1.091746	-0.975513	-0.431364
C55	C	1.091767	-1.030115	-0.431368
C56	C	1.192938	-1.030093	-0.330358
C57	C	1.192912	-0.975490	-0.330351
C58	C	1.142316	-0.948200	-0.380858
C59	C	1.192664	-0.527750	-0.330280
C60	C	1.192625	-0.473145	-0.330271
C61	C	1.091458	-0.473172	-0.431283
C62	C	1.091493	-0.527772	-0.431290
C63	C	1.142103	-0.555060	-0.380786
O64	O	1.048541	-0.614164	-0.474211
O65	O	1.235746	-0.614163	-0.287355
C66	C	1.348314	-0.251915	-0.380814
C67	C	1.436171	-0.251923	-0.380822
C68	C	1.142179	-0.251854	-0.586963
C69	C	1.142193	-0.251836	-0.674820
C70	C	1.142301	-0.115525	-0.380849
C71	C	1.142367	-0.057411	-0.380872
C72	C	1.091699	-0.285214	-1.046281
C73	C	1.192876	-0.218348	-1.046311
C74	C	1.192855	-0.218359	-0.963765
C75	C	1.142256	-0.251799	-0.922473
C76	C	1.091678	-0.285227	-0.963727
C77	C	1.243438	-0.184935	-0.922505
C78	C	1.243419	-0.184945	-0.839954
C79	C	1.192816	-0.218382	-0.798661
C80	C	1.142235	-0.251812	-0.839920
C81	C	1.091636	-0.285251	-0.798628
C82	C	1.041051	-0.318679	-0.839885
C83	C	1.041074	-0.318665	-0.922433
C84	C	1.192792	-0.218396	-0.716112
C85	C	1.091615	-0.285265	-0.716074
C86	C	1.142159	-0.251903	-0.175429
C87	C	1.142298	-0.251774	-0.087573
H88	H	0.717462	-0.157680	-0.238791
C89	C	1.030041	-0.388978	-1.015228
C90	C	0.985480	-0.355408	-0.967786
H91	H	0.995719	-0.411664	-1.043224
H92	H	1.060174	-0.369061	-1.051626
H93	H	1.064443	-0.408985	-0.983003
H94	H	0.951082	-0.335399	-1.000011
H95	H	0.955333	-0.375328	-0.931383
H96	H	0.841237	-0.312628	-0.472329
H97	H	0.717401	-0.346123	-0.522805
C98	C	1.080652	-0.355530	-1.139073
C99	C	1.036099	-0.321958	-1.091625
H100	H	1.046325	-0.378216	-1.167062
H101	H	1.110778	-0.335613	-1.175477
H102	H	1.115059	-0.375535	-1.106853
H103	H	1.001695	-0.301949	-1.123845
H104	H	1.005959	-0.341877	-1.055216
H105	H	0.999857	-0.345907	-0.806254
C106	C	1.288249	-0.640602	-0.234929
C107	C	1.298949	-0.694294	-0.224286
H108	H	1.322569	-0.622076	-0.200647
H109	H	1.299779	-0.631622	-0.288040
H110	H	1.235143	-0.631694	-0.223306
H111	H	1.352053	-0.703203	-0.235914
H112	H	1.287424	-0.703278	-0.171163
H113	H	1.284596	-0.801124	-0.238698
H114	H	1.284608	-0.157726	-0.806369
H115	H	1.234139	-1.052323	-0.289242
C116	C	0.934206	-0.188667	-0.285504
C117	C	0.853035	-0.181605	-0.274860
H118	H	0.962217	-0.165942	-0.251262
H119	H	0.947698	-0.223781	-0.273833
H120	H	0.947753	-0.181058	-0.338634
H121	H	0.839487	-0.189217	-0.221730
H122	H	0.839538	-0.146482	-0.286524
C123	C	1.237834	-0.188643	-1.172866
C124	C	1.248495	-0.181594	-1.091697
H125	H	1.272170	-0.165949	-1.200886
H126	H	1.249367	-0.223768	-1.186367
H127	H	1.184736	-0.180984	-1.186392
H128	H	1.301592	-0.189257	-1.078170
H129	H	1.236968	-0.146461	-1.078191
H130	H	1.284638	-0.157713	-0.956131
H131	H	1.233804	-0.450911	-0.289133
C132	C	1.292807	-0.152305	-0.724438
C133	C	1.248388	-0.181656	-0.670762
H134	H	1.327127	-0.129619	-0.696440
H135	H	1.323022	-0.175084	-0.756619
H136	H	1.258394	-0.132298	-0.756650
H137	H	1.282802	-0.201666	-0.638554
H138	H	1.218171	-0.158874	-0.638568
C139	C	0.451978	-0.373963	-0.469556
C140	C	0.432071	-0.322198	-0.486751
H141	H	0.423963	-0.396680	-0.503806
H142	H	0.507041	-0.378744	-0.476772
H143	H	0.438418	-0.381572	-0.416429
H144	H	0.445637	-0.314588	-0.539876
H145	H	0.376996	-0.317415	-0.479540
C146	C	0.575786	-0.407432	-0.520005
C147	C	0.555888	-0.355666	-0.537201
H148	H	0.547772	-0.430148	-0.554259
H149	H	0.630849	-0.412217	-0.527215
H150	H	0.562218	-0.415041	-0.466880
H151	H	0.569461	-0.348056	-0.590325
H152	H	0.500813	-0.350880	-0.529998
H153	H	1.234089	-0.953257	-0.289218
C154	C	0.474755	-0.155226	-0.235102
C155	C	0.555928	-0.148147	-0.224438
H156	H	0.446751	-0.132508	-0.200865
H157	H	0.461260	-0.147623	-0.288229
H158	H	0.461205	-0.190348	-0.223430
H159	H	0.569480	-0.113026	-0.236115
H160	H	0.569430	-0.155746	-0.171298
C161	C	1.292655	-0.522229	-0.230426
C162	C	1.248288	-0.557740	-0.274760
H163	H	1.326987	-0.540744	-0.196145
H164	H	1.322854	-0.500899	-0.264889
H165	H	1.258209	-0.500966	-0.200166
H166	H	1.282734	-0.579000	-0.305025
H167	H	1.218086	-0.579079	-0.240292
C168	C	1.053185	-1.046882	-0.565180
C169	C	1.036177	-1.060131	-0.486891
H170	H	1.018869	-1.065414	-0.599460
H171	H	1.045926	-1.010460	-0.572389
H172	H	1.106292	-1.055795	-0.576788
H173	H	0.983071	-1.051215	-0.475281
H174	H	1.043429	-1.096561	-0.479678
C175	C	1.080644	-0.914074	-0.537681
C176	C	1.036118	-0.945519	-0.486879
H177	H	1.046302	-0.895562	-0.571956
H178	H	1.110746	-0.889992	-0.507604
H179	H	1.115073	-0.935345	-0.567946
H180	H	1.001693	-0.924247	-0.456610
H181	H	1.006002	-0.969604	-0.516959
H182	H	0.999884	-0.801172	-0.522984
C183	C	1.002452	-0.707496	-0.615656
C184	C	0.985428	-0.694342	-0.537362
H185	H	0.968113	-0.688980	-0.649930
H186	H	1.055542	-0.698504	-0.627260
H187	H	0.995233	-0.743926	-0.622879
H188	H	0.992653	-0.657913	-0.530138
H189	H	0.932325	-0.703331	-0.525755
C190	C	0.991493	-0.522307	-0.531137
C191	C	1.035909	-0.557795	-0.486816
H192	H	0.957186	-0.540839	-0.565425
H193	H	0.961264	-0.501051	-0.496666
H194	H	1.025908	-0.500967	-0.561390
H195	H	1.001493	-0.579132	-0.456559
H196	H	1.066140	-0.579059	-0.521292
C197	C	1.080400	-0.411721	-0.537577
C198	C	1.035850	-0.443165	-0.486795
H199	H	1.046073	-0.393198	-0.571853
H200	H	1.110506	-0.387649	-0.507485
H201	H	1.114827	-0.432994	-0.567841
H202	H	1.001428	-0.421891	-0.456526
H203	H	1.005731	-0.467240	-0.516889
C204	C	0.991614	-0.351365	-0.724336
C205	C	1.036001	-0.322028	-0.670689
H206	H	0.957286	-0.374064	-0.696316
H207	H	0.961408	-0.328577	-0.756536
H208	H	1.026047	-0.371357	-0.756531
H209	H	1.001568	-0.302034	-0.638498
H210	H	1.066209	-0.344819	-0.638475
H211	H	0.443850	-0.191181	-0.289281
