data_functionalizedCrystal
_audit_creation_method	'MofGen! by Chris Wilmer'
_symmetry_space_group_name_H-M	'P1'
_symmetry_Int_Tables_number	1
_symmetry_cell_setting	triclinic
loop_
_symmetry_equiv_pos_as_xyz
  x,y,z
_cell_length_a	14.908571
_cell_length_b	14.908520
_cell_length_c	14.908308
_cell_angle_alpha	96.360765
_cell_angle_beta	90.175053
_cell_angle_gamma	90.205961
loop_
_atom_site_label
_atom_site_type_symbol
_atom_site_fract_x
_atom_site_fract_y
_atom_site_fract_z
Zn1	Zn	1.316651	-0.470613	-0.613065
Zn2	Zn	1.316549	-0.613252	-0.470429
Zn3	Zn	1.176020	-0.453291	-0.453125
Zn4	Zn	1.157642	-0.612180	-0.612023
O5	O	1.241715	-0.537334	-0.537161
O6	O	1.441995	-0.497231	-0.601822
O7	O	1.305556	-0.585232	-0.341941
O8	O	1.202409	-0.329399	-0.467536
O9	O	1.441920	-0.602028	-0.497029
O10	O	1.305730	-0.342124	-0.585043
O11	O	1.202310	-0.467710	-0.329228
O12	O	1.048225	-0.466671	-0.466525
O13	O	1.171086	-0.600202	-0.738354
O14	O	1.034722	-0.583406	-0.583267
O15	O	1.287909	-0.496192	-0.739120
O16	O	1.287736	-0.739300	-0.496018
O17	O	1.170987	-0.738513	-0.600046
C18	C	1.008970	-0.523043	-0.522906
C19	C	0.909397	-0.516953	-0.516830
C20	C	0.708277	-0.627234	-0.626831
C21	C	0.614720	-0.621514	-0.621125
C22	C	0.628723	-0.499789	-0.499719
C23	C	0.722281	-0.505509	-0.505424
C24	C	0.762054	-0.569235	-0.568981
C25	C	0.855613	-0.574958	-0.574682
C26	C	0.869615	-0.453230	-0.453280
C27	C	0.776058	-0.447510	-0.447575
C28	C	1.227379	-0.771629	-0.549818
C29	C	1.221326	-0.871868	-0.555268
C30	C	1.331634	-1.060998	-0.457284
C31	C	1.325950	-1.155181	-0.462402
C32	C	1.204279	-1.154420	-0.570626
C33	C	1.209963	-1.060237	-0.565508
C34	C	1.273642	-1.013529	-0.508834
C35	C	1.279321	-0.919343	-0.503712
C36	C	1.157655	-0.918584	-0.611940
C37	C	1.151970	-1.012768	-0.617058
C38	C	1.475370	-0.551681	-0.551472
C39	C	1.574939	-0.557795	-0.557571
C40	C	1.227459	-0.550010	-0.772372
C41	C	1.221383	-0.555411	-0.872606
C42	C	1.256131	-0.302127	-0.524476
C43	C	1.262274	-0.201896	-0.519070
C44	C	1.331614	-0.457236	-1.061752
C45	C	1.325908	-0.462308	-1.155930
C46	C	1.204264	-0.570623	-1.155141
C47	C	1.209969	-0.565551	-1.060963
C48	C	1.273647	-0.508856	-1.014272
C49	C	1.279356	-0.503789	-0.920093
C50	C	1.157708	-0.612099	-0.919305
C51	C	1.152002	-0.617171	-1.013483
C52	C	1.255972	-0.524646	-0.302864
C53	C	1.262236	-0.519001	-0.202628
H54	H	0.570938	-0.668742	-0.668234
C55	C	0.898750	-0.644034	-0.643829
C56	C	0.871812	-0.627929	-0.730642
C57	C	0.911538	-0.691534	-0.794367
H58	H	0.880551	-0.702993	-0.633001
H59	H	0.962177	-0.639132	-0.639004
H60	H	0.808399	-0.632839	-0.735464
H61	H	0.890011	-0.568982	-0.741498
H62	H	0.974965	-0.686633	-0.789542
H63	H	0.893336	-0.750489	-0.783531
H64	H	0.893273	-0.680611	-0.853277
H65	H	1.100127	-1.050810	-0.663202
C66	C	1.135125	-1.204983	-0.632249
C67	C	1.085566	-1.143257	-0.676322
C68	C	1.021863	-1.189804	-0.733109
H69	H	1.095911	-1.237530	-0.597432
H70	H	1.164750	-1.245873	-0.675706
H71	H	1.055941	-1.102383	-0.632872
H72	H	1.124755	-1.110708	-0.711156
H73	H	1.051489	-1.230694	-0.776565
H74	H	0.982656	-1.222349	-0.698284
H75	H	0.988236	-1.147931	-0.763025
C76	C	0.585361	-0.430663	-0.430784
C77	C	0.491918	-0.438069	-0.438177
C78	C	0.451943	-0.374397	-0.374695
H79	H	0.603503	-0.371714	-0.441707
H80	H	0.603479	-0.441409	-0.371776
H81	H	0.473807	-0.427316	-0.497171
H82	H	0.473750	-0.497003	-0.427244
H83	H	0.470061	-0.385143	-0.315687
H84	H	0.470091	-0.315453	-0.385624
H85	H	0.388538	-0.379419	-0.379697
C86	C	1.348350	-0.442164	-0.869271
C87	C	1.304438	-0.378359	-0.808965
C88	C	1.367965	-0.321577	-0.762128
H89	H	1.382084	-0.412055	-0.910935
H90	H	1.387491	-0.477041	-0.836728
H91	H	1.265313	-0.343486	-0.841506
H92	H	1.270709	-0.408442	-0.767283
H93	H	1.407106	-0.356454	-0.729585
H94	H	1.401695	-0.291475	-0.803799
H95	H	1.338181	-0.278284	-0.721199
H96	H	1.110431	-0.879924	-0.653913
H97	H	1.383467	-0.411077	-1.023736
H98	H	1.373109	-0.420271	-1.194585
H99	H	1.152420	-0.616780	-1.193173
C100	C	0.732988	-0.378378	-0.378437
C101	C	0.759956	-0.394451	-0.291624
C102	C	0.720309	-0.330779	-0.227910
H103	H	0.669564	-0.383213	-0.383199
H104	H	0.751240	-0.319444	-0.389336
H105	H	0.741699	-0.453370	-0.280728
H106	H	0.823375	-0.389608	-0.286832
H107	H	0.738561	-0.271844	-0.238808
H108	H	0.656887	-0.335619	-0.232680
H109	H	0.738608	-0.341670	-0.169000
H110	H	1.331169	-0.881314	-0.457563
C111	C	1.082960	-0.678703	-1.064347
C112	C	1.090381	-0.672113	-1.156988
C113	C	1.026802	-0.728795	-1.203871
H114	H	1.024467	-0.661046	-1.044623
H115	H	1.093303	-0.739288	-1.053040
H116	H	1.080031	-0.611541	-1.168289
H117	H	1.148860	-0.689777	-1.176738
H118	H	1.037145	-0.789380	-1.192564
H119	H	0.968313	-0.711133	-1.184140
H120	H	1.031835	-0.724337	-1.266734
C121	C	0.927897	-0.390103	-0.390507
C122	C	0.909378	-0.300581	-0.404060
C123	C	0.963041	-0.242409	-0.346241
H124	H	0.989337	-0.402511	-0.402942
H125	H	0.915406	-0.398949	-0.329649
H126	H	0.921876	-0.291739	-0.464903
H127	H	0.847948	-0.288144	-0.391618
H128	H	0.950550	-0.251255	-0.285383
H129	H	1.024479	-0.254825	-0.358682
H130	H	0.950478	-0.181662	-0.355423
C131	C	1.094913	-0.668204	-0.867654
C132	C	1.145371	-0.726190	-0.819796
C133	C	1.087559	-0.777880	-0.772199
H134	H	1.056156	-0.702771	-0.908856
H135	H	1.060233	-0.629361	-0.826612
H136	H	1.180035	-0.765028	-0.860834
H137	H	1.184125	-0.691647	-0.778579
H138	H	1.052879	-0.739037	-0.731157
H139	H	1.048805	-0.812441	-0.813407
H140	H	1.121786	-0.817224	-0.739715
H141	H	0.740661	-0.679126	-0.678577
H142	H	1.383478	-1.022967	-0.411132
H143	H	1.373175	-1.193828	-0.420427
