data_functionalizedCrystal
_audit_creation_method	'MofGen! by Chris Wilmer'
_symmetry_space_group_name_H-M	'P1'
_symmetry_Int_Tables_number	1
_symmetry_cell_setting	triclinic
loop_
_symmetry_equiv_pos_as_xyz
  x,y,z
_cell_length_a	14.908520
_cell_length_b	12.759401
_cell_length_c	12.759393
_cell_angle_alpha	89.979062
_cell_angle_beta	86.736394
_cell_angle_gamma	86.677863
loop_
_atom_site_label
_atom_site_type_symbol
_atom_site_fract_x
_atom_site_fract_y
_atom_site_fract_z
Zn1	Zn	-0.359078	-1.582080	0.618119
Zn2	Zn	-0.509962	-1.571808	0.452566
Zn3	Zn	-0.359126	-1.406376	0.442458
Zn4	Zn	-0.509899	-1.396212	0.628199
O5	O	-0.434516	-1.489119	0.535335
O6	O	-0.379099	-1.727738	0.596170
O7	O	-0.490000	-1.549818	0.304207
O8	O	-0.232875	-1.438236	0.457311
O9	O	-0.489953	-1.720192	0.474539
O10	O	-0.232840	-1.567325	0.586369
O11	O	-0.379181	-1.428275	0.296781
O12	O	-0.379120	-1.258007	0.467085
O13	O	-0.489846	-1.420913	0.773880
O14	O	-0.489892	-1.250540	0.603548
O15	O	-0.379038	-1.557470	0.766474
O16	O	-0.636198	-1.539963	0.484313
O17	O	-0.636152	-1.410953	0.613349
C18	C	-0.434505	-1.216153	0.535314
C19	C	-0.434522	-1.099375	0.535331
C20	C	-0.434429	-1.489204	0.809363
C21	C	-0.434392	-1.489240	0.926137
C22	C	-0.668908	-1.473269	0.551045
C23	C	-0.769183	-1.466584	0.557800
C24	C	-0.957595	-1.588499	0.436237
C25	C	-1.051812	-1.582222	0.442581
C26	C	-1.051834	-1.447758	0.576837
C27	C	-0.957617	-1.454036	0.570493
C28	C	-0.910501	-1.524407	0.500189
C29	C	-0.816283	-1.530679	0.493841
C30	C	-0.816307	-1.396221	0.628101
C31	C	-0.910523	-1.389944	0.634445
C32	C	-0.199208	-1.505060	0.519588
C33	C	-0.098934	-1.511853	0.512877
C34	C	-0.434528	-1.763152	0.535358
C35	C	-0.434533	-1.879928	0.535367
C36	C	-0.492289	-1.040646	0.606288
C37	C	-0.492292	-0.930922	0.606309
C38	C	-0.376759	-0.938665	0.464407
C39	C	-0.376752	-1.048387	0.464392
C40	C	-0.434537	-1.489100	0.262369
C41	C	-0.434320	-1.489285	0.145579
C42	C	-0.376686	-1.560350	0.977144
C43	C	-0.376647	-1.560371	1.086866
C44	C	-0.492029	-1.418166	1.094564
C45	C	-0.492063	-1.418142	0.984844
H46	H	-0.919233	-1.645791	0.378986
C47	C	-0.262557	-0.957339	0.324146
C48	C	-0.313266	-0.882616	0.386427
H49	H	-0.223357	-0.922737	0.276007
H50	H	-0.301819	-0.997460	0.286511
H51	H	-0.228095	-1.002488	0.367684
H52	H	-0.347734	-0.837472	0.342889
H53	H	-0.274000	-0.842478	0.424064
C54	C	-0.255375	-1.179974	0.441877
C55	C	-0.313249	-1.112949	0.386390
H56	H	-0.216169	-1.219827	0.393724
H57	H	-0.289776	-1.226038	0.484116
H58	H	-0.220920	-1.139510	0.485410
H59	H	-0.347710	-1.153415	0.342863
H60	H	-0.278845	-1.066881	0.344133
H61	H	-0.539327	-1.082157	0.664053
C62	C	-1.042322	-1.715756	0.309232
C63	C	-1.103578	-1.652668	0.372277
H64	H	-1.074283	-1.759243	0.265825
H65	H	-1.005519	-1.758368	0.352568
H66	H	-1.005632	-1.672437	0.266535
H67	H	-1.140264	-1.695987	0.414981
H68	H	-1.140398	-1.610052	0.328937
H69	H	-0.539331	-0.883110	0.664090
C70	C	-0.262624	-1.700905	0.980559
C71	C	-0.313286	-1.638489	0.912612
H72	H	-0.223478	-1.749139	0.940719
H73	H	-0.301918	-1.738438	1.025987
H74	H	-0.228105	-1.657463	1.021040
H75	H	-0.347811	-1.681930	0.872136
H76	H	-0.273987	-1.600953	0.867166
H77	H	-0.329655	-1.618274	1.128391
H78	H	-0.538984	-1.360283	1.142377
C79	C	-0.606124	-1.277585	1.003467
C80	C	-0.555503	-1.339975	0.928770
H81	H	-0.645289	-1.229335	0.968846
H82	H	-0.566804	-1.240070	1.043622
H83	H	-0.640621	-1.321041	1.048581
H84	H	-0.521001	-1.296519	0.883660
H85	H	-0.594827	-1.377493	0.888596
H86	H	-0.948898	-1.332652	0.691687
H87	H	-0.777922	-1.587976	0.436593
H88	H	-1.090211	-1.390472	0.634081
C89	C	-0.671891	-1.346135	0.677996
C90	C	-0.764539	-1.325768	0.698407
H91	H	-0.639934	-1.302643	0.721402
H92	H	-0.656514	-1.331822	0.606363
H93	H	-0.656393	-1.417751	0.692397
H94	H	-0.780038	-1.254153	0.683999
H95	H	-0.779922	-1.340073	0.770057
