data_functionalizedCrystal
_audit_creation_method	'MofGen! by Chris Wilmer'
_symmetry_space_group_name_H-M	'P1'
_symmetry_Int_Tables_number	1
_symmetry_cell_setting	triclinic
loop_
_symmetry_equiv_pos_as_xyz
  x,y,z
_cell_length_a	23.532407
_cell_length_b	23.532361
_cell_length_c	18.266242
_cell_angle_alpha	90.004761
_cell_angle_beta	90.014850
_cell_angle_gamma	82.839208
loop_
_atom_site_label
_atom_site_type_symbol
_atom_site_fract_x
_atom_site_fract_y
_atom_site_fract_z
O1	O	0.069009	0.755280	0.060821
O2	O	0.079040	0.589413	0.060840
O3	O	-0.008908	0.677348	0.060809
O4	O	0.156957	0.667345	0.060852
O5	O	-0.008912	0.677334	-0.060953
O6	O	0.079036	0.589398	-0.060922
O7	O	0.069005	0.755266	-0.060941
Zn8	Zn	0.074020	0.672330	-0.080264
Zn9	Zn	0.074026	0.672349	0.080163
O10	O	0.156953	0.667330	-0.060910
C11	C	0.078787	0.568189	-0.000039
C12	C	0.078032	0.504971	-0.000032
C13	C	-0.030126	0.677086	-0.000075
C14	C	-0.093343	0.676320	-0.000086
C15	C	0.074731	0.231735	0.066335
C16	C	0.075446	0.291135	0.066337
O17	O	0.075798	0.321868	0.122783
N18	N	0.075804	0.320833	-0.000035
C19	C	0.075442	0.291128	-0.066414
O20	O	0.075813	0.321843	-0.122869
C21	C	0.074723	0.231730	-0.066416
C22	C	0.074370	0.202035	-0.000039
C23	C	0.074377	0.202040	0.132707
C24	C	0.073663	0.142644	0.132704
C25	C	0.073303	0.112944	0.066331
C26	C	0.073657	0.142639	-0.000041
C27	C	0.074357	0.202027	-0.132794
C28	C	0.073638	0.142625	-0.132789
C29	C	0.073285	0.112930	-0.066412
C30	C	0.072582	0.053543	-0.066417
N31	N	0.072224	0.023845	-0.000044
C32	C	0.072584	0.053545	0.066329
C33	C	0.076951	0.415868	-0.066407
C34	C	0.077674	0.475265	-0.066406
C35	C	0.077677	0.475268	0.066345
C36	C	0.076958	0.415870	0.066344
C37	C	0.076592	0.386171	-0.000034
C38	C	0.071085	-0.071190	0.066320
C39	C	0.070374	-0.130591	0.066312
C40	C	0.070369	-0.130589	-0.066440
C41	C	0.071083	-0.071193	-0.066432
C42	C	0.071440	-0.041495	-0.000046
O43	O	0.072228	0.022772	-0.122834
O44	O	0.072206	0.022825	0.122775
C45	C	-0.359501	0.621124	-0.000034
C46	C	-0.300101	0.621835	-0.000040
O47	O	-0.263349	0.578048	-0.000011
N48	N	-0.277483	0.674113	-0.000054
C49	C	-0.314270	0.725682	-0.000056
O50	O	-0.289577	0.770214	-0.000068
C51	C	-0.373669	0.724970	-0.000045
C52	C	-0.396282	0.672689	-0.000038
C53	C	-0.382116	0.568847	-0.000026
C54	C	-0.441512	0.568136	-0.000022
C55	C	-0.478293	0.619701	-0.000025
C56	C	-0.455678	0.671978	-0.000033
C57	C	-0.410454	0.776539	-0.000041
C58	C	-0.469856	0.775822	-0.000029
C59	C	-0.492470	0.723541	-0.000022
C60	C	-0.551856	0.722832	-0.000033
N61	N	-0.574473	0.670555	-0.000018
C62	C	-0.537692	0.618989	-0.000014
C63	C	-0.189527	0.727174	-0.000077
C64	C	-0.130129	0.727886	-0.000094
C65	C	-0.115965	0.624039	-0.000076
C66	C	-0.175364	0.623327	-0.000065
C67	C	-0.212145	0.674896	-0.000063
C68	C	-0.662429	0.617500	-0.000006
C69	C	-0.721830	0.616793	-0.000005
C70	C	-0.735990	0.720640	-0.000018
C71	C	-0.676593	0.721347	-0.000023
C72	C	-0.639813	0.669772	-0.000015
O73	O	-0.588643	0.766596	-0.000058
O74	O	-0.562393	0.574465	0.000007
C75	C	0.178171	0.667592	-0.000024
C76	C	0.241388	0.668358	-0.000008
C77	C	0.069258	0.776490	-0.000061
C78	C	0.070014	0.839708	-0.000062
N79	N	0.074015	0.672321	-0.189751
C80	C	0.035091	0.711271	-0.228073
C81	C	0.035088	0.711274	-0.304718
C82	C	0.074020	0.672333	-0.343038
C83	C	0.112947	0.633376	-0.304706
C84	C	0.112945	0.633369	-0.228062
N85	N	0.124456	0.664799	-0.463357
N86	N	0.124456	0.664808	-0.536165
C87	C	0.074028	0.672349	-0.573960
N88	N	0.023598	0.679891	-0.536197
N89	N	0.023598	0.679885	-0.463382
C90	C	0.074026	0.672335	-0.426145
C91	C	0.035097	0.711306	-0.695390
C92	C	0.035094	0.711305	-0.772036
C93	C	0.112958	0.633409	-0.772022
C94	C	0.112956	0.633407	-0.695377
C95	C	0.074027	0.672358	-0.657066
N96	N	0.074025	0.672363	0.189650
H97	H	0.071376	-0.047017	0.120377
O98	O	0.076573	0.383840	0.137933
H99	H	0.037423	0.362078	0.141093
H100	H	0.077971	0.499436	-0.120457
H101	H	0.003390	0.742994	-0.335926
H102	H	0.071382	-0.047015	-0.120482
H103	H	0.144645	0.601668	-0.335909
H104	H	-0.765948	0.762623	-0.000024
O105	O	-0.006887	0.753326	-0.813369
H106	H	-0.051250	0.746335	-0.798671
H107	H	0.003397	0.743020	-0.664195
H108	H	-0.352173	0.526854	-0.000021
O109	O	-0.105745	0.784277	-0.000111
H110	H	-0.058262	0.776115	-0.000120
H111	H	0.003391	0.742986	-0.196882
O112	O	0.154934	0.591361	-0.186721
H113	H	0.182008	0.564284	-0.226240
H114	H	-0.086006	0.582052	-0.000074
H115	H	0.144655	0.601692	-0.664173
O116	O	0.076620	0.383758	-0.137953
H117	H	0.037956	0.400391	-0.169873
H118	H	0.070088	-0.154767	0.120366
O119	O	0.154952	0.591407	-0.813340
H120	H	0.148417	0.597957	-0.873074
H121	H	-0.219472	0.769170	-0.000081
O122	O	0.070357	-0.162678	-0.138026
H123	H	0.069933	-0.208987	-0.126869
O124	O	-0.199755	0.566940	-0.000056
H125	H	-0.184944	0.542187	0.049576
O126	O	0.073251	0.110623	0.204297
H127	H	0.073607	0.141264	0.250444
H128	H	0.074669	0.226216	0.186759
O129	O	-0.386071	0.832928	-0.000031
H130	H	-0.421635	0.868659	-0.000017
H131	H	-0.499801	0.817817	-0.000023
H132	H	0.077970	0.499461	0.120391
O133	O	-0.652196	0.777733	-0.000033
H134	H	-0.687754	0.813470	-0.000032
H135	H	0.074643	0.226195	-0.186845
H136	H	0.073345	0.118447	-0.186844
O137	O	-0.746223	0.560403	0.000005
H138	H	-0.710663	0.524667	0.000015
H139	H	-0.632489	0.575502	0.000001
O140	O	-0.465900	0.511747	-0.000008
H141	H	-0.430337	0.476015	0.000001
