data_functionalizedCrystal
_audit_creation_method	'MofGen! by Chris Wilmer'
_symmetry_space_group_name_H-M	'P1'
_symmetry_Int_Tables_number	1
_symmetry_cell_setting	triclinic
loop_
_symmetry_equiv_pos_as_xyz
  x,y,z
_cell_length_a	17.038272
_cell_length_b	16.098524
_cell_length_c	15.995350
_cell_angle_alpha	86.937675
_cell_angle_beta	92.698035
_cell_angle_gamma	92.870584
loop_
_atom_site_label
_atom_site_type_symbol
_atom_site_fract_x
_atom_site_fract_y
_atom_site_fract_z
O1	O	1.040527	0.069145	-0.185382
O2	O	1.540527	0.569145	0.314618
O3	O	0.812897	0.069170	-0.182496
O4	O	1.312897	0.569170	0.317504
O5	O	0.932935	0.069156	-0.062494
O6	O	1.432935	0.569156	0.437506
O7	O	0.920490	0.069159	-0.305383
O8	O	1.420490	0.569159	0.194617
O9	O	0.926682	-0.069357	-0.055361
O10	O	1.426682	0.430643	0.444639
O11	O	0.806645	-0.069343	-0.175363
O12	O	1.306645	0.430657	0.324637
O13	O	1.034275	-0.069367	-0.178249
O14	O	1.534275	0.430633	0.321751
Zn15	Zn	0.919467	-0.091347	-0.175673
Zn16	Zn	1.419467	0.408653	0.324327
Zn17	Zn	0.927705	0.091150	-0.185071
Zn18	Zn	1.427705	0.591150	0.314929
O19	O	0.914238	-0.069354	-0.298250
O20	O	1.414238	0.430646	0.201750
C21	C	0.780642	-0.000083	-0.176304
C22	C	1.280642	0.499917	0.323696
C23	C	0.693848	-0.000074	-0.168470
C24	C	1.193848	0.499926	0.331530
C25	C	0.643751	-0.000074	-0.240398
C26	C	1.143751	0.499926	0.259602
C27	C	0.562198	-0.000085	-0.233032
C28	C	1.062198	0.499915	0.266968
C29	C	0.530744	-0.000091	-0.153736
C30	C	1.030744	0.499909	0.346264
C31	C	0.580847	-0.000094	-0.081802
C32	C	1.080847	0.499906	0.418198
C33	C	0.662398	-0.000088	-0.089169
C34	C	1.162398	0.499912	0.410831
C35	C	0.284979	-0.000113	-0.127709
C36	C	0.784979	0.499887	0.372291
C37	C	0.203421	-0.000117	-0.120347
C38	C	0.703421	0.499883	0.379653
C39	C	0.184778	-0.000110	-0.271577
C40	C	0.684778	0.499890	0.228423
C41	C	0.266332	-0.000099	-0.278938
C42	C	0.766332	0.499901	0.221062
C43	C	0.316427	-0.000106	-0.207004
C44	C	0.816427	0.499894	0.292996
C45	C	0.447384	-0.000100	-0.146204
C46	C	0.947384	0.499900	0.353796
C47	C	0.399785	-0.000103	-0.214536
C48	C	0.899785	0.499897	0.285464
N49	N	0.913851	-0.215896	-0.169259
N50	N	1.413851	0.284104	0.330741
C51	C	0.959303	-0.259482	-0.221207
C52	C	1.459303	0.240518	0.278793
C53	C	0.955384	-0.346671	-0.216716
C54	C	1.455384	0.153329	0.283284
C55	C	0.906010	-0.390272	-0.160280
C56	C	1.406010	0.109728	0.339720
C57	C	0.860556	-0.346680	-0.108326
C58	C	1.360556	0.153320	0.391674
C59	C	0.864479	-0.259493	-0.112814
C60	C	1.364479	0.240507	0.387186
C61	C	0.891797	-0.653522	-0.144014
C62	C	1.391797	-0.153522	0.355986
C63	C	0.887875	-0.740715	-0.139531
C64	C	1.387875	-0.240715	0.360469
C65	C	0.982705	-0.740700	-0.247920
C66	C	1.482705	-0.240700	0.252080
C67	C	0.986620	-0.653511	-0.252407
C68	C	1.486620	-0.153511	0.247593
C69	C	0.941170	-0.609927	-0.200450
C70	C	1.441170	-0.109927	0.299550
C71	C	0.902002	-0.479393	-0.155689
C72	C	1.402002	0.020607	0.344311
C73	C	0.945183	-0.520807	-0.205037
C74	C	1.445183	-0.020807	0.294963
C75	C	1.066530	-0.000112	-0.184441
C76	C	1.566530	0.499888	0.315559
C77	C	1.153325	-0.000116	-0.192275
C78	C	1.653325	0.499884	0.307725
C79	C	0.929294	-0.000099	-0.027697
C80	C	1.429294	0.499901	0.472303
C81	C	0.927752	-0.000094	0.065363
C82	C	1.427752	0.499906	0.565363
N83	N	0.933327	0.215699	-0.191479
N84	N	1.433327	0.715699	0.308521
C85	C	0.917878	-0.000097	-0.333048
C86	C	1.417878	0.499903	0.166952
C87	C	0.919421	-0.000096	-0.426109
C88	C	1.419421	0.499904	0.073891
C89	C	0.922212	-0.000096	0.403506
C90	C	1.422212	0.499904	0.903506
C91	C	0.836738	0.000224	0.362145
C92	C	1.336738	0.500224	0.862145
C93	C	0.838266	-0.000088	0.265361
C94	C	1.338266	0.499912	0.765361
C95	C	0.924960	-0.000094	0.235749
C96	C	1.424960	0.499906	0.735749
C97	C	0.963556	-0.079195	0.277897
C98	C	1.463556	0.420805	0.777897
C99	C	0.961405	-0.079261	0.374689
C100	C	1.461405	0.420739	0.874689
C101	C	0.970281	0.078254	0.366809
C102	C	1.470281	0.578254	0.866809
C103	C	0.970308	0.079299	0.269812
C104	C	1.470308	0.579299	0.769812
C105	C	0.926517	-0.000096	0.140941
C106	C	1.426517	0.499904	0.640941
C107	C	0.920657	-0.000100	0.498314
C108	C	1.420657	0.499900	0.998314
H109	H	0.521412	-0.000084	-0.291604
H110	H	1.021412	0.499916	0.208396
N111	N	0.788301	-0.074488	0.395141
N112	N	1.288301	0.425512	0.895141
H113	H	0.741314	-0.055177	0.423658
H114	H	1.241314	0.444823	0.923658
H115	H	0.821543	-0.108509	0.436734
H116	H	1.321543	0.391491	0.936734
H117	H	0.425399	-0.000103	-0.279098
H118	H	0.925399	0.499897	0.220902
N119	N	1.012554	-0.212458	-0.282082
N120	N	1.512554	0.287542	0.217918
H121	H	1.040754	-0.253303	-0.314307
H122	H	1.540754	0.246697	0.185693
H123	H	1.052403	-0.176283	-0.250182
H124	H	1.552403	0.323717	0.249818
H125	H	0.827467	-0.224006	-0.070512
H126	H	1.327467	0.275994	0.429488
H127	H	0.927989	-0.138386	0.398225
H128	H	1.427989	0.361614	0.898225
N129	N	0.716429	-0.000093	-0.011586
N130	N	1.216429	0.499907	0.488414
H131	H	0.708626	0.051251	0.020113
H132	H	1.208626	0.551251	0.520113
H133	H	0.772840	-0.000124	-0.028348
H134	H	1.272840	0.499876	0.471652
N135	N	1.031733	-0.787701	-0.303954
N136	N	1.531733	-0.287701	0.196046
H137	H	0.996070	-0.823877	-0.340633
H138	H	1.496070	-0.323877	0.159367
H139	H	1.068372	-0.823824	-0.268331
H140	H	1.568372	-0.323824	0.231669
H141	H	1.033744	0.084071	0.249701
H142	H	1.533744	0.584071	0.749701
H143	H	1.024008	-0.082854	0.402651
H144	H	1.524008	0.417146	0.902651
H145	H	1.033336	0.078781	0.394053
H146	H	1.533336	0.578781	0.894053
H147	H	0.325757	-0.000120	-0.069134
H148	H	0.825757	0.499880	0.430866
N149	N	1.047756	-0.083088	0.253410
N150	N	1.547756	0.416912	0.753410
H151	H	1.061725	-0.033498	0.214663
H152	H	1.561725	0.466502	0.714663
H153	H	1.054067	-0.136095	0.223871
H154	H	1.554067	0.363905	0.723871
H155	H	0.555230	-0.000110	-0.017237
H156	H	1.055230	0.499890	0.482763
N157	N	0.921259	-0.157166	0.247075
N158	N	1.421259	0.342834	0.747075
H159	H	0.877096	-0.141431	0.205831
H160	H	1.377096	0.358569	0.705831
H161	H	0.898975	-0.191069	0.296161
H162	H	1.398975	0.308931	0.796161
H163	H	0.421764	-0.000128	-0.081640
H164	H	0.921764	0.499872	0.418360
N165	N	0.300257	-0.000077	-0.364465
N166	N	0.800257	0.499923	0.135535
H167	H	0.256146	-0.000075	-0.408915
H168	H	0.756146	0.499925	0.091085
H169	H	0.331383	-0.051418	-0.368182
H170	H	0.831383	0.448582	0.131818
H171	H	0.669354	-0.000068	-0.304970
H172	H	1.169354	0.499932	0.195030
N173	N	0.169504	-0.000136	-0.034810
N174	N	0.669504	0.499864	0.465190
H175	H	0.133773	-0.051485	-0.025748
H176	H	0.633773	0.448515	0.474252
H177	H	0.138437	0.051242	-0.031070
H178	H	0.638437	0.551242	0.468930
H179	H	0.992398	-0.382155	-0.259016
H180	H	1.492398	0.117845	0.240984
N181	N	0.834608	-0.787745	-0.078669
N182	N	1.334608	-0.287745	0.421331
H183	H	0.806408	-0.746906	-0.046437
H184	H	1.306408	-0.246906	0.453563
H185	H	0.867064	-0.823929	-0.038326
H186	H	1.367064	-0.323929	0.461674
N187	N	1.039882	-0.606486	-0.313269
N188	N	1.539882	-0.106486	0.186731
H189	H	1.068086	-0.647328	-0.345494
H190	H	1.568086	-0.147328	0.154506
H191	H	1.079728	-0.570315	-0.281360
H192	H	1.579728	-0.070315	0.218640
H193	H	0.854788	-0.618046	-0.101706
H194	H	1.354788	-0.118046	0.398294
H195	H	0.945037	0.138207	0.386253
H196	H	1.445037	0.638207	0.886253
N197	N	0.130748	-0.000104	-0.349160
N198	N	0.630748	0.499896	0.150840
H199	H	0.074313	-0.000108	-0.332464
H200	H	0.574313	0.499892	0.167536
H201	H	0.138623	-0.051451	-0.380822
H202	H	0.638623	0.448549	0.119178
H203	H	0.861800	-0.514903	-0.109739
H204	H	1.361800	-0.014903	0.390261
H205	H	0.820358	-0.382187	-0.062370
H206	H	1.320358	0.117813	0.437630
N207	N	0.998438	-0.473780	-0.265900
N208	N	1.498438	0.026220	0.234100
H209	H	0.966020	-0.437605	-0.306293
H210	H	1.466020	0.062395	0.193707
H211	H	1.026630	-0.514668	-0.298076
H212	H	1.526630	-0.014668	0.201924
H213	H	0.807681	0.056614	0.236380
H214	H	1.307681	0.556614	0.736380
N215	N	0.794859	0.075358	0.386045
N216	N	1.294859	0.575358	0.886045
H217	H	0.830883	0.109919	0.423918
H218	H	1.330883	0.609919	0.923918
H219	H	0.745938	0.056417	0.416382
H220	H	1.245938	0.556417	0.916382
N221	N	0.933024	0.156818	0.232577
N222	N	1.433024	0.656818	0.732577
H223	H	0.886952	0.140585	0.193803
H224	H	1.386952	0.640585	0.693803
H225	H	0.973102	0.191916	0.200029
H226	H	1.473102	0.691916	0.700029
H227	H	0.802335	-0.056881	0.242797
H228	H	1.302335	0.443119	0.742797
