data_functionalizedCrystal
_audit_creation_method	'MofGen! by Chris Wilmer'
_symmetry_space_group_name_H-M	'P1'
_symmetry_Int_Tables_number	1
_symmetry_cell_setting	triclinic
loop_
_symmetry_equiv_pos_as_xyz
  x,y,z
_cell_length_a	29.839134
_cell_length_b	29.839131
_cell_length_c	16.120297
_cell_angle_alpha	92.860396
_cell_angle_beta	92.866583
_cell_angle_gamma	90.027971
loop_
_atom_site_label
_atom_site_type_symbol
_atom_site_fract_x
_atom_site_fract_y
_atom_site_fract_z
Zn1	Zn	0.673884	-0.191835	-0.471579
Zn2	Zn	1.173884	0.308165	0.028421
Zn3	Zn	0.677625	-0.263153	-0.332144
Zn4	Zn	1.177625	0.236847	0.167856
Zn5	Zn	0.602567	-0.188029	-0.332156
Zn6	Zn	1.102567	0.311971	0.167844
Zn7	Zn	0.598725	-0.266927	-0.471477
Zn8	Zn	1.098725	0.233073	0.028523
O9	O	0.638200	-0.227486	-0.401839
O10	O	1.138200	0.272514	0.098161
O11	O	0.737246	-0.201310	-0.453120
O12	O	1.237246	0.298690	0.046880
O13	O	0.670842	-0.250016	-0.215485
O14	O	1.170842	0.249984	0.284515
O15	O	0.612070	-0.125668	-0.350699
O16	O	1.112070	0.374332	0.149301
O17	O	0.739995	-0.253707	-0.350678
O18	O	1.239995	0.246293	0.149322
O19	O	0.664466	-0.128465	-0.453132
O20	O	1.164466	0.371535	0.046868
O21	O	0.615697	-0.194822	-0.215494
O22	O	1.115697	0.305178	0.284506
O23	O	0.539192	-0.198481	-0.350600
O24	O	1.039192	0.301519	0.149400
O25	O	0.605522	-0.260138	-0.588151
O26	O	1.105522	0.239862	-0.088151
O27	O	0.536369	-0.256447	-0.452959
O28	O	1.036369	0.243553	0.047041
O29	O	0.660740	-0.204969	-0.588226
O30	O	1.160740	0.295031	-0.088226
O31	O	0.667117	-0.326520	-0.350579
O32	O	1.167117	0.173480	0.149421
O33	O	0.609149	-0.329292	-0.452947
O34	O	1.109149	0.170708	0.047053
C35	C	0.521480	-0.227461	-0.401770
C36	C	1.021480	0.272539	0.098230
C37	C	0.471546	-0.227461	-0.401760
C38	C	0.971546	0.272539	0.098240
C39	C	0.116411	-0.197264	-0.348650
C40	C	0.616411	0.302736	0.151350
C41	C	0.304085	-0.197250	-0.348599
C42	C	0.804085	0.302750	0.151401
O43	O	0.329586	-0.171534	-0.303365
O44	O	0.829586	0.328466	0.196635
N45	N	0.326099	-0.227470	-0.401802
N46	N	0.826099	0.272530	0.098198
C47	C	0.301192	-0.257694	-0.455026
C48	C	0.801192	0.242306	0.044974
O49	O	0.324222	-0.283394	-0.500283
O50	O	0.824222	0.216606	-0.000283
C51	C	0.113518	-0.257705	-0.455080
C52	C	0.613518	0.242295	0.044920
C53	C	0.091507	-0.227486	-0.401867
C54	C	0.591507	0.272514	0.098133
C55	C	0.094399	-0.167047	-0.295442
C56	C	0.594399	0.332953	0.204558
C57	C	0.047483	-0.167052	-0.295452
C58	C	0.547483	0.332948	0.204548
C59	C	0.022579	-0.197275	-0.348670
C60	C	0.522579	0.302725	0.151330
C61	C	0.044591	-0.227492	-0.401877
C62	C	0.544591	0.272508	0.098123
C63	C	0.088612	-0.287927	-0.508307
C64	C	0.588612	0.212073	-0.008307
C65	C	0.041690	-0.287926	-0.508317
C66	C	0.541690	0.212074	-0.008317
C67	C	0.019679	-0.257707	-0.455105
C68	C	0.519679	0.242293	0.044895
C69	C	-0.027229	-0.257720	-0.455105
C70	C	0.472771	0.242280	0.044895
N71	N	-0.049243	-0.227499	-0.401902
N72	N	0.450757	0.272501	0.098098
C73	C	-0.024339	-0.197277	-0.348684
C74	C	0.475661	0.302723	0.151316
C75	C	0.399723	-0.257686	-0.454992
C76	C	0.899723	0.242314	0.045008
C77	C	0.446642	-0.257684	-0.454978
C78	C	0.946642	0.242316	0.045022
C79	C	0.449531	-0.197239	-0.348552
C80	C	0.949531	0.302761	0.151448
C81	C	0.402612	-0.197244	-0.348563
C82	C	0.902612	0.302756	0.151437
C83	C	0.377709	-0.227466	-0.401789
C84	C	0.877709	0.272534	0.098211
C85	C	-0.122866	-0.197291	-0.348709
C86	C	0.377134	0.302709	0.151291
C87	C	-0.169786	-0.197300	-0.348721
C88	C	0.330214	0.302700	0.151279
C89	C	-0.172671	-0.257743	-0.455149
C90	C	0.327329	0.242257	0.044851
C91	C	-0.125756	-0.257736	-0.455134
C92	C	0.374244	0.242264	0.044866
C93	C	-0.100854	-0.227506	-0.401911
C94	C	0.399146	0.272494	0.098089
O95	O	-0.052759	-0.283418	-0.500322
O96	O	0.447241	0.216582	-0.000322
O97	O	-0.047378	-0.171573	-0.303447
O98	O	0.452622	0.328427	0.196553
C99	C	0.163326	-0.197258	-0.348640
C100	C	0.663326	0.302742	0.151360
C101	C	0.185338	-0.227475	-0.401847
C102	C	0.685338	0.272525	0.098153
C103	C	0.160434	-0.257698	-0.455065
C104	C	0.660434	0.242302	0.044935
C105	C	0.232256	-0.227473	-0.401833
C106	C	0.732256	0.272527	0.098167
C107	C	0.257160	-0.197251	-0.348615
C108	C	0.757160	0.302749	0.151385
C109	C	0.235146	-0.167030	-0.295412
C110	C	0.735146	0.332970	0.204588
C111	C	0.188230	-0.167036	-0.295422
C112	C	0.688230	0.332964	0.204578
C113	C	0.182448	-0.287918	-0.508268
C114	C	0.682448	0.212082	-0.008268
C115	C	0.229364	-0.287910	-0.508253
C116	C	0.729364	0.212090	-0.008253
C117	C	0.254268	-0.257688	-0.455036
C118	C	0.754268	0.242312	0.044964
C119	C	0.638134	-0.344207	-0.401769
C120	C	1.138134	0.155793	0.098231
C121	C	0.638146	-0.394141	-0.401767
C122	C	1.138146	0.105859	0.098233
C123	C	0.665475	-0.705210	-0.455252
C124	C	1.165475	-0.205210	0.044748
C125	C	0.665522	-0.892884	-0.455302
C126	C	1.165522	-0.392884	0.044698
O127	O	0.688692	-0.918360	-0.500725
O128	O	1.188692	-0.418360	-0.000725
N129	N	0.638274	-0.914931	-0.401932
N130	N	1.138274	-0.414931	0.098068
C131	C	0.611010	-0.890056	-0.348549
C132	C	1.111010	-0.390056	0.151451
O133	O	0.587832	-0.913114	-0.303161
O134	O	1.087832	-0.413114	0.196839
C135	C	0.610961	-0.702382	-0.348503
C136	C	1.110961	-0.202382	0.151497
C137	C	0.638214	-0.680338	-0.401871
C138	C	1.138214	-0.180338	0.098129
C139	C	0.692725	-0.683166	-0.508617
C140	C	1.192725	-0.183166	-0.008617
C141	C	0.692715	-0.636250	-0.508600
C142	C	1.192715	-0.136250	-0.008600
C143	C	0.665454	-0.611378	-0.455220
C144	C	1.165454	-0.111378	0.044780
C145	C	0.638204	-0.633422	-0.401855
C146	C	1.138204	-0.133422	0.098145
C147	C	0.583695	-0.677508	-0.295125
C148	C	1.083695	-0.177508	0.204875
C149	C	0.583684	-0.630587	-0.295120
C150	C	1.083684	-0.130587	0.204880
C151	C	0.610937	-0.608543	-0.348488
C152	C	1.110937	-0.108543	0.151512
C153	C	0.610933	-0.561635	-0.348458
C154	C	1.110933	-0.061635	0.151542
N155	N	0.638180	-0.539588	-0.401829
N156	N	1.138180	-0.039588	0.098171
C157	C	0.665441	-0.564460	-0.455209
C158	C	1.165441	-0.064460	0.044791
C159	C	0.611039	-0.988587	-0.348575
C160	C	1.111039	-0.488587	0.151425
C161	C	0.611052	-1.035505	-0.348585
C162	C	1.111052	-0.535505	0.151415
C163	C	0.665563	-1.038331	-0.455340
C164	C	1.165563	-0.538331	0.044660
C165	C	0.665552	-0.991411	-0.455325
C166	C	1.165552	-0.491411	0.044675
C167	C	0.638287	-0.966541	-0.401946
C168	C	1.138287	-0.466541	0.098054
C169	C	0.665418	-0.465933	-0.455171
C170	C	1.165418	0.034067	0.044829
C171	C	0.665406	-0.419013	-0.455147
C172	C	1.165406	0.080987	0.044853
C173	C	0.610894	-0.416192	-0.348396
C174	C	1.110894	0.083808	0.151604
C175	C	0.610907	-0.463108	-0.348416
C176	C	1.110907	0.036892	0.151584
C177	C	0.638170	-0.487977	-0.401810
C178	C	1.138170	0.012023	0.098190
O179	O	0.587771	-0.536131	-0.303066
O180	O	1.087771	-0.036131	0.196934
O181	O	0.688609	-0.541394	-0.500603
O182	O	1.188609	-0.041394	-0.000603
C183	C	0.665485	-0.752126	-0.455268
C184	C	1.165485	-0.252126	0.044732
C185	C	0.638234	-0.774170	-0.401904
C186	C	1.138234	-0.274170	0.098096
C187	C	0.610974	-0.749298	-0.348523
C188	C	1.110974	-0.249298	0.151477
C189	C	0.638247	-0.821088	-0.401914
C190	C	1.138247	-0.321088	0.098086
C191	C	0.665508	-0.845960	-0.455295
C192	C	1.165508	-0.345960	0.044705
C193	C	0.692756	-0.823913	-0.508665
C194	C	1.192756	-0.323913	-0.008665
C195	C	0.692746	-0.776998	-0.508649
C196	C	1.192746	-0.276998	-0.008649
C197	C	0.583726	-0.771345	-0.295153
C198	C	1.083726	-0.271345	0.204847
C199	C	0.583739	-0.818261	-0.295173
C200	C	1.083739	-0.318261	0.204827
C201	C	0.611000	-0.843132	-0.348553
C202	C	1.111000	-0.343132	0.151447
C203	C	0.755377	-0.227512	-0.401909
C204	C	1.255377	0.272488	0.098091
C205	C	0.805310	-0.227523	-0.401939
C206	C	1.305310	0.272477	0.098061
C207	C	0.632285	-0.233399	-0.619283
C208	C	1.132285	0.266601	-0.119283
C209	C	0.629764	-0.235919	-0.711945
C210	C	1.129764	0.264081	-0.211945
C211	C	0.638279	-0.110310	-0.401928
C212	C	1.138279	0.389690	0.098072
C213	C	0.638312	-0.060377	-0.401966
C214	C	1.138312	0.439623	0.098034
C215	C	0.625146	-0.240509	-0.881599
C216	C	1.125146	0.259491	-0.381599
C217	C	0.651344	-0.214329	-0.922931
C218	C	1.151344	0.285671	-0.422931
C219	C	0.648774	-0.216883	-1.017333
C220	C	1.148774	0.283117	-0.517333
C221	C	0.627715	-0.237956	-0.787189
C222	C	1.127715	0.262044	-0.287189
C223	C	0.644119	-0.221564	-0.185241
C224	C	1.144119	0.278436	0.314759
C225	C	0.646726	-0.218918	-0.092580
C226	C	1.146726	0.281082	0.407420
H227	H	0.106525	-0.312535	-0.551638
H228	H	0.606525	0.187465	-0.051638
Cl229	Cl	0.549476	-0.845967	-0.228071
Cl230	Cl	1.049476	-0.345967	0.271929
H231	H	0.588719	-0.481057	-0.304953
H232	H	1.088719	0.018943	0.195047
Cl233	Cl	0.368423	-0.295685	-0.521909
Cl234	Cl	0.868423	0.204315	-0.021909
Cl235	Cl	0.576625	-0.384916	-0.281293
Cl236	Cl	1.076625	0.115084	0.218707
H237	H	0.600789	-0.264840	-0.917108
H238	H	1.100789	0.235160	-0.417108
Cl239	Cl	0.010386	-0.325921	-0.575237
Cl240	Cl	0.510386	0.174079	-0.075237
Cl241	Cl	0.549449	-0.740084	-0.228042
Cl242	Cl	1.049449	-0.240084	0.271958
Cl243	Cl	-0.203988	-0.295740	-0.522038
Cl244	Cl	0.296012	0.204260	-0.022038
Cl245	Cl	0.688963	-0.176772	-0.868107
Cl246	Cl	1.188963	0.323228	-0.368107
H247	H	-0.107833	-0.282346	-0.498458
H248	H	0.392167	0.217654	0.001542
H249	H	0.247282	-0.312523	-0.551584
H250	H	0.747282	0.187477	-0.051584
H251	H	-0.187705	-0.172692	-0.305386
H252	H	0.312295	0.327308	0.194614
H253	H	0.714924	-0.703412	-0.552090
H254	H	1.214924	-0.203412	-0.052090
Cl255	Cl	0.727028	-0.855190	-0.575770
Cl256	Cl	1.227028	-0.355190	-0.075770
Cl257	Cl	0.019818	-0.129056	-0.228562
Cl258	Cl	0.519818	0.370944	0.271438
Cl259	Cl	-0.091568	-0.159288	-0.281797
Cl260	Cl	0.408432	0.340712	0.218203
H261	H	0.588865	-1.053449	-0.305118
H262	H	1.088865	-0.553449	0.194882
H263	H	0.114671	-0.142433	-0.252106
H264	H	0.614671	0.357567	0.247894
H265	H	0.384694	-0.172635	-0.305236
H266	H	0.884694	0.327365	0.194764
Cl267	Cl	0.699694	-0.497191	-0.522293
Cl268	Cl	1.199694	0.002809	-0.022293
H269	H	0.464560	-0.282296	-0.498300
H270	H	0.964560	0.217704	0.001700
Cl271	Cl	0.160566	-0.129043	-0.228525
Cl272	Cl	0.660566	0.370957	0.271475
Cl273	Cl	0.480848	-0.159245	-0.281651
Cl274	Cl	0.980848	0.340755	0.218349
H275	H	0.255431	-0.142424	-0.252078
H276	H	0.755431	0.357576	0.247922
Cl277	Cl	0.576757	-0.957327	-0.281464
Cl278	Cl	1.076757	-0.457327	0.218536
H279	H	0.162176	-0.312529	-0.551606
H280	H	0.662176	0.187471	-0.051606
H281	H	0.687601	-0.401066	-0.498606
H282	H	1.187601	0.098934	0.001394
H283	H	0.714905	-0.618305	-0.552060
H284	H	1.214905	-0.118305	-0.052060
Cl285	Cl	0.699813	-0.963704	-0.522421
Cl286	Cl	1.199813	-0.463704	-0.022421
H287	H	0.561503	-0.695448	-0.251667
H288	H	1.061503	-0.195448	0.248333
Cl289	Cl	0.699833	-1.069606	-0.522448
Cl290	Cl	1.199833	-0.569606	-0.022448
H291	H	0.561480	-0.610339	-0.251653
H292	H	1.061480	-0.110339	0.248347
H293	H	0.714938	-0.759053	-0.552107
H294	H	1.214938	-0.259053	-0.052107
