data_functionalizedCrystal
_audit_creation_method	'MofGen! by Chris Wilmer'
_symmetry_space_group_name_H-M	'P1'
_symmetry_Int_Tables_number	1
_symmetry_cell_setting	triclinic
loop_
_symmetry_equiv_pos_as_xyz
  x,y,z
_cell_length_a	19.288864
_cell_length_b	14.519709
_cell_length_c	17.766277
_cell_angle_alpha	89.992699
_cell_angle_beta	89.976791
_cell_angle_gamma	83.408195
loop_
_atom_site_label
_atom_site_type_symbol
_atom_site_fract_x
_atom_site_fract_y
_atom_site_fract_z
O1	O	0.921767	0.115045	-0.062837
O2	O	0.719562	0.130564	-0.062786
O3	O	0.826026	-0.011468	-0.062806
O4	O	0.815304	0.257077	-0.062817
O5	O	0.826007	-0.011475	0.062382
O6	O	0.719544	0.130557	0.062402
O7	O	0.921748	0.115038	0.062351
Cu8	Cu	0.820644	0.122797	0.073808
Cu9	Cu	0.820666	0.122805	-0.074242
O10	O	0.815285	0.257070	0.062371
C11	C	0.693675	0.130061	-0.000185
C12	C	0.616566	0.128562	-0.000165
C13	C	0.572169	0.211900	-0.000181
C14	C	0.499717	0.210492	-0.000189
C15	C	0.471665	0.125741	-0.000197
C16	C	0.516071	0.042392	-0.000178
C17	C	0.588521	0.043803	-0.000162
C18	C	0.363169	0.059120	-0.044079
C19	C	0.290720	0.057713	-0.044099
C20	C	0.248203	0.121387	-0.000242
C21	C	0.278144	0.186483	0.043625
C22	C	0.350594	0.187894	0.043641
C23	C	0.393105	0.124202	-0.000214
C24	C	0.125246	0.203203	-0.000265
C25	C	0.052792	0.201792	-0.000269
C26	C	0.069148	0.033689	-0.000265
C27	C	0.141599	0.035103	-0.000254
C28	C	0.169644	0.119863	-0.000258
C29	C	0.825517	-0.045828	-0.000212
C30	C	0.824019	-0.148200	-0.000211
C31	C	0.818507	-0.523061	-0.000229
C32	C	0.820037	-0.418762	-0.000224
C33	C	0.821263	-0.335633	-0.000219
C34	C	0.822794	-0.231329	-0.000215
C35	C	0.947636	0.115541	-0.000251
C36	C	1.024745	0.117040	-0.000276
C37	C	0.815794	0.291430	-0.000225
C38	C	0.817291	0.393802	-0.000230
N39	N	0.820634	0.122790	0.177938
N40	N	0.820682	0.122805	-0.178373
C41	C	0.867791	0.059929	0.217316
C42	C	0.867795	0.059925	0.296118
C43	C	0.820648	0.122798	0.335538
C44	C	0.773482	0.185664	0.296151
C45	C	0.773475	0.185660	0.217351
C46	C	0.811652	0.206826	0.460375
C47	C	0.811664	0.206831	0.539173
C48	C	0.820667	0.122809	0.578585
C49	C	0.829672	0.038778	0.539188
C50	C	0.829665	0.038775	0.460387
C51	C	0.820651	0.122808	0.420984
C52	C	0.867831	0.059938	0.703409
C53	C	0.867830	0.059932	0.782212
C54	C	0.773521	0.185679	0.782244
C55	C	0.773518	0.185676	0.703442
C56	C	0.820677	0.122807	0.664029
H57	H	0.624670	-0.024063	-0.000150
H58	H	0.016645	0.269658	-0.000277
H59	H	0.046308	-0.035317	-0.000319
H60	H	0.735121	0.236867	0.671378
C61	C	0.919696	-0.009224	0.660051
H62	H	0.947775	-0.046673	0.694793
H63	H	0.948647	0.023850	0.629292
H64	H	0.894656	-0.047531	0.629331
H65	H	0.906230	0.008738	0.814274
H66	H	0.177748	-0.032760	-0.000246
C67	C	0.257792	-0.013892	-0.092347
H68	H	0.293489	-0.051624	-0.118453
H69	H	0.226447	0.017433	-0.127626
H70	H	0.233135	-0.051678	-0.060722
C71	C	0.919656	-0.009234	0.173966
H72	H	0.947738	-0.046679	0.208709
H73	H	0.948605	0.023838	0.143202
H74	H	0.894617	-0.047546	0.143250
C75	C	0.409931	-0.010919	-0.092331
H76	H	0.381723	-0.049877	-0.118468
H77	H	0.441803	-0.047612	-0.060712
H78	H	0.435105	0.021531	-0.127594
C79	C	0.485216	-0.050831	-0.000191
H80	H	0.435708	-0.039736	-0.000211
H81	H	0.500422	-0.085140	0.043468
H82	H	0.500475	-0.085128	-0.043849
H83	H	0.906198	0.008734	0.328185
C84	C	0.839559	-0.053649	0.417051
H85	H	0.845018	-0.103691	0.451802
H86	H	0.879938	-0.055598	0.386204
H87	H	0.799813	-0.058683	0.386419
H88	H	0.148080	0.272220	-0.000257
C89	C	0.801764	0.299258	0.582503
H90	H	0.796389	0.349298	0.547747
H91	H	0.841459	0.304247	0.613218
H92	H	0.761323	0.301259	0.613267
C93	C	0.721660	0.254838	0.825597
H94	H	0.728420	0.245841	0.878168
H95	H	0.675293	0.244980	0.812709
H96	H	0.729281	0.316365	0.812671
H97	H	0.837003	-0.029641	0.571275
C98	C	0.801753	0.299256	0.417029
H99	H	0.796403	0.349300	0.451777
H100	H	0.761312	0.301264	0.386308
H101	H	0.841450	0.304231	0.386270
H102	H	0.735093	0.236854	0.328251
C103	C	0.450869	0.302165	-0.000209
H104	H	0.403704	0.289183	-0.000214
H105	H	0.459407	0.336929	-0.043865
H106	H	0.459356	0.336931	0.043452
C107	C	0.721604	0.254816	0.174033
H108	H	0.693527	0.292265	0.208794
H109	H	0.692652	0.221740	0.143309
H110	H	0.746640	0.293125	0.143279
H111	H	0.374969	0.240895	0.079362
C112	C	0.603015	0.305132	-0.000171
H113	H	0.566193	0.354564	-0.000173
H114	H	0.630965	0.309185	-0.043817
H115	H	0.630909	0.309170	0.043500
H116	H	0.243528	0.238332	0.079338
