data_functionalizedCrystal
_audit_creation_method	'MofGen! by Chris Wilmer'
_symmetry_space_group_name_H-M	'P1'
_symmetry_Int_Tables_number	1
_symmetry_cell_setting	triclinic
loop_
_symmetry_equiv_pos_as_xyz
  x,y,z
_cell_length_a	11.026607
_cell_length_b	26.210047
_cell_length_c	11.026607
_cell_angle_alpha	90.007718
_cell_angle_beta	71.413983
_cell_angle_gamma	90.010318
loop_
_atom_site_label
_atom_site_type_symbol
_atom_site_fract_x
_atom_site_fract_y
_atom_site_fract_z
O1	O	1.726740	0.042428	-0.533608
O2	O	1.360160	0.042429	-0.472844
O3	O	1.513068	0.042426	-0.319936
O4	O	1.573832	0.042430	-0.686516
O5	O	1.513037	-0.042432	-0.319958
O6	O	1.360129	-0.042429	-0.472866
O7	O	1.726709	-0.042430	-0.533630
Cu8	Cu	1.543416	-0.050178	-0.503250
Cu9	Cu	1.543453	0.050176	-0.503224
O10	O	1.573801	-0.042428	-0.686538
C11	C	1.312485	-0.000000	-0.461645
C12	C	1.170471	-0.000000	-0.428228
N13	N	1.543399	-0.120762	-0.503270
C14	C	1.116821	0.000001	-0.520498
C15	C	0.970043	0.000002	-0.485962
C16	C	1.611156	-0.473277	-0.435534
C17	C	1.611180	-0.686936	-0.435522
O18	O	1.668741	-0.714558	-0.377925
N19	N	1.543453	-0.713656	-0.503197
C20	C	1.475709	-0.686958	-0.570873
O21	O	1.418093	-0.714588	-0.628424
C22	C	1.475678	-0.473301	-0.570877
C23	C	1.543420	-0.446583	-0.503208
C24	C	1.678891	-0.446559	-0.367869
C25	C	1.678890	-0.393148	-0.367878
C26	C	1.611154	-0.366454	-0.435552
C27	C	1.543419	-0.393172	-0.503217
C28	C	1.407927	-0.446604	-0.638544
C29	C	1.407923	-0.393186	-0.638537
C30	C	1.475664	-0.366469	-0.570868
C31	C	1.475682	-0.313066	-0.570900
N32	N	1.543408	-0.286346	-0.503225
C33	C	1.611144	-0.313040	-0.435551
C34	C	1.475732	-0.799132	-0.570869
C35	C	1.475741	-0.852546	-0.570870
C36	C	1.611211	-0.852519	-0.435517
C37	C	1.611208	-0.799104	-0.435524
C38	C	1.543459	-0.772411	-0.503194
C39	C	1.611138	-0.200872	-0.435576
C40	C	1.611135	-0.147456	-0.435596
C41	C	1.475661	-0.147487	-0.570943
C42	C	1.475668	-0.200898	-0.570930
C43	C	1.543410	-0.227590	-0.503237
O44	O	1.418139	-0.285411	-0.628455
O45	O	1.668729	-0.285401	-0.377986
C46	C	1.611157	-0.526689	-0.435524
C47	C	1.543422	-0.553406	-0.503189
C48	C	1.475686	-0.526712	-0.570863
C49	C	1.543431	-0.606820	-0.503190
C50	C	1.611167	-0.633514	-0.435516
C51	C	1.678894	-0.606794	-0.367841
C52	C	1.678893	-0.553382	-0.367851
C53	C	1.407959	-0.553433	-0.638538
C54	C	1.407967	-0.606844	-0.638525
C55	C	1.475703	-0.633538	-0.570851
C56	C	1.774384	-0.000000	-0.544828
C57	C	1.916398	0.000003	-0.578245
C58	C	1.501843	-0.000002	-0.272287
C59	C	1.468426	-0.000000	-0.130273
N60	N	1.543477	0.120760	-0.503196
C61	C	1.585026	0.000001	-0.734187
C62	C	1.618443	0.000003	-0.876200
C63	C	1.560695	0.000000	-0.076624
C64	C	1.526160	0.000002	0.070155
H65	H	1.179555	-0.000001	-0.625061
F66	F	1.403577	-0.119069	-0.642967
H67	H	1.421590	0.000006	0.132884
H68	H	0.907314	0.000014	-0.381393
F69	F	1.403623	-0.770728	-0.642899
H70	H	1.352765	-0.468350	-0.693646
F71	F	1.683241	-0.119024	-0.363573
H72	H	1.363863	0.000003	-0.067540
F73	F	1.755125	0.000005	0.041816
H74	H	0.979125	0.000000	-0.682816
H75	H	1.107738	0.000012	-0.323666
F76	F	1.683236	-0.229271	-0.363530
F77	F	1.683301	-0.880939	-0.363493
F78	F	1.750982	-0.364718	-0.295849
H79	H	1.734054	-0.531633	-0.312748
F80	F	1.335869	-0.635274	-0.710560
F81	F	1.335862	-0.525029	-0.710569
H82	H	1.666368	-0.777354	-0.380421
F83	F	1.750989	-0.474962	-0.295833
H84	H	1.420596	-0.874296	-0.625989
F85	F	1.697370	0.000003	-0.158615
F86	F	1.403585	-0.229332	-0.642968
F87	F	1.335809	-0.364781	-0.710560
H88	H	1.734053	-0.628537	-0.312744
