data_functionalizedCrystal
_audit_creation_method	'MofGen! by Chris Wilmer'
_symmetry_space_group_name_H-M	'P1'
_symmetry_Int_Tables_number	1
_symmetry_cell_setting	triclinic
loop_
_symmetry_equiv_pos_as_xyz
  x,y,z
_cell_length_a	18.101398
_cell_length_b	18.101395
_cell_length_c	14.908694
_cell_angle_alpha	93.269480
_cell_angle_beta	86.687943
_cell_angle_gamma	90.029256
loop_
_atom_site_label
_atom_site_type_symbol
_atom_site_fract_x
_atom_site_fract_y
_atom_site_fract_z
Zn1	Zn	1.156271	-0.319010	-0.509986
Zn2	Zn	1.149023	-0.435717	-0.359130
Zn3	Zn	1.025287	-0.311891	-0.359155
Zn4	Zn	1.032379	-0.442809	-0.509952
O5	O	1.090740	-0.377357	-0.434556
O6	O	1.258943	-0.334503	-0.489978
O7	O	1.126608	-0.413344	-0.232891
O8	O	1.042728	-0.209204	-0.379188
O9	O	1.253618	-0.420247	-0.379145
O10	O	1.138961	-0.214434	-0.490003
O11	O	1.035700	-0.322369	-0.232910
O12	O	0.922595	-0.329246	-0.379155
O13	O	1.054815	-0.432334	-0.636199
O14	O	0.927805	-0.425431	-0.489945
O15	O	1.145838	-0.341380	-0.636224
O16	O	1.133485	-0.540289	-0.379112
O17	O	1.047787	-0.545500	-0.489920
C18	C	0.898329	-0.377336	-0.434550
C19	C	0.816016	-0.377346	-0.434568
C20	C	0.665308	-0.377360	-0.434567
C21	C	0.637252	-0.437960	-0.504165
C22	C	0.551624	-0.438182	-0.503958
C23	C	0.516925	-0.377373	-0.434567
C24	C	0.543470	-0.393694	-0.339378
C25	C	0.629134	-0.394122	-0.339780
C26	C	0.634959	-0.300257	-0.459327
C27	C	0.549408	-0.300785	-0.461424
C28	C	0.433065	-0.377379	-0.434561
C29	C	0.749167	-0.377355	-0.434566
C30	C	1.090640	-0.569766	-0.434529
C31	C	1.090666	-0.652081	-0.434548
C32	C	1.090831	-0.951174	-0.434597
C33	C	1.037053	-0.923166	-0.504487
C34	C	1.036771	-0.837538	-0.504269
C35	C	1.090749	-0.802791	-0.434573
C36	C	1.065118	-0.829440	-0.339498
C37	C	1.064770	-0.915105	-0.339916
C38	C	1.170326	-0.920673	-0.458945
C39	C	1.169964	-0.835121	-0.461030
C40	C	1.090704	-0.718930	-0.434554
C41	C	1.090874	-1.035034	-0.434609
C42	C	1.283902	-0.377378	-0.434563
C43	C	1.366217	-0.377387	-0.434565
C44	C	1.101926	-0.388442	-0.669860
C45	C	1.106692	-0.393166	-0.770132
C46	C	1.090862	-0.184197	-0.434602
C47	C	1.090914	-0.101884	-0.434622
C48	C	1.020969	-0.307313	-0.958576
C49	C	1.025445	-0.311749	-1.052791
C50	C	1.120116	-0.406477	-1.052779
C51	C	1.115640	-0.402041	-0.958564
C52	C	1.066066	-0.352456	-0.911466
C53	C	1.061594	-0.348017	-0.817249
C54	C	1.156261	-0.442749	-0.817239
C55	C	1.160737	-0.447185	-0.911454
C56	C	1.079641	-0.366261	-0.200167
C57	C	1.075018	-0.361329	-0.099895
H58	H	0.648085	-0.450338	-0.318853
H59	H	1.053329	-0.819812	-0.574766
H60	H	1.006525	-0.934170	-0.319290
N61	N	0.988747	-0.799796	-0.311687
H62	H	0.952679	-0.818357	-0.356986
H63	H	0.972806	-0.817252	-0.250412
N64	N	0.528223	-0.424695	-0.597237
H65	H	0.573569	-0.418630	-0.638882
H66	H	0.498192	-0.468030	-0.620359
N67	N	1.173575	-0.459952	-1.103599
H68	H	1.225720	-0.447686	-1.087221
H69	H	1.161200	-0.512072	-1.087175
N70	N	1.200123	-0.953487	-0.549211
H71	H	1.162389	-0.988462	-0.575236
H72	H	1.210551	-0.912494	-0.591338
H73	H	0.988723	-0.274988	-1.091144
N74	N	1.214197	-0.500670	-0.962254
H75	H	1.210188	-0.496633	-1.029088
H76	H	1.266313	-0.488373	-0.945796
N77	N	1.204908	-0.491437	-0.766424
H78	H	1.194472	-0.481179	-0.699593
H79	H	1.194215	-0.545103	-0.782975
H80	H	1.053490	-0.947062	-0.575213
H81	H	0.661224	-0.428469	-0.574954
H82	H	0.980610	-0.266932	-0.920228
H83	H	1.021231	-0.307640	-0.778903
H84	H	1.189211	-0.818070	-0.531000
N85	N	1.114050	-0.939176	-0.268562
H86	H	1.114202	-0.994959	-0.268271
H87	H	1.166084	-0.921054	-0.281948
N88	N	0.664691	-0.513337	-0.482668
H89	H	0.621060	-0.546712	-0.469925
H90	H	0.696191	-0.535336	-0.535653
H91	H	0.530324	-0.495409	-0.487531
N92	N	0.513172	-0.336764	-0.268803
H93	H	0.481837	-0.362130	-0.221512
H94	H	0.555541	-0.310275	-0.239754
N95	N	0.653247	-0.337859	-0.268713
H96	H	0.631598	-0.351071	-0.207761
H97	H	0.709031	-0.337727	-0.268499
H98	H	0.520983	-0.449271	-0.318094
H99	H	1.102856	-0.806539	-0.286005
N100	N	1.226333	-0.803817	-0.398516
H101	H	1.266007	-0.777011	-0.434259
H102	H	1.201151	-0.768104	-0.351959
H103	H	0.659816	-0.284460	-0.527569
N104	N	0.526924	-0.284357	-0.554215
H105	H	0.495825	-0.326345	-0.578761
H106	H	0.497275	-0.236923	-0.550581
H107	H	0.652836	-0.255166	-0.408641
N108	N	0.518154	-0.238295	-0.399224
H109	H	0.482336	-0.258838	-0.352544
H110	H	0.559794	-0.212085	-0.368342
H111	H	1.210447	-0.938514	-0.408041
H112	H	0.977939	-0.816349	-0.488141
N113	N	0.959600	-0.950753	-0.483401
H114	H	0.959197	-0.981314	-0.428773
H115	H	0.925009	-0.907152	-0.470874
