data_functionalizedCrystal
_audit_creation_method	'MofGen! by Chris Wilmer'
_symmetry_space_group_name_H-M	'P1'
_symmetry_Int_Tables_number	1
_symmetry_cell_setting	triclinic
loop_
_symmetry_equiv_pos_as_xyz
  x,y,z
_cell_length_a	17.077404
_cell_length_b	14.908520
_cell_length_c	17.077396
_cell_angle_alpha	86.731679
_cell_angle_beta	90.019501
_cell_angle_gamma	93.320938
loop_
_atom_site_label
_atom_site_type_symbol
_atom_site_fract_x
_atom_site_fract_y
_atom_site_fract_z
Zn1	Zn	1.182024	-0.359154	0.461868
Zn2	Zn	1.682024	0.140846	0.961868
Zn3	Zn	1.174357	-0.510026	0.338173
Zn4	Zn	1.674357	-0.010026	0.838173
Zn5	Zn	1.050754	-0.359186	0.330617
Zn6	Zn	1.550754	0.140814	0.830617
Zn7	Zn	1.043152	-0.509972	0.469394
Zn8	Zn	1.543152	-0.009972	0.969394
O9	O	1.112572	-0.434584	0.400013
O10	O	1.612572	0.065416	0.900013
O11	O	1.290853	-0.379177	0.445472
O12	O	1.790853	0.120823	0.945472
O13	O	1.157933	-0.490052	0.227326
O14	O	1.657933	0.009948	0.727326
O15	O	1.074557	-0.232937	0.341715
O16	O	1.574557	0.267063	0.841715
O17	O	1.285220	-0.490021	0.354594
O18	O	1.785220	0.009979	0.854594
O19	O	1.171001	-0.232913	0.438145
O20	O	1.671001	0.267087	0.938145
O21	O	1.067123	-0.379231	0.221774
O22	O	1.567123	0.120769	0.721774
O23	O	0.939899	-0.379179	0.349014
O24	O	1.439899	0.120821	0.849014
O25	O	1.061601	-0.489930	0.578241
O26	O	1.561601	0.010070	1.078241
O27	O	0.934314	-0.489961	0.450973
O28	O	1.434314	0.010039	0.950973
O29	O	1.163629	-0.379125	0.572711
O30	O	1.663629	0.120875	1.072711
O31	O	1.150562	-0.636263	0.361892
O32	O	1.650562	-0.136263	0.861892
O33	O	1.054166	-0.636224	0.458300
O34	O	1.554166	-0.136224	0.958300
C35	C	0.908625	-0.434568	0.399990
C36	C	1.408625	0.065432	0.899990
C37	C	0.821374	-0.434583	0.400001
C38	C	1.321374	0.065417	0.900001
C39	C	0.777492	-0.492354	0.453014
C40	C	1.277492	0.007646	0.953014
C41	C	0.695511	-0.492356	0.453027
C42	C	1.195511	0.007644	0.953027
C43	C	0.657414	-0.434591	0.400022
C44	C	1.157414	0.065409	0.900022
C45	C	0.701302	-0.376813	0.347005
C46	C	1.201302	0.123187	0.847005
C47	C	0.783282	-0.376807	0.346997
C48	C	1.283282	0.123193	0.846997
C49	C	0.530432	-0.376831	0.347025
C50	C	1.030432	0.123169	0.847025
C51	C	0.448447	-0.376837	0.347032
C52	C	0.948447	0.123163	0.847032
C53	C	0.442661	-0.492380	0.453055
C54	C	0.942661	0.007620	0.953055
C55	C	0.524640	-0.492374	0.453047
C56	C	1.024640	0.007626	0.953047
C57	C	0.568523	-0.434597	0.400029
C58	C	1.068523	0.065403	0.900029
C59	C	1.100728	-0.668978	0.411750
C60	C	1.600728	-0.168978	0.911750
C61	C	1.095734	-0.769252	0.416797
C62	C	1.595734	-0.269252	0.916797
C63	C	1.186828	-0.957658	0.325973
C64	C	1.686828	-0.457658	0.825973
C65	C	1.182137	-1.051875	0.330713
C66	C	1.682137	-0.551875	0.830713
C67	C	1.081667	-1.051904	0.431020
C68	C	1.581667	-0.551904	0.931020
C69	C	1.086357	-0.957687	0.426280
C70	C	1.586357	-0.457687	0.926280
C71	C	1.138939	-0.910568	0.373754
C72	C	1.638939	-0.410568	0.873754
C73	C	1.143625	-0.816349	0.369011
C74	C	1.643625	-0.316349	0.869011
C75	C	1.043159	-0.816380	0.469321
C76	C	1.543159	-0.316380	0.969321
C77	C	1.038468	-0.910597	0.474061
C78	C	1.538468	-0.410597	0.974061
C79	C	1.317315	-0.434601	0.400036
C80	C	1.817315	0.065399	0.900036
C81	C	1.404564	-0.434609	0.400046
C82	C	1.904564	0.065391	0.900046
C83	C	1.112622	-0.434518	0.604754
C84	C	1.612622	0.065482	1.104754
C85	C	1.112644	-0.434490	0.692002
C86	C	1.612644	0.065510	1.192002
C87	C	1.124482	-0.199276	0.388248
C88	C	1.624482	0.300724	0.888248
C89	C	1.129558	-0.099001	0.383234
C90	C	1.629558	0.400999	0.883234
C91	C	1.112569	-0.434585	0.196065
C92	C	1.612569	0.065415	0.696065
C93	C	1.112713	-0.434360	0.108804
C94	C	1.612713	0.065640	0.608804
C95	C	1.165772	-0.376788	0.730114
C96	C	1.665772	0.123212	1.230114
C97	C	1.165783	-0.376758	0.812093
C98	C	1.665783	0.123242	1.312093
C99	C	1.112669	-0.434435	0.855959
C100	C	1.612669	0.065565	1.355959
C101	C	1.059535	-0.492138	0.817842
C102	C	1.559535	0.007862	1.317842
C103	C	1.059521	-0.492163	0.735864
C104	C	1.559521	0.007837	1.235864
C105	C	1.059569	-0.492084	0.988709
C106	C	1.559569	0.007916	1.488709
C107	C	1.059584	-0.492061	1.070693
C108	C	1.559584	0.007939	1.570693
C109	C	1.165832	-0.376679	1.064938
C110	C	1.665832	0.123321	1.564938
C111	C	1.165818	-0.376704	0.982961
C112	C	1.665818	0.123296	1.482961
C113	C	1.112684	-0.434409	0.944849
C114	C	1.612684	0.065591	1.444849
H115	H	0.555656	-0.539416	0.496205
H116	H	1.055656	-0.039416	0.996205
F117	F	1.233109	-1.101989	0.279860
F118	F	1.733109	-0.601989	0.779860
F119	F	0.982513	-0.960755	0.529962
F120	F	1.482513	-0.460755	1.029962
H121	H	1.016251	-0.539140	0.704834
H122	H	1.516251	-0.039140	1.204834
F123	F	0.395958	-0.553860	0.509489
F124	F	0.895958	-0.053860	1.009489
H125	H	1.209027	-0.329824	0.694404
H126	H	1.709027	0.170176	1.194404
H127	H	1.038863	-1.090285	0.473789
H128	H	1.538863	-0.590285	0.973789
H129	H	0.417431	-0.329789	0.303879
H130	H	0.917431	0.170211	0.803879
F131	F	0.648812	-0.553844	0.509452
F132	F	1.148812	-0.053844	1.009452
H133	H	1.004162	-0.778028	0.508225
H134	H	1.504162	-0.278028	1.008225
H135	H	1.209048	-0.329774	0.843120
H136	H	1.709048	0.170226	1.343120
F137	F	1.222352	-0.315324	0.936277
F138	F	1.722352	0.184676	1.436277
F139	F	1.222381	-0.315265	1.105500
F140	F	1.722381	0.184735	1.605500
H141	H	1.229636	-0.919293	0.283199
H142	H	1.729636	-0.419293	0.783199
F143	F	0.577133	-0.315337	0.290598
F144	F	1.077133	0.184663	0.790598
H145	H	0.670278	-0.329775	0.303850
H146	H	1.170278	0.170225	0.803850
F147	F	0.829984	-0.315317	0.290574
F148	F	1.329984	0.184683	0.790574
F149	F	1.003048	-0.553439	1.117376
F150	F	1.503048	-0.053439	1.617376
F151	F	1.003017	-0.553499	0.948150
F152	F	1.503017	-0.053499	1.448150
F153	F	1.199582	-0.766202	0.313106
F154	F	1.699582	-0.266202	0.813106
H155	H	0.808504	-0.539396	0.496175
H156	H	1.308504	-0.039396	0.996175
F157	F	1.003004	-0.553519	0.864529
F158	F	1.503004	-0.053519	1.364529
