data_functionalizedCrystal
_audit_creation_method	'MofGen! by Chris Wilmer'
_symmetry_space_group_name_H-M	'P1'
_symmetry_Int_Tables_number	1
_symmetry_cell_setting	triclinic
loop_
_symmetry_equiv_pos_as_xyz
  x,y,z
_cell_length_a	29.917948
_cell_length_b	29.917021
_cell_length_c	29.913391
_cell_angle_alpha	60.005297
_cell_angle_beta	60.010472
_cell_angle_gamma	59.993667
loop_
_atom_site_label
_atom_site_type_symbol
_atom_site_fract_x
_atom_site_fract_y
_atom_site_fract_z
O1	O	0.061938	-0.653075	0.546110
O2	O	0.023328	-0.508466	0.440017
O3	O	0.114898	-0.599963	0.439941
O4	O	-0.029633	-0.561578	0.546186
O5	O	0.145278	-0.569587	0.470242
O6	O	0.053708	-0.478090	0.470318
O7	O	0.092318	-0.622699	0.576411
Zn8	Zn	0.077836	-0.545572	0.528175
Zn9	Zn	0.037809	-0.585593	0.488253
O10	O	0.000747	-0.531202	0.576487
N11	N	0.105154	-0.518262	0.555424
N12	N	0.010496	-0.612908	0.461004
C13	C	0.164136	-0.309209	0.614352
C14	C	0.164251	-0.459335	0.764424
C15	C	0.164150	-0.459313	0.614341
C16	C	0.314282	-0.459305	0.614278
C17	C	0.180666	-0.358742	0.630849
C18	C	0.180732	-0.442815	0.714891
C19	C	0.264747	-0.442797	0.630809
C20	C	0.180676	-0.442802	0.630843
C21	C	0.143097	-0.246161	0.593354
C22	C	0.143120	-0.480326	0.593337
C23	C	0.201706	-0.421790	0.651848
C24	C	0.405963	-0.443499	0.565998
C25	C	0.463273	-0.462598	0.546874
C26	C	0.463297	-0.555329	0.582235
C27	C	0.405988	-0.536228	0.601360
C28	C	0.156905	-0.217495	0.537012
C29	C	0.137776	-0.160180	0.517926
C30	C	0.091035	-0.160201	0.611524
C31	C	0.110164	-0.217516	0.630611
C32	C	0.086772	-0.466488	0.607209
C33	C	0.067659	-0.485590	0.588108
C34	C	0.161236	-0.532368	0.541277
C35	C	0.180352	-0.513266	0.560371
C36	C	0.086942	-0.466529	0.856152
C37	C	0.067877	-0.485647	0.913465
C38	C	0.161489	-0.532436	0.913415
C39	C	0.180552	-0.513318	0.856101
C40	C	0.143277	-0.480363	0.827471
C41	C	0.377323	-0.480313	0.593239
C42	C	-0.111377	-0.650681	0.422736
C43	C	-0.027364	-0.650787	0.422929
C44	C	-0.048335	-0.671770	0.401835
C45	C	-0.064214	-0.763416	0.450041
C46	C	-0.045160	-0.820731	0.469172
C47	C	0.047573	-0.820841	0.433980
C48	C	0.028517	-0.763527	0.414847
C49	C	-0.140115	-0.664483	0.479060
C50	C	-0.197425	-0.645309	0.498058
C51	C	-0.197256	-0.598535	0.404405
C52	C	-0.139946	-0.617709	0.385407
C53	C	-0.041168	-0.594444	0.409067
C54	C	-0.022104	-0.575374	0.428250
C55	C	0.024568	-0.668986	0.475143
C56	C	0.005504	-0.688059	0.455967
C57	C	-0.041000	-0.594453	0.310105
C58	C	-0.021803	-0.575386	0.252792
C59	C	0.024951	-0.669004	0.252854
C60	C	0.005755	-0.688070	0.310168
C61	C	-0.027222	-0.650793	0.338792
C62	C	-0.027377	-0.734817	0.422881
N63	N	0.491125	-0.518235	0.555255
O64	O	0.678406	-0.527360	0.420422
O65	O	0.678588	-0.633782	0.564887
O66	O	0.678516	-0.633539	0.473265
O67	O	0.678478	-0.527602	0.512044
O68	O	0.587469	-0.603251	0.503685
O69	O	0.587541	-0.603493	0.595307
O70	O	0.587359	-0.497071	0.450842
Zn71	Zn	0.572994	-0.545473	0.527905
Zn72	Zn	0.692953	-0.585380	0.487825
O73	O	0.587431	-0.497313	0.542465
N74	N	0.774821	-0.612618	0.460470
N75	N	0.105125	-0.132348	0.555445
O76	O	-0.029633	0.055031	0.546198
O77	O	0.114837	0.055047	0.439777
O78	O	0.023189	0.055024	0.440050
O79	O	0.062016	0.055054	0.545925
O80	O	0.053572	-0.036031	0.470398
O81	O	0.145220	-0.036008	0.470125
O82	O	0.000750	-0.036024	0.576546
Zn83	Zn	0.077809	-0.050473	0.528154
Zn84	Zn	0.037778	0.069496	0.488169
O85	O	0.092399	-0.036001	0.576273
N86	N	0.010456	0.151371	0.460879
N87	N	0.105414	-0.518315	0.941279
O88	O	0.096182	-0.653057	1.128644
O89	O	-0.010215	-0.508539	1.128670
O90	O	-0.009968	-0.600172	1.128636
O91	O	0.095935	-0.561424	1.128678
O92	O	0.020367	-0.569808	1.037586
O93	O	0.020121	-0.478175	1.037620
O94	O	0.126517	-0.622693	1.037594
Zn95	Zn	0.078135	-0.545613	1.023151
Zn96	Zn	0.038167	-0.585619	1.143113
O97	O	0.126270	-0.531061	1.037628
N98	N	0.010887	-0.612923	1.224985
C99	C	0.034899	-0.475056	0.440551
C100	C	0.148298	-0.588365	0.440456
C101	C	0.080746	-0.656109	0.575876
C102	C	-0.032653	-0.542801	0.575971
C103	C	0.633086	-0.633292	0.598298
C104	C	0.632998	-0.632993	0.484834
C105	C	0.632857	-0.497559	0.417433
C106	C	0.632949	-0.497860	0.530895
C107	C	0.148191	0.009634	0.440259
C108	C	0.034733	0.009493	0.440634
C109	C	-0.032641	0.009502	0.576027
C110	C	0.080854	0.009529	0.575690
C111	C	-0.009699	-0.475150	1.083148
C112	C	-0.009388	-0.588620	1.083088
C113	C	0.126001	-0.656082	1.083116
C114	C	0.125697	-0.542605	1.083155
H115	H	0.056584	-0.439691	0.832846
H116	H	0.016979	-0.733950	0.333522
H117	H	0.189808	-0.596548	0.407092
H118	H	0.159407	-0.697586	1.083101
H119	H	0.026652	-0.433515	0.407232
O120	O	0.632863	-0.458088	0.540749
C121	C	0.585667	-0.411948	0.534721
H122	H	0.569919	-0.412387	0.507279
H123	H	0.596237	-0.373075	0.515405
H124	H	0.552682	-0.413070	0.576602
H125	H	0.088995	-0.697649	0.609197
O126	O	-0.049114	-0.598495	1.083124
C127	C	-0.095301	-0.592398	1.130257
H128	H	-0.082224	-0.598350	1.163252
H129	H	-0.114716	-0.624277	1.146040
H130	H	-0.126310	-0.549639	1.119591
O131	O	-0.225322	-0.658810	0.552779
C132	C	-0.211366	-0.716212	0.576600
H133	H	-0.195561	-0.734697	0.543960
H134	H	-0.249097	-0.727132	0.610323
H135	H	-0.178155	-0.733222	0.594781
O136	O	0.165339	-0.532621	1.083138
C137	C	0.145394	-0.478807	1.083165
H138	H	0.110246	-0.452899	1.065929
H139	H	0.179676	-0.460391	1.056736
H140	H	0.130132	-0.479616	1.126851
O141	O	-0.082128	-0.533087	0.615844
C142	C	-0.074931	-0.539206	0.661961
H143	H	-0.031264	-0.566593	0.661397
H144	H	-0.104962	-0.558629	0.700849
H145	H	-0.082749	-0.497344	0.660928
O146	O	0.197606	0.009968	0.400350
C147	C	0.231661	0.010070	0.420011
H148	H	0.205330	0.027129	0.455282
H149	H	0.257674	0.036719	0.385633
H150	H	0.259516	-0.033554	0.435018
O151	O	-0.082099	0.009474	0.615955
C152	C	-0.082066	0.009499	0.663060
H153	H	-0.038144	-0.007732	0.662401
H154	H	-0.106389	-0.016938	0.701173
H155	H	-0.101637	0.053185	0.663699
H156	H	0.089168	0.009538	0.608950
H157	H	0.633014	-0.666272	0.476534
H158	H	0.633132	-0.666701	0.639790
O159	O	0.013138	-0.472221	0.941260
C160	C	-0.010676	-0.491827	0.927275
H161	H	0.016476	-0.497437	0.885655
H162	H	-0.052841	-0.461107	0.925334
H163	H	-0.014921	-0.532788	0.959525
O164	O	-0.049619	-0.425682	1.083228
C165	C	-0.095737	-0.432893	1.130386
H166	H	-0.095116	-0.476577	1.146097
H167	H	-0.134622	-0.402889	1.119778
H168	H	-0.094766	-0.425042	1.163415
H169	H	0.026418	0.009490	0.407371
O170	O	0.197772	-0.564459	0.941142
C171	C	0.251584	-0.572559	0.903537
H172	H	0.251453	-0.566142	0.862687
H173	H	0.278812	-0.616030	0.920075
H174	H	0.268002	-0.542057	0.897443
O175	O	0.632812	-0.457763	0.367901
C176	C	0.632780	-0.477470	0.333838
H177	H	0.650063	-0.524104	0.348640
H178	H	0.659165	-0.460657	0.289973
H179	H	0.589089	-0.463584	0.335356
H180	H	-0.067926	-0.564092	0.382165
O181	O	0.235275	-0.526823	0.828218
C182	C	0.249107	-0.555658	0.795051
H183	H	0.216805	-0.575056	0.812333
H184	H	0.290721	-0.589055	0.794380
H185	H	0.250982	-0.526181	0.751622
H186	H	0.056452	-0.439666	0.634048
H187	H	0.021776	-0.474310	0.599390
H188	H	0.191560	-0.559196	0.514439
H189	H	0.226235	-0.524529	0.549071
H190	H	0.093086	-0.844219	0.427442
H191	H	0.486634	-0.600858	0.588843
O192	O	0.378198	-0.572004	0.627732
C193	C	0.392201	-0.598847	0.592655
H194	H	0.407925	-0.572744	0.548289
H195	H	0.354514	-0.605299	0.599435
H196	H	0.425487	-0.640205	0.601878
O197	O	0.491073	-0.426803	0.520327
C198	C	0.477024	-0.387888	0.473094
H199	H	0.461254	-0.405548	0.459936
H200	H	0.514699	-0.377395	0.438680
H201	H	0.443759	-0.349253	0.482474
O202	O	0.378031	-0.389196	0.558137
C203	C	0.321305	-0.380229	0.580868
H204	H	0.313478	-0.415259	0.583629
H205	H	0.299504	-0.339974	0.553772
H206	H	0.305065	-0.378202	0.623582
O207	O	0.188869	-0.245234	0.500746
C208	C	0.196960	-0.207640	0.446922
H209	H	0.162398	-0.166789	0.447043
H210	H	0.197242	-0.224196	0.419718
H211	H	0.237782	-0.201536	0.430483
H212	H	0.149018	-0.136838	0.472047
H213	H	0.098918	-0.240852	0.676488
O214	O	0.059035	-0.132457	0.647789
C215	C	0.050969	-0.170051	0.701612
H216	H	0.057377	-0.210907	0.701508
H217	H	0.007513	-0.153502	0.728842
H218	H	0.081493	-0.176143	0.718010
H219	H	-0.067855	-0.564093	0.333408
O220	O	-0.035267	-0.520635	0.225015
C221	C	-0.068479	-0.491827	0.262573
H222	H	-0.089371	-0.519127	0.303403
H223	H	-0.100858	-0.453557	0.245945
H224	H	-0.042065	-0.479500	0.268739
H225	H	-0.033345	-0.529494	0.416965
O226	O	0.056912	-0.705270	0.225113
C227	C	0.027948	-0.738343	0.239042
H228	H	-0.005466	-0.738855	0.280615
H229	H	0.057326	-0.781830	0.241056
H230	H	0.008565	-0.721089	0.206720
O231	O	0.056553	-0.705246	0.507168
C232	C	0.104644	-0.738421	0.478288
H233	H	0.097017	-0.738973	0.444875
H234	H	0.116671	-0.781884	0.507727
H235	H	0.139131	-0.721234	0.458909
O236	O	0.018834	-0.742783	0.469457
C237	C	-0.029330	-0.756589	0.498190
H238	H	-0.063778	-0.724277	0.517580
H239	H	-0.021823	-0.798208	0.531583
H240	H	-0.041336	-0.758445	0.468643
O241	O	0.064374	-0.735829	0.388496
C242	C	0.117794	-0.773463	0.385501
H243	H	0.115556	-0.814299	0.419355
H244	H	0.141299	-0.756936	0.390755
H245	H	0.139725	-0.779586	0.343973
H246	H	-0.075156	-0.844016	0.491279
H247	H	-0.109727	-0.740044	0.456586
H248	H	-0.116855	-0.691337	0.509456
H249	H	-0.116547	-0.606465	0.339541
O250	O	-0.224926	-0.566498	0.368072
C251	C	-0.187272	-0.558449	0.314283
H252	H	-0.146440	-0.564901	0.314469
H253	H	-0.203767	-0.514981	0.287029
H254	H	-0.181163	-0.588956	0.297854
