data_functionalizedCrystal
_audit_creation_method	'MofGen! by Chris Wilmer'
_symmetry_space_group_name_H-M	'P1'
_symmetry_Int_Tables_number	1
_symmetry_cell_setting	triclinic
loop_
_symmetry_equiv_pos_as_xyz
  x,y,z
_cell_length_a	19.805407
_cell_length_b	19.805406
_cell_length_c	19.805399
_cell_angle_alpha	89.984242
_cell_angle_beta	90.018378
_cell_angle_gamma	90.001047
loop_
_atom_site_label
_atom_site_type_symbol
_atom_site_fract_x
_atom_site_fract_y
_atom_site_fract_z
Zn1	Zn	-1.034842	-0.269488	-0.382809
Zn2	Zn	-1.034815	-0.382679	-0.269647
Zn3	Zn	-0.921662	-0.269507	-0.269630
Zn4	Zn	-0.921673	-0.382638	-0.382791
O5	O	-0.978248	-0.326078	-0.326219
O6	O	-1.129555	-0.284512	-0.367812
O7	O	-1.019789	-0.367692	-0.174928
O8	O	-0.936683	-0.174788	-0.284645
O9	O	-1.129535	-0.367673	-0.284672
O10	O	-1.019836	-0.174774	-0.367796
O11	O	-0.936656	-0.284545	-0.174916
O12	O	-0.826947	-0.284505	-0.284627
O13	O	-0.936701	-0.367603	-0.477510
O14	O	-0.826955	-0.367622	-0.367765
O15	O	-1.019846	-0.284472	-0.477523
O16	O	-1.019799	-0.477390	-0.284655
O17	O	-0.936674	-0.477360	-0.367781
C18	C	-0.802392	-0.326062	-0.326193
C19	C	-0.727160	-0.326071	-0.326197
C20	C	-0.978253	-0.501934	-0.326232
C21	C	-0.978317	-0.577166	-0.326261
C22	C	-0.978277	-0.326031	-0.502762
C23	C	-0.978290	-0.326011	-0.577994
C24	C	-0.691837	-0.369415	-0.369417
C25	C	-0.621149	-0.369415	-0.369424
C26	C	-0.585784	-0.326074	-0.326209
C27	C	-0.621112	-0.282726	-0.282988
C28	C	-0.691799	-0.282723	-0.282984
C29	C	-0.336038	-0.282736	-0.283003
C30	C	-0.265346	-0.282743	-0.283009
C31	C	-0.265388	-0.369427	-0.369443
C32	C	-0.336076	-0.369425	-0.369439
C33	C	-0.371397	-0.326074	-0.326221
C34	C	-0.448045	-0.326074	-0.326214
C35	C	-0.509137	-0.326077	-0.326212
C36	C	-0.154791	-0.326090	-0.326240
C37	C	-0.230022	-0.326084	-0.326232
C38	C	-0.978261	-0.149535	-0.326221
C39	C	-0.978267	-0.074303	-0.326221
C40	C	-0.934979	-0.038965	-0.282931
C41	C	-0.934983	0.031723	-0.282938
C42	C	-0.978279	0.067072	-0.326233
C43	C	-1.021569	0.031730	-0.369529
C44	C	-1.021561	-0.038958	-0.369524
C45	C	-1.021602	0.316803	-0.369549
C46	C	-1.021609	0.387495	-0.369549
C47	C	-0.935025	0.387483	-0.282962
C48	C	-0.935017	0.316796	-0.282958
C49	C	-0.978304	0.281460	-0.326256
C50	C	-0.978297	0.204811	-0.326248
C51	C	-0.978289	0.143719	-0.326238
C52	C	-0.935015	-0.282712	-0.613331
C53	C	-0.935025	-0.282699	-0.684020
C54	C	-0.978313	-0.325982	-0.719370
C55	C	-1.021589	-0.369285	-0.684027
C56	C	-1.021576	-0.369301	-0.613340
C57	C	-1.021643	-0.369222	-0.969101
C58	C	-1.021654	-0.369201	-1.039793
C59	C	-0.935091	-0.282620	-1.039780
C60	C	-0.935078	-0.282636	-0.969093
C61	C	-0.978352	-0.325941	-0.933757
C62	C	-0.978341	-0.325956	-0.857109
C63	C	-0.978328	-0.325964	-0.796017
C64	C	-0.978257	-0.326076	-0.150363
C65	C	-0.978376	-0.325905	-0.075132
H66	H	-0.720626	-0.404710	-0.404605
H67	H	-0.592393	-0.404710	-0.404617
Cl68	Cl	-0.380530	-0.423914	-0.423767
H69	H	-0.592312	-0.247434	-0.247804
Cl70	Cl	-0.220888	-0.228253	-0.228678
H71	H	-0.720557	-0.247425	-0.247794
Cl72	Cl	-1.075982	-0.083382	-0.423951
H73	H	-0.899725	-0.067742	-0.247672
H74	H	-0.364788	-0.247442	-0.247807
Cl75	Cl	-0.880553	0.076145	-0.228522
H76	H	-0.899783	-0.247444	-0.712788
Cl77	Cl	-1.076041	0.431933	-0.423982
Cl78	Cl	-1.076005	-0.423702	-0.728467
Cl79	Cl	-1.076014	0.272389	-0.423987
Cl80	Cl	-0.880686	-0.228180	-1.084207
H81	H	-0.899763	0.288018	-0.247700
Cl82	Cl	-1.076077	-0.423619	-1.084232
Cl83	Cl	-1.075992	0.076169	-0.423965
H84	H	-0.899769	-0.247463	-0.584555
Cl85	Cl	-0.880603	0.431911	-0.228533
Cl86	Cl	-0.880659	-0.228219	-0.924657
Cl87	Cl	-1.076050	-0.423658	-0.924687
H88	H	-0.236621	-0.404723	-0.404636
Cl89	Cl	-1.075978	-0.423739	-0.568916
