data_functionalizedCrystal
_audit_creation_method	'MofGen! by Chris Wilmer'
_symmetry_space_group_name_H-M	'P1'
_symmetry_Int_Tables_number	1
_symmetry_cell_setting	triclinic
loop_
_symmetry_equiv_pos_as_xyz
  x,y,z
_cell_length_a	16.120444
_cell_length_b	16.120530
_cell_length_c	16.120297
_cell_angle_alpha	90.128140
_cell_angle_beta	84.384883
_cell_angle_gamma	89.831599
loop_
_atom_site_label
_atom_site_type_symbol
_atom_site_fract_x
_atom_site_fract_y
_atom_site_fract_z
Zn1	Zn	-0.422266	-1.224979	0.554818
Zn2	Zn	-0.088933	-0.891646	0.888152
Zn3	Zn	0.244401	-0.558313	1.221485
Zn4	Zn	-0.554951	-1.224872	0.422125
Zn5	Zn	-0.221617	-0.891539	0.755458
Zn6	Zn	0.111716	-0.558206	1.088792
Zn7	Zn	-0.408182	-1.093719	0.408061
Zn8	Zn	-0.074848	-0.760385	0.741394
Zn9	Zn	0.258485	-0.427052	1.074728
Zn10	Zn	-0.554183	-1.078869	0.554057
Zn11	Zn	-0.220850	-0.745536	0.887391
Zn12	Zn	0.112484	-0.412203	1.220724
O13	O	-0.484895	-1.155610	0.484765
O14	O	-0.151562	-0.822277	0.818099
O15	O	0.181771	-0.488943	1.151432
O16	O	-0.446082	-1.341001	0.543421
O17	O	-0.112749	-1.007667	0.876754
O18	O	0.220584	-0.674334	1.210087
O19	O	-0.529908	-1.213644	0.303627
O20	O	-0.196575	-0.880311	0.636960
O21	O	0.136758	-0.546977	0.970293
O22	O	-0.293419	-1.117390	0.421961
O23	O	0.039914	-0.784057	0.755295
O24	O	0.373248	-0.450723	1.088628
O25	O	-0.543565	-1.340922	0.445931
O26	O	-0.210232	-1.007589	0.779265
O27	O	0.123101	-0.674255	1.112598
O28	O	-0.303767	-1.213826	0.529783
O29	O	0.029567	-0.880493	0.863117
O30	O	0.362900	-0.547160	1.196450
O31	O	-0.422078	-1.117286	0.293294
O32	O	-0.088744	-0.783953	0.626627
O33	O	0.244589	-0.450620	0.959960
O34	O	-0.421333	-0.975713	0.421223
O35	O	-0.088000	-0.642380	0.754557
O36	O	0.245333	-0.309047	1.087890
O37	O	-0.542257	-1.092082	0.670791
O38	O	-0.208924	-0.758748	1.004124
O39	O	0.124410	-0.425415	1.337458
O40	O	-0.528600	-0.964804	0.528486
O41	O	-0.195267	-0.631470	0.861820
O42	O	0.138067	-0.298137	1.195153
O43	O	-0.445338	-1.199428	0.671350
O44	O	-0.112005	-0.866094	1.004684
O45	O	0.221329	-0.532761	1.338017
O46	O	-0.671480	-1.199245	0.445193
O47	O	-0.338146	-0.865912	0.778527
O48	O	-0.004813	-0.532579	1.111860
O49	O	-0.670916	-1.091978	0.542124
O50	O	-0.337582	-0.758644	0.875457
O51	O	-0.004249	-0.425311	1.208790
C52	C	-0.701441	-1.144010	0.495121
C53	C	-0.368108	-0.810677	0.828455
C54	C	-0.034774	-0.477344	1.161788
C55	C	-0.794086	-1.139122	0.499584
C56	C	-0.460752	-0.805789	0.832917
C57	C	-0.127419	-0.472455	1.166250
C58	C	-0.473356	-0.940172	0.473247
C59	C	-0.140022	-0.606838	0.806580
C60	C	0.193311	-0.273505	1.139913
C61	C	-0.468440	-0.848004	0.468340
C62	C	-0.135107	-0.514671	0.801673
C63	C	0.198227	-0.181337	1.135006
C64	C	-0.495283	-1.144110	0.702158
C65	C	-0.161950	-0.810777	1.035491
C66	C	0.171384	-0.477444	1.368824
C67	C	-0.499710	-1.139210	0.794797
C68	C	-0.166376	-0.805876	1.128131
C69	C	0.166957	-0.472543	1.461464
C70	C	-1.005244	-1.181160	0.461807
C71	C	-0.671910	-0.847827	0.795141
C72	C	-0.338577	-0.514494	1.128474
C73	C	-0.963704	-1.130213	0.507740
C74	C	-0.630371	-0.796879	0.841074
C75	C	-0.297037	-0.463546	1.174407
C76	C	-0.869320	-1.135171	0.503201
C77	C	-0.535986	-0.801838	0.836534
C78	C	-0.202653	-0.468505	1.169867
C79	C	-1.099637	-1.176203	0.466346
C80	C	-0.766304	-0.842869	0.799679
C81	C	-0.432970	-0.509536	1.133013
C82	C	-0.267506	-1.167277	0.474388
C83	C	0.065827	-0.833943	0.807722
C84	C	0.399161	-0.500610	1.141055
C85	C	-0.174868	-1.172248	0.469966
C86	C	0.158466	-0.838915	0.803300
C87	C	0.491799	-0.505581	1.136633
C88	C	-0.496481	-1.371889	0.496330
C89	C	-0.163147	-1.038556	0.829663
C90	C	0.170186	-0.705223	1.162996
C91	C	-0.501417	-1.464055	0.501258
C92	C	-0.168084	-1.130721	0.834591
C93	C	0.165249	-0.797388	1.167924
C94	C	-0.459446	-0.679253	0.459387
C95	C	-0.126113	-0.345920	0.792720
C96	C	0.207220	-0.012586	1.126053
C97	C	-0.510409	-0.632801	0.510208
C98	C	-0.177075	-0.299468	0.843541
C99	C	0.156258	0.033866	1.176874
C100	C	-0.505404	-0.538902	0.505226
C101	C	-0.172071	-0.205569	0.838560
C102	C	0.161262	0.127765	1.171893
C103	C	-0.464449	-0.773160	0.464367
C104	C	-0.131116	-0.439827	0.797700
C105	C	0.202217	-0.106494	1.131034
C106	C	-0.474490	-1.167116	0.268218
C107	C	-0.141157	-0.833782	0.601552
C108	C	0.192176	-0.500449	0.934885
C109	C	-0.469838	-1.172189	0.175577
C110	C	-0.136504	-0.838856	0.508910
C111	C	0.196829	-0.505523	0.842243
C112	C	-0.507771	-1.130233	0.964409
C113	C	-0.174438	-0.796900	1.297742
C114	C	0.158895	-0.463567	1.631075
C115	C	-0.461778	-1.181163	1.005971
C116	C	-0.128445	-0.847830	1.339304
C117	C	0.204889	-0.514497	1.672637
C118	C	-0.466264	-1.176169	1.100348
C119	C	-0.132930	-0.842835	1.433681
C120	C	0.200403	-0.509502	1.767015
C121	C	-0.503287	-1.135227	0.870023
C122	C	-0.169954	-0.801893	1.203356
C123	C	0.163380	-0.468560	1.536689
H124	H	-0.999026	-1.082871	0.550474
H125	H	-0.665693	-0.749537	0.883808
H126	H	-0.332359	-0.416204	1.217141
H127	H	-0.969926	-1.228498	0.419075
H128	H	-0.636593	-0.895165	0.752409
H129	H	-0.303259	-0.561832	1.085742
H130	H	-0.419032	-1.228516	0.970673
H131	H	-0.085699	-0.895183	1.304006
H132	H	0.247634	-0.561850	1.637339
H133	H	-0.557796	-0.663552	0.557459
H134	H	-0.224463	-0.330219	0.890793
H135	H	0.108871	0.003114	1.224126
H136	H	-0.550514	-1.082884	0.999704
H137	H	-0.217180	-0.749551	1.333038
H138	H	0.116153	-0.416217	1.666371
Cl139	Cl	-0.386288	-0.631777	0.386438
Cl140	Cl	-0.052954	-0.298444	0.719772
Cl141	Cl	0.280379	0.034889	1.053105
