data_functionalizedCrystal
_audit_creation_method	'MofGen! by Chris Wilmer'
_symmetry_space_group_name_H-M	'P1'
_symmetry_Int_Tables_number	1
_symmetry_cell_setting	triclinic
loop_
_symmetry_equiv_pos_as_xyz
  x,y,z
_cell_length_a	23.532407
_cell_length_b	15.944551
_cell_length_c	15.021413
_cell_angle_alpha	89.996935
_cell_angle_beta	89.998075
_cell_angle_gamma	96.826292
loop_
_atom_site_label
_atom_site_type_symbol
_atom_site_fract_x
_atom_site_fract_y
_atom_site_fract_z
O1	O	0.755658	-0.101953	-0.073923
O2	O	1.255658	0.398047	0.426077
O3	O	0.589851	-0.116707	-0.073949
O4	O	1.089851	0.383293	0.426051
O5	O	0.677282	0.012983	-0.073927
O6	O	1.177282	0.512983	0.426073
O7	O	0.668227	-0.231643	-0.073945
O8	O	1.168227	0.268357	0.426055
O9	O	0.677268	0.012965	0.074137
O10	O	1.177268	0.512965	0.574137
O11	O	0.589838	-0.116725	0.074115
O12	O	1.089838	0.383275	0.574115
O13	O	0.755644	-0.101972	0.074141
O14	O	1.255644	0.398028	0.574141
Zn15	Zn	0.672738	-0.109351	0.097636
Zn16	Zn	1.172738	0.390649	0.597636
Zn17	Zn	0.672757	-0.109327	-0.097444
Zn18	Zn	1.172757	0.390673	0.402556
O19	O	0.668213	-0.231661	0.074119
O20	O	1.168213	0.268339	0.574119
C21	C	0.568627	-0.116340	0.000080
C22	C	1.068627	0.383660	0.500080
C23	C	0.505406	-0.115211	0.000070
C24	C	1.005406	0.384789	0.500070
C25	C	0.676899	0.044265	0.000105
C26	C	1.176899	0.544265	0.500105
C27	C	0.675772	0.137501	0.000105
C28	C	1.175772	0.637501	0.500105
C29	C	0.668596	-0.262943	0.000085
C30	C	1.168596	0.237057	0.500085
C31	C	0.669723	-0.356179	0.000079
C32	C	1.169723	0.143821	0.500079
C33	C	0.106572	-0.184874	0.000105
C34	C	0.606572	0.315126	0.500105
C35	C	0.047168	-0.183824	0.000111
C36	C	0.547168	0.316176	0.500111
O37	O	0.010674	-0.248403	0.000138
O38	O	0.510674	0.251597	0.500138
N39	N	0.024243	-0.106724	0.000115
N40	N	0.524243	0.393276	0.500115
C41	C	0.060726	-0.030668	0.000122
C42	C	0.560726	0.469332	0.500122
O43	O	0.035772	0.035009	0.000127
O44	O	0.535772	0.535009	0.500127
C45	C	0.120129	-0.031718	0.000123
C46	C	0.620129	0.468282	0.500123
C47	C	0.143051	-0.108823	0.000110
C48	C	0.643051	0.391177	0.500110
C49	C	0.129494	-0.261973	0.000093
C50	C	0.629494	0.238027	0.500093
C51	C	0.188894	-0.263022	0.000086
C52	C	0.688894	0.236978	0.500086
C53	C	0.225373	-0.186971	0.000091
C54	C	0.725373	0.313029	0.500091
C55	C	0.202451	-0.109872	0.000103
C56	C	0.702451	0.390128	0.500103
C57	C	0.156611	0.044337	0.000137
C58	C	0.656611	0.544337	0.500137
C59	C	0.216018	0.043281	0.000138
C60	C	0.716018	0.543281	0.500138
C61	C	0.238939	-0.033825	0.000125
C62	C	0.738939	0.466175	0.500125
C63	C	0.298329	-0.034871	0.000100
C64	C	0.798329	0.465129	0.500100
N65	N	0.321254	-0.111971	0.000096
N66	N	0.821254	0.388029	0.500096
C67	C	0.284776	-0.188022	0.000092
C68	C	0.784776	0.311978	0.500092
C69	C	-0.064025	-0.028468	0.000122
C70	C	0.435975	0.471532	0.500122
C71	C	-0.123427	-0.027417	0.000115
C72	C	0.376573	0.472583	0.500115
C73	C	-0.136981	-0.180574	0.000105
C74	C	0.363019	0.319426	0.500105
C75	C	-0.077578	-0.181624	0.000106
C76	C	0.422422	0.318376	0.500106
C77	C	-0.041100	-0.105569	0.000118
C78	C	0.458900	0.394431	0.500118
C79	C	0.409521	-0.190219	0.000076
C80	C	0.909521	0.309781	0.500076
C81	C	0.468927	-0.191261	0.000065
C82	C	0.968927	0.308739	0.500065
C83	C	0.482476	-0.038104	0.000079
C84	C	0.982476	0.461896	0.500079
C85	C	0.423075	-0.037062	0.000086
C86	C	0.923075	0.462938	0.500086
C87	C	0.386599	-0.113126	0.000087
C88	C	0.886599	0.386874	0.500087
O89	O	0.334859	0.029673	0.000076
O90	O	0.834859	0.529673	0.500076
O91	O	0.309738	-0.253687	0.000098
O92	O	0.809738	0.246313	0.500098
C93	C	0.776868	-0.102338	0.000111
C94	C	1.276868	0.397662	0.500111
C95	C	0.840090	-0.103468	0.000115
C96	C	1.340090	0.396532	0.500115
N97	N	0.672730	-0.109367	0.230774
N98	N	1.172730	0.390633	0.730774
C99	C	0.618885	0.351879	0.000084
C100	C	1.118885	0.851879	0.500084
C101	C	0.645295	0.413109	0.073093
C102	C	1.145295	0.913109	0.573093
C103	C	0.673733	0.308210	0.000098
C104	C	1.173733	0.808210	0.500098
C105	C	0.645321	0.413111	-0.072887
C106	C	1.145321	0.913111	0.427113
C107	C	0.671760	0.473106	0.000087
C108	C	1.171760	0.973106	0.500087
C109	C	0.700158	0.368212	0.073167
C110	C	1.200158	0.868212	0.573167
C111	C	0.700177	0.368208	-0.072878
C112	C	1.200177	0.868208	0.427122
C113	C	0.726627	0.429421	0.000148
C114	C	1.226627	0.929421	0.500148
C115	C	0.674869	0.213217	0.000105
C116	C	1.174869	0.713217	0.500105
C117	C	0.670629	0.568097	0.000087
C118	C	1.170629	1.068097	0.500087
N119	N	0.672770	-0.109304	-0.230582
N120	N	1.172770	0.390696	0.269418
C121	C	0.632296	-0.169308	0.470447
C122	C	1.132296	0.330692	0.970447
C123	C	0.683757	-0.185181	0.529789
C124	C	1.183757	0.314819	1.029789
C125	C	0.672745	-0.109346	0.412381
C126	C	1.172745	0.390654	0.912381
C127	C	0.621298	-0.093492	0.529781
C128	C	1.121298	0.406508	1.029781
C129	C	0.672754	-0.109328	0.587805
C130	C	1.172754	0.390672	1.087805
C131	C	0.724232	-0.125257	0.470416
C132	C	1.224232	0.374743	0.970416
C133	C	0.661739	-0.033535	0.470403
C134	C	1.161739	0.466465	0.970403
C135	C	0.713237	-0.049376	0.529718
C136	C	1.213237	0.450624	1.029718
C137	C	0.672738	-0.109359	0.311324
C138	C	1.172738	0.390641	0.811324
C139	C	0.672766	-0.109314	0.688860
C140	C	1.172766	0.390686	1.188860
H141	H	0.487586	-0.254052	0.000054
H142	H	0.987586	0.245948	0.500054
H143	H	0.767753	-0.138736	0.444449
H144	H	1.267753	0.361264	0.944449
H145	H	0.772194	0.462964	0.000197
H146	H	1.272194	0.962964	0.500197
Cl147	Cl	0.548595	0.299861	0.000179
Cl148	Cl	1.048595	0.799861	0.500179
H149	H	0.598124	-0.220056	0.444423
H150	H	1.098124	0.279944	0.944423
H151	H	0.723362	0.348281	-0.134597
H152	H	1.223362	0.848281	0.365403
Cl153	Cl	0.609470	0.443842	0.168378
Cl154	Cl	1.109470	0.943842	0.668378
Cl155	Cl	0.609498	0.443840	-0.168176
Cl156	Cl	1.109498	0.943840	0.331824
H157	H	0.693074	-0.249285	0.555873
H158	H	1.193074	0.250715	1.055873
H159	H	0.723332	0.348410	0.134958
H160	H	1.223332	0.848410	0.634958
Cl161	Cl	0.766110	0.028929	0.569654
Cl162	Cl	1.266110	0.528929	1.069654
Cl163	Cl	0.647328	0.065406	0.430095
Cl164	Cl	1.147328	0.565406	0.930095
Cl165	Cl	-0.152234	0.069520	0.000109
Cl166	Cl	0.347766	0.569520	0.500109
H167	H	0.577786	-0.080090	0.555861
H168	H	1.077786	0.419910	1.055861
H169	H	0.207551	-0.325809	0.000075
H170	H	0.707551	0.174191	0.500075
Cl171	Cl	0.083645	-0.357593	0.000084
Cl172	Cl	0.583645	0.142407	0.500084
Cl173	Cl	-0.048769	-0.278560	0.000092
Cl174	Cl	0.451231	0.221440	0.500092
Cl175	Cl	-0.182851	-0.276181	0.000104
Cl176	Cl	0.317149	0.223819	0.500104
Cl177	Cl	0.363674	-0.285843	0.000076
Cl178	Cl	0.863674	0.214157	0.500076
H179	H	0.137960	0.107125	0.000148
H180	H	0.637960	0.607125	0.500148
Cl181	Cl	0.261872	0.138900	0.000155
Cl182	Cl	0.761872	0.638900	0.500155
Cl183	Cl	0.394259	0.059872	0.000106
Cl184	Cl	0.894259	0.559872	0.500106
Cl185	Cl	-0.018172	0.067155	0.000127
Cl186	Cl	0.481828	0.567155	0.500127
H187	H	0.512187	0.023814	0.000080
H188	H	1.012187	0.523814	0.500080
