data_functionalizedCrystal
_audit_creation_method	'MofGen! by Chris Wilmer'
_symmetry_space_group_name_H-M	'P1'
_symmetry_Int_Tables_number	1
_symmetry_cell_setting	triclinic
loop_
_symmetry_equiv_pos_as_xyz
  x,y,z
_cell_length_a	27.731988
_cell_length_b	26.809956
_cell_length_c	19.188930
_cell_angle_alpha	90.000789
_cell_angle_beta	97.118427
_cell_angle_gamma	90.003127
loop_
_atom_site_label
_atom_site_type_symbol
_atom_site_fract_x
_atom_site_fract_y
_atom_site_fract_z
O1	O	-0.641203	0.041347	0.082870
O2	O	-0.500444	0.041379	0.095546
O3	O	-0.574886	0.041352	-0.012475
O4	O	-0.566762	0.041374	0.190891
O5	O	-0.574872	-0.041607	-0.012458
O6	O	-0.500430	-0.041580	0.095562
O7	O	-0.641189	-0.041612	0.082887
Zn8	Zn	-0.570808	-0.054768	0.089227
Zn9	Zn	-0.570826	0.054535	0.089205
O10	O	-0.566748	-0.041586	0.190907
C11	C	-0.482429	-0.000097	0.095294
C12	C	-0.428770	-0.000085	0.094512
N13	N	-0.570798	-0.129364	0.089241
C14	C	-0.045600	0.045114	0.088836
C15	C	-0.247267	0.045126	0.091816
O16	O	-0.273347	0.083586	0.092166
N17	N	-0.272480	-0.000094	0.092198
C18	C	-0.247275	-0.045320	0.091830
O19	O	-0.273349	-0.083783	0.092216
C20	C	-0.045609	-0.045332	0.088845
C21	C	-0.020397	-0.000109	0.088470
C22	C	-0.020388	0.090333	0.088460
C23	C	0.030026	0.090330	0.087719
C24	C	0.055229	0.045107	0.087353
C25	C	0.030017	-0.000113	0.087729
C26	C	-0.020405	-0.090558	0.088472
C27	C	0.030015	-0.090557	0.087724
C28	C	0.055226	-0.045334	0.087349
C29	C	0.105633	-0.045340	0.086622
N30	N	0.130847	-0.000119	0.086240
C31	C	0.105645	0.045104	0.086606
C32	C	-0.353152	-0.045311	0.093399
C33	C	-0.403568	-0.045308	0.094147
C34	C	-0.403556	0.045139	0.094131
C35	C	-0.353139	0.045136	0.093389
C36	C	-0.327938	-0.000091	0.093017
C37	C	0.211518	0.045093	0.085050
C38	C	0.261937	0.045085	0.084311
C39	C	0.261920	-0.045361	0.084323
C40	C	0.211506	-0.045354	0.085065
C41	C	0.186306	-0.000123	0.085426
O42	O	0.131744	-0.083779	0.086264
O43	O	0.131726	0.083560	0.086204
C44	C	-0.096014	0.045117	0.089577
C45	C	-0.121225	-0.000102	0.089953
C46	C	-0.096023	-0.045325	0.089587
C47	C	-0.171642	-0.000099	0.090700
C48	C	-0.196844	0.045124	0.091066
C49	C	-0.171630	0.090344	0.090684
C50	C	-0.121216	0.090340	0.089943
C51	C	-0.121237	-0.090545	0.089969
C52	C	-0.171651	-0.090538	0.090711
C53	C	-0.196853	-0.045315	0.091077
C54	C	-0.603784	-0.474002	0.041386
C55	C	-0.603796	-0.682879	0.041375
O56	O	-0.631822	-0.709893	0.000690
N57	N	-0.570829	-0.708991	0.089190
C58	C	-0.537854	-0.682880	0.137008
O59	O	-0.509810	-0.709882	0.177673
C60	C	-0.537841	-0.474003	0.137015
C61	C	-0.570813	-0.447894	0.089201
C62	C	-0.636754	-0.447893	-0.006425
C63	C	-0.636753	-0.395677	-0.006419
C64	C	-0.603782	-0.369569	0.041397
C65	C	-0.570812	-0.395678	0.089207
C66	C	-0.504864	-0.447893	0.184829
C67	C	-0.504863	-0.395670	0.184825
C68	C	-0.537836	-0.369562	0.137012
C69	C	-0.537839	-0.317354	0.137029
N70	N	-0.570807	-0.291243	0.089213
C71	C	-0.603778	-0.317350	0.041398
C72	C	-0.537864	-0.792543	0.137002
C73	C	-0.537868	-0.844762	0.137001
C74	C	-0.603809	-0.844758	0.041367
C75	C	-0.603807	-0.792538	0.041372
C76	C	-0.570831	-0.766432	0.089187
C77	C	-0.603773	-0.207692	0.041414
C78	C	-0.603770	-0.155471	0.041426
C79	C	-0.537827	-0.155480	0.137057
C80	C	-0.537831	-0.207696	0.137048
C81	C	-0.570806	-0.233801	0.089220
O82	O	-0.509824	-0.290308	0.177686
O83	O	-0.631810	-0.290339	0.000729
C84	C	-0.603786	-0.526218	0.041380
C85	C	-0.570816	-0.552327	0.089190
C86	C	-0.537845	-0.526219	0.137006
C87	C	-0.570820	-0.604546	0.089189
C88	C	-0.603791	-0.630653	0.041373
C89	C	-0.636758	-0.604542	-0.006442
C90	C	-0.636757	-0.552325	-0.006436
C91	C	-0.504878	-0.552331	0.184821
C92	C	-0.504882	-0.604547	0.184812
C93	C	-0.537854	-0.630655	0.136996
C94	C	0.340796	-0.000134	0.083144
C95	C	0.287139	-0.000138	0.083946
C96	C	-0.574616	-0.000129	-0.038476
C97	C	-0.573826	-0.000133	-0.115975
N98	N	-0.570839	0.129130	0.089185
C99	C	-0.617506	-0.000145	-0.161191
C100	C	-0.616764	-0.000137	-0.234010
C101	C	-0.572340	-0.000127	-0.261610
C102	C	-0.528654	-0.000111	-0.216384
C103	C	-0.529397	-0.000115	-0.143566
N104	N	-0.538378	-0.028351	-0.369382
N105	N	-0.537675	-0.028349	-0.438556
C106	C	-0.570098	-0.000116	-0.481003
N107	N	-0.603258	0.028109	-0.451665
N108	N	-0.603962	0.028105	-0.382485
C109	C	-0.571529	-0.000123	-0.340567
C110	C	-0.612976	-0.000119	-0.605178
C111	C	-0.612232	-0.000107	-0.677998
C112	C	-0.524121	-0.000087	-0.660370
C113	C	-0.524866	-0.000093	-0.587552
C114	C	-0.569295	-0.000111	-0.559961
C115	C	-0.567018	-0.000104	0.216908
C116	C	-0.567808	-0.000096	0.294407
H117	H	0.282462	0.081913	0.084008
H118	H	-0.489297	-0.000086	-0.550736
C119	C	-0.475252	-0.000077	-0.690717
C120	C	-0.462617	-0.043152	-0.738354
C121	C	-0.413746	-0.043142	-0.768704
C122	C	-0.377510	-0.000057	-0.751416
C123	C	-0.390144	0.043021	-0.703777
C124	C	-0.439015	0.043011	-0.673428
H125	H	-0.489442	-0.075049	-0.751153
H126	H	-0.404394	-0.075031	-0.803969
H127	H	-0.341333	-0.000049	-0.773883
H128	H	-0.363319	0.074918	-0.690978
H129	H	-0.448368	0.074900	-0.638162
H130	H	-0.649153	-0.000131	-0.582712
H131	H	-0.510987	-0.228954	0.175989
C132	C	0.289650	-0.095104	0.083918
C133	C	0.329935	-0.107537	0.144055
C134	C	0.357666	-0.157280	0.143644
C135	C	0.345113	-0.194590	0.083095
C136	C	0.304826	-0.182158	0.022953
C137	C	0.277095	-0.132415	0.023364
H138	H	0.339230	-0.079917	0.188881
H139	H	0.387490	-0.166483	0.188165
H140	H	0.365641	-0.231413	0.082790
H141	H	0.295531	-0.209778	-0.021873
H142	H	0.247271	-0.123213	-0.021157
H143	H	-0.647803	-0.000115	-0.714813
H144	H	-0.100693	0.127166	0.089638
H145	H	0.191006	0.081924	0.085345
C146	C	-0.468609	-0.633264	0.237411
C147	C	-0.487373	-0.669167	0.290619
C148	C	-0.451098	-0.697882	0.343211
C149	C	-0.396059	-0.690694	0.342594
C150	C	-0.377293	-0.654790	0.289384
C151	C	-0.413568	-0.626075	0.236792
H152	H	-0.528118	-0.674489	0.291078
H153	H	-0.464990	-0.724461	0.382601
H154	H	-0.369206	-0.711951	0.381526
H155	H	-0.336548	-0.649467	0.288926
H156	H	-0.399676	-0.599496	0.197402
C157	C	-0.640040	-0.126752	-0.011174
C158	C	-0.676305	-0.155473	-0.063773
C159	C	-0.712573	-0.126756	-0.116372
C160	C	-0.712576	-0.069317	-0.116371
C161	C	-0.676310	-0.040592	-0.063771
C162	C	-0.640042	-0.069310	-0.011172
H163	H	-0.676303	-0.197996	-0.063775
H164	H	-0.739420	-0.148020	-0.155310
H165	H	-0.739424	-0.048059	-0.155308
H166	H	-0.676312	0.001930	-0.063769
H167	H	-0.613196	-0.048046	0.027767
H168	H	-0.493827	-0.000105	-0.106751
H169	H	-0.492484	-0.000102	-0.238860
C170	C	0.057756	0.140075	0.087297
C171	C	0.098039	0.152526	0.147431
C172	C	0.125765	0.202274	0.147004
C173	C	0.113208	0.239572	0.086444
C174	C	0.072923	0.227122	0.026305
C175	C	0.045197	0.177374	0.026732
H176	H	0.107337	0.124915	0.192265
H177	H	0.155587	0.211490	0.191523
H178	H	0.133733	0.276398	0.086128
H179	H	0.063625	0.254733	-0.018529
H180	H	0.015375	0.168158	-0.017787
H181	H	-0.040902	0.127161	0.088756
C182	C	-0.664814	-0.000156	-0.283760
C183	C	-0.713683	-0.000177	-0.253411
C184	C	-0.761733	-0.000197	-0.303158
C185	C	-0.760914	-0.000196	-0.383254
C186	C	-0.712043	-0.000175	-0.413607
C187	C	-0.663994	-0.000155	-0.363860
H188	H	-0.714291	-0.000177	-0.194115
H189	H	-0.797910	-0.000213	-0.280688
H190	H	-0.796484	-0.000212	-0.420079
H191	H	-0.711436	-0.000175	-0.472902
H192	H	-0.627816	-0.000139	-0.386329
H193	H	-0.511010	-0.771291	0.175941
C194	C	-0.468591	-0.476605	0.237420
C195	C	-0.413553	-0.469418	0.236799
C196	C	-0.377276	-0.498130	0.289391
C197	C	-0.396037	-0.534030	0.342605
C198	C	-0.451078	-0.541219	0.343229
C199	C	-0.487355	-0.512507	0.290636
H200	H	-0.399662	-0.442841	0.197405
H201	H	-0.336531	-0.492808	0.288930
H202	H	-0.369183	-0.555285	0.381538
H203	H	-0.464969	-0.567796	0.382623
H204	H	-0.528100	-0.517829	0.291098
H205	H	-0.040924	-0.127384	0.088775
H206	H	-0.332615	0.081960	0.093083
C207	C	-0.431285	0.094886	0.094526
C208	C	-0.471566	0.107308	0.034379
C209	C	-0.499297	0.157052	0.034767
C210	C	-0.486747	0.194374	0.095302
C211	C	-0.446463	0.181953	0.155454
C212	C	-0.418732	0.132209	0.155066
H213	H	-0.480858	0.079679	-0.010436
H214	H	-0.529118	0.166247	-0.009762
H215	H	-0.507275	0.231198	0.095589
H216	H	-0.437171	0.209582	0.200269
H217	H	-0.388912	0.123014	0.199594
C218	C	-0.431296	-0.095055	0.094561
C219	C	-0.418740	-0.132363	0.155109
C220	C	-0.446465	-0.182113	0.155516
C221	C	-0.486746	-0.194555	0.095375
C222	C	-0.499304	-0.157246	0.034822
C223	C	-0.471578	-0.107497	0.034415
H224	H	-0.388920	-0.123153	0.199634
H225	H	-0.437168	-0.209731	0.200342
H226	H	-0.507270	-0.231383	0.095676
H227	H	-0.529124	-0.166456	-0.009702
H228	H	-0.480875	-0.079878	-0.010410
C229	C	-0.199359	0.140090	0.091085
C230	C	-0.239640	0.152517	0.030939
C231	C	-0.267372	0.202260	0.031336
C232	C	-0.254824	0.239576	0.091878
C233	C	-0.214540	0.227151	0.152028
C234	C	-0.186808	0.177408	0.151632
H235	H	-0.248931	0.124892	-0.013882
H236	H	-0.297193	0.211458	-0.013191
H237	H	-0.275353	0.276399	0.092172
H238	H	-0.205249	0.254776	0.196849
H239	H	-0.156988	0.168210	0.196159
C240	C	-0.199379	-0.140290	0.091115
C241	C	-0.186828	-0.177602	0.151658
C242	C	-0.214554	-0.227353	0.152050
C243	C	-0.254829	-0.239791	0.091899
C244	C	-0.267381	-0.202477	0.031351
C245	C	-0.239656	-0.152726	0.030959
H246	H	-0.157012	-0.168396	0.196189
H247	H	-0.205261	-0.254975	0.196872
H248	H	-0.275353	-0.276619	0.092189
H249	H	-0.297198	-0.211683	-0.013180
H250	H	-0.248948	-0.125104	-0.013863
H251	H	-0.511024	-0.866016	0.175942
H252	H	-0.332638	-0.082142	0.093094
H253	H	0.050531	-0.127387	0.087427
H254	H	-0.630656	-0.771283	0.002437
C255	C	0.183765	-0.095094	0.085507
C256	C	0.196313	-0.132384	0.146080
C257	C	0.168572	-0.182122	0.146526
C258	C	0.128282	-0.194570	0.086399
C259	C	0.115732	-0.157279	0.025823
C260	C	0.143473	-0.107541	0.025376
H261	H	0.226140	-0.123170	0.190593
H262	H	0.177863	-0.209727	0.191369
H263	H	0.107747	-0.231389	0.086730
H264	H	0.085905	-0.166493	-0.018691
H265	H	0.134182	-0.079936	-0.019467
H266	H	-0.478008	-0.374417	0.223762
C267	C	-0.640076	-0.873483	-0.011235
C268	C	-0.639429	-0.866307	-0.090736
C269	C	-0.675690	-0.895035	-0.143339
C270	C	-0.712598	-0.930938	-0.116440
C271	C	-0.713246	-0.938115	-0.036935
C272	C	-0.676985	-0.909388	0.015667
H273	H	-0.612106	-0.839728	-0.110651
H274	H	-0.675210	-0.889722	-0.202194
H275	H	-0.739441	-0.952204	-0.155380
H276	H	-0.740569	-0.964695	-0.017020
H277	H	-0.677465	-0.914701	0.074522
C278	C	-0.093520	-0.140295	0.089571
C279	C	-0.053243	-0.152733	0.149718
C280	C	-0.025529	-0.202487	0.149326
C281	C	-0.038091	-0.239803	0.088787
C282	C	-0.078370	-0.227366	0.028636
C283	C	-0.106084	-0.177612	0.029028
H284	H	-0.043942	-0.125108	0.194537
H285	H	0.004288	-0.211693	0.193854
H286	H	-0.017575	-0.276634	0.088496
H287	H	-0.087671	-0.254991	-0.016183
H288	H	-0.135901	-0.168406	-0.015500
C289	C	-0.673018	-0.366960	-0.059021
C290	C	-0.672373	-0.374145	-0.138521
C291	C	-0.708638	-0.345431	-0.191128
C292	C	-0.745549	-0.309532	-0.164235
C293	C	-0.746196	-0.302345	-0.084731
C294	C	-0.709930	-0.331059	-0.032124
H295	H	-0.645048	-0.400721	-0.158432
H296	H	-0.708159	-0.350751	-0.249982
H297	H	-0.772395	-0.288276	-0.203178
H298	H	-0.773520	-0.275769	-0.064820
H299	H	-0.710409	-0.325739	0.026730
H300	H	-0.630623	-0.228941	0.002467
C301	C	-0.673025	-0.523610	-0.059036
C302	C	-0.672383	-0.530794	-0.138536
C303	C	-0.708652	-0.502082	-0.191140
C304	C	-0.745563	-0.466185	-0.164244
C305	C	-0.746207	-0.458999	-0.084739
C306	C	-0.709937	-0.487711	-0.032135
H307	H	-0.645058	-0.557368	-0.158451
H308	H	-0.708176	-0.507402	-0.249995
H309	H	-0.772412	-0.444931	-0.203184
H310	H	-0.773532	-0.432425	-0.064825
H311	H	-0.710414	-0.482392	0.026720
H312	H	-0.510983	-0.134215	0.175990
C313	C	-0.673027	-0.633266	-0.059041
C314	C	-0.654249	-0.669164	-0.112243
C315	C	-0.690513	-0.697891	-0.164843
C316	C	-0.745554	-0.690721	-0.164240
C317	C	-0.764334	-0.654821	-0.111037
C318	C	-0.728070	-0.626094	-0.058437
H319	H	-0.613502	-0.674473	-0.112690
H320	H	-0.676610	-0.724466	-0.204227
H321	H	-0.772398	-0.711986	-0.203178
H322	H	-0.805081	-0.649512	-0.110589
H323	H	-0.741973	-0.599519	-0.019053
H324	H	-0.663603	-0.469145	-0.045365
H325	H	-0.478028	-0.531078	0.223758
H326	H	-0.653683	-0.000158	-0.138732
