data_functionalizedCrystal
_audit_creation_method	'MofGen! by Chris Wilmer'
_symmetry_space_group_name_H-M	'P1'
_symmetry_Int_Tables_number	1
_symmetry_cell_setting	triclinic
loop_
_symmetry_equiv_pos_as_xyz
  x,y,z
_cell_length_a	18.215407
_cell_length_b	12.827892
_cell_length_c	18.215399
_cell_angle_alpha	89.976162
_cell_angle_beta	89.982632
_cell_angle_gamma	90.012835
loop_
_atom_site_label
_atom_site_type_symbol
_atom_site_fract_x
_atom_site_fract_y
_atom_site_fract_z
Zn1	Zn	1.125120	-0.416115	-0.416088
Zn2	Zn	1.125049	-0.590874	-0.293031
Zn3	Zn	1.002053	-0.416140	-0.293041
Zn4	Zn	1.002039	-0.590807	-0.416061
O5	O	1.063566	-0.503484	-0.354555
O6	O	1.228095	-0.439315	-0.399772
O7	O	1.108710	-0.567734	-0.190048
O8	O	1.018414	-0.269901	-0.309379
O9	O	1.228043	-0.567710	-0.309362
O10	O	1.108831	-0.269882	-0.399782
O11	O	1.018345	-0.439358	-0.190056
O12	O	0.899067	-0.439292	-0.309353
O13	O	1.018390	-0.567595	-0.519049
O14	O	0.899057	-0.567619	-0.399735
O15	O	1.108818	-0.439250	-0.519069
O16	O	1.108696	-0.737101	-0.309336
O17	O	1.018321	-0.737052	-0.399725
C18	C	0.872359	-0.503452	-0.354543
C19	C	0.790560	-0.503463	-0.354555
C20	C	0.602393	-0.436746	-0.401705
C21	C	0.525534	-0.436755	-0.401708
C22	C	0.525490	-0.570252	-0.307419
C23	C	0.602348	-0.570237	-0.307413
C24	C	0.640797	-0.503485	-0.354560
C25	C	0.487081	-0.503509	-0.354569
C26	C	0.403747	-0.503519	-0.354571
C27	C	0.724136	-0.503473	-0.354557
C28	C	1.063519	-0.774994	-0.354542
C29	C	1.063567	-0.891147	-0.354562
C30	C	1.108341	-0.942922	-0.309883
C31	C	1.108391	-1.062972	-0.309902
C32	C	1.255518	-0.503517	-0.354569
C33	C	1.337317	-0.503531	-0.354575
C34	C	1.063610	-0.503412	-0.546508
C35	C	1.063629	-0.503381	-0.628307
C36	C	1.063632	-0.230914	-0.354585
C37	C	1.063660	-0.114761	-0.354597
C38	C	1.110732	-0.436489	-0.816513
C39	C	1.110741	-0.436459	-0.893372
C40	C	1.016579	-0.570112	-0.893340
C41	C	1.016567	-0.570136	-0.816482
C42	C	1.063648	-0.503327	-0.778071
C43	C	1.063668	-0.503272	-0.931787
C44	C	1.063678	-0.503239	-1.015121
C45	C	1.063638	-0.503357	-0.694732
C46	C	1.063563	-0.503480	-0.163349
C47	C	1.063687	-0.503217	-0.081551
H48	H	0.633617	-0.624585	-0.269018
H49	H	1.025323	-1.070244	-0.392847
H50	H	0.633696	-0.382389	-0.440093
C51	C	1.053417	-1.013947	-0.453483
C52	C	1.011868	-0.951280	-0.406220
H53	H	1.021498	-1.051072	-0.485373
H54	H	1.085411	-0.971302	-0.481681
H55	H	1.081512	-1.061981	-0.425447
H56	H	0.983777	-0.903241	-0.434257
H57	H	0.979861	-0.993929	-0.378020
H58	H	1.146721	-1.107497	-0.271650
C59	C	0.980679	-0.747100	-0.792778
C60	C	0.964812	-0.643612	-0.774219
H61	H	0.948730	-0.792455	-0.766682
H62	H	0.973943	-0.756645	-0.844042
H63	H	1.030123	-0.762388	-0.780185
H64	H	0.915369	-0.628321	-0.786817
H65	H	0.971541	-0.634062	-0.722944
C66	C	0.533302	-0.304811	-0.494914
C67	C	0.483320	-0.363398	-0.453535
H68	H	0.507240	-0.259526	-0.526914
H69	H	0.563269	-0.264776	-0.462897
H70	H	0.563287	-0.350401	-0.523005
H71	H	0.453338	-0.317807	-0.425439
H72	H	0.453341	-0.403436	-0.485556
C73	C	0.407653	-0.629558	-0.265566
C74	C	0.483224	-0.643632	-0.255603
H75	H	0.381563	-0.674869	-0.233580
H76	H	0.395061	-0.559338	-0.254876
H77	H	0.395085	-0.644943	-0.314998
H78	H	0.495794	-0.628240	-0.206171
H79	H	0.495822	-0.713869	-0.266288
C80	C	1.209741	-0.421919	-0.979830
C81	C	1.162494	-0.362990	-0.935632
H82	H	1.241687	-0.376555	-1.005923
H83	H	1.237879	-0.467451	-0.949848
H84	H	1.181698	-0.461701	-1.013702
H85	H	1.190537	-0.323213	-0.901756
H86	H	1.134353	-0.317439	-0.965616
C87	C	1.152524	-0.377177	-0.698710
C88	C	1.162474	-0.363043	-0.774290
H89	H	1.184470	-0.331834	-0.672647
H90	H	1.103083	-0.361885	-0.686114
H91	H	1.163283	-0.447397	-0.686113
H92	H	1.151709	-0.292825	-0.786888
H93	H	1.211925	-0.378328	-0.786891
C94	C	1.006339	-0.710654	-0.979748
C95	C	0.964836	-0.643555	-0.935564
H96	H	0.974393	-0.756000	-1.005810
H97	H	1.034375	-0.670845	-1.013641
H98	H	1.038386	-0.750635	-0.949755
H99	H	0.932792	-0.603568	-0.965557
H100	H	0.936787	-0.683369	-0.901667
C101	C	1.118489	-0.820125	-0.210960
C102	C	1.160039	-0.882791	-0.258223
H103	H	1.150407	-0.783010	-0.179063
H104	H	1.090400	-0.772093	-0.238990
H105	H	1.086488	-0.862780	-0.182763
H106	H	1.192036	-0.840136	-0.286423
H107	H	1.188140	-0.930829	-0.230190
