data_functionalizedCrystal
_audit_creation_method	'MofGen! by Chris Wilmer'
_symmetry_space_group_name_H-M	'P1'
_symmetry_Int_Tables_number	1
_symmetry_cell_setting	triclinic
loop_
_symmetry_equiv_pos_as_xyz
  x,y,z
_cell_length_a	12.784905
_cell_length_b	12.811473
_cell_length_c	15.455313
_cell_angle_alpha	98.102523
_cell_angle_beta	92.399933
_cell_angle_gamma	101.398079
loop_
_atom_site_label
_atom_site_type_symbol
_atom_site_fract_x
_atom_site_fract_y
_atom_site_fract_z
O1	O	1.414973	-0.001567	0.072013
O2	O	1.914973	0.498433	0.572013
O3	O	1.105489	-0.046745	0.068459
O4	O	1.605489	0.453255	0.568459
O5	O	1.268789	0.130187	0.082371
O6	O	1.768789	0.630187	0.582371
O7	O	1.251673	-0.178499	0.058101
O8	O	1.751673	0.321501	0.558101
O9	O	1.259451	0.120107	-0.062684
O10	O	1.759451	0.620107	0.437316
O11	O	1.096151	-0.056825	-0.076595
O12	O	1.596151	0.443175	0.423405
O13	O	1.405635	-0.011647	-0.073042
O14	O	1.905635	0.488353	0.426958
Cu15	Cu	1.250040	-0.035156	-0.088063
Cu16	Cu	1.750040	0.464844	0.411937
Cu17	Cu	1.261084	-0.023236	0.083481
Cu18	Cu	1.761084	0.476764	0.583481
O19	O	1.242335	-0.188579	-0.086954
O20	O	1.742335	0.311421	0.413046
C21	C	1.061219	-0.054723	-0.004299
C22	C	1.561219	0.445277	0.495701
C23	C	0.943219	-0.063466	-0.004986
C24	C	1.443219	0.436534	0.495014
C25	C	0.746950	0.114652	0.009033
C26	C	1.246950	0.614652	0.509033
C27	C	0.636080	0.106443	0.008388
C28	C	1.136080	0.606443	0.508388
C29	C	0.610607	-0.088092	-0.006917
C30	C	1.110607	0.411908	0.493083
C31	C	0.721477	-0.079883	-0.006271
C32	C	1.221477	0.420117	0.493729
C33	C	0.789646	0.021493	0.001703
C34	C	1.289646	0.521493	0.501703
C35	C	0.900517	0.029700	0.002342
C36	C	1.400517	0.529700	0.502342
C37	C	0.875043	-0.164833	-0.012956
C38	C	1.375043	0.335167	0.487044
C39	C	0.764173	-0.173042	-0.013602
C40	C	1.264173	0.326958	0.486398
C41	C	1.263446	0.164385	0.012931
C42	C	1.763446	0.664385	0.512931
C43	C	1.261424	0.281302	0.022129
C44	C	1.761424	0.781302	0.522129
C45	C	1.449905	-0.003669	-0.000282
C46	C	1.949905	0.496331	0.499718
C47	C	1.567905	0.005074	0.000412
C48	C	2.067905	0.505074	0.500412
N49	N	1.242281	-0.043539	-0.208718
N50	N	1.742281	0.456461	0.291282
C51	C	1.247463	0.490029	-0.118741
C52	C	1.747463	0.990029	0.381259
C53	C	1.245563	0.599883	-0.110103
C54	C	1.745563	1.099883	0.389897
C55	C	1.255733	0.610867	0.048043
C56	C	1.755733	1.110867	0.548043
C57	C	1.257632	0.501013	0.039405
C58	C	1.757632	1.001013	0.539405
C59	C	1.253496	0.440598	-0.043990
C60	C	1.753496	0.940598	0.456010
C61	C	1.255388	0.330740	-0.052628
C62	C	1.755388	0.830740	0.447372
C63	C	1.265565	0.341728	0.105518
C64	C	1.765565	0.841728	0.605518
C65	C	1.263665	0.451582	0.114156
C66	C	1.763665	0.951582	0.614156
C67	C	1.247677	0.777222	-0.017514
C68	C	1.747677	1.277222	0.482486
C69	C	1.249696	0.660305	-0.026714
C70	C	1.749696	1.160305	0.473286
C71	C	1.311680	0.031605	-0.248204
C72	C	1.811680	0.531605	0.251796
C73	C	1.305822	0.025256	-0.339511
C74	C	1.805822	0.525256	0.160489
C75	C	1.230568	-0.056241	-0.391331
C76	C	1.730568	0.443759	0.108669
C77	C	1.161161	-0.131389	-0.351839
C78	C	1.661161	0.368611	0.148161
C79	C	1.167015	-0.125035	-0.260533
C80	C	1.667015	0.374965	0.239467
C81	C	1.205299	-0.083638	-0.665066
C82	C	1.705299	0.416362	-0.165066
C83	C	1.199452	-0.089988	-0.756378
C84	C	1.699452	0.410012	-0.256378
C85	C	1.344112	0.066659	-0.744044
C86	C	1.844112	0.566659	-0.244044
C87	C	1.349964	0.073002	-0.652737
C88	C	1.849964	0.573002	-0.152737
C89	C	1.280553	-0.002142	-0.613253
C90	C	1.780553	0.497858	-0.113253
N91	N	1.224580	-0.062734	-0.484662
N92	N	1.724580	0.437266	0.015338
N93	N	1.286537	0.004356	-0.519923
N94	N	1.786537	0.504356	-0.019923
N95	N	1.268852	-0.014844	0.204136
N96	N	1.768852	0.485156	0.704136
H97	H	0.802454	0.197195	0.015520
H98	H	1.302454	0.697195	0.515520
Cl99	Cl	0.678467	-0.300477	-0.023621
Cl100	Cl	1.178467	0.199523	0.476379
H101	H	1.259112	0.660078	0.115939
H102	H	1.759112	1.160078	0.615939
H103	H	1.252004	0.281548	-0.120533
H104	H	1.752004	0.781548	0.379467
H105	H	0.956019	0.112245	0.008833
H106	H	1.456019	0.612245	0.508833
Cl107	Cl	1.242254	0.414073	-0.223577
Cl108	Cl	1.742254	0.914073	0.276423
H109	H	0.601323	0.182303	0.014359
H110	H	1.101323	0.682303	0.514359
Cl111	Cl	0.928721	-0.281955	-0.022187
Cl112	Cl	1.428721	0.218045	0.477813
Cl113	Cl	1.273095	0.279568	0.199495
Cl114	Cl	1.773095	0.779568	0.699495
Cl115	Cl	1.066549	-0.233840	-0.416982
Cl116	Cl	1.566549	0.266160	0.083018
Cl117	Cl	1.431362	0.161124	-0.793685
Cl118	Cl	1.931362	0.661124	-0.293685
Cl119	Cl	1.237982	0.662022	-0.204080
Cl120	Cl	1.737982	1.162022	0.295920
H121	H	1.148784	-0.144825	-0.632926
H122	H	1.648784	0.355175	-0.132926
H123	H	1.267037	0.500788	0.182054
H124	H	1.767037	1.000788	0.682054
Cl125	Cl	0.524895	-0.215522	-0.016921
Cl126	Cl	1.024895	0.284478	0.483079
Cl127	Cl	1.406295	0.134060	-0.183068
Cl128	Cl	1.906295	0.634060	0.316932
H129	H	1.110501	-0.186224	-0.228385
H130	H	1.610501	0.313776	0.271615
Cl131	Cl	1.393067	0.119726	-0.389151
Cl132	Cl	1.893067	0.619726	0.110849
H133	H	1.411242	0.139364	-0.610546
H134	H	1.911242	0.639364	-0.110546
H135	H	1.138168	-0.156358	-0.798567
H136	H	1.638168	0.343642	-0.298567
