data_functionalizedCrystal
_audit_creation_method	'MofGen! by Chris Wilmer'
_symmetry_space_group_name_H-M	'P1'
_symmetry_Int_Tables_number	1
_symmetry_cell_setting	triclinic
loop_
_symmetry_equiv_pos_as_xyz
  x,y,z
_cell_length_a	10.723024
_cell_length_b	15.944551
_cell_length_c	9.198806
_cell_angle_alpha	89.995864
_cell_angle_beta	89.996352
_cell_angle_gamma	83.983304
loop_
_atom_site_label
_atom_site_type_symbol
_atom_site_fract_x
_atom_site_fract_y
_atom_site_fract_z
O1	O	1.655699	0.117808	-0.120886
O2	O	2.155699	0.617808	0.379114
O3	O	1.292405	0.129085	-0.120892
O4	O	1.792405	0.629085	0.379108
O5	O	1.483973	0.001228	-0.120876
O6	O	1.983973	0.501228	0.379124
O7	O	1.464131	0.245664	-0.120902
O8	O	1.964131	0.745664	0.379098
O9	O	1.483958	0.001228	0.120909
O10	O	1.983958	0.501228	0.620909
O11	O	1.292389	0.129084	0.120893
O12	O	1.792389	0.629084	0.620893
O13	O	1.655684	0.117808	0.120899
O14	O	2.155684	0.617808	0.620899
Cu15	Cu	1.474035	0.123446	0.142973
Cu16	Cu	1.974035	0.623446	0.642973
Cu17	Cu	1.474053	0.123446	-0.142966
Cu18	Cu	1.974053	0.623446	0.357034
O19	O	1.464116	0.245664	0.120883
O20	O	1.964116	0.745664	0.620883
C21	C	1.245908	0.128264	0.000000
C22	C	1.745908	0.628264	0.500000
C23	C	1.107384	0.125809	-0.000001
C24	C	1.607384	0.625809	0.499999
C25	C	1.031498	0.197350	-0.000010
C26	C	1.531498	0.697350	0.499990
C27	C	0.888327	0.194814	-0.000012
C28	C	1.388327	0.694814	0.499988
C29	C	1.483141	-0.030070	0.000017
C30	C	1.983141	0.469930	0.500017
C31	C	1.480672	-0.123331	0.000018
C32	C	1.980672	0.376669	0.500018
C33	C	1.356026	-0.338901	-0.000004
C34	C	1.856026	0.161099	0.499996
C35	C	1.413900	-0.399587	0.119211
C36	C	1.913900	0.100413	0.619211
C37	C	1.476205	-0.294082	0.000006
C38	C	1.976205	0.205918	0.500006
C39	C	1.413944	-0.399570	-0.119170
C40	C	1.913944	0.100430	0.380830
C41	C	1.471880	-0.459020	-0.000011
C42	C	1.971880	0.040980	0.499989
C43	C	1.534111	-0.353540	0.119320
C44	C	2.034111	0.146460	0.619320
C45	C	1.534138	-0.353516	-0.119168
C46	C	2.034138	0.146484	0.380832
C47	C	1.592099	-0.414184	0.000077
C48	C	2.092099	0.085816	0.500077
C49	C	1.478692	-0.199066	0.000018
C50	C	1.978692	0.300934	0.500018
C51	C	1.469402	-0.554035	-0.000011
C52	C	1.969402	-0.054035	0.499989
C53	C	1.702181	0.118629	0.000003
C54	C	2.202181	0.618629	0.500003
C55	C	1.840704	0.121084	-0.000005
C56	C	2.340704	0.621084	0.499995
C57	C	1.464947	0.276963	-0.000013
C58	C	1.964947	0.776963	0.499987
C59	C	1.467417	0.370223	-0.000024
C60	C	1.967417	0.870223	0.499976
N61	N	1.474032	0.123445	0.344087
N62	N	1.974032	0.623445	0.844087
N63	N	1.474067	0.123441	-0.344080
N64	N	1.974067	0.623441	0.155920
C65	C	1.554469	0.069525	0.416290
C66	C	2.054469	0.569525	0.916290
C67	C	1.554488	0.069522	0.583703
C68	C	2.054488	0.569522	1.083703
H69	H	1.072523	0.260477	-0.000009
H70	H	1.572523	0.760477	0.499991
H71	H	1.584893	-0.333259	0.220218
H72	H	2.084893	0.166741	0.720218
N73	N	0.806520	0.271644	-0.000001
N74	N	1.306520	0.771644	0.499999
N75	N	0.730550	0.287343	0.101918
N76	N	1.230550	0.787343	0.601918
H77	H	0.672769	0.341606	0.101930
H78	H	1.172769	0.841606	0.601930
N79	N	1.640723	0.011519	0.338394
N80	N	2.140723	0.511519	0.838394
N81	N	1.716256	-0.039235	0.406192
N82	N	2.216256	0.460765	0.906192
H83	H	1.777124	-0.080240	0.351183
H84	H	2.277124	0.419760	0.851183
H85	H	0.905903	0.059835	-0.000006
H86	H	1.405903	0.559835	0.499994
H87	H	1.584931	-0.333095	-0.219959
H88	H	2.084931	0.166905	0.280041
N89	N	1.640874	0.011612	0.661608
N90	N	2.140874	0.511612	1.161608
N91	N	1.640764	0.011689	0.797492
N92	N	2.140764	0.511689	1.297492
H93	H	1.701772	-0.029214	0.852518
H94	H	2.201772	0.470786	1.352518
N95	N	1.055935	0.046611	0.000040
N96	N	1.555935	0.546611	0.500040
N97	N	0.986580	0.028334	0.101967
N98	N	1.486580	0.528334	0.601967
H99	H	0.950247	-0.027602	0.102000
H100	H	1.450247	0.472398	0.602000
H101	H	1.405202	0.169609	0.593837
H102	H	1.905202	0.669609	1.093837
N103	N	1.230885	-0.297840	0.000146
N104	N	1.730885	0.202160	0.500146
N105	N	1.158146	-0.310114	0.102351
N106	N	1.658146	0.189886	0.602351
H107	H	1.069766	-0.281115	0.102464
H108	H	1.569766	0.218885	0.602464
H109	H	1.363063	-0.419986	0.219997
H110	H	1.863063	0.080014	0.719997
H111	H	1.691940	-0.446772	0.000146
H112	H	2.191940	0.053228	0.500146
H113	H	1.363104	-0.419938	-0.219964
H114	H	1.863104	0.080062	0.280036
N115	N	1.387636	0.181344	0.422006
N116	N	1.887636	0.681344	0.922006
N117	N	1.310126	0.154318	0.506981
N118	N	1.810126	0.654318	1.006981
H119	H	1.249103	0.195209	0.562010
H120	H	1.749103	0.695209	1.062010
