data_functionalizedCrystal
_audit_creation_method	'MofGen! by Chris Wilmer'
_symmetry_space_group_name_H-M	'P1'
_symmetry_Int_Tables_number	1
_symmetry_cell_setting	triclinic
loop_
_symmetry_equiv_pos_as_xyz
  x,y,z
_cell_length_a	12.759401
_cell_length_b	12.759400
_cell_length_c	12.759393
_cell_angle_alpha	89.970347
_cell_angle_beta	89.980387
_cell_angle_gamma	90.013087
loop_
_atom_site_label
_atom_site_type_symbol
_atom_site_fract_x
_atom_site_fract_y
_atom_site_fract_z
Zn1	Zn	1.606269	-0.418215	-0.594015
Zn2	Zn	1.606167	-0.593931	-0.418339
Zn3	Zn	1.430570	-0.418267	-0.418352
Zn4	Zn	1.430564	-0.593852	-0.593977
O5	O	1.518393	-0.506066	-0.506171
O6	O	1.753276	-0.441535	-0.570721
O7	O	1.582834	-0.570684	-0.271319
O8	O	1.453922	-0.271239	-0.441675
O9	O	1.753202	-0.570633	-0.441653
O10	O	1.583007	-0.271201	-0.570734
O11	O	1.453823	-0.441624	-0.271329
O12	O	1.283548	-0.441547	-0.441638
O13	O	1.453912	-0.570498	-0.741003
O14	O	1.283544	-0.570549	-0.570670
O15	O	1.583001	-0.441459	-0.741031
O16	O	1.582828	-0.740942	-0.441616
O17	O	1.453813	-0.740884	-0.570657
C18	C	1.245425	-0.506046	-0.506152
C19	C	1.128649	-0.506062	-0.506169
C20	C	0.964033	-0.438822	-0.439114
C21	C	1.073757	-0.438802	-0.439102
C22	C	1.073810	-0.573339	-0.573261
C23	C	0.964088	-0.573353	-0.573277
C24	C	0.964003	-0.361152	-0.361655
C25	C	1.073727	-0.361132	-0.361643
C26	C	1.518337	-0.779033	-0.506154
C27	C	1.518410	-0.895810	-0.506182
C28	C	1.585591	-0.950573	-0.573438
C29	C	1.585640	-1.060297	-0.573464
C30	C	1.451324	-1.060486	-0.438968
C31	C	1.451270	-0.950764	-0.438949
C32	C	1.652730	-0.895619	-0.640672
C33	C	1.719918	-0.950381	-0.707932
C34	C	1.719967	-1.060105	-0.707958
C35	C	1.652828	-1.115067	-0.640723
C36	C	1.792426	-0.506087	-0.506190
C37	C	1.909202	-0.506097	-0.506198
C38	C	1.518467	-0.505964	-0.780204
C39	C	1.518499	-0.505920	-0.896981
C40	C	1.518476	-0.232033	-0.506210
C41	C	1.518512	-0.115256	-0.506227
C42	C	1.451367	-0.438668	-1.061572
C43	C	1.451344	-0.438706	-0.951848
C44	C	1.585689	-0.573095	-0.951843
C45	C	1.585717	-0.573051	-1.061565
C46	C	1.384200	-0.371457	-1.116434
C47	C	1.317011	-0.304280	-1.061579
C48	C	1.316987	-0.304318	-0.951855
C49	C	1.384153	-0.371531	-0.896985
C50	C	1.518379	-0.506092	-0.233203
C51	C	1.518550	-0.505840	-0.116427
H52	H	0.929930	-0.390213	-0.284318
C53	C	1.037994	-0.188327	-0.427074
C54	C	1.119707	-0.256816	-0.401126
H55	H	1.066384	-0.123927	-0.451440
H56	H	0.996129	-0.218789	-0.480536
H57	H	0.996063	-0.175804	-0.366836
H58	H	1.161634	-0.269345	-0.461366
H59	H	1.161590	-0.226348	-0.347660
C60	C	1.197272	-0.588077	-0.714540
C61	C	1.134147	-0.647269	-0.646986
H62	H	1.234523	-0.633722	-0.760051
H63	H	1.154488	-0.542367	-0.754807
H64	H	1.245627	-0.548011	-0.674574
H65	H	1.085786	-0.687329	-0.686953
H66	H	1.176934	-0.692997	-0.606716
H67	H	1.640372	-0.627818	-0.907160
H68	H	0.934246	-0.279810	-0.383585
H69	H	1.103465	-0.382829	-0.280232
H70	H	1.396564	-0.906176	-0.384183
C71	C	1.725787	-0.738336	-0.713864
C72	C	1.652674	-0.775009	-0.640649
H73	H	1.725746	-0.663877	-0.713851
H74	H	1.793595	-0.763120	-0.695750
H75	H	1.707592	-0.763127	-0.781650
H76	H	1.670874	-0.750225	-0.572862
H77	H	1.584852	-0.750214	-0.658757
C78	C	1.391777	-1.228769	-0.379275
C79	C	1.377538	-1.120898	-0.365058
H80	H	1.346229	-1.266061	-0.333638
H81	H	1.376369	-1.246707	-0.449846
H82	H	1.462389	-1.246697	-0.363964
H83	H	1.306927	-1.102969	-0.380377
H84	H	1.392939	-1.102953	-0.294471
H85	H	1.384211	-0.371420	-1.205777
C86	C	1.770977	-0.916426	-0.885873
C87	C	1.793704	-0.889969	-0.781841
H88	H	1.816526	-0.879124	-0.931501
H89	H	1.780627	-0.989600	-0.895507
H90	H	1.700367	-0.898477	-0.901166
H91	H	1.864313	-0.907925	-0.766545
H92	H	1.784063	-0.816778	-0.772202
C93	C	1.257299	-0.244700	-0.783662
C94	C	1.243140	-0.230478	-0.891555
H95	H	1.211708	-0.199110	-0.746439
H96	H	1.241900	-0.315288	-0.765673
H97	H	1.327892	-0.229329	-0.765700
H98	H	1.172548	-0.245856	-0.909517
H99	H	1.258532	-0.159873	-0.909551
C100	C	1.734550	-1.183377	-0.849328
C101	C	1.793811	-1.120301	-0.781894
H102	H	1.780145	-1.220532	-0.894975
H103	H	1.694588	-1.231807	-0.809291
H104	H	1.688740	-1.140563	-0.889464
H105	H	1.839617	-1.163116	-0.741752
H106	H	1.833791	-1.071865	-0.821935
C107	C	1.552927	-1.272286	-0.667457
C108	C	1.652871	-1.235678	-0.640754
H109	H	1.552959	-1.346745	-0.667480
H110	H	1.503325	-1.247535	-0.617775
H111	H	1.534726	-1.247419	-0.735235
H112	H	1.671070	-1.260540	-0.572972
H113	H	1.702489	-1.260440	-0.690438
H114	H	1.640426	-0.627747	-1.106229
H115	H	0.919449	-0.628126	-0.627912
C116	C	1.257385	-0.244557	-1.229778
C117	C	1.243184	-0.230403	-1.121887
H118	H	1.211800	-0.198951	-1.267006
H119	H	1.327974	-0.229174	-1.247768
H120	H	1.241993	-0.315145	-1.247733
H121	H	1.258583	-0.159817	-1.103930
H122	H	1.172579	-0.245779	-1.103890
H123	H	1.384135	-0.371549	-0.807641
