data_functionalizedCrystal
_audit_creation_method	'MofGen! by Chris Wilmer'
_symmetry_space_group_name_H-M	'P1'
_symmetry_Int_Tables_number	1
_symmetry_cell_setting	triclinic
loop_
_symmetry_equiv_pos_as_xyz
  x,y,z
_cell_length_a	14.044220
_cell_length_b	14.044220
_cell_length_c	16.053802
_cell_angle_alpha	92.799619
_cell_angle_beta	87.189254
_cell_angle_gamma	93.188878
loop_
_atom_site_label
_atom_site_type_symbol
_atom_site_fract_x
_atom_site_fract_y
_atom_site_fract_z
O1	O	1.280851	0.226493	-0.069343
O2	O	1.780851	0.726493	0.430657
O3	O	1.004181	0.218186	-0.069364
O4	O	1.504181	0.718186	0.430636
O5	O	1.138363	0.084004	-0.069346
O6	O	1.638363	0.584004	0.430654
O7	O	1.146669	0.360675	-0.069362
O8	O	1.646669	0.860675	0.430638
O9	O	1.130974	0.091357	0.069512
O10	O	1.630974	0.591357	0.569512
O11	O	0.996792	0.225539	0.069493
O12	O	1.496792	0.725539	0.569493
O13	O	1.273463	0.233845	0.069514
O14	O	1.773463	0.733845	0.569514
Zn15	Zn	1.133954	0.230859	0.091551
Zn16	Zn	1.633954	0.730859	0.591551
Zn17	Zn	1.143689	0.221172	-0.091401
Zn18	Zn	1.643689	0.721172	0.408599
O19	O	1.139281	0.368027	0.069496
O20	O	1.639281	0.868027	0.569496
C21	C	0.964865	0.218227	0.000062
C22	C	1.464865	0.718227	0.500062
C23	C	0.858723	0.207382	0.000054
C24	C	1.358723	0.707382	0.500054
C25	C	1.131033	0.052059	0.000083
C26	C	1.631033	0.552059	0.500083
C27	C	1.120188	-0.054084	0.000083
C28	C	1.620188	0.445916	0.500083
C29	C	1.100363	-0.248422	0.000070
C30	C	1.600363	0.251578	0.500070
C31	C	1.177277	-0.299552	0.000073
C32	C	1.677277	0.200448	0.500073
C33	C	1.166246	-0.407689	0.000065
C34	C	1.666246	0.092311	0.500065
C35	C	1.111392	-0.140276	0.000077
C36	C	1.611392	0.359724	0.500077
C37	C	0.664384	0.187556	0.000072
C38	C	1.164384	0.687556	0.500072
C39	C	0.613254	0.264471	0.000071
C40	C	1.113254	0.764471	0.500071
C41	C	0.505117	0.253440	0.000081
C42	C	1.005117	0.753440	0.500081
C43	C	0.772530	0.198586	0.000062
C44	C	1.272530	0.698586	0.500062
C45	C	1.312779	0.233805	0.000086
C46	C	1.812779	0.733805	0.500086
C47	C	1.418921	0.244650	0.000089
C48	C	1.918921	0.744650	0.500089
C49	C	1.146611	0.399973	0.000065
C50	C	1.646611	0.899973	0.500065
C51	C	1.157456	0.506115	0.000059
C52	C	1.657456	1.006115	0.500059
N53	N	1.127318	0.237471	0.216410
N54	N	1.627318	0.737471	0.716410
N55	N	1.150333	0.214554	-0.216260
N56	N	1.650333	0.714554	0.283740
C57	C	1.184437	0.180400	0.260112
C58	C	1.684437	0.680400	0.760112
C59	C	1.179804	0.185035	0.347518
C60	C	1.679804	0.685035	0.847518
C61	C	1.118056	0.246745	0.391221
C62	C	1.618056	0.746745	0.891221
C63	C	1.060931	0.303818	0.347513
C64	C	1.560931	0.803818	0.847513
C65	C	1.065559	0.299178	0.260108
C66	C	1.565559	0.799178	0.760108
C67	C	1.097836	0.266987	0.652628
C68	C	1.597836	0.766987	1.152628
C69	C	1.093214	0.271625	0.740038
C70	C	1.593214	0.771625	1.240038
C71	C	1.212086	0.152839	0.740037
C72	C	1.712086	0.652839	1.240037
C73	C	1.216713	0.148209	0.652631
C74	C	1.716713	0.648209	1.152631
C75	C	1.159584	0.205278	0.608931
C76	C	1.659584	0.705278	1.108931
N77	N	1.113321	0.251486	0.480564
N78	N	1.613321	0.751486	0.980564
N79	N	1.164315	0.200532	0.519589
N80	N	1.664315	0.700532	1.019589
H81	H	1.026236	-0.285860	0.000062
H82	H	1.526236	0.214140	0.500062
H83	H	1.010649	0.354061	0.383101
H84	H	1.510649	0.854061	0.883101
N85	N	1.279969	0.085344	0.608006
N86	N	1.779969	0.585344	1.108006
N87	N	1.331082	0.034509	0.647036
N88	N	1.831082	0.534509	1.147036
H89	H	1.375826	-0.009822	0.615520
H90	H	1.875826	0.490178	1.115520
H91	H	0.650694	0.338604	0.000063
H92	H	1.150694	0.838604	0.500063
N93	N	0.617410	0.094568	0.000083
N94	N	1.117410	0.594568	0.500083
N95	N	0.528358	0.085628	0.000090
N96	N	1.028358	0.585628	0.500090
H97	H	0.495171	0.019956	0.000096
H98	H	0.995171	0.519956	0.500096
N99	N	1.039486	0.325301	0.608014
N100	N	1.539486	0.825301	1.108014
N101	N	1.047737	0.414174	0.617770
N102	N	1.547737	0.914174	1.117770
H103	H	1.006524	0.455364	0.586260
H104	H	1.506524	0.955364	1.086260
N105	N	1.270285	-0.252607	0.000100
N106	N	1.770285	0.247393	0.500100
N107	N	1.342604	-0.300617	0.000112
N108	N	1.842604	0.199383	0.500112
H109	H	1.408289	-0.267460	0.000135
H110	H	1.908289	0.232540	0.500135
N111	N	1.270432	0.094555	0.784689
N112	N	1.770432	0.594555	1.284689
N113	N	1.266295	0.098703	0.862728
N114	N	1.766295	0.598703	1.362728
H115	H	1.307502	0.057536	0.894265
H116	H	1.807502	0.557536	1.394265
N117	N	1.247462	0.117303	0.215487
N118	N	1.747462	0.617303	0.715487
N119	N	1.298413	0.066310	0.254522
N120	N	1.798413	0.566310	0.754522
H121	H	1.342902	0.021720	0.223009
H122	H	1.842902	0.521720	0.723009
N123	N	1.030124	0.334662	0.784668
N124	N	1.530124	0.834662	1.284668
N125	N	0.979116	0.385606	0.745642
N126	N	1.479116	0.885606	1.245642
H127	H	0.934558	0.430122	0.777161
H128	H	1.434558	0.930122	1.277161
N129	N	1.007217	0.357491	0.215478
N130	N	1.507217	0.857491	0.715478
N131	N	1.015464	0.446365	0.225227
N132	N	1.515464	0.946365	0.725227
H133	H	0.974256	0.487549	0.193708
H134	H	1.474256	0.987549	0.693708
N135	N	1.238153	0.126728	0.392145
N136	N	1.738153	0.626728	0.892145
N137	N	1.293283	0.071636	0.353115
N138	N	1.793283	0.571636	0.853115
H139	H	1.334494	0.030452	0.384632
H140	H	1.834494	0.530452	0.884632
