data_functionalizedCrystal
_audit_creation_method	'MofGen! by Chris Wilmer'
_symmetry_space_group_name_H-M	'P1'
_symmetry_Int_Tables_number	1
_symmetry_cell_setting	triclinic
loop_
_symmetry_equiv_pos_as_xyz
  x,y,z
_cell_length_a	14.853566
_cell_length_b	15.944551
_cell_length_c	13.330367
_cell_angle_alpha	90.002599
_cell_angle_beta	90.002184
_cell_angle_gamma	83.566576
loop_
_atom_site_label
_atom_site_type_symbol
_atom_site_fract_x
_atom_site_fract_y
_atom_site_fract_z
O1	O	1.196226	0.109656	0.083359
O2	O	0.933749	0.122721	0.083376
O3	O	1.072155	-0.006078	0.083358
O4	O	1.057820	0.238455	0.083377
O5	O	1.072141	-0.006075	-0.083489
O6	O	0.933735	0.122725	-0.083471
O7	O	1.196212	0.109660	-0.083488
Cu8	Cu	1.064972	0.116193	-0.098714
Cu9	Cu	1.064989	0.116188	0.098602
O10	O	1.057806	0.238459	-0.083470
C11	C	0.900154	0.122131	-0.000045
C12	C	0.800073	0.120358	-0.000039
C13	C	0.376905	0.112855	0.090891
C14	C	0.376911	0.112859	-0.091012
C15	C	0.470943	0.114525	-0.091009
C16	C	0.517960	0.115356	-0.000054
C17	C	0.470946	0.114523	0.090897
C18	C	0.517964	0.115367	-0.181959
C19	C	0.612001	0.117033	-0.181959
C20	C	0.659021	0.117859	-0.091003
C21	C	0.612001	0.117024	-0.000048
C22	C	0.659018	0.117856	0.090906
C23	C	0.612000	0.117015	0.181862
C24	C	0.517965	0.115348	0.181853
C25	C	0.753056	0.119526	-0.090994
C26	C	0.753058	0.119524	0.090912
C27	C	1.071553	-0.037371	-0.000065
C28	C	1.069769	-0.130619	-0.000066
C29	C	0.979714	-0.345576	-0.000046
C30	C	1.021525	-0.406545	-0.082315
C31	C	1.066541	-0.301349	-0.000058
C32	C	1.021560	-0.406532	0.082184
C33	C	1.063417	-0.466265	-0.000046
C34	C	1.108377	-0.361089	-0.082394
C35	C	1.108399	-0.361070	0.082178
C36	C	1.150274	-0.422021	-0.000111
C37	C	1.068338	-0.206344	-0.000066
C38	C	1.061626	-0.561268	-0.000045
C39	C	1.229807	0.110250	-0.000064
C40	C	1.329888	0.112023	-0.000064
C41	C	1.058408	0.269752	-0.000044
C42	C	1.060192	0.363000	-0.000037
N43	N	1.064967	0.116195	-0.237495
C44	C	1.003672	0.173210	-0.290013
C45	C	1.126267	0.059177	-0.290006
C46	C	1.126276	0.059174	-0.395024
C47	C	1.064981	0.116189	-0.447542
C48	C	1.003678	0.173207	-0.395041
C49	C	1.187572	0.002151	-0.447533
C50	C	1.187583	0.002145	-0.552558
C51	C	1.126292	0.059164	-0.605077
C52	C	1.064987	0.116185	-0.552570
C53	C	1.003692	0.173200	-0.605087
C54	C	0.942390	0.230226	-0.552582
C55	C	0.942387	0.230227	-0.447560
C56	C	1.126296	0.059164	-0.710099
C57	C	1.003698	0.173197	-0.710115
N58	N	1.065001	0.116179	0.237384
H59	H	0.479675	0.114696	-0.256009
H60	H	0.892476	0.276654	-0.404804
H61	H	1.237499	-0.044288	-0.595302
H62	H	1.222407	-0.455100	-0.000162
N63	N	0.326197	0.111957	0.188988
H64	H	0.370254	0.112738	0.246605
H65	H	0.294490	0.059234	0.192947
N66	N	0.972884	-0.433227	-0.174447
H67	H	0.908467	-0.405136	-0.174386
H68	H	0.972623	-0.496541	-0.174052
N69	N	0.876284	0.291720	-0.609233
H70	H	0.837448	0.327847	-0.560041
H71	H	0.836431	0.259489	-0.652806
N72	N	1.156957	-0.334572	-0.174642
H73	H	1.221187	-0.363119	-0.174942
H74	H	1.157768	-0.271321	-0.174052
H75	H	1.237472	-0.044273	-0.404770
N76	N	0.937558	0.234717	-0.233391
H77	H	0.946853	0.226072	-0.158890
H78	H	0.873606	0.224905	-0.251755
H79	H	1.145098	-0.340901	0.151728
H80	H	0.953787	0.219629	-0.752869
H81	H	0.791333	0.120198	0.164980
N82	N	0.972908	-0.433205	0.174306
H83	H	0.908492	-0.405111	0.174232
H84	H	1.005125	-0.415858	0.236389
H85	H	0.907643	-0.312348	-0.000124
H86	H	1.176167	0.012753	-0.247243
N87	N	0.803762	0.120441	-0.189086
H88	H	0.794703	0.068127	-0.228860
H89	H	0.870447	0.121654	-0.175200
N90	N	0.662714	0.117919	0.279962
H91	H	0.729417	0.119107	0.266157
H92	H	0.653592	0.065595	0.319674
N93	N	0.467246	0.114443	0.279942
H94	H	0.420928	0.165781	0.283994
H95	H	0.511355	0.115188	0.337511
N96	N	0.326199	0.111968	-0.189105
H97	H	0.293495	0.059816	-0.192577
H98	H	0.370456	0.111634	-0.246658
N99	N	0.662710	0.117943	-0.280055
H100	H	0.618654	0.117165	-0.337674
H101	H	0.709030	0.066604	-0.284022
N102	N	1.192400	-0.002338	-0.766731
H103	H	1.231225	-0.038459	-0.717525
H104	H	1.232263	0.029881	-0.810299
