data_functionalizedCrystal
_audit_creation_method	'MofGen! by Chris Wilmer'
_symmetry_space_group_name_H-M	'P1'
_symmetry_Int_Tables_number	1
_symmetry_cell_setting	triclinic
loop_
_symmetry_equiv_pos_as_xyz
  x,y,z
_cell_length_a	14.044220
_cell_length_b	13.339070
_cell_length_c	13.101050
_cell_angle_alpha	85.723856
_cell_angle_beta	86.339940
_cell_angle_gamma	75.590914
loop_
_atom_site_label
_atom_site_type_symbol
_atom_site_fract_x
_atom_site_fract_y
_atom_site_fract_z
O1	O	1.327240	-0.244587	-0.085093
O2	O	1.827240	0.255413	0.414907
O3	O	1.048901	-0.235571	-0.085120
O4	O	1.548901	0.264429	0.414880
O5	O	1.156126	-0.089933	-0.085106
O6	O	1.656126	0.410067	0.414894
O7	O	1.220015	-0.390225	-0.085107
O8	O	1.720015	0.109775	0.414893
O9	O	1.148438	-0.100403	0.085322
O10	O	1.648438	0.399597	0.585322
O11	O	1.041213	-0.246041	0.085309
O12	O	1.541213	0.253959	0.585309
O13	O	1.319552	-0.255057	0.085336
O14	O	1.819552	0.244943	0.585336
Zn15	Zn	1.179162	-0.252212	0.112382
Zn16	Zn	1.679162	0.247788	0.612382
Zn17	Zn	1.189292	-0.238417	-0.112166
Zn18	Zn	1.689292	0.261583	0.387834
O19	O	1.212327	-0.400695	0.085322
O20	O	1.712327	0.099305	0.585322
C21	C	1.008705	-0.236860	0.000091
C22	C	1.508705	0.263140	0.500091
C23	C	0.900384	-0.225089	0.000081
C24	C	1.400384	0.274911	0.500081
C25	C	1.141490	-0.056505	0.000106
C26	C	1.641490	0.443495	0.500106
C27	C	1.109322	0.058700	0.000098
C28	C	1.609322	0.558700	0.500098
N29	N	1.172255	-0.261626	0.265629
N30	N	1.672255	0.238374	0.765629
C31	C	0.702062	-0.203571	0.000101
C32	C	1.202062	0.296429	0.500101
C33	C	0.666384	-0.287052	0.000106
C34	C	1.166384	0.212948	0.500106
C35	C	0.556031	-0.275080	0.000117
C36	C	1.056031	0.224920	0.500117
C37	C	0.812425	-0.215542	0.000090
C38	C	1.312425	0.284458	0.500090
C39	C	1.359748	-0.253769	0.000122
C40	C	1.859748	0.246231	0.500122
C41	C	1.468069	-0.265539	0.000126
C42	C	1.968069	0.234461	0.500126
C43	C	1.226963	-0.434124	0.000108
C44	C	1.726963	0.065876	0.500108
C45	C	1.259132	-0.549328	0.000109
C46	C	1.759132	-0.049328	0.500109
C47	C	1.359447	0.400921	0.000123
C48	C	1.859447	0.900921	0.500123
C49	C	1.389674	0.292679	0.000135
C50	C	1.889674	0.792679	0.500135
C51	C	1.319588	0.234179	0.000126
C52	C	1.819588	0.734179	0.500126
C53	C	1.219271	0.283931	0.000104
C54	C	1.719271	0.783931	0.500104
C55	C	1.189041	0.392182	0.000100
C56	C	1.689041	0.892182	0.500100
C57	C	1.149182	0.225441	0.000103
C58	C	1.649182	0.725441	0.500103
C59	C	1.048865	0.275193	0.000081
C60	C	1.548865	0.775193	0.500081
C61	C	1.018641	0.383433	0.000076
C62	C	1.518641	0.883433	0.500076
C63	C	1.088726	0.441933	0.000086
C64	C	1.588726	0.941933	0.500086
C65	C	1.179412	0.117190	0.000107
C66	C	1.679412	0.617190	0.500107
C67	C	1.009007	0.108451	0.000084
C68	C	1.509007	0.608451	0.500084
C69	C	0.978780	0.216693	0.000072
C70	C	1.478780	0.716693	0.500072
C71	C	1.162861	-0.274444	0.474671
C72	C	1.662861	0.225556	0.974671
C73	C	1.205594	-0.216190	0.525552
C74	C	1.705594	0.283810	1.025552
C75	C	1.200368	-0.223322	0.641870
C76	C	1.700368	0.276678	1.141870
C77	C	1.168087	-0.267313	0.358342
C78	C	1.668087	0.232687	0.858342
N79	N	1.196203	-0.229005	0.734587
N80	N	1.696203	0.270995	1.234587
H81	H	0.649733	-0.123115	0.000107
H82	H	1.149733	0.376885	0.500107
H83	H	1.261091	0.076693	0.000125
H84	H	1.761091	0.576693	0.500125
N85	N	1.350462	0.123616	0.000111
N86	N	1.850462	0.623616	0.500111
N87	N	1.329164	0.077767	-0.071741
N88	N	1.829164	0.577767	0.428259
H89	H	1.350972	-0.000323	-0.071757
H90	H	1.850972	0.499677	0.428243
H91	H	1.471351	0.252179	0.000154
H92	H	1.971351	0.752179	0.500154
H93	H	1.246106	-0.160961	0.481754
H94	H	1.746106	0.339039	0.981754
H95	H	0.936956	0.423937	0.000067
H96	H	1.436956	0.923937	0.500067
H97	H	1.416499	0.448560	0.000139
H98	H	1.916499	0.948560	0.500139
H99	H	1.122354	-0.329671	0.518463
H100	H	1.622354	0.170329	1.018463
H101	H	0.897100	0.257216	0.000055
H102	H	1.397100	0.757216	0.500055
H103	H	0.718717	-0.367515	0.000101
H104	H	1.218717	0.132485	0.500101
H105	H	1.064120	0.530073	0.000072
H106	H	1.564120	1.030073	0.500072
H107	H	0.951937	0.060820	0.000082
H108	H	1.451937	0.560820	0.500082
