data_functionalizedCrystal
_audit_creation_method	'MofGen! by Chris Wilmer'
_symmetry_space_group_name_H-M	'P1'
_symmetry_Int_Tables_number	1
_symmetry_cell_setting	triclinic
loop_
_symmetry_equiv_pos_as_xyz
  x,y,z
_cell_length_a	29.839134
_cell_length_b	29.839131
_cell_length_c	12.645324
_cell_angle_alpha	89.960499
_cell_angle_beta	89.966149
_cell_angle_gamma	90.034165
loop_
_atom_site_label
_atom_site_type_symbol
_atom_site_fract_x
_atom_site_fract_y
_atom_site_fract_z
Zn1	Zn	0.686762	-0.178907	-0.599724
Zn2	Zn	0.686682	-0.254047	-0.422440
Zn3	Zn	0.611632	-0.178922	-0.422432
Zn4	Zn	0.611592	-0.254001	-0.599619
O5	O	0.649167	-0.216469	-0.511054
O6	O	0.749618	-0.188887	-0.576255
O7	O	0.676709	-0.244108	-0.274091
O8	O	0.621649	-0.116053	-0.445991
O9	O	0.749559	-0.244092	-0.446005
O10	O	0.676846	-0.116042	-0.576247
O11	O	0.621571	-0.188914	-0.274085
O12	O	0.548760	-0.188869	-0.445888
O13	O	0.621581	-0.244013	-0.747980
O14	O	0.548731	-0.244029	-0.576067
O15	O	0.676808	-0.188842	-0.748057
O16	O	0.676671	-0.316908	-0.445902
O17	O	0.621503	-0.316874	-0.576075
C18	C	0.532445	-0.216446	-0.510966
C19	C	0.482510	-0.216447	-0.510954
C20	C	0.125926	-0.187705	-0.443408
C21	C	0.313599	-0.187692	-0.443344
O22	O	0.337866	-0.163217	-0.385816
N23	N	0.337065	-0.216454	-0.511007
C24	C	0.313610	-0.245219	-0.578696
O25	O	0.337876	-0.269679	-0.636254
C26	C	0.125938	-0.245229	-0.578765
C27	C	0.102474	-0.216469	-0.511090
C28	C	0.102462	-0.158947	-0.375739
C29	C	0.055546	-0.158952	-0.375752
C30	C	0.032095	-0.187715	-0.443433
C31	C	0.055559	-0.216474	-0.511102
C32	C	0.102484	-0.273991	-0.646458
C33	C	0.055563	-0.273990	-0.646471
C34	C	0.032099	-0.245230	-0.578796
C35	C	-0.014808	-0.245242	-0.578796
N36	N	-0.038275	-0.216481	-0.511133
C37	C	-0.014823	-0.187717	-0.443452
C38	C	0.412141	-0.245212	-0.578653
C39	C	0.459058	-0.245210	-0.578635
C40	C	0.459044	-0.187683	-0.443284
C41	C	0.412125	-0.187688	-0.443298
C42	C	0.388674	-0.216450	-0.510990
C43	C	-0.113349	-0.187731	-0.443483
C44	C	-0.160269	-0.187740	-0.443499
C45	C	-0.160250	-0.245265	-0.578853
C46	C	-0.113334	-0.245258	-0.578834
C47	C	-0.089885	-0.216487	-0.511145
O48	O	-0.039104	-0.269701	-0.636303
O49	O	-0.039097	-0.163254	-0.385919
C50	C	0.172841	-0.187700	-0.443395
C51	C	0.196305	-0.216458	-0.511064
C52	C	0.172853	-0.245222	-0.578746
C53	C	0.243223	-0.216456	-0.511046
C54	C	0.266674	-0.187693	-0.443364
C55	C	0.243208	-0.158931	-0.375701
C56	C	0.196293	-0.158937	-0.375714
C57	C	0.196320	-0.273983	-0.646409
C58	C	0.243235	-0.273976	-0.646390
C59	C	0.266687	-0.245213	-0.578708
C60	C	0.649086	-0.333192	-0.511001
C61	C	0.649092	-0.383126	-0.511014
C62	C	0.677945	-0.692775	-0.443372
C63	C	0.678001	-0.880448	-0.443413
O64	O	0.702468	-0.904717	-0.385861
N65	N	0.649260	-0.903911	-0.511134
C66	C	0.620506	-0.880454	-0.578854
O67	O	0.596065	-0.904717	-0.636463
C68	C	0.620453	-0.692781	-0.578817
C69	C	0.649192	-0.669320	-0.511084
C70	C	0.706682	-0.669314	-0.375646
C71	C	0.706666	-0.622398	-0.375632
C72	C	0.677913	-0.598944	-0.443344
C73	C	0.649176	-0.622405	-0.511071
C74	C	0.591702	-0.669325	-0.646541
C75	C	0.591692	-0.622404	-0.646528
C76	C	0.620431	-0.598943	-0.578796
C77	C	0.620408	-0.552035	-0.578769
N78	N	0.649148	-0.528572	-0.511049
C79	C	0.677901	-0.552026	-0.443336
C80	C	0.620535	-0.978984	-0.578866
C81	C	0.620548	-1.025902	-0.578874
C82	C	0.678043	-1.025893	-0.443435
C83	C	0.678028	-0.978974	-0.443423
C84	C	0.649276	-0.955521	-0.511146
C85	C	0.677865	-0.453500	-0.443312
C86	C	0.677845	-0.406581	-0.443301
C87	C	0.620352	-0.406594	-0.578744
C88	C	0.620370	-0.453509	-0.578752
C89	C	0.649130	-0.476961	-0.511032
O90	O	0.595957	-0.527737	-0.636300
O91	O	0.702345	-0.527754	-0.385753
C92	C	0.677961	-0.739690	-0.443386
C93	C	0.649224	-0.763151	-0.511112
C94	C	0.620471	-0.739697	-0.578824
C95	C	0.649237	-0.810069	-0.511120
C96	C	0.677989	-0.833523	-0.443407
C97	C	0.706730	-0.810060	-0.375687
C98	C	0.706714	-0.763144	-0.375673
C99	C	0.591731	-0.763160	-0.646545
C100	C	0.591749	-0.810076	-0.646552
C101	C	0.620502	-0.833530	-0.578840
C102	C	0.766345	-0.216493	-0.511142
C103	C	0.816280	-0.216503	-0.511180
C104	C	0.649199	-0.216421	-0.787559
C105	C	0.649212	-0.216400	-0.905389
C106	C	0.649261	-0.099291	-0.511130
C107	C	0.649301	-0.049356	-0.511162
C108	C	0.683963	-0.181684	-0.950320
C109	C	0.684112	-0.181775	-1.072880
C110	C	0.661887	-0.263768	-1.073261
C111	C	0.662127	-0.263579	-0.950663
C112	C	0.601726	-0.204137	-0.950540
C113	C	0.601994	-0.203081	-1.073148
C114	C	0.649161	-0.216485	-0.235624
C115	C	0.649235	-0.216379	-0.117794
H116	H	0.121551	-0.135522	-0.320625
C117	C	-0.087561	-0.156085	-0.369025
H118	H	-0.108260	-0.138963	-0.328725
H119	H	-0.069236	-0.136525	-0.409646
H120	H	-0.069282	-0.173248	-0.322749
H121	H	0.637896	-0.290326	-0.920935
C122	C	0.386319	-0.156048	-0.368865
H123	H	0.407010	-0.138917	-0.328562
H124	H	0.367990	-0.173209	-0.322608
H125	H	0.368043	-0.136489	-0.409514
H126	H	-0.179371	-0.164319	-0.388386
H127	H	0.478159	-0.268634	-0.633731
H128	H	0.637358	-0.290335	-1.102347
C129	C	0.386350	-0.276864	-0.653095
H130	H	0.407050	-0.293996	-0.693371
H131	H	0.368067	-0.259712	-0.699377
H132	H	0.368030	-0.296421	-0.612445
C133	C	0.709497	-0.479291	-0.368815
H134	H	0.726604	-0.458593	-0.328475
H135	H	0.729071	-0.497563	-0.409410
H136	H	0.692325	-0.497623	-0.322577
H137	H	0.718950	-0.189715	-0.919540
H138	H	0.478146	-0.164263	-0.388174
H139	H	0.596940	-0.387490	-0.633872
H140	H	0.730069	-0.603299	-0.320482
H141	H	0.575837	-0.229420	-0.921477
C142	C	0.731654	-0.192752	-1.112546
H143	H	0.750951	-0.197177	-1.053731
H144	H	0.742526	-0.168599	-1.154297
H145	H	0.730817	-0.219259	-1.154068
H146	H	0.121580	-0.297411	-0.701566
C147	C	0.709673	-1.051696	-0.368955
H148	H	0.726789	-1.031007	-0.328614
H149	H	0.729239	-1.069969	-0.409573
H150	H	0.692501	-1.070029	-0.322718
H151	H	0.036446	-0.135532	-0.320644
H152	H	0.036472	-0.297411	-0.701599
H153	H	0.592449	-0.168207	-1.102259
H154	H	0.730099	-0.688405	-0.320506
H155	H	-0.094229	-0.268680	-0.633932
C156	C	0.170529	-0.305633	-0.720843
H157	H	0.191228	-0.322764	-0.761123
H158	H	0.152244	-0.288482	-0.767121
H159	H	0.152210	-0.325191	-0.680192
H160	H	0.696833	-0.273950	-0.922093
H161	H	0.696213	-0.274319	-1.104015
C162	C	0.673450	-0.134313	-1.113567
H163	H	0.668991	-0.114802	-1.055168
H164	H	0.647038	-0.135157	-1.155421
H165	H	0.697754	-0.123693	-1.155198
H166	H	0.262311	-0.135513	-0.320589
C167	C	0.565175	-0.234733	-1.114404
H168	H	0.578190	-0.256570	-1.159597
H169	H	0.543561	-0.217923	-1.152691
H170	H	0.551066	-0.249245	-1.056359
H171	H	0.590162	-0.170177	-0.919629
H172	H	-0.179353	-0.268685	-0.633954
H173	H	0.177193	-0.135517	-0.320607
C174	C	0.269040	-0.305614	-0.720839
H175	H	0.248350	-0.322740	-0.761154
H176	H	0.287324	-0.325170	-0.680214
H177	H	0.287362	-0.288443	-0.767102
H178	H	0.730116	-0.744046	-0.320519
C179	C	0.709461	-0.380776	-0.368798
H180	H	0.726591	-0.401467	-0.328483
H181	H	0.692283	-0.362504	-0.322554
H182	H	0.729023	-0.362443	-0.409404
H183	H	0.701430	-0.959875	-0.388270
H184	H	0.597141	-1.045000	-0.634019
H185	H	0.597121	-0.959892	-0.634016
C186	C	0.560091	-0.695122	-0.721056
H187	H	0.542973	-0.674427	-0.761386
H188	H	0.540527	-0.713457	-0.680474
H189	H	0.577276	-0.713391	-0.767302
H190	H	0.568279	-0.603310	-0.701680
H191	H	0.596970	-0.472612	-0.633908
H192	H	0.730140	-0.829165	-0.320550
C193	C	0.560134	-0.835878	-0.721065
H194	H	0.543013	-0.815186	-0.761394
H195	H	0.540573	-0.854215	-0.680481
H196	H	0.577320	-0.854146	-0.767312
H197	H	0.568317	-0.744068	-0.701686
H198	H	0.676153	-0.146446	-0.920872
