data_functionalizedCrystal
_audit_creation_method	'MofGen! by Chris Wilmer'
_symmetry_space_group_name_H-M	'P1'
_symmetry_Int_Tables_number	1
_symmetry_cell_setting	triclinic
loop_
_symmetry_equiv_pos_as_xyz
  x,y,z
_cell_length_a	19.077115
_cell_length_b	13.897447
_cell_length_c	19.077174
_cell_angle_alpha	92.274996
_cell_angle_beta	85.484425
_cell_angle_gamma	87.715979
loop_
_atom_site_label
_atom_site_type_symbol
_atom_site_fract_x
_atom_site_fract_y
_atom_site_fract_z
Zn1	Zn	1.093735	-0.468677	-0.441846
Zn2	Zn	1.593735	0.031323	0.058154
Zn3	Zn	1.088930	-0.623230	-0.323963
Zn4	Zn	1.588930	-0.123230	0.176037
Zn5	Zn	0.971119	-0.455193	-0.319244
Zn6	Zn	1.471119	0.044807	0.180756
Zn7	Zn	0.975824	-0.623167	-0.437082
Zn8	Zn	1.475824	-0.123167	0.062918
O9	O	1.032402	-0.542567	-0.380534
O10	O	1.532402	-0.042567	0.119466
O11	O	1.191748	-0.494848	-0.430177
O12	O	1.691748	0.005152	0.069823
O13	O	1.069322	-0.595323	-0.224687
O14	O	1.569322	-0.095323	0.275313
O15	O	0.987426	-0.322004	-0.335526
O16	O	1.487426	0.177996	0.164474
O17	O	1.188218	-0.608397	-0.343569
O18	O	1.688218	-0.108397	0.156431
O19	O	1.077512	-0.331910	-0.425601
O20	O	1.577512	0.168090	0.074399
O21	O	0.982767	-0.471867	-0.221220
O22	O	1.482767	0.028133	0.278780
O23	O	0.873093	-0.471806	-0.330907
O24	O	1.373093	0.028194	0.169093
O25	O	0.995445	-0.608290	-0.536364
O26	O	1.495445	-0.108290	-0.036364
O27	O	0.876550	-0.595215	-0.417482
O28	O	1.376550	-0.095215	0.082518
O29	O	1.082074	-0.494787	-0.539864
O30	O	1.582074	0.005213	-0.039864
O31	O	1.073885	-0.758200	-0.338950
O32	O	1.573885	-0.258200	0.161050
O33	O	0.990786	-0.758153	-0.422058
O34	O	1.490786	-0.258153	0.077942
C35	C	0.849243	-0.532041	-0.373166
C36	C	1.349243	-0.032041	0.126834
C37	C	0.770887	-0.527563	-0.370031
C38	C	1.270887	-0.027563	0.129969
C39	C	0.329631	-0.495399	-0.347552
C40	C	0.829631	0.004601	0.152448
C41	C	0.403255	-0.499613	-0.350502
C42	C	0.903255	0.000387	0.149498
C43	C	0.441880	-0.566070	-0.396978
C44	C	0.941880	-0.066070	0.103022
C45	C	0.406877	-0.628310	-0.440513
C46	C	0.906877	-0.128310	0.059487
C47	C	0.333255	-0.624091	-0.437567
C48	C	0.833255	-0.124091	0.062433
C49	C	0.662262	-0.585584	-0.410620
C50	C	1.162262	-0.085584	0.089380
C51	C	0.735889	-0.589800	-0.413561
C52	C	1.235889	-0.089800	0.086439
C53	C	0.732262	-0.461101	-0.323550
C54	C	1.232262	0.038899	0.176450
C55	C	0.658638	-0.456892	-0.320605
C56	C	1.158638	0.043108	0.179395
C57	C	0.623642	-0.519129	-0.364142
C58	C	1.123642	-0.019129	0.135858
N59	N	0.517135	-0.570381	-0.399993
N60	N	1.017135	-0.070381	0.100007
N61	N	0.548388	-0.514813	-0.361131
N62	N	1.048388	-0.014813	0.138869
C63	C	1.032344	-0.793177	-0.380515
C64	C	1.532344	-0.293177	0.119485
C65	C	1.032385	-0.900394	-0.380533
C66	C	1.532385	-0.400394	0.119467
C67	C	1.032420	-0.987467	-0.380551
C68	C	1.532420	-0.487467	0.119449
C69	C	1.032470	-1.096703	-0.380571
C70	C	1.532470	-0.596703	0.119429
C71	C	1.216277	-0.553134	-0.387930
C72	C	1.716277	-0.053134	0.112070
C73	C	1.294634	-0.557637	-0.391082
C74	C	1.794634	-0.057637	0.108918
C75	C	1.039820	-0.553036	-0.564408
C76	C	1.539820	-0.053036	-0.064408
C77	C	1.042981	-0.557497	-0.642764
C78	C	1.542981	-0.057497	-0.142764
C79	C	1.032480	-0.290980	-0.380569
C80	C	1.532480	0.209020	0.119431
C81	C	1.032513	-0.183769	-0.380583
C82	C	1.532513	0.316231	0.119417
C83	C	0.999404	-0.495317	-0.677770
C84	C	1.499404	0.004683	-0.177770
C85	C	1.002371	-0.499517	-0.751394
C86	C	1.502371	0.000483	-0.251394
C87	C	1.048921	-0.565892	-0.790010
C88	C	1.548921	-0.065892	-0.290010
C89	C	1.092500	-0.628078	-0.754999
C90	C	1.592500	-0.128078	-0.254999
C91	C	1.089528	-0.623883	-0.681376
C92	C	1.589528	-0.123883	-0.181376
C93	C	1.062637	-0.585337	-1.010392
C94	C	1.562637	-0.085337	-0.510392
C95	C	1.065607	-0.589526	-1.084020
C96	C	1.565607	-0.089526	-0.584020
C97	C	0.975477	-0.460965	-1.080410
C98	C	1.475477	0.039035	-0.580410
C99	C	0.972512	-0.456771	-1.006786
C100	C	1.472512	0.043229	-0.506786
C101	C	1.016089	-0.518961	-0.971781
C102	C	1.516089	-0.018961	-0.471781
N103	N	1.051957	-0.570184	-0.865266
N104	N	1.551957	-0.070184	-0.365266
N105	N	1.013049	-0.514673	-0.896527
N106	N	1.513049	-0.014673	-0.396527
C107	C	1.025054	-0.532071	-0.197377
C108	C	1.525054	-0.032071	0.302623
C109	C	1.022029	-0.527346	-0.119026
C110	C	1.522029	-0.027346	0.380974
H111	H	0.304761	-0.674769	-0.473015
H112	H	0.804761	-0.174769	0.026985
H113	H	0.767336	-0.643918	-0.451412
H114	H	1.267336	-0.143918	0.048588
C115	C	1.116169	-0.661697	-1.125822
C116	C	1.616169	-0.161697	-0.625822
C117	C	1.153683	-0.715280	-1.079409
C118	C	1.653683	-0.215280	-0.579409
C119	C	1.200259	-0.781775	-1.117891
C120	C	1.700259	-0.281775	-0.617891
H121	H	1.148119	-0.628311	-1.155786
H122	H	1.648119	-0.128311	-0.655786
H123	H	1.090360	-0.703856	-1.153439
H124	H	1.590360	-0.203856	-0.653439
H125	H	1.179490	-0.673126	-1.051804
H126	H	1.679490	-0.173126	-0.551804
H127	H	1.121751	-0.748687	-1.049444
H128	H	1.621751	-0.248687	-0.549444
H129	H	1.174450	-0.823934	-1.145508
H130	H	1.674450	-0.323934	-0.645508
H131	H	1.232204	-0.748380	-1.147854
H132	H	1.732204	-0.248380	-0.647854
H133	H	1.225713	-0.818145	-1.086405
H134	H	1.725713	-0.318145	-0.586405
C135	C	0.948746	-0.423368	-0.635879
C136	C	1.448746	0.076632	-0.135879
C137	C	0.879712	-0.441403	-0.650967
C138	C	1.379712	0.058597	-0.150967
C139	C	0.833024	-0.375153	-0.612385
C140	C	1.333024	0.124847	-0.112385
H141	H	0.959473	-0.359797	-0.648336
H142	H	1.459473	0.140203	-0.148336
H143	H	0.953169	-0.429777	-0.587009
H144	H	1.453169	0.070223	-0.087009
H145	H	0.875292	-0.434985	-0.699826
H146	H	1.375292	0.065015	-0.199826
H147	H	0.868963	-0.504961	-0.638507
H148	H	1.368963	-0.004961	-0.138507
H149	H	0.837447	-0.381563	-0.563515
H150	H	1.337447	0.118437	-0.063515
H151	H	0.843757	-0.311587	-0.624844
H152	H	1.343757	0.188413	-0.124844
H153	H	0.786179	-0.387387	-0.622611
H154	H	1.286179	0.112613	-0.122611
C155	C	1.136880	-0.691234	-0.643280
C156	C	1.636880	-0.191234	-0.143280
C157	C	1.180364	-0.636813	-0.602822
C158	C	1.680364	-0.136813	-0.102822
C159	C	1.223986	-0.698830	-0.567713
C160	C	1.723986	-0.198830	-0.067713
H161	H	1.165093	-0.731386	-0.676744
H162	H	1.665093	-0.231386	-0.176744
H163	H	1.108756	-0.730058	-0.613430
H164	H	1.608756	-0.230058	-0.113430
H165	H	1.208485	-0.598006	-0.632669
H166	H	1.708485	-0.098006	-0.132669
H167	H	1.152171	-0.596664	-0.569346
H168	H	1.652171	-0.096664	-0.069346
H169	H	1.195862	-0.737654	-0.537863
H170	H	1.695862	-0.237654	-0.037863
H171	H	1.252194	-0.738979	-0.601182
H172	H	1.752194	-0.238979	-0.101182
H173	H	1.253490	-0.661915	-0.540253
H174	H	1.753490	-0.161915	-0.040253
C175	C	0.287825	-0.423145	-0.297069
C176	C	0.787825	0.076855	0.202931
C177	C	0.334237	-0.369524	-0.259593
C178	C	0.834237	0.130476	0.240407
C179	C	0.295754	-0.302942	-0.213089
C180	C	0.795754	0.197058	0.286911
H181	H	0.257844	-0.456464	-0.265091
H182	H	0.757844	0.043536	0.234909
H183	H	0.260225	-0.381018	-0.322927
H184	H	0.760225	0.118982	0.177073
H185	H	0.361825	-0.411646	-0.233736
H186	H	0.861825	0.088354	0.266264
H187	H	0.364219	-0.336185	-0.291552
H188	H	0.864219	0.163815	0.208448
H189	H	0.268153	-0.260815	-0.238947
H190	H	0.768153	0.239185	0.261053
H191	H	0.265774	-0.336270	-0.181116
H192	H	0.765774	0.163730	0.318884
H193	H	0.327238	-0.266547	-0.187661
H194	H	0.827238	0.233453	0.312339
C195	C	0.441337	-0.432200	-0.303198
C196	C	0.941337	0.067800	0.196802
C197	C	0.481773	-0.486560	-0.259648
C198	C	0.981773	0.013440	0.240352
C199	C	0.516868	-0.424487	-0.216067
C200	C	1.016868	0.075513	0.283933
H201	H	0.407865	-0.392001	-0.275032
H202	H	0.907865	0.107999	0.224968
H203	H	0.471200	-0.393425	-0.331349
H204	H	0.971200	0.106575	0.168651
H205	H	0.451912	-0.525317	-0.231500
H206	H	0.951912	-0.025317	0.268500
H207	H	0.515257	-0.526756	-0.287795
H208	H	1.015257	-0.026756	0.212205
H209	H	0.546731	-0.385713	-0.244218
H210	H	1.046731	0.114287	0.255782
H211	H	0.483391	-0.384292	-0.187905
H212	H	0.983391	0.115708	0.312095
H213	H	0.544313	-0.461361	-0.186517
H214	H	1.044313	0.038639	0.313483
H215	H	0.966883	-0.448887	-0.779893
H216	H	1.466883	0.051113	-0.279893
H217	H	0.934605	-0.402724	-0.975350
H218	H	1.434605	0.097276	-0.475350
C219	C	1.109988	-0.652686	-0.972301
C220	C	1.609988	-0.152686	-0.472301
C221	C	1.153469	-0.598258	-0.931844
C222	C	1.653469	-0.098258	-0.431844
C223	C	1.197094	-0.660268	-0.896733
C224	C	1.697094	-0.160268	-0.396733
H225	H	1.138204	-0.692837	-1.005764
H226	H	1.638204	-0.192837	-0.505764
H227	H	1.081867	-0.691513	-0.942450
H228	H	1.581867	-0.191513	-0.442450
H229	H	1.181588	-0.559448	-0.961692
H230	H	1.681588	-0.059448	-0.461692
H231	H	1.125273	-0.558110	-0.898369
H232	H	1.625273	-0.058110	-0.398369
H233	H	1.168973	-0.699094	-0.866882
H234	H	1.668973	-0.199094	-0.366882
H235	H	1.225305	-0.700415	-0.930201
H236	H	1.725305	-0.200415	-0.430201
H237	H	1.226596	-0.623347	-0.869274
H238	H	1.726596	-0.123347	-0.369274
H239	H	1.130397	-0.682127	-0.786446
H240	H	1.630397	-0.182127	-0.286446
C241	C	0.928076	-0.393614	-1.118450
C242	C	1.428076	0.106386	-0.618450
C243	C	0.884568	-0.448042	-1.158875
C244	C	1.384568	0.051958	-0.658875
C245	C	0.840882	-0.386032	-1.193918
C246	C	1.340882	0.113968	-0.693918
H247	H	0.956132	-0.354750	-1.148316
H248	H	1.456132	0.145250	-0.648316
H249	H	0.899886	-0.353501	-1.084927
H250	H	1.399886	0.146499	-0.584927
H251	H	0.912754	-0.488139	-1.192394
H252	H	1.412754	0.011861	-0.692394
H253	H	0.856496	-0.486904	-1.129025
H254	H	1.356496	0.013096	-0.629025
H255	H	0.812692	-0.345918	-1.160395
H256	H	1.312692	0.154082	-0.660395
H257	H	0.868944	-0.347171	-1.223781
H258	H	1.368944	0.152829	-0.723781
H259	H	0.811352	-0.422952	-1.221346
H260	H	1.311352	0.077048	-0.721346
C261	C	0.770168	-0.393370	-0.276322
C262	C	1.270168	0.106630	0.223678
C263	C	0.752893	-0.297822	-0.291068
C264	C	1.252893	0.202178	0.208932
C265	C	0.787790	-0.235397	-0.247568
C266	C	1.287790	0.264603	0.252432
H267	H	0.819556	-0.405263	-0.284685
H268	H	1.319556	0.094737	0.215315
H269	H	0.756159	-0.403936	-0.228444
H270	H	1.256159	0.096064	0.271556
H271	H	0.766906	-0.287261	-0.338936
H272	H	1.266906	0.212739	0.161064
H273	H	0.703511	-0.285900	-0.282702
H274	H	1.203511	0.214100	0.217298
H275	H	0.773781	-0.245963	-0.199689
H276	H	1.273781	0.254037	0.300311
H277	H	0.837176	-0.247299	-0.255934
H278	H	1.337176	0.252701	0.244066
H279	H	0.776068	-0.170562	-0.257562
H280	H	1.276068	0.329438	0.242438
H281	H	0.627194	-0.402783	-0.282754
H282	H	1.127194	0.097217	0.217246
H283	H	0.438331	-0.682417	-0.478358
H284	H	0.938331	-0.182417	0.021642
C285	C	0.624400	-0.653286	-0.457906
C286	C	1.124400	-0.153286	0.042094
C287	C	0.673985	-0.712411	-0.499217
C288	C	1.173985	-0.212411	0.000783
C289	C	0.639130	-0.774807	-0.542776
C290	C	1.139130	-0.274807	-0.042776
H291	H	0.596932	-0.616687	-0.487589
H292	H	1.096932	-0.116687	0.012411
H293	H	0.594594	-0.692119	-0.429743
H294	H	1.094594	-0.192119	0.070257
H295	H	0.703779	-0.673582	-0.527377
H296	H	1.203779	-0.173582	-0.027377
H297	H	0.701455	-0.749031	-0.469552
H298	H	1.201455	-0.249031	0.030448
H299	H	0.609324	-0.813641	-0.514613
H300	H	1.109324	-0.313641	-0.014613
H301	H	0.611663	-0.738201	-0.572454
H302	H	1.111663	-0.238201	-0.072454
H303	H	0.672768	-0.814937	-0.570806
H304	H	1.172768	-0.314937	-0.070806
