data_functionalizedCrystal
_audit_creation_method	'MofGen! by Chris Wilmer'
_symmetry_space_group_name_H-M	'P1'
_symmetry_Int_Tables_number	1
_symmetry_cell_setting	triclinic
loop_
_symmetry_equiv_pos_as_xyz
  x,y,z
_cell_length_a	14.044191
_cell_length_b	14.044190
_cell_length_c	12.503572
_cell_angle_alpha	93.839403
_cell_angle_beta	86.162165
_cell_angle_gamma	93.191777
loop_
_atom_site_label
_atom_site_type_symbol
_atom_site_fract_x
_atom_site_fract_y
_atom_site_fract_z
O1	O	1.282215	0.225145	-0.089290
O2	O	1.782215	0.725145	0.410710
O3	O	1.005543	0.216832	-0.089303
O4	O	1.505543	0.716832	0.410697
O5	O	1.139721	0.082653	-0.089276
O6	O	1.639721	0.582653	0.410724
O7	O	1.148036	0.359323	-0.089318
O8	O	1.648036	0.859323	0.410682
O9	O	1.129632	0.092762	0.089364
O10	O	1.629632	0.592762	0.589364
O11	O	0.995453	0.226941	0.089337
O12	O	1.495453	0.726941	0.589337
O13	O	1.272125	0.235254	0.089350
O14	O	1.772125	0.735254	0.589350
Cu15	Cu	1.132868	0.232021	0.105654
Cu16	Cu	1.632868	0.732021	0.605654
Cu17	Cu	1.144800	0.220065	-0.105608
Cu18	Cu	1.644800	0.720065	0.394392
O19	O	1.137947	0.369433	0.089322
O20	O	1.637947	0.869433	0.589322
C21	C	0.964876	0.218249	0.000016
C22	C	1.464876	0.718249	0.500016
C23	C	0.858733	0.207402	0.000012
C24	C	1.358733	0.707402	0.500012
C25	C	1.131040	0.052086	0.000047
C26	C	1.631040	0.552086	0.500047
C27	C	1.120192	-0.054057	0.000056
C28	C	1.620192	0.445943	0.500056
C29	C	0.613276	0.264503	0.000014
C30	C	1.113276	0.764503	0.500014
C31	C	0.664399	0.187587	0.000023
C32	C	1.164399	0.687587	0.500023
C33	C	0.772536	0.198615	0.000017
C34	C	1.272536	0.698615	0.500017
C35	C	0.505129	0.253476	0.000020
C36	C	1.005129	0.753476	0.500020
C37	C	1.312792	0.233836	0.000029
C38	C	1.812792	0.733836	0.500029
C39	C	1.418936	0.244683	0.000026
C40	C	1.918936	0.744683	0.500026
C41	C	1.177295	-0.299516	0.000017
C42	C	1.677295	0.200484	0.500017
C43	C	1.100378	-0.248393	0.000021
C44	C	1.600378	0.251607	0.500021
C45	C	1.111405	-0.140254	0.000040
C46	C	1.611405	0.359746	0.500040
C47	C	1.166269	-0.407664	-0.000003
C48	C	1.666269	0.092336	0.499997
N49	N	1.124483	0.240429	0.254245
N50	N	1.624483	0.740429	0.754245
C51	C	1.146629	0.400000	-0.000003
C52	C	1.646629	0.900000	0.499997
C53	C	1.157477	0.506142	-0.000019
C54	C	1.657477	1.006142	0.499981
N55	N	1.153192	0.211649	-0.254198
N56	N	1.653192	0.711649	0.245802
C57	C	1.112148	0.252807	0.473358
C58	C	1.612148	0.752807	0.973358
C59	C	1.165524	0.199275	0.526696
C60	C	1.665524	0.699275	1.026696
C61	C	1.158661	0.206162	0.648618
C62	C	1.658661	0.706162	1.148618
C63	C	1.119010	0.245921	0.351425
C64	C	1.619010	0.745921	0.851425
H65	H	0.650720	0.338629	-0.000001
H66	H	1.150720	0.838629	0.499999
H67	H	1.061301	0.303807	0.519255
H68	H	1.561301	0.803807	1.019255
H69	H	1.026246	-0.285838	0.000011
H70	H	1.526246	0.214162	0.500011
H71	H	0.626957	0.113450	-0.000041
H72	H	1.126957	0.613450	0.499959
H73	H	1.251421	-0.262072	0.000031
H74	H	1.751421	0.237928	0.500031
H75	H	1.216376	0.148273	0.480793
H76	H	1.716376	0.648273	0.980793
