data_functionalizedCrystal
_audit_creation_method	'MofGen! by Chris Wilmer'
_symmetry_space_group_name_H-M	'P1'
_symmetry_Int_Tables_number	1
_symmetry_cell_setting	triclinic
loop_
_symmetry_equiv_pos_as_xyz
  x,y,z
_cell_length_a	19.805405
_cell_length_b	15.298206
_cell_length_c	19.805407
_cell_angle_alpha	80.314144
_cell_angle_beta	90.015038
_cell_angle_gamma	80.365393
loop_
_atom_site_label
_atom_site_type_symbol
_atom_site_fract_x
_atom_site_fract_y
_atom_site_fract_z
Zn1	Zn	-0.448358	1.378904	0.203299
Zn2	Zn	-0.561507	1.378818	0.090119
Zn3	Zn	-0.428794	1.228089	0.109746
Zn4	Zn	-0.541946	1.228013	0.222887
O5	O	-0.495151	1.303456	0.156513
O6	O	-0.479741	1.505122	0.171873
O7	O	-0.543901	1.358819	-0.001994
O8	O	-0.336682	1.248163	0.122173
O9	O	-0.562871	1.505058	0.088720
O10	O	-0.351055	1.358966	0.190906
O11	O	-0.446398	1.248079	0.012427
O12	O	-0.427431	1.101850	0.141167
O13	O	-0.529533	1.248033	0.315004
O14	O	-0.510563	1.101794	0.224290
O15	O	-0.460774	1.358892	0.300613
O16	O	-0.653620	1.358745	0.107714
O17	O	-0.639249	1.247950	0.205258
C18	C	-0.464752	1.069092	0.186984
C19	C	-0.451763	0.968830	0.200036
C20	C	-0.402446	0.921766	0.249532
C21	C	-0.390236	0.827565	0.261797
C22	C	-0.427345	0.780419	0.224571
C23	C	-0.476666	0.827482	0.175077
C24	C	-0.488874	0.921693	0.162807
C25	C	-0.513773	0.780345	0.137846
C26	C	-0.563094	0.827408	0.088352
C27	C	-0.575299	0.921609	0.076085
C28	C	-0.538190	0.968756	0.113312
C29	C	-0.501565	0.686134	0.150115
C30	C	-0.587992	0.686061	0.063391
C31	C	-0.600203	0.780262	0.051126
C32	C	-0.670994	1.303354	0.156493
C33	C	-0.746231	1.303394	0.156497
C34	C	-0.789043	1.361141	0.105743
C35	C	-0.859737	1.361179	0.105753
C36	C	-0.887616	1.303465	0.156514
C37	C	-0.844799	1.245715	0.207273
C38	C	-0.774108	1.245682	0.207265
C39	C	-1.129889	1.245848	0.207306
C40	C	-1.200586	1.245884	0.207308
C41	C	-1.215519	1.361345	0.105794
C42	C	-1.144827	1.361312	0.105786
C43	C	-1.102017	1.303566	0.156546
C44	C	-1.025363	1.303526	0.156536
C45	C	-0.964268	1.303499	0.156523
C46	C	-0.318625	1.303582	0.156544
C47	C	-0.243400	1.303636	0.156557
C48	C	-0.495154	1.303464	0.333054
C49	C	-0.495155	1.303467	0.408286
C50	C	-0.525670	1.538735	0.125922
C51	C	-0.538676	1.638997	0.112887
C52	C	-0.459358	1.361185	0.436139
C53	C	-0.459355	1.361177	0.506828
C54	C	-0.495153	1.303456	0.549663
C55	C	-0.530951	1.245732	0.521806
C56	C	-0.530950	1.245736	0.451118
C57	C	-0.530957	1.245714	0.806882
C58	C	-0.530957	1.245717	0.877574
C59	C	-0.459362	1.361155	0.862591
C60	C	-0.459360	1.361159	0.791904
C61	C	-0.495155	1.303433	0.764053
C62	C	-0.495157	1.303440	0.687404
C63	C	-0.495156	1.303452	0.626311
C64	C	-0.495162	1.303439	0.980659
C65	C	-0.495156	1.303430	0.905428
H66	H	-0.618210	0.647674	0.033078
H67	H	-0.372234	0.960162	0.279833
H68	H	-0.867504	1.198727	0.248606
C69	C	-0.758383	1.424630	0.049900
N70	N	-0.735292	1.472454	0.007838
C71	C	-1.262617	1.424872	0.049959
N72	N	-1.298091	1.472717	0.007904
H73	H	-0.461406	0.647824	0.190412
H74	H	-1.095038	1.198827	0.248635
H75	H	-0.894592	1.408202	0.064425
C76	C	-1.231252	1.182395	0.263155
N77	N	-1.254349	1.134578	0.305217
C78	C	-0.629548	0.973377	0.021635
N79	N	-0.670409	1.012367	-0.019376
H80	H	-0.430207	1.408178	0.529502
C81	C	-0.654449	0.832044	-0.003322
N82	N	-0.695305	0.871047	-0.044333
C83	C	-0.727014	1.182156	0.263098
N84	N	-0.691544	1.134308	0.305154
H85	H	-0.430209	1.408191	0.401266
H86	H	-0.430212	1.408164	0.757030
H87	H	-0.430213	1.408156	0.885275
C88	C	-0.570335	1.182210	0.924692
N89	N	-0.599992	1.134379	0.960182
C90	C	-1.114163	1.424794	0.049940
N91	N	-1.091068	1.472610	0.007876
H92	H	-0.560115	1.198723	0.784213
H93	H	-0.560092	1.198728	0.428444
C94	C	-0.413916	0.676794	0.238068
N95	N	-0.403802	0.598741	0.248239
C96	C	-0.335987	0.775802	0.316241
N97	N	-0.295125	0.736814	0.357252
C98	C	-0.551615	1.072384	0.099819
N99	N	-0.561722	1.150437	0.089655
H100	H	-0.560096	1.198732	0.556689
