data_functionalizedCrystal
_audit_creation_method	'MofGen! by Chris Wilmer'
_symmetry_space_group_name_H-M	'P1'
_symmetry_Int_Tables_number	1
_symmetry_cell_setting	triclinic
loop_
_symmetry_equiv_pos_as_xyz
  x,y,z
_cell_length_a	14.519709
_cell_length_b	10.654550
_cell_length_c	9.730223
_cell_angle_alpha	90.000193
_cell_angle_beta	89.994593
_cell_angle_gamma	84.082524
loop_
_atom_site_label
_atom_site_type_symbol
_atom_site_fract_x
_atom_site_fract_y
_atom_site_fract_z
O1	O	-1.224716	-0.164618	-0.114107
O2	O	-0.724716	0.335382	0.385893
O3	O	-0.956339	-0.184004	-0.114149
O4	O	-0.456339	0.315996	0.385851
O5	O	-1.096698	0.008488	-0.114122
O6	O	-0.596698	0.508488	0.385878
O7	O	-1.084357	-0.357109	-0.114134
O8	O	-0.584357	0.142891	0.385866
O9	O	-1.096696	0.008483	0.114458
O10	O	-0.596696	0.508483	0.614458
O11	O	-0.956338	-0.184009	0.114431
O12	O	-0.456338	0.315991	0.614431
O13	O	-1.224714	-0.164622	0.114473
O14	O	-0.724714	0.335378	0.614473
Zn15	Zn	-1.090526	-0.174316	0.150744
Zn16	Zn	-0.590526	0.325684	0.650744
Zn17	Zn	-1.090528	-0.174310	-0.150420
Zn18	Zn	-0.590528	0.325690	0.349580
O19	O	-1.084355	-0.357114	0.114446
O20	O	-0.584355	0.142886	0.614446
C21	C	-1.095791	0.055275	0.000166
C22	C	-0.595791	0.555275	0.500166
C23	C	-1.093080	0.194692	0.000161
C24	C	-0.593080	0.694692	0.500161
C25	C	-0.921974	-0.183103	0.000136
C26	C	-0.421974	0.316897	0.500136
C27	C	-0.819579	-0.180396	0.000120
C28	C	-0.319579	0.319604	0.500120
C29	C	-1.259079	-0.165524	0.000185
C30	C	-0.759079	0.334476	0.500185
C31	C	-1.361475	-0.168231	0.000192
C32	C	-0.861475	0.331769	0.500192
C33	C	-0.444631	-0.170428	0.000183
C34	C	0.055369	0.329572	0.500183
C35	C	-0.548954	-0.173196	0.000165
C36	C	-0.048954	0.326804	0.500165
C37	C	-0.632102	-0.175412	0.000150
C38	C	-0.132102	0.324588	0.500150
C39	C	-0.736431	-0.178180	0.000135
C40	C	-0.236431	0.321820	0.500135
C41	C	-1.085262	-0.403901	0.000155
C42	C	-0.585262	0.096099	0.500155
C43	C	-1.087973	-0.543318	0.000151
C44	C	-0.587973	-0.043318	0.500151
N45	N	-1.090531	-0.174320	0.356280
N46	N	-0.590531	0.325680	0.856280
C47	C	-1.175721	0.274972	0.000178
C48	C	-0.675721	0.774972	0.500178
C49	C	-1.173168	0.405968	0.000168
C50	C	-0.673168	0.905968	0.500168
C51	C	-1.005326	0.376391	0.000130
C52	C	-0.505326	0.876391	0.500130
C53	C	-1.007880	0.245397	0.000130
C54	C	-0.507880	0.745397	0.500130
C55	C	-1.260921	0.224266	0.000209
C56	C	-0.760921	0.724266	0.500209
C57	C	-1.343569	0.304548	0.000227
C58	C	-0.843569	0.804548	0.500227
C59	C	-1.341016	0.435544	0.000217
C60	C	-0.841016	0.935544	0.500217
C61	C	-1.255815	0.486259	0.000189
C62	C	-0.755815	0.986259	0.500189
N63	N	-1.090530	-0.174297	-0.355956
N64	N	-0.590530	0.325703	0.144044
C65	C	-1.152698	-0.089113	0.428218
C66	C	-0.652698	0.410887	0.928218
C67	C	-1.152695	-0.089098	0.572101
C68	C	-0.652695	0.410902	1.072101
C69	C	-1.028356	-0.259507	0.572096
C70	C	-0.528356	0.240493	1.072096
C71	C	-1.028355	-0.259516	0.428215
C72	C	-0.528355	0.240484	0.928215
C73	C	-1.214874	-0.003918	0.356283
C74	C	-0.714874	0.496082	0.856283
C75	C	-1.277047	0.081295	0.428221
C76	C	-0.777047	0.581295	0.928221
C77	C	-1.277044	0.081310	0.572104
C78	C	-0.777044	0.581310	1.072104
C79	C	-1.214869	-0.003888	0.644049
C80	C	-0.714869	0.496112	1.144049
H81	H	-1.263009	0.117604	0.000221
H82	H	-0.763009	0.617604	0.500221
H83	H	-1.214883	-0.003925	0.239127
H84	H	-0.714883	0.496075	0.739127
H85	H	-1.412936	0.263247	0.000216
H86	H	-0.912936	0.763247	0.500216
H87	H	-1.408312	0.500907	0.000219
H88	H	-0.908312	1.000907	0.500219
H89	H	-1.253743	0.592926	0.000166
H90	H	-0.753743	1.092926	0.500166
H91	H	-1.327663	0.150667	0.369636
H92	H	-0.827663	0.650667	0.869636
H93	H	-0.977732	-0.328897	0.369643
H94	H	-0.477732	0.171103	0.869643
H95	H	-1.327661	0.150701	0.630675
H96	H	-0.827661	0.650701	1.130675
H97	H	-0.940586	0.180030	0.000118
H98	H	-0.440586	0.680030	0.500118
H99	H	-0.935960	0.417694	0.000109
H100	H	-0.435960	0.917694	0.500109
H101	H	-1.214866	-0.003859	0.761208
H102	H	-0.714866	0.496141	1.261208
H103	H	-0.977736	-0.328873	0.630682
H104	H	-0.477736	0.171127	1.130682
