data_functionalizedCrystal
_audit_creation_method	'MofGen! by Chris Wilmer'
_symmetry_space_group_name_H-M	'P1'
_symmetry_Int_Tables_number	1
_symmetry_cell_setting	triclinic
loop_
_symmetry_equiv_pos_as_xyz
  x,y,z
_cell_length_a	16.959455
_cell_length_b	18.050589
_cell_length_c	16.959447
_cell_angle_alpha	89.973357
_cell_angle_beta	89.985678
_cell_angle_gamma	90.025168
loop_
_atom_site_label
_atom_site_type_symbol
_atom_site_fract_x
_atom_site_fract_y
_atom_site_fract_z
Zn1	Zn	1.208339	-0.295705	-0.446929
Zn2	Zn	1.208243	-0.419907	-0.314759
Zn3	Zn	1.076167	-0.295729	-0.314766
Zn4	Zn	1.076113	-0.419851	-0.446897
O5	O	1.142216	-0.357798	-0.380838
O6	O	1.318937	-0.312194	-0.429406
O7	O	1.190705	-0.403467	-0.204149
O8	O	1.093763	-0.191801	-0.332314
O9	O	1.318866	-0.403445	-0.332301
O10	O	1.190869	-0.191784	-0.429414
O11	O	1.093670	-0.312234	-0.204154
O12	O	0.965549	-0.312180	-0.332284
O13	O	1.093671	-0.403350	-0.557512
O14	O	0.965510	-0.403373	-0.429360
O15	O	1.190817	-0.312141	-0.557536
O16	O	1.190653	-0.523824	-0.332271
O17	O	1.093578	-0.523783	-0.429353
C18	C	0.936849	-0.357774	-0.380820
C19	C	0.848993	-0.357781	-0.380831
C20	C	0.477513	-0.310275	-0.330396
C21	C	0.477521	-0.405382	-0.431325
C22	C	0.560067	-0.405371	-0.431320
C23	C	0.601340	-0.357813	-0.380852
C24	C	0.560067	-0.310265	-0.330388
C25	C	0.601346	-0.452924	-0.481777
C26	C	0.683897	-0.452916	-0.481774
C27	C	0.725171	-0.405353	-0.431309
C28	C	0.683893	-0.357802	-0.380844
C29	C	0.725166	-0.310243	-0.330375
C30	C	0.683890	-0.262689	-0.279913
C31	C	0.601342	-0.262702	-0.279923
C32	C	0.807720	-0.405340	-0.431299
C33	C	0.807720	-0.310233	-0.330367
C34	C	1.142120	-0.550750	-0.380825
C35	C	1.142152	-0.633296	-0.380846
C36	C	1.089414	-0.832751	-0.433620
C37	C	1.070151	-0.882194	-0.361493
C38	C	1.142229	-0.784426	-0.380856
C39	C	1.161531	-0.882065	-0.452991
C40	C	1.142303	-0.930411	-0.380872
C41	C	1.122929	-0.832782	-0.308691
C42	C	1.214342	-0.832648	-0.400237
C43	C	1.195106	-0.882069	-0.328061
C44	C	1.142185	-0.700328	-0.380848
C45	C	1.142347	-1.014508	-0.380872
C46	C	1.348384	-0.357823	-0.380857
C47	C	1.436240	-0.357834	-0.380864
C48	C	1.142249	-0.357737	-0.587006
C49	C	1.142263	-0.357710	-0.674863
C50	C	1.142333	-0.164092	-0.380868
C51	C	1.142383	-0.081547	-0.380881
C52	C	1.091778	-0.405121	-1.046329
C53	C	1.192936	-0.310143	-1.046348
C54	C	1.192915	-0.310159	-0.963802
C55	C	1.142326	-0.357657	-0.922516
C56	C	1.091757	-0.405139	-0.963775
C57	C	1.243489	-0.262683	-0.922537
C58	C	1.243470	-0.262698	-0.839986
C59	C	1.192876	-0.310192	-0.798698
C60	C	1.142305	-0.357676	-0.839962
C61	C	1.091715	-0.405174	-0.798676
C62	C	1.041139	-0.452654	-0.839939
C63	C	1.041162	-0.452634	-0.922488
C64	C	1.192852	-0.310212	-0.716149
C65	C	1.091694	-0.405193	-0.716122
C66	C	1.142228	-0.357806	-0.175472
C67	C	1.142368	-0.357623	-0.087615
H68	H	0.443903	-0.271555	-0.289313
O69	O	1.292508	-0.216461	-0.799949
C70	C	1.330964	-0.090138	-0.774789
C71	C	1.275371	-0.142421	-0.820162
H72	H	1.317140	-0.030267	-0.791127
H73	H	1.322262	-0.098232	-0.708686
H74	H	1.394692	-0.103218	-0.791007
H75	H	1.211622	-0.129373	-0.804010
H76	H	1.284142	-0.134317	-0.886254
O77	O	0.561297	-0.499220	-0.530726
C78	C	0.536047	-0.625583	-0.568933
C79	C	0.581436	-0.573241	-0.513426
H80	H	0.552325	-0.685439	-0.554977
H81	H	0.469946	-0.617485	-0.560281
H82	H	0.552308	-0.612564	-0.632680
H83	H	0.565241	-0.586227	-0.449658
H84	H	0.647526	-0.581348	-0.522146
H85	H	1.234129	-0.271477	-1.079969
O86	O	0.724025	-0.499180	-0.530683
C87	C	0.817241	-0.599409	-0.541144
C88	C	0.771829	-0.547077	-0.485662
H89	H	0.855914	-0.638136	-0.504768
H90	H	0.773599	-0.633456	-0.577204
H91	H	0.855873	-0.565333	-0.582548
H92	H	0.733196	-0.581095	-0.444211
H93	H	0.815514	-0.513027	-0.449658
H94	H	1.239802	-0.903587	-0.283395
O95	O	0.997390	-0.908126	-0.342067
C96	C	0.859416	-0.912381	-0.375665
C97	C	0.941778	-0.882983	-0.397760
H98	H	0.814429	-0.892052	-0.420672
H99	H	0.860248	-0.975533	-0.375333
H100	H	0.842592	-0.891278	-0.314592
H101	H	0.958652	-0.904032	-0.458837
H102	H	0.940902	-0.819832	-0.398038
O103	O	0.724108	-0.216516	-0.230962
C104	C	0.851286	-0.174398	-0.186189
C105	C	0.805834	-0.226711	-0.241676
H106	H	0.917369	-0.182634	-0.194820
H107	H	0.835148	-0.114515	-0.200181
H108	H	0.834981	-0.187356	-0.122439
H109	H	0.822114	-0.213820	-0.305445
H110	H	0.821975	-0.286579	-0.227616
O111	O	1.042638	-0.451442	-0.676052
C112	C	1.004163	-0.577770	-0.650803
C113	C	1.059776	-0.525477	-0.696218
H114	H	1.017988	-0.637638	-0.667103
H115	H	1.012843	-0.569696	-0.584706
H116	H	0.940442	-0.564681	-0.667021
H117	H	1.123519	-0.538534	-0.680067
H118	H	1.051029	-0.533561	-0.762304
O119	O	0.437309	-0.451509	-0.480321
C120	C	0.310138	-0.493710	-0.525023
C121	C	0.355583	-0.441419	-0.469506
H122	H	0.244054	-0.485582	-0.516287
H123	H	0.326332	-0.480738	-0.588800
H124	H	0.326394	-0.553567	-0.511044
H125	H	0.339351	-0.381545	-0.483414
H126	H	0.339385	-0.454455	-0.405746
O127	O	0.561124	-0.216577	-0.230938
C128	C	0.433947	-0.174402	-0.186271
C129	C	0.479398	-0.226690	-0.241768
H130	H	0.367864	-0.182550	-0.195019
H131	H	0.450087	-0.187358	-0.122489
H132	H	0.450251	-0.114544	-0.200260
H133	H	0.463119	-0.286567	-0.227850
H134	H	0.463255	-0.213671	-0.305534
O135	O	1.036106	-0.807000	-0.486876
C136	C	0.995356	-0.803875	-0.622942
C137	C	1.055772	-0.833104	-0.562716
H138	H	1.011243	-0.824955	-0.684274
H139	H	0.933919	-0.824257	-0.606340
H140	H	0.996209	-0.740723	-0.622800
H141	H	1.054990	-0.896254	-0.562827
H142	H	1.117181	-0.812665	-0.579340
O143	O	0.991981	-0.498871	-0.799952
C144	C	0.891628	-0.593059	-0.808624
C145	C	0.947263	-0.540766	-0.854011
H146	H	0.855447	-0.626933	-0.852311
H147	H	0.927862	-0.631950	-0.770000
H148	H	0.850345	-0.558963	-0.769952
H149	H	0.988557	-0.574802	-0.892726
H150	H	0.910979	-0.501873	-0.892586
H151	H	1.106562	-0.811223	-0.247677
H152	H	1.234033	-0.271557	-0.682556
H153	H	1.275277	-0.810871	-0.416650
O154	O	1.181117	-0.907855	-0.525736
C155	C	1.278619	-0.910748	-0.629062
C156	C	1.256554	-0.881508	-0.546665
H157	H	1.339604	-0.889446	-0.646016
H158	H	1.279089	-0.973901	-0.628254
H159	H	1.233464	-0.890504	-0.673943
H160	H	1.301687	-0.901698	-0.501738
H161	H	1.256058	-0.818358	-0.547539
H162	H	0.841323	-0.444060	-0.472382
O163	O	0.992113	-0.498730	-0.962692
C164	C	0.947284	-0.540759	-1.089857
C165	C	1.002883	-0.488531	-1.044421
H166	H	0.955960	-0.532520	-1.155943
H167	H	0.961122	-0.600665	-1.073672
H168	H	0.883560	-0.527720	-1.073586
H169	H	1.066626	-0.501503	-1.060668
H170	H	0.988977	-0.428641	-1.060610
O171	O	1.042725	-0.451218	-1.086529
C172	C	0.997878	-0.493249	-1.213687
C173	C	1.053484	-0.441020	-1.168259
H174	H	1.006545	-0.485011	-1.279773
H175	H	1.011720	-0.553155	-1.197502
H176	H	0.934157	-0.480211	-1.197406
H177	H	1.117224	-0.453991	-1.184515
H178	H	1.039574	-0.381130	-1.184447
O179	O	1.292744	-0.216626	-0.962601
C180	C	1.427225	-0.180561	-0.987831
C181	C	1.371532	-0.232782	-0.942421
H182	H	1.490935	-0.193594	-0.971520
H183	H	1.418621	-0.188701	-1.053929
H184	H	1.413339	-0.120685	-0.971620
H185	H	1.385383	-0.292678	-0.958566
H186	H	1.380146	-0.224578	-0.876335
O187	O	0.847897	-0.264137	-0.281301
C188	C	0.941023	-0.254015	-0.174556
C189	C	0.895586	-0.306300	-0.230085
H190	H	0.979577	-0.288084	-0.133123
H191	H	0.979752	-0.215234	-0.210868
H192	H	0.897326	-0.220015	-0.138531
H193	H	0.939225	-0.340349	-0.266122
H194	H	0.856844	-0.345032	-0.193728
