data_functionalizedCrystal
_audit_creation_method	'MofGen! by Chris Wilmer'
_symmetry_space_group_name_H-M	'P1'
_symmetry_Int_Tables_number	1
_symmetry_cell_setting	triclinic
loop_
_symmetry_equiv_pos_as_xyz
  x,y,z
_cell_length_a	18.101398
_cell_length_b	18.050589
_cell_length_c	18.101398
_cell_angle_alpha	90.004632
_cell_angle_beta	90.012704
_cell_angle_gamma	89.970035
loop_
_atom_site_label
_atom_site_type_symbol
_atom_site_fract_x
_atom_site_fract_y
_atom_site_fract_z
Zn1	Zn	1.132017	0.295966	0.418862
Zn2	Zn	1.632017	0.795966	0.918862
Zn3	Zn	1.131931	0.420101	0.295031
Zn4	Zn	1.631931	0.920101	0.795031
Zn5	Zn	1.008202	0.295919	0.295023
Zn6	Zn	1.508202	0.795919	0.795023
Zn7	Zn	1.008119	0.420109	0.418819
Zn8	Zn	1.508119	0.920109	0.918819
O9	O	1.070067	0.358024	0.356934
O10	O	1.570067	0.858024	0.856934
O11	O	1.235639	0.312450	0.402457
O12	O	1.735639	0.812450	0.902457
O13	O	1.115516	0.403604	0.191397
O14	O	1.615516	0.903604	0.691397
O15	O	1.024697	0.192000	0.311466
O16	O	1.524697	0.692000	0.811466
O17	O	1.235575	0.403650	0.311478
O18	O	1.735575	0.903650	0.811478
O19	O	1.115664	0.192035	0.402450
O20	O	1.615664	0.692035	0.902450
O21	O	1.024613	0.312368	0.191391
O22	O	1.524613	0.812368	0.691391
O23	O	0.904558	0.312376	0.311424
O24	O	1.404558	0.812376	0.811424
O25	O	1.024557	0.403664	0.522458
O26	O	1.524557	0.903664	1.022458
O27	O	0.904497	0.403618	0.402376
O28	O	1.404497	0.903618	0.902376
O29	O	1.115584	0.312458	0.522489
O30	O	1.615584	0.812458	1.022489
O31	O	1.115436	0.524026	0.311436
O32	O	1.615436	1.024026	0.811436
O33	O	1.024473	0.524032	0.402383
O34	O	1.524473	1.024032	0.902383
C35	C	0.877657	0.357993	0.356895
C36	C	1.377657	0.857993	0.856895
C37	C	0.795343	0.357998	0.356896
C38	C	1.295343	0.857998	0.856896
C39	C	1.069956	0.550976	0.356922
C40	C	1.569956	1.050976	0.856922
C41	C	1.069976	0.633522	0.356942
C42	C	1.569976	1.133522	0.856942
C43	C	0.496252	0.358045	0.356958
C44	C	0.996252	0.858045	0.856958
C45	C	0.527590	0.300351	0.300013
C46	C	1.027590	0.800351	0.800013
C47	C	0.613208	0.300506	0.299770
C48	C	1.113208	0.800506	0.799770
C49	C	0.644634	0.358021	0.356928
C50	C	1.144634	0.858021	0.856928
C51	C	0.613516	0.436242	0.335609
C52	C	1.113516	0.936242	0.835609
C53	C	0.527870	0.435921	0.335213
C54	C	1.027870	0.935921	0.835213
C55	C	0.527852	0.338198	0.435356
C56	C	1.027852	0.838198	0.935356
C57	C	0.613503	0.336456	0.434928
C58	C	1.113503	0.836456	0.934928
C59	C	0.728494	0.358013	0.356911
C60	C	1.228494	0.858013	0.856911
C61	C	0.412392	0.358059	0.356973
C62	C	0.912392	0.858059	0.856973
C63	C	1.020536	0.833002	0.406382
C64	C	1.520536	1.333002	0.906382
C65	C	1.002493	0.882408	0.338804
C66	C	1.502493	1.382408	0.838804
C67	C	1.070032	0.784652	0.356952
C68	C	1.570032	1.284652	0.856952
C69	C	1.088096	0.882328	0.424539
C70	C	1.588096	1.382328	0.924539
C71	C	1.070084	0.930637	0.356968
C72	C	1.570084	1.430637	0.856968
C73	C	1.051953	0.832970	0.289338
C74	C	1.551953	1.332970	0.789338
C75	C	1.137587	0.832886	0.375119
C76	C	1.637587	1.332886	0.875119
C77	C	1.119569	0.882269	0.307494
C78	C	1.619569	1.382269	0.807494
C79	C	1.070000	0.700554	0.356944
C80	C	1.570000	1.200554	0.856944
C81	C	1.070117	1.014734	0.356968
C82	C	1.570117	1.514734	0.856968
C83	C	1.263229	0.358054	0.356973
C84	C	1.763229	0.858054	0.856973
C85	C	1.345543	0.358068	0.356990
C86	C	1.845543	0.858068	0.856990
C87	C	1.070071	0.358067	0.550096
C88	C	1.570071	0.858067	1.050096
C89	C	1.070072	0.358086	0.632410
C90	C	1.570072	0.858086	1.132410
C91	C	1.070171	1.164318	0.356963
C92	C	1.570171	1.664318	0.856963
C93	C	1.070142	1.081772	0.356977
C94	C	1.570142	1.581772	0.856977
C95	C	1.070055	0.358043	0.931501
C96	C	1.570055	0.858043	1.431501
C97	C	1.012592	0.415235	0.900156
C98	C	1.512592	0.915235	1.400156
C99	C	1.012765	0.415473	0.814537
C100	C	1.512765	0.915473	1.314537
C101	C	1.070063	0.358064	0.783118
C102	C	1.570063	0.858064	1.283118
C103	C	1.148081	0.379325	0.814226
C104	C	1.648081	0.879325	1.314226
C105	C	1.147743	0.379728	0.899871
C106	C	1.647743	0.879728	1.399871
C107	C	1.050185	0.279453	0.899919
C108	C	1.550185	0.779453	1.399919
C109	C	1.048466	0.279879	0.814268
C110	C	1.548466	0.779879	1.314268
C111	C	1.070072	0.358075	0.699259
C112	C	1.570072	0.858075	1.199259
C113	C	1.070051	0.358034	1.015360
C114	C	1.570051	0.858034	1.515360
C115	C	1.070055	0.358008	1.164523
C116	C	1.570055	0.858008	1.664523
C117	C	1.070045	0.358022	1.082209
C118	C	1.570045	0.858022	1.582209
H119	H	0.507021	0.242169	0.313228
H120	H	1.007021	0.742169	0.813228
H121	H	0.634250	0.242501	0.313132
H122	H	1.134250	0.742501	0.813132
H123	H	1.036629	0.811380	0.232171
H124	H	1.536629	1.311380	0.732171
N125	N	1.108308	0.911053	0.500237
N126	N	1.608308	1.411053	1.000237
H127	H	1.070864	0.893133	0.537525
H128	H	1.570864	1.393133	1.037525
H129	H	1.158965	0.892261	0.514273
H130	H	1.658965	1.392261	1.014273
N131	N	0.926852	0.911232	0.318456
N132	N	1.426852	1.411232	0.818456
H133	H	0.930440	0.942018	0.272007
H134	H	1.430440	1.442018	0.772007
H135	H	0.892399	0.868118	0.309722
H136	H	1.392399	1.368118	0.809722
H137	H	0.978625	0.811369	0.448124
H138	H	1.478625	1.311369	0.948124
H139	H	0.633673	0.313623	0.241678
H140	H	1.133673	0.813623	0.741678
N141	N	0.498784	0.317486	0.223606
N142	N	0.998784	0.817486	0.723606
H143	H	0.514873	0.368902	0.208619
H144	H	1.014873	0.868902	0.708619
H145	H	0.519049	0.280144	0.187323
H146	H	1.019049	0.780144	0.687323
H147	H	1.161448	0.903766	0.265651
H148	H	1.661448	1.403766	0.765651
N149	N	0.499277	0.263965	0.461040
N150	N	0.999277	0.763965	0.961040
H151	H	0.465553	0.242448	0.422110
H152	H	0.965553	0.742448	0.922110
H153	H	0.542251	0.229295	0.469566
H154	H	1.042251	0.729295	0.969566
N155	N	1.213209	0.804048	0.395497
N156	N	1.713209	1.304048	0.895497
H157	H	1.212741	0.748100	0.394862
H158	H	1.712741	1.248100	0.894862
H159	H	1.250721	0.822803	0.358692
H160	H	1.750721	1.322803	0.858692
H161	H	0.954911	0.402168	0.793504
H162	H	1.454911	0.902168	1.293504
H163	H	0.507869	0.452757	0.277901
H164	H	1.007869	0.952757	0.777901
H165	H	0.994274	0.260101	0.921503
H166	H	1.494274	0.760101	1.421503
H167	H	1.165227	0.436150	0.792788
H168	H	1.665227	0.936150	1.292788
N169	N	0.640438	0.260206	0.456224
N170	N	1.140438	0.760206	0.956224
H171	H	0.672675	0.239712	0.415522
H172	H	1.172675	0.739712	0.915522
H173	H	0.669953	0.263512	0.503463
H174	H	1.169953	0.763512	1.003463
N175	N	0.641833	0.388064	0.494146
N176	N	1.141833	0.888064	0.994146
H177	H	0.675398	0.426327	0.471147
H178	H	1.175398	0.926327	0.971147
H179	H	0.598737	0.413664	0.518740
H180	H	1.098737	0.913664	1.018740
H181	H	1.164590	0.437177	0.919859
H182	H	1.664590	0.937177	1.419859
N183	N	0.935709	0.397803	0.927400
N184	N	1.435709	0.897803	1.427400
H185	H	0.937378	0.352665	0.960330
H186	H	1.437378	0.852665	1.460330
H187	H	0.915945	0.441402	0.956262
H188	H	1.415945	0.941402	1.456262
H189	H	1.025579	0.473133	0.921686
H190	H	1.525579	0.973133	1.421686
N191	N	1.030147	0.492616	0.787403
N192	N	1.530147	0.992616	1.287403
H193	H	1.037736	0.526597	0.831078
H194	H	1.537736	1.026597	1.331078
H195	H	1.076594	0.491338	0.756524
H196	H	1.576594	0.991338	1.256524
H197	H	1.192009	0.339880	0.920608
H198	H	1.692009	0.839880	1.420608
H199	H	0.634941	0.453370	0.278916
H200	H	1.134941	0.953370	0.778916
H201	H	0.507138	0.480361	0.374882
H202	H	1.007138	0.980361	0.874882
N203	N	0.640446	0.494706	0.388844
N204	N	1.140446	0.994706	0.888844
H205	H	0.673160	0.470993	0.427381
H206	H	1.173160	0.970993	0.927381
H207	H	0.669457	0.533440	0.360956
H208	H	1.169457	1.033440	0.860956
N209	N	1.206331	0.325860	0.787286
N210	N	1.706331	0.825860	1.287286
H211	H	1.182651	0.287252	0.754577
H212	H	1.682651	0.787252	1.254577
H213	H	1.244983	0.353778	0.758265
H214	H	1.744983	0.853778	1.258265
H215	H	0.507584	0.380220	0.477786
H216	H	1.007584	0.880220	0.977786
N217	N	0.972417	0.258634	0.787335
N218	N	1.472417	0.758634	1.287335
H219	H	0.952033	0.299479	0.755088
H220	H	1.452033	0.799479	1.255088
H221	H	0.975678	0.211256	0.757829
H222	H	1.475678	0.711256	1.257829
N223	N	1.099869	0.220413	0.785943
N224	N	1.599869	0.720413	1.285943
H225	H	1.138057	0.243416	0.752370
H226	H	1.638057	0.743416	1.252370
H227	H	1.125362	0.195712	0.829040
H228	H	1.625362	0.695712	1.329040
H229	H	1.092039	0.236841	0.920191
H230	H	1.592039	0.736841	1.420191
