data_functionalizedCrystal
_audit_creation_method	'MofGen! by Chris Wilmer'
_symmetry_space_group_name_H-M	'P1'
_symmetry_Int_Tables_number	1
_symmetry_cell_setting	triclinic
loop_
_symmetry_equiv_pos_as_xyz
  x,y,z
_cell_length_a	11.792254
_cell_length_b	10.268362
_cell_length_c	19.288857
_cell_angle_alpha	90.003498
_cell_angle_beta	83.665853
_cell_angle_gamma	90.004577
loop_
_atom_site_label
_atom_site_type_symbol
_atom_site_fract_x
_atom_site_fract_y
_atom_site_fract_z
O1	O	1.505452	0.108306	0.095238
O2	O	2.005452	0.608306	0.595238
O3	O	1.174964	0.108309	0.105041
O4	O	1.674964	0.608309	0.605041
O5	O	1.349762	0.108292	-0.000937
O6	O	1.849762	0.608292	0.499063
O7	O	1.330654	0.108323	0.201216
O8	O	1.830654	0.608323	0.701216
O9	O	1.349745	-0.108309	-0.000933
O10	O	1.849745	0.391691	0.499067
O11	O	1.174947	-0.108291	0.105044
O12	O	1.674947	0.391709	0.605044
O13	O	1.505435	-0.108295	0.095242
O14	O	2.005435	0.391705	0.595242
Cu15	Cu	1.340190	-0.128070	0.100143
Cu16	Cu	1.840190	0.371930	0.600143
Cu17	Cu	1.340209	0.128085	0.100139
Cu18	Cu	1.840209	0.628085	0.600139
O19	O	1.330637	-0.108277	0.201219
O20	O	1.830637	0.391723	0.701219
C21	C	1.132674	0.000009	0.104425
C22	C	1.632674	0.500009	0.604425
C23	C	1.006689	0.000010	0.102577
C24	C	1.506689	0.500010	0.602577
N25	N	1.340184	-0.308236	0.100146
N26	N	1.840184	0.191764	0.600146
C27	C	0.904376	0.000015	0.101075
C28	C	1.404376	0.500015	0.601075
C29	C	0.776017	0.000016	0.099197
C30	C	1.276017	0.500016	0.599197
C31	C	1.340192	-0.426079	0.100146
C32	C	1.840192	0.073921	0.600146
C33	C	1.340207	-0.573917	0.100140
C34	C	1.840207	-0.073917	0.600140
C35	C	1.547725	0.000008	0.095858
C36	C	2.047725	0.500008	0.595858
C37	C	1.673710	0.000016	0.097706
C38	C	2.173710	0.500016	0.597706
C39	C	1.349140	-0.000010	-0.026815
C40	C	1.849140	0.499990	0.473185
C41	C	1.347299	-0.000013	-0.103929
C42	C	1.847299	0.499987	0.396071
N43	N	1.340224	0.308251	0.100131
N44	N	1.840224	0.808251	0.600131
C45	C	1.346449	0.118056	-0.140147
C46	C	1.846449	0.618056	0.359853
C47	C	1.344703	0.118066	-0.212603
C48	C	1.844703	0.618066	0.287397
C49	C	1.343829	-0.000001	-0.248840
C50	C	1.843829	0.499999	0.251160
C51	C	1.344673	-0.118085	-0.212613
C52	C	1.844673	0.381915	0.287387
C53	C	1.346408	-0.118092	-0.140158
C54	C	1.846408	0.381908	0.359842
C55	C	1.407550	-0.090447	-0.368706
C56	C	1.907550	0.409553	0.131294
C57	C	1.405822	-0.090436	-0.441161
C58	C	1.905822	0.409564	0.058839
C59	C	1.338474	0.000014	-0.472317
C60	C	1.838474	0.500014	0.027683
C61	C	1.272868	0.090475	-0.431010
C62	C	1.772868	0.590475	0.068990
C63	C	1.274603	0.090468	-0.358554
C64	C	1.774603	0.590468	0.141446
C65	C	1.341948	-0.000007	-0.327406
C66	C	1.841948	0.499993	0.172594
C67	C	1.335728	0.118102	-0.587099
C68	C	1.835728	0.618102	-0.087099
C69	C	1.333975	0.118107	-0.659556
C70	C	1.833975	0.618107	-0.159556
C71	C	1.333957	-0.118048	-0.659566
C72	C	1.833957	0.381952	-0.159566
C73	C	1.335699	-0.118049	-0.587110
C74	C	1.835699	0.381951	-0.087110
C75	C	1.336590	0.000029	-0.550881
C76	C	1.836590	0.500029	-0.050881
C77	C	1.331259	0.000027	0.227098
C78	C	1.831259	0.500027	0.727098
C79	C	1.333100	0.000039	0.304212
C80	C	1.833100	0.500039	0.804212
H81	H	1.344003	0.214215	-0.242096
H82	H	1.844003	0.714215	0.257904
H83	H	1.347096	-0.214241	-0.110670
H84	H	1.847096	0.285759	0.389330
O85	O	1.336665	0.245454	-0.548018
O86	O	1.836665	0.745454	-0.048018
H87	H	1.414799	0.251113	-0.520912
H88	H	1.914799	0.751113	-0.020912
O89	O	1.343730	-0.245427	-0.251697
O90	O	1.843730	0.254573	0.248303
H91	H	1.344604	-0.327533	-0.214336
H92	H	1.844604	0.172467	0.285664
H93	H	1.333277	0.214257	-0.689042
H94	H	1.833277	0.714257	-0.189042
O95	O	1.476575	-0.188000	-0.485712
O96	O	1.976575	0.312000	0.014288
H97	H	1.523679	-0.250915	-0.451875
H98	H	2.023679	0.249085	0.048125
O99	O	1.347401	0.245405	-0.101069
O100	O	1.847401	0.745405	0.398931
H101	H	1.270856	0.251046	-0.062156
H102	H	1.770856	0.751046	0.437844
H103	H	1.333238	-0.214180	-0.689069
H104	H	1.833238	0.285820	-0.189069
H105	H	1.221182	0.164122	-0.324925
H106	H	1.721182	0.664122	0.175075
O107	O	1.336628	-0.245396	-0.548041
O108	O	1.836628	0.254604	-0.048041
H109	H	1.414753	-0.251038	-0.520925
H110	H	1.914753	0.248962	-0.020925
H111	H	1.218026	0.164128	-0.456374
H112	H	1.718026	0.664128	0.043626
O113	O	1.480200	-0.188004	-0.335105
O114	O	1.980200	0.311996	0.164895
H115	H	1.525542	-0.250887	-0.375999
H116	H	2.025542	0.249113	0.124001
