data_functionalizedCrystal
_audit_creation_method	'MofGen! by Chris Wilmer'
_symmetry_space_group_name_H-M	'P1'
_symmetry_Int_Tables_number	1
_symmetry_cell_setting	triclinic
loop_
_symmetry_equiv_pos_as_xyz
  x,y,z
_cell_length_a	19.188930
_cell_length_b	23.532407
_cell_length_c	18.266242
_cell_angle_alpha	89.985150
_cell_angle_beta	89.977082
_cell_angle_gamma	82.996761
loop_
_atom_site_label
_atom_site_type_symbol
_atom_site_fract_x
_atom_site_fract_y
_atom_site_fract_z
O1	O	0.925922	0.071102	-0.061130
O2	O	0.722581	0.080673	-0.061081
O3	O	0.830383	-0.007031	-0.061087
O4	O	0.818120	0.158806	-0.061125
O5	O	0.830365	-0.007035	0.060675
O6	O	0.722562	0.080669	0.060681
O7	O	0.925904	0.071097	0.060632
Zn8	Zn	0.824230	0.075882	0.079989
Zn9	Zn	0.824254	0.075888	-0.080438
O10	O	0.818102	0.158802	0.060637
C11	C	0.696561	0.080361	-0.000194
C12	C	0.619060	0.079431	-0.000174
C13	C	0.830062	-0.028250	-0.000202
C14	C	0.829123	-0.091469	-0.000190
C15	C	0.573972	0.130893	-0.000198
C16	C	0.501151	0.130019	-0.000206
C17	C	0.473421	0.077680	-0.000205
C18	C	0.518519	0.026211	-0.000177
C19	C	0.591339	0.027086	-0.000162
N20	N	0.365575	0.037674	-0.041666
N21	N	0.296399	0.036846	-0.041682
C22	C	0.254021	0.075038	-0.000249
N23	N	0.283431	0.114099	0.041191
N24	N	0.352613	0.114929	0.041204
C25	C	0.394462	0.076724	-0.000221
C26	C	0.129971	0.125556	-0.000280
C27	C	0.057149	0.124680	-0.000283
C28	C	0.074520	0.020870	-0.000262
C29	C	0.147340	0.021748	-0.000252
C30	C	0.175061	0.074092	-0.000264
C31	C	0.761456	-0.357780	-0.000220
C32	C	0.762328	-0.298378	-0.000215
O33	O	0.708648	-0.261747	-0.000225
N34	N	0.826416	-0.275616	-0.000221
C35	C	0.889637	-0.312259	-0.000241
O36	O	0.944229	-0.287443	-0.000247
C37	C	0.888764	-0.371660	-0.000252
C38	C	0.824671	-0.394419	-0.000237
C39	C	0.697368	-0.380540	-0.000207
C40	C	0.696496	-0.439938	-0.000211
C41	C	0.759712	-0.476576	-0.000228
C42	C	0.823799	-0.453817	-0.000242
C43	C	0.951984	-0.408302	-0.000277
C44	C	0.951105	-0.467706	-0.000288
C45	C	0.887013	-0.490465	-0.000274
C46	C	0.886143	-0.549853	-0.000263
N47	N	0.822055	-0.572616	-0.000256
C48	C	0.758839	-0.535977	-0.000239
C49	C	0.891465	-0.187513	-0.000220
C50	C	0.892339	-0.128113	-0.000204
C51	C	0.765029	-0.114236	-0.000179
C52	C	0.764156	-0.173637	-0.000190
C53	C	0.827377	-0.210275	-0.000213
C54	C	0.757013	-0.660718	-0.000247
C55	C	0.756146	-0.720122	-0.000248
C56	C	0.883455	-0.733993	-0.000277
C57	C	0.884322	-0.674595	-0.000272
C58	C	0.821095	-0.637958	-0.000259
O59	O	0.939795	-0.586519	-0.000256
O60	O	0.704255	-0.560801	-0.000242
C61	C	0.951923	0.071410	-0.000257
C62	C	1.029425	0.072340	-0.000281
C63	C	0.818423	0.180021	-0.000249
C64	C	0.819362	0.243240	-0.000265
N65	N	0.824219	0.075878	0.189476
N66	N	0.824271	0.075888	-0.189925
C67	C	0.871970	0.037062	0.227782
C68	C	0.871974	0.037059	0.304427
C69	C	0.824235	0.075883	0.342763
C70	C	0.776475	0.114702	0.304447
C71	C	0.776468	0.114700	0.227803
N72	N	0.814998	0.126298	0.463085
N73	N	0.815010	0.126298	0.535893
C74	C	0.824254	0.075891	0.573685
N75	N	0.833500	0.025481	0.535919
N76	N	0.833492	0.025482	0.463104
C77	C	0.824238	0.075889	0.425870
C78	C	0.872012	0.037068	0.695099
C79	C	0.872012	0.037065	0.771745
C80	C	0.776516	0.114713	0.771763
C81	C	0.776513	0.114711	0.695118
C82	C	0.824265	0.075890	0.656791
H83	H	0.596537	0.173516	-0.000209
H84	H	0.910893	0.005455	0.663891
H85	H	0.942950	-0.217341	-0.000234
O86	O	0.696842	-0.074713	-0.000169
H87	H	0.708223	-0.029586	-0.000173
O88	O	0.688819	-0.621208	-0.000229
H89	H	0.686165	-0.593823	0.049401
H90	H	0.737643	0.146322	0.802975
H91	H	1.004175	-0.389783	-0.000289
H92	H	0.737633	0.146322	0.663927
O93	O	0.923488	-0.004803	0.345754
H94	H	0.914916	-0.049187	0.331067
O95	O	0.923462	-0.004816	0.186441
H96	H	0.956662	-0.031812	0.225960
O97	O	0.923526	-0.004800	0.813060
H98	H	0.914956	-0.049183	0.798365
H99	H	0.628050	-0.014822	-0.000144
O100	O	0.629175	-0.341031	-0.000180
H101	H	0.626517	-0.313621	-0.049803
H102	H	0.464433	0.171927	-0.000223
O103	O	0.627368	-0.464482	-0.000202
H104	H	0.583563	-0.429018	-0.000195
O105	O	0.724956	0.156566	0.186485
H106	H	0.732968	0.150038	0.126751
O107	O	0.488618	-0.030243	-0.000177
H108	H	0.430406	-0.022207	-0.000198
H109	H	1.002588	-0.497535	-0.000311
H110	H	0.944530	-0.109588	-0.000204
O111	O	0.159880	0.182009	-0.000278
H112	H	0.116290	0.217649	-0.000282
O113	O	0.724987	0.156581	0.345787
H114	H	0.733020	0.150066	0.405519
O115	O	0.953448	-0.650041	-0.000285
H116	H	0.997258	-0.685501	-0.000301
H117	H	0.703952	-0.738648	-0.000233
O118	O	0.008512	0.180188	-0.000306
H119	H	0.040026	0.216730	-0.000318
O120	O	0.044624	-0.035584	-0.000262
H121	H	-0.013588	-0.027548	-0.000280
H122	H	0.184052	-0.020158	-0.000237
H123	H	0.711967	-0.192162	-0.000175
H124	H	0.934924	-0.763835	-0.000287
