data_functionalizedCrystal
_audit_creation_method	'MofGen! by Chris Wilmer'
_symmetry_space_group_name_H-M	'P1'
_symmetry_Int_Tables_number	1
_symmetry_cell_setting	triclinic
loop_
_symmetry_equiv_pos_as_xyz
  x,y,z
_cell_length_a	16.109302
_cell_length_b	17.019294
_cell_length_c	15.186229
_cell_angle_alpha	86.117288
_cell_angle_beta	89.994701
_cell_angle_gamma	83.427801
loop_
_atom_site_label
_atom_site_type_symbol
_atom_site_fract_x
_atom_site_fract_y
_atom_site_fract_z
O1	O	1.103039	0.101397	-0.080956
O2	O	0.860966	0.114015	-0.081905
O3	O	0.988755	-0.007128	-0.072719
O4	O	0.975249	0.222541	-0.090142
O5	O	0.988747	-0.007130	0.073739
O6	O	0.860957	0.114014	0.064552
O7	O	1.103030	0.101396	0.065502
Zn8	Zn	0.981992	0.107704	0.088280
Zn9	Zn	0.982004	0.107707	-0.104684
O10	O	0.975241	0.222539	0.056315
C11	C	0.829987	0.113503	-0.008637
C12	C	0.737693	0.111971	-0.008518
C13	C	0.525351	0.108426	0.071576
C14	C	0.438632	0.106977	0.071683
C15	C	0.438652	0.106983	-0.087993
C16	C	0.525370	0.108426	-0.088099
C17	C	0.568716	0.109151	-0.008312
C18	C	0.395280	0.106260	-0.008099
C19	C	0.301255	0.104689	-0.007984
C20	C	0.662747	0.110720	-0.008426
C21	C	0.988239	-0.036518	0.002738
C22	C	0.986703	-0.124088	0.009376
C23	C	0.985987	-0.165223	-0.067339
C24	C	0.984539	-0.247504	-0.061099
C25	C	0.983811	-0.288648	0.021856
C26	C	0.984524	-0.247507	0.098577
C27	C	0.985967	-0.165227	0.092336
C28	C	0.979449	-0.537080	0.044693
C29	C	0.978009	-0.619366	0.050928
C30	C	0.978022	-0.619357	-0.108749
C31	C	0.979470	-0.537076	-0.114982
C32	C	0.980178	-0.495941	-0.038262
C33	C	0.982333	-0.372753	0.028236
C34	C	0.981650	-0.411838	-0.044643
C35	C	1.134009	0.101908	-0.007768
C36	C	1.226303	0.103440	-0.007893
C37	C	0.975757	0.251929	-0.019143
C38	C	0.977293	0.339499	-0.025787
N39	N	0.981991	0.107702	0.219973
N40	N	0.982012	0.107702	-0.236376
C41	C	1.038595	0.054078	0.449762
C42	C	1.038598	0.054076	0.541952
C43	C	0.925401	0.161329	0.533828
C44	C	0.925395	0.161327	0.441640
C45	C	0.981997	0.107702	0.399610
C46	C	0.982006	0.107703	0.583987
C47	C	0.982008	0.107701	0.683944
C48	C	0.981994	0.107702	0.299647
H49	H	0.403348	0.106393	-0.152953
H50	H	1.084684	0.010410	0.582784
H51	H	0.986537	-0.131735	0.154806
C52	C	0.980238	-0.491845	0.129087
C53	C	0.909068	-0.426311	0.146093
C54	C	0.909860	-0.381074	0.230493
C55	C	0.981822	-0.401372	0.297888
C56	C	1.052998	-0.466910	0.280885
C57	C	1.052206	-0.512146	0.196484
H58	H	0.855793	-0.411282	0.096201
H59	H	0.857171	-0.332559	0.243080
H60	H	0.982408	-0.367886	0.360366
H61	H	1.106273	-0.481939	0.330776
H62	H	1.104895	-0.560661	0.183898
H63	H	0.983926	-0.281013	0.166121
C64	C	0.573078	0.109225	-0.175981
C65	C	0.525401	0.108438	-0.263745
C66	C	0.573111	0.109234	-0.351623
C67	C	0.668498	0.110818	-0.351737
C68	C	0.716180	0.111605	-0.263970
C69	C	0.668471	0.110809	-0.176092
H70	H	0.454786	0.107266	-0.263664
H71	H	0.537813	0.108651	-0.416594
H72	H	0.703816	0.111407	-0.416789
H73	H	0.786796	0.112777	-0.264051
H74	H	0.703769	0.111392	-0.111121
C75	C	0.863147	0.220321	0.580062
C76	C	0.863195	0.220373	0.681461
C77	C	0.800941	0.279369	0.727691
C78	C	0.738640	0.338311	0.672522
C79	C	0.738590	0.338261	0.571117
C80	C	0.800844	0.279265	0.524887
H81	H	0.909316	0.176739	0.722305
H82	H	0.800978	0.279406	0.802758
H83	H	0.692556	0.381983	0.706744
H84	H	0.692469	0.381895	0.530273
H85	H	0.800807	0.279228	0.449820
C86	C	1.100849	-0.004913	0.403529
C87	C	1.068432	-0.065252	0.344738
C88	C	1.130686	-0.124247	0.298508
C89	C	1.225357	-0.122904	0.311068
C90	C	1.257778	-0.062563	0.369862
C91	C	1.195524	-0.003568	0.416092
H92	H	0.998347	-0.066248	0.335437
H93	H	1.106685	-0.168915	0.254985
H94	H	1.271441	-0.166576	0.276846
H95	H	1.327863	-0.061567	0.379162
H96	H	1.219526	0.041101	0.459615
C97	C	0.390929	0.106183	0.159561
C98	C	0.295544	0.104591	0.159685
C99	C	0.247841	0.103795	0.247567
C100	C	0.295525	0.104593	0.335325
C101	C	0.390915	0.106185	0.335205
C102	C	0.438618	0.106980	0.247323
H103	H	0.260241	0.104000	0.094718
H104	H	0.177226	0.102616	0.247656
H105	H	0.260212	0.104004	0.400381
H106	H	0.426218	0.106775	0.400172
H107	H	0.509233	0.108159	0.247234
C108	C	0.986788	-0.119967	-0.158593
C109	C	1.058752	-0.140256	-0.222922
C110	C	1.059550	-0.095002	-0.314178
C111	C	0.988384	-0.029460	-0.341104
C112	C	0.916415	-0.009168	-0.276773
C113	C	0.915617	-0.054422	-0.185518
H114	H	1.111438	-0.188777	-0.202991
H115	H	1.112827	-0.110024	-0.361800
H116	H	0.988975	0.004040	-0.408657
H117	H	0.863729	0.039353	-0.296705
H118	H	0.862341	-0.039400	-0.137896
H119	H	0.983960	-0.280993	-0.123569
H120	H	0.560641	0.109016	0.136544
H121	H	0.980063	-0.503581	-0.182533
C122	C	0.982453	-0.366582	-0.135892
C123	C	0.910104	-0.368911	-0.201587
C124	C	0.910912	-0.323649	-0.292837
C125	C	0.984068	-0.276057	-0.318392
C126	C	1.056422	-0.273726	-0.252696
C127	C	1.055615	-0.318989	-0.161446
H128	H	0.855945	-0.404143	-0.182670
H129	H	0.857350	-0.325375	-0.341469
H130	H	0.984666	-0.242551	-0.385941
H131	H	1.110582	-0.238494	-0.271613
H132	H	1.109177	-0.317263	-0.112814
C133	C	0.977231	-0.664605	-0.193136
C134	C	1.048397	-0.730148	-0.210131
C135	C	1.047601	-0.775396	-0.294522
C136	C	0.975641	-0.755101	-0.361920
C137	C	0.904470	-0.689556	-0.344927
C138	C	0.905266	-0.644308	-0.260536
H139	H	1.101671	-0.745173	-0.160237
H140	H	1.100287	-0.823917	-0.307101
H141	H	0.975052	-0.788597	-0.424392
H142	H	0.851196	-0.674530	-0.394821
H143	H	0.852580	-0.595787	-0.247957
H144	H	0.977412	-0.652863	0.118484
H145	H	0.981743	-0.406262	0.095779
H146	H	0.879302	0.204994	0.400803
