data_functionalizedCrystal
_audit_creation_method	'MofGen! by Chris Wilmer'
_symmetry_space_group_name_H-M	'P1'
_symmetry_Int_Tables_number	1
_symmetry_cell_setting	triclinic
loop_
_symmetry_equiv_pos_as_xyz
  x,y,z
_cell_length_a	10.654550
_cell_length_b	10.489741
_cell_length_c	9.730223
_cell_angle_alpha	89.998920
_cell_angle_beta	89.996251
_cell_angle_gamma	84.512038
loop_
_atom_site_label
_atom_site_type_symbol
_atom_site_fract_x
_atom_site_fract_y
_atom_site_fract_z
O1	O	1.667918	0.179156	-0.114402
O2	O	1.302447	0.196226	-0.114380
O3	O	1.493499	0.002089	-0.114383
O4	O	1.476867	0.373293	-0.114399
O5	O	1.493497	0.002094	0.114196
O6	O	1.302445	0.196231	0.114200
O7	O	1.667916	0.179161	0.114178
Zn8	Zn	1.485180	0.187697	0.150481
Zn9	Zn	1.485183	0.187690	-0.150683
O10	O	1.476864	0.373298	0.114181
C11	C	1.255648	0.194975	-0.000087
C12	C	1.116203	0.191225	-0.000079
C13	C	1.492241	-0.045439	-0.000094
C14	C	1.488483	-0.187067	-0.000096
C15	C	1.036771	0.305530	-0.000103
C16	C	0.905748	0.301999	-0.000127
C17	C	0.933603	0.069849	-0.000107
C18	C	1.064623	0.073381	-0.000073
C19	C	1.020688	0.439560	-0.000121
C20	C	0.889665	0.436029	-0.000145
C21	C	1.366923	-0.255148	-0.000099
C22	C	1.424346	-0.347296	0.112599
C23	C	1.424377	-0.347276	-0.112763
C24	C	1.545956	-0.277350	0.112695
C25	C	1.545970	-0.277319	-0.112768
C26	C	1.603481	-0.369440	-0.000043
C27	C	1.714715	0.180412	-0.000118
C28	C	1.854160	0.184162	-0.000136
C29	C	1.478122	0.420826	-0.000111
C30	C	1.481880	0.562454	-0.000118
N31	N	1.485187	0.187700	0.356017
N32	N	1.485186	0.187677	-0.356220
C33	C	1.569807	0.101766	0.427942
C34	C	1.569803	0.101751	0.571825
C35	C	1.400557	0.273615	0.571846
C36	C	1.400555	0.273623	0.427966
C37	C	1.667524	0.002545	0.427931
C38	C	1.667520	0.002530	0.571814
H39	H	0.891590	-0.026096	-0.000124
H40	H	1.703518	-0.418912	0.000014
C41	C	1.150655	-0.050862	-0.000097
C42	C	1.077436	-0.154815	-0.000135
C43	C	1.156645	-0.269292	-0.000172
H44	H	1.202346	-0.054478	0.079607
H45	H	1.202351	-0.054394	-0.079825
H46	H	1.025761	-0.151285	0.079584
H47	H	1.025747	-0.151241	-0.079834
H48	H	1.208341	-0.272824	-0.079900
H49	H	1.208332	-0.272894	0.079534
H50	H	1.106977	-0.339837	-0.000211
H51	H	1.636964	-0.090122	0.616435
C52	C	1.308536	0.366956	0.649716
C53	C	1.234408	0.442194	0.555926
C54	C	1.149611	0.528183	0.627606
H55	H	1.354036	0.420602	0.705855
H56	H	1.255778	0.320594	0.705810
H57	H	1.287159	0.488552	0.499857
H58	H	1.188880	0.388583	0.499785
H59	H	1.096853	0.481821	0.683700
H60	H	1.195121	0.581820	0.683743
H61	H	1.099297	0.579234	0.563981
H62	H	1.758722	0.033613	0.383297
C63	C	1.059599	0.509433	0.127549
C64	C	0.952414	0.548645	0.205612
C65	C	0.988212	0.612996	0.323237
H66	H	1.100384	0.582288	0.101166
H67	H	1.115793	0.453615	0.180787
H68	H	0.896241	0.604460	0.152384
H69	H	0.911615	0.475814	0.232030
H70	H	1.044406	0.557178	0.376474
H71	H	1.028999	0.685846	0.296840
H72	H	0.915496	0.639598	0.376223
H73	H	1.056364	0.482235	-0.098810
C74	C	1.355626	-0.388782	0.239481
C75	C	1.251136	-0.451136	0.199179
C76	C	1.187803	-0.489378	0.316017
H77	H	1.328139	-0.315668	0.293008
H78	H	1.411032	-0.445567	0.292540
H79	H	1.195739	-0.394354	0.146142
H80	H	1.278587	-0.524265	0.145667
H81	H	1.243209	-0.546163	0.369077
H82	H	1.160324	-0.416257	0.369537
H83	H	1.116907	-0.531699	0.288689
C84	C	0.833896	0.503143	-0.127759
C85	C	0.771279	0.416685	-0.205819
C86	C	0.719879	0.478466	-0.323372
H87	H	0.899513	0.533590	-0.181050
H88	H	0.775866	0.573247	-0.101251
H89	H	0.829305	0.346604	-0.232329
H90	H	0.705646	0.386234	-0.152569
H91	H	0.661848	0.548571	-0.296864
H92	H	0.785503	0.508910	-0.376652
H93	H	0.677378	0.419818	-0.376344
C94	C	1.614618	-0.236121	0.239718
C95	C	1.719823	-0.174784	0.199645
C96	C	1.783089	-0.136770	0.316620
H97	H	1.641353	-0.309255	0.293556
H98	H	1.559433	-0.178783	0.292404
H99	H	1.774999	-0.232119	0.146982
H100	H	1.693124	-0.101637	0.145824
H101	H	1.727904	-0.079431	0.369306
H102	H	1.809816	-0.209910	0.370450
H103	H	1.854471	-0.095138	0.289447
H104	H	0.844012	0.476536	0.098538
C105	C	1.638598	-0.128123	0.375938
C106	C	1.520008	-0.154647	0.424063
C107	C	1.493309	-0.274995	0.376185
H108	H	1.700988	-0.191733	0.408442
H109	H	1.638521	-0.128150	0.278298
H110	H	1.520095	-0.154630	0.521683
H111	H	1.457594	-0.091069	0.391563
H112	H	1.493232	-0.275021	0.278545
H113	H	1.555706	-0.338594	0.408692
H114	H	1.412839	-0.293001	0.408820
H115	H	1.266977	-0.205449	0.000020
C116	C	1.614710	-0.235900	-0.239655
C117	C	1.720537	-0.175658	-0.199411
C118	C	1.783888	-0.137496	-0.316273
H119	H	1.559846	-0.177880	-0.291877
H120	H	1.640784	-0.308911	-0.293997
H121	H	1.694462	-0.102657	-0.145092
H122	H	1.775431	-0.233655	-0.147205
H123	H	1.809962	-0.210507	-0.370615
H124	H	1.729014	-0.079480	-0.368487
H125	H	1.855704	-0.096629	-0.288984
H126	H	1.372927	-0.378217	-0.208049
H127	H	1.331641	0.343587	0.369406
H128	H	1.764042	0.024385	0.610857
