data_functionalizedCrystal
_audit_creation_method	'MofGen! by Chris Wilmer'
_symmetry_space_group_name_H-M	'P1'
_symmetry_Int_Tables_number	1
_symmetry_cell_setting	triclinic
loop_
_symmetry_equiv_pos_as_xyz
  x,y,z
_cell_length_a	18.215407
_cell_length_b	19.076915
_cell_length_c	18.215399
_cell_angle_alpha	87.671555
_cell_angle_beta	90.019833
_cell_angle_gamma	87.667968
loop_
_atom_site_label
_atom_site_type_symbol
_atom_site_fract_x
_atom_site_fract_y
_atom_site_fract_z
Zn1	Zn	1.113256	0.280216	0.404332
Zn2	Zn	1.108201	0.397924	0.276315
Zn3	Zn	0.990188	0.280239	0.281278
Zn4	Zn	0.985193	0.397885	0.399342
O5	O	1.049209	0.339066	0.340317
O6	O	1.215569	0.295837	0.387361
O7	O	1.092521	0.382339	0.173988
O8	O	1.010719	0.181739	0.301767
O9	O	1.211856	0.382316	0.293308
O10	O	1.101137	0.181722	0.392174
O11	O	1.005817	0.295876	0.177634
O12	O	0.886541	0.295838	0.296928
O13	O	1.002206	0.382250	0.502989
O14	O	0.882871	0.382272	0.383669
O15	O	1.096293	0.295799	0.506655
O16	O	1.087678	0.496415	0.288470
O17	O	0.997304	0.496386	0.378857
C18	C	0.858004	0.339054	0.340296
C19	C	0.776204	0.339065	0.340304
C20	C	1.041420	0.521940	0.332599
C21	C	1.038156	0.600174	0.329323
C22	C	0.586116	0.384142	0.385408
C23	C	0.509257	0.384145	0.385417
C24	C	0.513054	0.294002	0.295241
C25	C	0.589912	0.293997	0.295236
C26	C	0.626441	0.339071	0.340319
C27	C	0.472724	0.339078	0.340332
C28	C	0.389390	0.339080	0.340342
C29	C	0.709780	0.339068	0.340310
C30	C	1.014709	1.040558	0.305844
C31	C	1.017778	0.967049	0.308923
C32	C	1.066356	0.930226	0.357569
C33	C	1.111863	0.966916	0.403145
C34	C	1.108789	1.040424	0.400069
C35	C	1.080589	0.710373	0.371823
C36	C	1.083660	0.636859	0.374893
C37	C	0.989574	0.636997	0.280672
C38	C	0.986508	0.710507	0.277597
C39	C	1.032012	0.747190	0.323176
N40	N	1.069496	0.855087	0.360716
N41	N	1.028868	0.822328	0.320032
C42	C	1.241162	0.339078	0.340338
C43	C	1.322960	0.339084	0.340347
C44	C	1.049256	0.339017	0.532272
C45	C	1.049276	0.338997	0.614072
C46	C	1.057005	1.155478	0.348087
C47	C	1.060213	1.077243	0.351415
C48	C	1.049207	0.339063	0.149111
C49	C	1.049338	0.338886	0.067320
C50	C	1.098286	0.293939	0.804177
C51	C	1.098296	0.293919	0.881037
C52	C	1.000323	0.383945	0.877208
C53	C	1.000310	0.383961	0.800350
C54	C	1.049296	0.338960	0.763837
C55	C	1.049318	0.338923	0.917554
C56	C	1.049328	0.338901	1.000889
C57	C	1.049285	0.338980	0.680497
H58	H	0.476428	0.420845	0.422135
O59	O	0.952643	0.427587	0.912648
C60	C	0.879948	0.412219	0.894491
H61	H	0.878625	0.355993	0.875746
H62	H	0.843340	0.418274	0.944773
H63	H	0.859095	0.449964	0.848276
H64	H	1.138172	0.257294	0.774451
O65	O	0.477453	0.250286	0.251470
C66	C	0.400969	0.259942	0.261155
H67	H	0.388168	0.314292	0.282870
H68	H	0.371942	0.255099	0.206246
H69	H	0.380950	0.218243	0.302180
O70	O	0.952794	0.427799	0.761186
C71	C	0.965874	0.497947	0.777011
H72	H	1.024517	0.501499	0.798002
H73	H	0.958045	0.532728	0.724990
H74	H	0.925639	0.516337	0.820834
H75	H	0.622746	0.257290	0.258519
O76	O	0.621486	0.427943	0.429273
C77	C	0.569408	0.467735	0.469059
H78	H	0.515850	0.438911	0.472873
H79	H	0.591315	0.475308	0.526710
H80	H	0.558950	0.521162	0.439769
O81	O	0.967454	1.076216	0.258569
C82	C	0.927961	1.028070	0.218996
H83	H	0.927591	0.975653	0.251332
H84	H	0.869091	1.049356	0.210206
H85	H	0.955265	1.020269	0.163453
H86	H	0.952526	0.607122	0.243565
O87	O	1.153027	1.076137	0.444233
C88	C	1.198820	1.118638	0.400603
H89	H	1.172435	1.129712	0.344345
H90	H	1.206506	1.170299	0.428433
H91	H	1.254548	1.090273	0.393753
O92	O	0.939371	0.746383	0.230374
C93	C	0.946399	0.819130	0.237449
H94	H	1.002768	0.829112	0.261170
H95	H	0.940250	0.847113	0.181154
H96	H	0.901862	0.839989	0.275743
O97	O	0.973498	0.931384	0.264758
C98	C	0.927727	0.888861	0.308388
H99	H	0.922223	0.910977	0.365421
H100	H	0.871139	0.888094	0.281749
H101	H	0.952804	0.833130	0.313274
H102	H	1.123222	0.606881	0.414509
O103	O	1.145957	0.250166	0.920111
C104	C	1.189174	0.210439	0.871399
H105	H	1.190483	0.239284	0.815394
H106	H	1.247481	0.202929	0.893935
H107	H	1.164505	0.156982	0.865480
H108	H	1.117650	0.740232	0.408927
H109	H	1.151414	0.936931	0.442757
