data_functionalizedCrystal
_audit_creation_method	'MofGen! by Chris Wilmer'
_symmetry_space_group_name_H-M	'P1'
_symmetry_Int_Tables_number	1
_symmetry_cell_setting	triclinic
loop_
_symmetry_equiv_pos_as_xyz
  x,y,z
_cell_length_a	16.959455
_cell_length_b	12.594516
_cell_length_c	16.959455
_cell_angle_alpha	90.004378
_cell_angle_beta	90.005786
_cell_angle_gamma	90.013000
loop_
_atom_site_label
_atom_site_type_symbol
_atom_site_fract_x
_atom_site_fract_y
_atom_site_fract_z
Zn1	Zn	1.208339	-0.424026	0.446937
Zn2	Zn	1.708339	0.075974	0.946937
Zn3	Zn	1.208291	-0.601968	0.314770
Zn4	Zn	1.708291	-0.101968	0.814770
Zn5	Zn	1.076187	-0.423995	0.314774
Zn6	Zn	1.576187	0.076005	0.814774
Zn7	Zn	1.076142	-0.601953	0.446909
Zn8	Zn	1.576142	-0.101953	0.946909
O9	O	1.142240	-0.512986	0.380848
O10	O	1.642240	-0.012986	0.880848
O11	O	1.318944	-0.447650	0.429415
O12	O	1.818944	0.052350	0.929415
O13	O	1.190766	-0.578353	0.204160
O14	O	1.690766	-0.078353	0.704160
O15	O	1.093757	-0.275053	0.332320
O16	O	1.593757	0.224947	0.832320
O17	O	1.318908	-0.578383	0.332312
O18	O	1.818908	-0.078383	0.832312
O19	O	1.190848	-0.275076	0.429419
O20	O	1.690848	0.224924	0.929419
O21	O	1.093710	-0.447597	0.204163
O22	O	1.593710	0.052403	0.704163
O23	O	0.965570	-0.447582	0.332292
O24	O	1.465570	0.052418	0.832292
O25	O	1.093679	-0.578358	0.557523
O26	O	1.593679	-0.078358	1.057523
O27	O	0.965537	-0.578327	0.429371
O28	O	1.465537	-0.078327	0.929371
O29	O	1.190804	-0.447635	0.557544
O30	O	1.690804	0.052365	1.057544
O31	O	1.190721	-0.750912	0.332285
O32	O	1.690721	-0.250912	0.832285
O33	O	1.093632	-0.750901	0.429367
O34	O	1.593632	-0.250901	0.929367
C35	C	0.936873	-0.512951	0.380829
C36	C	1.436873	-0.012951	0.880829
C37	C	0.849017	-0.512961	0.380840
C38	C	1.349017	-0.012961	0.880840
C39	C	1.142188	-0.789527	0.380840
C40	C	1.642188	-0.289527	0.880840
C41	C	1.142238	-0.907832	0.380863
C42	C	1.642238	-0.407832	0.880863
C43	C	0.477534	-0.444851	0.330404
C44	C	0.977534	0.055149	0.830404
C45	C	0.477548	-0.581208	0.431336
C46	C	0.977548	-0.081208	0.931336
C47	C	0.560094	-0.581193	0.431331
C48	C	1.060094	-0.081193	0.931331
C49	C	0.601364	-0.513007	0.380861
C50	C	1.101364	-0.013007	0.880861
C51	C	0.560088	-0.444836	0.330396
C52	C	1.060088	0.055164	0.830396
C53	C	0.601376	-0.649370	0.481790
C54	C	1.101376	-0.149370	0.981790
C55	C	0.683927	-0.649358	0.481786
C56	C	1.183927	-0.149358	0.981786
C57	C	0.725199	-0.581166	0.431320
C58	C	1.225199	-0.081166	0.931320
C59	C	0.683917	-0.512992	0.380853
C60	C	1.183917	-0.012992	0.880853
C61	C	0.725187	-0.444805	0.330383
C62	C	1.225187	0.055195	0.830383
C63	C	0.683908	-0.376625	0.279920
C64	C	1.183908	0.123375	0.779920
C65	C	0.601359	-0.376643	0.279930
C66	C	1.101359	0.123357	0.779930
C67	C	0.807747	-0.581147	0.431310
C68	C	1.307747	-0.081147	0.931310
C69	C	0.807741	-0.444790	0.330375
C70	C	1.307741	0.055210	0.830375
C71	C	1.089426	-0.977118	0.433629
C72	C	1.589426	-0.477118	0.933629
C73	C	1.070185	-1.047945	0.361503
C74	C	1.570185	-0.547945	0.861503
C75	C	1.161551	-1.047804	0.453001
C76	C	1.661551	-0.547804	0.953001
C77	C	1.122959	-0.977101	0.308699
C78	C	1.622959	-0.477101	0.808699
C79	C	1.214359	-0.976954	0.400246
C80	C	1.714359	-0.476954	0.900246
C81	C	1.195145	-1.047749	0.328070
C82	C	1.695145	-0.547749	0.828070
C83	C	1.348408	-0.513022	0.380866
C84	C	1.848408	-0.013022	0.880866
C85	C	1.436265	-0.513037	0.380874
C86	C	1.936265	-0.013037	0.880874
C87	C	1.142242	-0.512998	0.587016
C88	C	1.642242	-0.012998	1.087016
C89	C	1.142243	-0.513004	0.674872
C90	C	1.642243	-0.013004	1.174872
C91	C	1.142313	-0.235365	0.380873
C92	C	1.642313	0.264635	0.880873
C93	C	1.142345	-0.117059	0.380883
C94	C	1.642345	0.382941	0.880883
C95	C	1.091676	-0.581068	0.716137
C96	C	1.591676	-0.081068	1.216137
C97	C	1.192806	-0.444937	0.716161
C98	C	1.692806	0.055063	1.216161
C99	C	1.192806	-0.444936	0.798707
C100	C	1.692806	0.055064	1.298707
C101	C	1.142239	-0.513000	0.839972
C102	C	1.642239	-0.013000	1.339972
C103	C	1.091672	-0.581067	0.798691
C104	C	1.591672	-0.081067	1.298691
C105	C	1.243366	-0.376863	0.839994
C106	C	1.743366	0.123137	1.339994
C107	C	1.243367	-0.376858	0.922545
C108	C	1.743367	0.123142	1.422545
C109	C	1.192803	-0.444929	0.963812
C110	C	1.692803	0.055071	1.463812
C111	C	1.142235	-0.512999	0.922525
C112	C	1.642235	-0.012999	1.422525
C113	C	1.091668	-0.581064	0.963790
C114	C	1.591668	-0.081064	1.463790
C115	C	1.041103	-0.649140	0.922505
C116	C	1.541103	-0.149140	1.422505
C117	C	1.041108	-0.649138	0.839957
C118	C	1.541108	-0.149138	1.339957
C119	C	1.192798	-0.444931	1.046360
C120	C	1.692798	0.055069	1.546360
C121	C	1.091664	-0.581062	1.046344
C122	C	1.591664	-0.081062	1.546344
C123	C	1.142232	-0.512998	1.175481
C124	C	1.642232	-0.012998	1.675481
C125	C	1.142231	-0.512996	1.087625
C126	C	1.642231	-0.012996	1.587625
H127	H	0.717520	-0.321112	0.238824
H128	H	1.217520	0.178888	0.738824
H129	H	0.567768	-0.704891	0.522874
H130	H	1.067768	-0.204891	1.022874
O131	O	0.728443	-0.722882	0.536222
O132	O	1.228443	-0.222882	1.036222
H133	H	0.792778	-0.711419	0.527739
H134	H	1.292778	-0.211419	1.027739
H135	H	1.177843	-1.078860	0.513999
H136	H	1.677843	-0.578860	1.013999
H137	H	0.567742	-0.321136	0.238845
H138	H	1.067742	0.178864	0.738845
H139	H	1.050509	-0.636497	0.682520
H140	H	1.550509	-0.136497	1.182520
H141	H	0.999941	-0.704561	0.806336
H142	H	1.499941	-0.204561	1.306336
O143	O	0.433050	-0.654761	0.485768
O144	O	0.933050	-0.154761	0.985768
H145	H	0.395453	-0.607224	0.526053
H146	H	0.895453	-0.107224	1.026053
O147	O	1.037119	-0.654470	1.090851
O148	O	1.537119	-0.154470	1.590851
H149	H	1.001958	-0.701796	1.048273
H150	H	1.501958	-0.201796	1.548273
H151	H	1.284541	-0.321428	0.956152
H152	H	1.784541	0.178572	1.456152
H153	H	1.233972	-0.389517	0.682558
H154	H	1.733972	0.110483	1.182558
O155	O	1.295064	-0.935616	0.421985
O156	O	1.795064	-0.435616	0.921985
H157	H	1.318669	-0.887137	0.372691
H158	H	1.818669	-0.387137	0.872691
O159	O	0.986558	-0.722541	0.967019
O160	O	1.486558	-0.222541	1.467019
H161	H	1.000089	-0.806083	0.951180
H162	H	1.500089	-0.306083	1.451180
H163	H	1.284532	-0.321445	0.806390
H164	H	1.784532	0.178555	1.306390
H165	H	1.239852	-1.078567	0.283406
H166	H	1.739852	-0.578567	0.783406
O167	O	1.030168	-0.936024	0.492651
O168	O	1.530168	-0.436024	0.992651
H169	H	1.031044	-0.847903	0.492513
H170	H	1.531044	-0.347903	0.992513
H171	H	1.233961	-0.389496	1.079970
H172	H	1.733961	0.110504	1.579970
H173	H	0.841353	-0.636662	0.472394
H174	H	1.341353	-0.136662	0.972394
H175	H	0.443921	-0.389337	0.289321
H176	H	0.943921	0.110663	0.789321
H177	H	0.841337	-0.389258	0.289281
H178	H	1.341337	0.110742	0.789281
O179	O	0.989461	-1.089253	0.339783
O180	O	1.489461	-0.589253	0.839783
H181	H	0.945681	-1.060973	0.383657
H182	H	1.445681	-0.560973	0.883657
H183	H	1.106596	-0.946173	0.247685
H184	H	1.606596	-0.446173	0.747685
