data_functionalizedCrystal
_audit_creation_method	'MofGen! by Chris Wilmer'
_symmetry_space_group_name_H-M	'P1'
_symmetry_Int_Tables_number	1
_symmetry_cell_setting	triclinic
loop_
_symmetry_equiv_pos_as_xyz
  x,y,z
_cell_length_a	13.897448
_cell_length_b	12.759395
_cell_length_c	12.759387
_cell_angle_alpha	90.018981
_cell_angle_beta	89.966131
_cell_angle_gamma	89.984831
loop_
_atom_site_label
_atom_site_type_symbol
_atom_site_fract_x
_atom_site_fract_y
_atom_site_fract_z
Zn1	Zn	-0.384018	-1.606229	-0.593996
Zn2	Zn	-0.545349	-1.606116	-0.418310
Zn3	Zn	-0.384062	-1.430533	-0.418332
Zn4	Zn	-0.545266	-1.430511	-0.593949
O5	O	-0.464674	-1.518347	-0.506147
O6	O	-0.405435	-1.753235	-0.570701
O7	O	-0.524007	-1.582786	-0.271292
O8	O	-0.249075	-1.453896	-0.441663
O9	O	-0.523964	-1.753152	-0.441626
O10	O	-0.249042	-1.582979	-0.570722
O11	O	-0.405511	-1.453786	-0.271308
O12	O	-0.405430	-1.283509	-0.441618
O13	O	-0.523822	-1.453858	-0.740976
O14	O	-0.523865	-1.283492	-0.570642
O15	O	-0.405354	-1.582958	-0.741011
O16	O	-0.680319	-1.582765	-0.441580
O17	O	-0.680258	-1.453748	-0.570621
C18	C	-0.464644	-1.245380	-0.506128
C19	C	-0.464655	-1.128603	-0.506145
C20	C	-0.341430	-1.128670	-0.640768
C21	C	-0.279827	-1.073843	-0.708087
C22	C	-0.279840	-0.964122	-0.708098
C23	C	-0.341460	-0.909225	-0.640780
C24	C	-0.403063	-0.964052	-0.573461
C25	C	-0.403046	-1.073776	-0.573460
C26	C	-0.526282	-0.963984	-0.438834
C27	C	-0.526275	-1.073706	-0.438827
C28	C	-0.587902	-0.909087	-0.371516
C29	C	-0.649511	-0.963914	-0.304201
C30	C	-0.649497	-1.073643	-0.304194
C31	C	-0.587878	-1.128533	-0.371508
C32	C	-0.715288	-1.518270	-0.506116
C33	C	-0.822502	-1.518334	-0.506138
C34	C	-1.018797	-1.518444	-0.506204
C35	C	-0.909565	-1.518380	-0.506171
C36	C	-0.213081	-1.518453	-0.506200
C37	C	-0.105867	-1.518498	-0.506223
C38	C	-0.464574	-1.518418	-0.780180
C39	C	-0.464532	-1.518449	-0.896957
C40	C	-0.464694	-0.792380	-0.506161
C41	C	-0.464679	-0.909157	-0.506153
C42	C	-0.341133	-1.384130	-0.896993
C43	C	-0.279414	-1.316989	-0.951871
C44	C	-0.279380	-1.317021	-1.061593
C45	C	-0.341072	-1.384198	-1.116439
C46	C	-0.402790	-1.451338	-1.061560
C47	C	-0.402817	-1.451301	-0.951836
C48	C	-0.526193	-1.585650	-1.061524
C49	C	-0.526224	-1.585626	-0.951803
C50	C	-0.587885	-1.652827	-1.116370
C51	C	-0.649600	-1.719974	-1.061491
C52	C	-0.649632	-1.719941	-0.951763
C53	C	-0.587943	-1.652766	-0.896924
C54	C	-0.464703	-1.518337	-0.233179
C55	C	-0.464474	-1.518510	-0.116403
H56	H	-0.229672	-0.919482	-0.762908
N57	N	-0.341427	-1.240748	-0.640743
N58	N	-0.396431	-1.289687	-0.580631
H59	H	-0.396429	-1.368843	-0.580613
H60	H	-0.699829	-1.774660	-1.106155
H61	H	-0.587855	-1.217874	-0.371504
N62	N	-0.341170	-1.384085	-0.784915
N63	N	-0.416417	-1.362064	-0.735910
H64	H	-0.416441	-1.362030	-0.656753
H65	H	-0.229188	-1.262293	-0.907204
N66	N	-0.587950	-1.652731	-0.784847
N67	N	-0.532861	-1.592754	-0.735896
H68	H	-0.532862	-1.592726	-0.656739
H69	H	-0.699888	-1.774618	-0.907087
H70	H	-0.229655	-1.118552	-0.762894
N71	N	-0.341449	-0.797147	-0.640789
N72	N	-0.286434	-0.748208	-0.700891
H73	H	-0.286425	-0.669051	-0.700896
N74	N	-0.587903	-0.797010	-0.371510
N75	N	-0.512642	-0.748036	-0.349705
H76	H	-0.512645	-0.668880	-0.349699
N77	N	-0.341026	-1.384379	-1.228516
N78	N	-0.416232	-1.362499	-1.277547
H79	H	-0.416190	-1.362685	-1.356703
N80	N	-0.216324	-1.248441	-1.117639
N81	N	-0.127322	-1.255453	-1.105411
H82	H	-0.082787	-1.207019	-1.144993
H83	H	-0.699674	-0.919209	-0.249392
N84	N	-0.712421	-1.129627	-0.235411
N85	N	-0.767424	-1.080595	-0.175313
H86	H	-0.811865	-1.120130	-0.126731
N87	N	-0.587732	-1.653019	-1.228447
N88	N	-0.642729	-1.713094	-1.277400
H89	H	-0.642575	-1.713287	-1.356556
