data_functionalizedCrystal
_audit_creation_method	'MofGen! by Chris Wilmer'
_symmetry_space_group_name_H-M	'P1'
_symmetry_Int_Tables_number	1
_symmetry_cell_setting	triclinic
loop_
_symmetry_equiv_pos_as_xyz
  x,y,z
_cell_length_a	15.944499
_cell_length_b	15.944551
_cell_length_c	15.021413
_cell_angle_alpha	90.001324
_cell_angle_beta	89.990232
_cell_angle_gamma	83.488174
loop_
_atom_site_label
_atom_site_type_symbol
_atom_site_fract_x
_atom_site_fract_y
_atom_site_fract_z
O1	O	1.114556	0.108116	-0.074087
O2	O	0.870000	0.121518	-0.074078
O3	O	0.998956	-0.007459	-0.074075
O4	O	0.985599	0.237093	-0.074090
O5	O	0.998936	-0.007445	0.073989
O6	O	0.869980	0.121532	0.073987
O7	O	1.114536	0.108130	0.073977
Zn8	Zn	0.992255	0.114833	0.097490
Zn9	Zn	0.992281	0.114815	-0.097591
O10	O	0.985580	0.237107	0.073974
C11	C	0.838695	0.120976	-0.000044
C12	C	0.745447	0.119331	-0.000040
C13	C	0.453911	0.194263	-0.000058
C14	C	0.514950	0.155305	-0.073061
C15	C	0.409810	0.113355	-0.000060
C16	C	0.514916	0.155297	0.072919
C17	C	0.574719	0.116296	-0.000049
C18	C	0.469621	0.074374	-0.073123
C19	C	0.469581	0.074377	0.072922
C20	C	0.530603	0.035360	-0.000098
C21	C	0.314810	0.111663	-0.000068
C22	C	0.669718	0.117981	-0.000048
C23	C	0.998392	-0.038746	-0.000042
C24	C	0.996729	-0.131992	-0.000042
C25	C	0.912823	-0.346833	-0.000051
C26	C	0.951777	-0.407850	0.072952
C27	C	0.993722	-0.302717	-0.000049
C28	C	0.951815	-0.407848	-0.073027
C29	C	0.990811	-0.467629	-0.000059
C30	C	1.032698	-0.362506	0.073015
C31	C	1.032725	-0.362497	-0.073031
C32	C	1.071737	-0.423497	-0.000010
C33	C	0.995397	-0.207715	-0.000042
C34	C	0.989143	-0.562630	-0.000059
C35	C	1.145840	0.108672	-0.000058
C36	C	1.239089	0.110317	-0.000068
C37	C	0.986144	0.268394	-0.000060
C38	C	0.987806	0.361640	-0.000067
N39	N	0.992243	0.114845	0.230628
N40	N	0.992299	0.114796	-0.230728
C41	C	0.933108	0.174950	0.529641
C42	C	0.916111	0.099284	0.470288
C43	C	0.992280	0.114811	0.587665
C44	C	1.009219	0.190492	0.470276
C45	C	0.992260	0.114832	0.412241
C46	C	0.975245	0.039107	0.529618
C47	C	1.068387	0.130364	0.529611
C48	C	1.051422	0.054643	0.470285
C49	C	0.992290	0.114800	0.688722
C50	C	0.992251	0.114834	0.311185
H51	H	0.535056	0.189523	-0.134779
H52	H	0.563780	-0.031846	-0.000133
N53	N	1.114200	-0.009198	0.437788
N54	N	1.190010	-0.007205	0.457929
H55	H	1.234345	-0.052293	0.434976
H56	H	0.960834	-0.024900	0.555575
N57	N	1.075641	-0.337258	-0.150451
N58	N	1.150757	-0.365998	-0.164186
H59	H	1.181063	-0.348173	-0.218871
N60	N	0.444564	0.031468	-0.150626
N61	N	0.368420	0.023281	-0.163152
H62	H	0.350720	-0.007020	-0.217888
H63	H	0.449456	0.040190	0.134646
N64	N	0.908885	-0.433063	-0.150442
N65	N	0.844552	-0.470511	-0.142327
H66	H	0.814227	-0.488318	-0.196997
N67	N	1.149114	0.146899	0.562320
N68	N	1.177241	0.214739	0.543339
H69	H	1.234255	0.226427	0.566441
N70	N	1.075583	-0.337452	0.150529
N71	N	1.150871	-0.365778	0.163900
H72	H	1.181157	-0.348083	0.218645
N73	N	0.908856	-0.433084	0.150379
N74	N	0.946833	-0.482899	0.205025
H75	H	0.916517	-0.500719	0.259705
N76	N	1.027196	0.270773	0.437578
N77	N	0.979367	0.335916	0.456612
H78	H	0.992056	0.392618	0.433522
H79	H	0.420581	0.261409	-0.000133
N80	N	0.835367	0.082791	0.437574
N81	N	0.822637	0.079544	0.355605
H82	H	0.765609	0.067901	0.332502
N83	N	0.540088	0.198258	0.150335
N84	N	0.512284	0.273753	0.163320
H85	H	0.530058	0.304101	0.217992
N86	N	0.870318	0.238668	0.562360
N87	N	0.891397	0.297070	0.609963
H88	H	0.847052	0.342068	0.633074
N89	N	0.828582	-0.305040	0.000046
N90	N	0.779614	-0.316882	0.062636
H91	H	0.720120	-0.287366	0.062709
H92	H	1.138946	-0.456668	0.000029
