data_functionalizedCrystal
_audit_creation_method	'MofGen! by Chris Wilmer'
_symmetry_space_group_name_H-M	'P1'
_symmetry_Int_Tables_number	1
_symmetry_cell_setting	triclinic
loop_
_symmetry_equiv_pos_as_xyz
  x,y,z
_cell_length_a	19.188930
_cell_length_b	12.837942
_cell_length_c	11.295483
_cell_angle_alpha	94.531847
_cell_angle_beta	85.918153
_cell_angle_gamma	88.986860
loop_
_atom_site_label
_atom_site_type_symbol
_atom_site_fract_x
_atom_site_fract_y
_atom_site_fract_z
O1	O	0.930752	0.136396	0.099410
O2	O	0.728638	0.153807	0.099329
O3	O	0.825214	-0.005782	0.099360
O4	O	0.834176	0.295985	0.099378
O5	O	0.833705	-0.019767	-0.098688
O6	O	0.737130	0.139822	-0.098719
O7	O	0.939243	0.122411	-0.098638
Cu8	Cu	0.838962	0.129839	-0.116762
Cu9	Cu	0.828920	0.146378	0.117453
O10	O	0.842668	0.281999	-0.098670
C11	C	0.706835	0.146249	0.000294
C12	C	0.629216	0.144554	0.000263
C13	C	0.826431	-0.051381	0.000336
C14	C	0.817401	-0.166417	0.000334
C15	C	0.925965	-0.407863	0.000402
C16	C	0.917484	-0.515951	0.000401
C17	C	0.791955	-0.490681	0.000338
C18	C	0.800437	-0.382594	0.000340
C19	C	0.867444	-0.341189	0.000370
C20	C	0.875926	-0.233100	0.000363
C21	C	0.750398	-0.207832	0.000309
C22	C	0.741916	-0.315920	0.000307
C23	C	0.590713	0.238199	0.000287
C24	C	0.517780	0.236609	0.000300
C25	C	0.483351	0.141371	0.000313
C26	C	0.521862	0.047714	0.000282
C27	C	0.594795	0.049306	0.000257
N28	N	0.367485	0.073336	0.067761
N29	N	0.298202	0.071831	0.067787
C30	C	0.263609	0.136570	0.000385
N31	N	0.300916	0.202888	-0.067029
N32	N	0.370205	0.204397	-0.067050
C33	C	0.404268	0.139635	0.000339
C34	C	0.146024	0.228497	0.000422
C35	C	0.073090	0.226903	0.000428
C36	C	0.077173	0.038006	0.000421
C37	C	0.150106	0.039602	0.000403
C38	C	0.184527	0.134851	0.000410
C39	C	0.961047	0.129968	0.000399
C40	C	1.038665	0.131664	0.000438
C41	C	0.841450	0.327599	0.000358
C42	C	0.850480	0.442636	0.000367
N43	N	0.821857	0.158004	0.282187
N44	N	0.846030	0.118206	-0.281496
C45	C	0.896911	0.034519	0.531501
C46	C	0.891569	0.043297	0.656163
C47	C	0.805832	0.184343	0.656175
C48	C	0.811175	0.175565	0.531513
C49	C	0.856715	0.100649	0.469180
C50	C	0.862054	0.091866	0.344516
C51	C	0.776322	0.232917	0.344530
C52	C	0.770979	0.241695	0.469192
H53	H	0.980526	-0.374152	0.000415
C54	C	0.985134	-0.659361	-0.101370
C55	C	0.981810	-0.589244	0.000435
H56	H	1.024846	-0.704613	-0.101340
H57	H	0.988801	-0.621551	-0.170422
H58	H	0.944011	-0.699486	-0.101377
H59	H	1.022930	-0.549113	0.000438
H60	H	0.978148	-0.627058	0.069504
C61	C	0.429046	0.351569	0.102160
C62	C	0.475443	0.339547	0.000335
H63	H	0.402908	0.415115	0.102177
H64	H	0.454642	0.353142	0.171198
H65	H	0.398113	0.294608	0.102149
H66	H	0.506379	0.396504	0.000350
H67	H	0.449845	0.337983	-0.068721
H68	H	0.924301	-0.010552	0.706901
C69	C	0.579346	0.424753	0.000292
C70	C	0.628549	0.342893	0.000274
H71	H	0.602708	0.489385	0.000274
H72	H	0.548046	0.425081	0.069364
H73	H	0.553925	0.415315	-0.068764
H74	H	0.653967	0.352327	0.069335
H75	H	0.659862	0.342566	-0.068805
C76	C	0.774904	0.366528	0.694623
C77	C	0.755784	0.266689	0.724712
H78	H	0.744008	0.417364	0.736944
H79	H	0.772321	0.370764	0.611473
H80	H	0.821348	0.379171	0.715066
H81	H	0.709342	0.254043	0.704261
H82	H	0.758360	0.262451	0.807881
H83	H	0.733903	0.302693	0.519958
C84	C	0.411872	-0.038595	0.000338
C85	C	0.484020	-0.056973	0.000302
H86	H	0.388512	-0.103228	0.000355
H87	H	0.402027	-0.004935	-0.068715
H88	H	0.396148	0.004829	0.069413
H89	H	0.499745	-0.100391	-0.068778
H90	H	0.493870	-0.090649	0.069362
H91	H	0.702746	-0.153535	0.000273
H92	H	0.743590	0.286762	0.293775
C93	C	0.981108	-0.104037	0.544005
C94	C	0.946959	-0.047837	0.462976
H95	H	1.012006	-0.154878	0.501699
H96	H	0.947538	-0.137865	0.592607
H97	H	1.006949	-0.057480	0.592649
H98	H	0.921113	-0.094393	0.414338
H99	H	0.980533	-0.014007	0.414354
H100	H	0.930487	-0.199391	0.000383
H101	H	0.181455	-0.036653	0.000390
H102	H	0.687360	-0.349647	0.000287
H103	H	0.041743	0.303162	0.000441
C104	C	0.677989	-0.495243	0.102117
C105	C	0.718306	-0.536213	0.000322
H106	H	0.632523	-0.523360	0.102111
H107	H	0.674658	-0.421339	0.102096
H108	H	0.699439	-0.513262	0.171183
H109	H	0.696858	-0.518187	-0.068744
H110	H	0.721634	-0.610133	0.000333
C111	C	0.616388	-0.104014	0.102056
C112	C	0.637122	-0.053634	0.000243
H113	H	0.642524	-0.167561	0.102052
H114	H	0.568033	-0.118593	0.102057
H115	H	0.624559	-0.060057	0.171110
H116	H	0.628946	-0.097587	-0.068811
H117	H	0.685489	-0.039058	0.000232
C118	C	0.134666	0.415051	0.000417
C119	C	0.183866	0.333190	0.000410
H120	H	0.158029	0.479682	0.000402
H121	H	0.103361	0.415382	0.069484
H122	H	0.109249	0.405613	-0.068644
H123	H	0.209280	0.342624	0.069476
H124	H	0.215183	0.332860	-0.068664
H125	H	0.049138	-0.039533	0.000505
H126	H	0.899133	0.030864	0.293766
