data_functionalizedCrystal
_audit_creation_method	'MofGen! by Chris Wilmer'
_symmetry_space_group_name_H-M	'P1'
_symmetry_Int_Tables_number	1
_symmetry_cell_setting	triclinic
loop_
_symmetry_equiv_pos_as_xyz
  x,y,z
_cell_length_a	18.050589
_cell_length_b	17.077404
_cell_length_c	17.077395
_cell_angle_alpha	89.985498
_cell_angle_beta	89.976617
_cell_angle_gamma	90.026191
loop_
_atom_site_label
_atom_site_type_symbol
_atom_site_fract_x
_atom_site_fract_y
_atom_site_fract_z
Zn1	Zn	-0.295709	1.199996	-0.443840
Zn2	Zn	0.037624	1.533329	-0.110506
Zn3	Zn	0.370958	1.866662	0.222827
Zn4	Zn	-0.419903	1.199899	-0.312583
Zn5	Zn	-0.086570	1.533233	0.020751
Zn6	Zn	0.246763	1.866566	0.354084
Zn7	Zn	-0.295727	1.068736	-0.312590
Zn8	Zn	0.037606	1.402070	0.020743
Zn9	Zn	0.370939	1.735403	0.354076
Zn10	Zn	-0.419857	1.068683	-0.443809
Zn11	Zn	-0.086524	1.402017	-0.110475
Zn12	Zn	0.246809	1.735350	0.222858
O13	O	-0.357799	1.134329	-0.378205
O14	O	-0.024466	1.467662	-0.044872
O15	O	0.308867	1.800995	0.288461
O16	O	-0.312195	1.309830	-0.426438
O17	O	0.021138	1.643163	-0.093105
O18	O	0.354471	1.976496	0.240229
O19	O	-0.403458	1.182482	-0.202737
O20	O	-0.070125	1.515816	0.130597
O21	O	0.263208	1.849149	0.463930
O22	O	-0.191800	1.086211	-0.330017
O23	O	0.141533	1.419544	0.003316
O24	O	0.474866	1.752877	0.336650
O25	O	-0.403440	1.309759	-0.330004
O26	O	-0.070107	1.643092	0.003330
O27	O	0.263226	1.976426	0.336663
O28	O	-0.191787	1.182646	-0.426445
O29	O	0.141547	1.515980	-0.093112
O30	O	0.474880	1.849313	0.240221
O31	O	-0.312227	1.086117	-0.202742
O32	O	0.021107	1.419451	0.130591
O33	O	0.354440	1.752784	0.463924
O34	O	-0.312182	0.958882	-0.329987
O35	O	0.021152	1.292216	0.003346
O36	O	0.354485	1.625549	0.336680
O37	O	-0.403362	1.086120	-0.553660
O38	O	-0.070028	1.419453	-0.220327
O39	O	0.263305	1.752787	0.113007
O40	O	-0.403379	0.958843	-0.426393
O41	O	-0.070046	1.292177	-0.093059
O42	O	0.263287	1.625510	0.240274
O43	O	-0.312150	1.182595	-0.553683
O44	O	0.021183	1.515928	-0.220349
O45	O	0.354516	1.849261	0.112984
O46	O	-0.523822	1.182431	-0.329974
O47	O	-0.190489	1.515764	0.003360
O48	O	0.142845	1.849097	0.336693
O49	O	-0.523788	1.086027	-0.426385
O50	O	-0.190455	1.419360	-0.093052
O51	O	0.142879	1.752693	0.240282
C52	C	-0.357778	0.930381	-0.378188
C53	C	-0.024445	1.263714	-0.044854
C54	C	0.308888	1.597047	0.288479
C55	C	-0.357787	0.843131	-0.378199
C56	C	-0.024454	1.176464	-0.044865
C57	C	0.308880	1.509798	0.288468
C58	C	-0.310360	0.802178	-0.428489
C59	C	0.022973	1.135512	-0.095155
C60	C	0.356306	1.468845	0.238178
C61	C	-0.310365	0.720198	-0.428492
C62	C	0.022968	1.053531	-0.095159
C63	C	0.356302	1.386865	0.238174
C64	C	-0.357801	0.679172	-0.378209
C65	C	-0.024468	1.012505	-0.044876
C66	C	0.308866	1.345838	0.288457
C67	C	-0.405230	0.720130	-0.327914
C68	C	-0.071897	1.053463	0.005419
C69	C	0.261437	1.386797	0.338753
C70	C	-0.405221	0.802109	-0.327907
C71	C	-0.071887	1.135442	0.005426
C72	C	0.261446	1.468775	0.338760
C73	C	-0.405247	0.549260	-0.327933
C74	C	-0.071913	0.882593	0.005400
C75	C	0.261420	1.215926	0.338733
C76	C	-0.405257	0.467275	-0.327941
C77	C	-0.071924	0.800609	0.005392
C78	C	0.261410	1.133942	0.338725
C79	C	-0.310391	0.467349	-0.428519
C80	C	0.022942	0.800682	-0.095185
C81	C	0.356276	1.134016	0.238148
C82	C	-0.310382	0.549328	-0.428512
C83	C	0.022952	0.882661	-0.095179
C84	C	0.356285	1.215995	0.238155
C85	C	-0.357812	0.590281	-0.378217
C86	C	-0.024479	0.923614	-0.044884
C87	C	0.308855	1.256947	0.288449
C88	C	-0.550751	1.134234	-0.378192
C89	C	-0.217418	1.467567	-0.044859
C90	C	0.115915	1.800900	0.288474
C91	C	-0.633297	1.134265	-0.378213
C92	C	-0.299964	1.467598	-0.044880
C93	C	0.033370	1.800932	0.288454
C94	C	-0.832756	1.081892	-0.430623
C95	C	-0.499423	1.415226	-0.097290
C96	C	-0.166090	1.748559	0.236044
C97	C	-0.882196	1.062762	-0.358994
C98	C	-0.548862	1.396095	-0.025661
C99	C	-0.215529	1.729429	0.307672
C100	C	-0.784427	1.134342	-0.378223
C101	C	-0.451094	1.467676	-0.044890
C102	C	-0.117761	1.801009	0.288443
C103	C	-0.882070	1.153511	-0.449860
C104	C	-0.548736	1.486844	-0.116527
C105	C	-0.215403	1.820178	0.216806
C106	C	-0.930413	1.134415	-0.378239
C107	C	-0.597079	1.467749	-0.044906
C108	C	-0.263746	1.801082	0.288427
C109	C	-0.832780	1.115174	-0.306557
C110	C	-0.499446	1.448508	0.026777
C111	C	-0.166113	1.781841	0.360110
C112	C	-0.832649	1.205957	-0.397471
C113	C	-0.499316	1.539290	-0.064137
C114	C	-0.165983	1.872623	0.269196
C115	C	-0.882066	1.186854	-0.325793
C116	C	-0.548733	1.520187	0.007541
C117	C	-0.215400	1.853520	0.340874
C118	C	-0.700329	1.134298	-0.378215
C119	C	-0.366996	1.467631	-0.044882
C120	C	-0.033663	1.800965	0.288452
C121	C	-1.014509	1.134459	-0.378240
C122	C	-0.681176	1.467793	-0.044906
C123	C	-0.347842	1.801126	0.288427
C124	C	-0.164094	1.134445	-0.378236
C125	C	0.169240	1.467778	-0.044902
C126	C	0.502573	1.801112	0.288431
C127	C	-0.081548	1.134495	-0.378249
C128	C	0.251786	1.467828	-0.044915
C129	C	0.585119	1.801161	0.288418
C130	C	-0.357749	1.134362	-0.582950
C131	C	-0.024415	1.467696	-0.249616
C132	C	0.308918	1.801029	0.083717
C133	C	-0.357727	1.134377	-0.670200
C134	C	-0.024394	1.467710	-0.336866
C135	C	0.308939	1.801043	-0.003533
C136	C	-0.357821	1.339073	-0.378223
C137	C	-0.024488	1.672406	-0.044890
C138	C	0.308846	2.005739	0.288443
C139	C	-0.357830	1.426323	-0.378231
C140	C	-0.024497	1.759656	-0.044898
C141	C	0.308837	2.092989	0.288435
C142	C	-0.310133	1.184698	-1.046027
C143	C	0.023201	1.518031	-0.712694
C144	C	0.356534	1.851365	-0.379361
C145	C	-0.310159	1.184682	-0.964047
C146	C	0.023174	1.518015	-0.630713
C147	C	0.356508	1.851349	-0.297380
C148	C	-0.357657	1.134441	-0.923049
C149	C	-0.024324	1.467775	-0.589715
C150	C	0.309010	1.801108	-0.256382
C151	C	-0.405138	1.084219	-0.964035
C152	C	-0.071804	1.417552	-0.630702
C153	C	0.261529	1.750886	-0.297369
C154	C	-0.405115	1.084240	-1.046014
C155	C	-0.071781	1.417573	-0.712681
C156	C	0.261552	1.750906	-0.379348
C157	C	-0.405181	1.084178	-0.793165
C158	C	-0.071847	1.417512	-0.459832
C159	C	0.261486	1.750845	-0.126498
C160	C	-0.405203	1.084157	-0.711180
C161	C	-0.071869	1.417490	-0.377847
C162	C	0.261464	1.750823	-0.044514
C163	C	-0.310225	1.184621	-0.711198
C164	C	0.023109	1.517954	-0.377864
C165	C	0.356442	1.851288	-0.044531
C166	C	-0.310202	1.184641	-0.793177
C167	C	0.023132	1.517975	-0.459843
C168	C	0.356465	1.851308	-0.126510
C169	C	-0.357682	1.134418	-0.834158
C170	C	-0.024348	1.467751	-0.500824
C171	C	0.308985	1.801084	-0.167491
C172	C	-0.357796	1.134340	-0.174258
C173	C	-0.024463	1.467674	0.159076
C174	C	0.308871	1.801007	0.492409
C175	C	-0.357608	1.134478	-0.087008
C176	C	-0.024275	1.467811	0.246325
C177	C	0.309058	1.801145	0.579659
H178	H	-0.271760	0.582729	-0.469461
H179	H	0.061574	0.916063	-0.136128
H180	H	0.394907	1.249396	0.197206
H181	H	-0.443863	1.043228	-0.677802
H182	H	-0.110529	1.376561	-0.344469
H183	H	0.222804	1.709895	-0.011135
H184	H	-0.271770	0.434001	-0.469469
H185	H	0.061563	0.767335	-0.136136
H186	H	0.394897	1.100668	0.197198
H187	H	-0.903721	1.169695	-0.510436
H188	H	-0.570388	1.503028	-0.177103
H189	H	-0.237054	1.836362	0.156230
N190	N	-0.456377	0.846277	-0.273664
N191	N	-0.123044	1.179610	0.059669
N192	N	0.210290	1.512944	0.393002
H193	H	-0.490828	0.880291	-0.305497
H194	H	-0.157495	1.213625	0.027836
H195	H	0.175839	1.546958	0.361170
H196	H	-0.426093	0.880241	-0.237349
H197	H	-0.092760	1.213574	0.095984
H198	H	0.240574	1.546907	0.429318
N199	N	-0.456393	1.030013	-0.837369
N200	N	-0.123060	1.363347	-0.504035
N201	N	0.210274	1.696680	-0.170702
H202	H	-0.486485	0.998181	-0.798958
H203	H	-0.153152	1.331514	-0.465625
H204	H	0.180181	1.664847	-0.132292
H205	H	-0.426147	0.993716	-0.871386
H206	H	-0.092814	1.327049	-0.538053
H207	H	0.240520	1.660383	-0.204719
H208	H	-0.811104	1.037472	-0.474873
H209	H	-0.477771	1.370805	-0.141540
H210	H	-0.144437	1.704138	0.191793
N211	N	-0.456363	1.030025	-0.919817
N212	N	-0.123030	1.363359	-0.586484
N213	N	0.210304	1.696692	-0.253151
H214	H	-0.486436	0.998214	-0.958221
H215	H	-0.153102	1.331548	-0.624887
H216	H	0.180231	1.664881	-0.291554
H217	H	-0.490745	1.061944	-0.885797
H218	H	-0.157412	1.395278	-0.552464
H219	H	0.175921	1.728611	-0.219130
H220	H	-0.271563	1.225513	-0.677827
H221	H	0.061770	1.558847	-0.344494
H222	H	0.395103	1.892180	-0.011160
N223	N	-0.911015	0.982580	-0.337431
N224	N	-0.577682	1.315914	-0.004098
N225	N	-0.244349	1.649247	0.329235
H226	H	-0.942593	0.961625	-0.381518
H227	H	-0.609259	1.294958	-0.048185
H228	H	-0.275926	1.628291	0.285148
H229	H	-0.941788	0.986433	-0.288178
H230	H	-0.608454	1.319767	0.045155
H231	H	-0.275121	1.653100	0.378488
H232	H	-0.811218	1.098920	-0.245964
H233	H	-0.477885	1.432254	0.087369
H234	H	-0.144551	1.765587	0.420703
H235	H	-0.810872	1.266471	-0.413770
H236	H	-0.477539	1.599804	-0.080437
H237	H	-0.144205	1.933137	0.252897
H238	H	-0.903581	1.231240	-0.281435
H239	H	-0.570248	1.564574	0.051898
H240	H	-0.236915	1.897907	0.385231
H241	H	-0.443850	0.686720	-0.286969
H242	H	-0.110516	1.020053	0.046364
H243	H	0.222817	1.353386	0.379698
N244	N	-0.259202	0.846423	-0.482731
N245	N	0.074131	1.179756	-0.149398
N246	N	0.407465	1.513089	0.183935
H247	H	-0.266396	0.904571	-0.475102
H248	H	0.066938	1.237904	-0.141769
H249	H	0.400271	1.571237	0.191564
H250	H	-0.270841	0.832100	-0.538769
H251	H	0.062493	1.165434	-0.205436
H252	H	0.395826	1.498767	0.127897
H253	H	-0.271449	1.225605	-1.079402
H254	H	0.061884	1.558938	-0.746069
H255	H	0.395217	1.892272	-0.412735
N256	N	-0.456323	1.030077	-1.090219
N257	N	-0.122990	1.363411	-0.756886
N258	N	0.210343	1.696744	-0.423552
H259	H	-0.486416	0.998246	-1.051809
H260	H	-0.153083	1.331579	-0.718476
H261	H	0.180250	1.664912	-0.385142
H262	H	-0.426081	0.993778	-1.124239
H263	H	-0.092747	1.327112	-0.790905
H264	H	0.240586	1.660445	-0.457572
N265	N	-0.258956	1.238850	-0.919845
N266	N	0.074377	1.572184	-0.586512
N267	N	0.407711	1.905517	-0.253178
H268	H	-0.228860	1.270677	-0.958257
H269	H	0.104473	1.604011	-0.624923
H270	H	0.437807	1.937344	-0.291590
H271	H	-0.224594	1.206912	-0.885833
H272	H	0.108739	1.540245	-0.552499
H273	H	0.442072	1.873579	-0.219166
N274	N	-0.456404	0.423025	-0.273692
N275	N	-0.123071	0.756358	0.059641
N276	N	0.210262	1.089692	0.392974
H277	H	-0.449211	0.364878	-0.281331
H278	H	-0.115878	0.698211	0.052003
H279	H	0.217456	1.031545	0.385336
H280	H	-0.509462	0.437334	-0.285797
H281	H	-0.176128	0.770668	0.047536
H282	H	0.157205	1.104001	0.380870
N283	N	-0.259198	0.676027	-0.482718
N284	N	0.074136	1.009360	-0.149385
N285	N	0.407469	1.342693	0.183949
H286	H	-0.229145	0.714456	-0.514569
H287	H	0.104188	1.047790	-0.181236
H288	H	0.437522	1.381123	0.152097
H289	H	-0.289463	0.642004	-0.518996
H290	H	0.043870	0.975338	-0.185663
H291	H	0.377204	1.308671	0.147671
H292	H	-0.271521	1.225549	-0.826555
H293	H	0.061812	1.558882	-0.493222
H294	H	0.395145	1.892215	-0.159888
H295	H	-0.443868	0.582601	-0.286976
H296	H	-0.110534	0.915934	0.046357
H297	H	0.222799	1.249268	0.379690
