data_functionalizedCrystal
_audit_creation_method	'MofGen! by Chris Wilmer'
_symmetry_space_group_name_H-M	'P1'
_symmetry_Int_Tables_number	1
_symmetry_cell_setting	triclinic
loop_
_symmetry_equiv_pos_as_xyz
  x,y,z
_cell_length_a	14.044191
_cell_length_b	16.109301
_cell_length_c	14.586319
_cell_angle_alpha	90.001610
_cell_angle_beta	90.003775
_cell_angle_gamma	88.326629
loop_
_atom_site_label
_atom_site_type_symbol
_atom_site_fract_x
_atom_site_fract_y
_atom_site_fract_z
O1	O	1.257649	0.200459	0.076201
O2	O	1.507649	0.450459	0.326201
O3	O	1.757649	0.700459	0.576201
O4	O	2.007649	0.950459	0.826201
O5	O	0.981682	0.193220	0.076213
O6	O	1.231682	0.443220	0.326213
O7	O	1.481682	0.693220	0.576213
O8	O	1.731682	0.943220	0.826213
O9	O	1.127246	0.076373	0.076197
O10	O	1.377246	0.326373	0.326197
O11	O	1.627246	0.576373	0.576197
O12	O	1.877246	0.826373	0.826197
O13	O	1.112084	0.317306	0.076217
O14	O	1.362084	0.567306	0.326217
O15	O	1.612084	0.817306	0.576217
O16	O	1.862084	1.067306	0.826217
O17	O	1.127229	0.076379	-0.076283
O18	O	1.377229	0.326379	0.173717
O19	O	1.627229	0.576379	0.423717
O20	O	1.877229	0.826379	0.673717
O21	O	0.981664	0.193226	-0.076268
O22	O	1.231664	0.443226	0.173732
O23	O	1.481664	0.693226	0.423732
O24	O	1.731664	0.943226	0.673732
O25	O	1.257631	0.200465	-0.076279
O26	O	1.507631	0.450465	0.173721
O27	O	1.757631	0.700465	0.423721
O28	O	2.007631	0.950465	0.673721
Cu29	Cu	1.119646	0.196846	-0.090196
Cu30	Cu	1.369646	0.446846	0.159804
Cu31	Cu	1.619646	0.696846	0.409804
Cu32	Cu	1.869646	0.946846	0.659804
Cu33	Cu	1.119667	0.196839	0.090130
Cu34	Cu	1.369667	0.446839	0.340130
Cu35	Cu	1.619667	0.696839	0.590130
Cu36	Cu	1.869667	0.946839	0.840130
O37	O	1.112067	0.317313	-0.076264
O38	O	1.362067	0.567313	0.173736
O39	O	1.612067	0.817313	0.423736
O40	O	1.862067	1.067313	0.673736
C41	C	1.126623	0.045355	-0.000043
C42	C	1.376623	0.295355	0.249957
C43	C	1.626623	0.545355	0.499957
C44	C	1.876623	0.795355	0.749957
C45	C	1.124782	-0.047077	-0.000045
C46	C	1.374782	0.202923	0.249955
C47	C	1.624782	0.452923	0.499955
C48	C	1.874782	0.702923	0.749955
C49	C	0.946359	0.190056	-0.000026
C50	C	1.196359	0.440056	0.249974
C51	C	1.446359	0.690056	0.499974
C52	C	1.696359	0.940056	0.749974
C53	C	0.841136	0.180610	-0.000022
C54	C	1.091136	0.430610	0.249978
C55	C	1.341136	0.680610	0.499978
C56	C	1.591136	0.930610	0.749978
C57	C	1.206876	-0.263240	-0.000034
C58	C	1.456876	-0.013240	0.249966
C59	C	1.706876	0.236760	0.499966
C60	C	1.956876	0.486760	0.749966
C61	C	1.205138	-0.350089	-0.000026
C62	C	1.455138	-0.100089	0.249974
C63	C	1.705138	0.149911	0.499974
C64	C	1.955138	0.399911	0.749974
C65	C	1.032431	-0.343068	-0.000022
C66	C	1.282431	-0.093068	0.249978
C67	C	1.532431	0.156932	0.499978
C68	C	1.782431	0.406932	0.749978
C69	C	1.034169	-0.256220	-0.000023
C70	C	1.284169	-0.006220	0.249977
C71	C	1.534169	0.243780	0.499977
C72	C	1.784169	0.493780	0.749977
C73	C	1.121395	-0.216308	-0.000034
C74	C	1.371395	0.033692	0.249966
C75	C	1.621395	0.283692	0.499966
C76	C	1.871395	0.533692	0.749966
C77	C	1.117918	-0.390006	-0.000025
C78	C	1.367918	-0.140006	0.249975
C79	C	1.617918	0.109994	0.499975
C80	C	1.867918	0.359994	0.749975
C81	C	1.116034	-0.484173	-0.000017
C82	C	1.366034	-0.234173	0.249983
C83	C	1.616034	0.015827	0.499983
C84	C	1.866034	0.265827	0.749983
C85	C	1.123280	-0.122136	-0.000040
C86	C	1.373280	0.127864	0.249960
C87	C	1.623280	0.377864	0.499960
C88	C	1.873280	0.627864	0.749960
C89	C	0.590834	0.230335	-0.000027
C90	C	0.840834	0.480335	0.249973
C91	C	1.090834	0.730335	0.499973
C92	C	1.340834	0.980335	0.749973
C93	C	0.648484	0.163354	-0.000031
C94	C	0.898484	0.413354	0.249969
C95	C	1.148484	0.663354	0.499969
C96	C	1.398484	0.913354	0.749969
C97	C	0.755686	0.172958	-0.000026
C98	C	1.005686	0.422958	0.249974
C99	C	1.255686	0.672958	0.499974
C100	C	1.505686	0.922958	0.749974
C101	C	0.483623	0.220733	-0.000032
C102	C	0.733623	0.470733	0.249968
C103	C	0.983623	0.720733	0.499968
C104	C	1.233623	0.970733	0.749968
C105	C	1.292954	0.203629	-0.000038
C106	C	1.542954	0.453629	0.249962
C107	C	1.792954	0.703629	0.499962
C108	C	2.042954	0.953629	0.749962
C109	C	1.398177	0.213075	-0.000036
C110	C	1.648177	0.463075	0.249964
C111	C	1.898177	0.713075	0.499964
C112	C	2.148177	0.963075	0.749964
C113	C	1.112690	0.348330	-0.000021
C114	C	1.362690	0.598330	0.249979
C115	C	1.612690	0.848330	0.499979
C116	C	1.862690	1.098330	0.749979
C117	C	1.114531	0.440762	-0.000014
C118	C	1.364531	0.690762	0.249986
C119	C	1.614531	0.940762	0.499986
C120	C	1.864531	1.190762	0.749986
N121	N	1.119638	0.196852	-0.217028
N122	N	1.369638	0.446852	0.032972
N123	N	1.619638	0.696852	0.282972
N124	N	1.869638	0.946852	0.532972
C125	C	1.177124	0.251558	-0.452033
C126	C	1.427124	0.501558	-0.202033
C127	C	1.677124	0.751558	0.047967
C128	C	1.927124	1.001558	0.297967
C129	C	1.177134	0.251553	-0.548014
C130	C	1.427134	0.501553	-0.298014
C131	C	1.677134	0.751553	-0.048014
C132	C	1.927134	1.001553	0.201986
C133	C	1.062195	0.142115	-0.548027
C134	C	1.312195	0.392115	-0.298027
C135	C	1.562195	0.642115	-0.048027
C136	C	1.812195	0.892115	0.201973
C137	C	1.062190	0.142117	-0.452048
C138	C	1.312190	0.392117	-0.202048
C139	C	1.562190	0.642117	0.047952
C140	C	1.812190	0.892117	0.297952
C141	C	1.119653	0.196843	-0.404053
C142	C	1.369653	0.446843	-0.154053
C143	C	1.619653	0.696843	0.095947
C144	C	1.869653	0.946843	0.345947
C145	C	1.119667	0.196836	-0.596014
C146	C	1.369667	0.446836	-0.346014
C147	C	1.619667	0.696836	-0.096014
C148	C	1.869667	0.946836	0.153986
C149	C	1.119678	0.196831	-0.700081
C150	C	1.369678	0.446831	-0.450081
C151	C	1.619678	0.696831	-0.200081
C152	C	1.869678	0.946831	0.049919
C153	C	1.119645	0.196848	-0.299979
C154	C	1.369645	0.446848	-0.049979
C155	C	1.619645	0.696848	0.200021
C156	C	1.869645	0.946848	0.450021
N157	N	1.119682	0.196828	0.216962
N158	N	1.369682	0.446828	0.466962
N159	N	1.619682	0.696828	0.716962
N160	N	1.869682	0.946828	0.966962
H161	H	1.274746	-0.388298	-0.000024
H162	H	1.524746	-0.138298	0.249976
H163	H	1.774746	0.111702	0.499976
H164	H	2.024746	0.361702	0.749976
N165	N	0.943345	-0.383853	-0.000010
N166	N	1.193345	-0.133853	0.249990
N167	N	1.443345	0.116147	0.499990
N168	N	1.693345	0.366147	0.749990
N169	N	0.941803	-0.461395	-0.000009
N170	N	1.191803	-0.211395	0.249991
N171	N	1.441803	0.038605	0.499991
N172	N	1.691803	0.288605	0.749991
H173	H	0.878884	-0.490199	-0.000002
H174	H	1.128884	-0.240199	0.249998
H175	H	1.378884	0.009801	0.499998
H176	H	1.628884	0.259801	0.749998
H177	H	0.617329	0.098797	0.000028
H178	H	0.867329	0.348797	0.250028
H179	H	1.117329	0.598797	0.500028
H180	H	1.367329	0.848797	0.750028
H181	H	0.964556	-0.218007	-0.000021
H182	H	1.214556	0.031993	0.249979
H183	H	1.464556	0.281993	0.499979
H184	H	1.714556	0.531993	0.749979
H185	H	0.621988	0.294886	-0.000019
H186	H	0.871988	0.544886	0.249981
H187	H	1.121988	0.794886	0.499981
H188	H	1.371988	1.044886	0.749981
H189	H	1.223933	0.296107	-0.587075
H190	H	1.473933	0.546107	-0.337075
H191	H	1.723933	0.796107	-0.087075
H192	H	1.973933	1.046107	0.162925
H193	H	1.223914	0.296120	-0.412958
H194	H	1.473914	0.546120	-0.162958
H195	H	1.723914	0.796120	0.087042
H196	H	1.973914	1.046120	0.337042
H197	H	1.015409	0.097560	-0.587116
H198	H	1.265409	0.347560	-0.337116
H199	H	1.515409	0.597560	-0.087116
H200	H	1.765409	0.847560	0.162884
H201	H	1.015390	0.097556	-0.412981
H202	H	1.265390	0.347556	-0.162981
H203	H	1.515390	0.597556	0.087019
H204	H	1.765390	0.847556	0.337019
H205	H	1.277900	-0.230746	-0.000040
H206	H	1.527900	0.019254	0.249960
H207	H	1.777900	0.269254	0.499960
H208	H	2.027900	0.519254	0.749960
