data_functionalizedCrystal
_audit_creation_method	'MofGen! by Chris Wilmer'
_symmetry_space_group_name_H-M	'P1'
_symmetry_Int_Tables_number	1
_symmetry_cell_setting	triclinic
loop_
_symmetry_equiv_pos_as_xyz
  x,y,z
_cell_length_a	6.817900
_cell_length_b	16.418049
_cell_length_c	17.110486
_cell_angle_alpha	96.329277
_cell_angle_beta	99.060439
_cell_angle_gamma	103.389670
loop_
_atom_site_label
_atom_site_type_symbol
_atom_site_fract_x
_atom_site_fract_y
_atom_site_fract_z
V1	V	-3.976398	-0.115636	-0.246998
O2	O	-3.965399	0.005813	-0.242010
O3	O	-3.927750	-0.229534	-0.245585
O4	O	-3.906264	-0.113745	-0.354597
O5	O	-3.987034	-0.110777	-0.132243
V6	V	-4.462874	-0.101123	-0.233239
O7	O	-4.231178	-0.147473	-0.277180
O8	O	-4.658291	-0.069286	-0.203057
O9	O	-4.288315	0.012775	-0.234653
O10	O	-4.591270	-0.222573	-0.238228
O11	O	-4.569634	-0.105982	-0.347994
O12	O	-4.309801	-0.103014	-0.125640
C13	C	-3.773394	-0.257304	-0.241759
C14	C	-3.814761	-0.350416	-0.241321
C15	C	-3.745985	-0.109602	-0.380814
C16	C	-3.769925	-0.108809	-0.468778
C17	C	-4.091195	-0.568902	-0.244285
C18	C	-4.130051	-0.656392	-0.243880
C19	C	-3.767434	-0.647856	-0.235957
C20	C	-3.728583	-0.560369	-0.236368
C21	C	-3.890469	-0.520894	-0.240528
C22	C	-3.968176	-0.695871	-0.239712
C23	C	-4.010303	-0.790731	-0.239273
C24	C	-3.848340	-0.426028	-0.240969
C25	C	-3.962449	-0.112617	-0.514145
C26	C	-3.984931	-0.111872	-0.596797
C27	C	-3.814889	-0.107324	-0.634081
C28	C	-3.622347	-0.103514	-0.588707
C29	C	-3.599865	-0.104253	-0.506056
C30	C	-3.873698	-0.104877	-0.883430
C31	C	-3.896197	-0.104141	-0.966087
C32	C	-4.258780	-0.112497	-0.974171
C33	C	-4.236283	-0.113241	-0.891519
C34	C	-4.043742	-0.109426	-0.846152
C35	C	-3.837865	-0.106565	-0.718564
C36	C	-4.020765	-0.110179	-0.761669
C37	C	-4.106013	0.040540	-0.238476
C38	C	-4.043883	0.133651	-0.238919
C39	C	-4.133423	-0.107160	-0.099419
C40	C	-4.088722	-0.107949	-0.011454
H41	H	-4.223015	-0.536764	-0.247671
C42	C	-4.529827	-0.188837	-1.082643
C43	C	-4.470402	-0.116684	-1.024044
H44	H	-4.660472	-0.191415	-1.113436
H45	H	-4.537570	-0.238005	-1.057575
H46	H	-4.431752	-0.186015	-1.116668
H47	H	-4.568470	-0.119509	-0.990016
H48	H	-4.462674	-0.067503	-1.049114
H49	H	-3.565121	-0.521279	-0.233311
C50	C	-3.399684	-0.172570	-0.419245
C51	C	-3.388238	-0.100075	-0.456187
H52	H	-3.269031	-0.169985	-0.388455
H53	H	-3.440023	-0.221508	-0.459001
H54	H	-3.497740	-0.175372	-0.385213
H55	H	-3.290193	-0.097276	-0.490224
H56	H	-3.347872	-0.051124	-0.416426
H57	H	-3.635637	-0.680007	-0.232569
H58	H	-3.716938	-0.101801	-0.846506
H59	H	-4.159210	-0.113879	-0.731309
C60	C	-3.617402	-0.028571	-0.796005
C61	C	-3.650968	-0.101575	-0.759555
H62	H	-3.502029	-0.025494	-0.821317
H63	H	-3.592099	0.020021	-0.756583
H64	H	-3.735307	-0.030738	-0.834844
H65	H	-3.533068	-0.099405	-0.720712
H66	H	-3.676259	-0.150179	-0.798981
C67	C	-4.350617	-0.794290	-0.246760
C68	C	-4.350690	-0.709162	-0.247998
H69	H	-4.486839	-0.826867	-0.249305
H70	H	-4.266143	-0.799266	-0.198695
H71	H	-4.298850	-0.814473	-0.291450
H72	H	-4.402443	-0.688977	-0.203304
H73	H	-4.435195	-0.704183	-0.296068
C74	C	-4.256010	-0.188208	-0.705263
C75	C	-4.196566	-0.116058	-0.646660
H76	H	-4.386666	-0.190786	-0.736046
H77	H	-4.263734	-0.237379	-0.680198
H78	H	-4.157953	-0.185382	-0.739296
H79	H	-4.294615	-0.118887	-0.612623
H80	H	-4.188855	-0.066875	-0.671725
H81	H	-4.100923	-0.116325	-0.483796
H82	H	-4.374753	-0.116943	-0.861168
H83	H	-3.757716	-0.100435	-0.996440
H84	H	-3.483895	-0.099806	-0.619069
