data_functionalizedCrystal
_audit_creation_method	'MofGen! by Chris Wilmer'
_symmetry_space_group_name_H-M	'P1'
_symmetry_Int_Tables_number	1
_symmetry_cell_setting	triclinic
loop_
_symmetry_equiv_pos_as_xyz
  x,y,z
_cell_length_a	19.077115
_cell_length_b	12.827892
_cell_length_c	19.076929
_cell_angle_alpha	87.724508
_cell_angle_beta	90.078973
_cell_angle_gamma	92.286054
loop_
_atom_site_label
_atom_site_type_symbol
_atom_site_fract_x
_atom_site_fract_y
_atom_site_fract_z
Zn1	Zn	1.058294	0.505528	-0.440443
Zn2	Zn	1.558294	1.005528	0.059557
Zn3	Zn	1.062952	0.673562	-0.322950
Zn4	Zn	1.562952	1.173562	0.177050
Zn5	Zn	0.945515	0.491538	-0.318237
Zn6	Zn	1.445515	0.991538	0.181763
Zn7	Zn	0.940769	0.672923	-0.435703
Zn8	Zn	1.440769	1.172923	0.064297
O9	O	1.001882	0.585888	-0.379333
O10	O	1.501882	1.085888	0.120667
O11	O	1.157244	0.533940	-0.428813
O12	O	1.657244	1.033940	0.071187
O13	O	1.051309	0.643829	-0.223993
O14	O	1.551309	1.143829	0.276007
O15	O	0.960512	0.347161	-0.334460
O16	O	1.460512	0.847161	0.165540
O17	O	1.160666	0.657394	-0.342491
O18	O	1.660666	1.157394	0.157509
O19	O	1.043370	0.357439	-0.424244
O20	O	1.543370	0.857439	0.075756
O21	O	0.965029	0.510097	-0.220531
O22	O	1.465029	1.010097	0.279469
O23	O	0.846553	0.509477	-0.329864
O24	O	1.346553	1.009477	0.170136
O25	O	0.952423	0.656306	-0.534664
O26	O	1.452423	1.156306	-0.034664
O27	O	0.843067	0.642740	-0.416165
O28	O	1.343067	1.142740	0.083835
O29	O	1.038768	0.533321	-0.538146
O30	O	1.538768	1.033321	-0.038146
O31	O	1.046707	0.819711	-0.337895
O32	O	1.546707	1.319711	0.162105
O33	O	0.956940	0.819241	-0.420735
O34	O	1.456940	1.319241	0.079265
C35	C	0.819314	0.574522	-0.371989
C36	C	1.319314	1.074522	0.128011
C37	C	0.741209	0.569686	-0.368864
C38	C	1.241209	1.069686	0.131136
C39	C	0.301757	0.534954	-0.346456
C40	C	0.801757	1.034954	0.153544
C41	C	0.375144	0.539504	-0.349396
C42	C	0.875144	1.039504	0.150604
C43	C	0.410041	0.611268	-0.395726
C44	C	0.910041	1.111268	0.104274
C45	C	0.371547	0.678479	-0.439124
C46	C	0.871547	1.178479	0.060876
C47	C	0.298161	0.673923	-0.436187
C48	C	0.798161	1.173923	0.063813
C49	C	0.629329	0.632340	-0.409324
C50	C	1.129329	1.132340	0.090676
C51	C	0.702720	0.636894	-0.412257
C52	C	1.202720	1.136894	0.087743
C53	C	0.706312	0.497917	-0.322530
C54	C	1.206312	0.997917	0.177470
C55	C	0.632925	0.493372	-0.319594
C56	C	1.132925	0.993372	0.180406
C57	C	0.594437	0.560579	-0.362994
C58	C	1.094437	1.060579	0.137006
N59	N	0.485055	0.615923	-0.398731
N60	N	0.985055	1.115923	0.101269
N61	N	0.519425	0.555918	-0.359992
N62	N	1.019425	1.055918	0.140008
C63	C	1.001832	0.857395	-0.379328
C64	C	1.501832	1.357395	0.120672
C65	C	1.001874	0.973552	-0.379352
C66	C	1.501874	1.473552	0.120648
C67	C	1.046341	1.025540	-0.338412
C68	C	1.546341	1.525540	0.161588
C69	C	1.046386	1.145594	-0.338435
C70	C	1.546386	1.645594	0.161565
C71	C	1.185164	0.597299	-0.386707
C72	C	1.685164	1.097299	0.113293
C73	C	1.263268	0.602162	-0.389849
C74	C	1.763268	1.102162	0.110151
C75	C	0.994547	0.596303	-0.562614
C76	C	1.494547	1.096303	-0.062614
C77	C	0.991421	0.600741	-0.640717
C78	C	1.491421	1.100741	-0.140717
C79	C	1.001945	1.313323	-0.379363
C80	C	1.501945	1.813323	0.120637
C81	C	1.001956	1.197173	-0.379397
C82	C	1.501956	1.697173	0.120603
C83	C	0.969005	0.632655	-1.080162
C84	C	1.469005	1.132655	-0.580162
C85	C	0.971939	0.628469	-1.006775
C86	C	1.471939	1.128469	-0.506775
C87	C	1.018365	0.562351	-0.971899
C88	C	1.518365	1.062351	-0.471899
C89	C	1.061854	0.500407	-1.010412
C90	C	1.561854	1.000407	-0.510412
C91	C	1.058916	0.504587	-1.083797
C92	C	1.558916	1.004587	-0.583797
C93	C	1.031971	0.542977	-0.752616
C94	C	1.531971	1.042977	-0.252616
C95	C	1.034908	0.538803	-0.679226
C96	C	1.534908	1.038803	-0.179226
C97	C	0.944992	0.666865	-0.675594
C98	C	1.444992	1.166865	-0.175594
C99	C	0.942060	0.671044	-0.748980
C100	C	1.442060	1.171044	-0.248980
C101	C	0.985547	0.609096	-0.787487
C102	C	1.485547	1.109096	-0.287487
N103	N	1.021367	0.558074	-0.896886
N104	N	1.521367	1.058074	-0.396886
N105	N	0.982540	0.613368	-0.862498
N106	N	1.482540	1.113368	-0.362498
C107	C	1.009230	0.575441	-0.196767
C108	C	1.509230	1.075441	0.303233
C109	C	1.012492	0.570717	-0.118670
C110	C	1.512492	1.070717	0.381330
H111	H	0.406479	0.484781	-0.314058
H112	H	0.906479	0.984781	0.185942
O113	O	0.923944	0.697027	-1.113961
O114	O	1.423944	1.197027	-0.613961
C115	C	0.939999	0.801115	-1.096643
C116	C	1.439999	1.301115	-0.596643
H117	H	0.969146	0.801928	-1.044448
H118	H	1.469146	1.301928	-0.544448
H119	H	0.974461	0.840920	-1.139394
H120	H	1.474461	1.340920	-0.639394
C121	C	0.835815	0.858949	-1.154589
C122	C	1.335815	1.358949	-0.654589
C123	C	0.871608	0.859948	-1.090480
C124	C	1.371608	1.359948	-0.590480
H125	H	0.793628	0.895243	-1.150790
H126	H	1.293628	1.395243	-0.650790
H127	H	0.824999	0.788824	-1.166259
H128	H	1.324999	1.288824	-0.666259
H129	H	0.864540	0.892118	-1.190209
H130	H	1.364540	1.392118	-0.690209
H131	H	0.842886	0.826768	-1.054864
H132	H	1.342886	1.326768	-0.554864
H133	H	0.882417	0.930069	-1.078804
H134	H	1.382417	1.430069	-0.578804
H135	H	1.099652	0.446567	-0.982010
H136	H	1.599652	0.946567	-0.482010
H137	H	1.067385	0.492540	-0.783960
H138	H	1.567385	0.992540	-0.283960
O139	O	1.091801	1.199088	-0.296705
O140	O	1.591801	1.699088	0.203295
C141	C	1.081742	1.307047	-0.306026
C142	C	1.581742	1.807047	0.193974
H143	H	1.056481	1.323484	-0.359307
H144	H	1.556481	1.823484	0.140693
H145	H	1.046046	1.333428	-0.262820
H146	H	1.546046	1.833428	0.237180
C147	C	1.184121	1.346948	-0.237159
C148	C	1.684121	1.846948	0.262841
C149	C	1.153101	1.367137	-0.302602
C150	C	1.653101	1.867137	0.197398
H151	H	1.228137	1.384016	-0.235043
H152	H	1.728137	1.884016	0.264957
H153	H	1.190897	1.274214	-0.230876
H154	H	1.690897	1.774214	0.269124
H155	H	1.154368	1.368933	-0.201161
H156	H	1.654368	1.868933	0.298839
H157	H	1.182850	1.345141	-0.338598
H158	H	1.682850	1.845141	0.161402
H159	H	1.146332	1.439869	-0.308891
H160	H	1.646332	1.939869	0.191109
H161	H	0.604517	0.434942	-0.281862
H162	H	1.104517	0.934942	0.218138
H163	H	1.084382	0.981172	-0.303346
H164	H	1.584382	1.481172	0.196654
H165	H	0.731131	0.695333	-0.449988
H166	H	1.231131	1.195333	0.050012
O167	O	0.956469	1.144012	-0.421238
O168	O	1.456469	1.644012	0.078762
C169	C	0.915182	1.215289	-0.459344
C170	C	1.415182	1.715289	0.040656
H171	H	0.913902	1.291356	-0.430524
H172	H	1.413902	1.791356	0.069476
H173	H	0.938735	1.231428	-0.513773
H174	H	1.438735	1.731428	-0.013773
C175	C	0.841569	1.075167	-0.501771
C176	C	1.341569	1.575167	-0.001771
C177	C	0.839991	1.168591	-0.466371
C178	C	1.339991	1.668591	0.033629
H179	H	0.795188	1.046361	-0.506109
H180	H	1.295188	1.546361	-0.006109
H181	H	0.869386	1.027145	-0.476101
H182	H	1.369386	1.527145	0.023899
H183	H	0.861199	1.088629	-0.547125
H184	H	1.361199	1.588629	-0.047125
H185	H	0.820369	1.155126	-0.421015
H186	H	1.320369	1.655126	0.078985
H187	H	0.812169	1.216610	-0.492033
H188	H	1.312169	1.716610	0.007967
H189	H	0.273349	0.476517	-0.308728
H190	H	0.773349	0.976517	0.191272
H191	H	0.909587	0.717298	-0.644233
H192	H	1.409587	1.217298	-0.144233
O193	O	0.743780	0.432781	-0.280347
O194	O	1.243780	0.932781	0.219653
C195	C	0.788016	0.492217	-0.236579
C196	C	1.288016	0.992217	0.263421
H197	H	0.798012	0.573557	-0.261709
H198	H	1.298012	1.073557	0.238291
H199	H	0.761805	0.498856	-0.183359
H200	H	1.261805	0.998856	0.316641
C201	C	0.845961	0.338396	-0.195848
C202	C	1.345961	0.838396	0.304152
C203	C	0.858244	0.438296	-0.226716
C204	C	1.358244	0.938296	0.273284
H205	H	0.889281	0.305133	-0.189761
H206	H	1.389281	0.805133	0.310239
H207	H	0.816157	0.298351	-0.225333
H208	H	1.316157	0.798351	0.274667
H209	H	0.824118	0.343942	-0.151502
H210	H	1.324118	0.843942	0.348498
H211	H	0.880079	0.432747	-0.271065
H212	H	1.380079	0.932747	0.228935
H213	H	0.888054	0.478338	-0.197238
H214	H	1.388054	0.978338	0.302762
O215	O	0.929793	0.688692	-0.969301
O216	O	1.429793	1.188692	-0.469301
C217	C	0.971472	0.756284	-0.928462
C218	C	1.471472	1.256284	-0.428462
H219	H	1.025173	0.722122	-0.919604
H220	H	1.525173	1.222122	-0.419604
H221	H	0.978043	0.835814	-0.957047
H222	H	1.478043	1.335814	-0.457047
C223	C	0.869626	0.810789	-0.868082
C224	C	1.369626	1.310789	-0.368082
C225	C	0.935580	0.768827	-0.857198
C226	C	1.435580	1.268827	-0.357198
H227	H	0.847485	0.818532	-0.824124
H228	H	1.347485	1.318532	-0.324124
H229	H	0.841545	0.765255	-0.895598
H230	H	1.341545	1.265255	-0.395598
H231	H	0.875111	0.877060	-0.891904
H232	H	1.375111	1.377060	-0.391904
H233	H	0.930094	0.702553	-0.833384
H234	H	1.430094	1.202553	-0.333384
H235	H	0.963660	0.814351	-0.829676
H236	H	1.463660	1.314351	-0.329676
H237	H	0.598001	0.687069	-0.444661
H238	H	1.098001	1.187069	0.055339
H239	H	1.072713	0.484956	-0.650832
H240	H	1.572713	0.984956	-0.150832
H241	H	1.094325	0.454147	-1.115150
H242	H	1.594325	0.954147	-0.615150
H243	H	0.399966	0.736906	-0.476850
H244	H	0.899966	1.236906	0.023150
H245	H	0.963840	1.017923	-0.414423
H246	H	1.463840	1.517923	0.085577
H247	H	0.266824	0.728648	-0.471524
H248	H	0.766824	1.228648	0.028476
H249	H	0.904256	0.724885	-0.777372
H250	H	1.404256	1.224885	-0.277372
