data_functionalizedCrystal
_audit_creation_method	'MofGen! by Chris Wilmer'
_symmetry_space_group_name_H-M	'P1'
_symmetry_Int_Tables_number	1
_symmetry_cell_setting	triclinic
loop_
_symmetry_equiv_pos_as_xyz
  x,y,z
_cell_length_a	29.839135
_cell_length_b	29.839131
_cell_length_c	25.639233
_cell_angle_alpha	90.027239
_cell_angle_beta	90.016634
_cell_angle_gamma	90.037758
loop_
_atom_site_label
_atom_site_type_symbol
_atom_site_fract_x
_atom_site_fract_y
_atom_site_fract_z
Zn1	Zn	0.686744	-0.178878	0.295634
Zn2	Zn	0.936744	0.071122	0.545634
Zn3	Zn	1.186744	0.321122	0.795634
Zn4	Zn	1.436744	0.571122	1.045634
Zn5	Zn	0.686683	-0.253992	0.208186
Zn6	Zn	0.936683	-0.003992	0.458186
Zn7	Zn	1.186683	0.246008	0.708186
Zn8	Zn	1.436683	0.496008	0.958186
Zn9	Zn	0.611625	-0.178880	0.208207
Zn10	Zn	0.861625	0.071120	0.458207
Zn11	Zn	1.111625	0.321120	0.708207
Zn12	Zn	1.361625	0.571120	0.958207
Zn13	Zn	0.611583	-0.253985	0.295584
Zn14	Zn	0.861583	-0.003985	0.545584
Zn15	Zn	1.111583	0.246015	0.795584
Zn16	Zn	1.361583	0.496015	1.045584
O17	O	0.649159	-0.216434	0.251903
O18	O	0.899159	0.033566	0.501903
O19	O	1.149159	0.283566	0.751903
O20	O	1.399159	0.533566	1.001903
O21	O	0.749603	-0.188844	0.284046
O22	O	0.999603	0.061156	0.534046
O23	O	1.249603	0.311156	0.784046
O24	O	1.499603	0.561156	1.034046
O25	O	0.676718	-0.244033	0.135023
O26	O	0.926718	0.005967	0.385023
O27	O	1.176718	0.255967	0.635023
O28	O	1.426718	0.505967	0.885023
O29	O	0.621633	-0.116013	0.219834
O30	O	0.871633	0.133987	0.469834
O31	O	1.121633	0.383987	0.719834
O32	O	1.371633	0.633987	0.969834
O33	O	0.749558	-0.244030	0.219798
O34	O	0.999558	0.005970	0.469798
O35	O	1.249558	0.255970	0.719798
O36	O	1.499558	0.505970	0.969798
O37	O	0.676823	-0.116011	0.284067
O38	O	0.926823	0.133989	0.534067
O39	O	1.176823	0.383989	0.784067
O40	O	1.426823	0.633989	1.034067
O41	O	0.621574	-0.188848	0.135039
O42	O	0.871574	0.061152	0.385039
O43	O	1.121574	0.311152	0.635039
O44	O	1.371574	0.561152	0.885039
O45	O	0.548753	-0.188841	0.219785
O46	O	0.798753	0.061159	0.469785
O47	O	1.048753	0.311159	0.719785
O48	O	1.298753	0.561159	0.969785
O49	O	0.621561	-0.244017	0.368756
O50	O	0.871561	0.005983	0.618756
O51	O	1.121561	0.255983	0.868756
O52	O	1.371561	0.505983	1.118756
O53	O	0.548721	-0.244020	0.283981
O54	O	0.798721	0.005980	0.533981
O55	O	1.048721	0.255980	0.783981
O56	O	1.298721	0.505980	1.033981
O57	O	0.676781	-0.188837	0.368793
O58	O	0.926781	0.061163	0.618793
O59	O	1.176781	0.311163	0.868793
O60	O	1.426781	0.561163	1.118793
O61	O	0.676677	-0.316858	0.219749
O62	O	0.926677	-0.066858	0.469749
O63	O	1.176677	0.183142	0.719749
O64	O	1.426677	0.433142	0.969749
O65	O	0.621501	-0.316853	0.283961
O66	O	0.871501	-0.066853	0.533961
O67	O	1.121501	0.183147	0.783961
O68	O	1.371501	0.433147	1.033961
C69	C	0.532436	-0.216430	0.251880
C70	C	0.782436	0.033570	0.501880
C71	C	1.032436	0.283570	0.751880
C72	C	1.282436	0.533570	1.001880
C73	C	0.482502	-0.216440	0.251883
C74	C	0.732502	0.033560	0.501883
C75	C	0.982502	0.283560	0.751883
C76	C	1.232502	0.533560	1.001883
C77	C	0.172879	-0.187742	0.285406
C78	C	0.422879	0.062258	0.535406
C79	C	0.672879	0.312258	0.785406
C80	C	0.922879	0.562258	1.035406
C81	C	-0.014794	-0.187745	0.285421
C82	C	0.235206	0.062255	0.535421
C83	C	0.485206	0.312255	0.785421
C84	C	0.735206	0.562255	1.035421
O85	O	-0.039042	-0.163335	0.313898
O86	O	0.210958	0.086665	0.563898
O87	O	0.460958	0.336665	0.813898
O88	O	0.710958	0.586665	1.063898
N89	N	-0.038283	-0.216434	0.251922
N90	N	0.211717	0.033566	0.501922
N91	N	0.461717	0.283566	0.751922
N92	N	0.711717	0.533566	1.001922
C93	C	-0.014851	-0.245123	0.218414
C94	C	0.235149	0.004877	0.468414
C95	C	0.485149	0.254877	0.718414
C96	C	0.735149	0.504877	0.968414
O97	O	-0.039136	-0.269522	0.189918
O98	O	0.210864	-0.019522	0.439918
O99	O	0.460864	0.230478	0.689918
O100	O	0.710864	0.480478	0.939918
C101	C	0.172821	-0.245117	0.218397
C102	C	0.422821	0.004883	0.468397
C103	C	0.672821	0.254883	0.718397
C104	C	0.922821	0.504883	0.968397
C105	C	0.196308	-0.216429	0.251902
C106	C	0.446308	0.033571	0.501902
C107	C	0.696308	0.283571	0.751902
C108	C	0.946308	0.533571	1.001902
C109	C	0.196365	-0.159056	0.318908
C110	C	0.446365	0.090944	0.568908
C111	C	0.696365	0.340944	0.818908
C112	C	0.946365	0.590944	1.068908
C113	C	0.243281	-0.159057	0.318906
C114	C	0.493281	0.090943	0.568906
C115	C	0.743281	0.340943	0.818906
C116	C	0.993281	0.590943	1.068906
C117	C	0.266710	-0.187744	0.285402
C118	C	0.516710	0.062256	0.535402
C119	C	0.766710	0.312256	0.785402
C120	C	1.016710	0.562256	1.035402
C121	C	0.243223	-0.216430	0.251900
C122	C	0.493223	0.033570	0.501900
C123	C	0.743223	0.283570	0.751900
C124	C	0.993223	0.533570	1.001900
C125	C	0.196252	-0.273803	0.184888
C126	C	0.446252	-0.023803	0.434888
C127	C	0.696252	0.226197	0.684888
C128	C	0.946252	0.476197	0.934888
C129	C	0.243173	-0.273798	0.184885
C130	C	0.493173	-0.023798	0.434885
C131	C	0.743173	0.226202	0.684885
C132	C	0.993173	0.476202	0.934885
C133	C	0.266660	-0.245110	0.218390
C134	C	0.516660	0.004890	0.468390
C135	C	0.766660	0.254890	0.718390
C136	C	1.016660	0.504890	0.968390
C137	C	0.313567	-0.245119	0.218394
C138	C	0.563567	0.004881	0.468394
C139	C	0.813567	0.254881	0.718394
C140	C	1.063567	0.504881	0.968394
N141	N	0.337056	-0.216429	0.251893
N142	N	0.587056	0.033571	0.501893
N143	N	0.837056	0.283571	0.751893
N144	N	1.087056	0.533571	1.001893
C145	C	0.313628	-0.187742	0.285397
C146	C	0.563628	0.062258	0.535397
C147	C	0.813628	0.312258	0.785397
C148	C	1.063628	0.562258	1.035397
C149	C	-0.113382	-0.245124	0.218426
C150	C	0.136618	0.004876	0.468426
C151	C	0.386618	0.254876	0.718426
C152	C	0.636618	0.504876	0.968426
C153	C	-0.160300	-0.245126	0.218431
C154	C	0.089700	0.004874	0.468431
C155	C	0.339700	0.254874	0.718431
C156	C	0.589700	0.504874	0.968431
C157	C	-0.160239	-0.187748	0.285437
C158	C	0.089761	0.062252	0.535437
C159	C	0.339761	0.312252	0.785437
C160	C	0.589761	0.562252	1.035437
C161	C	-0.113321	-0.187748	0.285435
C162	C	0.136679	0.062252	0.535435
C163	C	0.386679	0.312252	0.785435
C164	C	0.636679	0.562252	1.035435
C165	C	-0.089893	-0.216435	0.251925
C166	C	0.160107	0.033565	0.501925
C167	C	0.410107	0.283565	0.751925
C168	C	0.660107	0.533565	1.001925
C169	C	0.412153	-0.187747	0.285390
C170	C	0.662153	0.062253	0.535390
C171	C	0.912153	0.312253	0.785390
C172	C	1.162153	0.562253	1.035390
C173	C	0.459073	-0.187752	0.285387
C174	C	0.709073	0.062248	0.535387
C175	C	0.959073	0.312248	0.785387
C176	C	1.209073	0.562248	1.035387
C177	C	0.459009	-0.245129	0.218379
C178	C	0.709009	0.004871	0.468379
C179	C	0.959009	0.254871	0.718379
C180	C	1.209009	0.504871	0.968379
C181	C	0.412093	-0.245126	0.218385
C182	C	0.662093	0.004874	0.468385
C183	C	0.912093	0.254874	0.718385
C184	C	1.162093	0.504874	0.968385
C185	C	0.388667	-0.216431	0.251892
C186	C	0.638667	0.033569	0.501892
C187	C	0.888667	0.283569	0.751892
C188	C	1.138667	0.533569	1.001892
O189	O	0.337844	-0.269513	0.189928
O190	O	0.587844	-0.019513	0.439928
O191	O	0.837844	0.230487	0.689928
O192	O	1.087844	0.480487	0.939928
O193	O	0.337921	-0.163340	0.313881
O194	O	0.587921	0.086660	0.563881
O195	O	0.837921	0.336660	0.813881
O196	O	1.087921	0.586660	1.063881
C197	C	0.125963	-0.187740	0.285408
C198	C	0.375963	0.062260	0.535408
C199	C	0.625963	0.312260	0.785408
C200	C	0.875963	0.562260	1.035408
C201	C	0.102477	-0.216427	0.251906
C202	C	0.352477	0.033573	0.501906
C203	C	0.602477	0.283573	0.751906
C204	C	0.852477	0.533573	1.001906
C205	C	0.125905	-0.245114	0.218402
C206	C	0.375905	0.004886	0.468402
C207	C	0.625905	0.254886	0.718402
C208	C	0.875905	0.504886	0.968402
C209	C	0.055559	-0.216429	0.251911
C210	C	0.305559	0.033571	0.501911
C211	C	0.555559	0.283571	0.751911
C212	C	0.805559	0.533571	1.001911
C213	C	0.032130	-0.187741	0.285415
C214	C	0.282130	0.062259	0.535415
C215	C	0.532130	0.312259	0.785415
C216	C	0.782130	0.562259	1.035415
C217	C	0.055619	-0.159052	0.318914
C218	C	0.305619	0.090948	0.568914
C219	C	0.555619	0.340948	0.818914
C220	C	0.805619	0.590948	1.068914
C221	C	0.102535	-0.159053	0.318912
C222	C	0.352535	0.090947	0.568912
C223	C	0.602535	0.340947	0.818912
C224	C	0.852535	0.590947	1.068912
C225	C	0.102416	-0.273803	0.184903
C226	C	0.352416	-0.023803	0.434903
C227	C	0.602416	0.226197	0.684903
C228	C	0.852416	0.476197	0.934903
C229	C	0.055501	-0.273800	0.184909
C230	C	0.305501	-0.023800	0.434909
C231	C	0.555501	0.226200	0.684909
C232	C	0.805501	0.476200	0.934909
C233	C	0.032072	-0.245113	0.218412
C234	C	0.282072	0.004887	0.468412
C235	C	0.532072	0.254887	0.718412
C236	C	0.782072	0.504887	0.968412
C237	C	0.649090	-0.333156	0.251859
C238	C	0.899090	-0.083156	0.501859
C239	C	1.149090	0.166844	0.751859
C240	C	1.399090	0.416844	1.001859
C241	C	0.649102	-0.383091	0.251857
C242	C	0.899102	-0.133091	0.501857
C243	C	1.149102	0.116909	0.751857
C244	C	1.399102	0.366909	1.001857
C245	C	0.677890	-0.692698	0.285396
C246	C	0.927890	-0.442698	0.535396
C247	C	1.177890	-0.192698	0.785396
C248	C	1.427890	0.057302	1.035396
C249	C	0.677938	-0.880371	0.285428
C250	C	0.927938	-0.630371	0.535428
C251	C	1.177938	-0.380371	0.785428
C252	C	1.427938	-0.130371	1.035428
O253	O	0.702347	-0.904606	0.313911
O254	O	0.952347	-0.654606	0.563911
O255	O	1.202347	-0.404606	0.813911
O256	O	1.452347	-0.154606	1.063911
N257	N	0.649235	-0.903876	0.251961
N258	N	0.899235	-0.653876	0.501961
N259	N	1.149235	-0.403876	0.751961
N260	N	1.399235	-0.153876	1.001961
C261	C	0.620515	-0.880459	0.218486
C262	C	0.870515	-0.630459	0.468486
C263	C	1.120515	-0.380459	0.718486
C264	C	1.370515	-0.130459	0.968486
O265	O	0.596099	-0.904757	0.190025
O266	O	0.846099	-0.654757	0.440025
O267	O	1.096099	-0.404757	0.690025
O268	O	1.346099	-0.154757	0.940025
C269	C	0.620465	-0.692787	0.218458
C270	C	0.870465	-0.442787	0.468458
C271	C	1.120465	-0.192787	0.718458
C272	C	1.370465	0.057213	0.968458
C273	C	0.649173	-0.669285	0.251923
C274	C	0.899173	-0.419285	0.501923
C275	C	1.149173	-0.169285	0.751923
C276	C	1.399173	0.080715	1.001923
C277	C	0.706595	-0.669196	0.318859
C278	C	0.956595	-0.419196	0.568859
C279	C	1.206595	-0.169196	0.818859
C280	C	1.456595	0.080804	1.068859
C281	C	0.706585	-0.622281	0.318849
C282	C	0.956585	-0.372281	0.568849
C283	C	1.206585	-0.122281	0.818849
C284	C	1.456585	0.127719	1.068849
C285	C	0.677868	-0.598867	0.285376
C286	C	0.927868	-0.348867	0.535376
C287	C	1.177868	-0.098867	0.785376
C288	C	1.427868	0.151133	1.035376
C289	C	0.649162	-0.622369	0.251913
C290	C	0.899162	-0.372369	0.501913
C291	C	1.149162	-0.122369	0.751913
C292	C	1.399162	0.127631	1.001913
C293	C	0.591743	-0.669371	0.184986
C294	C	0.841743	-0.419371	0.434986
C295	C	1.091743	-0.169371	0.684986
C296	C	1.341743	0.080629	0.934986
C297	C	0.591732	-0.622450	0.184983
C298	C	0.841732	-0.372450	0.434983
C299	C	1.091732	-0.122450	0.684983
C300	C	1.341732	0.127550	0.934983
C301	C	0.620441	-0.598948	0.218448
C302	C	0.870441	-0.348948	0.468448
C303	C	1.120441	-0.098948	0.718448
C304	C	1.370441	0.151052	0.968448
C305	C	0.620435	-0.552041	0.218429
C306	C	0.870435	-0.302041	0.468429
C307	C	1.120435	-0.052041	0.718429
C308	C	1.370435	0.197959	0.968429
N309	N	0.649138	-0.528536	0.251896
N310	N	0.899138	-0.278536	0.501896
N311	N	1.149138	-0.028536	0.751896
N312	N	1.399138	0.221464	1.001896
C313	C	0.677855	-0.551949	0.285369
C314	C	0.927855	-0.301949	0.535369
C315	C	1.177855	-0.051949	0.785369
C316	C	1.427855	0.198051	1.035369
C317	C	0.620545	-0.978990	0.218502
C318	C	0.870545	-0.728990	0.468502
C319	C	1.120545	-0.478990	0.718502
C320	C	1.370545	-0.228990	0.968502
C321	C	0.620558	-1.025908	0.218509
C322	C	0.870558	-0.775908	0.468509
C323	C	1.120558	-0.525908	0.718509
C324	C	1.370558	-0.275908	0.968509
C325	C	0.677980	-1.025816	0.285451
C326	C	0.927980	-0.775816	0.535451
C327	C	1.177980	-0.525816	0.785451
C328	C	1.427980	-0.275816	1.035451
C329	C	0.677969	-0.978898	0.285442
C330	C	0.927969	-0.728898	0.535442
C331	C	1.177969	-0.478898	0.785442
C332	C	1.427969	-0.228898	1.035442
C333	C	0.649248	-0.955485	0.251969
C334	C	0.899248	-0.705485	0.501969
C335	C	1.149248	-0.455485	0.751969
C336	C	1.399248	-0.205485	1.001969
C337	C	0.677830	-0.453424	0.285345
C338	C	0.927830	-0.203424	0.535345
C339	C	1.177830	0.046576	0.785345
C340	C	1.427830	0.296576	1.035345
C341	C	0.677818	-0.406504	0.285331
C342	C	0.927818	-0.156504	0.535331
C343	C	1.177818	0.093496	0.785331
C344	C	1.427818	0.343496	1.035331
C345	C	0.620395	-0.406599	0.218390
C346	C	0.870395	-0.156599	0.468390
C347	C	1.120395	0.093401	0.718390
C348	C	1.370395	0.343401	0.968390
C349	C	0.620408	-0.453515	0.218403
C350	C	0.870408	-0.203515	0.468403
C351	C	1.120408	0.046485	0.718403
C352	C	1.370408	0.296485	0.968403
C353	C	0.649127	-0.476926	0.251884
C354	C	0.899127	-0.226926	0.501884
C355	C	1.149127	0.023074	0.751884
C356	C	1.399127	0.273074	1.001884
O357	O	0.596035	-0.527777	0.189965
O358	O	0.846035	-0.277777	0.439965
O359	O	1.096035	-0.027777	0.689965
O360	O	1.346035	0.222223	0.939965
O361	O	0.702260	-0.527643	0.313835
O362	O	0.952260	-0.277643	0.563835
O363	O	1.202260	-0.027643	0.813835
O364	O	1.452260	0.222357	1.063835
C365	C	0.677900	-0.739614	0.285406
C366	C	0.927900	-0.489614	0.535406
C367	C	1.177900	-0.239614	0.785406
C368	C	1.427900	0.010386	1.035406
C369	C	0.649195	-0.763116	0.251943
C370	C	0.899195	-0.513116	0.501943
C371	C	1.149195	-0.263116	0.751943
C372	C	1.399195	-0.013116	1.001943
C373	C	0.620478	-0.739702	0.218470
C374	C	0.870478	-0.489702	0.468470
C375	C	1.120478	-0.239702	0.718470
C376	C	1.370478	0.010298	0.968470
C377	C	0.649208	-0.810034	0.251950
C378	C	0.899208	-0.560034	0.501950
C379	C	1.149208	-0.310034	0.751950
C380	C	1.399208	-0.060034	1.001950
C381	C	0.677924	-0.833447	0.285423
C382	C	0.927924	-0.583447	0.535423
C383	C	1.177924	-0.333447	0.785423
C384	C	1.427924	-0.083447	1.035423
C385	C	0.706628	-0.809942	0.318890
C386	C	0.956628	-0.559942	0.568890
C387	C	1.206628	-0.309942	0.818890
C388	C	1.456628	-0.059942	1.068890
C389	C	0.706617	-0.763027	0.318880
C390	C	0.956617	-0.513027	0.568880
C391	C	1.206617	-0.263027	0.818880
C392	C	1.456617	-0.013027	1.068880
C393	C	0.591775	-0.763207	0.185003
C394	C	0.841775	-0.513207	0.435003
C395	C	1.091775	-0.263207	0.685003
C396	C	1.341775	-0.013207	0.935003
C397	C	0.591788	-0.810122	0.185016
C398	C	0.841788	-0.560122	0.435016
C399	C	1.091788	-0.310122	0.685016
C400	C	1.341788	-0.060122	0.935016
C401	C	0.620505	-0.833536	0.218489
C402	C	0.870505	-0.583536	0.468489
C403	C	1.120505	-0.333536	0.718489
C404	C	1.370505	-0.083536	0.968489
C405	C	0.766337	-0.216437	0.251925
C406	C	1.016337	0.033563	0.501925
C407	C	1.266337	0.283563	0.751925
C408	C	1.516337	0.533563	1.001925
C409	C	0.816271	-0.216439	0.251935
C410	C	1.066271	0.033561	0.501935
C411	C	1.316271	0.283561	0.751935
C412	C	1.566271	0.533561	1.001935
C413	C	0.649173	-0.216426	0.388276
C414	C	0.899173	0.033574	0.638276
C415	C	1.149173	0.283574	0.888276
C416	C	1.399173	0.533574	1.138276
C417	C	0.649179	-0.216422	0.446390
C418	C	0.899179	0.033578	0.696390
C419	C	1.149179	0.283578	0.946390
C420	C	1.399179	0.533578	1.196390
C421	C	0.649240	-0.099255	0.251958
C422	C	0.899240	0.150745	0.501958
C423	C	1.149240	0.400745	0.751958
C424	C	1.399240	0.650745	1.001958
C425	C	0.649274	-0.049321	0.251982
C426	C	0.899274	0.200679	0.501982
C427	C	1.149274	0.450679	0.751982
C428	C	1.399274	0.700679	1.001982
C429	C	0.649170	-0.216409	0.116060
C430	C	0.899170	0.033591	0.366060
C431	C	1.149170	0.283591	0.616060
C432	C	1.399170	0.533591	0.866060
C433	C	0.649251	-0.216286	0.057946
C434	C	0.899251	0.033714	0.307946
C435	C	1.149251	0.283714	0.557946
C436	C	1.399251	0.533714	0.807946
C437	C	0.677969	-0.187604	0.806778
C438	C	0.927969	0.062396	1.056778
C439	C	1.177969	0.312396	1.306778
C440	C	1.427969	0.562396	1.556778
C441	C	0.677975	-0.187592	0.861382
C442	C	0.927975	0.062408	1.111382
C443	C	1.177975	0.312408	1.361382
C444	C	1.427975	0.562408	1.611382
O445	O	0.702417	-0.163143	0.889640
O446	O	0.952417	0.086857	1.139640
O447	O	1.202417	0.336857	1.389640
O448	O	1.452417	0.586857	1.639640
N449	N	0.649229	-0.216317	0.888672
N450	N	0.899229	0.033683	1.138672
N451	N	1.149229	0.283683	1.388672
N452	N	1.399229	0.533683	1.638672
C453	C	0.620472	-0.245053	0.861356
C454	C	0.870472	0.004947	1.111356
C455	C	1.120472	0.254947	1.361356
C456	C	1.370472	0.504947	1.611356
O457	O	0.596022	-0.269485	0.889582
O458	O	0.846022	-0.019485	1.139582
O459	O	1.096022	0.230515	1.389582
O460	O	1.346022	0.480515	1.639582
C461	C	0.620465	-0.245063	0.806752
C462	C	0.870465	0.004937	1.056752
C463	C	1.120465	0.254937	1.306752
C464	C	1.370465	0.504937	1.556752
C465	C	0.649216	-0.216339	0.779465
C466	C	0.899216	0.033661	1.029465
C467	C	1.149216	0.283661	1.279465
C468	C	1.399216	0.533661	1.529465
C469	C	0.706718	-0.158883	0.779490
C470	C	0.956718	0.091117	1.029490
C471	C	1.206718	0.341117	1.279490
C472	C	1.456718	0.591117	1.529490
C473	C	0.706712	-0.158896	0.724890
C474	C	0.956712	0.091104	0.974890
C475	C	1.206712	0.341104	1.224890
C476	C	1.456712	0.591104	1.474890
C477	C	0.677959	-0.187631	0.697577
C478	C	0.927959	0.062369	0.947577
C479	C	1.177959	0.312369	1.197577
C480	C	1.427959	0.562369	1.447577
C481	C	0.649211	-0.216352	0.724864
C482	C	0.899211	0.033648	0.974864
C483	C	1.149211	0.283648	1.224864
C484	C	1.399211	0.533648	1.474864
C485	C	0.591706	-0.273797	0.779436
C486	C	0.841706	-0.023797	1.029436
C487	C	1.091706	0.226203	1.279436
C488	C	1.341706	0.476203	1.529436
C489	C	0.591701	-0.273804	0.724829
C490	C	0.841701	-0.023804	0.974829
C491	C	1.091701	0.226196	1.224829
C492	C	1.341701	0.476196	1.474829
C493	C	0.620452	-0.245080	0.697542
C494	C	0.870452	0.004920	0.947542
C495	C	1.120452	0.254920	1.197542
C496	C	1.370452	0.504920	1.447542
C497	C	0.620452	-0.245101	0.642951
C498	C	0.870452	0.004899	0.892951
C499	C	1.120452	0.254899	1.142951
C500	C	1.370452	0.504899	1.392951
N501	N	0.649198	-0.216375	0.615660
N502	N	0.899198	0.033625	0.865660
N503	N	1.149198	0.283625	1.115660
N504	N	1.399198	0.533625	1.365660
C505	C	0.677952	-0.187641	0.642973
C506	C	0.927952	0.062359	0.892973
C507	C	1.177952	0.312359	1.142973
C508	C	1.427952	0.562359	1.392973
C509	C	0.620490	-0.245030	0.976026
C510	C	0.870490	0.004970	1.226026
C511	C	1.120490	0.254970	1.476026
C512	C	1.370490	0.504970	1.726026
C513	C	0.620499	-0.245023	1.030629
C514	C	0.870499	0.004977	1.280629
C515	C	1.120499	0.254977	1.530629
C516	C	1.370499	0.504977	1.780629
C517	C	0.678001	-0.187561	1.030651
C518	C	0.928001	0.062439	1.280651
C519	C	1.178001	0.312439	1.530651
C520	C	1.428001	0.562439	1.780651
C521	C	0.677994	-0.187571	0.976048
C522	C	0.927994	0.062429	1.226048
C523	C	1.177994	0.312429	1.476048
C524	C	1.427994	0.562429	1.726048
C525	C	0.649236	-0.216305	0.948736
C526	C	0.899236	0.033695	1.198736
C527	C	1.149236	0.283695	1.448736
C528	C	1.399236	0.533695	1.698736
C529	C	0.677939	-0.187671	0.528308
C530	C	0.927939	0.062329	0.778308
C531	C	1.177939	0.312329	1.028308
C532	C	1.427939	0.562329	1.278308
C533	C	0.677933	-0.187688	0.473703
C534	C	0.927933	0.062312	0.723703
C535	C	1.177933	0.312312	0.973703
C536	C	1.427933	0.562312	1.223703
C537	C	0.620429	-0.245148	0.473685
C538	C	0.870429	0.004852	0.723685
C539	C	1.120429	0.254852	0.973685
C540	C	1.370429	0.504852	1.223685
C541	C	0.620437	-0.245133	0.528285
C542	C	0.870437	0.004867	0.778285
C543	C	1.120437	0.254867	1.028285
C544	C	1.370437	0.504867	1.278285
C545	C	0.649193	-0.216390	0.555596
C546	C	0.899193	0.033610	0.805596
C547	C	1.149193	0.283610	1.055596
C548	C	1.399193	0.533610	1.305596
O549	O	0.596022	-0.269536	0.614658
O550	O	0.846022	-0.019536	0.864658
O551	O	1.096022	0.230464	1.114658
O552	O	1.346022	0.480464	1.364658
O553	O	0.702394	-0.163209	0.614740
O554	O	0.952394	0.086791	0.864740
O555	O	1.202394	0.336791	1.114740
O556	O	1.452394	0.586791	1.364740
H557	H	0.036535	-0.135695	0.346195
H558	H	0.286535	0.114305	0.596195
H559	H	0.536535	0.364305	0.846195
H560	H	0.786535	0.614305	1.096195
H561	H	0.701404	-0.164180	0.953834
H562	H	0.951404	0.085820	1.203834
H563	H	1.201404	0.335820	1.453834
H564	H	1.451404	0.585820	1.703834
H565	H	0.568294	-0.297187	0.801644
H566	H	0.818294	-0.047187	1.051644
H567	H	1.068294	0.202813	1.301644
H568	H	1.318294	0.452813	1.551644
N569	N	0.589449	-0.478866	0.182303
N570	N	0.839449	-0.228866	0.432303
N571	N	1.089449	0.021134	0.682303
N572	N	1.339449	0.271134	0.932303
H573	H	0.607726	-0.498329	0.158099
H574	H	0.857726	-0.248329	0.408099
H575	H	1.107726	0.001671	0.658099
H576	H	1.357726	0.251671	0.908099
H577	H	0.571265	-0.456883	0.161130
H578	H	0.821265	-0.206883	0.411130
H579	H	1.071265	0.043117	0.661130
H580	H	1.321265	0.293117	0.911130
N581	N	0.708944	-0.156705	0.444273
N582	N	0.958944	0.093295	0.694273
N583	N	1.208944	0.343295	0.944273
N584	N	1.458944	0.593295	1.194273
H585	H	0.704582	-0.161073	0.405537
H586	H	0.954582	0.088927	0.655537
H587	H	1.204582	0.338927	0.905537
H588	H	1.454582	0.588927	1.155537
H589	H	0.741024	-0.163699	0.453827
H590	H	0.991024	0.086301	0.703827
H591	H	1.241024	0.336301	0.953827
H592	H	1.491024	0.586301	1.203827
H593	H	0.729960	-0.603148	0.346101
H594	H	0.979960	-0.353148	0.596101
H595	H	1.229960	-0.103148	0.846101
H596	H	1.479960	0.146852	1.096101
H597	H	0.262246	-0.297158	0.157597
H598	H	0.512246	-0.047158	0.407597
H599	H	0.762246	0.202842	0.657597
H600	H	1.012246	0.452842	0.907597
N601	N	0.708810	-0.478663	0.321457
N602	N	0.958810	-0.228663	0.571457
N603	N	1.208810	0.021337	0.821457
N604	N	1.458810	0.271337	1.071457
H605	H	0.729649	-0.498122	0.300240
H606	H	0.979649	-0.248122	0.550240
H607	H	1.229649	0.001878	0.800240
H608	H	1.479649	0.251878	1.050240
H609	H	0.690517	-0.498106	0.345669
H610	H	0.940517	-0.248106	0.595669
H611	H	1.190517	0.001894	0.845669
H612	H	1.440517	0.251894	1.095669
H613	H	0.036382	-0.297165	0.157626
H614	H	0.286382	-0.047165	0.407626
H615	H	0.536382	0.202835	0.657626
H616	H	0.786382	0.452835	0.907626
H617	H	0.701354	-0.164264	0.550538
H618	H	0.951354	0.085736	0.800538
H619	H	1.201354	0.335736	1.050538
H620	H	1.451354	0.585736	1.300538
H621	H	0.729994	-0.743895	0.346130
H622	H	0.979994	-0.493895	0.596130
H623	H	1.229994	-0.243895	0.846130
H624	H	1.479994	0.006105	1.096130
N625	N	0.737721	-0.127914	0.695462
N626	N	0.987721	0.122086	0.945462
N627	N	1.237721	0.372086	1.195462
N628	N	1.487721	0.622086	1.445462
H629	H	0.755934	-0.109710	0.721057
H630	H	1.005934	0.140290	0.971057
H631	H	1.255934	0.390290	1.221057
H632	H	1.505934	0.640290	1.471057
H633	H	0.719447	-0.107126	0.672811
H634	H	0.969447	0.142874	0.922811
H635	H	1.219447	0.392874	1.172811
H636	H	1.469447	0.642874	1.422811
N637	N	0.484282	-0.276065	0.182240
N638	N	0.734282	-0.026065	0.432240
N639	N	0.984282	0.223935	0.682240
N640	N	1.234282	0.473935	0.932240
H641	H	0.476103	-0.308177	0.190281
H642	H	0.726103	-0.058177	0.440281
H643	H	0.976103	0.191823	0.690281
H644	H	1.226103	0.441823	0.940281
H645	H	0.517559	-0.271670	0.187339
H646	H	0.767559	-0.021670	0.437339
H647	H	1.017559	0.228330	0.687339
H648	H	1.267559	0.478330	0.937339
N649	N	0.560755	-0.597203	0.148874
N650	N	0.810755	-0.347203	0.398874
N651	N	1.060755	-0.097203	0.648874
N652	N	1.310755	0.152797	0.898874
H653	H	0.579021	-0.577734	0.124660
H654	H	0.829021	-0.327734	0.374660
H655	H	1.079021	-0.077734	0.624660
H656	H	1.329021	0.172266	0.874660
H657	H	0.539923	-0.577769	0.170128
H658	H	0.789923	-0.327769	0.420128
H659	H	1.039923	-0.077769	0.670128
H660	H	1.289923	0.172231	0.920128
N661	N	0.484405	-0.156808	0.321525
N662	N	0.734405	0.093192	0.571525
N663	N	0.984405	0.343192	0.821525
N664	N	1.234405	0.593192	1.071525
H665	H	0.503864	-0.175097	0.345713
H666	H	0.753864	0.074903	0.595713
H667	H	1.003864	0.324903	0.845713
H668	H	1.253864	0.574903	1.095713
H669	H	0.462412	-0.138641	0.342712
H670	H	0.712412	0.111359	0.592712
H671	H	0.962412	0.361359	0.842712
H672	H	1.212412	0.611359	1.092712
N673	N	0.386888	-0.156804	0.321533
N674	N	0.636888	0.093196	0.571533
N675	N	0.886888	0.343196	0.821533
N676	N	1.136888	0.593196	1.071533
H677	H	0.367429	-0.135954	0.300338
H678	H	0.617429	0.114046	0.550338
H679	H	0.867429	0.364046	0.800338
H680	H	1.117429	0.614046	1.050338
H681	H	0.408918	-0.138664	0.342748
H682	H	0.658918	0.111336	0.592748
H683	H	0.908918	0.361336	0.842748
H684	H	1.158918	0.611336	1.092748
N685	N	0.737738	-0.127891	0.808942
N686	N	0.987738	0.122109	1.058942
N687	N	1.237738	0.372109	1.308942
N688	N	1.487738	0.622109	1.558942
H689	H	0.733387	-0.132239	0.847676
H690	H	0.983387	0.117761	1.097676
H691	H	1.233387	0.367761	1.347676
H692	H	1.483387	0.617761	1.597676
H693	H	0.730769	-0.095808	0.799404
H694	H	0.980769	0.154192	1.049404
H695	H	1.230769	0.404192	1.299404
H696	H	1.480769	0.654192	1.549404
H697	H	0.729980	-0.688254	0.346120
H698	H	0.979980	-0.438254	0.596120
H699	H	1.229980	-0.188254	0.846120
H700	H	1.479980	0.061746	1.096120
H701	H	0.701413	-0.164162	1.052900
H702	H	0.951413	0.085838	1.302900
H703	H	1.201413	0.335838	1.552900
H704	H	1.451413	0.585838	1.802900
N705	N	0.589488	-0.276006	1.060051
N706	N	0.839488	-0.026006	1.310051
N707	N	1.089488	0.223994	1.560051
N708	N	1.339488	0.473994	1.810051
H709	H	0.568683	-0.257744	1.082705
H710	H	0.818683	-0.007744	1.332705
H711	H	1.068683	0.242256	1.582705
H712	H	1.318683	0.492256	1.832705
H713	H	0.607760	-0.296819	1.082675
H714	H	0.857760	-0.046819	1.332675
H715	H	1.107760	0.203181	1.582675
H716	H	1.357760	0.453181	1.832675
H717	H	0.701363	-1.044887	0.312706
H718	H	0.951363	-0.794887	0.562706
H719	H	1.201363	-0.544887	0.812706
H720	H	1.451363	-0.294887	1.062706
N721	N	0.589426	-0.381342	0.182285
N722	N	0.839426	-0.131342	0.432285
N723	N	1.089426	0.118658	0.682285
N724	N	1.339426	0.368658	0.932285
H725	H	0.593777	-0.348054	0.187361
H726	H	0.843777	-0.098054	0.437361
H727	H	1.093777	0.151946	0.687361
H728	H	1.343777	0.401946	0.937361
H729	H	0.557337	-0.389565	0.190388
H730	H	0.807337	-0.139565	0.440388
H731	H	1.057337	0.110435	0.690388
H732	H	1.307337	0.360435	0.940388
N733	N	0.589433	-0.276110	0.557730
N734	N	0.839433	-0.026110	0.807730
N735	N	1.089433	0.223890	1.057730
N736	N	1.339433	0.473890	1.307730
H737	H	0.596383	-0.308213	0.548230
H738	H	0.846383	-0.058213	0.798230
H739	H	1.096383	0.191787	1.048230
H740	H	1.346383	0.441787	1.298230
H741	H	0.557350	-0.269094	0.548211
H742	H	0.807350	-0.019094	0.798211
H743	H	1.057350	0.230906	1.048211
H744	H	1.307350	0.480906	1.298211
H745	H	-0.094201	-0.164387	0.312716
H746	H	0.155799	0.085613	0.562716
H747	H	0.405799	0.335613	0.812716
H748	H	0.655799	0.585613	1.062716
H749	H	0.597071	-0.268431	0.953792
H750	H	0.847071	-0.018431	1.203792
H751	H	1.097071	0.231569	1.453792
H752	H	1.347071	0.481569	1.703792
N753	N	0.386753	-0.276068	0.182255
N754	N	0.636753	-0.026068	0.432255
N755	N	0.886753	0.223932	0.682255
N756	N	1.136753	0.473932	0.932255
H757	H	0.394896	-0.308178	0.190301
H758	H	0.644896	-0.058178	0.440301
H759	H	0.894896	0.191822	0.690301
H760	H	1.144896	0.441822	0.940301
H761	H	0.394924	-0.269006	0.144928
H762	H	0.644924	-0.019006	0.394928
H763	H	0.894924	0.230994	0.644928
H764	H	1.144924	0.480994	0.894928
H765	H	-0.179323	-0.164390	0.312718
H766	H	0.070677	0.085610	0.562718
H767	H	0.320677	0.335610	0.812718
H768	H	0.570677	0.585610	1.062718
H769	H	0.568278	-0.297199	0.702595
H770	H	0.818278	-0.047199	0.952595
H771	H	1.068278	0.202801	1.202595
H772	H	1.318278	0.452801	1.452595
N773	N	0.589595	-1.051252	0.182411
N774	N	0.839595	-0.801252	0.432411
N775	N	1.089595	-0.551252	0.682411
N776	N	1.339595	-0.301252	0.932411
H777	H	0.593958	-1.084528	0.187491
H778	H	0.843958	-0.834528	0.437491
H779	H	1.093958	-0.584528	0.687491
H780	H	1.343958	-0.334528	0.937491
H781	H	0.596607	-1.043062	0.145078
H782	H	0.846607	-0.793062	0.395078
H783	H	1.096607	-0.543062	0.645078
H784	H	1.346607	-0.293062	0.895078
H785	H	0.701346	-0.959765	0.312693
H786	H	0.951346	-0.709765	0.562693
H787	H	1.201346	-0.459765	0.812693
H788	H	1.451346	-0.209765	1.062693
H789	H	0.701198	-0.387370	0.312582
H790	H	0.951198	-0.137370	0.562582
H791	H	1.201198	0.112630	0.812582
H792	H	1.451198	0.362630	1.062582
N793	N	0.127863	-0.128112	0.355050
N794	N	0.377863	0.121888	0.605050
N795	N	0.627863	0.371888	0.855050
N796	N	0.877863	0.621888	1.105050
H797	H	0.105896	-0.109940	0.376271
H798	H	0.355896	0.140060	0.626271
H799	H	0.605896	0.390060	0.876271
H800	H	0.855896	0.640060	1.126271
H801	H	0.147337	-0.107291	0.333816
H802	H	0.397337	0.142709	0.583816
H803	H	0.647337	0.392709	0.833816
H804	H	0.897337	0.642709	1.083816
H805	H	-0.094311	-0.268486	0.191138
H806	H	0.155689	-0.018486	0.441138
H807	H	0.405689	0.231514	0.691138
H808	H	0.655689	0.481514	0.941138
H809	H	0.597020	-0.268544	0.451437
H810	H	0.847020	-0.018544	0.701437
H811	H	1.097020	0.231456	0.951437
H812	H	1.347020	0.481456	1.201437
H813	H	0.177295	-0.135693	0.346191
H814	H	0.427295	0.114307	0.596191
H815	H	0.677295	0.364307	0.846191
H816	H	0.927295	0.614307	1.096191
N817	N	0.268610	-0.128113	0.355042
N818	N	0.518610	0.121887	0.605042
N819	N	0.768610	0.371887	0.855042
N820	N	1.018610	0.621887	1.105042
H821	H	0.246642	-0.109942	0.376262
H822	H	0.496642	0.140058	0.626262
H823	H	0.746642	0.390058	0.876262
H824	H	0.996642	0.640058	1.126262
H825	H	0.288082	-0.107294	0.333806
H826	H	0.538082	0.142706	0.583806
H827	H	0.788082	0.392706	0.833806
H828	H	1.038082	0.642706	1.083806
N829	N	0.560772	-0.694707	0.148893
N830	N	0.810772	-0.444707	0.398893
N831	N	1.060772	-0.194707	0.648893
N832	N	1.310772	0.055293	0.898893
H833	H	0.539944	-0.714178	0.170123
H834	H	0.789944	-0.464178	0.420123
H835	H	1.039944	-0.214178	0.670123
H836	H	1.289944	0.035822	0.920123
H837	H	0.579070	-0.714145	0.124687
H838	H	0.829070	-0.464145	0.374687
H839	H	1.079070	-0.214145	0.624687
H840	H	1.329070	0.035855	0.874687
N841	N	-0.185629	-0.276074	0.182301
N842	N	0.064371	-0.026074	0.432301
N843	N	0.314371	0.223926	0.682301
N844	N	0.564371	0.473926	0.932301
H845	H	-0.163664	-0.294244	0.161076
H846	H	0.086336	-0.044244	0.411076
H847	H	0.336336	0.205756	0.661076
H848	H	0.586336	0.455756	0.911076
H849	H	-0.205092	-0.257757	0.158147
H850	H	0.044908	-0.007757	0.408147
H851	H	0.294908	0.242243	0.658147
H852	H	0.544908	0.492243	0.908147
N853	N	0.589570	-0.953739	0.182394
N854	N	0.839570	-0.703739	0.432394
N855	N	1.089570	-0.453739	0.682394
N856	N	1.339570	-0.203739	0.932394
H857	H	0.557468	-0.961933	0.190475
H858	H	0.807468	-0.711933	0.440475
H859	H	1.057468	-0.461933	0.690475
H860	H	1.307468	-0.211933	0.940475
H861	H	0.596615	-0.961931	0.145063
H862	H	0.846615	-0.711931	0.395063
H863	H	1.096615	-0.461931	0.645063
H864	H	1.346615	-0.211931	0.895063
N865	N	0.170928	-0.304744	0.148748
N866	N	0.420928	-0.054744	0.398748
N867	N	0.670928	0.195256	0.648748
N868	N	0.920928	0.445256	0.898748
H869	H	0.192896	-0.322911	0.127523
H870	H	0.442896	-0.072911	0.377523
H871	H	0.692896	0.177089	0.627523
H872	H	0.942896	0.427089	0.877523
H873	H	0.151468	-0.286423	0.124594
H874	H	0.401468	-0.036423	0.374594
H875	H	0.651468	0.213577	0.624594
H876	H	0.901468	0.463577	0.874594
N877	N	0.737602	-0.835194	0.354998
N878	N	0.987602	-0.585194	0.604998
N879	N	1.237602	-0.335194	0.854998
N880	N	1.487602	-0.085194	1.104998
H881	H	0.758438	-0.854655	0.333780
H882	H	1.008438	-0.604655	0.583780
H883	H	1.258438	-0.354655	0.833780
H884	H	1.508438	-0.104655	1.083780
H885	H	0.719300	-0.854636	0.379202
H886	H	0.969300	-0.604636	0.629202
H887	H	1.219300	-0.354636	0.879202
H888	H	1.469300	-0.104636	1.129202
N889	N	0.560825	-0.835469	0.148914
N890	N	0.810825	-0.585469	0.398914
N891	N	1.060825	-0.335469	0.648914
N892	N	1.310825	-0.085469	0.898914
H893	H	0.542633	-0.813513	0.127710
H894	H	0.792633	-0.563513	0.377710
H895	H	1.042633	-0.313513	0.627710
H896	H	1.292633	-0.063513	0.877710
H897	H	0.540026	-0.854940	0.170178
H898	H	0.790026	-0.604940	0.420178
H899	H	1.040026	-0.354940	0.670178
H900	H	1.290026	-0.104940	0.920178
H901	H	0.568390	-0.744147	0.157746
H902	H	0.818390	-0.494147	0.407746
H903	H	1.068390	-0.244147	0.657746
H904	H	1.318390	0.005853	0.907746
N905	N	0.127682	-0.304744	0.148763
N906	N	0.377682	-0.054744	0.398763
N907	N	0.627682	0.195256	0.648763
N908	N	0.877682	0.445256	0.898763
H909	H	0.105679	-0.322916	0.127545
H910	H	0.355679	-0.072916	0.377545
H911	H	0.605679	0.177084	0.627545
H912	H	0.855679	0.427084	0.877545
H913	H	0.147140	-0.325564	0.169996
H914	H	0.397140	-0.075564	0.419996
H915	H	0.647140	0.174436	0.669996
H916	H	0.897140	0.424436	0.919996
