data_functionalizedCrystal
_audit_creation_method	'MofGen! by Chris Wilmer'
_symmetry_space_group_name_H-M	'P1'
_symmetry_Int_Tables_number	1
_symmetry_cell_setting	triclinic
loop_
_symmetry_equiv_pos_as_xyz
  x,y,z
_cell_length_a	21.295419
_cell_length_b	29.839131
_cell_length_c	21.295411
_cell_angle_alpha	90.016194
_cell_angle_beta	90.024539
_cell_angle_gamma	90.056504
loop_
_atom_site_label
_atom_site_type_symbol
_atom_site_fract_x
_atom_site_fract_y
_atom_site_fract_z
Zn1	Zn	0.962307	-0.178727	0.355935
Zn2	Zn	1.462307	0.321273	0.855935
Zn3	Zn	0.962188	-0.253843	0.250670
Zn4	Zn	1.462188	0.246157	0.750670
Zn5	Zn	0.857030	-0.178747	0.250680
Zn6	Zn	1.357030	0.321253	0.750680
Zn7	Zn	0.856979	-0.253850	0.355902
Zn8	Zn	1.356979	0.246150	0.855902
O9	O	0.909626	-0.216292	0.303297
O10	O	1.409626	0.283708	0.803297
O11	O	1.050380	-0.188680	0.341981
O12	O	1.550380	0.311320	0.841981
O13	O	0.948211	-0.243886	0.162582
O14	O	1.448211	0.256114	0.662582
O15	O	0.871066	-0.115877	0.264660
O16	O	1.371066	0.384123	0.764660
O17	O	1.050293	-0.243867	0.264644
O18	O	1.550293	0.256133	0.764644
O19	O	0.948412	-0.115863	0.341990
O20	O	1.448412	0.384137	0.841990
O21	O	0.870951	-0.188714	0.162589
O22	O	1.370951	0.311286	0.662589
O23	O	0.768934	-0.188721	0.264628
O24	O	1.268934	0.311279	0.764628
O25	O	0.870979	-0.243880	0.443996
O26	O	1.370979	0.256120	0.943996
O27	O	0.768896	-0.243899	0.341934
O28	O	1.268896	0.256101	0.841934
O29	O	0.948363	-0.188687	0.444020
O30	O	1.448363	0.311313	0.944020
O31	O	0.948161	-0.316711	0.264612
O32	O	1.448161	0.183289	0.764612
O33	O	0.870864	-0.316716	0.341925
O34	O	1.370864	0.183284	0.841925
C35	C	0.746074	-0.216313	0.303279
C36	C	1.246074	0.283687	0.803279
C37	C	0.676106	-0.216333	0.303287
C38	C	1.176106	0.283667	0.803287
C39	C	0.643307	-0.187644	0.343618
C40	C	1.143307	0.312356	0.843618
C41	C	0.577565	-0.187632	0.343621
C42	C	1.077565	0.312368	0.843621
C43	C	0.544624	-0.216317	0.303298
C44	C	1.044624	0.283683	0.803298
C45	C	0.577431	-0.245008	0.262958
C46	C	1.077431	0.254992	0.762958
C47	C	0.643172	-0.245016	0.262953
C48	C	1.143172	0.254984	0.762953
N49	N	0.441337	-0.255624	0.298384
N50	N	0.941337	0.244376	0.798384
N51	N	0.378886	-0.255615	0.298393
N52	N	0.878886	0.244385	0.798393
C53	C	0.346549	-0.216294	0.303312
C54	C	0.846549	0.283706	0.803312
N55	N	0.379023	-0.176981	0.308234
N56	N	0.879023	0.323019	0.808234
N57	N	0.441480	-0.176990	0.308228
N58	N	0.941480	0.323010	0.808228
C59	C	0.473338	-0.216311	0.303299
C60	C	0.973338	0.283689	0.803299
C61	C	0.242464	-0.187590	0.343649
C62	C	0.742464	0.312410	0.843649
C63	C	0.176721	-0.187577	0.343647
C64	C	0.676721	0.312423	0.843647
C65	C	0.176588	-0.244957	0.262987
C66	C	0.676588	0.255043	0.762987
C67	C	0.242330	-0.244965	0.262986
C68	C	0.742330	0.255035	0.762986
C69	C	0.275265	-0.216282	0.303320
C70	C	0.775265	0.283718	0.803320
C71	C	0.909511	-0.333014	0.303278
C72	C	1.409511	0.166986	0.803278
C73	C	0.909520	-0.382949	0.303290
C74	C	1.409520	0.117051	0.803290
C75	C	0.869403	-0.739554	0.343551
C76	C	1.369403	-0.239554	0.843551
C77	C	0.869320	-0.551881	0.343531
C78	C	1.369320	-0.051881	0.843531
O79	O	0.835074	-0.527633	0.377751
O80	O	1.335074	-0.027633	0.877751
N81	N	0.909587	-0.528394	0.303309
N82	N	1.409587	-0.028394	0.803309
C83	C	0.949880	-0.551827	0.263092
C84	C	1.449880	-0.051827	0.763092
O85	O	0.984132	-0.527544	0.228884
O86	O	1.484132	-0.027544	0.728884
C87	C	0.949966	-0.739500	0.263115
C88	C	1.449966	-0.239500	0.763115
C89	C	0.909692	-0.762985	0.303336
C90	C	1.409692	-0.262985	0.803336
C91	C	0.829133	-0.763040	0.383769
C92	C	1.329133	-0.263040	0.883769
C93	C	0.829152	-0.809955	0.383771
C94	C	1.329152	-0.309955	0.883771
C95	C	0.869441	-0.833385	0.343555
C96	C	1.369441	-0.333385	0.843555
C97	C	0.909711	-0.809900	0.303338
C98	C	1.409711	-0.309900	0.803338
C99	C	0.990262	-0.762932	0.222901
C100	C	1.490262	-0.262932	0.722901
C101	C	0.990281	-0.809853	0.222912
C102	C	1.490281	-0.309853	0.722912
C103	C	0.950007	-0.833338	0.263132
C104	C	1.450007	-0.333338	0.763132
C105	C	0.950018	-0.880246	0.263124
C106	C	1.450018	-0.380246	0.763124
N107	N	0.909752	-0.903733	0.303346
N108	N	1.409752	-0.403733	0.803346
C109	C	0.869463	-0.880303	0.343562
C110	C	1.369463	-0.380303	0.843562
C111	C	0.949831	-0.453297	0.263081
C112	C	1.449831	0.046703	0.763081
C113	C	0.949809	-0.406379	0.263075
C114	C	1.449809	0.093621	0.763075
C115	C	0.869250	-0.406436	0.343515
C116	C	1.369250	0.093564	0.843515
C117	C	0.869269	-0.453355	0.343519
C118	C	1.369269	0.046645	0.843519
C119	C	0.909564	-0.476784	0.303304
C120	C	1.409564	0.023216	0.803304
C121	C	0.869505	-0.978829	0.343563
C122	C	1.369505	-0.478829	0.843563
C123	C	0.869525	-1.025749	0.343560
C124	C	1.369525	-0.525749	0.843560
C125	C	0.950087	-1.025687	0.263122
C126	C	1.450087	-0.525687	0.763122
C127	C	0.950064	-0.978772	0.263122
C128	C	1.450064	-0.478772	0.763122
C129	C	0.909771	-0.955344	0.303348
C130	C	1.409771	-0.455344	0.803348
O131	O	0.984251	-0.904524	0.228928
O132	O	1.484251	-0.404524	0.728928
O133	O	0.835226	-0.904595	0.377774
O134	O	1.335226	-0.404595	0.877774
C135	C	0.869384	-0.692639	0.343549
C136	C	1.369384	-0.192639	0.843549
C137	C	0.909654	-0.669154	0.303331
C138	C	1.409654	-0.169154	0.803331
C139	C	0.949943	-0.692584	0.263116
C140	C	1.449943	-0.192584	0.763116
C141	C	0.909632	-0.622236	0.303325
C142	C	1.409632	-0.122236	0.803325
C143	C	0.869343	-0.598806	0.343540
C144	C	1.369343	-0.098806	0.843540
C145	C	0.829077	-0.622293	0.383763
C146	C	1.329077	-0.122293	0.883763
C147	C	0.829096	-0.669209	0.383765
C148	C	1.329096	-0.169209	0.883765
C149	C	0.990210	-0.669097	0.222893
C150	C	1.490210	-0.169097	0.722893
C151	C	0.990187	-0.622181	0.222894
C152	C	1.490187	-0.122181	0.722894
C153	C	0.949898	-0.598751	0.263110
C154	C	1.449898	-0.098751	0.763110
C155	C	1.073816	-0.216270	0.303315
C156	C	1.573816	0.283730	0.803315
C157	C	1.143784	-0.216261	0.303323
C158	C	1.643784	0.283739	0.803323
C159	C	0.909678	-0.216282	0.467487
C160	C	1.409678	0.283718	0.967487
C161	C	0.909700	-0.216278	0.537455
C162	C	1.409700	0.283722	1.037455
C163	C	0.909758	-0.099113	0.303330
C164	C	1.409758	0.400887	0.803330
C165	C	0.909814	-0.049179	0.303344
C166	C	1.409814	0.450821	0.803344
C167	C	0.909610	-0.216269	0.139745
C168	C	1.409610	0.283731	0.639745
C169	C	0.909710	-0.216146	0.069778
C170	C	1.409710	0.283854	0.569778
C171	C	0.949992	-0.187538	0.570336
C172	C	1.449992	0.312462	1.070336
C173	C	0.949992	-0.187519	0.636078
C174	C	1.449992	0.312481	1.136078
C175	C	0.909705	-0.216247	0.668938
C176	C	1.409705	0.283753	1.168938
C177	C	0.869405	-0.244989	0.636050
C178	C	1.369405	0.255011	1.136050
C179	C	0.869403	-0.245005	0.570308
C180	C	1.369403	0.254995	1.070308
N181	N	0.904838	-0.255549	0.772158
N182	N	1.404838	0.244451	1.272158
N183	N	0.904844	-0.255533	0.834610
N184	N	1.404844	0.244467	1.334610
C185	C	0.909709	-0.216202	0.867013
C186	C	1.409709	0.283798	1.367013
N187	N	0.914581	-0.176886	0.834605
N188	N	1.414581	0.323114	1.334605
N189	N	0.914578	-0.176903	0.772147
N190	N	1.414578	0.323097	1.272147
C191	C	0.909703	-0.216233	0.740223
C192	C	1.409703	0.283767	1.240223
C193	C	0.950003	-0.187438	0.971179
C194	C	1.450003	0.312562	1.471179
C195	C	0.949997	-0.187418	1.036922
C196	C	1.449997	0.312582	1.536922
C197	C	0.869414	-0.244893	1.036893
C198	C	1.369414	0.255107	1.536893
C199	C	0.869416	-0.244909	0.971150
C200	C	1.369416	0.255091	1.471150
C201	C	0.909714	-0.216182	0.938297
C202	C	1.409714	0.283818	1.438297
H203	H	0.149768	-0.268312	0.230156
H204	H	0.649768	0.231688	0.730156
C205	C	0.102840	-0.181419	0.428340
C206	C	0.602840	0.318581	0.928340
C207	C	0.140665	-0.156040	0.387983
C208	C	0.640665	0.343960	0.887983
H209	H	0.080579	-0.161949	0.455710
H210	H	0.580579	0.338051	0.955710
H211	H	0.128466	-0.201020	0.452364
H212	H	0.628466	0.298980	0.952364
H213	H	0.073817	-0.198496	0.404314
H214	H	0.573817	0.301504	0.904314
H215	H	0.169691	-0.138965	0.412009
H216	H	0.669691	0.361035	0.912009
H217	H	0.115037	-0.136431	0.363957
H218	H	0.615037	0.363569	0.863957
C219	C	0.744139	-0.162179	0.379431
C220	C	1.244139	0.337821	0.879431
C221	C	0.679508	-0.156115	0.387950
C222	C	1.179508	0.343885	0.887950
H223	H	0.766488	-0.142716	0.406802
H224	H	1.266488	0.357284	0.906802
H225	H	0.754899	-0.155559	0.337157
H226	H	1.254899	0.344441	0.837157
H227	H	0.754863	-0.192377	0.388567
H228	H	1.254863	0.307623	0.888567
H229	H	0.668784	-0.125918	0.378809
H230	H	1.168784	0.374082	0.878809
H231	H	0.668745	-0.162732	0.430233
H232	H	1.168745	0.337268	0.930233
C233	C	0.860602	-0.305357	0.897218
C234	C	1.360602	0.194643	1.397218
C235	C	0.825131	-0.276505	0.935003
C236	C	1.325131	0.223495	1.435003
H237	H	0.833258	-0.324861	0.874901
H238	H	1.333258	0.175139	1.374901
H239	H	0.888004	-0.322531	0.922877
H240	H	1.388004	0.177469	1.422877
H241	H	0.884593	-0.288245	0.868243
H242	H	1.384593	0.211755	1.368243
H243	H	0.801143	-0.293617	0.963982
H244	H	1.301143	0.206383	1.463982
H245	H	0.797718	-0.259330	0.909342
H246	H	1.297718	0.240670	1.409342
H247	H	0.982852	-0.959650	0.230365
H248	H	1.482852	-0.459650	0.730365
C249	C	0.584293	-0.130928	0.423365
C250	C	1.084293	0.369072	0.923365
C251	C	0.541502	-0.156100	0.387963
C252	C	1.041502	0.343900	0.887963
H253	H	0.562029	-0.111464	0.450743
H254	H	1.062029	0.388536	0.950743
H255	H	0.609943	-0.113712	0.395983
H256	H	1.109943	0.386288	0.895983
H257	H	0.609919	-0.150536	0.447386
H258	H	1.109919	0.349464	0.947386
H259	H	0.515878	-0.136492	0.363939
H260	H	1.015878	0.363508	0.863939
H261	H	0.515841	-0.173317	0.415348
H262	H	1.015841	0.326683	0.915348
H263	H	0.269036	-0.268329	0.230146
H264	H	0.769036	0.231671	0.730146
H265	H	0.550606	-0.268363	0.230127
H266	H	1.050606	0.231637	0.730127
C267	C	0.793408	-0.881897	0.419513
C268	C	1.293408	-0.381897	0.919513
C269	C	0.784890	-0.835766	0.427991
C270	C	1.284890	-0.335766	0.927991
H271	H	0.766079	-0.897829	0.446814
H272	H	1.266079	-0.397829	0.946814
H273	H	0.835697	-0.889543	0.428764
H274	H	1.335697	-0.389543	0.928764
H275	H	0.784213	-0.889606	0.377211
H276	H	1.284213	-0.389606	0.877211
H277	H	0.794089	-0.828057	0.470292
H278	H	1.294089	-0.328057	0.970292
H279	H	0.742591	-0.828118	0.418744
H280	H	1.242591	-0.328118	0.918744
H281	H	1.023097	-0.828927	0.190165
H282	H	1.523097	-0.328927	0.690165
C283	C	0.636436	-0.301733	0.183227
C284	C	1.136436	0.198267	0.683227
C285	C	0.679228	-0.276557	0.218622
C286	C	1.179228	0.223443	0.718622
H287	H	0.658698	-0.321208	0.155863
H288	H	1.158698	0.178792	0.655863
H289	H	0.610818	-0.282131	0.159197
H290	H	1.110818	0.217869	0.659197
H291	H	0.610776	-0.318941	0.210619
H292	H	1.110776	0.181059	0.710619
H293	H	0.704885	-0.259347	0.191230
H294	H	1.204885	0.240653	0.691230
H295	H	0.704857	-0.296162	0.242654
H296	H	1.204857	0.203838	0.742654
H297	H	0.269281	-0.164231	0.376487
H298	H	0.769281	0.335769	0.876487
C299	C	0.789895	-1.021085	0.423077
C300	C	1.289895	-0.521085	0.923077
C301	C	0.825257	-1.051563	0.387777
C302	C	1.325257	-0.551563	0.887777
H303	H	0.762571	-1.037021	0.450376
H304	H	1.262571	-0.537021	0.950376
H305	H	0.765825	-1.002815	0.395626
H306	H	1.265825	-0.502815	0.895626
H307	H	0.817311	-1.002754	0.447177
H308	H	1.317311	-0.502754	0.947177
H309	H	0.797842	-1.069892	0.363673
H310	H	1.297842	-0.569892	0.863673
H311	H	0.849329	-1.069840	0.415231
H312	H	1.349329	-0.569840	0.915231
H313	H	0.982805	-0.164146	0.543591
H314	H	1.482805	0.335854	1.043591
H315	H	0.836695	-0.959759	0.376319
H316	H	1.336695	-0.459759	0.876319
H317	H	0.982812	-0.164045	0.944428
H318	H	1.482812	0.335955	1.444428
C319	C	0.749502	-0.767821	0.463270
C320	C	1.249502	-0.267821	0.963270
C321	C	0.784838	-0.737290	0.427975
C322	C	1.284838	-0.237290	0.927975
H323	H	0.722149	-0.751926	0.490557
H324	H	1.222149	-0.251926	0.990557
H325	H	0.776926	-0.786085	0.487377
H326	H	1.276926	-0.286085	0.987377
H327	H	0.725456	-0.786153	0.435810
H328	H	1.225456	-0.286153	0.935810
H329	H	0.808888	-0.718960	0.455435
H330	H	1.308888	-0.218960	0.955435
H331	H	0.757410	-0.719019	0.403866
H332	H	1.257410	-0.219019	0.903866
C333	C	1.034676	-0.181261	0.710047
C334	C	1.534676	0.318739	1.210047
C335	C	0.994287	-0.155928	0.672231
C336	C	1.494287	0.344072	1.172231
H337	H	1.062020	-0.161758	0.732367
H338	H	1.562020	0.338242	1.232367
H339	H	1.058726	-0.200834	0.684409
H340	H	1.558726	0.299166	1.184409
H341	H	1.010671	-0.198365	0.739020
H342	H	1.510671	0.301635	1.239020
H343	H	1.018292	-0.138827	0.643255
H344	H	1.518292	0.361173	1.143255
H345	H	0.970235	-0.136347	0.697872
H346	H	1.470235	0.363653	1.197872
C347	C	0.789641	-0.448688	0.423030
C348	C	1.289641	0.051312	0.923030
C349	C	0.825005	-0.479167	0.387736
C350	C	1.325005	0.020833	0.887736
H351	H	0.762318	-0.464623	0.450333
H352	H	1.262318	0.035377	0.950333
H353	H	0.765570	-0.430422	0.395575
H354	H	1.265570	0.069578	0.895575
H355	H	0.817055	-0.430353	0.447127
H356	H	1.317055	0.069647	0.947127
H357	H	0.797592	-0.497500	0.363636
H358	H	1.297592	0.002500	0.863636
H359	H	0.849079	-0.497441	0.415194
H360	H	1.349079	0.002559	0.915194
H361	H	0.982596	-0.387261	0.230317
H362	H	1.482596	0.112739	0.730317
C363	C	0.833461	-0.334536	0.379224
C364	C	1.333461	0.165464	0.879224
C365	C	0.824968	-0.380676	0.387727
C366	C	1.324968	0.119324	0.887727
H367	H	0.806130	-0.318632	0.406523
H368	H	1.306130	0.181368	0.906523
H369	H	0.824259	-0.326871	0.336925
H370	H	1.324259	0.173129	0.836925
H371	H	0.875753	-0.326813	0.388469
H372	H	1.375753	0.173187	0.888469
H373	H	0.782677	-0.388399	0.378477
H374	H	1.282677	0.111601	0.878477
H375	H	0.834165	-0.388344	0.430035
H376	H	1.334165	0.111656	0.930035
C377	C	0.833639	-0.270491	0.736814
C378	C	1.333639	0.229509	1.236814
C379	C	0.825125	-0.276571	0.672167
C380	C	1.325125	0.223429	1.172167
H381	H	0.806303	-0.289991	0.759110
H382	H	1.306303	0.210009	1.259110
H383	H	0.824459	-0.240309	0.747581
H384	H	1.324459	0.259691	1.247581
H385	H	0.875930	-0.277058	0.747596
H386	H	1.375930	0.222942	1.247596
H387	H	0.782835	-0.270001	0.661384
H388	H	1.282835	0.229999	1.161384
H389	H	0.834301	-0.306760	0.661395
H390	H	1.334301	0.193240	1.161395
C391	C	1.029452	-0.448517	0.183563
C392	C	1.529452	0.051483	0.683563
C393	C	0.994122	-0.479047	0.218867
C394	C	1.494122	0.020953	0.718867
H395	H	1.056791	-0.464414	0.156263
H396	H	1.556791	0.035586	0.656263
H397	H	1.053507	-0.430190	0.211012
H398	H	1.553507	0.069810	0.711012
H399	H	1.002018	-0.430249	0.159463
H400	H	1.502018	0.069751	0.659463
H401	H	1.021556	-0.497313	0.242971
H402	H	1.521556	0.002687	0.742971
H403	H	0.970066	-0.497382	0.191415
H404	H	1.470066	0.002618	0.691415
C405	C	1.069908	-0.767609	0.143411
C406	C	1.569908	-0.267609	0.643411
C407	C	1.034540	-0.737126	0.178696
C408	C	1.534540	-0.237126	0.678696
H409	H	1.097249	-0.751676	0.116124
H410	H	1.597249	-0.251676	0.616124
H411	H	1.042502	-0.785936	0.119305
H412	H	1.542502	-0.285936	0.619305
H413	H	1.093967	-0.785882	0.170877
H414	H	1.593967	-0.285882	0.670877
H415	H	1.010478	-0.718854	0.151230
H416	H	1.510478	-0.218854	0.651230
H417	H	1.061949	-0.718791	0.202804
H418	H	1.561949	-0.218791	0.702804
C419	C	0.985859	-1.097588	0.227400
C420	C	1.485859	-0.597588	0.727400
C421	C	0.994356	-1.051448	0.218903
C422	C	1.494356	-0.551448	0.718903
H423	H	1.013189	-1.113492	0.200100
H424	H	1.513189	-0.613492	0.700100
H425	H	0.943571	-1.105308	0.218158
H426	H	1.443571	-0.605308	0.718158
H427	H	0.995064	-1.105257	0.269703
H428	H	1.495064	-0.605257	0.769703
H429	H	0.985146	-1.043779	0.176601
H430	H	1.485146	-0.543779	0.676601
H431	H	1.036653	-1.043725	0.228140
H432	H	1.536653	-0.543725	0.728140
C433	C	1.029661	-0.130618	1.030344
C434	C	1.529661	0.369382	1.530344
C435	C	0.994291	-0.155825	1.073067
C436	C	1.494291	0.344175	1.573067
H437	H	1.057009	-0.111116	1.052660
H438	H	1.557009	0.388884	1.552660
H439	H	1.002256	-0.113442	1.004691
H440	H	1.502256	0.386558	1.504691
H441	H	1.053712	-0.150202	1.004713
H442	H	1.553712	0.349798	1.504713
H443	H	0.970236	-0.136240	1.098695
H444	H	1.470236	0.363760	1.598695
H445	H	1.021699	-0.173002	1.098731
H446	H	1.521699	0.326998	1.598731
C447	C	0.833650	-0.270397	1.137652
C448	C	1.333650	0.229603	1.637652
C449	C	0.825137	-0.276477	1.073005
C450	C	1.325137	0.223523	1.573005
H451	H	0.806317	-0.289900	1.159947
H452	H	1.306317	0.210100	1.659947
H453	H	0.824463	-0.240216	1.148420
H454	H	1.324463	0.259784	1.648420
H455	H	0.875942	-0.276960	1.148434
H456	H	1.375942	0.223040	1.648434
H457	H	0.782846	-0.269911	1.062222
H458	H	1.282846	0.230089	1.562222
H459	H	0.834319	-0.306665	1.062233
H460	H	1.334319	0.193335	1.562233
C461	C	0.789755	-0.301817	0.576884
C462	C	1.289755	0.198183	1.076884
C463	C	0.825117	-0.276603	0.534162
C464	C	1.325117	0.223397	1.034162
H465	H	0.762420	-0.321327	0.554567
H466	H	1.262420	0.178673	1.054567
H467	H	0.765696	-0.282240	0.602509
H468	H	1.265696	0.217760	1.102509
H469	H	0.817169	-0.318988	0.602543
H470	H	1.317169	0.181012	1.102543
H471	H	0.797703	-0.259429	0.508507
H472	H	1.297703	0.240571	1.008507
H473	H	0.849178	-0.296182	0.508526
H474	H	1.349178	0.203818	1.008526
C475	C	0.793289	-0.550393	0.419470
C476	C	1.293289	-0.050393	0.919470
C477	C	0.784793	-0.596532	0.427971
C478	C	1.284793	-0.096532	0.927971
H479	H	0.765956	-0.534488	0.446766
H480	H	1.265956	-0.034488	0.946766
H481	H	0.784092	-0.542727	0.377171
H482	H	1.284092	-0.042727	0.877171
H483	H	0.835580	-0.542671	0.428720
H484	H	1.335580	-0.042671	0.928720
H485	H	0.742502	-0.604254	0.418717
H486	H	1.242502	-0.104254	0.918717
H487	H	0.793985	-0.604201	0.470281
H488	H	1.293985	-0.104201	0.970281
C489	C	1.069828	-0.626849	0.143389
C490	C	1.569828	-0.126849	0.643389
C491	C	1.034462	-0.596370	0.178680
C492	C	1.534462	-0.096370	0.678680
H493	H	1.097166	-0.610914	0.116100
H494	H	1.597166	-0.110914	0.616100
H495	H	1.042421	-0.645176	0.119283
H496	H	1.542421	-0.145176	0.619283
H497	H	1.093891	-0.645123	0.170850
H498	H	1.593891	-0.145123	0.670850
H499	H	1.010395	-0.578097	0.151219
H500	H	1.510395	-0.078097	0.651219
H501	H	1.061872	-0.578035	0.202788
H502	H	1.561872	-0.078035	0.702788
H503	H	0.796301	-0.688326	0.416517
H504	H	1.296301	-0.188326	0.916517
H505	H	1.023019	-0.688169	0.190145
H506	H	1.523019	-0.188169	0.690145
