data_functionalizedCrystal
_audit_creation_method	'MofGen! by Chris Wilmer'
_symmetry_space_group_name_H-M	'P1'
_symmetry_Int_Tables_number	1
_symmetry_cell_setting	triclinic
loop_
_symmetry_equiv_pos_as_xyz
  x,y,z
_cell_length_a	12.827893
_cell_length_b	19.121063
_cell_length_c	12.827885
_cell_angle_alpha	87.596033
_cell_angle_beta	90.019082
_cell_angle_gamma	92.469061
loop_
_atom_site_label
_atom_site_type_symbol
_atom_site_fract_x
_atom_site_fract_y
_atom_site_fract_z
Zn1	Zn	1.579836	-0.279576	0.608533
Zn2	Zn	1.572237	-0.397043	0.441226
Zn3	Zn	1.405075	-0.279610	0.433810
Zn4	Zn	1.397573	-0.396991	0.615924
O5	O	1.488680	-0.338305	0.524873
O6	O	1.725063	-0.295165	0.586351
O7	O	1.550022	-0.381501	0.294009
O8	O	1.434577	-0.181322	0.450791
O9	O	1.719480	-0.381468	0.463431
O10	O	1.562973	-0.181296	0.579159
O11	O	1.427209	-0.295224	0.288560
O12	O	1.257844	-0.295174	0.457957
O13	O	1.421791	-0.381379	0.761177
O14	O	1.252332	-0.381413	0.591755
O15	O	1.555699	-0.295115	0.755748
O16	O	1.542747	-0.495320	0.470597
O17	O	1.414422	-0.495282	0.598946
C18	C	1.217171	-0.338292	0.524854
C19	C	1.101017	-0.338303	0.524871
C20	C	0.926483	-0.381054	0.591001
C21	C	1.046534	-0.381044	0.590985
C22	C	1.476974	-0.520785	0.536401
C23	C	1.472062	-0.598850	0.541368
C24	C	1.536618	-0.635522	0.476932
C25	C	1.532005	-0.708873	0.481609
C26	C	1.462829	-0.745551	0.550718
C27	C	1.398270	-0.708874	0.615161
C28	C	1.402890	-0.635524	0.610488
C29	C	1.445540	-0.967020	0.568172
C30	C	1.440923	-1.040375	0.572837
C31	C	1.574660	-1.040369	0.439286
C32	C	1.579269	-0.967018	0.434615
C33	C	1.514714	-0.930347	0.499062
C34	C	1.458109	-0.820528	0.555498
C35	C	1.519440	-0.855372	0.494287
C36	C	1.761249	-0.338318	0.524894
C37	C	1.877402	-0.338324	0.524903
C38	C	1.488755	-0.338237	0.797439
C39	C	1.488787	-0.338209	0.913591
C40	C	1.500460	-0.155112	0.513323
C41	C	1.505480	-0.077047	0.508401
C42	C	1.488668	-0.338321	0.253364
C43	C	1.488851	-0.338152	0.137201
C44	C	1.555057	-0.295514	0.962688
C45	C	1.555092	-0.295483	1.082737
H46	H	0.924259	-0.301736	0.468298
H47	H	1.432071	-0.374734	0.960432
O48	O	1.045119	-0.289837	0.449901
H49	H	1.065217	-0.301803	0.368592
H50	H	1.611830	-0.258933	1.124970
O51	O	1.630179	-0.247121	0.900655
H52	H	1.711446	-0.259150	0.922315
H53	H	1.401784	-0.850399	0.611764
H54	H	1.592944	-0.605664	0.420652
H55	H	1.350323	-0.605667	0.662960
O56	O	1.601626	-0.748430	0.412105
H57	H	1.650493	-0.710603	0.363254
O58	O	1.413666	-0.386563	1.081283
H59	H	1.428015	-0.441698	1.105639
O60	O	0.864431	-0.429525	0.665987
H61	H	0.779876	-0.421923	0.654239
H62	H	1.635597	-0.937156	0.378342
O63	O	1.102444	-0.429496	0.665965
H64	H	1.187963	-0.421882	0.654189
O65	O	1.644315	-1.079919	0.369808
H66	H	1.629500	-1.137085	0.384678
H67	H	1.384605	-1.070236	0.629132
H68	H	1.392975	-0.937168	0.620645
O69	O	1.323644	-0.748428	0.689691
H70	H	1.331264	-0.805594	0.682104
H71	H	1.575767	-0.825507	0.438022
