data_functionalizedCrystal
_audit_creation_method	'MofGen! by Chris Wilmer'
_symmetry_space_group_name_H-M	'P1'
_symmetry_Int_Tables_number	1
_symmetry_cell_setting	triclinic
loop_
_symmetry_equiv_pos_as_xyz
  x,y,z
_cell_length_a	11.026607
_cell_length_b	11.892095
_cell_length_c	11.026607
_cell_angle_alpha	94.748248
_cell_angle_beta	71.413983
_cell_angle_gamma	94.755027
loop_
_atom_site_label
_atom_site_type_symbol
_atom_site_fract_x
_atom_site_fract_y
_atom_site_fract_z
O1	O	1.733101	0.094001	-0.527257
O2	O	2.233101	0.594001	-0.027257
O3	O	1.366522	0.094003	-0.466493
O4	O	1.866522	0.594003	0.033507
O5	O	1.519429	0.093998	-0.313585
O6	O	2.019429	0.593998	0.186415
O7	O	1.580194	0.094006	-0.680165
O8	O	2.080194	0.594006	-0.180165
O9	O	1.506675	-0.094009	-0.326309
O10	O	2.006675	0.405991	0.173691
O11	O	1.353767	-0.094005	-0.479217
O12	O	1.853767	0.405995	0.020783
O13	O	1.720347	-0.094006	-0.539981
O14	O	2.220347	0.405994	-0.039981
Zn15	Zn	1.535032	-0.123856	-0.511619
Zn16	Zn	2.035032	0.376144	-0.011619
Zn17	Zn	1.551837	0.123852	-0.494855
Zn18	Zn	2.051837	0.623852	0.005145
O19	O	1.567439	-0.094002	-0.692889
O20	O	2.067439	0.405998	-0.192889
C21	C	1.312485	-0.000001	-0.461645
C22	C	1.812485	0.499999	0.038355
C23	C	1.170471	-0.000000	-0.428228
C24	C	1.670471	0.500000	0.071772
N25	N	1.523572	-0.292909	-0.523062
N26	N	2.023572	0.207091	-0.023062
C27	C	1.116822	0.000003	-0.520498
C28	C	1.616822	0.500003	-0.020498
C29	C	0.970043	0.000003	-0.485962
C30	C	1.470043	0.500003	0.014038
C31	C	1.643030	-0.529561	-0.403709
C32	C	2.143030	-0.029561	0.096291
C33	C	1.635031	-0.647903	-0.411718
C34	C	2.135031	-0.147903	0.088282
C35	C	1.499568	-0.647936	-0.547082
C36	C	1.999568	-0.147936	-0.047082
C37	C	1.507567	-0.529595	-0.539073
C38	C	2.007567	-0.029595	-0.039073
C39	C	1.579302	-0.470411	-0.467385
C40	C	2.079302	0.029589	0.032615
C41	C	1.587308	-0.352067	-0.459384
C42	C	2.087308	0.147933	0.040616
C43	C	1.451838	-0.352103	-0.594740
C44	C	1.951838	0.147897	-0.094740
C45	C	1.443839	-0.470445	-0.602749
C46	C	1.943839	0.029555	-0.102749
C47	C	1.774384	-0.000001	-0.544829
C48	C	2.274384	0.499999	-0.044829
C49	C	1.916398	0.000006	-0.578245
C50	C	2.416398	0.500006	-0.078245
C51	C	1.501842	-0.000004	-0.272288
C52	C	2.001842	0.499996	0.227712
C53	C	1.468426	-0.000000	-0.130273
C54	C	1.968426	0.500000	0.369727
N55	N	1.563304	0.292906	-0.483404
N56	N	2.063304	0.792906	0.016596
C57	C	1.585026	0.000003	-0.734186
C58	C	2.085026	0.500003	-0.234186
C59	C	1.618443	0.000006	-0.876200
C60	C	2.118443	0.500006	-0.376200
C61	C	1.560695	0.000001	-0.076624
C62	C	2.060695	0.500001	0.423376
C63	C	1.526160	0.000005	0.070155
C64	C	2.026160	0.500005	0.570155
H65	H	1.179554	-0.000002	-0.625061
H66	H	1.679554	0.499998	-0.125061
H67	H	1.701450	-0.481373	-0.345348
H68	H	2.201450	0.018627	0.154652
H69	H	1.686923	-0.696059	-0.359865
H70	H	2.186923	-0.196059	0.140135
C71	C	1.420665	-0.713051	-0.625926
C72	C	1.920665	-0.213051	-0.125926
H73	H	1.425036	-0.792002	-0.621576
H74	H	1.925036	-0.292002	-0.121576
H75	H	1.333899	-0.693673	-0.592156
H76	H	1.833899	-0.193673	-0.092156
H77	H	1.454405	-0.693662	-0.712702
H78	H	1.954405	-0.193662	-0.212702
H79	H	1.363863	0.000008	-0.067540
H80	H	1.863863	0.500008	0.432460
H81	H	1.385430	-0.518646	-0.661112
H82	H	1.885430	-0.018646	-0.161112
H83	H	1.665258	-0.000007	-0.139358
H84	H	2.165258	0.499993	0.360642
H85	H	0.979125	0.000001	-0.682816
H86	H	1.479125	0.500001	-0.182816
C87	C	1.381752	-0.287037	-0.664805
C88	C	1.881752	0.212963	-0.164805
H89	H	1.396789	-0.208080	-0.649770
H90	H	1.896789	0.291920	-0.149770
H91	H	1.412873	-0.306440	-0.754193
H92	H	1.912873	0.193560	-0.254193
H93	H	1.292354	-0.306437	-0.633660
H94	H	1.792354	0.193563	-0.133660
H95	H	1.645722	-0.303881	-0.401016
H96	H	2.145722	0.196119	0.098984
C97	C	1.384896	0.000007	0.154886
C98	C	1.884896	0.500007	0.654886
H99	H	1.380215	0.000002	0.242422
H100	H	1.880215	0.500002	0.742422
H101	H	1.348109	0.065567	0.141693
H102	H	1.848109	0.565567	0.641693
H103	H	1.339218	-0.065566	0.132828
H104	H	1.839218	0.434434	0.632828
C105	C	1.085736	0.000003	-0.286971
C106	C	1.585736	0.500003	0.213029
H107	H	0.998201	0.000013	-0.282289
H108	H	1.498201	0.500013	0.217711
H109	H	1.098911	-0.065557	-0.250168
H110	H	1.598911	0.434443	0.249832
H111	H	1.107811	0.065576	-0.241308
H112	H	1.607811	0.565576	0.258692
H113	H	0.907316	0.000030	-0.381391
H114	H	1.407316	0.500030	0.118609
C115	C	1.759708	-0.000005	0.039071
C116	C	2.259708	0.499995	0.539071
H117	H	1.764390	-0.000017	-0.048467
H118	H	2.264390	0.499983	0.451533
H119	H	1.805397	0.065553	0.061127
H120	H	2.305397	0.565553	0.561127
H121	H	1.796479	-0.065579	0.052266
H122	H	2.296479	0.434421	0.552266
