data_functionalizedCrystal
_audit_creation_method	'MofGen! by Chris Wilmer'
_symmetry_space_group_name_H-M	'P1'
_symmetry_Int_Tables_number	1
_symmetry_cell_setting	triclinic
loop_
_symmetry_equiv_pos_as_xyz
  x,y,z
_cell_length_a	13.897448
_cell_length_b	17.639051
_cell_length_c	17.640968
_cell_angle_alpha	87.821963
_cell_angle_beta	78.768361
_cell_angle_gamma	78.810652
loop_
_atom_site_label
_atom_site_type_symbol
_atom_site_fract_x
_atom_site_fract_y
_atom_site_fract_z
Zn1	Zn	-0.643926	1.247625	-0.194508
Zn2	Zn	-0.143926	1.747625	0.305492
Zn3	Zn	-0.830211	1.221873	-0.067537
Zn4	Zn	-0.330211	1.721873	0.432463
Zn5	Zn	-0.631278	1.094981	-0.093224
Zn6	Zn	-0.131278	1.594981	0.406776
Zn7	Zn	-0.767508	1.120626	-0.220166
Zn8	Zn	-0.267508	1.620626	0.279834
O9	O	-0.718231	1.171276	-0.143859
O10	O	-0.218231	1.671276	0.356141
O11	O	-0.700172	1.350464	-0.156178
O12	O	-0.200172	1.850464	0.343822
O13	O	-0.824771	1.183531	0.035319
O14	O	-0.324771	1.683531	0.535319
O15	O	-0.497982	1.115275	-0.106672
O16	O	0.002018	1.615275	0.393328
O17	O	-0.837035	1.331544	-0.062893
O18	O	-0.337035	1.831544	0.437107
O19	O	-0.507274	1.227422	-0.181085
O20	O	-0.007274	1.727422	0.318915
O21	O	-0.678616	1.090303	0.016447
O22	O	-0.178616	1.590303	0.516447
O23	O	-0.617814	0.992128	-0.131551
O24	O	-0.117814	1.492128	0.368449
O25	O	-0.730166	1.158982	-0.323025
O26	O	-0.230166	1.658982	0.176975
O27	O	-0.717902	1.010969	-0.224814
O28	O	-0.217902	1.510969	0.275186
O29	O	-0.639371	1.252288	-0.304175
O30	O	-0.139371	1.752288	0.195825
O31	O	-0.956867	1.208397	-0.087771
O32	O	-0.456867	1.708397	0.412229
O33	O	-0.910799	1.134011	-0.199907
O34	O	-0.410799	1.634011	0.300093
C35	C	-0.968833	1.171216	-0.143848
C36	C	-0.468833	1.671216	0.356152
C37	C	-1.076057	1.171265	-0.143855
C38	C	-0.576057	1.671265	0.356145
C39	C	-0.659682	0.973998	-0.183755
C40	C	-0.159682	1.473998	0.316245
C41	C	-0.634654	0.889605	-0.200840
C42	C	-0.134654	1.389605	0.299160
C43	C	-0.679184	1.211369	-0.341924
C44	C	-0.179184	1.711369	0.158076
C45	C	-0.662545	1.228454	-0.426327
C46	C	-0.162545	1.728454	0.073673
C47	C	-1.272367	1.171355	-0.143886
C48	C	-0.772367	1.671355	0.356114
C49	C	-1.163125	1.171303	-0.143872
C50	C	-0.663125	1.671303	0.356128
C51	C	-0.466653	1.171360	-0.143882
C52	C	0.033347	1.671360	0.356118
C53	C	-0.359445	1.171396	-0.143892
C54	C	0.140555	1.671396	0.356108
C55	C	-0.777009	1.369325	-0.103808
C56	C	-0.277009	1.869325	0.396192
C57	C	-0.802056	1.453721	-0.086740
C58	C	-0.302056	1.953721	0.413260
C59	C	-0.908610	1.562826	-0.014120
C60	C	-0.408610	2.062826	0.485880
C61	C	-0.885066	1.483523	-0.030163
C62	C	-0.385066	1.983523	0.469837
C63	C	-0.742555	1.503216	-0.127294
C64	C	-0.242555	2.003216	0.372706
C65	C	-0.766084	1.582521	-0.111256
C66	C	-0.266084	2.082521	0.388744
C67	C	-0.849113	1.612319	-0.054669
C68	C	-0.349113	2.112319	0.445331
C69	C	-0.706588	1.632014	-0.151805
C70	C	-0.206588	2.132014	0.348195
C71	C	-0.730118	1.711313	-0.135772
C72	C	-0.230118	2.211313	0.364228
C73	C	-0.813146	1.741118	-0.079189
C74	C	-0.313146	2.241118	0.420811
C75	C	-0.872644	1.691618	-0.038635
C76	C	-0.372644	2.191618	0.461365
C77	C	-0.623563	1.602215	-0.208396
C78	C	-0.123563	2.102215	0.291604
C79	C	-0.564066	1.651709	-0.248945
C80	C	-0.064066	2.151709	0.251055
C81	C	-0.587593	1.731008	-0.232908
C82	C	-0.087593	2.231008	0.267092
C83	C	-0.670620	1.760813	-0.176325
C84	C	-0.170620	2.260813	0.323675
C85	C	-0.528094	1.780508	-0.273461
C86	C	-0.028094	2.280508	0.226539
C87	C	-0.551625	1.859807	-0.257427
C88	C	-0.051625	2.359807	0.242573
C89	C	-0.694151	1.840112	-0.160291
C90	C	-0.194151	2.340112	0.339709
C91	C	-0.844198	1.041775	-0.752985
C92	C	-0.344198	1.541775	-0.252985
C93	C	-0.828556	1.057845	-0.832291
C94	C	-0.328556	1.557845	-0.332291
C95	C	-0.734019	1.154996	-0.812654
C96	C	-0.234019	1.654996	-0.312654
C97	C	-0.749650	1.138932	-0.733344
C98	C	-0.249650	1.638932	-0.233344
C99	C	-0.804741	1.082321	-0.703516
C100	C	-0.304741	1.582321	-0.203516
C101	C	-0.710192	1.179478	-0.683876
C102	C	-0.210192	1.679478	-0.183876
C103	C	-0.725826	1.163418	-0.604573
C104	C	-0.225826	1.663418	-0.104573
C105	C	-0.780917	1.106811	-0.574739
C106	C	-0.280917	1.606811	-0.074739
C107	C	-0.820375	1.066260	-0.624213
C108	C	-0.320375	1.566260	-0.124213
C109	C	-0.655107	1.236093	-0.713705
C110	C	-0.155107	1.736093	-0.213705
C111	C	-0.615650	1.276639	-0.664237
C112	C	-0.115650	1.776639	-0.164237
C113	C	-0.631277	1.260575	-0.584933
C114	C	-0.131277	1.760575	-0.084933
C115	C	-0.686369	1.203968	-0.555098
C116	C	-0.186369	1.703968	-0.055098
C117	C	-0.591820	1.301125	-0.535458
C118	C	-0.091820	1.801125	-0.035458
C119	C	-0.607454	1.285064	-0.456155
C120	C	-0.107454	1.785064	0.043845
C121	C	-0.702003	1.187907	-0.475795
C122	C	-0.202003	1.687907	0.024205
C123	C	-0.757068	1.131383	0.053444
C124	C	-0.257068	1.631383	0.553444
C125	C	-0.773479	1.114446	0.137877
C126	C	-0.273479	1.614446	0.637877
H127	H	-0.761756	1.864374	-0.114207
H128	H	-0.261756	2.364374	0.385793
C129	C	-0.597682	1.514984	-0.226034
C130	C	-0.097682	2.014984	0.273966
N131	N	-0.578189	1.449281	-0.239318
N132	N	-0.078189	1.949281	0.260682
H133	H	-0.689167	1.201091	-0.836951
H134	H	-0.189167	1.701091	-0.336951
C135	C	-0.798114	1.089143	-0.487502
C136	C	-0.298114	1.589143	0.012498
N137	N	-0.811064	1.075835	-0.421796
N138	N	-0.311064	1.575835	0.078204
H139	H	-0.865207	1.020144	-0.599930
H140	H	-0.365207	1.520144	-0.099930
H141	H	-0.642383	1.249169	-0.778279
H142	H	-0.142383	1.749169	-0.278279
C143	C	-0.950523	1.429082	0.014449
C144	C	-0.450523	1.929082	0.514449
N145	N	-0.999827	1.388077	0.048049
N146	N	-0.499827	1.888077	0.548049
C147	C	-0.839029	1.828349	-0.061550
C148	C	-0.339029	2.328349	0.438450
N149	N	-0.858523	1.894052	-0.048264
N150	N	-0.358523	2.394052	0.451736
C151	C	-0.436759	1.747717	-0.335700
C152	C	0.063241	2.247717	0.164300
N153	N	-0.367959	1.723019	-0.382575
N154	N	0.132041	2.223019	0.117425
H155	H	-0.940250	1.715880	0.007449
H156	H	-0.440250	2.215880	0.507449
H157	H	-0.570798	1.322733	-0.688533
H158	H	-0.070798	1.822733	-0.188533
C159	C	-0.564046	1.329666	-0.401737
C160	C	-0.064046	1.829666	0.098263
N161	N	-0.531353	1.363262	-0.360749
N162	N	-0.031353	1.863262	0.139251
C163	C	-0.531220	1.363394	-0.568281
C164	C	-0.031220	1.863394	-0.068281
N165	N	-0.485572	1.410294	-0.593003
N166	N	0.014428	1.910294	-0.093003
H167	H	-0.976216	1.587088	0.031964
H168	H	-0.476216	2.087088	0.531964
H169	H	-0.674954	1.478943	-0.173370
H170	H	-0.174954	1.978943	0.326630
H171	H	-0.496466	1.627436	-0.295021
H172	H	0.003534	2.127436	0.204979
H173	H	-0.503175	1.900106	-0.290445
H174	H	-0.003175	2.400106	0.209555
H175	H	-0.746835	1.141791	-0.451512
H176	H	-0.246835	1.641791	0.048488
H177	H	-0.889031	0.995658	-0.728701
H178	H	-0.389031	1.495658	-0.228701
H179	H	-0.860691	1.024823	-0.872567
H180	H	-0.360691	1.524823	-0.372567
