data_functionalizedCrystal
_audit_creation_method	'MofGen! by Chris Wilmer'
_symmetry_space_group_name_H-M	'P1'
_symmetry_Int_Tables_number	1
_symmetry_cell_setting	triclinic
loop_
_symmetry_equiv_pos_as_xyz
  x,y,z
_cell_length_a	19.805407
_cell_length_b	16.959454
_cell_length_c	19.805399
_cell_angle_alpha	89.978568
_cell_angle_beta	90.017803
_cell_angle_gamma	89.979748
loop_
_atom_site_label
_atom_site_type_symbol
_atom_site_fract_x
_atom_site_fract_y
_atom_site_fract_z
Zn1	Zn	1.034752	0.314756	0.382717
Zn2	Zn	1.284752	0.564756	0.632717
Zn3	Zn	1.534752	0.814756	0.882717
Zn4	Zn	1.784752	1.064756	1.132717
Zn5	Zn	1.034674	0.446939	0.269540
Zn6	Zn	1.284674	0.696939	0.519540
Zn7	Zn	1.534674	0.946939	0.769540
Zn8	Zn	1.784674	1.196939	1.019540
Zn9	Zn	0.921567	0.314772	0.269545
Zn10	Zn	1.171567	0.564772	0.519545
Zn11	Zn	1.421567	0.814772	0.769545
Zn12	Zn	1.671567	1.064772	1.019545
Zn13	Zn	0.921537	0.446891	0.382691
Zn14	Zn	1.171537	0.696891	0.632691
Zn15	Zn	1.421537	0.946891	0.882691
Zn16	Zn	1.671537	1.196891	1.132691
O17	O	0.978132	0.380840	0.326123
O18	O	1.228132	0.630840	0.576123
O19	O	1.478132	0.880840	0.826123
O20	O	1.728132	1.130840	1.076123
O21	O	1.129458	0.332304	0.367713
O22	O	1.379458	0.582304	0.617713
O23	O	1.629458	0.832304	0.867713
O24	O	1.879458	1.082304	1.117713
O25	O	1.019649	0.429433	0.174824
O26	O	1.269649	0.679433	0.424824
O27	O	1.519649	0.929433	0.674824
O28	O	1.769649	1.179433	0.924824
O29	O	0.936626	0.204159	0.284570
O30	O	1.186626	0.454159	0.534570
O31	O	1.436626	0.704159	0.784570
O32	O	1.686626	0.954159	1.034570
O33	O	1.129401	0.429418	0.284563
O34	O	1.379401	0.679418	0.534563
O35	O	1.629401	0.929418	0.784563
O36	O	1.879401	1.179418	1.034563
O37	O	1.019783	0.204148	0.367717
O38	O	1.269783	0.454148	0.617717
O39	O	1.519783	0.704148	0.867717
O40	O	1.769783	0.954148	1.117717
O41	O	0.936550	0.332331	0.174828
O42	O	1.186550	0.582331	0.424828
O43	O	1.436550	0.832331	0.674828
O44	O	1.686550	1.082331	0.924828
O45	O	0.826846	0.332284	0.284545
O46	O	1.076846	0.582284	0.534545
O47	O	1.326846	0.832284	0.784545
O48	O	1.576846	1.082284	1.034545
O49	O	0.936576	0.429336	0.477411
O50	O	1.186576	0.679336	0.727411
O51	O	1.436576	0.929336	0.977411
O52	O	1.686576	1.179336	1.227411
O53	O	0.826824	0.429351	0.367673
O54	O	1.076824	0.679351	0.617673
O55	O	1.326824	0.929351	0.867673
O56	O	1.576824	1.179351	1.117673
O57	O	1.019754	0.332258	0.477430
O58	O	1.269754	0.582258	0.727430
O59	O	1.519754	0.832258	0.977430
O60	O	1.769754	1.082258	1.227430
O61	O	1.019621	0.557543	0.284538
O62	O	1.269621	0.807543	0.534538
O63	O	1.519621	1.057543	0.784538
O64	O	1.769621	1.307543	1.034538
O65	O	0.936500	0.557508	0.367669
O66	O	1.186500	0.807508	0.617669
O67	O	1.436500	1.057508	0.867669
O68	O	1.686500	1.307508	1.117669
C69	C	0.802276	0.380815	0.326107
C70	C	1.052276	0.630815	0.576107
C71	C	1.302276	0.880815	0.826107
C72	C	1.552276	1.130815	1.076107
C73	C	0.727044	0.380823	0.326116
C74	C	0.977044	0.630823	0.576116
C75	C	1.227044	0.880823	0.826116
C76	C	1.477044	1.130823	1.076116
C77	C	0.691731	0.330345	0.369478
C78	C	0.941731	0.580345	0.619478
C79	C	1.191731	0.830345	0.869478
C80	C	1.441731	1.080345	1.119478
C81	C	0.621042	0.330350	0.369480
C82	C	0.871042	0.580350	0.619480
C83	C	1.121042	0.830350	0.869480
C84	C	1.371042	1.080350	1.119480
C85	C	0.585669	0.380836	0.326124
C86	C	0.835669	0.630836	0.576124
C87	C	1.085669	0.880836	0.826124
C88	C	1.335669	1.130836	1.076124
C89	C	0.620987	0.431316	0.282757
C90	C	0.870987	0.681316	0.532757
C91	C	1.120987	0.931316	0.782757
C92	C	1.370987	1.181316	1.032757
C93	C	0.691674	0.431307	0.282751
C94	C	0.941674	0.681307	0.532751
C95	C	1.191674	0.931307	0.782751
C96	C	1.441674	1.181307	1.032751
C97	C	0.335914	0.431352	0.282778
C98	C	0.585914	0.681352	0.532778
C99	C	0.835914	0.931352	0.782778
C100	C	1.085914	1.181352	1.032778
C101	C	0.265222	0.431358	0.282788
C102	C	0.515222	0.681358	0.532788
C103	C	0.765222	0.931358	0.782788
C104	C	1.015222	1.181358	1.032788
C105	C	0.265282	0.330394	0.369507
C106	C	0.515282	0.580394	0.619507
C107	C	0.765282	0.830394	0.869507
C108	C	1.015282	1.080394	1.119507
C109	C	0.335969	0.330385	0.369501
C110	C	0.585969	0.580385	0.619501
C111	C	0.835969	0.830385	0.869501
C112	C	1.085969	1.080385	1.119501
C113	C	0.371281	0.380862	0.326132
C114	C	0.621281	0.630862	0.576132
C115	C	0.871281	0.880862	0.826132
C116	C	1.121281	1.130862	1.076132
C117	C	0.447930	0.380856	0.326129
C118	C	0.697930	0.630856	0.576129
C119	C	0.947930	0.880856	0.826129
C120	C	1.197930	1.130856	1.076129
C121	C	0.509022	0.380847	0.326130
C122	C	0.759022	0.630847	0.576130
C123	C	1.009022	0.880847	0.826130
C124	C	1.259022	1.130847	1.076130
C125	C	0.978067	0.586206	0.326115
C126	C	1.228067	0.836206	0.576115
C127	C	1.478067	1.086206	0.826115
C128	C	1.728067	1.336206	1.076115
C129	C	0.978101	0.674062	0.326133
C130	C	1.228101	0.924062	0.576133
C131	C	1.478101	1.174062	0.826133
C132	C	1.728101	1.424062	1.076133
C133	C	0.934886	1.045549	0.369414
C134	C	1.184886	1.295549	0.619414
C135	C	1.434886	1.545549	0.869414
C136	C	1.684886	1.795549	1.119414
C137	C	1.021511	1.045526	0.282920
C138	C	1.271511	1.295526	0.532920
C139	C	1.521511	1.545526	0.782920
C140	C	1.771511	1.795526	1.032920
C141	C	1.021491	0.962981	0.282912
C142	C	1.271491	1.212981	0.532912
C143	C	1.521491	1.462981	0.782912
C144	C	1.771491	1.712981	1.032912
C145	C	0.978167	0.921715	0.326156
C146	C	1.228167	1.171715	0.576156
C147	C	1.478167	1.421715	0.826156
C148	C	1.728167	1.671715	1.076156
C149	C	0.934863	0.962996	0.369407
C150	C	1.184863	1.212996	0.619407
C151	C	1.434863	1.462996	0.869407
C152	C	1.684863	1.712996	1.119407
C153	C	1.064789	0.921694	0.239658
C154	C	1.314789	1.171694	0.489658
C155	C	1.564789	1.421694	0.739658
C156	C	1.814789	1.671694	0.989658
C157	C	1.064770	0.839143	0.239648
C158	C	1.314770	1.089143	0.489648
C159	C	1.564770	1.339143	0.739648
C160	C	1.814770	1.589143	0.989648
C161	C	1.021449	0.797876	0.282895
C162	C	1.271449	1.047876	0.532895
C163	C	1.521449	1.297876	0.782895
C164	C	1.771449	1.547876	1.032895
C165	C	0.978144	0.839162	0.326148
C166	C	1.228144	1.089162	0.576148
C167	C	1.478144	1.339162	0.826148
C168	C	1.728144	1.589162	1.076148
C169	C	0.934820	0.797897	0.369392
C170	C	1.184820	1.047897	0.619392
C171	C	1.434820	1.297897	0.869392
C172	C	1.684820	1.547897	1.119392
C173	C	0.891518	0.839181	0.412649
C174	C	1.141518	1.089181	0.662649
C175	C	1.391518	1.339181	0.912649
C176	C	1.641518	1.589181	1.162649
C177	C	0.891542	0.921729	0.412654
C178	C	1.141542	1.171729	0.662654
C179	C	1.391542	1.421729	0.912654
C180	C	1.641542	1.671729	1.162654
C181	C	1.021425	0.715328	0.282890
C182	C	1.271425	0.965328	0.532890
C183	C	1.521425	1.215328	0.782890
C184	C	1.771425	1.465328	1.032890
C185	C	0.934797	0.715343	0.369384
C186	C	1.184797	0.965343	0.619384
C187	C	1.434797	1.215343	0.869384
C188	C	1.684797	1.465343	1.119384
C189	C	1.154675	0.380865	0.326140
C190	C	1.404675	0.630865	0.576140
C191	C	1.654675	0.880865	0.826140
C192	C	1.904675	1.130865	1.076140
C193	C	1.229907	0.380876	0.326147
C194	C	1.479907	0.630876	0.576147
C195	C	1.729907	0.880876	0.826147
C196	C	1.979907	1.130876	1.076147
C197	C	0.978170	0.380790	0.502666
C198	C	1.228170	0.630790	0.752666
C199	C	1.478170	0.880790	1.002666
C200	C	1.728170	1.130790	1.252666
C201	C	0.978186	0.380769	0.577898
C202	C	1.228186	0.630769	0.827898
C203	C	1.478186	0.880769	1.077898
C204	C	1.728186	1.130769	1.327898
C205	C	0.978206	1.174671	0.326150
C206	C	1.228206	1.424671	0.576150
C207	C	1.478206	1.674671	0.826150
C208	C	1.728206	1.924671	1.076150
C209	C	0.978210	1.086815	0.326171
C210	C	1.228210	1.336815	0.576171
C211	C	1.478210	1.586815	0.826171
C212	C	1.728210	1.836815	1.076171
C213	C	0.978133	0.380832	0.150267
C214	C	1.228133	0.630832	0.400267
C215	C	1.478133	0.880832	0.650267
C216	C	1.728133	1.130832	0.900267
C217	C	0.978248	0.380631	0.075036
C218	C	1.228248	0.630631	0.325036
C219	C	1.478248	0.880631	0.575036
C220	C	1.728248	1.130631	0.825036
C221	C	1.021499	0.330217	0.613253
C222	C	1.271499	0.580217	0.863253
C223	C	1.521499	0.830217	1.113253
C224	C	1.771499	1.080217	1.363253
C225	C	1.021505	0.330194	0.683942
C226	C	1.271505	0.580194	0.933942
C227	C	1.521505	0.830194	1.183942
C228	C	1.771505	1.080194	1.433942
C229	C	0.978203	0.380727	0.719274
C230	C	1.228203	0.630727	0.969274
C231	C	1.478203	0.880727	1.219274
C232	C	1.728203	1.130727	1.469274
C233	C	0.934886	0.431281	0.683913
C234	C	1.184886	0.681281	0.933913
C235	C	1.434886	0.931281	1.183913
C236	C	1.684886	1.181281	1.433913
C237	C	0.934877	0.431299	0.613226
C238	C	1.184877	0.681299	0.863226
C239	C	1.434877	0.931299	1.113226
C240	C	1.684877	1.181299	1.363226
C241	C	0.934925	0.431207	0.968987
C242	C	1.184925	0.681207	1.218987
C243	C	1.434925	0.931207	1.468987
C244	C	1.684925	1.181207	1.718987
C245	C	0.934939	0.431186	1.039679
C246	C	1.184939	0.681186	1.289679
C247	C	1.434939	0.931186	1.539679
C248	C	1.684939	1.181186	1.789679
C249	C	1.021554	0.330102	1.039702
C250	C	1.271554	0.580102	1.289702
C251	C	1.521554	0.830102	1.539702
C252	C	1.771554	1.080102	1.789702
C253	C	1.021544	0.330121	0.969015
C254	C	1.271544	0.580121	1.219015
C255	C	1.521544	0.830121	1.469015
C256	C	1.771544	1.080121	1.719015
C257	C	0.978225	0.380671	0.933661
C258	C	1.228225	0.630671	1.183661
C259	C	1.478225	0.880671	1.433661
C260	C	1.728225	1.130671	1.683661
C261	C	0.978217	0.380694	0.857013
C262	C	1.228217	0.630694	1.107013
C263	C	1.478217	0.880694	1.357013
C264	C	1.728217	1.130694	1.607013
C265	C	0.978214	0.380709	0.795921
C266	C	1.228214	0.630709	1.045921
C267	C	1.478214	0.880709	1.295921
C268	C	1.728214	1.130709	1.545921
H269	H	0.364657	0.472454	0.247465
H270	H	0.614657	0.722454	0.497465
H271	H	0.864657	0.972454	0.747465
H272	H	1.114657	1.222454	0.997465
H273	H	1.100056	0.955298	0.204446
H274	H	1.350056	1.205298	0.454446
H275	H	1.600056	1.455298	0.704446
H276	H	1.850056	1.705298	0.954446
H277	H	0.899627	0.472423	0.712686
H278	H	1.149627	0.722423	0.962686
H279	H	1.399627	0.972423	1.212686
H280	H	1.649627	1.222423	1.462686
H281	H	1.056779	1.079129	0.247709
H282	H	1.306779	1.329129	0.497709
H283	H	1.556779	1.579129	0.747709
H284	H	1.806779	1.829129	0.997709
H285	H	1.100029	0.805534	0.204427
H286	H	1.350029	1.055534	0.454427
H287	H	1.600029	1.305534	0.704427
H288	H	1.850029	1.555534	0.954427
H289	H	0.592180	0.472419	0.247452
H290	H	0.842180	0.722419	0.497452
H291	H	1.092180	0.972419	0.747452
H292	H	1.342180	1.222419	0.997452
F293	F	1.067656	0.276299	1.077334
F294	F	1.317656	0.526299	1.327334
F295	F	1.567656	0.776299	1.577334
F296	F	1.817656	1.026299	1.827334
F297	F	1.067500	0.671394	0.236850
F298	F	1.317500	0.921394	0.486850
F299	F	1.567500	1.171394	0.736850
F300	F	1.817500	1.421394	0.986850
H301	H	1.056762	0.289070	0.584491
H302	H	1.306762	0.539070	0.834491
H303	H	1.556762	0.789070	1.084491
H304	H	1.806762	1.039070	1.334491
F305	F	0.729257	0.485033	0.236600
F306	F	0.979257	0.735033	0.486600
F307	F	1.229257	0.985033	0.736600
F308	F	1.479257	1.235033	0.986600
F309	F	0.888688	0.671432	0.415415
F310	F	1.138688	0.921432	0.665415
F311	F	1.388688	1.171432	0.915415
F312	F	1.638688	1.421432	1.165415
F313	F	1.067627	0.276418	0.721566
F314	F	1.317627	0.526418	0.971566
F315	F	1.567627	0.776418	1.221566
F316	F	1.817627	1.026418	1.471566
F317	F	1.067634	0.276340	0.931416
F318	F	1.317634	0.526340	1.181416
F319	F	1.567634	0.776340	1.431416
F320	F	1.817634	1.026340	1.681416
F321	F	0.888805	1.089486	0.415452
F322	F	1.138805	1.339486	0.665452
F323	F	1.388805	1.589486	0.915452
F324	F	1.638805	1.839486	1.165452
H325	H	0.236423	0.472472	0.247479
H326	H	0.486423	0.722472	0.497479
H327	H	0.736423	0.972472	0.747479
H328	H	0.986423	1.222472	0.997479
H329	H	0.856240	0.805573	0.447855
H330	H	1.106240	1.055573	0.697855
H331	H	1.356240	1.305573	0.947855
H332	H	1.606240	1.555573	1.197855
H333	H	0.856287	0.955350	0.447871
H334	H	1.106287	1.205350	0.697871
H335	H	1.356287	1.455350	0.947871
H336	H	1.606287	1.705350	1.197871
H337	H	0.364767	0.289277	0.404809
H338	H	0.614767	0.539277	0.654809
H339	H	0.864767	0.789277	0.904809
H340	H	1.114767	1.039277	1.154809
H341	H	0.236522	0.289290	0.404817
H342	H	0.486522	0.539290	0.654817
H343	H	0.736522	0.789290	0.904817
H344	H	0.986522	1.039290	1.154817
H345	H	0.899675	0.472338	1.068444
H346	H	1.149675	0.722338	1.318444
H347	H	1.399675	0.972338	1.568444
H348	H	1.649675	1.222338	1.818444
H349	H	0.899601	0.472455	0.584441
H350	H	1.149601	0.722455	0.834441
H351	H	1.399601	0.972455	1.084441
H352	H	1.649601	1.222455	1.334441
F353	F	0.729372	0.276614	0.415628
F354	F	0.979372	0.526614	0.665628
F355	F	1.229372	0.776614	0.915628
F356	F	1.479372	1.026614	1.165628
F357	F	0.583462	0.276626	0.415634
F358	F	0.833462	0.526626	0.665634
F359	F	1.083462	0.776626	0.915634
F360	F	1.333462	1.026626	1.165634
H361	H	0.899662	0.472380	0.940210
H362	H	1.149662	0.722380	1.190210
H363	H	1.399662	0.972380	1.440210
H364	H	1.649662	1.222380	1.690210
