data_functionalizedCrystal
_audit_creation_method	'MofGen! by Chris Wilmer'
_symmetry_space_group_name_H-M	'P1'
_symmetry_Int_Tables_number	1
_symmetry_cell_setting	triclinic
loop_
_symmetry_equiv_pos_as_xyz
  x,y,z
_cell_length_a	8.597340
_cell_length_b	17.019294
_cell_length_c	7.681481
_cell_angle_alpha	80.410874
_cell_angle_beta	103.474906
_cell_angle_gamma	84.889715
loop_
_atom_site_label
_atom_site_type_symbol
_atom_site_fract_x
_atom_site_fract_y
_atom_site_fract_z
O1	O	2.097881	0.109941	0.155190
O2	O	1.633594	0.122608	0.082825
O3	O	1.880493	0.000546	0.138803
O4	O	1.850982	0.232003	0.099213
O5	O	1.910883	-0.014512	0.438555
O6	O	1.663983	0.107550	0.382578
O7	O	2.128271	0.094883	0.454943
Zn8	Zn	1.900952	0.098826	0.466353
Zn9	Zn	1.860912	0.118665	0.071415
O10	O	1.881372	0.216945	0.398966
C11	C	1.589414	0.114558	0.223772
C12	C	1.412498	0.112994	0.197167
C13	C	1.895168	-0.036601	0.293089
C14	C	1.893601	-0.124854	0.306229
C15	C	1.876303	-0.158103	0.149008
C16	C	1.874821	-0.241025	0.161357
C17	C	1.890648	-0.290698	0.330931
C18	C	1.907943	-0.257444	0.488163
C19	C	1.909413	-0.174522	0.475810
C20	C	1.887027	-0.541478	0.376402
C21	C	1.885560	-0.624405	0.388745
C22	C	1.852435	-0.607981	0.061937
C23	C	1.853917	-0.525059	0.049600
C24	C	1.871202	-0.491811	0.206831
C25	C	1.889139	-0.375458	0.343559
C26	C	1.872700	-0.407051	0.194199
C27	C	2.172450	0.102934	0.313992
C28	C	2.349365	0.104498	0.340586
C29	C	1.866696	0.254093	0.244675
C30	C	1.868262	0.342346	0.231524
N31	N	1.928290	0.085286	0.735889
N32	N	1.833587	0.132199	-0.198118
H33	H	1.860742	-0.268092	0.033332
Br34	Br	1.484862	0.094354	0.579188
Br35	Br	1.277000	0.123120	-0.041443
Br36	Br	1.854839	-0.090698	-0.081137
Br37	Br	1.832446	-0.457651	-0.180543
H38	H	1.736915	0.180084	0.704754
Br39	Br	1.851226	-0.339638	-0.035929
H40	H	1.838359	-0.635060	-0.066071
H41	H	1.923477	-0.147451	0.603833
H42	H	1.898441	-0.664847	0.526838
H43	H	1.901134	-0.514420	0.504436
Br44	Br	1.929397	-0.324854	0.718298
H45	H	1.902031	-0.415912	0.481628
Br46	Br	2.089452	0.005479	0.897783
