data_functionalizedCrystal
_audit_creation_method	'MofGen! by Chris Wilmer'
_symmetry_space_group_name_H-M	'P1'
_symmetry_Int_Tables_number	1
_symmetry_cell_setting	triclinic
loop_
_symmetry_equiv_pos_as_xyz
  x,y,z
_cell_length_a	8.497365
_cell_length_b	10.685980
_cell_length_c	10.686285
_cell_angle_alpha	90.334291
_cell_angle_beta	94.418376
_cell_angle_gamma	85.593353
loop_
_atom_site_label
_atom_site_type_symbol
_atom_site_fract_x
_atom_site_fract_y
_atom_site_fract_z
Zn1	Zn	-1.046087	1.956497	0.352066
Zn2	Zn	-0.546087	2.456497	0.852066
Zn3	Zn	-0.763732	1.972451	0.561964
Zn4	Zn	-0.263732	2.472451	1.061964
Zn5	Zn	-0.760617	1.746664	0.368288
Zn6	Zn	-0.260617	2.246664	0.868288
Zn7	Zn	-1.005815	1.762800	0.577866
Zn8	Zn	-0.505815	2.262800	1.077866
O9	O	-0.894063	1.859603	0.465046
O10	O	-0.394063	2.359603	0.965046
O11	O	-1.026789	2.134169	0.366465
O12	O	-0.526789	2.634169	0.866465
O13	O	-0.542536	1.942423	0.536406
O14	O	-0.042536	2.442423	1.036406
O15	O	-0.814035	1.761069	0.190584
O16	O	-0.314035	2.261069	0.690584
O17	O	-0.819344	2.145890	0.520676
O18	O	-0.319344	2.645890	1.020676
O19	O	-1.023769	1.915233	0.178666
O20	O	-0.523769	2.415233	0.678666
O21	O	-0.540247	1.776539	0.394114
O22	O	-0.040247	2.276539	0.894114
O23	O	-0.774986	1.573249	0.409533
O24	O	-0.274986	2.073249	0.909533
O25	O	-1.231940	1.788571	0.547779
O26	O	-0.731940	2.288571	1.047779
O27	O	-0.955132	1.585104	0.563509
O28	O	-0.455132	2.085104	1.063509
O29	O	-1.261527	1.930879	0.381885
O30	O	-0.761527	2.430879	0.881885
O31	O	-0.780294	1.958069	0.739625
O32	O	-0.280294	2.458069	1.239625
O33	O	-0.958152	1.804040	0.751308
O34	O	-0.458152	2.304040	1.251308
C35	C	-0.860352	1.533657	0.490008
C36	C	-0.360352	2.033657	0.990008
C37	C	-0.845965	1.394219	0.500717
C38	C	-0.345965	1.894219	1.000717
C39	C	-0.865229	1.884571	0.790983
C40	C	-0.365229	2.384571	1.290983
C41	C	-0.852959	1.895367	0.930411
C42	C	-0.352959	2.395367	1.430411
C43	C	-0.484161	1.859523	0.465190
C44	C	0.015839	2.359523	0.965190
C45	C	-0.305559	1.859682	0.464918
C46	C	0.194441	2.359682	0.964918
C47	C	-0.927906	2.186821	0.439987
C48	C	-0.427906	2.686821	0.939987
C49	C	-0.942328	2.326262	0.429309
C50	C	-0.442328	2.826262	0.929309
C51	C	-0.923047	1.834572	0.137834
C52	C	-0.423047	2.334572	0.637834
C53	C	-0.935398	1.823905	-0.001605
C54	C	-0.435398	2.323905	0.498395
H55	H	-0.752444	1.345718	0.570050
H56	H	-0.252444	1.845718	1.070050
F57	F	-1.064551	1.389645	0.338679
F58	F	-0.564551	1.889645	0.838679
H59	H	-1.015367	1.754464	0.949934
H60	H	-0.515367	2.254464	1.449934
H61	H	-0.772973	1.964803	0.978880
H62	H	-0.272973	2.464803	1.478880
