data_functionalizedCrystal
_audit_creation_method	'MofGen! by Chris Wilmer'
_symmetry_space_group_name_H-M	'P1'
_symmetry_Int_Tables_number	1
_symmetry_cell_setting	triclinic
loop_
_symmetry_equiv_pos_as_xyz
  x,y,z
_cell_length_a	21.395364
_cell_length_b	14.908178
_cell_length_c	21.395355
_cell_angle_alpha	86.685439
_cell_angle_beta	89.975448
_cell_angle_gamma	93.328811
loop_
_atom_site_label
_atom_site_type_symbol
_atom_site_fract_x
_atom_site_fract_y
_atom_site_fract_z
Zn1	Zn	0.943529	-0.358933	-0.339876
Zn2	Zn	0.937409	-0.509786	-0.229052
Zn3	Zn	0.838743	-0.358972	-0.235111
Zn4	Zn	0.832690	-0.509802	-0.333791
O5	O	0.888093	-0.434373	-0.284457
O6	O	1.030396	-0.378920	-0.325185
O7	O	0.924292	-0.489790	-0.142177
O8	O	0.857737	-0.232712	-0.254090
O9	O	1.025900	-0.489751	-0.243764
O10	O	0.934723	-0.232683	-0.331060
O11	O	0.851803	-0.378988	-0.146629
O12	O	0.750261	-0.379003	-0.248190
O13	O	0.847421	-0.489779	-0.422277
O14	O	0.745814	-0.489817	-0.320691
O15	O	0.928854	-0.378936	-0.426747
O16	O	0.918424	-0.636043	-0.237864
O17	O	0.841487	-0.636055	-0.314816
C18	C	0.725303	-0.434417	-0.284438
C19	C	0.655660	-0.434457	-0.284444
C20	C	0.625307	-0.376842	-0.326898
C21	C	0.559873	-0.376818	-0.326902
C22	C	0.524793	-0.434426	-0.284456
C23	C	0.555154	-0.492045	-0.241994
C24	C	0.620588	-0.492061	-0.241988
C25	C	0.417825	-0.515676	-0.276162
C26	C	0.352393	-0.515662	-0.276173
C27	C	0.322975	-0.434376	-0.284472
C28	C	0.358997	-0.353102	-0.292774
C29	C	0.424431	-0.353118	-0.292768
C30	C	0.453842	-0.434414	-0.284458
C31	C	0.221670	-0.376730	-0.326933
C32	C	0.156235	-0.376704	-0.326932
C33	C	0.151517	-0.491939	-0.242027
C34	C	0.216952	-0.491956	-0.242025
C35	C	0.252024	-0.434353	-0.284481
C36	C	0.878651	-0.668785	-0.275036
C37	C	0.874670	-0.769068	-0.271026
C38	C	0.947293	-0.957329	-0.343727
C39	C	0.943554	-1.051553	-0.339962
C40	C	0.863450	-1.051742	-0.259734
C41	C	0.867189	-0.957518	-0.263499
C42	C	0.909112	-0.910315	-0.305496
C43	C	0.912854	-0.816088	-0.309258
C44	C	0.832748	-0.816279	-0.229034
C45	C	0.829009	-0.910504	-0.225269
C46	C	1.051518	-0.434330	-0.284477
C47	C	1.121160	-0.434311	-0.284486
C48	C	0.888146	-0.434355	-0.447881
C49	C	0.888168	-0.434347	-0.517523
C50	C	0.897588	-0.199046	-0.293929
C51	C	0.901634	-0.098763	-0.297966
C52	C	0.930569	-0.376629	-0.552565
C53	C	0.930569	-0.376590	-0.618002
C54	C	0.888175	-0.434286	-0.648394
C55	C	0.845767	-0.492008	-0.613344
C56	C	0.845763	-0.492039	-0.547909
C57	C	0.879956	-0.515525	-0.748803
C58	C	0.879964	-0.515495	-0.814238
C59	C	0.888183	-0.434190	-0.850219
C60	C	0.896407	-0.352912	-0.820758
C61	C	0.896404	-0.352942	-0.755322
C62	C	0.888174	-0.434258	-0.719347
C63	C	0.930587	-0.376425	-0.956215
C64	C	0.930583	-0.376385	-1.021653
C65	C	0.845784	-0.491811	-1.016994
C66	C	0.845784	-0.491843	-0.951557
C67	C	0.888189	-0.434151	-0.921171
C68	C	0.888079	-0.434326	-0.121672
C69	C	0.888188	-0.434080	-0.052041
H70	H	0.441772	-0.581874	-0.269403
O71	O	0.984737	-1.102257	-0.381197
H72	H	0.954970	-1.145201	-0.411334
O73	O	0.783800	-0.961429	-0.179972
H74	H	0.735331	-0.943428	-0.191387
O75	O	0.905270	-0.265287	-0.723543
H76	H	0.910984	-0.208740	-0.759551
O77	O	0.992512	-0.906412	-0.389018
H78	H	1.026108	-0.863459	-0.362716
H79	H	0.965112	-0.329444	-0.931474
O80	O	0.958070	-0.765173	-0.354553
H81	H	0.991671	-0.722221	-0.328256
H82	H	0.801660	-0.777990	-0.197902
O83	O	0.313539	-0.603314	-0.267222
H84	H	0.283763	-0.601772	-0.224847
H85	H	0.903101	-0.286705	-0.850052
O86	O	0.818244	-1.102660	-0.214431
H87	H	0.822066	-1.176078	-0.218233
O88	O	0.976314	-0.314117	-1.059449
H89	H	0.969187	-0.323775	-1.110056
O90	O	0.976301	-0.314404	-0.519790
H91	H	1.005782	-0.274258	-0.555155
H92	H	0.811260	-0.538778	-1.041739
H93	H	0.965096	-0.329584	-0.646538
O94	O	0.663138	-0.314711	-0.372684
H95	H	0.694803	-0.268762	-0.346536
H96	H	0.335047	-0.286911	-0.299533
O97	O	0.800036	-0.554072	-0.913756
H98	H	0.770552	-0.594179	-0.945881
H99	H	0.250228	-0.329820	-0.361499
O100	O	0.871087	-0.603153	-0.846013
H101	H	0.865356	-0.659693	-0.810002
H102	H	0.453757	-0.286942	-0.299526
O103	O	0.871083	-0.603222	-0.709996
H104	H	0.865372	-0.659733	-0.741473
O105	O	0.800039	-0.554237	-0.646118
H106	H	0.807168	-0.544525	-0.697507
H107	H	0.811233	-0.539038	-0.519378
O108	O	0.527122	-0.314681	-0.372697
H109	H	0.562503	-0.274634	-0.402221
H110	H	0.122956	-0.538844	-0.207468
O111	O	0.123492	-0.314553	-0.372720
H112	H	0.135435	-0.330144	-0.421250
O113	O	0.249697	-0.554102	-0.196237
H114	H	0.214313	-0.594161	-0.166724
H115	H	0.526589	-0.538948	-0.207435
H116	H	0.645301	-0.538979	-0.207415
