data_functionalizedCrystal
_audit_creation_method	'MofGen! by Chris Wilmer'
_symmetry_space_group_name_H-M	'P1'
_symmetry_Int_Tables_number	1
_symmetry_cell_setting	triclinic
loop_
_symmetry_equiv_pos_as_xyz
  x,y,z
_cell_length_a	14.853569
_cell_length_b	13.330367
_cell_length_c	14.853559
_cell_angle_alpha	89.997552
_cell_angle_beta	96.366491
_cell_angle_gamma	90.005581
loop_
_atom_site_label
_atom_site_type_symbol
_atom_site_fract_x
_atom_site_fract_y
_atom_site_fract_z
O1	O	1.196364	0.083373	-0.117711
O2	O	1.696364	0.583373	0.382289
O3	O	0.933905	0.083384	-0.131731
O4	O	1.433905	0.583384	0.368269
O5	O	1.072149	0.083377	0.006510
O6	O	1.572149	0.583377	0.506510
O7	O	1.058120	0.083380	-0.255951
O8	O	1.558120	0.583380	0.244049
O9	O	1.072129	-0.083470	0.006513
O10	O	1.572129	0.416530	0.506513
O11	O	0.933885	-0.083463	-0.131728
O12	O	1.433885	0.416537	0.368272
O13	O	1.196344	-0.083475	-0.117708
O14	O	1.696344	0.416525	0.382292
Cu15	Cu	1.065113	-0.098703	-0.124717
Cu16	Cu	1.565113	0.401297	0.375283
Cu17	Cu	1.065136	0.098613	-0.124721
Cu18	Cu	1.565136	0.598613	0.375279
O19	O	1.058100	-0.083467	-0.255948
O20	O	1.558100	0.416533	0.244052
C21	C	0.900306	-0.000038	-0.131094
C22	C	1.400306	0.499962	0.368906
C23	C	0.800222	-0.000033	-0.129189
C24	C	1.300222	0.499967	0.370811
N25	N	1.065102	-0.237485	-0.124714
N26	N	1.565102	0.262515	0.375286
C27	C	0.763848	-0.000031	-0.046178
C28	C	1.263848	0.499969	0.453822
C29	C	0.742554	-0.000040	-0.210411
C30	C	1.242554	0.499960	0.289589
C31	C	0.648520	-0.000041	-0.208625
C32	C	1.148520	0.499959	0.291375
C33	C	0.612146	-0.000039	-0.125614
C34	C	1.112146	0.499961	0.374386
C35	C	0.669806	-0.000035	-0.044389
C36	C	1.169806	0.499965	0.455611
C37	C	0.590853	-0.000055	-0.289848
C38	C	1.090853	0.499945	0.210152
C39	C	0.496812	-0.000058	-0.288065
C40	C	0.996812	0.499942	0.211935
C41	C	0.460437	-0.000048	-0.205053
C42	C	0.960437	0.499952	0.294947
C43	C	0.518103	-0.000043	-0.123825
C44	C	1.018103	0.499957	0.376175
C45	C	0.481729	-0.000040	-0.040813
C46	C	0.981729	0.499960	0.459187
C47	C	0.539394	-0.000028	0.040416
C48	C	1.039394	0.499972	0.540416
C49	C	0.633430	-0.000025	0.038623
C50	C	1.133430	0.499975	0.538623
C51	C	0.366401	-0.000051	-0.203260
C52	C	0.866401	0.499949	0.296740
C53	C	0.387687	-0.000044	-0.039024
C54	C	0.887687	0.499956	0.460976
C55	C	1.003919	-0.710105	-0.185910
C56	C	1.503919	-0.210105	0.314090
C57	C	1.126378	-0.710079	-0.063525
C58	C	1.626378	-0.210079	0.436475
C59	C	1.126368	-0.605060	-0.063522
C60	C	1.626368	-0.105060	0.436478
C61	C	1.065133	-0.552559	-0.124715
C62	C	1.565133	-0.052559	0.375285
C63	C	1.003909	-0.605076	-0.185911
C64	C	1.503909	-0.105076	0.314089
C65	C	1.187597	-0.552535	-0.002334
C66	C	1.687597	-0.052535	0.497666
C67	C	1.187590	-0.447511	-0.002330
C68	C	1.687590	0.052489	0.497670
C69	C	1.126350	-0.395008	-0.063519
C70	C	1.626350	0.104992	0.436481
C71	C	1.065123	-0.447531	-0.124716
C72	C	1.565123	0.052469	0.375284
C73	C	1.003888	-0.395030	-0.185909
C74	C	1.503888	0.104970	0.314091
C75	C	0.942656	-0.447552	-0.247102
C76	C	1.442656	0.052448	0.252898
C77	C	0.942669	-0.552573	-0.247100
C78	C	1.442669	-0.052573	0.252900
C79	C	1.126337	-0.289986	-0.063522
C80	C	1.626337	0.210014	0.436478
C81	C	1.003878	-0.290002	-0.185910
C82	C	1.503878	0.209998	0.314090
C83	C	1.229943	-0.000050	-0.118345
C84	C	1.729943	0.499950	0.381655
C85	C	1.330027	-0.000048	-0.120249
C86	C	1.830027	0.499952	0.379751
C87	C	1.071505	-0.000045	0.040100
C88	C	1.571505	0.499955	0.540100
C89	C	1.069604	-0.000039	0.140184
C90	C	1.569604	0.499961	0.640184
N91	N	1.065154	0.237394	-0.124717
N92	N	1.565154	0.737394	0.375283
C93	C	1.058744	-0.000044	-0.289538
C94	C	1.558744	0.499956	0.210462
C95	C	1.060645	-0.000043	-0.389622
C96	C	1.560645	0.499957	0.110378
C97	C	1.061551	0.090910	0.563357
C98	C	1.561551	0.590910	1.063357
C99	C	1.061529	-0.090993	0.563356
C100	C	1.561529	0.409007	1.063356
C101	C	1.063323	-0.090994	0.469322
C102	C	1.563323	0.409006	0.969322
C103	C	1.064229	-0.000042	0.422302
C104	C	1.564229	0.499958	0.922302
C105	C	1.063342	0.090912	0.469315
C106	C	1.563342	0.590912	0.969315
C107	C	1.064201	-0.181946	0.422301
C108	C	1.564201	0.318054	0.922301
C109	C	1.065993	-0.181951	0.328262
C110	C	1.565993	0.318049	0.828262
C111	C	1.066906	-0.090997	0.281241
C112	C	1.566906	0.409003	0.781241
C113	C	1.066020	-0.000040	0.328260
C114	C	1.566020	0.499960	0.828260
C115	C	1.066926	0.090913	0.281239
C116	C	1.566926	0.590913	0.781239
C117	C	1.066047	0.181871	0.328258
C118	C	1.566047	0.681871	0.828258
C119	C	1.064255	0.181865	0.422294
C120	C	1.564255	0.681865	0.922294
C121	C	1.068698	-0.090992	0.187204
C122	C	1.568698	0.409008	0.687204
C123	C	1.068717	0.090914	0.187197
C124	C	1.568717	0.590914	0.687197
H125	H	0.358079	-0.000037	0.028574
H126	H	0.858079	0.499963	0.528574
H127	H	1.063458	-0.255995	0.460591
H128	H	1.563458	0.244005	0.960591
H129	H	1.176238	-0.752829	-0.013708
H130	H	1.676238	-0.252829	0.486292
C131	C	1.193683	-0.232216	0.003783
C132	C	1.693683	0.267784	0.503783
H133	H	1.230152	-0.278526	0.040228
H134	H	1.730152	0.221474	0.540228
H135	H	1.231240	-0.191233	-0.028719
H136	H	1.731240	0.308767	0.471281
H137	H	1.161202	-0.191262	0.041379
H138	H	1.661202	0.308738	0.541379
H139	H	0.509766	-0.000020	0.108003
H140	H	1.009766	0.499980	0.608003
H141	H	0.319454	-0.000070	-0.269396
H142	H	0.819454	0.499930	0.230604
C143	C	1.069713	0.190964	0.135482
C144	C	1.569713	0.690964	0.635482
H145	H	1.068927	0.245130	0.176953
H146	H	1.568927	0.745130	0.676953
H147	H	1.122941	0.194744	0.105604
H148	H	1.622941	0.694744	0.605604
H149	H	1.017871	0.194749	0.091991
H150	H	1.517871	0.694749	0.591991
C151	C	0.827272	-0.000022	0.043167
C152	C	1.327272	0.499978	0.543167
H153	H	0.888488	-0.000025	0.030217
H154	H	1.388488	0.499975	0.530217
H155	H	0.816234	0.058161	0.077198
H156	H	1.316234	0.558161	0.577198
H157	H	0.816232	-0.058213	0.077200
H158	H	1.316232	0.441787	0.577200
C159	C	0.630865	-0.000062	-0.381151
C160	C	1.130865	0.499938	0.118849
H161	H	0.695128	-0.000046	-0.370581
H162	H	1.195128	0.499954	0.129419
H163	H	0.611082	-0.058249	-0.414594
H164	H	1.111082	0.441751	0.085406
H165	H	0.611081	0.058125	-0.414604
H166	H	1.111081	0.558125	0.085396
C167	C	1.066963	-0.281996	0.276546
C168	C	1.566963	0.218004	0.776546
H169	H	1.068155	-0.268971	0.213806
H170	H	1.568155	0.231029	0.713806
H171	H	1.119194	-0.319372	0.298771
H172	H	1.619194	0.180628	0.798771
H173	H	1.014125	-0.319359	0.285144
H174	H	1.514125	0.180641	0.785144
C175	C	0.782563	-0.000044	-0.301716
C176	C	1.282563	0.499956	0.198284
H177	H	0.846827	-0.000036	-0.291148
H178	H	1.346827	0.499964	0.208852
H179	H	0.762774	-0.058227	-0.335162
H180	H	1.262774	0.441773	0.164838
H181	H	0.762784	0.058147	-0.335163
H182	H	1.262784	0.558147	0.164837
H183	H	1.063538	0.255919	0.460584
H184	H	1.563538	0.755919	0.960584
C185	C	1.060580	0.190956	0.615071
C186	C	1.560580	0.690956	1.115071
H187	H	1.059379	0.177934	0.677810
H188	H	1.559379	0.677934	1.177810
H189	H	1.113407	0.228326	0.606466
H190	H	1.613407	0.728326	1.106466
H191	H	1.008338	0.228324	0.592847
H192	H	1.508338	0.728324	1.092847
C193	C	1.067042	0.281915	0.276533
C194	C	1.567042	0.781915	0.776533
H195	H	1.066257	0.336087	0.317997
H196	H	1.566257	0.836087	0.817997
H197	H	1.120269	0.285688	0.246654
H198	H	1.620269	0.785688	0.746654
H199	H	1.015200	0.285694	0.233043
H200	H	1.515200	0.785694	0.733043
H201	H	1.060785	-0.165043	0.601644
H202	H	1.560785	0.334957	1.101644
C203	C	0.696857	-0.000011	0.127967
C204	C	1.196857	0.499989	0.627967
H205	H	0.661729	0.000002	0.177663
H206	H	1.161729	0.500002	0.677663
H207	H	0.733982	-0.058192	0.130689
H208	H	1.233982	0.441808	0.630689
H209	H	0.733984	0.058182	0.130671
H210	H	1.233984	0.558182	0.630671
C211	C	0.433390	-0.000059	-0.377411
C212	C	0.933390	0.499941	0.122589
H213	H	0.468523	-0.000053	-0.427104
H214	H	0.968523	0.499947	0.072896
H215	H	0.396255	-0.058239	-0.380127
H216	H	0.896255	0.441761	0.119873
H217	H	0.396273	0.058135	-0.380128
H218	H	0.896273	0.558135	0.119872
C219	C	0.936520	-0.232258	-0.253225
C220	C	1.436520	0.267742	0.246775
H221	H	0.900062	-0.278582	-0.289670
H222	H	1.400062	0.221418	0.210330
H223	H	0.898954	-0.191294	-0.220728
H224	H	1.398954	0.308706	0.279272
H225	H	0.968996	-0.191287	-0.290820
H226	H	1.468996	0.308713	0.209180
H227	H	0.892802	-0.404793	-0.296930
H228	H	1.392802	0.095207	0.203070
C229	C	0.875329	-0.610348	-0.314412
C230	C	1.375329	-0.110348	0.185588
H231	H	0.884115	-0.680414	-0.305654
H232	H	1.384115	-0.180414	0.194346
H233	H	0.815148	-0.593158	-0.304516
H234	H	1.315148	-0.093158	0.195484
H235	H	0.885198	-0.593128	-0.374602
H236	H	1.385198	-0.093128	0.125398
H237	H	1.069393	-0.165048	0.148924
H238	H	1.569393	0.334952	0.648924
H239	H	0.954062	-0.752870	-0.235730
H240	H	1.454062	-0.252870	0.264270
H241	H	1.237457	-0.595285	0.047483
H242	H	1.737457	-0.095285	0.547483
H243	H	1.237448	-0.404754	0.047498
H244	H	1.737448	0.095246	0.547498
