data_functionalizedCrystal
_audit_creation_method	'MofGen! by Chris Wilmer'
_symmetry_space_group_name_H-M	'P1'
_symmetry_Int_Tables_number	1
_symmetry_cell_setting	triclinic
loop_
_symmetry_equiv_pos_as_xyz
  x,y,z
_cell_length_a	12.827893
_cell_length_b	12.827892
_cell_length_c	21.395355
_cell_angle_alpha	90.013329
_cell_angle_beta	90.022562
_cell_angle_gamma	90.015552
loop_
_atom_site_label
_atom_site_type_symbol
_atom_site_fract_x
_atom_site_fract_y
_atom_site_fract_z
Zn1	Zn	1.597703	-0.416150	0.354251
Zn2	Zn	1.597588	-0.590876	0.249483
Zn3	Zn	1.422935	-0.416150	0.249491
Zn4	Zn	1.422930	-0.590850	0.354227
O5	O	1.510289	-0.503506	0.301863
O6	O	1.743924	-0.439338	0.340360
O7	O	1.574373	-0.567710	0.161806
O8	O	1.446169	-0.269914	0.263401
O9	O	1.743839	-0.567709	0.263387
O10	O	1.574571	-0.269914	0.340368
O11	O	1.446056	-0.439339	0.161812
O12	O	1.276698	-0.439314	0.263378
O13	O	1.446161	-0.567664	0.441908
O14	O	1.276695	-0.567665	0.340327
O15	O	1.574566	-0.439313	0.441925
O16	O	1.574368	-0.737109	0.263364
O17	O	1.446048	-0.737089	0.340318
C18	C	1.238779	-0.503487	0.301851
C19	C	1.122626	-0.503504	0.301861
C20	C	1.510224	-0.775016	0.301851
C21	C	1.510291	-0.891170	0.301867
C22	C	1.070883	-0.440095	0.340008
C23	C	0.950833	-0.440111	0.340019
C24	C	1.573800	-0.942871	0.339987
C25	C	1.573872	-1.062921	0.340004
C26	C	1.782859	-0.503527	0.301875
C27	C	1.899012	-0.503535	0.301880
C28	C	1.510376	-0.503485	0.465286
C29	C	1.510413	-0.503476	0.534927
C30	C	1.510383	-0.230936	0.301888
C31	C	1.510423	-0.114783	0.301899
C32	C	1.510263	-0.503452	0.139075
C33	C	1.510428	-0.503167	0.069434
C34	C	1.577270	-0.436641	0.567651
C35	C	1.577269	-0.436596	0.633086
C36	C	1.510421	-0.503405	0.665796
C37	C	1.443550	-0.570245	0.633065
C38	C	1.443546	-0.570281	0.567630
C39	C	1.502147	-0.597499	0.769467
C40	C	1.502158	-0.597465	0.834900
C41	C	1.510427	-0.503295	0.867617
C42	C	1.518707	-0.409155	0.834893
C43	C	1.518703	-0.409191	0.769458
C44	C	1.510417	-0.503373	0.736748
C45	C	1.577287	-0.436405	0.971293
C46	C	1.577278	-0.436358	1.036729
C47	C	1.443565	-0.570017	1.036706
C48	C	1.443568	-0.570054	0.971271
C49	C	1.510435	-0.503250	0.938568
H50	H	1.115461	-0.385792	0.372658
Cl51	Cl	1.426475	-1.046150	0.251504
Cl52	Cl	1.359490	-0.654310	0.526490
Cl53	Cl	1.053810	-0.587336	0.251443
Cl54	Cl	0.967701	-0.587363	0.251455
H55	H	1.455967	-0.935783	0.269247
Cl56	Cl	1.661340	-0.352419	0.930177
Cl57	Cl	1.491782	-0.715899	0.728344
H58	H	1.631717	-0.382242	0.541028
H59	H	1.628117	-0.898260	0.372613
Cl60	Cl	1.657829	-1.131561	0.390391
H61	H	1.631710	-0.382165	0.659735
Cl62	Cl	1.529103	-0.290850	0.728322
Cl63	Cl	1.529108	-0.290761	0.876015
Cl64	Cl	1.661353	-0.352345	1.077868
Cl65	Cl	0.882138	-0.356297	0.390450
Cl66	Cl	1.491759	-0.715811	0.876032
Cl67	Cl	1.359516	-0.653997	1.077821
H68	H	1.389132	-0.624485	0.944627
Cl69	Cl	1.359508	-0.654230	0.674184
