data_functionalizedCrystal
_audit_creation_method	'MofGen! by Chris Wilmer'
_symmetry_space_group_name_H-M	'P1'
_symmetry_Int_Tables_number	1
_symmetry_cell_setting	triclinic
loop_
_symmetry_equiv_pos_as_xyz
  x,y,z
_cell_length_a	15.944551
_cell_length_b	10.654550
_cell_length_c	9.130313
_cell_angle_alpha	90.000110
_cell_angle_beta	89.995744
_cell_angle_gamma	83.991821
loop_
_atom_site_label
_atom_site_type_symbol
_atom_site_fract_x
_atom_site_fract_y
_atom_site_fract_z
O1	O	-1.115457	-0.161961	-0.121643
O2	O	-0.871023	-0.181929	-0.121679
O3	O	-0.998860	0.010867	-0.121654
O4	O	-0.987620	-0.354757	-0.121667
O5	O	-0.998858	0.010862	0.121944
O6	O	-0.871021	-0.181935	0.121920
O7	O	-1.115455	-0.161966	0.121956
Cu8	Cu	-0.993238	-0.171951	0.144181
Cu9	Cu	-0.993240	-0.171945	-0.143903
O10	O	-0.987618	-0.354762	0.121932
C11	C	-0.839723	-0.181103	0.000116
C12	C	-0.746463	-0.178618	0.000102
C13	C	-0.998034	0.057652	0.000143
C14	C	-0.995565	0.197063	0.000138
C15	C	-1.146755	-0.162792	0.000158
C16	C	-1.240015	-0.165278	0.000162
C17	C	-0.530880	-0.053173	0.000135
C18	C	-0.470198	-0.111423	-0.119974
C19	C	-0.575711	-0.174122	0.000120
C20	C	-0.470219	-0.111457	0.120195
C21	C	-0.410773	-0.169770	0.000143
C22	C	-0.516257	-0.232405	-0.120088
C23	C	-0.516284	-0.232421	0.120189
C24	C	-0.455620	-0.290759	0.000050
C25	C	-0.670728	-0.176625	0.000105
C26	C	-0.315757	-0.167276	0.000147
C27	C	-0.988444	-0.401547	0.000131
C28	C	-0.990913	-0.540958	0.000127
N29	N	-0.993243	-0.171954	0.346803
C30	C	-1.070833	0.277522	0.000153
C31	C	-1.068508	0.408513	0.000143
C32	C	-0.915639	0.378572	0.000107
C33	C	-0.917965	0.247584	0.000107
C34	C	-1.159090	0.294810	0.000180
C35	C	-1.156765	0.425801	0.000169
N36	N	-0.993242	-0.171931	-0.346526
C37	C	-1.049864	-0.086613	0.423466
C38	C	-1.049861	-0.086598	0.576803
C39	C	-0.936615	-0.257277	0.576801
C40	C	-0.936614	-0.257285	0.423467
C41	C	-1.115248	0.011924	0.423468
C42	C	-1.115246	0.011939	0.576805
H43	H	-0.563632	0.047204	-0.000010
O44	O	-1.096244	0.139534	0.368316
H45	H	-1.086931	0.202013	0.462920
H46	H	-0.890501	-0.326765	0.361049
H47	H	-0.449836	-0.060280	0.221735
O48	O	-1.088225	0.132436	0.639770
H49	H	-1.031063	0.110066	0.708156
H50	H	-0.890508	-0.326750	0.639237
H51	H	-0.536711	-0.283537	0.221734
O52	O	-1.196032	-0.027520	0.360460
H53	H	-1.238862	-0.048422	0.451059
H54	H	-1.183439	0.471791	-0.105006
H55	H	-0.856674	0.182077	0.000074
O56	O	-1.200736	-0.015476	0.631970
H57	H	-1.249578	0.058202	0.591400
H58	H	-0.449792	-0.060264	-0.221514
O59	O	-0.831944	0.433060	0.000097
H60	H	-0.842970	0.537662	0.000110
H61	H	-0.423043	-0.391240	-0.000020
O62	O	-0.543117	-0.300067	-0.254778
H63	H	-0.612635	-0.301317	-0.253769
O64	O	-1.204805	0.256494	-0.134845
H65	H	-1.225334	0.341618	-0.200960
H66	H	-1.187194	0.259545	0.105365
H67	H	-1.190019	0.467989	0.102118
