data_functionalizedCrystal
_audit_creation_method	'MofGen! by Chris Wilmer'
_symmetry_space_group_name_H-M	'P1'
_symmetry_Int_Tables_number	1
_symmetry_cell_setting	triclinic
loop_
_symmetry_equiv_pos_as_xyz
  x,y,z
_cell_length_a	17.699083
_cell_length_b	23.532407
_cell_length_c	16.176319
_cell_angle_alpha	89.988536
_cell_angle_beta	89.998611
_cell_angle_gamma	83.065847
loop_
_atom_site_label
_atom_site_type_symbol
_atom_site_fract_x
_atom_site_fract_y
_atom_site_fract_z
O1	O	1.003713	0.072020	-0.068639
O2	O	0.783287	0.081390	-0.068667
O3	O	0.900147	-0.006208	-0.068637
O4	O	0.886853	0.159618	-0.068669
O5	O	0.900131	-0.006213	0.068856
O6	O	0.783271	0.081384	0.068826
O7	O	1.003697	0.072014	0.068854
Cu8	Cu	0.893483	0.076699	0.081394
Cu9	Cu	0.893502	0.076705	-0.081207
O10	O	0.886837	0.159612	0.068824
C11	C	0.755084	0.081051	0.000076
C12	C	0.671071	0.080044	0.000066
C13	C	0.622189	0.131462	0.000056
C14	C	0.543251	0.130512	0.000067
C15	C	0.513196	0.078144	0.000082
C16	C	0.562084	0.026722	0.000094
C17	C	0.641021	0.027672	0.000089
C18	C	0.243740	0.022888	0.000115
C19	C	0.164797	0.021942	0.000117
C20	C	0.145970	0.125728	0.000093
C21	C	0.224907	0.126678	0.000088
C22	C	0.273788	0.075257	0.000105
C23	C	0.359382	0.076287	0.000094
C24	C	0.427603	0.077113	0.000086
C25	C	0.899801	-0.027427	0.000111
C26	C	0.898783	-0.090647	0.000118
C27	C	0.961554	-0.489570	0.000080
C28	C	0.960609	-0.548973	0.000074
O29	O	1.018799	-0.585550	0.000051
N30	N	0.891136	-0.571799	0.000066
C31	C	0.822604	-0.535218	0.000055
O32	O	0.763424	-0.560088	0.000047
C33	C	0.823550	-0.475816	0.000056
C34	C	0.893028	-0.452994	0.000073
C35	C	1.031026	-0.466747	0.000096
C36	C	1.031972	-0.407348	0.000104
C37	C	0.963445	-0.370772	0.000096
C38	C	0.893973	-0.393595	0.000080
C39	C	0.755019	-0.439237	0.000040
C40	C	0.755971	-0.379832	0.000039
C41	C	0.825448	-0.357009	0.000056
C42	C	0.826391	-0.297620	0.000081
N43	N	0.895864	-0.274795	0.000089
C44	C	0.964391	-0.311371	0.000097
C45	C	0.820622	-0.659966	0.000053
C46	C	0.819674	-0.719367	0.000058
C47	C	0.957680	-0.733118	0.000075
C48	C	0.958626	-0.673716	0.000076
C49	C	0.890095	-0.637141	0.000061
C50	C	0.966371	-0.186628	0.000114
C51	C	0.967310	-0.127223	0.000125
C52	C	0.829305	-0.113478	0.000104
C53	C	0.828365	-0.172877	0.000097
C54	C	0.896904	-0.209452	0.000099
O55	O	0.768232	-0.261008	0.000100
O56	O	1.023560	-0.286493	0.000094
C57	C	1.031901	0.072353	0.000109
C58	C	1.115914	0.073360	0.000114
C59	C	0.887184	0.180832	0.000073
C60	C	0.888202	0.244052	0.000062
N61	N	0.893475	0.076694	0.195759
N62	N	0.893516	0.076706	-0.195573
C63	C	0.945236	0.037921	0.239037
C64	C	0.945240	0.037921	0.325584
C65	C	0.893486	0.076696	0.368852
C66	C	0.841719	0.115470	0.325568
C67	C	0.841713	0.115467	0.239023
C68	C	0.841745	0.115481	0.674597
C69	C	0.841758	0.115481	0.761148
C70	C	0.945273	0.037934	0.761158
C71	C	0.945266	0.037932	0.674612
C72	C	0.893497	0.076704	0.631336
C73	C	0.893493	0.076703	0.537492
C74	C	0.893493	0.076700	0.462695
H75	H	0.140330	-0.020705	0.000130
C76	C	1.034004	-0.648862	-0.000043
C77	C	1.038583	-0.615143	-0.070771
C78	C	1.108007	-0.592235	-0.070906
H79	H	1.074742	-0.679098	-0.000080
H80	H	1.037247	-0.625948	0.047878
H81	H	1.035347	-0.638056	-0.118680
H82	H	0.997860	-0.584898	-0.070750
H83	H	1.111250	-0.569321	-0.022985
H84	H	1.148740	-0.622475	-0.070941
H85	H	1.111120	-0.569350	-0.118890
C86	C	0.296679	-0.033001	0.000087
C87	C	0.253459	-0.079064	0.000077
C88	C	0.302204	-0.130560	0.000040
H89	H	0.327880	-0.034872	0.048021
H90	H	0.327854	-0.034820	-0.047879
H91	H	0.222297	-0.077246	0.048037
H92	H	0.222259	-0.077212	-0.047854
H93	H	0.333379	-0.132378	-0.047925
H94	H	0.333403	-0.132424	0.047976
H95	H	0.272886	-0.161819	0.000026
H96	H	0.987383	0.006349	0.203814
H97	H	0.537607	-0.015917	0.000117
H98	H	0.106161	0.167598	0.000084
H99	H	0.799610	0.147058	0.796376
H100	H	0.764811	-0.630189	0.000048
C101	C	1.107484	-0.382686	0.000072
C102	C	1.167286	-0.427441	0.000054
C103	C	1.236862	-0.404748	0.000011
H104	H	1.110832	-0.359815	0.048006
H105	H	1.110771	-0.359809	-0.047894
H106	H	1.164000	-0.450307	0.048015
H107	H	1.163963	-0.450315	-0.047877
H108	H	1.240150	-0.381872	-0.047955
H109	H	1.240203	-0.381878	0.047946
H110	H	1.277446	-0.435110	-0.000009
C111	C	1.001369	-0.004308	0.627761
C112	C	0.989434	-0.060229	0.648916
C113	C	1.041093	-0.099179	0.605803
H114	H	1.051868	0.001736	0.641924
H115	H	0.993996	0.001153	0.569996
H116	H	0.996812	-0.065688	0.706668
H117	H	0.938945	-0.066291	0.634751
H118	H	1.033721	-0.093718	0.548037
H119	H	1.091588	-0.093130	0.619969
H120	H	1.032997	-0.137125	0.620144
H121	H	0.987424	0.006362	0.796402
H122	H	0.680820	-0.014197	0.000096
H123	H	1.023889	-0.108645	0.000141
C124	C	1.105377	-0.506521	0.000235
C125	C	1.108853	-0.541043	0.070964
C126	C	1.177334	-0.577690	0.071120
H127	H	1.146945	-0.484485	0.000286
H128	H	1.107897	-0.530008	-0.047686
H129	H	1.106341	-0.517558	0.118872
H130	H	1.067302	-0.563091	0.070928
H131	H	1.179854	-0.601178	0.023200
H132	H	1.218896	-0.555650	0.071169
H133	H	1.179698	-0.601121	0.119104
H134	H	0.646653	0.174106	0.000044
H135	H	1.022182	-0.216401	0.000113
H136	H	1.013478	-0.762909	0.000079
H137	H	0.799595	0.147051	0.639368
H138	H	0.249373	0.169322	0.000072
H139	H	0.799576	0.147040	0.360802
C140	C	0.744163	-0.744031	0.000008
C141	C	0.684358	-0.699278	-0.000018
C142	C	0.614784	-0.721974	-0.000081
H143	H	0.740807	-0.766918	0.047938
H144	H	0.740886	-0.766892	-0.047962
H145	H	0.687633	-0.676427	0.047947
H146	H	0.687688	-0.676388	-0.047944
H147	H	0.611507	-0.744834	-0.048051
H148	H	0.611436	-0.744860	0.047850
H149	H	0.574198	-0.691613	-0.000105
H150	H	0.987387	0.006349	0.360820
H151	H	0.698442	-0.457808	0.000021
C152	C	0.681586	-0.340094	-0.000144
C153	C	0.678097	-0.305587	-0.070889
C154	C	0.609582	-0.268980	-0.071090
H155	H	0.679003	-0.316589	0.047748
H156	H	0.640055	-0.362177	-0.000199
H157	H	0.719616	-0.283506	-0.070826
H158	H	0.680667	-0.329076	-0.118793
H159	H	0.568051	-0.291064	-0.071145
H160	H	0.607005	-0.245480	-0.023194
H161	H	0.607202	-0.245567	-0.119093
H162	H	0.799563	0.147039	0.203787
H163	H	0.503454	0.172382	0.000058
H164	H	0.773512	-0.083687	0.000101
C165	C	0.752856	-0.197549	0.000039
C166	C	0.693046	-0.152800	0.000015
C167	C	0.623475	-0.175501	-0.000061
H168	H	0.749499	-0.220440	0.047964
H169	H	0.749586	-0.220406	-0.047936
H170	H	0.696314	-0.129952	0.047985
H171	H	0.696378	-0.129905	-0.047907
H172	H	0.620206	-0.198358	-0.048035
H173	H	0.620126	-0.198392	0.047865
H174	H	0.582886	-0.145142	-0.000084
