data_functionalizedCrystal
_audit_creation_method	'MofGen! by Chris Wilmer'
_symmetry_space_group_name_H-M	'P1'
_symmetry_Int_Tables_number	1
_symmetry_cell_setting	triclinic
loop_
_symmetry_equiv_pos_as_xyz
  x,y,z
_cell_length_a	10.723024
_cell_length_b	14.185569
_cell_length_c	10.723024
_cell_angle_alpha	103.281270
_cell_angle_beta	84.467869
_cell_angle_gamma	76.717811
loop_
_atom_site_label
_atom_site_type_symbol
_atom_site_fract_x
_atom_site_fract_y
_atom_site_fract_z
O1	O	1.629126	0.083409	0.203075
O2	O	1.265973	0.083412	0.219830
O3	O	1.455927	0.083407	0.029875
O4	O	1.439172	0.083414	0.393030
O5	O	1.512042	-0.083430	-0.026233
O6	O	1.322087	-0.083424	0.163721
O7	O	1.685240	-0.083427	0.146967
Cu8	Cu	1.508787	-0.098659	0.150221
Cu9	Cu	1.442426	0.098644	0.216575
O10	O	1.495286	-0.083422	0.336922
C11	C	1.247530	-0.000006	0.190556
C12	C	1.108975	-0.000005	0.186909
N13	N	1.555472	-0.237432	0.103550
C14	C	1.033992	-0.000002	0.293198
C15	C	0.890788	-0.000000	0.289431
C16	C	1.258592	-0.605073	0.400301
C17	C	1.293964	-0.710096	0.364957
C18	C	1.462203	-0.710061	0.196815
C19	C	1.426842	-0.605037	0.232141
C20	C	1.325036	-0.552551	0.333886
C21	C	1.493286	-0.552515	0.165726
C22	C	1.457931	-0.447499	0.201054
C23	C	1.356133	-0.395006	0.302797
C24	C	1.289682	-0.447535	0.369214
C25	C	1.595097	-0.605002	0.063988
C26	C	1.661541	-0.552480	-0.002427
C27	C	1.626181	-0.447463	0.032895
C28	C	1.524382	-0.394969	0.134638
C29	C	1.692632	-0.394933	-0.033522
C30	C	1.657277	-0.289918	0.001806
C31	C	1.489028	-0.289954	0.169965
C32	C	1.703682	-0.000008	0.176241
C33	C	1.842235	-0.000002	0.179890
C34	C	1.482765	-0.000010	-0.044678
C35	C	1.479116	-0.000007	-0.183231
N36	N	1.395751	0.237416	0.263236
C37	C	1.585404	-0.000006	-0.258214
C38	C	1.581635	-0.000003	-0.401416
C39	C	1.468448	-0.000003	0.411476
C40	C	1.472094	0.000000	0.550031
H41	H	1.075815	-0.000005	0.386982
H42	H	1.206773	-0.404799	0.452055
H43	H	1.239849	-0.752854	0.419051
Cl44	Cl	1.590186	-0.776051	0.068914
Cl45	Cl	1.639544	-0.737024	0.019586
H46	H	0.826353	0.000006	0.380423
Cl47	Cl	1.331602	-0.000008	-0.350507
Cl48	Cl	1.722128	-0.000010	-0.500891
Cl49	Cl	1.130591	-0.539087	0.528199
H50	H	0.906659	0.000002	0.088896
Cl51	Cl	1.044420	-0.000015	0.042100
H52	H	1.385328	0.000001	-0.225051
H53	H	1.406118	-0.247218	0.252807
H54	H	1.744436	-0.595226	-0.085266
Cl55	Cl	1.311691	-0.262984	0.347216
Cl56	Cl	1.820624	-0.460925	-0.161412
Cl57	Cl	1.740814	-0.223888	-0.081687
Cl58	Cl	1.730208	-0.000001	-0.193654
