data_functionalizedCrystal
_audit_creation_method	'MofGen! by Chris Wilmer'
_symmetry_space_group_name_H-M	'P1'
_symmetry_Int_Tables_number	1
_symmetry_cell_setting	triclinic
loop_
_symmetry_equiv_pos_as_xyz
  x,y,z
_cell_length_a	15.538191
_cell_length_b	15.995350
_cell_length_c	14.185569
_cell_angle_alpha	76.847063
_cell_angle_beta	97.875798
_cell_angle_gamma	65.382234
loop_
_atom_site_label
_atom_site_type_symbol
_atom_site_fract_x
_atom_site_fract_y
_atom_site_fract_z
O1	O	1.228538	-0.246460	-0.083440
O2	O	0.954280	-0.149782	-0.083436
O3	O	1.098906	-0.322287	-0.083437
O4	O	1.083912	-0.073955	-0.083439
O5	O	1.141630	-0.373243	0.083397
O6	O	0.997004	-0.200737	0.083399
O7	O	1.271262	-0.297416	0.083394
Cu8	Cu	1.138034	-0.253729	0.098629
Cu9	Cu	1.087508	-0.193468	-0.098671
O10	O	1.126635	-0.124910	0.083395
C11	C	0.940547	-0.165144	-0.000018
C12	C	0.835973	-0.135015	-0.000016
C13	C	0.548179	-0.434345	-0.000030
C14	C	0.449913	-0.406012	-0.000031
C15	C	0.427470	-0.246646	-0.000032
C16	C	0.525737	-0.274967	-0.000026
C17	C	0.586085	-0.368817	-0.000026
C18	C	0.563643	-0.209439	-0.000022
C19	C	0.661900	-0.237757	-0.000021
C20	C	0.722252	-0.331602	-0.000025
C21	C	0.684342	-0.397135	-0.000026
C22	C	0.503292	-0.115587	-0.000029
C23	C	0.541197	-0.050060	-0.000025
C24	C	0.639458	-0.078379	-0.000017
C25	C	0.699811	-0.172225	-0.000021
C26	C	0.677369	-0.012847	-0.000016
C27	C	0.775626	-0.041165	-0.000016
C28	C	0.798068	-0.200542	-0.000020
C29	C	1.119648	-0.378771	-0.000022
C30	C	1.117788	-0.471155	-0.000028
C31	C	1.111115	-0.806875	-0.000024
C32	C	1.008019	-0.728023	-0.000397
C33	C	1.009974	-0.632013	-0.000021
C34	C	1.114425	-0.640320	-0.000026
C35	C	1.189625	-0.725935	0.095241
C36	C	1.187058	-0.821808	0.095321
C37	C	1.140601	-0.764867	-0.094401
C38	C	1.140254	-0.667530	-0.095660
C39	C	1.116302	-0.546193	-0.000024
C40	C	1.109243	-0.901005	-0.000019
C41	C	1.284995	-0.282052	-0.000026
C42	C	1.389566	-0.312180	-0.000034
C43	C	1.105893	-0.068426	-0.000022
C44	C	1.107752	0.023960	-0.000023
N45	N	1.173578	-0.296116	0.237400
N46	N	1.051971	-0.151090	-0.237442
C47	C	0.947543	-0.026594	0.605052
C48	C	0.974474	-0.058698	0.710074
C49	C	1.102566	-0.211417	0.710033
C50	C	1.075643	-0.179328	0.605010
C51	C	0.998131	-0.086915	0.552528
C52	C	1.126231	-0.239649	0.552485
C53	C	1.099314	-0.207560	0.447471
C54	C	1.021807	-0.115150	0.394981
C55	C	0.971214	-0.054826	0.447514
C56	C	1.203747	-0.332059	0.604969
C57	C	1.254336	-0.392380	0.552445
C58	C	1.227413	-0.360294	0.447428
C59	C	1.149907	-0.267884	0.394939
C60	C	1.278007	-0.420618	0.394896
C61	C	1.251089	-0.388529	0.289882
C62	C	1.122989	-0.235795	0.289925
H63	H	0.597319	-0.510769	-0.000024
Br64	Br	1.240282	-0.375601	0.747491
Br65	Br	0.914266	-0.529642	-0.113845
Br66	Br	0.345561	-0.119279	-0.000041
Br67	Br	0.910235	-0.703271	-0.114268
H68	H	0.419056	-0.459379	-0.000036
Br69	Br	0.766255	-0.524510	-0.000009
Br70	Br	0.972158	-0.600018	0.113996
H71	H	0.423285	-0.092533	-0.000032
Br72	Br	1.053643	-0.745269	-0.214753
Br73	Br	1.048778	-0.567034	-0.213146
Br74	Br	1.359531	-0.517792	0.623676
Br75	Br	0.968418	-0.774737	0.112493
Br76	Br	0.855602	-0.370035	-0.000034
H77	H	1.341124	-0.495857	0.437641
H78	H	1.267269	-0.736212	0.098780
H79	H	0.492049	0.026355	-0.000029
Br80	Br	1.314940	-0.916069	0.102531
Br81	Br	0.905810	0.023184	0.781350
H82	H	0.847208	-0.276967	-0.000014
H83	H	0.908089	0.020421	0.404781
Br84	Br	0.595454	0.114523	-0.000039
Br85	Br	1.319752	-0.470392	0.218596
H86	H	0.806491	0.012192	-0.000004
H87	H	1.168250	-0.850603	0.166539
H88	H	1.214950	-0.673559	-0.101416
Br89	Br	1.161080	-0.696855	0.213415
Br90	Br	1.266898	-0.855942	-0.095477
H91	H	1.059865	-0.160547	0.247192
Br92	Br	0.985280	-0.071595	0.252460
Br93	Br	0.842334	0.098819	0.533821
H94	H	1.165679	-0.286660	0.752776
