data_functionalizedCrystal
_audit_creation_method	'MofGen! by Chris Wilmer'
_symmetry_space_group_name_H-M	'P1'
_symmetry_Int_Tables_number	1
_symmetry_cell_setting	triclinic
loop_
_symmetry_equiv_pos_as_xyz
  x,y,z
_cell_length_a	17.917603
_cell_length_b	17.917603
_cell_length_c	20.875625
_cell_angle_alpha	58.651218
_cell_angle_beta	92.965346
_cell_angle_gamma	60.136927
loop_
_atom_site_label
_atom_site_type_symbol
_atom_site_fract_x
_atom_site_fract_y
_atom_site_fract_z
Zr1	Zr	0.785354	0.746999	-0.082679
O2	O	0.661006	0.914370	-0.196513
O3	O	0.818580	0.587941	-0.043759
O4	O	0.817163	0.744100	-0.183744
O5	O	0.669107	0.757599	0.049318
O6	O	0.945907	0.732357	-0.178248
O7	O	0.662424	0.758211	-0.056528
O8	O	0.948442	0.453017	0.072159
O9	O	0.666572	1.036939	-0.201090
O10	O	0.934743	0.641521	-0.027920
O11	O	0.843650	0.649828	0.046971
O12	O	0.841981	0.833685	-0.117844
O13	O	0.750889	0.841992	-0.042954
Zr14	Zr	1.001346	0.727295	0.094898
Zr15	Zr	0.990687	0.728270	-0.073914
Zr16	Zr	0.796014	0.746023	0.086133
Zr17	Zr	0.794231	0.942482	-0.089978
Zr18	Zr	0.992469	0.531811	0.102198
O19	O	0.968120	0.886353	0.055978
O20	O	0.952963	0.887740	-0.184051
O21	O	0.676164	0.912982	0.043516
O22	O	1.125694	0.559924	0.208732
O23	O	1.110537	0.561311	-0.031297
O24	O	0.833737	0.586553	0.196270
O25	O	1.117593	0.716695	-0.037099
O26	O	0.969538	0.730194	0.195963
O27	O	0.840793	0.741937	0.190468
O28	O	1.124277	0.716083	0.068747
O29	O	0.829785	1.022052	-0.194123
O30	O	0.956915	0.452241	0.206342
O31	O	1.120128	0.437355	0.213309
O32	O	1.111654	0.438130	0.079126
O33	O	0.675046	1.036163	-0.066907
O34	O	0.838258	1.021277	-0.059940
O35	O	0.944719	0.640608	0.130063
O36	O	1.035811	0.632301	0.055173
O37	O	0.943050	0.824465	-0.034751
O38	O	0.851958	0.832772	0.040139
C39	C	0.882246	0.492627	0.015240
C40	C	0.878478	0.409639	0.018339
C41	C	0.871592	0.257697	0.023998
C42	C	0.915106	0.216592	-0.011777
C43	C	0.911275	0.132046	-0.008628
C44	C	0.875422	0.342250	0.020850
C45	C	0.636510	0.760573	-0.004854
C46	C	0.549341	0.768524	-0.008574
C47	C	0.389759	0.783047	-0.015370
C48	C	0.396934	0.691251	0.027587
C49	C	0.308137	0.699332	0.023806
C50	C	0.478562	0.774968	-0.011590
C51	C	1.150190	0.713720	0.017073
C52	C	1.237359	0.705770	0.020794
C53	C	0.880016	0.738367	-0.205048
C54	C	0.875491	0.738782	-0.276713
C55	C	0.904454	0.981667	-0.003021
C56	C	0.908223	1.064655	-0.006120
C57	C	0.944291	0.732508	-0.307354
C58	C	0.940041	0.732888	-0.374687
C59	C	0.866986	0.739549	-0.411381
C60	C	0.798183	0.745820	-0.380734
C61	C	0.802437	0.745432	-0.313399
C62	C	0.846660	0.741395	-0.613085
C63	C	0.842409	0.741785	-0.680426
C64	C	0.984269	0.728851	-0.674374
C65	C	0.988514	0.728471	-0.607041
C66	C	0.919713	0.734736	-0.576397
N67	N	0.862639	0.739941	-0.480207
N68	N	0.924065	0.734336	-0.507568
C69	C	0.906684	0.735926	0.217268
C70	C	0.911209	0.735512	0.288933
C71	C	1.139086	0.469200	0.026204
C72	C	1.222487	0.378262	0.033023
C73	C	0.895580	0.491406	0.226398
C74	C	0.896337	0.408004	0.301162
C75	C	1.152420	0.467980	0.237361
C76	C	1.240346	0.376627	0.315846
C77	C	0.634280	1.006314	-0.225142
C78	C	0.546354	1.097667	-0.303627
C79	C	0.647614	1.005093	-0.013984
C80	C	0.564213	1.096032	-0.020804
C81	C	0.891120	0.982888	-0.214179
C82	C	0.890363	1.066290	-0.288943
C83	C	1.208895	0.340369	-0.007155
C84	C	1.287251	0.254934	-0.000763
C85	C	1.379197	0.207388	0.045811
C86	C	1.392787	0.245289	0.085990
C87	C	1.314432	0.330728	0.079593
C88	C	0.949450	0.364025	0.379653
C89	C	0.950158	0.285671	0.449907
C90	C	0.897759	0.251292	0.441670
C91	C	0.844640	0.295279	0.363171
C92	C	0.843926	0.373638	0.292918
C93	C	1.329195	0.329390	0.313612
C94	C	1.411819	0.243564	0.387350
C95	C	1.405592	0.204972	0.463322
C96	C	1.316733	0.252218	0.465554
C97	C	1.234112	0.338047	0.391817
C98	C	0.457505	1.144913	-0.301393
C99	C	0.374883	1.230763	-0.375132
C100	C	0.381110	1.269359	-0.451104
C101	C	0.469968	1.222109	-0.453336
C102	C	0.552589	1.136266	-0.379598
C103	C	0.577805	1.133933	0.019367
C104	C	0.499449	1.219390	0.012956
C105	C	0.407503	1.266938	-0.033621
C106	C	0.393913	1.229034	-0.073796
C107	C	0.472268	1.143584	-0.067390
C108	C	0.942773	1.100643	-0.280679
C109	C	0.942080	1.178996	-0.350920
C110	C	0.888972	1.223000	-0.429425
C111	C	0.836561	1.188640	-0.437687
C112	C	0.837259	1.110282	-0.367446
H113	H	0.469764	0.606594	0.067202
Br114	Br	0.268377	0.924141	-0.081395
H115	H	0.319040	1.267761	-0.111719
H116	H	0.510533	1.250236	0.045676
H117	H	1.048000	0.723047	-0.577165
H118	H	0.898347	0.187487	0.498881
Br119	Br	0.766116	1.063679	-0.378677
Br120	Br	1.014857	1.040940	-0.174146
Br121	Br	1.043436	0.723479	-0.257567
Br122	Br	1.084120	0.404880	-0.070371
Br123	Br	0.981997	0.263762	-0.066766
H124	H	0.831464	0.229395	0.056987
Br125	Br	1.033416	0.724368	-0.416270
Br126	Br	0.478404	1.274500	-0.556448
Br127	Br	1.077638	0.720347	-0.715963
H128	H	0.782915	0.747211	-0.710301
Br129	Br	0.753290	0.749900	-0.571502
H130	H	0.738703	0.751237	-0.410611
H131	H	0.746414	0.750539	-0.288451
Br132	Br	1.268785	0.203514	-0.055295
Br133	Br	1.517578	0.180747	0.149198
H134	H	1.442990	0.137818	0.051013
H135	H	1.325512	0.361569	0.112317
Br136	Br	1.020577	0.410658	0.390855
H137	H	0.801977	0.267276	0.356476
Br138	Br	1.022255	0.225988	0.556431
H139	H	1.472875	0.135083	0.523358
H140	H	0.984759	1.206964	-0.344177
Br141	Br	0.771841	0.433311	0.186398
H142	H	1.334284	0.360798	0.251759
H143	H	1.484164	0.205105	0.385518
Br144	Br	1.308298	0.199830	0.568666
Br145	Br	1.113534	0.402140	0.394864
H146	H	0.452416	1.113494	-0.239540
H147	H	0.302539	1.269221	-0.373299
H148	H	0.313828	1.339258	-0.511140
Br149	Br	0.673166	1.072150	-0.382645
H150	H	0.652665	1.095225	0.057300
H151	H	0.343710	1.336516	-0.038831
H152	H	0.461188	1.112728	-0.100101
Br153	Br	0.888033	1.329345	-0.524744
Br154	Br	0.764481	1.248381	-0.544236
