data_functionalizedCrystal
_audit_creation_method	'MofGen! by Chris Wilmer'
_symmetry_space_group_name_H-M	'P1'
_symmetry_Int_Tables_number	1
_symmetry_cell_setting	triclinic
loop_
_symmetry_equiv_pos_as_xyz
  x,y,z
_cell_length_a	11.792254
_cell_length_b	15.944551
_cell_length_c	10.868271
_cell_angle_alpha	89.993912
_cell_angle_beta	89.995741
_cell_angle_gamma	83.848668
loop_
_atom_site_label
_atom_site_type_symbol
_atom_site_fract_x
_atom_site_fract_y
_atom_site_fract_z
O1	O	1.505951	0.115179	-0.102324
O2	O	1.839284	0.448512	0.231009
O3	O	2.172618	0.781845	0.564343
O4	O	1.175514	0.127033	-0.102327
O5	O	1.508847	0.460366	0.231006
O6	O	1.842181	0.793699	0.564340
O7	O	1.349756	-0.001128	-0.102314
O8	O	1.683089	0.332205	0.231019
O9	O	2.016423	0.665539	0.564352
O10	O	1.331709	0.243340	-0.102337
O11	O	1.665042	0.576673	0.230997
O12	O	1.998376	0.910006	0.564330
O13	O	1.349742	-0.001133	0.102330
O14	O	1.683075	0.332200	0.435664
O15	O	2.016408	0.665534	0.768997
O16	O	1.175500	0.127028	0.102318
O17	O	1.508833	0.460361	0.435651
O18	O	1.842166	0.793694	0.768984
O19	O	1.505937	0.115174	0.102321
O20	O	1.839270	0.448507	0.435654
O21	O	2.172603	0.781840	0.768987
Zn22	Zn	1.340716	0.121100	0.134811
Zn23	Zn	1.674049	0.454433	0.468144
Zn24	Zn	2.007383	0.787767	0.801478
Zn25	Zn	1.340735	0.121107	-0.134817
Zn26	Zn	1.674068	0.454440	0.198516
Zn27	Zn	2.007401	0.787773	0.531849
O28	O	1.331695	0.243335	0.102308
O29	O	1.665028	0.576668	0.435641
O30	O	1.998361	0.910001	0.768975
C31	C	1.133222	0.126284	-0.000005
C32	C	1.466556	0.459617	0.333328
C33	C	1.799889	0.792950	0.666662
C34	C	1.007228	0.124049	-0.000006
C35	C	1.340561	0.457382	0.333328
C36	C	1.673894	0.790715	0.666661
C37	C	0.904906	0.122233	-0.000011
C38	C	1.238239	0.455566	0.333322
C39	C	1.571573	0.788899	0.666656
C40	C	0.776538	0.119962	-0.000011
C41	C	1.109872	0.453295	0.333322
C42	C	1.443205	0.786628	0.666655
C43	C	1.349000	-0.032428	0.000008
C44	C	1.682333	0.300905	0.333341
C45	C	2.015666	0.634239	0.666675
C46	C	1.346753	-0.125684	0.000009
C47	C	1.680087	0.207649	0.333342
C48	C	2.013420	0.540983	0.666675
C49	C	1.233381	-0.341056	-0.000009
C50	C	1.566715	-0.007723	0.333324
C51	C	1.900048	0.325610	0.666658
C52	C	1.286021	-0.401837	0.100894
C53	C	1.619354	-0.068503	0.434227
C54	C	1.952687	0.264830	0.767560
C55	C	1.342690	-0.296428	-0.000001
C56	C	1.676023	0.036905	0.333333
C57	C	2.009357	0.370238	0.666666
C58	C	1.286060	-0.401815	-0.100870
C59	C	1.619394	-0.068482	0.232463
C60	C	1.952727	0.264852	0.565797
C61	C	1.338757	-0.461359	-0.000015
C62	C	1.672090	-0.128026	0.333318
C63	C	2.005424	0.205308	0.666651
C64	C	1.395359	-0.355981	0.100985
C65	C	1.728693	-0.022647	0.434319
C66	C	2.062026	0.310686	0.767652
C67	C	1.395384	-0.355953	-0.100869
C68	C	1.728717	-0.022619	0.232464
C69	C	2.062050	0.310714	0.565798
C70	C	1.448102	-0.416715	0.000058
C71	C	1.781436	-0.083382	0.333392
C72	C	2.114769	0.249952	0.666725
C73	C	1.344953	-0.201416	0.000009
C74	C	1.678286	0.131917	0.333342
C75	C	2.011619	0.465251	0.666675
C76	C	1.336503	-0.556370	-0.000016
C77	C	1.669836	-0.223037	0.333318
C78	C	2.003170	0.110296	0.666651
C79	C	1.548228	0.115923	-0.000004
C80	C	1.881562	0.449256	0.333329
C81	C	2.214895	0.782590	0.666663
C82	C	1.674223	0.118158	-0.000011
C83	C	2.007556	0.451491	0.333322
C84	C	2.340890	0.784825	0.666655
C85	C	1.332451	0.274634	-0.000017
C86	C	1.665784	0.607968	0.333316
C87	C	1.999118	0.941301	0.666649
C88	C	1.334697	0.367891	-0.000026
C89	C	1.668030	0.701224	0.333307
C90	C	2.001364	1.034557	0.666641
N91	N	1.340711	0.121095	0.318825
N92	N	1.674045	0.454428	0.652158
N93	N	2.007378	0.787762	0.985492
N94	N	1.340748	0.121105	-0.318831
N95	N	1.674082	0.454438	0.014502
N96	N	2.007415	0.787772	0.347835
C97	C	1.340729	0.121105	0.569831
C98	C	1.674062	0.454438	0.903164
C99	C	2.007395	0.787772	1.236498
C100	C	1.340715	0.121102	0.430153
C101	C	1.674049	0.454435	0.763487
C102	C	2.007382	0.787768	1.096820
H103	H	1.142650	-0.308161	0.000091
H104	H	1.475984	0.025172	0.333424
H105	H	1.809317	0.358506	0.666757
Cl106	Cl	1.214660	-0.433155	-0.232565
Cl107	Cl	1.547993	-0.099822	0.100769
Cl108	Cl	1.881327	0.233512	0.434102
Cl109	Cl	1.214635	-0.433211	0.232598
Cl110	Cl	1.547968	-0.099878	0.565931
Cl111	Cl	1.881301	0.233455	0.899264
H112	H	1.441547	-0.335782	0.186384
H113	H	1.774881	-0.002449	0.519717
H114	H	2.108214	0.330884	0.853051
H115	H	1.538913	-0.449461	0.000116
H116	H	1.872246	-0.116128	0.333450
H117	H	2.205580	0.217206	0.666783
Cl118	Cl	1.466713	-0.324541	-0.232580
Cl119	Cl	1.800047	0.008792	0.100753
Cl120	Cl	2.133380	0.342125	0.434087
