data_functionalizedCrystal
_audit_creation_method	'MofGen! by Chris Wilmer'
_symmetry_space_group_name_H-M	'P1'
_symmetry_Int_Tables_number	1
_symmetry_cell_setting	triclinic
loop_
_symmetry_equiv_pos_as_xyz
  x,y,z
_cell_length_a	14.519710
_cell_length_b	12.837942
_cell_length_c	11.892083
_cell_angle_alpha	94.299957
_cell_angle_beta	93.908773
_cell_angle_gamma	90.745458
loop_
_atom_site_label
_atom_site_type_symbol
_atom_site_fract_x
_atom_site_fract_y
_atom_site_fract_z
O1	O	1.240930	-0.129297	0.093978
O2	O	1.574263	0.204036	0.427311
O3	O	1.907597	0.537370	0.760645
O4	O	0.973836	-0.145301	0.093986
O5	O	1.307170	0.188032	0.427319
O6	O	1.640503	0.521365	0.760652
O7	O	1.101460	0.013614	0.093975
O8	O	1.434794	0.346947	0.427308
O9	O	1.768127	0.680281	0.760642
O10	O	1.113306	-0.288212	0.093989
O11	O	1.446639	0.045121	0.427322
O12	O	1.779973	0.378454	0.760655
O13	O	1.090808	0.000392	-0.094032
O14	O	1.424142	0.333726	0.239301
O15	O	1.757475	0.667059	0.572635
O16	O	0.963184	-0.158523	-0.094021
O17	O	1.296518	0.174810	0.239312
O18	O	1.629851	0.508143	0.572645
O19	O	1.230278	-0.142519	-0.094029
O20	O	1.563611	0.190815	0.239304
O21	O	1.896944	0.524148	0.572638
Zn22	Zn	1.095040	-0.152620	-0.123875
Zn23	Zn	1.428373	0.180713	0.209458
Zn24	Zn	1.761707	0.514046	0.542791
Zn25	Zn	1.109074	-0.135200	0.123832
Zn26	Zn	1.442408	0.198133	0.457165
Zn27	Zn	1.775741	0.531467	0.790499
O28	O	1.102654	-0.301434	-0.094018
O29	O	1.435987	0.031899	0.239315
O30	O	1.769321	0.365232	0.572648
C31	C	0.934086	-0.151166	-0.000017
C32	C	1.267420	0.182167	0.333316
C33	C	1.600753	0.515500	0.666650
C34	C	0.831512	-0.148931	-0.000014
C35	C	1.164845	0.184402	0.333319
C36	C	1.498179	0.517736	0.666652
C37	C	1.270028	-0.136654	-0.000024
C38	C	1.603362	0.196680	0.333309
C39	C	1.936695	0.530013	0.666643
C40	C	1.372603	-0.138888	-0.000019
C41	C	1.705936	0.194445	0.333314
C42	C	2.039270	0.527778	0.666647
C43	C	1.092133	0.045631	-0.000028
C44	C	1.425466	0.378965	0.333306
C45	C	1.758800	0.712298	0.666639
C46	C	1.080199	0.160731	-0.000026
C47	C	1.413532	0.494064	0.333308
C48	C	1.746865	0.827397	0.666641
C49	C	1.748210	-0.147117	-0.000018
C50	C	2.081543	0.186216	0.333315
C51	C	2.414876	0.519550	0.666648
C52	C	1.643704	-0.144832	-0.000018
C53	C	1.977038	0.188501	0.333315
C54	C	2.310371	0.521835	0.666648
C55	C	1.560410	-0.143003	-0.000018
C56	C	1.893743	0.190330	0.333316
C57	C	2.227076	0.523664	0.666649
C58	C	1.455898	-0.140718	-0.000020
C59	C	1.789231	0.192616	0.333313
C60	C	2.122564	0.525949	0.666647
C61	C	1.111982	-0.333451	-0.000013
C62	C	1.445315	-0.000118	0.333320
C63	C	1.778648	0.333215	0.666653
C64	C	1.123916	-0.448550	-0.000008
C65	C	1.457249	-0.115217	0.333325
C66	C	1.790583	0.218117	0.666659
N67	N	1.085468	-0.164509	-0.292929
N68	N	1.418802	0.168825	0.040404
N69	N	1.752135	0.502158	0.373738
C70	C	1.223670	0.401424	-0.000006
C71	C	1.557004	0.734758	0.333327
C72	C	1.890337	1.068091	0.666661
C73	C	1.212462	0.509571	-0.000004
C74	C	1.545795	0.842905	0.333329
C75	C	1.879128	1.176238	0.666663
C76	C	1.046574	0.485174	-0.000011
C77	C	1.379907	0.818507	0.333322
C78	C	1.713240	1.151840	0.666656
C79	C	1.057783	0.377027	-0.000013
C80	C	1.391116	0.710360	0.333320
C81	C	1.724449	1.043694	0.666654
C82	C	1.146334	0.335156	-0.000012
C83	C	1.479667	0.668490	0.333321
C84	C	1.813000	1.001823	0.666654
C85	C	1.157541	0.227007	-0.000023
C86	C	1.490874	0.560340	0.333311
C87	C	1.824208	0.893674	0.666644
C88	C	0.991654	0.202612	-0.000022
C89	C	1.324988	0.535945	0.333312
C90	C	1.658321	0.869279	0.666645
C91	C	0.980446	0.310759	-0.000019
C92	C	1.313779	0.644092	0.333314
C93	C	1.647112	0.977425	0.666647
C94	C	1.018930	-0.247341	-0.470461
C95	C	1.352263	0.085992	-0.137128
C96	C	1.685597	0.419326	0.196205
C97	C	1.025602	-0.239015	-0.352120
C98	C	1.358936	0.094318	-0.018787
C99	C	1.692269	0.427652	0.314547
C100	C	1.138664	-0.098321	-0.352088
C101	C	1.471997	0.235012	-0.018754
C102	C	1.805331	0.568346	0.314579
C103	C	1.131992	-0.106647	-0.470429
C104	C	1.465325	0.226686	-0.137096
C105	C	1.798658	0.560020	0.196237
C106	C	1.072124	-0.181161	-0.529612
C107	C	1.405457	0.152173	-0.196279
C108	C	1.738790	0.485506	0.137055
C109	C	1.065457	-0.189491	-0.647956
C110	C	1.398790	0.143843	-0.314622
C111	C	1.732124	0.477176	0.018711
C112	C	1.178513	-0.048793	-0.647921
C113	C	1.511846	0.284541	-0.314588
C114	C	1.845180	0.617874	0.018745
C115	C	1.185185	-0.040467	-0.529580
C116	C	1.518519	0.292867	-0.196246
C117	C	1.851852	0.626200	0.137087
N118	N	1.118653	-0.123303	0.292885
N119	N	1.451986	0.210030	0.626219
N120	N	1.785319	0.543363	0.959552
H121	H	1.229644	0.192918	-0.000026
H122	H	1.562977	0.526251	0.333307
H123	H	1.896310	0.859585	0.666640
Cl124	Cl	1.334986	0.348781	-0.000033
Cl125	Cl	1.668320	0.682114	0.333300
Cl126	Cl	2.001653	1.015448	0.666633
Cl127	Cl	1.309690	0.592877	0.000007
Cl128	Cl	1.643023	0.926211	0.333341
Cl129	Cl	1.976357	1.259544	0.666674
H130	H	0.974480	0.519285	0.000001
H131	H	1.307813	0.852618	0.333334
H132	H	1.641147	1.185952	0.666667
H133	H	0.908350	0.344865	-0.000016
H134	H	1.241683	0.678199	0.333318
H135	H	1.575017	1.011532	0.666651
Cl136	Cl	0.894424	0.119296	-0.000044
Cl137	Cl	1.227758	0.452629	0.333289
Cl138	Cl	1.561091	0.785962	0.666623
H139	H	1.016712	-0.250166	-0.696141
H140	H	1.350046	0.083168	-0.362808
H141	H	1.683379	0.416501	-0.029475
H142	H	0.970190	-0.308020	-0.518649
H143	H	1.303523	0.025314	-0.185316
H144	H	1.636857	0.358647	0.148018
Cl145	Cl	0.958725	-0.322215	-0.277762
Cl146	Cl	1.292058	0.011118	0.055571
Cl147	Cl	1.625392	0.344452	0.388904
Cl148	Cl	1.245394	0.034403	-0.722293
Cl149	Cl	1.578727	0.367736	-0.388959
Cl150	Cl	1.912060	0.701069	-0.055626
H151	H	1.187400	-0.037647	-0.303886
H152	H	1.520734	0.295686	0.029448
H153	H	1.854067	0.629019	0.362781
Cl154	Cl	1.260442	0.053205	-0.455171
Cl155	Cl	1.593775	0.386539	-0.121838
Cl156	Cl	1.927109	0.719872	0.211496
