data_functionalizedCrystal
_audit_creation_method	'MofGen! by Chris Wilmer'
_symmetry_space_group_name_H-M	'P1'
_symmetry_Int_Tables_number	1
_symmetry_cell_setting	triclinic
loop_
_symmetry_equiv_pos_as_xyz
  x,y,z
_cell_length_a	10.685980
_cell_length_b	16.625546
_cell_length_c	10.686551
_cell_angle_alpha	85.590142
_cell_angle_beta	81.591741
_cell_angle_gamma	94.388851
loop_
_atom_site_label
_atom_site_type_symbol
_atom_site_fract_x
_atom_site_fract_y
_atom_site_fract_z
Zn1	Zn	1.995749	-0.180728	-0.866678
Zn2	Zn	2.495749	0.319272	-0.366678
Zn3	Zn	1.979295	-0.326801	-0.654394
Zn4	Zn	2.479295	0.173199	-0.154394
Zn5	Zn	1.767171	-0.203170	-0.638140
Zn6	Zn	2.267171	0.296830	-0.138140
Zn7	Zn	1.783418	-0.326722	-0.850304
Zn8	Zn	2.283418	0.173278	-0.350304
O9	O	1.881408	-0.259355	-0.752379
O10	O	2.381408	0.240645	-0.252379
O11	O	2.171202	-0.190746	-0.852173
O12	O	2.671202	0.309254	-0.352173
O13	O	1.937470	-0.319826	-0.474604
O14	O	2.437470	0.180174	0.025396
O15	O	1.797579	-0.087354	-0.668506
O16	O	2.297579	0.412646	-0.168506
O17	O	2.159113	-0.298065	-0.696209
O18	O	2.659113	0.201935	-0.196209
O19	O	1.965514	-0.070866	-0.836412
O20	O	2.465514	0.429134	-0.336412
O21	O	1.781624	-0.228995	-0.462662
O22	O	2.281624	0.271005	0.037338
O23	O	1.591691	-0.228919	-0.652629
O24	O	2.091691	0.271081	-0.152629
O25	O	1.825270	-0.297931	-1.030110
O26	O	2.325270	0.202069	-0.530110
O27	O	1.603628	-0.319692	-0.808505
O28	O	2.103628	0.180308	-0.308505
O29	O	1.981269	-0.190670	-1.042140
O30	O	2.481269	0.309330	-0.542140
O31	O	1.953225	-0.439629	-0.680332
O32	O	2.453225	0.060371	-0.180332
O33	O	1.809315	-0.439572	-0.824267
O34	O	2.309315	0.060428	-0.324267
C35	C	1.551600	-0.276733	-0.727027
C36	C	2.051600	0.223267	-0.227027
C37	C	1.410509	-0.284185	-0.716211
C38	C	1.910509	0.215815	-0.216211
C39	C	1.881284	-0.468855	-0.752317
C40	C	2.381284	0.031145	-0.252317
C41	C	1.881350	-0.558472	-0.752341
C42	C	2.381350	-0.058472	-0.252341
C43	C	1.881582	-0.886629	-0.752491
C44	C	2.381582	-0.386629	-0.252491
C45	C	1.881514	-0.795326	-0.752452
C46	C	2.381514	-0.295326	-0.252452
C47	C	1.881465	-0.722553	-0.752415
C48	C	2.381465	-0.222553	-0.252415
C49	C	1.881399	-0.631244	-0.752378
C50	C	2.381399	-0.131244	-0.252378
C51	C	2.212504	-0.241911	-0.777831
C52	C	2.712504	0.258089	-0.277831
C53	C	2.353597	-0.234477	-0.788677
C54	C	2.853597	0.265523	-0.288677
C55	C	1.906917	-0.241788	-1.083471
C56	C	2.406917	0.258212	-0.583471
C57	C	1.917788	-0.234302	-1.224563
C58	C	2.417788	0.265698	-0.724563
C59	C	1.881570	-0.049034	-0.752472
C60	C	2.381570	0.450966	-0.252472
C61	C	1.881639	0.040593	-0.752512
C62	C	2.381639	0.540593	-0.252512
C63	C	1.856072	-0.276792	-0.422581
C64	C	2.356072	0.223208	0.077419
C65	C	1.845447	-0.284038	-0.281509
C66	C	2.345447	0.215962	0.218491
H67	H	1.351288	-0.332446	-0.645886
H68	H	1.851288	0.167554	-0.145886
N69	N	2.005939	-0.173695	-1.298786
N70	N	2.505939	0.326305	-0.798786
N71	N	2.121946	-0.173642	-1.293071
N72	N	2.621946	0.326358	-0.793071
H73	H	2.184204	-0.130838	-1.345489
H74	H	2.684204	0.369162	-0.845489
H75	H	1.412811	-0.186214	-0.858990
H76	H	1.912811	0.313786	-0.358990
N77	N	1.757328	-0.344641	-1.207253
N78	N	2.257328	0.155359	-0.707253
N79	N	1.748326	-0.350842	-1.088899
N80	N	2.248326	0.149158	-0.588899
H81	H	1.686091	-0.393643	-1.036446
H82	H	2.186091	0.106357	-0.536446
