data_functionalizedCrystal
_audit_creation_method	'MofGen! by Chris Wilmer'
_symmetry_space_group_name_H-M	'P1'
_symmetry_Int_Tables_number	1
_symmetry_cell_setting	triclinic
loop_
_symmetry_equiv_pos_as_xyz
  x,y,z
_cell_length_a	18.050591
_cell_length_b	21.295417
_cell_length_c	18.050582
_cell_angle_alpha	90.026755
_cell_angle_beta	90.020922
_cell_angle_gamma	90.026512
loop_
_atom_site_label
_atom_site_type_symbol
_atom_site_fract_x
_atom_site_fract_y
_atom_site_fract_z
Zn1	Zn	1.135281	-0.250716	0.420010
Zn2	Zn	1.468614	0.082617	0.753343
Zn3	Zn	1.801947	0.415950	1.086676
Zn4	Zn	1.135186	-0.355977	0.295811
Zn5	Zn	1.468520	-0.022644	0.629144
Zn6	Zn	1.801853	0.310689	0.962477
Zn7	Zn	1.011100	-0.250719	0.295821
Zn8	Zn	1.344433	0.082615	0.629154
Zn9	Zn	1.677767	0.415948	0.962488
Zn10	Zn	1.011043	-0.355944	0.419946
Zn11	Zn	1.344376	-0.022611	0.753280
Zn12	Zn	1.677710	0.310722	1.086613
O13	O	1.073153	-0.303339	0.357897
O14	O	1.406486	0.029994	0.691230
O15	O	1.739819	0.363327	1.024564
O16	O	1.239193	-0.264692	0.403557
O17	O	1.572526	0.068641	0.736890
O18	O	1.905859	0.401974	1.070224
O19	O	1.118710	-0.342030	0.191887
O20	O	1.452044	-0.008696	0.525221
O21	O	1.785377	0.324637	0.858554
O22	O	1.027636	-0.162629	0.312326
O23	O	1.360969	0.170704	0.645659
O24	O	1.694303	0.504038	0.978992
O25	O	1.239124	-0.342027	0.312308
O26	O	1.572457	-0.008694	0.645642
O27	O	1.905790	0.324639	0.978975
O28	O	1.118871	-0.162627	0.403567
O29	O	1.452204	0.170706	0.736900
O30	O	1.785538	0.504039	1.070233
O31	O	1.027545	-0.264697	0.191895
O32	O	1.360878	0.068637	0.525228
O33	O	1.694211	0.401970	0.858562
O34	O	0.907168	-0.264664	0.312264
O35	O	1.240501	0.068669	0.645597
O36	O	1.573834	0.402002	0.978931
O37	O	1.027539	-0.341971	0.523879
O38	O	1.360872	-0.008637	0.857213
O39	O	1.694206	0.324696	1.190546
O40	O	0.907126	-0.341973	0.403458
O41	O	1.240459	-0.008640	0.736792
O42	O	1.573793	0.324694	1.070125
O43	O	1.118816	-0.264660	0.523926
O44	O	1.452149	0.068673	0.857259
O45	O	1.785483	0.402007	1.190593
O46	O	1.118655	-0.444062	0.312247
O47	O	1.451989	-0.110729	0.645580
O48	O	1.785322	0.222604	0.978913
O49	O	1.027448	-0.444038	0.403449
O50	O	1.360781	-0.110705	0.736782
O51	O	1.694114	0.222629	1.070115
C52	C	0.880200	-0.303316	0.357856
C53	C	1.213534	0.030018	0.691189
C54	C	1.546867	0.363351	1.024523
C55	C	0.797655	-0.303321	0.357856
C56	C	1.130988	0.030012	0.691189
C57	C	1.464321	0.363346	1.024523
C58	C	0.598205	-0.261232	0.308379
C59	C	0.931539	0.072102	0.641712
C60	C	1.264872	0.405435	0.975045
C61	C	0.548783	-0.318646	0.290098
C62	C	0.882116	0.014687	0.623431
C63	C	1.215449	0.348020	0.956764
C64	C	0.646524	-0.303340	0.357889
C65	C	0.979858	0.029993	0.691223
C66	C	1.313191	0.363327	1.024556
C67	C	0.548865	-0.245945	0.376169
C68	C	0.882198	0.087388	0.709502
C69	C	1.215532	0.420722	1.042835
C70	C	0.500539	-0.303353	0.357920
C71	C	0.833872	0.029980	0.691254
C72	C	1.167206	0.363313	1.024587
C73	C	0.598189	-0.360785	0.339573
C74	C	0.931522	-0.027452	0.672906
C75	C	1.264856	0.305882	1.006240
C76	C	0.598276	-0.288045	0.425676
C77	C	0.931609	0.045289	0.759009
C78	C	1.264942	0.378622	1.092342
C79	C	0.548875	-0.345499	0.407420
C80	C	0.882209	-0.012166	0.740754
C81	C	1.215542	0.321167	1.074087
C82	C	0.730623	-0.303331	0.357870
C83	C	1.063956	0.030002	0.691203
C84	C	1.397289	0.363335	1.024536
C85	C	0.416443	-0.303368	0.357940
C86	C	0.749776	0.029965	0.691274
C87	C	1.083109	0.363298	1.024607
C88	C	1.073055	-0.466891	0.357856
C89	C	1.406388	-0.133557	0.691189
C90	C	1.739722	0.199776	1.024522
C91	C	1.073081	-0.536859	0.357863
C92	C	1.406415	-0.203526	0.691196
C93	C	1.739748	0.129808	1.024530
C94	C	1.120615	-0.569717	0.310423
C95	C	1.453949	-0.236384	0.643756
C96	C	1.787282	0.096949	0.977090
C97	C	1.120650	-0.635460	0.310440
C98	C	1.453984	-0.302127	0.643773
C99	C	1.787317	0.031207	0.977106
C100	C	1.073138	-0.668341	0.357889
C101	C	1.406471	-0.335008	0.691222
C102	C	1.739804	-0.001675	1.024555
C103	C	1.025600	-0.635475	0.405338
C104	C	1.358934	-0.302142	0.738671
C105	C	1.692267	0.031192	1.072005
C106	C	1.025572	-0.569734	0.405325
C107	C	1.358906	-0.236400	0.738659
C108	C	1.692239	0.096933	1.071992
N109	N	1.008171	-0.771604	0.363536
N110	N	1.341504	-0.438270	0.696870
N111	N	1.674837	-0.104937	1.030203
N112	N	1.008200	-0.834055	0.363544
N113	N	1.341533	-0.500722	0.696878
N114	N	1.674866	-0.167389	1.030211
C115	C	1.073221	-0.866416	0.357931
C116	C	1.406554	-0.533083	0.691265
C117	C	1.739888	-0.199749	1.024598
N118	N	1.138214	-0.833966	0.352296
N119	N	1.471547	-0.500633	0.685629
N120	N	1.804880	-0.167300	1.018962
N121	N	1.138184	-0.771509	0.352284
N122	N	1.471517	-0.438176	0.685617
N123	N	1.804851	-0.104842	1.018951
C124	C	1.073163	-0.739627	0.357908
C125	C	1.406497	-0.406293	0.691241
C126	C	1.739830	-0.072960	1.024575
C127	C	1.120797	-0.970560	0.310507
C128	C	1.454130	-0.637227	0.643840
C129	C	1.787463	-0.303893	0.977173
C130	C	1.120833	-1.036304	0.310529
C131	C	1.454166	-0.702970	0.643862
C132	C	1.787499	-0.369637	0.977195
C133	C	1.025776	-1.036318	0.405423
C134	C	1.359110	-0.702984	0.738756
C135	C	1.692443	-0.369651	1.072090
C136	C	1.025747	-0.970575	0.405405
C137	C	1.359080	-0.637242	0.738738
C138	C	1.692414	-0.303909	1.072072
C139	C	1.073256	-0.937700	0.357943
C140	C	1.406589	-0.604367	0.691276
C141	C	1.739923	-0.271034	1.024610
C142	C	1.266858	-0.303363	0.357939
C143	C	1.600191	0.029970	0.691272
C144	C	1.933525	0.363304	1.024605
C145	C	1.349404	-0.303373	0.357956
C146	C	1.682737	0.029960	0.691290
C147	C	2.016071	0.363293	1.024623
C148	C	1.073182	-0.303311	0.551603
C149	C	1.406515	0.030022	0.884936
C150	C	1.739848	0.363355	1.218269
C151	C	1.073194	-0.303299	0.634148
C152	C	1.406527	0.030034	0.967482
C153	C	1.739861	0.363367	1.300815
C154	C	1.073270	-0.139149	0.357954
C155	C	1.406604	0.194184	0.691288
C156	C	1.739937	0.527518	1.024621
C157	C	1.073321	-0.069181	0.357979
C158	C	1.406654	0.264153	0.691312
C159	C	1.739987	0.597486	1.024646
C160	C	1.073166	-0.303322	0.164945
C161	C	1.406500	0.030012	0.498278
C162	C	1.739833	0.363345	0.831611
C163	C	1.073298	-0.303156	0.082399
C164	C	1.406631	0.030177	0.415733
C165	C	1.739964	0.363511	0.749066
C166	C	1.023596	-0.345283	0.833574
C167	C	1.356929	-0.011950	1.166907
C168	C	1.690262	0.321383	1.500240
C169	C	1.091350	-0.360675	0.882971
C170	C	1.424683	-0.027341	1.216304
C171	C	1.758017	0.305992	1.549638
C172	C	1.073231	-0.303251	0.785279
C173	C	1.406564	0.030082	1.118612
C174	C	1.739897	0.363415	1.451946
C175	C	1.005513	-0.287842	0.882964
C176	C	1.338847	0.045491	1.216297
C177	C	1.672180	0.378824	1.549630
C178	C	1.073260	-0.303206	0.931264
C179	C	1.406593	0.030127	1.264597
C180	C	1.739927	0.363461	1.597931
C181	C	1.141021	-0.318673	0.833589
C182	C	1.474354	0.014661	1.166922
C183	C	1.807687	0.347994	1.500255
C184	C	1.055138	-0.245814	0.833577
C185	C	1.388472	0.087520	1.166910
C186	C	1.721805	0.420853	1.500244
C187	C	1.122940	-0.261183	0.882952
C188	C	1.456273	0.072150	1.216285
C189	C	1.789606	0.405483	1.549619
C190	C	1.073213	-0.303279	0.701181
C191	C	1.406546	0.030054	1.034514
C192	C	1.739879	0.363388	1.367847
C193	C	1.073286	-0.303178	1.015361
C194	C	1.406619	0.030155	1.348694
C195	C	1.739952	0.363488	1.682027
H196	H	0.620032	-0.275080	0.482970
H197	H	0.953365	0.058253	0.816304
H198	H	1.286698	0.391586	1.149637
Br199	Br	1.185102	-0.525104	0.246021
Br200	Br	1.518435	-0.191771	0.579354
Br201	Br	1.851769	0.141562	0.912687
Br202	Br	0.512999	-0.404925	0.477231
Br203	Br	0.846332	-0.071592	0.810564
Br204	Br	1.179666	0.261742	1.143897
Br205	Br	0.512743	-0.165038	0.401913
Br206	Br	0.846077	0.168295	0.735247
Br207	Br	1.179410	0.501628	1.068580
H208	H	0.986864	-0.542980	0.443958
H209	H	1.320197	-0.209646	0.777291
H210	H	1.653530	0.123687	1.110624
Br211	Br	0.961231	-0.925978	0.469790
Br212	Br	1.294564	-0.592645	0.803123
Br213	Br	1.627898	-0.259312	1.136457
H214	H	0.986917	-0.662251	0.443973
H215	H	1.320250	-0.328918	0.777306
H216	H	1.653583	0.004415	1.110639
Br217	Br	1.185269	-0.925940	0.246093
Br218	Br	1.518603	-0.592607	0.579427
Br219	Br	1.851936	-0.259274	0.912760
Br220	Br	1.029571	-0.164908	0.797385
Br221	Br	1.362905	0.168425	1.130718
Br222	Br	1.696238	0.501759	1.464052
H223	H	0.948233	-0.274828	0.904653
H224	H	1.281567	0.058505	1.237986
H225	H	1.614900	0.391838	1.571319
Br226	Br	1.185166	-0.680064	0.246052
Br227	Br	1.518499	-0.346730	0.579386
Br228	Br	1.851832	-0.013397	0.912719
H229	H	0.987094	-1.063089	0.444060
H230	H	1.320427	-0.729756	0.777394
H231	H	1.653761	-0.396422	1.110727
Br232	Br	1.185357	-1.080899	0.246147
Br233	Br	1.518690	-0.747566	0.579481
Br234	Br	1.852024	-0.414232	0.912814
Br235	Br	0.953699	-0.404601	0.797435
Br236	Br	1.287032	-0.071268	1.130769
Br237	Br	1.620366	0.262066	1.464102
Br238	Br	0.512550	-0.340228	0.194575
Br239	Br	0.845883	-0.006894	0.527909
Br240	Br	1.179216	0.326439	0.861242
Br241	Br	0.634145	-0.441719	0.313716
Br242	Br	0.967478	-0.108386	0.647050
Br243	Br	1.300811	0.224948	0.980383
Br244	Br	0.634308	-0.201942	0.238523
Br245	Br	0.967642	0.131391	0.571856
Br246	Br	1.300975	0.464725	0.905189
H247	H	1.106671	-0.409229	0.904667
H248	H	1.440004	-0.075896	1.238001
H249	H	1.773337	0.257437	1.571334
Br250	Br	1.236518	-0.340462	0.797597
Br251	Br	1.569852	-0.007129	1.130931
Br252	Br	1.903185	0.326205	1.464264
Br253	Br	1.192998	-0.201906	0.918865
Br254	Br	1.526331	0.131427	1.252199
Br255	Br	1.859664	0.464761	1.585532
