data_functionalizedCrystal
_audit_creation_method	'MofGen! by Chris Wilmer'
_symmetry_space_group_name_H-M	'P1'
_symmetry_Int_Tables_number	1
_symmetry_cell_setting	triclinic
loop_
_symmetry_equiv_pos_as_xyz
  x,y,z
_cell_length_a	6.817900
_cell_length_b	27.923497
_cell_length_c	27.923559
_cell_angle_alpha	97.590127
_cell_angle_beta	98.965071
_cell_angle_gamma	98.964248
loop_
_atom_site_label
_atom_site_type_symbol
_atom_site_fract_x
_atom_site_fract_y
_atom_site_fract_z
V1	V	-3.954328	-0.067819	-0.151591
O2	O	-3.966068	0.002549	-0.148377
O3	O	-3.884366	-0.133791	-0.150871
O4	O	-3.884362	-0.067087	-0.217561
O5	O	-3.966072	-0.064616	-0.081225
V6	V	-4.443544	-0.059365	-0.143136
O7	O	-4.203097	-0.086363	-0.170137
O8	O	-4.644972	-0.040822	-0.124590
O9	O	-4.290300	0.006606	-0.143857
O10	O	-4.549201	-0.129733	-0.146351
O11	O	-4.549197	-0.062568	-0.213503
O12	O	-4.290304	-0.060097	-0.077166
C13	C	-3.724819	-0.149864	-0.148561
C14	C	-3.748760	-0.203798	-0.148411
C15	C	-3.874196	-0.531114	-0.102970
C16	C	-3.964250	-0.733818	-0.102382
O17	O	-3.956249	-0.753966	-0.064493
N18	N	-3.998704	-0.766295	-0.146773
C19	C	-4.010659	-0.748093	-0.191313
O20	O	-4.042051	-0.780367	-0.229057
C21	C	-3.920618	-0.545389	-0.191901
C22	C	-3.886143	-0.512914	-0.147507
C23	C	-3.839725	-0.498640	-0.058579
C24	C	-3.817202	-0.447966	-0.058727
C25	C	-3.829150	-0.429767	-0.103264
C26	C	-3.863620	-0.462241	-0.147654
C27	C	-3.932587	-0.527188	-0.236441
C28	C	-3.910078	-0.476508	-0.236584
C29	C	-3.875603	-0.444034	-0.192190
C30	C	-3.853045	-0.393369	-0.192339
N31	N	-3.818591	-0.360892	-0.147948
C32	C	-3.806643	-0.379092	-0.103411
C33	C	-4.057925	-0.854514	-0.191002
C34	C	-4.080432	-0.905190	-0.190855
C35	C	-4.034026	-0.890912	-0.101924
C36	C	-4.011505	-0.840236	-0.102071
C37	C	-4.023471	-0.822038	-0.146611
C38	C	-3.759343	-0.272675	-0.103723
C39	C	-3.736812	-0.221997	-0.103874
C40	C	-3.783231	-0.236280	-0.192806
C41	C	-3.805750	-0.286952	-0.192655
C42	C	-3.793810	-0.305148	-0.148110
O43	O	-3.861045	-0.373187	-0.230208
O44	O	-3.775294	-0.346810	-0.065673
C45	C	-3.896718	-0.581787	-0.102822
C46	C	-3.931189	-0.614261	-0.147212
C47	C	-3.943137	-0.596062	-0.191750
C48	C	-3.953696	-0.664936	-0.147066
C49	C	-3.941748	-0.683136	-0.102528
C50	C	-3.907294	-0.650659	-0.058138
C51	C	-3.884771	-0.599986	-0.058285
C52	C	-3.977591	-0.628538	-0.236140
C53	C	-4.000110	-0.679211	-0.235989
C54	C	-3.988162	-0.697410	-0.191452
C55	C	-3.724813	-0.064776	-0.233630
C56	C	-3.748749	-0.064614	-0.287563
C57	C	-3.920608	-0.108134	-0.629156
C58	C	-4.010668	-0.107555	-0.831862
O59	O	-4.042132	-0.145295	-0.864147
N60	N	-3.998716	-0.063018	-0.850066
C61	C	-3.964260	-0.018624	-0.817590
O62	O	-3.956181	0.019271	-0.837726
C63	C	-3.874215	-0.019203	-0.614886
C64	C	-3.886149	-0.063742	-0.596684
C65	C	-3.932543	-0.152669	-0.610954
C66	C	-3.910018	-0.152813	-0.560280
C67	C	-3.875559	-0.108422	-0.527809
C68	C	-3.863625	-0.063886	-0.546011
C69	C	-3.839774	0.025191	-0.582411
C70	C	-3.817268	0.025042	-0.531732
C71	C	-3.829202	-0.019497	-0.513531
C72	C	-3.806641	-0.019639	-0.462865
N73	N	-3.818593	-0.064175	-0.444661
C74	C	-3.853052	-0.108567	-0.477133
C75	C	-4.011532	-0.018322	-0.924014
C76	C	-4.034040	-0.018177	-0.974690
C77	C	-4.080450	-0.107109	-0.988958
C78	C	-4.057928	-0.107254	-0.938281
C79	C	-4.023484	-0.062859	-0.905810
C80	C	-3.805745	-0.108866	-0.370714
C81	C	-3.783208	-0.109006	-0.320035
C82	C	-3.736810	-0.020075	-0.305771
C83	C	-3.759335	-0.019934	-0.356446
C84	C	-3.793810	-0.064334	-0.388916
O85	O	-3.775195	0.018081	-0.430552
O86	O	-3.861168	-0.146456	-0.456988
C87	C	-3.943133	-0.107990	-0.679830
C88	C	-3.931198	-0.063454	-0.698032
C89	C	-3.896739	-0.019062	-0.665560
C90	C	-3.953706	-0.063309	-0.748707
C91	C	-3.988165	-0.107701	-0.781179
C92	C	-4.000117	-0.152237	-0.762975
C93	C	-3.977592	-0.152381	-0.712301
C94	C	-3.884788	0.025474	-0.683764
C95	C	-3.907312	0.025615	-0.734438
C96	C	-3.941771	-0.018777	-0.766910
C97	C	-4.113188	0.022677	-0.146165
C98	C	-4.068484	0.076611	-0.146318
C99	C	-4.113195	-0.062410	-0.061095
C100	C	-4.068499	-0.062569	-0.007161
H101	H	-3.792923	-0.145277	-0.305218
O102	O	-3.746443	-0.292294	-0.055678
H103	H	-3.620639	-0.313190	-0.051667
H104	H	-3.856734	0.061624	-0.657330
O105	O	-3.796197	-0.216603	-0.240819
H106	H	-3.676725	-0.227862	-0.260328
H107	H	-3.833813	-0.145020	-0.397146
H108	H	-4.024293	0.018091	-0.989504
H109	H	-3.830037	0.061460	-0.597221
O110	O	-3.974348	0.029563	-0.888992
H111	H	-3.969797	0.060553	-0.910170
H112	H	-4.028166	-0.705648	-0.272143
H113	H	-3.960607	-0.188820	-0.637388
H114	H	-3.708744	0.016068	-0.279324
O115	O	-4.070814	-0.155291	-0.918650
H116	H	-4.098565	-0.186132	-0.949748
O117	O	-3.780097	0.072926	-0.496708
H118	H	-3.775566	0.103918	-0.517883
H119	H	-3.987313	-0.188650	-0.697487
O120	O	-3.847576	-0.564962	-0.010403
H121	H	-3.843064	-0.586138	0.020587
H122	H	-3.833788	-0.313394	-0.228803
H123	H	-3.919750	-0.189082	-0.545466
O124	O	-4.070881	-0.834903	-0.239052
H125	H	-4.196729	-0.814021	-0.243070
H126	H	-3.960658	-0.553621	-0.272591
O127	O	-3.746460	0.028102	-0.376082
H128	H	-3.718722	0.058946	-0.344987
O129	O	-3.974335	-0.805213	-0.054189
H130	H	-3.828006	-0.779933	-0.050306
H131	H	-4.024292	-0.905738	-0.065659
O132	O	-4.037297	-0.200119	-0.798002
H133	H	-4.050968	-0.192530	-0.836297
O134	O	-4.117642	-0.154991	-1.023985
H135	H	-4.131304	-0.147403	-1.062280
H136	H	-4.108470	-0.931627	-0.227005
H137	H	-3.897576	0.061887	-0.749252
H138	H	-3.708733	-0.195558	-0.067722
H139	H	-3.919848	-0.461696	-0.272856
H140	H	-3.829997	-0.513451	-0.022310
O141	O	-3.780003	-0.412946	-0.010842
H142	H	-3.908154	-0.421102	0.008688
O143	O	-3.894401	-0.670292	-0.010099
H144	H	-3.915866	-0.710986	-0.017461
H145	H	-3.987324	-0.613726	-0.272409
