data_functionalizedCrystal
_audit_creation_method	'MofGen! by Chris Wilmer'
_symmetry_space_group_name_H-M	'P1'
_symmetry_Int_Tables_number	1
_symmetry_cell_setting	triclinic
loop_
_symmetry_equiv_pos_as_xyz
  x,y,z
_cell_length_a	16.625547
_cell_length_b	16.625546
_cell_length_c	16.625539
_cell_angle_alpha	90.030397
_cell_angle_beta	90.024822
_cell_angle_gamma	90.022405
loop_
_atom_site_label
_atom_site_type_symbol
_atom_site_fract_x
_atom_site_fract_y
_atom_site_fract_z
Zn1	Zn	1.232681	-0.321001	0.455989
Zn2	Zn	1.732681	0.178999	0.955989
Zn3	Zn	1.232584	-0.455845	0.321151
Zn4	Zn	1.732584	0.044155	0.821151
Zn5	Zn	1.097842	-0.321030	0.321160
Zn6	Zn	1.597842	0.178970	0.821160
Zn7	Zn	1.097813	-0.455796	0.455931
Zn8	Zn	1.597813	0.044204	0.955931
O9	O	1.165230	-0.388418	0.388558
O10	O	1.665230	0.111582	0.888558
O11	O	1.345500	-0.338897	0.438123
O12	O	1.845500	0.161103	0.938123
O13	O	1.214682	-0.437993	0.208320
O14	O	1.714682	0.062007	0.708320
O15	O	1.115782	-0.208193	0.339073
O16	O	1.615782	0.291807	0.839073
O17	O	1.345429	-0.437966	0.339059
O18	O	1.845429	0.062034	0.839059
O19	O	1.214847	-0.208173	0.438131
O20	O	1.714847	0.291827	0.938131
O21	O	1.115688	-0.338945	0.208326
O22	O	1.615688	0.161055	0.708326
O23	O	0.985006	-0.338898	0.339017
O24	O	1.485006	0.161102	0.839017
O25	O	1.115731	-0.437883	0.568771
O26	O	1.615731	0.062117	1.068771
O27	O	0.984984	-0.437910	0.438033
O28	O	1.484984	0.062090	0.938033
O29	O	1.214818	-0.338850	0.568814
O30	O	1.714818	0.161150	1.068814
O31	O	1.214653	-0.568671	0.339003
O32	O	1.714653	-0.068671	0.839003
O33	O	1.115638	-0.568635	0.438025
O34	O	1.615638	-0.068635	0.938025
C35	C	0.955739	-0.388402	0.388520
C36	C	1.455739	0.111598	0.888520
C37	C	0.866118	-0.388415	0.388523
C38	C	1.366118	0.111585	0.888523
C39	C	1.165154	-0.597909	0.388524
C40	C	1.665154	-0.097909	0.888524
C41	C	1.165195	-0.687530	0.388537
C42	C	1.665195	-0.187530	0.888537
C43	C	0.793335	-0.388416	0.388533
C44	C	1.293335	0.111584	0.888533
C45	C	0.702027	-0.388421	0.388553
C46	C	1.202027	0.111579	0.888553
C47	C	0.629251	-0.388428	0.388573
C48	C	1.129251	0.111572	0.888573
C49	C	0.537936	-0.388434	0.388593
C50	C	1.037936	0.111566	0.888593
C51	C	1.165335	-1.015705	0.388621
C52	C	1.665335	-0.515705	0.888621
C53	C	1.165294	-0.924397	0.388599
C54	C	1.665294	-0.424397	0.888599
C55	C	1.165264	-0.851620	0.388578
C56	C	1.665264	-0.351620	0.888578
C57	C	1.165224	-0.760306	0.388558
C58	C	1.665224	-0.260306	0.888558
C59	C	1.375539	-0.388434	0.388597
C60	C	1.875539	0.111566	0.888597
C61	C	1.465160	-0.388441	0.388613
C62	C	1.965160	0.111559	0.888613
C63	C	1.165282	-0.388358	0.598867
C64	C	1.665282	0.111642	1.098867
C65	C	1.165305	-0.388332	0.688488
C66	C	1.665305	0.111668	1.188488
C67	C	1.165328	-0.178109	0.388609
C68	C	1.665328	0.321891	0.888609
C69	C	1.165370	-0.088488	0.388631
C70	C	1.665370	0.411512	0.888631
C71	C	1.165224	-0.388419	0.179067
C72	C	1.665224	0.111581	0.679067
C73	C	1.165358	-0.388218	0.089446
C74	C	1.665358	0.111782	0.589446
C75	C	1.165342	-0.388242	1.016664
C76	C	1.665342	0.111758	1.516664
C77	C	1.165329	-0.388270	0.925355
C78	C	1.665329	0.111730	1.425355
C79	C	1.165324	-0.388288	0.852579
C80	C	1.665324	0.111712	1.352579
C81	C	1.165310	-0.388314	0.761265
C82	C	1.665310	0.111686	1.261265
