data_functionalizedCrystal
_audit_creation_method	'MofGen! by Chris Wilmer'
_symmetry_space_group_name_H-M	'P1'
_symmetry_Int_Tables_number	1
_symmetry_cell_setting	triclinic
loop_
_symmetry_equiv_pos_as_xyz
  x,y,z
_cell_length_a	10.654550
_cell_length_b	14.044220
_cell_length_c	9.730223
_cell_angle_alpha	89.994583
_cell_angle_beta	89.999957
_cell_angle_gamma	88.836904
loop_
_atom_site_label
_atom_site_type_symbol
_atom_site_fract_x
_atom_site_fract_y
_atom_site_fract_z
O1	O	1.681228	0.133232	-0.114191
O2	O	1.317025	0.145925	-0.114216
O3	O	1.493659	0.001558	-0.114190
O4	O	1.504593	0.277599	-0.114217
O5	O	1.493647	0.001554	0.114390
O6	O	1.317012	0.145921	0.114364
O7	O	1.681215	0.133228	0.114389
Zn8	Zn	1.499111	0.139574	0.150668
Zn9	Zn	1.499128	0.139579	-0.150496
O10	O	1.504580	0.277595	0.114363
C11	C	1.270127	0.144991	0.000070
C12	C	1.130403	0.142202	0.000061
C13	C	1.059459	0.227204	0.000057
C14	C	0.928175	0.224578	0.000081
C15	C	0.938790	0.051942	0.000108
C16	C	1.070072	0.054569	0.000094
C17	C	1.488867	-0.033790	0.000100
C18	C	1.474592	-0.139110	0.000101
C19	C	1.448493	-0.331943	0.000079
C20	C	1.549741	-0.388910	0.000082
C21	C	1.535219	-0.496209	0.000070
C22	C	1.463013	-0.224634	0.000091
C23	C	1.728113	0.134162	0.000099
C24	C	1.867836	0.136950	0.000100
C25	C	1.509372	0.312943	0.000070
C26	C	1.523648	0.418262	0.000060
N27	N	1.499109	0.139570	0.356205
N28	N	1.499140	0.139576	-0.356032
C29	C	1.577355	0.075671	0.428142
C30	C	1.577367	0.075671	0.572025
C31	C	1.420885	0.203477	0.572021
C32	C	1.420867	0.203471	0.428140
H33	H	0.870417	0.293795	0.000080
H34	H	1.641062	0.023637	0.369576
O35	O	1.332169	-0.370043	0.000137
C36	C	1.343386	-0.470247	0.000097
H37	H	1.438907	-0.492718	0.043365
H38	H	1.334268	-0.497831	-0.109566
C39	C	1.121602	-0.484490	0.036598
C40	C	1.238919	-0.512089	0.089752
H41	H	1.057159	-0.510302	0.091896
H42	H	1.114043	-0.416981	0.036620
H43	H	1.114021	-0.507479	-0.054786
H44	H	1.246503	-0.489091	0.181128
H45	H	1.246476	-0.579596	0.089747
H46	H	1.647328	-0.357098	-0.000004
H47	H	1.357184	0.255506	0.630605
O48	O	0.879981	-0.033099	0.000067
C49	C	0.748895	-0.017193	0.000110
H50	H	0.726400	0.056630	-0.043173
H51	H	0.711898	-0.022030	0.109775
C52	C	0.713695	-0.183677	-0.036355
C53	C	0.686066	-0.093009	-0.089527
H54	H	0.674937	-0.230445	-0.091641
H55	H	0.802010	-0.194394	-0.036378
H56	H	0.682864	-0.187694	0.055032
H57	H	0.716911	-0.088989	-0.180905
H58	H	0.597754	-0.082292	-0.089521
H59	H	1.127837	-0.014653	0.000101
H60	H	1.108577	0.298560	0.000041
O61	O	1.653312	0.013472	0.641753
C62	C	1.622354	-0.080577	0.606639
H63	H	1.573912	-0.080802	0.502179
H64	H	1.556525	-0.110353	0.687630
C65	C	1.802394	-0.142505	0.728283
C66	C	1.742907	-0.142783	0.599978
H67	H	1.876755	-0.180879	0.724180
H68	H	1.823250	-0.079143	0.751945
H69	H	1.747524	-0.167316	0.795763
H70	H	1.797771	-0.117961	0.532505
H71	H	1.722064	-0.206142	0.576305
O72	O	1.344721	0.265418	0.358187
C73	C	1.261516	0.214066	0.274957
H74	H	1.251021	0.139246	0.318341
H75	H	1.300285	0.209362	0.165912
C76	C	1.145325	0.357295	0.219456
C77	C	1.132427	0.265401	0.272748
H78	H	1.065698	0.388962	0.218087
H79	H	1.201384	0.391893	0.275525
H80	H	1.177637	0.353362	0.128590
H81	H	1.100131	0.269336	0.363618
H82	H	1.076359	0.230805	0.216694
