data_functionalizedCrystal
_audit_creation_method	'MofGen! by Chris Wilmer'
_symmetry_space_group_name_H-M	'P1'
_symmetry_Int_Tables_number	1
_symmetry_cell_setting	triclinic
loop_
_symmetry_equiv_pos_as_xyz
  x,y,z
_cell_length_a	15.995292
_cell_length_b	15.995343
_cell_length_c	16.176319
_cell_angle_alpha	89.988477
_cell_angle_beta	89.991411
_cell_angle_gamma	83.478900
loop_
_atom_site_label
_atom_site_type_symbol
_atom_site_fract_x
_atom_site_fract_y
_atom_site_fract_z
O1	O	1.111016	0.107697	-0.068778
O2	O	1.444350	0.441031	0.264556
O3	O	1.777683	0.774364	0.597889
O4	O	0.867234	0.121076	-0.068776
O5	O	1.200567	0.454409	0.264558
O6	O	1.533901	0.787742	0.597891
O7	O	0.995792	-0.007503	-0.068761
O8	O	1.329126	0.325830	0.264572
O9	O	1.662459	0.659164	0.597905
O10	O	0.982458	0.236276	-0.068792
O11	O	1.315791	0.569609	0.264541
O12	O	1.649124	0.902943	0.597875
O13	O	0.995775	-0.007511	0.068732
O14	O	1.329108	0.325822	0.402065
O15	O	1.662441	0.659155	0.735399
O16	O	0.867216	0.121067	0.068718
O17	O	1.200550	0.454401	0.402051
O18	O	1.533883	0.787734	0.735384
O19	O	1.110998	0.107689	0.068715
O20	O	1.444332	0.441022	0.402049
O21	O	1.777665	0.774356	0.735382
Cu22	Cu	0.989106	0.114378	0.081271
Cu23	Cu	1.322439	0.447711	0.414604
Cu24	Cu	1.655772	0.781044	0.747937
Cu25	Cu	0.989127	0.114387	-0.081331
Cu26	Cu	1.322460	0.447721	0.252002
Cu27	Cu	1.655793	0.781054	0.585336
O28	O	0.982440	0.236268	0.068701
O29	O	1.315773	0.569601	0.402035
O30	O	1.649107	0.902934	0.735368
C31	C	0.995233	-0.038702	-0.000013
C32	C	1.328567	0.294632	0.333321
C33	C	1.661900	0.627965	0.666654
C34	C	0.993584	-0.131652	-0.000006
C35	C	1.326917	0.201681	0.333327
C36	C	1.660251	0.535014	0.666661
C37	C	0.836029	0.120527	-0.000028
C38	C	1.169363	0.453860	0.333305
C39	C	1.502696	0.787194	0.666638
C40	C	0.743077	0.118895	-0.000027
C41	C	1.076410	0.452228	0.333306
C42	C	1.409743	0.785561	0.666640
C43	C	0.990590	-0.301838	-0.000025
C44	C	1.323924	0.031495	0.333308
C45	C	1.657257	0.364829	0.666642
C46	C	0.897791	-0.325164	-0.000026
C47	C	1.231124	0.008169	0.333308
C48	C	1.564458	0.341502	0.666641
C49	C	0.896045	-0.421842	-0.000347
C50	C	1.229378	-0.088508	0.332986
C51	C	1.562712	0.244825	0.666320
C52	C	0.987642	-0.469397	-0.000042
C53	C	1.320975	-0.136064	0.333291
C54	C	1.654309	0.197269	0.666624
C55	C	1.034313	-0.440303	-0.078400
C56	C	1.367647	-0.106970	0.254933
C57	C	1.700980	0.226363	0.588266
C58	C	1.035414	-0.343511	-0.078457
C59	C	1.368747	-0.010178	0.254877
C60	C	1.702080	0.323156	0.588210
C61	C	1.036752	-0.343625	0.077904
C62	C	1.370086	-0.010292	0.411237
C63	C	1.703419	0.323042	0.744571
C64	C	1.033326	-0.440119	0.078925
C65	C	1.366660	-0.106786	0.412258
C66	C	1.699993	0.226547	0.745591
C67	C	0.985980	-0.564095	-0.000055
C68	C	1.319314	-0.230762	0.333278
C69	C	1.652647	0.102572	0.666612
C70	C	0.992255	-0.207140	-0.000018
C71	C	1.325588	0.126193	0.333316
C72	C	1.658921	0.459526	0.666649
C73	C	0.405338	0.112893	-0.000036
C74	C	0.738672	0.446227	0.333298
C75	C	1.072005	0.779560	0.666631
C76	C	0.428648	0.205698	-0.000354
C77	C	0.761981	0.539031	0.332979
C78	C	1.095315	0.872365	0.666313
C79	C	0.525324	0.207462	-0.000041
C80	C	0.858657	0.540795	0.333292
C81	C	1.191990	0.874129	0.666626
C82	C	0.572894	0.115871	-0.000032
C83	C	0.906227	0.449205	0.333302
C84	C	1.239561	0.782538	0.666635
C85	C	0.543783	0.069469	0.078487
C86	C	0.877117	0.402802	0.411820
C87	C	1.210450	0.736135	0.745153
C88	C	0.446993	0.068351	0.078549
C89	C	0.780326	0.401685	0.411882
C90	C	1.113660	0.735018	0.745216
C91	C	0.447158	0.066466	-0.077806
C92	C	0.780491	0.399799	0.255527
C93	C	1.113824	0.733132	0.588860
C94	C	0.543650	0.069905	-0.078841
C95	C	0.876984	0.403238	0.254493
C96	C	1.210317	0.736572	0.587826
C97	C	0.667590	0.117549	-0.000027
C98	C	1.000924	0.450883	0.333306
C99	C	1.334257	0.784216	0.666640
C100	C	0.310643	0.111213	-0.000035
C101	C	0.643976	0.444546	0.333298
C102	C	0.977309	0.777879	0.666632
C103	C	1.142203	0.108238	-0.000033
C104	C	1.475536	0.441571	0.333300
C105	C	1.808870	0.774904	0.666633
C106	C	1.235156	0.109870	-0.000040
C107	C	1.568489	0.443203	0.333293
C108	C	1.901822	0.776537	0.666626
C109	C	0.982999	0.267467	-0.000049
C110	C	1.316332	0.600800	0.333284
C111	C	1.649666	0.934133	0.666617
C112	C	0.984648	0.360417	-0.000061
C113	C	1.317982	0.693750	0.333272
C114	C	1.651315	1.027084	0.666605
N115	N	0.989097	0.114370	0.195636
N116	N	1.322430	0.447704	0.528969
N117	N	1.655764	0.781037	0.862303
N118	N	0.989142	0.114388	-0.195696
N119	N	1.322475	0.447721	0.137637
N120	N	1.655809	0.781055	0.470971
C121	C	1.046040	0.057459	0.238906
C122	C	1.379373	0.390792	0.572240
C123	C	1.712707	0.724125	0.905573
C124	C	1.046044	0.057458	0.325454
C125	C	1.379378	0.390791	0.658787
C126	C	1.712711	0.724125	0.992120
C127	C	0.989109	0.114373	0.368729
C128	C	1.322442	0.447706	0.702062
C129	C	1.655776	0.781040	1.035395
C130	C	0.932160	0.171287	0.325452
C131	C	1.265493	0.504620	0.658785
C132	C	1.598827	0.837954	0.992119
C133	C	0.932152	0.171283	0.238907
C134	C	1.265486	0.504617	0.572240
C135	C	1.598819	0.837950	0.905573
C136	C	0.932189	0.171303	0.674480
C137	C	1.265522	0.504636	1.007814
C138	C	1.598855	0.837970	1.341147
C139	C	0.932202	0.171304	0.761032
C140	C	1.265536	0.504637	1.094365
C141	C	1.598869	0.837971	1.427699
C142	C	1.046080	0.057477	0.761027
C143	C	1.379414	0.390811	1.094361
C144	C	1.712747	0.724144	1.427694
C145	C	1.046073	0.057474	0.674482
C146	C	1.379406	0.390807	1.007815
C147	C	1.712740	0.724140	1.341148
C148	C	0.989121	0.114384	0.631213
C149	C	1.322455	0.447718	0.964546
C150	C	1.655788	0.781051	1.297880
C151	C	0.989116	0.114384	0.537369
C152	C	1.322450	0.447717	0.870702
C153	C	1.655783	0.781050	1.204035
C154	C	0.989117	0.114379	0.462571
C155	C	1.322451	0.447712	0.795905
C156	C	1.655784	0.781045	1.129238
H157	H	0.859504	-0.440861	0.055807
H158	H	1.192837	-0.107528	0.389140
H159	H	1.526170	0.225805	0.722474
H160	H	0.400658	0.241473	-0.056664
H161	H	0.733992	0.574806	0.276669
H162	H	1.067325	0.908139	0.610003
H163	H	0.420167	0.100481	0.137236
H164	H	0.753501	0.433815	0.470570
H165	H	1.086834	0.767148	0.803903
H166	H	1.101726	-0.472163	-0.081096
H167	H	1.435059	-0.138830	0.252238
H168	H	1.768393	0.194504	0.585571
H169	H	0.576623	0.003053	-0.083576
H170	H	0.909956	0.336387	0.249757
H171	H	1.243289	0.669720	0.583090
H172	H	0.399621	0.241267	0.055630
H173	H	0.732954	0.574601	0.388963
H174	H	1.066288	0.907934	0.722297
H175	H	0.885798	0.217626	0.360692
H176	H	1.219131	0.550959	0.694025
H177	H	1.552465	0.884292	1.027358
H178	H	1.003485	-0.316710	-0.137253
H179	H	1.336818	0.016624	0.196080
H180	H	1.670151	0.349957	0.529414
H181	H	0.433167	-0.001845	-0.078330
H182	H	0.766500	0.331489	0.255003
H183	H	1.099833	0.664822	0.588337
H184	H	0.885818	0.217643	0.639257
H185	H	1.219152	0.550976	0.972591
H186	H	1.552485	0.884310	1.305924
H187	H	1.092407	0.011115	0.203678
H188	H	1.425740	0.344449	0.537011
H189	H	1.759073	0.677782	0.870344
H190	H	1.002304	-0.460378	-0.136938
H191	H	1.335638	-0.127045	0.196396
H192	H	1.668971	0.206289	0.529729
H193	H	1.092411	0.011116	0.360684
H194	H	1.425744	0.344449	0.694017
H195	H	1.759077	0.677783	1.027351
H196	H	1.092451	0.011135	0.796266
H197	H	1.425784	0.344468	1.129599
H198	H	1.759118	0.677802	1.462933
H199	H	1.007466	-0.315358	0.137318
H200	H	1.340799	0.017975	0.470651
H201	H	1.674133	0.351309	0.803984
H202	H	0.859701	-0.440263	-0.056850
H203	H	1.193034	-0.106929	0.276484
H204	H	1.526367	0.226404	0.609817
H205	H	0.432444	0.000307	0.082123
H206	H	0.765777	0.333640	0.415456
H207	H	1.099111	0.666973	0.748789
H208	H	0.885783	0.217625	0.203677
H209	H	1.219116	0.550959	0.537010
H210	H	1.552449	0.884292	0.870343
H211	H	1.103467	-0.328951	-0.081797
H212	H	1.436800	0.004382	0.251536
H213	H	1.770134	0.337715	0.584870
H214	H	0.999340	-0.458681	0.136895
H215	H	1.332673	-0.125348	0.470229
H216	H	1.666006	0.207986	0.803562
H217	H	0.544356	0.243798	-0.056328
H218	H	0.877690	0.577131	0.277005
H219	H	1.211023	0.910464	0.610338
H220	H	0.885836	0.217653	0.796265
H221	H	1.219169	0.550986	1.129598
H222	H	1.552502	0.884319	1.462932
H223	H	0.861814	-0.297157	0.056158
H224	H	1.195147	0.036176	0.389492
H225	H	1.528480	0.369509	0.722825
H226	H	0.862414	-0.296164	-0.056133
H227	H	1.195748	0.037169	0.277200
H228	H	1.529081	0.370503	0.610534
H229	H	1.100164	-0.473082	0.083891
H230	H	1.433497	-0.139749	0.417225
H231	H	1.766831	0.193584	0.750558
H232	H	1.105056	-0.329619	0.078665
H233	H	1.438389	0.003714	0.411998
H234	H	1.771723	0.337048	0.745331
H235	H	0.575653	0.002070	0.081413
H236	H	0.908987	0.335403	0.414746
H237	H	1.242320	0.668737	0.748080
H238	H	0.563834	0.101686	0.136913
H239	H	0.897167	0.435019	0.470246
H240	H	1.230501	0.768352	0.803580
H241	H	0.418837	0.095477	-0.137318
H242	H	0.752171	0.428810	0.196015
H243	H	1.085504	0.762143	0.529349
H244	H	0.543719	0.244015	0.056331
H245	H	0.877052	0.577348	0.389665
H246	H	1.210385	0.910682	0.722998
H247	H	0.562226	0.103691	-0.136928
H248	H	0.895560	0.437024	0.196405
H249	H	1.228893	0.770358	0.529739
H250	H	1.092438	0.011131	0.639250
H251	H	1.425771	0.344464	0.972583
H252	H	1.759104	0.677798	1.305917
