data_functionalizedCrystal
_audit_creation_method	'MofGen! by Chris Wilmer'
_symmetry_space_group_name_H-M	'P1'
_symmetry_Int_Tables_number	1
_symmetry_cell_setting	triclinic
loop_
_symmetry_equiv_pos_as_xyz
  x,y,z
_cell_length_a	16.974800
_cell_length_b	15.944551
_cell_length_c	15.455313
_cell_angle_alpha	92.664316
_cell_angle_beta	90.973911
_cell_angle_gamma	83.444312
loop_
_atom_site_label
_atom_site_type_symbol
_atom_site_fract_x
_atom_site_fract_y
_atom_site_fract_z
O1	O	1.049080	0.107075	0.001537
O2	O	1.382414	0.440409	0.334871
O3	O	1.715747	0.773742	0.668204
O4	O	0.819648	0.119903	-0.014576
O5	O	1.152982	0.453236	0.318757
O6	O	1.486315	0.786569	0.652090
O7	O	0.940629	-0.008771	-0.006072
O8	O	1.273963	0.324562	0.327262
O9	O	1.607296	0.657896	0.660595
O10	O	0.928099	0.235749	-0.006967
O11	O	1.261433	0.569082	0.326366
O12	O	1.594766	0.902416	0.659699
O13	O	0.933711	-0.001443	0.137704
O14	O	1.267044	0.331890	0.471037
O15	O	1.600378	0.665223	0.804371
O16	O	0.812730	0.127230	0.129200
O17	O	1.146063	0.460564	0.462533
O18	O	1.479397	0.793897	0.795866
O19	O	1.042162	0.114403	0.145313
O20	O	1.375495	0.447736	0.478646
O21	O	1.708829	0.781070	0.811980
Cu22	Cu	0.926814	0.121486	0.150384
Cu23	Cu	1.260148	0.454819	0.483718
Cu24	Cu	1.593481	0.788152	0.817051
Cu25	Cu	0.934996	0.112820	-0.019647
Cu26	Cu	1.268329	0.446153	0.313686
Cu27	Cu	1.601663	0.779487	0.647019
O28	O	0.921181	0.243077	0.136809
O29	O	1.254514	0.576410	0.470142
O30	O	1.587848	0.909743	0.803475
C31	C	0.786830	0.122944	0.055250
C32	C	1.120163	0.456278	0.388583
C33	C	1.453496	0.789611	0.721917
C34	C	0.699348	0.121081	0.049106
C35	C	1.032681	0.454414	0.382439
C36	C	1.366015	0.787747	0.715773
C37	C	0.654483	0.124197	0.124594
C38	C	0.987816	0.457531	0.457927
C39	C	1.321149	0.790864	0.791261
C40	C	0.572286	0.122433	0.118824
C41	C	0.905619	0.455766	0.452157
C42	C	1.238952	0.789099	0.785490
C43	C	0.534955	0.117557	0.037565
C44	C	0.868289	0.450891	0.370898
C45	C	1.201622	0.784224	0.704231
C46	C	0.579827	0.114438	-0.037929
C47	C	0.913160	0.447771	0.295405
C48	C	1.246494	0.781105	0.628738
C49	C	0.662023	0.116197	-0.032158
C50	C	0.995356	0.449530	0.301176
C51	C	1.328690	0.782863	0.634509
C52	C	0.289530	0.111864	0.011901
C53	C	0.622864	0.445197	0.345234
C54	C	0.956197	0.778530	0.678568
C55	C	0.207328	0.110108	0.006135
C56	C	0.540661	0.443441	0.339469
C57	C	0.873995	0.776775	0.672802
C58	C	0.199793	0.118101	0.162889
C59	C	0.533126	0.451435	0.496222
C60	C	0.866459	0.784768	0.829555
C61	C	0.281990	0.119865	0.168652
C62	C	0.615323	0.453198	0.501986
C63	C	0.948657	0.786531	0.835319
C64	C	0.326855	0.116741	0.093159
C65	C	0.660188	0.450074	0.426492
C66	C	0.993522	0.783407	0.759826
N67	N	0.450937	0.115756	0.031665
N68	N	0.784270	0.449090	0.364998
N69	N	1.117603	0.782423	0.698331
N70	N	0.410873	0.118536	0.099060
N71	N	0.744206	0.451869	0.432393
N72	N	1.077540	0.785202	0.765727
C73	C	0.936650	-0.036402	0.065780
C74	C	1.269983	0.296931	0.399113
C75	C	1.603317	0.630264	0.732447
C76	C	0.935090	-0.129652	0.065671
C77	C	1.268424	0.203681	0.399004
C78	C	1.601757	0.537015	0.732337
C79	C	0.856373	-0.344691	0.060130
C80	C	1.189707	-0.011357	0.393464
C81	C	1.523040	0.321976	0.726797
C82	C	0.889516	-0.402011	0.133588
C83	C	1.222849	-0.068677	0.466921
C84	C	1.556183	0.264656	0.800255
C85	C	0.932269	-0.300385	0.065466
C86	C	1.265603	0.032949	0.398799
C87	C	1.598936	0.366282	0.732133
C88	C	0.896355	-0.409219	-0.008163
C89	C	1.229688	-0.075885	0.325171
C90	C	1.563021	0.257448	0.658504
C91	C	0.929539	-0.465304	0.065264
C92	C	1.262872	-0.131971	0.398597
C93	C	1.596206	0.201363	0.731931
C94	C	0.965430	-0.356473	0.138983
C95	C	1.298763	-0.023140	0.472317
C96	C	1.632097	0.310193	0.805650
C97	C	0.972261	-0.363678	-0.002831
C98	C	1.305594	-0.030345	0.330502
C99	C	1.638928	0.302988	0.663835
C100	C	1.005458	-0.420980	0.070647
C101	C	1.338792	-0.087646	0.403981
C102	C	1.672125	0.245687	0.737314
C103	C	0.933840	-0.205378	0.065583
C104	C	1.267173	0.127955	0.398916
C105	C	1.600507	0.461288	0.732250
C106	C	0.927974	-0.560309	0.065154
C107	C	1.261307	-0.226976	0.398487
C108	C	1.594640	0.106358	0.731820
C109	C	1.074981	0.111361	0.075485
C110	C	1.408314	0.444694	0.408818
C111	C	1.741647	0.778028	0.742152
C112	C	1.162463	0.113225	0.081623
C113	C	1.495796	0.446558	0.414957
C114	C	1.829129	0.779891	0.748290
C115	C	0.925161	0.270708	0.064955
C116	C	1.258494	0.604041	0.398288
C117	C	1.591827	0.937375	0.731622
C118	C	0.926720	0.363957	0.065059
C119	C	1.260054	0.697291	0.398392
C120	C	1.593387	1.030624	0.731725
N121	N	0.921066	0.127580	0.269976
N122	N	1.254399	0.460914	0.603309
N123	N	1.587732	0.794247	0.936642
N124	N	0.940751	0.106719	-0.139238
N125	N	1.274084	0.440052	0.194095
N126	N	1.607418	0.773385	0.527428
C127	C	0.972480	0.072935	0.318984
C128	C	1.305814	0.406269	0.652317
C129	C	1.639147	0.739602	0.985651
C130	C	0.968140	0.077552	0.409487
C131	C	1.301473	0.410886	0.742820
C132	C	1.634807	0.744219	1.076153
C133	C	0.912388	0.136819	0.450980
C134	C	1.245722	0.470152	0.784313
C135	C	1.579055	0.803485	1.117646
C136	C	0.860968	0.191466	0.401965
C137	C	1.194301	0.524799	0.735298
C138	C	1.527635	0.858133	1.068631
C139	C	0.865305	0.186845	0.311463
C140	C	1.198638	0.520178	0.644797
C141	C	1.531972	0.853511	0.978130
C142	C	0.893668	0.156744	0.721245
C143	C	1.227001	0.490078	1.054579
C144	C	1.560334	0.823411	1.387912
C145	C	0.889336	0.161364	0.811753
C146	C	1.222669	0.494697	1.145087
C147	C	1.556003	0.828030	1.478420
C148	C	0.996508	0.047448	0.819269
C149	C	1.329841	0.380781	1.152603
C150	C	1.663174	0.714115	1.485936
C151	C	1.000843	0.042835	0.728766
C152	C	1.334176	0.376169	1.062099
C153	C	1.667510	0.709502	1.395433
C154	C	0.949420	0.097480	0.679759
C155	C	1.282753	0.430813	1.013092
C156	C	1.616087	0.764146	1.346425
N157	N	0.907952	0.141541	0.543488
N158	N	1.241285	0.474875	0.876821
N159	N	1.574619	0.808208	1.210155
N160	N	0.953853	0.092753	0.587252
N161	N	1.287186	0.426086	0.920585
N162	N	1.620520	0.759419	1.253918
H163	H	0.163255	0.120643	0.224351
H164	H	0.496588	0.453977	0.557684
H165	H	0.829922	0.787310	0.891017
H166	H	0.815570	0.239720	0.435753
H167	H	1.148903	0.573053	0.769086
H168	H	1.482236	0.906386	1.102420
F169	F	0.694204	0.129392	0.211082
F170	F	1.027538	0.462725	0.544415
F171	F	1.360871	0.796059	0.877748
H172	H	1.007219	-0.346529	-0.060514
H173	H	1.340552	-0.013195	0.272819
H174	H	1.673885	0.320138	0.606153
H175	H	0.994617	-0.333351	0.201234
H176	H	1.327950	-0.000018	0.534567
H177	H	1.661284	0.333316	0.867900
H178	H	0.535761	0.124957	0.180294
H179	H	0.869095	0.458290	0.513627
H180	H	1.202428	0.791623	0.846961
F181	F	1.087869	-0.464130	0.076485
F182	F	1.421202	-0.130797	0.409818
F183	F	1.754536	0.202536	0.743152
H184	H	1.010005	0.033056	0.449389
H185	H	1.343339	0.366389	0.782723
H186	H	1.676672	0.699722	1.116056
H187	H	0.823437	0.231341	0.271561
H188	H	1.156770	0.564675	0.604894
H189	H	1.490103	0.898008	0.938228
H190	H	1.017883	0.024678	0.285207
H191	H	1.351216	0.358011	0.618540
H192	H	1.684549	0.691345	0.951874
F193	F	0.321713	0.125058	0.255139
F194	F	0.655046	0.458391	0.588473
F195	F	0.988380	0.791725	0.921806
H196	H	1.046241	-0.005424	0.694985
H197	H	1.379574	0.327909	1.028318
H198	H	1.712907	0.661242	1.361651
H199	H	0.176936	0.106140	-0.060039
H200	H	0.510270	0.439474	0.273295
H201	H	0.843603	0.772807	0.606628
F202	F	0.838942	0.214903	0.669095
F203	F	1.172276	0.548236	1.002428
F204	F	1.505609	0.881569	1.335762
H205	H	0.326050	0.109317	-0.049571
H206	H	0.659384	0.442651	0.283762
H207	H	0.992717	0.775984	0.617095
F208	F	0.709773	0.112876	-0.112502
F209	F	1.043106	0.446209	0.220831
F210	F	1.376439	0.779543	0.554164
F211	F	0.540098	0.109223	-0.124411
F212	F	0.873431	0.442557	0.208923
F213	F	1.206765	0.775890	0.542256
F214	F	0.774027	-0.301341	0.054435
F215	F	1.107361	0.031992	0.387769
F216	F	1.440694	0.365325	0.721102
H217	H	0.854531	-0.419138	0.191265
H218	H	1.187864	-0.085805	0.524599
H219	H	1.521198	0.247528	0.857932
H220	H	1.038373	0.002958	0.859179
H221	H	1.371706	0.336292	1.192512
H222	H	1.705040	0.669625	1.525846
H223	H	0.867128	-0.432424	-0.070354
H224	H	1.200461	-0.099091	0.262979
H225	H	1.533795	0.234242	0.596313
F226	F	0.829994	0.224449	0.855907
F227	F	1.163328	0.557782	1.189240
F228	F	1.496661	0.891115	1.522574
