data_functionalizedCrystal
_audit_creation_method	'MofGen! by Chris Wilmer'
_symmetry_space_group_name_H-M	'P1'
_symmetry_Int_Tables_number	1
_symmetry_cell_setting	triclinic
loop_
_symmetry_equiv_pos_as_xyz
  x,y,z
_cell_length_a	16.974800
_cell_length_b	10.540510
_cell_length_c	16.053802
_cell_angle_alpha	92.593693
_cell_angle_beta	91.074188
_cell_angle_gamma	83.950335
loop_
_atom_site_label
_atom_site_type_symbol
_atom_site_fract_x
_atom_site_fract_y
_atom_site_fract_z
O1	O	1.049977	0.161814	0.001547
O2	O	1.549977	0.661814	0.501547
O3	O	0.820624	0.181246	-0.013957
O4	O	1.320624	0.681246	0.486043
O5	O	0.940545	-0.013238	-0.005850
O6	O	1.440545	0.486762	0.494150
O7	O	0.930056	0.356298	-0.006560
O8	O	1.430056	0.856298	0.493440
O9	O	0.933944	-0.002577	0.132562
O10	O	1.433944	0.497423	0.632562
O11	O	0.814023	0.191907	0.124455
O12	O	1.314023	0.691907	0.624455
O13	O	1.043376	0.172475	0.139959
O14	O	1.543376	0.672475	0.639959
Zn15	Zn	0.927651	0.183883	0.154183
Zn16	Zn	1.427651	0.683883	0.654183
Zn17	Zn	0.936348	0.169837	-0.028181
Zn18	Zn	1.436348	0.669837	0.471819
O19	O	0.923455	0.366958	0.131853
O20	O	1.423455	0.866958	0.631853
C21	C	0.787955	0.185642	0.053264
C22	C	1.287955	0.685642	0.553264
C23	C	0.700447	0.182843	0.047348
C24	C	1.200447	0.682843	0.547348
C25	C	0.655741	0.187336	0.120020
C26	C	1.155741	0.687336	0.620020
C27	C	0.573520	0.184686	0.114464
C28	C	1.073520	0.684686	0.614464
C29	C	0.536004	0.177552	0.036236
C30	C	1.036004	0.677552	0.536236
C31	C	0.580715	0.173054	-0.036441
C32	C	1.080715	0.673054	0.463559
C33	C	0.662936	0.175695	-0.030885
C34	C	1.162936	0.675695	0.469115
C35	C	0.290486	0.169021	0.011526
C36	C	0.790486	0.669021	0.511526
C37	C	0.208258	0.166384	0.005975
C38	C	0.708258	0.666384	0.505975
C39	C	0.201069	0.178013	0.156881
C40	C	0.701069	0.678013	0.656881
C41	C	0.283291	0.180662	0.162431
C42	C	0.783291	0.680662	0.662431
C43	C	0.327996	0.176157	0.089754
C44	C	0.827996	0.676157	0.589754
N45	N	0.451960	0.174847	0.030555
N46	N	0.951960	0.674847	0.530555
N47	N	0.412039	0.178853	0.095436
N48	N	0.912039	0.678853	0.595436
C49	C	0.936463	-0.055202	0.063301
C50	C	1.436463	0.444798	0.563301
C51	C	0.934125	-0.196126	0.063138
C52	C	1.434125	0.303874	0.563138
C53	C	1.017419	-0.414493	0.069087
C54	C	1.517419	0.085507	0.569087
C55	C	1.019928	-0.267950	0.068939
C56	C	1.519928	0.232050	0.568939
C57	C	0.893971	-0.246479	-0.018870
C58	C	1.393971	0.253521	0.481130
C59	C	0.892087	-0.393224	-0.019059
C60	C	1.392087	0.106776	0.480941
C61	C	0.882793	-0.380889	0.138221
C62	C	1.382793	0.119111	0.638221
C63	C	0.886814	-0.234514	0.139537
C64	C	1.386814	0.265486	0.639537
C65	C	1.076045	0.168078	0.072736
C66	C	1.576045	0.668078	0.572736
C67	C	1.163553	0.170877	0.078647
C68	C	1.663553	0.670877	0.578647
C69	C	0.927537	0.408923	0.062699
C70	C	1.427537	0.908923	0.562699
C71	C	0.929875	0.549846	0.062857
C72	C	1.429875	1.049846	0.562857
N73	N	0.921721	0.193468	0.278643
N74	N	1.421721	0.693468	0.778643
N75	N	0.942284	0.160242	-0.152640
N76	N	1.442284	0.660242	0.347360
C77	C	0.972767	0.110745	0.325787
C78	C	1.472767	0.610745	0.825787
C79	C	0.968627	0.117462	0.412914
C80	C	1.468627	0.617462	0.912914
C81	C	0.913443	0.206910	0.452895
C82	C	1.413443	0.706910	0.952895
C83	C	0.862392	0.289637	0.405744
C84	C	1.362392	0.789637	0.905744
C85	C	0.866530	0.282913	0.318619
C86	C	1.366530	0.782913	0.818619
C87	C	0.895371	0.236245	0.713083
C88	C	1.395371	0.736245	1.213083
C89	C	0.891239	0.242966	0.800215
C90	C	1.391239	0.742966	1.300215
C91	C	0.997472	0.070788	0.807379
C92	C	1.497472	0.570788	1.307379
C93	C	1.001608	0.064077	0.720252
C94	C	1.501608	0.564077	1.220252
C95	C	0.950554	0.146800	0.673108
C96	C	1.450554	0.646800	1.173108
N97	N	0.909211	0.213780	0.541953
N98	N	1.409211	0.713780	1.041953
N99	N	0.954783	0.139922	0.584052
N100	N	1.454783	0.639922	1.084052
H101	H	1.051593	-0.234628	0.127919
H102	H	1.551593	0.265372	0.627919
H103	H	0.924922	-0.438327	-0.076113
H104	H	1.424922	0.061673	0.423887
N105	N	0.696200	0.195024	0.204397
N106	N	1.196200	0.695024	0.704397
H107	H	0.755070	0.196018	0.196893
H108	H	1.255070	0.696018	0.696893
H109	H	0.674300	0.275721	0.235971
H110	H	1.174300	0.775721	0.735971
N111	N	0.802871	0.386104	0.448868
N112	N	1.302871	0.886104	0.948868
H113	H	0.831582	0.445231	0.487060
H114	H	1.331582	0.945231	0.987060
H115	H	0.771174	0.437398	0.405730
H116	H	1.271174	0.937398	0.905730
N117	N	0.525299	0.189527	0.192843
N118	N	1.025299	0.689527	0.692843
H119	H	0.561605	0.193554	0.243248
H120	H	1.061605	0.693554	0.743248
H121	H	0.485442	0.267783	0.193699
H122	H	0.985442	0.767783	0.693699
H123	H	0.164662	0.181678	0.216050
H124	H	0.664662	0.681678	0.716050
N125	N	0.711159	0.170840	-0.109265
N126	N	1.211159	0.670840	0.390735
H127	H	0.674918	0.165920	-0.159666
H128	H	1.174918	0.665920	0.340334
H129	H	0.739477	0.250300	-0.110653
H130	H	1.239477	0.750300	0.389347
N131	N	0.831723	0.339444	0.843349
N132	N	1.331723	0.839444	1.343349
H133	H	0.842015	0.428409	0.828824
H134	H	1.342015	0.928409	1.328824
H135	H	0.776448	0.323306	0.824411
H136	H	1.276448	0.823306	1.324411
N137	N	0.811470	0.372128	0.267765
N138	N	1.311470	0.872128	0.767765
H139	H	0.775883	0.429815	0.306311
H140	H	1.275883	0.929815	0.806311
H141	H	0.843665	0.425589	0.233661
H142	H	1.343665	0.925589	0.733661
N143	N	0.803524	-0.168137	0.140232
N144	N	1.303524	0.331863	0.640232
H145	H	0.805500	-0.072611	0.143894
H146	H	1.305500	0.427389	0.643894
H147	H	0.774722	-0.192799	0.087297
H148	H	1.274722	0.307201	0.587297
H149	H	0.853802	0.303604	0.674705
H150	H	1.353802	0.803604	1.174705
H151	H	0.177716	0.160578	-0.057731
H152	H	0.677716	0.660578	0.442269
H153	H	1.010191	0.050101	0.451299
H154	H	1.510191	0.550101	0.951299
H155	H	0.818346	-0.402275	0.134399
H156	H	1.318346	0.097725	0.634399
N157	N	0.338698	0.164153	-0.066857
N158	N	0.838698	0.664153	0.433143
H159	H	0.302453	0.159235	-0.117255
H160	H	0.802453	0.659235	0.382745
H161	H	0.367019	0.243611	-0.068249
H162	H	0.867019	0.743611	0.431751
H163	H	1.046543	-0.008758	0.687702
H164	H	1.546543	0.491242	1.187702
H165	H	0.313831	0.186465	0.226132
H166	H	0.813831	0.686465	0.726132
N167	N	1.058123	-0.464766	0.147165
N168	N	1.558123	0.035234	0.647165
H169	H	1.020215	-0.511152	0.179256
H170	H	1.520215	-0.011152	0.679256
H171	H	1.106061	-0.525581	0.131426
H172	H	1.606061	-0.025581	0.631426
H173	H	0.828082	-0.415774	-0.026978
H174	H	1.328082	0.084226	0.473022
N175	N	1.065012	-0.478363	-0.002589
N176	N	1.565012	0.021637	0.497411
H177	H	1.030111	-0.530296	-0.039078
H178	H	1.530111	-0.030296	0.460922
H179	H	1.085897	-0.411123	-0.036527
H180	H	1.585897	0.088877	0.463473
H181	H	1.057202	-0.244304	0.014520
H182	H	1.557202	0.255696	0.514520
H183	H	0.550164	0.167237	-0.100136
H184	H	1.050164	0.667237	0.399864
H185	H	0.830944	-0.198608	-0.026079
H186	H	1.330944	0.301392	0.473921
N187	N	1.052534	-0.018430	0.858226
N188	N	1.552534	0.481570	1.358226
H189	H	1.041542	-0.000603	0.919486
H190	H	1.541542	0.499397	1.419486
H191	H	1.043655	-0.109698	0.842356
H192	H	1.543655	0.390302	1.342356
H193	H	0.907204	-0.418763	0.199976
H194	H	1.407204	0.081237	0.699976
H195	H	0.915985	-0.201757	0.200169
H196	H	1.415985	0.298243	0.700169
N197	N	0.938088	-0.212074	-0.094058
N198	N	1.438088	0.287926	0.405942
H199	H	0.984083	-0.163896	-0.075179
H200	H	1.484083	0.336104	0.424821
H201	H	0.958560	-0.292638	-0.126649
H202	H	1.458560	0.207362	0.373351
H203	H	1.017706	0.037913	0.293241
H204	H	1.517706	0.537913	0.793241
