data_functionalizedCrystal
_audit_creation_method	'MofGen! by Chris Wilmer'
_symmetry_space_group_name_H-M	'P1'
_symmetry_Int_Tables_number	1
_symmetry_cell_setting	triclinic
loop_
_symmetry_equiv_pos_as_xyz
  x,y,z
_cell_length_a	15.995350
_cell_length_b	16.109301
_cell_length_c	15.186229
_cell_angle_alpha	90.005167
_cell_angle_beta	89.999711
_cell_angle_gamma	83.476928
loop_
_atom_site_label
_atom_site_type_symbol
_atom_site_fract_x
_atom_site_fract_y
_atom_site_fract_z
O1	O	-1.110955	-0.107165	-0.073157
O2	O	-0.610955	0.392835	0.426843
O3	O	-0.867176	-0.120399	-0.073175
O4	O	-0.367176	0.379601	0.426825
O5	O	-0.995762	0.007247	-0.073157
O6	O	-0.495762	0.507247	0.426843
O7	O	-0.982369	-0.234811	-0.073176
O8	O	-0.482369	0.265189	0.426824
O9	O	-0.995754	0.007249	0.073301
O10	O	-0.495754	0.507249	0.573301
O11	O	-0.867168	-0.120397	0.073282
O12	O	-0.367168	0.379603	0.573282
O13	O	-1.110946	-0.107164	0.073300
O14	O	-0.610946	0.392836	0.573300
Zn15	Zn	-0.989056	-0.113780	0.096544
Zn16	Zn	-0.489056	0.386220	0.596544
Zn17	Zn	-0.989067	-0.113783	-0.096419
Zn18	Zn	-0.489067	0.386217	0.403581
O19	O	-0.982360	-0.234810	0.073282
O20	O	-0.482360	0.265190	0.573282
C21	C	-0.995216	0.038223	0.000072
C22	C	-0.495216	0.538223	0.500072
C23	C	-0.993589	0.130519	0.000074
C24	C	-0.493589	0.630519	0.500074
C25	C	-0.835977	-0.119851	0.000051
C26	C	-0.335977	0.380149	0.500051
C27	C	-0.743027	-0.118211	0.000044
C28	C	-0.243027	0.381789	0.500044
C29	C	-1.142145	-0.107712	0.000072
C30	C	-0.642145	0.392288	0.500072
C31	C	-1.235095	-0.109352	0.000073
C32	C	-0.735095	0.390648	0.500073
C33	C	-0.405281	-0.112320	0.000063
C34	C	0.094719	0.387680	0.500063
C35	C	-0.452740	-0.021413	0.000397
C36	C	0.047260	0.478587	0.500397
C37	C	-0.549430	-0.023054	0.000061
C38	C	-0.049430	0.476946	0.500061
C39	C	-0.572841	-0.115242	0.000054
C40	C	-0.072841	0.384758	0.500054
C41	C	-0.531747	-0.160082	-0.083580
C42	C	-0.031747	0.339918	0.416420
C43	C	-0.435112	-0.157798	-0.083644
C44	C	0.064888	0.342202	0.416356
C45	C	-0.434762	-0.159674	0.082906
C46	C	0.065238	0.340326	0.582906
C47	C	-0.531708	-0.159653	0.084005
C48	C	-0.031708	0.340347	0.584005
C49	C	-0.667538	-0.116898	0.000046
C50	C	-0.167538	0.383102	0.500046
C51	C	-0.310584	-0.110667	0.000065
C52	C	0.189416	0.389333	0.500065
C53	C	-0.982907	-0.265786	0.000051
C54	C	-0.482907	0.234214	0.500051
C55	C	-0.984534	-0.358081	0.000044
C56	C	-0.484534	0.141919	0.500044
N57	N	-0.989054	-0.113778	0.228237
N58	N	-0.489054	0.386222	0.728237
C59	C	-1.066107	0.352771	0.000065
C60	C	-0.566107	0.852771	0.500065
C61	C	-1.064573	0.439492	0.000058
C62	C	-0.564573	0.939492	0.500058
C63	C	-0.912009	0.419659	0.000050
C64	C	-0.412009	0.919659	0.500050
C65	C	-0.913545	0.332940	0.000051
C66	C	-0.413545	0.832940	0.500051
C67	C	-0.990597	0.299499	0.000063
C68	C	-0.490597	0.799499	0.500063
C69	C	-0.987526	0.472939	0.000055
C70	C	-0.487526	0.972939	0.500055
C71	C	-0.985861	0.566965	0.000047
C72	C	-0.485861	1.066965	0.500047
C73	C	-0.992262	0.205466	0.000069
C74	C	-0.492262	0.705466	0.500069
N75	N	-0.989075	-0.113778	-0.228112
N76	N	-0.489075	0.386222	0.271888
C77	C	-1.046011	-0.057275	0.453968
C78	C	-0.546011	0.442725	0.953968
C79	C	-1.046014	-0.057273	0.546158
C80	C	-0.546014	0.442727	1.046158
C81	C	-0.932112	-0.170283	0.546150
C82	C	-0.432112	0.329717	1.046150
C83	C	-0.932106	-0.170281	0.453962
C84	C	-0.432106	0.329719	0.953962
C85	C	-0.989060	-0.113778	0.407874
C86	C	-0.489060	0.386222	0.907874
C87	C	-0.989069	-0.113778	0.592251
C88	C	-0.489069	0.386222	1.092251
C89	C	-0.989071	-0.113777	0.692208
C90	C	-0.489071	0.386223	1.192208
C91	C	-0.989057	-0.113778	0.307911
C92	C	-0.489057	0.386222	0.807911
H93	H	-0.577865	0.012192	0.060014
H94	H	-0.077865	0.512192	0.560014
H95	H	-0.852051	0.289563	0.000046
H96	H	-0.352051	0.789563	0.500046
N97	N	-0.428221	0.026723	0.079847
N98	N	0.071779	0.526723	0.579847
H99	H	-0.386108	-0.009926	0.116396
H100	H	0.113892	0.490074	0.616396
H101	H	-0.402297	0.077839	0.059830
H102	H	0.097703	0.577839	0.559830
N103	N	-1.107452	0.003658	0.595872
N104	N	-0.607452	0.503658	1.095872
H105	H	-1.097840	0.062675	0.579836
H106	H	-0.597840	0.562675	1.079836
H107	H	-1.166838	-0.006038	0.579796
H108	H	-0.666838	0.493962	1.079796
N109	N	-0.426788	0.026515	-0.078584
N110	N	0.073212	0.526515	0.421416
H111	H	-0.384424	-0.010404	-0.114581
H112	H	0.115576	0.489596	0.385419
H113	H	-0.477891	0.044654	-0.115875
H114	H	0.022109	0.544654	0.384125
N115	N	-0.828907	0.455728	0.000040
N116	N	-0.328907	0.955728	0.500040
H117	H	-0.839391	0.518748	0.000043
H118	H	-0.339391	1.018748	0.500043
H119	H	-0.795865	0.436243	0.054333
H120	H	-0.295865	0.936243	0.554333
N121	N	-0.870685	-0.231224	0.595860
N122	N	-0.370685	0.268776	1.095860
H123	H	-0.879331	-0.222654	0.661256
H124	H	-0.379331	0.277346	1.161256
H125	H	-0.880337	-0.290210	0.579737
H126	H	-0.380337	0.209790	1.079737
N127	N	-1.107436	0.003665	0.404256
N128	N	-0.607436	0.503665	0.904256
H129	H	-1.143514	0.039460	0.447450
H130	H	-0.643514	0.539460	0.947450
H131	H	-1.075391	0.040439	0.366013
H132	H	-0.575391	0.540439	0.866013
N133	N	-0.870670	-0.231218	0.404238
N134	N	-0.370670	0.268782	0.904238
H135	H	-0.834594	-0.267016	0.447422
H136	H	-0.334594	0.232984	0.947422
H137	H	-0.902707	-0.267991	0.365977
H138	H	-0.402707	0.232009	0.865977
H139	H	-0.577301	0.012429	-0.059991
H140	H	-0.077301	0.512429	0.440009
H141	H	-0.402845	-0.224541	-0.087444
H142	H	0.097155	0.275459	0.412556
N143	N	-0.410864	-0.114482	-0.166442
N144	N	0.089136	0.385518	0.333558
H145	H	-0.427955	-0.146194	-0.219643
H146	H	0.072045	0.353806	0.280357
H147	H	-0.440428	-0.055664	-0.167769
H148	H	0.059572	0.444336	0.332231
N149	N	-0.550438	-0.249793	-0.087722
N150	N	-0.050438	0.250207	0.412278
H151	H	-0.585809	-0.262261	-0.035298
H152	H	-0.085809	0.237739	0.464702
H153	H	-0.582087	-0.259007	-0.143778
H154	H	-0.082087	0.240993	0.356222
N155	N	-1.146018	0.496949	0.000073
N156	N	-0.646018	0.996949	0.500073
H157	H	-1.133357	0.556961	0.000068
H158	H	-0.633357	1.056961	0.500068
H159	H	-1.179602	0.486115	-0.054216
H160	H	-0.679602	0.986115	0.445784
N161	N	-1.149210	0.316704	0.000071
N162	N	-0.649210	0.816704	0.500071
H163	H	-1.138728	0.253683	0.000076
H164	H	-0.638728	0.753683	0.500076
H165	H	-1.182247	0.336201	0.054367
H166	H	-0.682247	0.836201	0.554367
N167	N	-0.569331	-0.118838	-0.166031
N168	N	-0.069331	0.381162	0.333969
H169	H	-0.631937	-0.122529	-0.166991
H170	H	-0.131937	0.377471	0.333009
H171	H	-0.558698	-0.058232	-0.166807
H172	H	-0.058698	0.441768	0.333193
N173	N	-0.407573	-0.120310	0.166880
N174	N	0.092427	0.379690	0.666880
H175	H	-0.375864	-0.071377	0.152069
H176	H	0.124136	0.428623	0.652069
H177	H	-0.458837	-0.100283	0.203169
H178	H	0.041163	0.399717	0.703169
H179	H	-0.547054	-0.226879	0.089052
H180	H	-0.047054	0.273121	0.589052
N181	N	-0.567892	-0.116301	0.165967
N182	N	-0.067892	0.383699	0.665967
H183	H	-0.610751	-0.068094	0.148800
H184	H	-0.110751	0.431906	0.648800
H185	H	-0.595880	-0.157250	0.203058
H186	H	-0.095880	0.342750	0.703058
N187	N	-0.392673	-0.248457	0.083654
N188	N	0.107327	0.251543	0.583654
H189	H	-0.354690	-0.257995	0.030622
H190	H	0.145310	0.242005	0.530622
H191	H	-0.358230	-0.258386	0.139175
H192	H	0.141770	0.241614	0.639175
