data_functionalizedCrystal
_audit_creation_method	'MofGen! by Chris Wilmer'
_symmetry_space_group_name_H-M	'P1'
_symmetry_Int_Tables_number	1
_symmetry_cell_setting	triclinic
loop_
_symmetry_equiv_pos_as_xyz
  x,y,z
_cell_length_a	16.109318
_cell_length_b	16.109301
_cell_length_c	14.586319
_cell_angle_alpha	89.994786
_cell_angle_beta	90.000075
_cell_angle_gamma	83.465022
loop_
_atom_site_label
_atom_site_type_symbol
_atom_site_fract_x
_atom_site_fract_y
_atom_site_fract_z
O1	O	1.103122	0.106935	-0.076167
O2	O	1.603122	0.606935	0.423833
O3	O	0.861062	0.120219	-0.076186
O4	O	1.361062	0.620219	0.423814
O5	O	0.988741	-0.007454	-0.076167
O6	O	1.488741	0.492546	0.423833
O7	O	0.975442	0.234607	-0.076186
O8	O	1.475442	0.734607	0.423814
O9	O	0.988733	-0.007456	0.076314
O10	O	1.488733	0.492544	0.576314
O11	O	0.861053	0.120217	0.076295
O12	O	1.361053	0.620217	0.576295
O13	O	1.103113	0.106933	0.076314
O14	O	1.603113	0.606933	0.576314
Cu15	Cu	0.982082	0.113575	0.090227
Cu16	Cu	1.482082	0.613575	0.590227
Cu17	Cu	0.982093	0.113577	-0.090099
Cu18	Cu	1.482093	0.613577	0.409901
O19	O	0.975433	0.234606	0.076294
O20	O	1.475433	0.734606	0.576294
C21	C	0.830083	0.119677	0.000052
C22	C	1.330083	0.619677	0.500052
C23	C	0.737788	0.118057	0.000045
C24	C	1.237788	0.618057	0.500045
C25	C	0.438719	0.112823	-0.083055
C26	C	0.938719	0.612823	0.416945
C27	C	0.525441	0.114340	-0.083061
C28	C	1.025441	0.614340	0.416939
C29	C	0.525450	0.114327	0.083182
C30	C	1.025450	0.614327	0.583182
C31	C	0.438731	0.112803	0.083187
C32	C	0.938731	0.612803	0.583187
C33	C	0.395367	0.112056	0.000065
C34	C	0.895367	0.612056	0.500065
C35	C	0.568807	0.115096	0.000055
C36	C	1.068807	0.615096	0.500055
C37	C	0.662835	0.116742	0.000049
C38	C	1.162835	0.616742	0.500049
C39	C	0.301334	0.110409	0.000070
C40	C	0.801334	0.610409	0.500070
C41	C	0.988198	-0.038430	0.000074
C42	C	1.488198	0.461570	0.500074
C43	C	0.986583	-0.130725	0.000075
C44	C	1.486583	0.369275	0.500075
C45	C	1.058590	-0.352993	0.000067
C46	C	1.558590	0.147007	0.500067
C47	C	1.057066	-0.439713	0.000059
C48	C	1.557066	0.060287	0.500059
C49	C	0.905579	-0.419848	0.000051
C50	C	1.405579	0.080152	0.500051
C51	C	0.907104	-0.333130	0.000052
C52	C	1.407104	0.166870	0.500052
C53	C	0.983612	-0.299704	0.000064
C54	C	1.483612	0.200296	0.500064
C55	C	0.980563	-0.473144	0.000056
C56	C	1.480563	0.026856	0.500056
C57	C	0.978910	-0.567170	0.000047
C58	C	1.478910	-0.067170	0.500047
C59	C	0.985265	-0.205672	0.000071
C60	C	1.485265	0.294328	0.500071
C61	C	1.134092	0.107474	0.000074
C62	C	1.634092	0.607474	0.500074
C63	C	1.226387	0.109095	0.000075
C64	C	1.726387	0.609095	0.500075
C65	C	0.975976	0.265581	0.000052
C66	C	1.475976	0.765581	0.500052
C67	C	0.977592	0.357877	0.000044
C68	C	1.477592	0.857877	0.500044
N69	N	0.982081	0.113573	0.217059
N70	N	1.482081	0.613573	0.717059
N71	N	0.982100	0.113573	-0.216931
N72	N	1.482100	0.613573	0.283069
C73	C	1.038636	0.057058	0.452074
C74	C	1.538636	0.557058	0.952074
C75	C	1.038638	0.057056	0.548055
C76	C	1.538638	0.557056	1.048055
C77	C	0.925539	0.170090	0.548047
C78	C	1.425539	0.670090	1.048047
C79	C	0.925534	0.170087	0.452068
C80	C	1.425534	0.670087	0.952068
C81	C	0.982087	0.113572	0.404084
C82	C	1.482087	0.613572	0.904084
C83	C	0.982095	0.113573	0.596044
C84	C	1.482095	0.613573	1.096044
C85	C	0.982097	0.113571	0.700111
C86	C	1.482097	0.613571	1.200111
C87	C	0.982084	0.113573	0.300010
C88	C	1.482084	0.613573	0.800010
H89	H	0.560767	0.114937	0.150856
H90	H	1.060767	0.614937	0.650856
O91	O	0.870681	0.225105	0.405487
O92	O	1.370681	0.725105	0.905487
C93	C	0.884159	0.307414	0.428942
C94	C	1.384159	0.807414	0.928942
H95	H	0.950720	0.307846	0.455322
H96	H	1.450720	0.807846	0.955322
H97	H	0.838074	0.331822	0.484652
H98	H	1.338074	0.831822	0.984652
C99	C	0.789467	0.363242	0.311270
C100	C	1.289467	0.863242	0.811270
C101	C	0.871222	0.363773	0.343664
C102	C	1.371222	0.863773	0.843664
H103	H	0.781484	0.398008	0.258669
H104	H	1.281484	0.898008	0.758669
H105	H	0.780384	0.307789	0.295470
H106	H	1.280384	0.807789	0.795470
H107	H	0.751073	0.383579	0.357704
H108	H	1.251073	0.883579	0.857704
H109	H	0.909614	0.343426	0.297235
H110	H	1.409614	0.843426	0.797235
H111	H	0.880311	0.419224	0.359455
H112	H	1.380311	0.919224	0.859455
H113	H	0.843288	-0.447074	0.000042
H114	H	1.343288	0.052926	0.500042
H115	H	1.120888	-0.325781	0.000075
H116	H	1.620888	0.174219	0.500075
H117	H	1.084684	0.011039	0.413007
H118	H	1.584684	0.511039	0.913007
O119	O	0.567609	0.114942	-0.163781
O120	O	1.067609	0.614942	0.336219
C121	C	0.627217	0.043872	-0.168753
C122	C	1.127217	0.543872	0.331247
H123	H	0.607681	-0.006890	-0.121586
H124	H	1.107681	0.493110	0.378414
H125	H	0.690809	0.061291	-0.146426
H126	H	1.190809	0.561291	0.353574
C127	C	0.656814	0.073625	-0.325992
C128	C	1.156814	0.573625	0.174008
C129	C	0.632815	0.011275	-0.268066
C130	C	1.132815	0.511275	0.231934
H131	H	0.660270	0.053519	-0.387253
H132	H	1.160270	0.553519	0.112747
H133	H	0.616657	0.121508	-0.322642
H134	H	1.116657	0.621508	0.177358
H135	H	0.709805	0.088135	-0.307375
H136	H	1.209805	0.588135	0.192625
H137	H	0.579820	-0.003226	-0.286676
H138	H	1.079820	0.496774	0.213324
H139	H	0.672963	-0.036612	-0.271422
H140	H	1.172963	0.463388	0.228578
H141	H	1.084685	0.011036	0.587126
H142	H	1.584685	0.511036	1.087126
H143	H	0.846043	-0.289740	0.000047
H144	H	1.346043	0.210260	0.500047
O145	O	0.870692	0.224959	0.594803
O146	O	1.370692	0.724959	1.094803
C147	C	0.882810	0.212833	0.689809
C148	C	1.382810	0.712833	1.189809
H149	H	0.948915	0.181780	0.702916
H150	H	1.448915	0.681780	1.202916
H151	H	0.835767	0.171119	0.717058
H152	H	1.335767	0.671119	1.217058
C153	C	0.789104	0.336021	0.722973
C154	C	1.289104	0.836021	1.222973
C155	C	0.870298	0.297888	0.739073
C156	C	1.370298	0.797888	1.239073
H157	H	0.781382	0.388486	0.753363
H158	H	1.281382	0.888486	1.253363
H159	H	0.780937	0.344190	0.658966
H160	H	1.280937	0.844190	1.158966
H161	H	0.749910	0.301251	0.745681
H162	H	1.249910	0.801251	1.245681
H163	H	0.909489	0.332652	0.716355
H164	H	1.409489	0.832652	1.216355
H165	H	0.878471	0.289727	0.803077
H166	H	1.378471	0.789727	1.303077
H167	H	0.403433	0.112178	0.150877
H168	H	0.903433	0.612178	0.650877
O169	O	0.396729	0.112057	-0.163878
O170	O	0.896729	0.612057	0.336122
C171	C	0.453591	0.113081	-0.237242
C172	C	0.953591	0.613081	0.262758
H173	H	0.518856	0.087857	-0.212876
H174	H	1.018856	0.587857	0.287124
H175	H	0.454075	0.179904	-0.262801
H176	H	0.954075	0.679904	0.237199
C177	C	0.346726	0.088983	-0.345698
C178	C	0.846726	0.588983	0.154302
C179	C	0.426885	0.057997	-0.315773
C180	C	0.926885	0.557997	0.184227
H181	H	0.330252	0.055009	-0.394142
H182	H	0.830252	0.555009	0.105858
H183	H	0.308416	0.088297	-0.296272
H184	H	0.808416	0.588297	0.203728
H185	H	0.347140	0.144670	-0.366990
H186	H	0.847140	0.644670	0.133010
H187	H	0.426468	0.002316	-0.294472
H188	H	0.926468	0.502316	0.205528
H189	H	0.465195	0.058673	-0.365198
H190	H	0.965195	0.558673	0.134802
H191	H	1.118121	-0.483098	0.000059
H192	H	1.618121	0.016902	0.500059
