data_functionalizedCrystal
_audit_creation_method	'MofGen! by Chris Wilmer'
_symmetry_space_group_name_H-M	'P1'
_symmetry_Int_Tables_number	1
_symmetry_cell_setting	triclinic
loop_
_symmetry_equiv_pos_as_xyz
  x,y,z
_cell_length_a	17.699083
_cell_length_b	14.519709
_cell_length_c	16.776229
_cell_angle_alpha	89.992406
_cell_angle_beta	89.998886
_cell_angle_gamma	83.481580
loop_
_atom_site_label
_atom_site_type_symbol
_atom_site_fract_x
_atom_site_fract_y
_atom_site_fract_z
O1	O	1.004412	0.116624	-0.066178
O2	O	0.784077	0.131797	-0.066204
O3	O	0.900087	-0.010052	-0.066183
O4	O	0.888403	0.258474	-0.066199
O5	O	0.900071	-0.010061	0.066393
O6	O	0.784062	0.131789	0.066372
O7	O	1.004397	0.116616	0.066398
Zn8	Zn	0.894227	0.124201	0.087435
Zn9	Zn	0.894247	0.124212	-0.087241
O10	O	0.888388	0.258465	0.066377
C11	C	0.755871	0.131249	0.000080
C12	C	0.671848	0.129618	0.000071
C13	C	0.623466	0.212881	0.000066
C14	C	0.544518	0.211343	0.000076
C15	C	0.513954	0.126541	0.000086
C16	C	0.562343	0.043272	0.000093
C17	C	0.641289	0.044811	0.000088
C18	C	0.243962	0.037064	0.000113
C19	C	0.165010	0.035531	0.000115
C20	C	0.147191	0.203596	0.000101
C21	C	0.226137	0.205135	0.000097
C22	C	0.274519	0.121866	0.000108
C23	C	0.360123	0.123535	0.000098
C24	C	0.428352	0.124872	0.000090
C25	C	0.899534	-0.044414	0.000105
C26	C	0.897903	-0.146789	0.000105
C27	C	0.891896	-0.521659	0.000084
C28	C	0.893564	-0.417358	0.000090
C29	C	0.894899	-0.334227	0.000095
C30	C	0.896568	-0.229920	0.000100
C31	C	1.032603	0.117164	0.000112
C32	C	1.116626	0.118795	0.000116
C33	C	0.888940	0.292827	0.000087
C34	C	0.890572	0.395202	0.000082
N35	N	0.894219	0.124192	0.206646
N36	N	0.894262	0.124213	-0.206452
C37	C	0.945603	0.061407	0.248372
C38	C	0.945607	0.061406	0.331824
C39	C	0.894230	0.124196	0.373549
C40	C	0.842840	0.186984	0.331816
C41	C	0.842833	0.186980	0.248366
C42	C	0.842867	0.187002	0.668364
C43	C	0.842880	0.187004	0.751820
C44	C	0.945642	0.061429	0.751822
C45	C	0.945635	0.061424	0.668372
C46	C	0.894242	0.124209	0.626647
C47	C	0.894238	0.124208	0.536158
C48	C	0.894238	0.124202	0.464036
H49	H	0.648344	0.281937	0.000058
O50	O	0.793004	0.247944	0.372468
C51	C	0.804017	0.234473	0.455072
H52	H	0.864143	0.199914	0.466468
H53	H	0.761122	0.188285	0.478769
C54	C	0.718921	0.371282	0.483905
C55	C	0.792772	0.328842	0.497901
H56	H	0.711982	0.429492	0.510325
H57	H	0.711499	0.380356	0.428253
H58	H	0.683184	0.332782	0.503652
H59	H	0.828507	0.367336	0.478145
H60	H	0.800199	0.319777	0.553551
O61	O	0.135194	-0.046770	0.000094
C62	C	0.055139	-0.030268	0.000112
H63	H	0.036703	0.041742	-0.024998
H64	H	0.033157	-0.034682	0.063717
C65	C	0.044936	-0.191996	-0.021027
C66	C	0.022291	-0.103555	-0.051874
H67	H	0.024672	-0.237205	-0.053092
H68	H	0.098870	-0.203115	-0.021037
H69	H	0.026615	-0.195662	0.031976
H70	H	0.040620	-0.099887	-0.104873
H71	H	-0.031641	-0.092437	-0.051875
O72	O	0.100222	0.284510	-0.000043
C73	C	0.114103	0.336018	-0.068703
H74	H	0.141015	0.287270	-0.116691
H75	H	0.154374	0.389306	-0.053190
C76	C	0.005457	0.446021	-0.040898
C77	C	0.038506	0.386146	-0.099839
H78	H	-0.041173	0.476946	-0.060103
H79	H	-0.003893	0.411322	0.005362
H80	H	0.039024	0.490419	-0.027975
H81	H	0.004943	0.341742	-0.112754
H82	H	0.047849	0.420839	-0.146102
H83	H	0.987474	0.010298	0.634402
H84	H	0.505128	0.279144	0.000072
H85	H	0.251017	0.274189	0.000085
H86	H	0.283346	-0.030739	0.000123
O87	O	0.532531	-0.039025	0.000068
C88	C	0.452476	-0.022531	0.000089
H89	H	0.434033	0.049480	-0.025016
H90	H	0.430496	-0.026954	0.063694
C91	C	0.442284	-0.184261	-0.021061
C92	C	0.419632	-0.095818	-0.051902
H93	H	0.422023	-0.229469	-0.053128
H94	H	0.496218	-0.195374	-0.021072
H95	H	0.423965	-0.187933	0.031942
H96	H	0.437958	-0.092143	-0.104900
H97	H	0.365699	-0.084706	-0.051901
O98	O	0.688183	-0.036156	0.000053
C99	C	0.644280	-0.111335	0.000080
H100	H	0.585391	-0.087796	-0.025018
H101	H	0.638627	-0.137342	0.063686
C102	C	0.755839	-0.219037	-0.021082
C103	C	0.683512	-0.190127	-0.051915
H104	H	0.780040	-0.267641	-0.053152
H105	H	0.785418	-0.168388	-0.021098
H106	H	0.751118	-0.240703	0.031922
H107	H	0.688235	-0.168451	-0.104914
H108	H	0.653934	-0.240774	-0.051909
O109	O	0.995526	0.000302	0.792269
C110	C	0.983089	-0.090973	0.771903
H111	H	0.953914	-0.090813	0.711315
H112	H	0.945382	-0.119434	0.818876
C113	C	1.095686	-0.152641	0.842465
C114	C	1.059858	-0.152446	0.768046
H115	H	1.143039	-0.190563	0.840088
H116	H	1.104064	-0.091148	0.856189
H117	H	1.064255	-0.176357	0.881601
H118	H	1.091284	-0.128720	0.728913
H119	H	1.051487	-0.213937	0.754315
O120	O	0.995437	0.000267	0.207898
C121	C	0.983008	-0.090992	0.228348
H122	H	0.922409	-0.091323	0.251284
H123	H	1.024910	-0.118129	0.276805
C124	C	1.069115	-0.153168	0.126079
C125	C	0.994684	-0.153575	0.154242
H126	H	1.076321	-0.191774	0.080368
H127	H	1.077491	-0.091685	0.112303
H128	H	1.104025	-0.175780	0.166466
H129	H	0.959776	-0.130952	0.113858
H130	H	0.986302	-0.215055	0.168009
H131	H	0.987448	0.010281	0.365798
O132	O	0.793068	0.248087	0.792388
C133	C	0.833674	0.304914	0.840659
H134	H	0.893356	0.306390	0.815498
H135	H	0.837616	0.276045	0.903907
C136	C	0.718781	0.402178	0.872838
C137	C	0.792081	0.403998	0.841932
H138	H	0.693123	0.463297	0.873627
H139	H	0.691423	0.363892	0.840320
H140	H	0.722076	0.378117	0.925543
H141	H	0.788785	0.428048	0.789225
H142	H	0.819438	0.442291	0.874442
H143	H	0.801023	0.238126	0.634398
H144	H	0.800989	0.238105	0.214393
