data_functionalizedCrystal
_audit_creation_method	'MofGen! by Chris Wilmer'
_symmetry_space_group_name_H-M	'P1'
_symmetry_Int_Tables_number	1
_symmetry_cell_setting	triclinic
loop_
_symmetry_equiv_pos_as_xyz
  x,y,z
_cell_length_a	18.101395
_cell_length_b	19.077105
_cell_length_c	19.076919
_cell_angle_alpha	89.923776
_cell_angle_beta	92.272317
_cell_angle_gamma	92.272502
loop_
_atom_site_label
_atom_site_type_symbol
_atom_site_fract_x
_atom_site_fract_y
_atom_site_fract_z
Zn1	Zn	-0.358271	-1.058231	-0.440421
Zn2	Zn	-0.477344	-1.062857	-0.322915
Zn3	Zn	-0.348351	-0.945450	-0.318214
Zn4	Zn	-0.476897	-0.940679	-0.435668
O5	O	-0.415216	-1.001804	-0.379305
O6	O	-0.378405	-1.157176	-0.428790
O7	O	-0.456268	-1.051216	-0.223960
O8	O	-0.246037	-0.960470	-0.334447
O9	O	-0.465887	-1.160575	-0.342459
O10	O	-0.253326	-1.043330	-0.424232
O11	O	-0.361497	-0.964957	-0.220507
O12	O	-0.361064	-0.846486	-0.329838
O13	O	-0.465126	-0.952340	-0.534630
O14	O	-0.455506	-0.842981	-0.416131
O15	O	-0.377972	-1.038704	-0.538122
O16	O	-0.580914	-1.046590	-0.337850
O17	O	-0.580586	-0.956826	-0.420689
C18	C	-0.407161	-0.819237	-0.371959
C19	C	-0.403733	-0.741133	-0.368833
C20	C	-0.607621	-1.001711	-0.379280
C21	C	-0.689937	-1.001735	-0.379296
C22	C	-0.422606	-0.994474	-0.562585
C23	C	-0.425755	-0.991350	-0.640688
C24	C	-0.989036	-1.001887	-0.379340
C25	C	-0.957547	-0.945531	-0.431600
C26	C	-0.871910	-0.945280	-0.431419
C27	C	-0.840650	-1.001811	-0.379319
C28	C	-0.867911	-0.984741	-0.304458
C29	C	-0.953554	-0.984379	-0.304770
C30	C	-0.961424	-1.075459	-0.401293
C31	C	-0.875820	-1.074956	-0.402900
C32	C	-0.756788	-1.001770	-0.379302
C33	C	-1.072898	-1.001927	-0.379351
C34	C	-0.222060	-1.001916	-0.379345
C35	C	-0.139749	-1.001964	-0.379363
C36	C	-0.423303	-1.185084	-0.386679
C37	C	-0.426749	-1.263188	-0.389822
C38	C	-0.451363	-0.702636	-0.412222
C39	C	-0.448133	-0.629249	-0.409288
C40	C	-0.397276	-0.594361	-0.362962
C41	C	-0.349642	-0.632863	-0.319571
C42	C	-0.352869	-0.706248	-0.322509
C43	C	-0.382341	-0.375075	-0.349369
C44	C	-0.379119	-0.301684	-0.346433
C45	C	-0.477610	-0.298076	-0.436152
C46	C	-0.480836	-0.371463	-0.439082
C47	C	-0.433198	-0.409959	-0.395694
N48	N	-0.393975	-0.519348	-0.359960
N49	N	-0.436497	-0.484970	-0.398700
C50	C	-0.381860	-1.034846	-0.679200
C51	C	-0.384816	-1.031902	-0.752586
C52	C	-0.431671	-0.985466	-0.787458
C53	C	-0.475568	-0.941966	-0.748941
C54	C	-0.472608	-0.944906	-0.675556
C55	C	-0.445387	-0.971847	-1.006740
C56	C	-0.448346	-0.968911	-1.080130
C57	C	-0.357593	-1.058847	-1.083770
C58	C	-0.354640	-1.061786	-1.010384
C59	C	-0.398533	-1.018283	-0.971872
N60	N	-0.434696	-0.982458	-0.862471
N61	N	-0.395505	-1.021289	-0.896861
C62	C	-0.407803	-1.009146	-0.196739
C63	C	-0.404451	-1.012406	-0.118642
H64	H	-0.853628	-0.955615	-0.486834
C65	C	-0.847420	-1.134358	-0.355541
H66	H	-0.813595	-1.115241	-0.320609
H67	H	-0.823176	-1.167191	-0.383102
H68	H	-0.887979	-1.157278	-0.333677
C69	C	-0.840344	-0.871533	-0.411456
H70	H	-0.787838	-0.871126	-0.411284
H71	H	-0.855714	-0.859592	-0.366107
H72	H	-0.857998	-0.838383	-0.444672
C73	C	-0.300478	-0.748598	-0.274783
H74	H	-0.309678	-0.797300	-0.283172
H75	H	-0.308801	-0.738448	-0.227069
H76	H	-0.250625	-0.736180	-0.284676
H77	H	-0.492778	-0.731037	-0.449944
H78	H	-0.481139	-0.936434	-0.975393
H79	H	-0.513715	-0.904154	-0.777340
C80	C	-0.981494	-1.037636	-0.250158
H81	H	-1.033976	-1.037779	-0.249983
H82	H	-0.961447	-1.024865	-0.204987
H83	H	-0.966302	-1.083125	-0.261824
H84	H	-0.516393	-0.266725	-0.471476
C85	C	-0.330316	-1.085923	-0.640847
H86	H	-0.304591	-1.111399	-0.674296
H87	H	-0.358835	-1.117672	-0.613445
H88	H	-0.295706	-1.060201	-0.611146
H89	H	-0.486918	-0.597908	-0.444619
C90	C	-0.520911	-0.897079	-0.633193
H91	H	-0.549250	-0.869011	-0.664472
H92	H	-0.490092	-0.867621	-0.603330
H93	H	-0.553207	-0.925105	-0.605652
H94	H	-0.486502	-0.931095	-1.108520
H95	H	-0.970551	-0.930687	-0.286519
H96	H	-0.980878	-0.955734	-0.487188
C97	C	-0.536773	-0.409835	-0.490046
H98	H	-0.564673	-0.376397	-0.515472
H99	H	-0.569168	-0.439521	-0.464259
H100	H	-0.510983	-0.437254	-0.521858
C101	C	-0.323170	-0.263308	-0.295476
H102	H	-0.295256	-0.296744	-0.270061
H103	H	-0.348951	-0.235888	-0.263664
H104	H	-0.290778	-0.233623	-0.321274
H105	H	-0.976217	-0.891266	-0.416994
C106	C	-0.329955	-0.417412	-0.301632
H107	H	-0.299214	-0.386121	-0.273614
H108	H	-0.300072	-0.444986	-0.329703
H109	H	-0.358266	-0.447242	-0.272112
C110	C	-0.293703	-0.594487	-0.268611
H111	H	-0.298607	-0.545268	-0.273069
H112	H	-0.244908	-0.606122	-0.279456
H113	H	-0.303095	-0.608391	-0.221860
C114	C	-0.840378	-1.038618	-0.250242
H115	H	-0.811941	-1.072080	-0.272834
H116	H	-0.881603	-1.061820	-0.229732
H117	H	-0.810588	-1.015191	-0.214718
H118	H	-0.843494	-0.931637	-0.285943
C119	C	-0.336536	-1.079751	-0.794947
H120	H	-0.308214	-1.107834	-0.763668
H121	H	-0.304235	-1.051747	-0.822498
H122	H	-0.367377	-1.109204	-0.824801
H123	H	-0.985932	-1.091602	-0.455108
C124	C	-0.303100	-1.112866	-0.972029
H125	H	-0.277377	-1.138347	-1.005476
H126	H	-0.331627	-1.144611	-0.944630
H127	H	-0.268489	-1.087150	-0.942325
H128	H	-0.321856	-1.094263	-1.115133
C129	C	-0.852211	-1.092423	-0.477347
H130	H	-0.873668	-1.136726	-0.491318
H131	H	-0.799832	-1.093970	-0.477576
H132	H	-0.868582	-1.057348	-0.509083
C133	C	-0.988929	-1.132118	-0.349877
H134	H	-1.017115	-1.111081	-0.315205
H135	H	-0.947684	-1.153748	-0.327915
H136	H	-1.018951	-1.166469	-0.374776
