data_functionalizedCrystal
_audit_creation_method	'MofGen! by Chris Wilmer'
_symmetry_space_group_name_H-M	'P1'
_symmetry_Int_Tables_number	1
_symmetry_cell_setting	triclinic
loop_
_symmetry_equiv_pos_as_xyz
  x,y,z
_cell_length_a	15.538191
_cell_length_b	9.016244
_cell_length_c	15.625325
_cell_angle_alpha	71.920000
_cell_angle_beta	66.741091
_cell_angle_gamma	90.007842
loop_
_atom_site_label
_atom_site_type_symbol
_atom_site_fract_x
_atom_site_fract_y
_atom_site_fract_z
O1	O	1.249537	0.280790	-0.292685
O2	O	0.975413	0.224821	-0.188633
O3	O	1.119799	0.324677	-0.374292
O4	O	1.105151	0.180935	-0.107026
O5	O	1.119778	0.077991	-0.374282
O6	O	0.975392	-0.021865	-0.188623
O7	O	1.249516	0.034104	-0.292674
Cu8	Cu	1.112452	-0.016405	-0.240648
Cu9	Cu	1.112477	0.275330	-0.240660
O10	O	1.105130	-0.065752	-0.107016
C11	C	0.940321	0.095622	-0.177742
C12	C	0.835789	0.078179	-0.145314
N13	N	1.112441	-0.221594	-0.240642
C14	C	0.547581	0.251466	-0.467471
C15	C	0.449355	0.235067	-0.436978
C16	C	0.427134	0.142821	-0.265461
C17	C	0.525361	0.159205	-0.295940
C18	C	0.585577	0.213529	-0.396946
C19	C	0.563356	0.121268	-0.225415
C20	C	0.661574	0.137659	-0.255892
C21	C	0.721796	0.191986	-0.356893
C22	C	0.683795	0.229920	-0.427423
C23	C	0.503138	0.066954	-0.124410
C24	C	0.541134	0.029018	-0.053885
C25	C	0.639354	0.045398	-0.084361
C26	C	0.699576	0.099725	-0.185363
C27	C	0.677355	0.007464	-0.013832
C28	C	0.775573	0.023854	-0.044308
C29	C	0.797794	0.116115	-0.215839
C30	C	1.034971	-0.509953	-0.141495
C31	C	1.035139	-0.338179	-0.141277
C32	C	1.210719	-0.277684	-0.252255
C33	C	1.210295	-0.449984	-0.251594
C34	C	1.092613	-0.408754	-0.328746
C35	C	1.090350	-0.237539	-0.327371
C36	C	1.284608	0.163306	-0.303566
C37	C	1.389139	0.180759	-0.335993
C38	C	1.119125	0.219284	-0.407657
C39	C	1.117138	0.272769	-0.507087
N40	N	1.112495	0.480524	-0.240675
C41	C	1.110571	-0.223685	-0.834078
C42	C	1.108708	-0.173402	-0.927509
C43	C	1.108731	0.095520	-0.927510
C44	C	1.110590	0.045258	-0.834075
C45	C	1.111511	-0.114346	-0.787367
C46	C	1.111529	0.154597	-0.787364
C47	C	1.113393	0.104340	-0.693939
C48	C	1.114316	-0.055256	-0.647226
C49	C	1.113374	-0.164603	-0.693942
C50	C	1.110615	0.314202	-0.834077
C51	C	1.111555	0.423541	-0.787366
C52	C	1.113411	0.373283	-0.693936
C53	C	1.114335	0.213687	-0.647223
C54	C	1.114354	0.482630	-0.647220
C55	C	1.116217	0.432373	-0.553795
C56	C	1.116198	0.163430	-0.553798
C57	C	1.105804	0.039644	-0.073650
C58	C	1.107791	-0.013831	0.025779
H59	H	0.846826	0.160343	-0.298088
Br60	Br	1.240577	-0.261758	-0.148373
H61	H	1.227795	-0.524089	-0.188347
H62	H	1.114092	-0.294576	-0.655895
Br63	Br	1.111816	-0.440296	-0.770677
Br64	Br	1.117500	0.580763	-0.490399
Br65	Br	1.107444	-0.321808	-0.990906
H66	H	1.109101	0.355117	-0.910150
Br67	Br	1.117443	-0.053180	-0.490397
Br68	Br	0.975741	-0.483985	-0.323418
H69	H	0.961693	-0.557768	-0.129559
H70	H	1.113613	0.612582	-0.685268
H71	H	1.269790	-0.453320	-0.322704
Br72	Br	0.855094	0.214248	-0.398259
Br73	Br	0.459405	-0.044692	0.083190
Br74	Br	1.107494	0.312121	-0.990913
Br75	Br	0.765526	0.303623	-0.564504
Br76	Br	1.110318	0.640143	-0.850769
Br77	Br	0.595623	-0.066226	0.123242
Br78	Br	1.055870	-0.640793	-0.032008
H79	H	1.018055	-0.201136	-0.319308
Br80	Br	0.629312	0.325168	-0.604553
H81	H	0.423164	0.053616	-0.099599
Br82	Br	0.397792	0.286537	-0.532702
H83	H	1.143132	-0.154348	-0.402143
Br84	Br	1.056267	-0.328786	-0.031198
H85	H	0.378093	0.098595	-0.183222
Br86	Br	1.186837	-0.410682	-0.451130
H87	H	0.806509	-0.007051	0.013120
H88	H	0.962092	-0.302308	-0.129616
Br89	Br	1.309170	-0.145285	-0.371690
H90	H	1.115837	-0.096172	-0.571155
