data_functionalizedCrystal
_audit_creation_method	'MofGen! by Chris Wilmer'
_symmetry_space_group_name_H-M	'P1'
_symmetry_Int_Tables_number	1
_symmetry_cell_setting	triclinic
loop_
_symmetry_equiv_pos_as_xyz
  x,y,z
_cell_length_a	8.559649
_cell_length_b	17.038272
_cell_length_c	7.681481
_cell_angle_alpha	83.842174
_cell_angle_beta	94.913240
_cell_angle_gamma	80.445110
loop_
_atom_site_label
_atom_site_type_symbol
_atom_site_fract_x
_atom_site_fract_y
_atom_site_fract_z
O1	O	2.102567	-0.018069	-0.146400
O2	O	1.642806	0.021983	-0.146410
O3	O	1.869955	-0.111695	-0.146391
O4	O	1.875418	0.115610	-0.146419
O5	O	1.897909	-0.128182	0.146469
O6	O	1.670760	0.005496	0.146450
O7	O	2.130521	-0.034556	0.146460
Zn8	Zn	1.905079	-0.017147	0.192953
Zn9	Zn	1.868248	0.004575	-0.192903
O10	O	1.903372	0.099123	0.146441
C11	C	1.597666	0.016775	0.000018
C12	C	1.421513	0.025810	0.000015
C13	C	1.878962	-0.148769	0.000039
C14	C	1.864132	-0.234673	0.000038
C15	C	2.000285	-0.292946	0.000043
C16	C	1.986340	-0.373660	0.000026
C17	C	1.836242	-0.396101	0.000016
C18	C	1.700079	-0.337821	0.000006
C19	C	1.714024	-0.257108	0.000010
C20	C	1.786975	-0.638906	-0.000009
C21	C	1.773041	-0.719626	-0.000008
C22	C	2.059303	-0.755459	0.000008
C23	C	2.073236	-0.674743	0.000023
C24	C	1.937072	-0.616470	0.000004
C25	C	1.821985	-0.478604	0.000004
C26	C	1.951329	-0.533968	0.000003
C27	C	2.175661	-0.029347	0.000028
C28	C	2.351812	-0.038381	0.000020
C29	C	1.894365	0.136197	0.000008
C30	C	1.909193	0.222102	-0.000003
N31	N	1.930226	-0.031973	0.456289
N32	N	1.843113	0.019394	-0.456239
H33	H	2.122512	-0.274682	0.000061
H34	H	2.195461	-0.656479	0.000031
C35	C	2.116433	-0.509285	0.000017
C36	C	2.179875	-0.467287	0.152100
C37	C	2.344981	-0.442596	0.152123
C38	C	2.446645	-0.459903	0.000062
C39	C	2.383205	-0.501904	-0.152033
C40	C	2.218099	-0.526595	-0.152056
H41	H	2.104616	-0.454472	0.264675
H42	H	2.391942	-0.411504	0.264714
H43	H	2.568866	-0.441626	0.000079
H44	H	2.458464	-0.514719	-0.264608
H45	H	2.171137	-0.557687	-0.264647
C46	C	1.722967	0.090224	0.442175
C47	C	1.621649	0.149570	0.543345
C48	C	1.501501	0.220401	0.441746
C49	C	1.482672	0.231886	0.238979
C50	C	1.583993	0.172538	0.137798
C51	C	1.704141	0.101707	0.239396
H52	H	1.635584	0.141069	0.693456
H53	H	1.426496	0.264334	0.516648
H54	H	1.393731	0.284319	0.163770
H55	H	1.570058	0.181039	-0.012313
H56	H	1.779146	0.057774	0.164494
C57	C	2.050378	-0.102807	0.557882
C58	C	2.069614	-0.114133	0.760651
C59	C	2.189763	-0.184965	0.862243
C60	C	2.290676	-0.244471	0.761067
C61	C	2.271444	-0.233147	0.558287
C62	C	2.151294	-0.162315	0.456695
H63	H	1.994909	-0.070081	0.835557
H64	H	2.204000	-0.193347	1.012355
H65	H	2.379618	-0.296905	0.836272
H66	H	2.346148	-0.277199	0.483381
H67	H	2.137057	-0.153932	0.306583
H68	H	1.426899	-0.100250	0.000019
H69	H	2.097211	-0.421103	0.000034
H70	H	2.170159	-0.802912	0.000021
C71	C	1.656885	-0.503297	0.000006
C72	C	1.555234	-0.485997	0.152082
C73	C	1.390136	-0.510696	0.152078
C74	C	1.326689	-0.552695	-0.000002
C75	C	1.428340	-0.569997	-0.152089
C76	C	1.593438	-0.545299	-0.152085
H77	H	1.602201	-0.454905	0.264671
H78	H	1.314888	-0.497887	0.264664
H79	H	1.204473	-0.570978	-0.000005
H80	H	1.381374	-0.601090	-0.264678
H81	H	1.668687	-0.558107	-0.264671
H82	H	1.346417	0.087683	-0.000002
H83	H	1.650810	-0.737894	0.000013
H84	H	1.577864	-0.356098	-0.000013
H85	H	1.676100	-0.591469	-0.000025
H86	H	1.603153	-0.209662	0.000006
