data_functionalizedCrystal
_audit_creation_method	'MofGen! by Chris Wilmer'
_symmetry_space_group_name_H-M	'P1'
_symmetry_Int_Tables_number	1
_symmetry_cell_setting	triclinic
loop_
_symmetry_equiv_pos_as_xyz
  x,y,z
_cell_length_a	12.594517
_cell_length_b	19.121063
_cell_length_c	12.594510
_cell_angle_alpha	92.400171
_cell_angle_beta	89.977213
_cell_angle_gamma	92.468805
loop_
_atom_site_label
_atom_site_type_symbol
_atom_site_fract_x
_atom_site_fract_y
_atom_site_fract_z
Zn1	Zn	1.609125	-0.279555	-0.619878
Zn2	Zn	2.109125	0.220445	-0.119878
Zn3	Zn	1.601381	-0.397029	-0.449471
Zn4	Zn	2.101381	0.102971	0.050529
Zn5	Zn	1.431121	-0.279597	-0.441910
Zn6	Zn	1.931121	0.220403	0.058090
Zn7	Zn	1.423484	-0.396969	-0.627397
Zn8	Zn	1.923484	0.103031	-0.127397
O9	O	1.516278	-0.338287	-0.534664
O10	O	2.016278	0.161713	-0.034664
O11	O	1.757043	-0.295146	-0.597291
O12	O	2.257043	0.204854	-0.097291
O13	O	1.578751	-0.381494	-0.299525
O14	O	2.078751	0.118506	0.200475
O15	O	1.461171	-0.181307	-0.459206
O16	O	1.961171	0.318693	0.040794
O17	O	1.751353	-0.381454	-0.472094
O18	O	2.251353	0.118546	0.027906
O19	O	1.591949	-0.181277	-0.589959
O20	O	2.091949	0.318723	-0.089959
O21	O	1.453662	-0.295217	-0.293969
O22	O	1.953662	0.204783	0.206031
O23	O	1.281163	-0.295159	-0.466497
O24	O	1.781163	0.204841	0.033503
O25	O	1.448155	-0.381351	-0.775343
O26	O	1.948155	0.118649	-0.275343
O27	O	1.275552	-0.381391	-0.602774
O28	O	1.775552	0.118609	-0.102774
O29	O	1.584544	-0.295087	-0.769819
O30	O	2.084544	0.204913	-0.269819
O31	O	1.571345	-0.495305	-0.479384
O32	O	2.071345	0.004695	0.020616
O33	O	1.440646	-0.495261	-0.610106
O34	O	1.940646	0.004739	-0.110106
C35	C	1.239738	-0.338273	-0.534632
C36	C	1.739738	0.161727	-0.034632
C37	C	1.121431	-0.338284	-0.534644
C38	C	1.621431	0.161716	-0.034644
C39	C	1.504355	-0.520767	-0.546405
C40	C	2.004355	-0.020767	-0.046405
C41	C	1.499352	-0.598832	-0.551463
C42	C	1.999352	-0.098832	-0.051463
C43	C	1.055203	-0.291318	-0.460655
C44	C	1.555203	0.208682	0.039345
C45	C	0.980230	-0.355385	-0.438604
C46	C	1.480230	0.144615	0.061396
C47	C	0.985603	-0.274249	-0.556715
C48	C	1.485603	0.225751	-0.056715
C49	C	1.048014	-0.402385	-0.512545
C50	C	1.548014	0.097615	-0.012545
C51	C	1.053397	-0.321205	-0.630698
C52	C	1.553397	0.178795	-0.130698
C53	C	0.978453	-0.385316	-0.608687
C54	C	1.478453	0.114684	-0.108687
C55	C	1.565103	-0.635507	-0.485836
C56	C	2.065103	-0.135507	0.014164
C57	C	1.560404	-0.708858	-0.490600
C58	C	2.060404	-0.208858	0.009400
C59	C	1.489948	-0.745532	-0.560986
C60	C	1.989948	-0.245532	-0.060986
C61	C	1.424195	-0.708852	-0.626620
C62	C	1.924195	-0.208852	-0.126620
C63	C	1.428900	-0.635503	-0.621861
C64	C	1.928900	-0.135503	-0.121861
C65	C	1.472340	-0.967000	-0.578762
C66	C	1.972340	-0.467000	-0.078762
C67	C	1.467637	-1.040355	-0.583514
C68	C	1.967637	-0.540355	-0.083514
C69	C	1.603849	-1.040356	-0.447495
C70	C	2.103849	-0.540356	0.052505
C71	C	1.608543	-0.967005	-0.442738
C72	C	2.108543	-0.467005	0.057262
C73	C	1.542794	-0.930331	-0.508376
C74	C	2.042794	-0.430331	-0.008376
C75	C	1.485141	-0.820509	-0.565855
C76	C	1.985141	-0.320509	-0.065855
C77	C	1.547607	-0.855356	-0.503512
C78	C	2.047607	-0.355356	-0.003512
C79	C	1.793898	-0.338302	-0.534697
C80	C	2.293898	0.161698	-0.034697
C81	C	1.912203	-0.338308	-0.534711
C82	C	2.412203	0.161692	-0.034711
C83	C	1.516361	-0.338208	-0.812280
C84	C	2.016361	0.161792	-0.312280
C85	C	1.516397	-0.338174	-0.930583
C86	C	2.016397	0.161826	-0.430583
C87	C	1.528275	-0.155096	-0.522900
C88	C	2.028275	0.344904	-0.022900
C89	C	1.533388	-0.077030	-0.517887
C90	C	2.033388	0.422970	-0.017887
C91	C	1.590605	-0.291241	-1.067594
C92	C	2.090605	0.208759	-0.567594
C93	C	1.612430	-0.355328	-1.000904
C94	C	2.112430	0.144672	-0.500904
C95	C	1.494619	-0.274095	-0.995702
C96	C	1.994619	0.225905	-0.495702
C97	C	1.538316	-0.402273	-1.074679
C98	C	2.038316	0.097727	-0.574679
C99	C	1.420462	-0.320996	-1.069481
C100	C	1.920462	0.179004	-0.569481
C101	C	1.442247	-0.385127	-1.002825
C102	C	1.942247	0.114873	-0.502825
C103	C	1.516259	-0.338316	-0.258125
C104	C	2.016259	0.161684	0.241875
C105	C	1.516442	-0.338152	-0.139809
C106	C	2.016442	0.161848	0.360191
H107	H	1.088800	-0.251639	-0.398013
H108	H	1.588800	0.248361	0.101987
H109	H	1.410276	-1.070213	-0.640850
H110	H	1.910276	-0.570213	-0.140850
H111	H	1.418802	-0.937146	-0.632206
H112	H	1.918802	-0.437146	-0.132206
F113	F	1.349216	-0.747886	-0.701537
F114	F	1.849216	-0.247886	-0.201537
H115	H	0.948130	-0.369846	-0.357402
H116	H	1.448130	0.130154	0.142598
H117	H	1.653384	-0.251610	-1.096134
H118	H	2.153384	0.248390	-0.596134
H119	H	1.075436	-0.456565	-0.493815
H120	H	1.575436	0.043435	0.006185
H121	H	1.379508	-0.424853	-0.974488
H122	H	1.879508	0.075147	-0.474488
H123	H	1.622471	-0.605652	-0.428516
H124	H	2.122471	-0.105652	0.071484
F125	F	0.934784	-0.437301	-0.690514
F126	F	1.434784	0.062699	-0.190514
H127	H	1.613945	-0.738716	-0.437159
H128	H	2.113945	-0.238716	0.062841
F129	F	1.410158	-0.859547	-0.640762
F130	F	1.910158	-0.359547	-0.140762
H131	H	1.693578	-0.369851	-0.970742
H132	H	2.193578	0.130149	-0.470742
F133	F	1.314428	-0.301987	-1.108935
F134	F	1.814428	0.198013	-0.608935
H135	H	1.665914	-0.937146	-0.385424
H136	H	2.165914	-0.437146	0.114576
F137	F	0.949583	-0.203454	-0.581078
F138	F	1.449583	0.296546	-0.081078
H139	H	1.085524	-0.306725	-0.711875
H140	H	1.585524	0.193275	-0.211875
F141	F	1.470515	-0.203276	-0.950532
F142	F	1.970515	0.296724	-0.450532
H143	H	1.375360	-0.605642	-0.675303
H144	H	1.875360	-0.105642	-0.175303
F145	F	1.673824	-1.079392	-0.377648
F146	F	2.173824	-0.579392	0.122352
H147	H	1.556874	-0.456466	-1.109106
H148	H	2.056874	0.043534	-0.609106
F149	F	1.622593	-0.816323	-0.428609
F150	F	2.122593	-0.316323	0.071391
