data_functionalizedCrystal
_audit_creation_method	'MofGen! by Chris Wilmer'
_symmetry_space_group_name_H-M	'P1'
_symmetry_Int_Tables_number	1
_symmetry_cell_setting	triclinic
loop_
_symmetry_equiv_pos_as_xyz
  x,y,z
_cell_length_a	12.759401
_cell_length_b	29.839131
_cell_length_c	12.759393
_cell_angle_alpha	90.036816
_cell_angle_beta	90.019676
_cell_angle_gamma	90.041847
loop_
_atom_site_label
_atom_site_type_symbol
_atom_site_fract_x
_atom_site_fract_y
_atom_site_fract_z
Zn1	Zn	1.606071	-0.178827	0.593939
Zn2	Zn	1.605880	-0.253964	0.418239
Zn3	Zn	1.430370	-0.178849	0.418278
Zn4	Zn	1.430280	-0.253931	0.593880
O5	O	1.518150	-0.216392	0.506084
O6	O	1.753067	-0.188798	0.570640
O7	O	1.582556	-0.244023	0.271223
O8	O	1.453795	-0.115979	0.441620
O9	O	1.752927	-0.244001	0.441554
O10	O	1.582882	-0.115962	0.570677
O11	O	1.453610	-0.188836	0.271251
O12	O	1.283337	-0.188804	0.441563
O13	O	1.453641	-0.243945	0.740909
O14	O	1.283271	-0.243967	0.570578
O15	O	1.582794	-0.188766	0.740952
O16	O	1.582469	-0.316826	0.441498
O17	O	1.453456	-0.316802	0.570541
C18	C	1.245183	-0.216385	0.506069
C19	C	1.128406	-0.216392	0.506088
C20	C	1.073618	-0.187700	0.573406
C21	C	0.963894	-0.187705	0.573413
C22	C	0.963756	-0.245097	0.438780
C23	C	1.073478	-0.245090	0.438769
C24	C	1.517961	-0.333115	0.506032
C25	C	1.517976	-0.383049	0.506045
C26	C	1.585450	-0.692693	0.438990
C27	C	1.585579	-0.880366	0.439030
O28	O	1.642798	-0.904630	0.381978
N29	N	1.518368	-0.903834	0.506163
C30	C	1.451125	-0.880382	0.573295
O31	O	1.393968	-0.904650	0.630405
C32	C	1.451001	-0.692710	0.573259
C33	C	1.518209	-0.669244	0.506114
C34	C	1.652653	-0.669226	0.371851
C35	C	1.652616	-0.622311	0.371838
C36	C	1.585375	-0.598862	0.438962
C37	C	1.518172	-0.622328	0.506101
C38	C	1.383764	-0.669258	0.640396
C39	C	1.383741	-0.622337	0.640383
C40	C	1.450949	-0.598871	0.573238
C41	C	1.450895	-0.551964	0.573212
N42	N	1.518106	-0.528495	0.506079
C43	C	1.585346	-0.551944	0.438954
C44	C	1.451193	-0.978913	0.573308
C45	C	1.451223	-1.025830	0.573316
C46	C	1.585679	-1.025811	0.439052
C47	C	1.585643	-0.978892	0.439040
C48	C	1.518404	-0.955444	0.506175
C49	C	1.585262	-0.453418	0.438930
C50	C	1.585216	-0.406499	0.438920
C51	C	1.450764	-0.406522	0.573187
C52	C	1.450806	-0.453438	0.573194
C53	C	1.518064	-0.476885	0.506063
O54	O	1.393715	-0.527670	0.630243
O55	O	1.642510	-0.527668	0.381870
C56	C	1.585487	-0.739608	0.439003
C57	C	1.518283	-0.763075	0.506142
C58	C	1.451043	-0.739625	0.573266
C59	C	1.518313	-0.809992	0.506149
C60	C	1.585553	-0.833441	0.439025
C61	C	1.652764	-0.809973	0.371892
C62	C	1.652727	-0.763057	0.371878
C63	C	1.383832	-0.763094	0.640399
C64	C	1.383874	-0.810010	0.640407
C65	C	1.451114	-0.833459	0.573282
C66	C	1.792184	-0.216401	0.506099
C67	C	1.908960	-0.216404	0.506106
C68	C	1.518229	-0.216349	0.780117
C69	C	1.518263	-0.216331	0.896894
C70	C	1.518370	-0.099214	0.506159
C71	C	1.518463	-0.049280	0.506191
C72	C	1.518133	-0.216403	0.233117
C73	C	1.518303	-0.216295	0.116340
C74	C	1.585518	-0.187595	0.951780
C75	C	1.585535	-0.187575	1.061504
C76	C	1.451040	-0.245032	1.061447
C77	C	1.451018	-0.245049	0.951725
H78	H	1.639945	-0.387394	0.384239
H79	H	1.118088	-0.268455	0.383944
H80	H	1.396485	-1.044933	0.627982
O81	O	1.385572	-0.272902	0.898355
C82	C	1.317770	-0.247331	0.834876
H83	H	1.311355	-0.211943	0.867968
H84	H	1.236885	-0.263576	0.833605
H85	H	1.350243	-0.245795	0.751727
H86	H	0.919021	-0.268463	0.383973
H87	H	1.640032	-0.472503	0.384268
H88	H	0.919290	-0.164340	0.628229
H89	H	1.396015	-0.387423	0.627837
O90	O	1.717960	-0.599469	0.306767
C91	C	1.785788	-0.572291	0.366638
H92	H	1.748683	-0.565249	0.446220
H93	H	1.799881	-0.539308	0.323844
H94	H	1.863647	-0.590339	0.378262
O95	O	1.718007	-0.691931	0.306539
C96	C	1.777325	-0.661149	0.247309
H97	H	1.734263	-0.627726	0.243648
H98	H	1.788581	-0.674718	0.164536
H99	H	1.857097	-0.656112	0.285846
H100	H	1.640370	-0.959789	0.384365
O101	O	1.650681	-0.159673	0.898403
C102	C	1.590902	-0.130657	0.834969
H103	H	1.511253	-0.146504	0.818506
H104	H	1.633693	-0.124646	0.757824
H105	H	1.579423	-0.097359	0.877281
H106	H	1.396294	-0.268415	1.106103
O107	O	1.718117	-0.740335	0.306625
C108	C	1.777446	-0.771101	0.247371
H109	H	1.781074	-0.804528	0.290424
H110	H	1.860225	-0.757517	0.236231
H111	H	1.739018	-0.776134	0.167547
H112	H	1.640429	-1.044911	0.384397
H113	H	1.396436	-0.959824	0.627980
H114	H	1.640300	-0.164175	1.106187
O115	O	1.718220	-0.832770	0.306851
C116	C	1.786037	-0.859859	0.366765
H117	H	1.792433	-0.845686	0.449513
H118	H	1.866926	-0.860363	0.328870
H119	H	1.753592	-0.895433	0.370361
H120	H	1.329031	-0.688357	0.695068
O121	O	1.318476	-0.599609	0.705747
C122	C	1.341419	-0.611023	0.810480
H123	H	1.381832	-0.645069	0.812694
H124	H	1.265576	-0.612648	0.857532
H125	H	1.395399	-0.584581	0.845903
O126	O	1.126814	-0.159780	0.638826
C127	C	1.054922	-0.134465	0.698262
H128	H	0.976692	-0.132892	0.655241
H129	H	1.086676	-0.099072	0.709621
H130	H	1.043263	-0.150958	0.777984
H131	H	1.396083	-0.472545	0.627872
H132	H	1.329136	-0.829112	0.695083
O133	O	1.318406	-0.740389	0.705636
C134	C	1.259118	-0.771169	0.764902
H135	H	1.255547	-0.804628	0.721870
H136	H	1.176318	-0.757653	0.776025
H137	H	1.297546	-0.776115	0.844734
