data_functionalizedCrystal
_audit_creation_method	'MofGen! by Chris Wilmer'
_symmetry_space_group_name_H-M	'P1'
_symmetry_Int_Tables_number	1
_symmetry_cell_setting	triclinic
loop_
_symmetry_equiv_pos_as_xyz
  x,y,z
_cell_length_a	23.532407
_cell_length_b	12.837942
_cell_length_c	11.295483
_cell_angle_alpha	85.469583
_cell_angle_beta	94.074144
_cell_angle_gamma	88.838809
loop_
_atom_site_label
_atom_site_type_symbol
_atom_site_fract_x
_atom_site_fract_y
_atom_site_fract_z
O1	O	-0.765926	-0.118761	-0.098874
O2	O	-0.601108	-0.136956	-0.098909
O3	O	-0.679862	0.023007	-0.098885
O4	O	-0.687172	-0.278723	-0.098898
O5	O	-0.672943	0.008978	0.099164
O6	O	-0.594189	-0.150984	0.099140
O7	O	-0.759007	-0.132789	0.099175
Cu8	Cu	-0.675967	-0.143167	0.117241
Cu9	Cu	-0.684148	-0.126577	-0.116975
O10	O	-0.680253	-0.292751	0.099151
C11	C	-0.576406	-0.143506	0.000111
C12	C	-0.513110	-0.142112	0.000098
C13	C	-0.673933	0.054588	0.000138
C14	C	-0.666569	0.169589	0.000135
C15	C	-0.783709	-0.126238	0.000152
C16	C	-0.847006	-0.127632	0.000157
C17	C	-0.118935	-0.228040	0.000148
C18	C	-0.059460	-0.226746	0.000156
O19	O	-0.027284	-0.306402	0.000195
N20	N	-0.031377	-0.131648	0.000158
C21	C	-0.062772	-0.037838	0.000165
O22	O	-0.033424	0.043169	0.000168
C23	C	-0.122245	-0.039134	0.000166
C24	C	-0.150325	-0.134237	0.000152
C25	C	-0.147015	-0.323136	0.000135
C26	C	-0.206486	-0.324429	0.000126
C27	C	-0.237876	-0.230626	0.000129
C28	C	-0.209796	-0.135530	0.000142
C29	C	-0.153639	0.054674	0.000181
C30	C	-0.213116	0.053371	0.000183
C31	C	-0.241196	-0.041733	0.000169
C32	C	-0.300657	-0.043021	0.000136
N33	N	-0.328740	-0.138119	0.000134
C34	C	-0.297350	-0.231922	0.000130
C35	C	0.062126	-0.035125	0.000164
C36	C	0.121598	-0.033828	0.000155
C37	C	0.124906	-0.222737	0.000148
C38	C	0.065433	-0.224032	0.000149
C39	C	0.034043	-0.130223	0.000162
C40	C	-0.422243	-0.234630	0.000109
C41	C	-0.481719	-0.235915	0.000095
C42	C	-0.485021	-0.047007	0.000108
C43	C	-0.425551	-0.045721	0.000116
C44	C	-0.394162	-0.139542	0.000121
O45	O	-0.332870	0.036593	0.000101
O46	O	-0.326704	-0.312917	0.000142
C47	C	-0.686182	-0.324332	0.000125
C48	C	-0.693546	-0.439333	0.000121
C49	C	-0.755103	0.411460	0.000129
C50	C	-0.748186	0.519515	0.000125
C51	C	-0.645820	0.493756	0.000116
C52	C	-0.652737	0.385702	0.000119
C53	C	-0.707380	0.344557	0.000128
C54	C	-0.714296	0.236500	0.000140
C55	C	-0.611930	0.210745	0.000122
C56	C	-0.605013	0.318799	0.000118
N57	N	-0.670216	-0.154835	0.281975
N58	N	-0.689903	-0.114901	-0.281709
C59	C	-0.731295	-0.030851	0.531283
C60	C	-0.726953	-0.039676	0.655946
C61	C	-0.657190	-0.181304	0.655965
C62	C	-0.661531	-0.172479	0.531302
C63	C	-0.698585	-0.097251	0.468966
C64	C	-0.702929	-0.088432	0.344301
C65	C	-0.633163	-0.230055	0.344323
C66	C	-0.628822	-0.238879	0.468985
H67	H	-0.504579	-0.313363	0.000082
C68	C	0.159444	-0.325920	0.000154
H69	H	0.198885	-0.311521	0.000168
H70	H	0.147973	-0.360057	-0.068909
H71	H	0.152788	-0.369830	0.069228
C72	C	-0.585719	0.539029	0.000106
H73	H	-0.588437	0.612964	0.000110
H74	H	-0.568231	0.520916	-0.068956
H75	H	-0.563413	0.511146	0.069181
C76	C	-0.800681	0.593103	0.000133
H77	H	-0.834213	0.553119	0.000147
H78	H	-0.802522	0.640682	-0.068930
H79	H	-0.797699	0.630899	0.069207
H80	H	-0.606531	-0.284125	0.293570
C81	C	-0.559433	0.137150	0.000111
H82	H	-0.571377	0.066904	0.000106
H83	H	-0.534856	0.144680	0.069168
H84	H	-0.539684	0.154457	-0.068968
H85	H	-0.396693	-0.311028	0.000117
C86	C	-0.519556	0.056171	0.000105
H87	H	-0.494318	0.113001	0.000103
H88	H	-0.540419	0.054695	0.069165
H89	H	-0.545232	0.064479	-0.068971
H90	H	-0.598651	-0.300126	0.519753
C91	C	0.152479	0.070786	0.000159
H92	H	0.125261	0.126461	0.000168
H93	H	0.173205	0.080117	-0.068900
H94	H	0.178017	0.070328	0.069237
H95	H	-0.560525	0.352315	0.000107
C96	C	-0.247644	0.156561	0.000195
H97	H	-0.287086	0.142176	0.000198
H98	H	-0.240983	0.200477	-0.068862
H99	H	-0.236167	0.190681	0.069275
C100	C	-0.237365	-0.429045	0.000133
H101	H	-0.210145	-0.484719	0.000147
H102	H	-0.262908	-0.428603	-0.068926
H103	H	-0.258084	-0.438367	0.069210
C104	C	-0.112494	-0.426328	0.000121
H105	H	-0.137744	-0.483139	0.000105
H106	H	-0.086813	-0.434660	0.069179
H107	H	-0.091639	-0.424857	-0.068957
H108	H	0.042574	-0.301474	0.000144
H109	H	-0.733102	-0.027181	0.293548
C110	C	-0.772053	0.051890	0.462710
H111	H	-0.790911	0.090175	0.517680
H112	H	-0.799461	0.018282	0.414070
H113	H	-0.750928	0.098275	0.414088
H114	H	-0.402687	0.031721	0.000110
C115	C	-0.762933	0.033361	0.724497
H116	H	-0.755038	0.017339	0.807670
H117	H	-0.802243	0.023915	0.704057
H118	H	-0.753704	0.103898	0.704068
C119	C	0.027602	0.068073	0.000153
H120	H	0.052848	0.124890	0.000142
H121	H	0.006739	0.066618	0.069213
H122	H	0.001926	0.076386	-0.068924
C123	C	-0.122763	0.159289	0.000213
H124	H	-0.149983	0.214958	0.000233
H125	H	-0.102037	0.168635	-0.068843
H126	H	-0.097227	0.158822	0.069294
H127	H	-0.758789	0.203002	0.000151
C128	C	-0.616433	-0.264043	0.724548
H129	H	-0.618536	-0.259787	0.807717
H130	H	-0.578546	-0.251703	0.704127
H131	H	-0.627082	-0.331691	0.704124
H132	H	-0.799595	0.377959	0.000147
