data_functionalizedCrystal
_audit_creation_method	'MofGen! by Chris Wilmer'
_symmetry_space_group_name_H-M	'P1'
_symmetry_Int_Tables_number	1
_symmetry_cell_setting	triclinic
loop_
_symmetry_equiv_pos_as_xyz
  x,y,z
_cell_length_a	13.339070
_cell_length_b	17.038272
_cell_length_c	11.804365
_cell_angle_alpha	102.699962
_cell_angle_beta	74.875130
_cell_angle_gamma	103.370425
loop_
_atom_site_label
_atom_site_type_symbol
_atom_site_fract_x
_atom_site_fract_y
_atom_site_fract_z
O1	O	1.396109	0.387847	-0.099077
O2	O	1.097069	0.335421	-0.099069
O3	O	1.244810	0.247434	-0.099063
O4	O	1.248368	0.475834	-0.099082
O5	O	1.205912	0.270565	0.098991
O6	O	1.058171	0.358552	0.098986
O7	O	1.357212	0.410978	0.098978
Cu8	Cu	1.204140	0.386877	0.117066
Cu9	Cu	1.250141	0.359522	-0.117157
O10	O	1.209471	0.498965	0.098972
C11	C	1.039168	0.338131	-0.000041
C12	C	0.924594	0.311734	-0.000037
C13	C	0.577473	0.516981	-0.000073
C14	C	0.685121	0.541784	-0.000080
C15	C	0.744995	0.484274	-0.000069
C16	C	0.697209	0.401956	-0.000052
C17	C	0.589551	0.377149	-0.000054
C18	C	0.757074	0.344442	-0.000050
C19	C	0.709288	0.262124	-0.000033
C20	C	0.601641	0.237322	-0.000034
C21	C	0.541767	0.294832	-0.000046
C22	C	0.864731	0.369249	-0.000048
C23	C	0.876810	0.229417	-0.000029
C24	C	0.769161	0.204614	-0.000022
C25	C	1.222128	0.229169	-0.000036
C26	C	1.212483	0.140282	-0.000036
C27	C	1.301040	0.109396	-0.000037
C28	C	1.291973	0.025875	-0.000048
C29	C	1.194346	-0.026758	-0.000050
C30	C	1.105783	0.004133	-0.000052
C31	C	1.114853	0.087651	-0.000050
C32	C	1.162306	-0.279475	-0.000065
C33	C	1.153243	-0.362998	-0.000064
C34	C	1.339434	-0.341250	-0.000063
C35	C	1.348493	-0.257730	-0.000053
C36	C	1.259932	-0.226848	-0.000062
C37	C	1.185075	-0.112129	-0.000057
C38	C	1.269205	-0.141478	-0.000063
C39	C	1.415113	0.408268	-0.000053
C40	C	1.529688	0.434664	-0.000064
C41	C	1.232153	0.517230	-0.000058
C42	C	1.241800	0.606116	-0.000065
N43	N	1.171793	0.406119	0.281805
N44	N	1.282495	0.340276	-0.281896
C45	C	1.360170	0.294055	0.655761
C46	C	1.384639	0.279495	0.531100
C47	C	1.331430	0.311149	0.468770
C48	C	1.253747	0.357367	0.531113
C49	C	1.229282	0.371933	0.655786
C50	C	1.200541	0.389028	0.468796
C51	C	1.122858	0.435245	0.531139
C52	C	1.098396	0.449809	0.655799
C53	C	1.151606	0.418154	0.718129
C54	C	1.225006	0.374461	0.344123
C55	C	1.094118	0.452340	0.344148
C56	C	1.069649	0.466900	0.468809
H57	H	0.832647	0.504473	-0.000077
H58	H	1.348697	-0.098624	-0.000088
H59	H	1.006398	0.504531	0.519584
C60	C	0.576334	0.657680	-0.000111
C61	C	0.511664	0.580188	-0.000098
H62	H	0.535705	0.696702	-0.000137
H63	H	0.604998	0.672520	0.068956
H64	H	0.632149	0.656373	-0.069176
H65	H	0.455853	0.581494	0.068972
H66	H	0.482983	0.565345	-0.069173
H67	H	1.073736	-0.405849	-0.000046
H68	H	0.730241	0.137588	-0.000018
H69	H	1.050791	0.478118	0.293400
C70	C	1.401298	0.173777	0.694165
C71	C	1.418644	0.259260	0.724278
H72	H	1.437404	0.152295	0.736463
H73	H	1.327749	0.152569	0.714611
H74	H	1.426995	0.158494	0.610996
H75	H	1.392939	0.274543	0.807446
H76	H	1.492208	0.280476	0.703840
H77	H	1.288256	0.336832	0.293374
C78	C	0.977352	-0.309369	-0.000039
C79	C	1.064955	-0.245533	-0.000052
H80	H	0.917248	-0.288410	-0.000020
H81	H	0.991248	-0.349552	-0.069104
H82	H	0.964139	-0.333429	0.069029
H83	H	1.078173	-0.221477	-0.069125
H84	H	1.051058	-0.205336	0.069019
H85	H	0.562740	0.170292	-0.000034
H86	H	0.454110	0.274641	-0.000040
H87	H	0.903626	0.436273	-0.000057
H88	H	0.724022	0.608806	-0.000103
H89	H	1.105587	-0.154992	-0.000056
H90	H	1.042740	0.112796	-0.000049
H91	H	0.925560	0.182587	-0.000025
H92	H	1.380536	0.152246	-0.000029
H93	H	1.364085	0.000733	-0.000047
H94	H	1.026295	-0.038729	-0.000061
H95	H	1.427991	-0.214881	-0.000052
C96	C	1.393728	0.369873	0.290174
C97	C	1.358326	0.295143	0.331741
H98	H	1.410339	0.359985	0.205574
H99	H	1.339850	0.401918	0.318375
H100	H	1.455017	0.398389	0.318370
H101	H	1.297032	0.266629	0.303552
H102	H	1.412208	0.263085	0.303528
H103	H	1.447888	0.241866	0.480345
C104	C	1.018047	0.401822	0.896734
C105	C	1.124711	0.434155	0.855163
H106	H	1.001449	0.411695	0.981334
H107	H	0.975252	0.427298	0.868550
H108	H	1.005107	0.344541	0.868524
H109	H	1.137649	0.491438	0.883366
H110	H	1.167519	0.408681	0.883359
H111	H	1.411536	-0.366404	-0.000058
H112	H	1.035151	0.487449	0.706559
