data_functionalizedCrystal
_audit_creation_method	'MofGen! by Chris Wilmer'
_symmetry_space_group_name_H-M	'P1'
_symmetry_Int_Tables_number	1
_symmetry_cell_setting	triclinic
loop_
_symmetry_equiv_pos_as_xyz
  x,y,z
_cell_length_a	14.908571
_cell_length_b	13.897448
_cell_length_c	14.908308
_cell_angle_alpha	86.730337
_cell_angle_beta	90.175053
_cell_angle_gamma	93.284087
loop_
_atom_site_label
_atom_site_type_symbol
_atom_site_fract_x
_atom_site_fract_y
_atom_site_fract_z
Zn1	Zn	1.345301	0.503381	-0.587603
Zn2	Zn	1.353883	0.655952	-0.437249
Zn3	Zn	1.203616	0.484854	-0.428600
Zn4	Zn	1.194911	0.654806	-0.578901
O5	O	1.274428	0.574749	-0.508088
O6	O	1.472266	0.531854	-0.574919
O7	O	1.341185	0.625982	-0.310277
O8	O	1.222463	0.352335	-0.449714
O9	O	1.478571	0.643947	-0.464455
O10	O	1.326558	0.365947	-0.566532
O11	O	1.230784	0.500277	-0.303922
O12	O	1.076636	0.499165	-0.441276
O13	O	1.207626	0.641994	-0.705880
O14	O	1.070240	0.624029	-0.551701
O15	O	1.318117	0.530742	-0.712273
O16	O	1.332744	0.790777	-0.456018
O17	O	1.215948	0.789936	-0.560088
C18	C	1.040812	0.559463	-0.494606
C19	C	0.940869	0.552948	-0.488860
C20	C	0.746463	0.670908	-0.592894
C21	C	0.652558	0.664790	-0.587498
C22	C	0.659150	0.534590	-0.472677
C23	C	0.753056	0.540708	-0.478073
C24	C	0.796709	0.608871	-0.538183
C25	C	0.890617	0.614993	-0.543573
C26	C	0.897208	0.484788	-0.428758
C27	C	0.803302	0.478670	-0.423362
C28	C	1.274356	0.825357	-0.508068
C29	C	1.274405	0.932576	-0.508095
C30	C	1.274490	1.128880	-0.508164
C31	C	1.274440	1.019643	-0.508128
C32	C	1.508956	0.590095	-0.521623
C33	C	1.608898	0.596634	-0.527391
C34	C	1.260943	0.588307	-0.742614
C35	C	1.255197	0.594085	-0.842555
C36	C	1.274516	1.323164	-0.508139
C37	C	1.274532	1.215954	-0.508187
C38	C	1.359450	0.489073	-1.037013
C39	C	1.354054	0.494499	-1.130917
C40	C	1.239003	0.610355	-1.124267
C41	C	1.244400	0.604930	-1.030363
C42	C	1.304626	0.544288	-0.986740
C43	C	1.310027	0.538868	-0.892835
C44	C	1.194972	0.654719	-0.886187
C45	C	1.189576	0.660145	-0.980090
C46	C	1.287912	0.561177	-0.274477
C47	C	1.293833	0.555139	-0.174547
H48	H	0.926157	0.670495	-0.592516
H49	H	0.938128	0.434274	-0.384206
H50	H	0.623591	0.479090	-0.423745
Cl51	Cl	1.422977	0.425081	-1.194115
Cl52	Cl	1.385741	0.462636	-0.837995
H53	H	0.782006	0.726414	-0.641832
H54	H	1.150333	0.699682	-0.845244
Cl55	Cl	0.748415	0.392981	-0.347804
Cl56	Cl	1.113866	0.736375	-1.034940
Cl57	Cl	0.589394	0.742783	-0.656283
Cl58	Cl	1.163290	0.686577	-1.179123
Cl59	Cl	1.435170	0.412851	-0.982170
