data_functionalizedCrystal
_audit_creation_method	'MofGen! by Chris Wilmer'
_symmetry_space_group_name_H-M	'P1'
_symmetry_Int_Tables_number	1
_symmetry_cell_setting	triclinic
loop_
_symmetry_equiv_pos_as_xyz
  x,y,z
_cell_length_a	14.908571
_cell_length_b	13.897448
_cell_length_c	14.908308
_cell_angle_alpha	86.730337
_cell_angle_beta	90.175053
_cell_angle_gamma	93.284087
loop_
_atom_site_label
_atom_site_type_symbol
_atom_site_fract_x
_atom_site_fract_y
_atom_site_fract_z
Zn1	Zn	1.345301	0.503381	-0.587603
Zn2	Zn	1.845301	1.003381	-0.087603
Zn3	Zn	1.353883	0.655952	-0.437249
Zn4	Zn	1.853883	1.155952	0.062751
Zn5	Zn	1.203616	0.484854	-0.428600
Zn6	Zn	1.703616	0.984854	0.071400
Zn7	Zn	1.194911	0.654806	-0.578901
Zn8	Zn	1.694911	1.154806	-0.078901
O9	O	1.274428	0.574749	-0.508088
O10	O	1.774428	1.074749	-0.008088
O11	O	1.472266	0.531854	-0.574919
O12	O	1.972266	1.031854	-0.074919
O13	O	1.341185	0.625982	-0.310277
O14	O	1.841185	1.125982	0.189723
O15	O	1.222463	0.352335	-0.449714
O16	O	1.722463	0.852335	0.050286
O17	O	1.478571	0.643947	-0.464455
O18	O	1.978571	1.143947	0.035545
O19	O	1.326558	0.365947	-0.566532
O20	O	1.826558	0.865947	-0.066532
O21	O	1.230784	0.500277	-0.303922
O22	O	1.730784	1.000277	0.196078
O23	O	1.076636	0.499165	-0.441276
O24	O	1.576636	0.999165	0.058724
O25	O	1.207626	0.641994	-0.705880
O26	O	1.707626	1.141994	-0.205880
O27	O	1.070240	0.624029	-0.551701
O28	O	1.570240	1.124029	-0.051701
O29	O	1.318117	0.530742	-0.712273
O30	O	1.818117	1.030742	-0.212273
O31	O	1.332744	0.790777	-0.456018
O32	O	1.832744	1.290777	0.043982
O33	O	1.215948	0.789936	-0.560088
O34	O	1.715948	1.289936	-0.060088
C35	C	1.040812	0.559463	-0.494606
C36	C	1.540812	1.059463	0.005394
C37	C	0.940869	0.552948	-0.488860
C38	C	1.440869	1.052948	0.011140
C39	C	0.746463	0.670908	-0.592894
C40	C	1.246463	1.170908	-0.092894
C41	C	0.652558	0.664790	-0.587498
C42	C	1.152558	1.164790	-0.087498
C43	C	0.659150	0.534590	-0.472677
C44	C	1.159150	1.034590	0.027323
C45	C	0.753056	0.540708	-0.478073
C46	C	1.253056	1.040708	0.021927
C47	C	0.796709	0.608871	-0.538183
C48	C	1.296709	1.108871	-0.038183
C49	C	0.890617	0.614993	-0.543573
C50	C	1.390617	1.114993	-0.043573
C51	C	0.897208	0.484788	-0.428758
C52	C	1.397208	0.984788	0.071242
C53	C	0.803302	0.478670	-0.423362
C54	C	1.303302	0.978670	0.076638
C55	C	1.274356	0.825357	-0.508068
C56	C	1.774356	1.325357	-0.008068
C57	C	1.274405	0.932576	-0.508095
C58	C	1.774405	1.432576	-0.008095
C59	C	1.274490	1.128880	-0.508164
C60	C	1.774490	1.628880	-0.008164
C61	C	1.274440	1.019643	-0.508128
C62	C	1.774440	1.519643	-0.008128
C63	C	1.508956	0.590095	-0.521623
C64	C	2.008956	1.090095	-0.021623
C65	C	1.608898	0.596634	-0.527391
C66	C	2.108898	1.096634	-0.027391
C67	C	1.260943	0.588307	-0.742614
C68	C	1.760943	1.088307	-0.242614
C69	C	1.255197	0.594085	-0.842555
C70	C	1.755197	1.094085	-0.342555
C71	C	1.274516	1.323164	-0.508139
C72	C	1.774516	1.823164	-0.008139
C73	C	1.274532	1.215954	-0.508187
C74	C	1.774532	1.715954	-0.008187
C75	C	1.359450	0.489073	-1.037013
C76	C	1.859450	0.989073	-0.537013
C77	C	1.354054	0.494499	-1.130917
C78	C	1.854054	0.994499	-0.630917
C79	C	1.239003	0.610355	-1.124267
C80	C	1.739003	1.110355	-0.624267
C81	C	1.244400	0.604930	-1.030363
C82	C	1.744400	1.104930	-0.530363
C83	C	1.304626	0.544288	-0.986740
C84	C	1.804626	1.044288	-0.486740
C85	C	1.310027	0.538868	-0.892835
C86	C	1.810027	1.038868	-0.392835
C87	C	1.194972	0.654719	-0.886187
C88	C	1.694972	1.154719	-0.386187
C89	C	1.189576	0.660145	-0.980090
C90	C	1.689576	1.160145	-0.480090
C91	C	1.287912	0.561177	-0.274477
C92	C	1.787912	1.061177	0.225523
C93	C	1.293833	0.555139	-0.174547
C94	C	1.793833	1.055139	0.325453
H95	H	0.926157	0.670495	-0.592516
H96	H	1.426157	1.170495	-0.092516
H97	H	0.938128	0.434274	-0.384206
H98	H	1.438128	0.934274	0.115794
H99	H	0.623591	0.479090	-0.423745
H100	H	1.123591	0.979090	0.076255
Cl101	Cl	1.422977	0.425081	-1.194115
Cl102	Cl	1.922977	0.925081	-0.694115
Cl103	Cl	1.385741	0.462636	-0.837995
Cl104	Cl	1.885741	0.962636	-0.337995
H105	H	0.782006	0.726414	-0.641832
H106	H	1.282006	1.226414	-0.141832
H107	H	1.150333	0.699682	-0.845244
H108	H	1.650333	1.199682	-0.345244
Cl109	Cl	0.748415	0.392981	-0.347804
Cl110	Cl	1.248415	0.892981	0.152196
Cl111	Cl	1.113866	0.736375	-1.034940
Cl112	Cl	1.613866	1.236375	-0.534940
Cl113	Cl	0.589394	0.742783	-0.656283
Cl114	Cl	1.089394	1.242783	-0.156283
Cl115	Cl	1.163290	0.686577	-1.179123
Cl116	Cl	1.663290	1.186577	-0.679123
Cl117	Cl	1.435170	0.412851	-0.982170
Cl118	Cl	1.935170	0.912851	-0.482170
