data_functionalizedCrystal
_audit_creation_method	'MofGen! by Chris Wilmer'
_symmetry_space_group_name_H-M	'P1'
_symmetry_Int_Tables_number	1
_symmetry_cell_setting	triclinic
loop_
_symmetry_equiv_pos_as_xyz
  x,y,z
_cell_length_a	18.215407
_cell_length_b	13.897447
_cell_length_c	18.215399
_cell_angle_alpha	89.974944
_cell_angle_beta	89.983101
_cell_angle_gamma	90.016989
loop_
_atom_site_label
_atom_site_type_symbol
_atom_site_fract_x
_atom_site_fract_y
_atom_site_fract_z
Zn1	Zn	1.125099	-0.384090	-0.416073
Zn2	Zn	1.375099	-0.134090	-0.166073
Zn3	Zn	1.625099	0.115910	0.083927
Zn4	Zn	1.875099	0.365910	0.333927
Zn5	Zn	1.125019	-0.545400	-0.293013
Zn6	Zn	1.375019	-0.295400	-0.043013
Zn7	Zn	1.625019	-0.045400	0.206987
Zn8	Zn	1.875019	0.204600	0.456987
Zn9	Zn	1.002032	-0.384113	-0.293027
Zn10	Zn	1.252032	-0.134113	-0.043027
Zn11	Zn	1.502032	0.115887	0.206973
Zn12	Zn	1.752032	0.365887	0.456973
Zn13	Zn	1.002009	-0.545338	-0.416044
Zn14	Zn	1.252009	-0.295338	-0.166044
Zn15	Zn	1.502009	-0.045338	0.083956
Zn16	Zn	1.752009	0.204662	0.333956
O17	O	1.063540	-0.464735	-0.354539
O18	O	1.313540	-0.214735	-0.104539
O19	O	1.563540	0.035265	0.145461
O20	O	1.813540	0.285265	0.395461
O21	O	1.228073	-0.405505	-0.399755
O22	O	1.478073	-0.155505	-0.149755
O23	O	1.728073	0.094495	0.100245
O24	O	1.978073	0.344495	0.350245
O25	O	1.108681	-0.524041	-0.190030
O26	O	1.358681	-0.274041	0.059970
O27	O	1.608681	-0.024041	0.309970
O28	O	1.858681	0.225959	0.559970
O29	O	1.018400	-0.249129	-0.309367
O30	O	1.268400	0.000871	-0.059367
O31	O	1.518400	0.250871	0.190633
O32	O	1.768400	0.500871	0.440633
O33	O	1.228014	-0.524018	-0.309343
O34	O	1.478014	-0.274018	-0.059343
O35	O	1.728014	-0.024018	0.190657
O36	O	1.978014	0.225982	0.440657
O37	O	1.108817	-0.249112	-0.399769
O38	O	1.358817	0.000888	-0.149769
O39	O	1.608817	0.250888	0.100231
O40	O	1.858817	0.500888	0.350231
O41	O	1.018322	-0.405544	-0.190041
O42	O	1.268322	-0.155544	0.059959
O43	O	1.518322	0.094456	0.309959
O44	O	1.768322	0.344456	0.559959
O45	O	0.899045	-0.405484	-0.309339
O46	O	1.149045	-0.155484	-0.059339
O47	O	1.399045	0.094516	0.190661
O48	O	1.649045	0.344516	0.440661
O49	O	1.018361	-0.523912	-0.519032
O50	O	1.268361	-0.273912	-0.269032
O51	O	1.518361	-0.023912	-0.019032
O52	O	1.768361	0.226088	0.230968
O53	O	0.899028	-0.523935	-0.399719
O54	O	1.149028	-0.273935	-0.149719
O55	O	1.399028	-0.023935	0.100281
O56	O	1.649028	0.226065	0.350281
O57	O	1.108795	-0.405444	-0.519054
O58	O	1.358795	-0.155444	-0.269054
O59	O	1.608795	0.094556	-0.019054
O60	O	1.858795	0.344556	0.230946
O61	O	1.108659	-0.680373	-0.309315
O62	O	1.358659	-0.430373	-0.059315
O63	O	1.608659	-0.180373	0.190685
O64	O	1.858659	0.069627	0.440685
O65	O	1.018284	-0.680328	-0.399706
O66	O	1.268284	-0.430328	-0.149706
O67	O	1.518284	-0.180328	0.100294
O68	O	1.768284	0.069672	0.350294
C69	C	0.872334	-0.464706	-0.354528
C70	C	1.122334	-0.214706	-0.104528
C71	C	1.372334	0.035294	0.145472
C72	C	1.622334	0.285294	0.395472
C73	C	0.790535	-0.464716	-0.354541
C74	C	1.040535	-0.214716	-0.104541
C75	C	1.290535	0.035284	0.145459
C76	C	1.540535	0.285284	0.395459
C77	C	1.063480	-0.715350	-0.354522
C78	C	1.313480	-0.465350	-0.104522
C79	C	1.563480	-0.215350	0.145478
C80	C	1.813480	0.034650	0.395478
C81	C	1.063522	-0.822564	-0.354539
C82	C	1.313522	-0.572564	-0.104539
C83	C	1.563522	-0.322564	0.145461
C84	C	1.813522	-0.072564	0.395461
C85	C	0.525488	-0.526514	-0.401536
C86	C	0.775488	-0.276514	-0.151536
C87	C	1.025488	-0.026514	0.098464
C88	C	1.275488	0.223486	0.348464
C89	C	0.602347	-0.526506	-0.401532
C90	C	0.852347	-0.276506	-0.151532
C91	C	1.102347	-0.026506	0.098468
C92	C	1.352347	0.223494	0.348468
C93	C	0.602333	-0.402978	-0.307556
C94	C	0.852333	-0.152978	-0.057556
C95	C	1.102333	0.097022	0.192444
C96	C	1.352333	0.347022	0.442444
C97	C	0.525476	-0.402992	-0.307556
C98	C	0.775476	-0.152992	-0.057556
C99	C	1.025476	0.097008	0.192444
C100	C	1.275476	0.347008	0.442444
C101	C	0.487055	-0.464758	-0.354550
C102	C	0.737055	-0.214758	-0.104550
C103	C	0.987055	0.035242	0.145450
C104	C	1.237055	0.285242	0.395450
C105	C	0.640771	-0.464736	-0.354546
C106	C	0.890771	-0.214736	-0.104546
C107	C	1.140771	0.035264	0.145454
C108	C	1.390771	0.285264	0.395454
C109	C	0.724105	-0.464727	-0.354542
C110	C	0.974105	-0.214727	-0.104542
C111	C	1.224105	0.035273	0.145458
C112	C	1.474105	0.285273	0.395458
C113	C	0.403716	-0.464769	-0.354554
C114	C	0.653716	-0.214769	-0.104554
C115	C	0.903716	0.035231	0.145446
C116	C	1.153716	0.285231	0.395446
C117	C	1.063557	-0.909633	-0.354556
C118	C	1.313557	-0.659633	-0.104556
C119	C	1.563557	-0.409633	0.145444
C120	C	1.813557	-0.159633	0.395444
C121	C	1.063609	-1.018866	-0.354575
C122	C	1.313609	-0.768866	-0.104575
C123	C	1.563609	-0.518866	0.145425
C124	C	1.813609	-0.268866	0.395425
C125	C	1.255493	-0.464766	-0.354551
C126	C	1.505493	-0.214766	-0.104551
C127	C	1.755493	0.035234	0.145449
C128	C	2.005493	0.285234	0.395449
C129	C	1.337292	-0.464779	-0.354556
C130	C	1.587292	-0.214779	-0.104556
C131	C	1.837292	0.035221	0.145444
C132	C	2.087292	0.285221	0.395444
C133	C	1.063585	-0.464669	-0.546492
C134	C	1.313585	-0.214669	-0.296492
C135	C	1.563585	0.035331	-0.046492
C136	C	1.813585	0.285331	0.203508
C137	C	1.063604	-0.464640	-0.628291
C138	C	1.313604	-0.214640	-0.378291
C139	C	1.563604	0.035360	-0.128291
C140	C	1.813604	0.285360	0.121709
C141	C	1.063620	-0.213142	-0.354572
C142	C	1.313620	0.036858	-0.104572
C143	C	1.563620	0.286858	0.145428
C144	C	1.813620	0.536858	0.395428
C145	C	1.063654	-0.105928	-0.354587
C146	C	1.313654	0.144072	-0.104587
C147	C	1.563654	0.394072	0.145413
C148	C	1.813654	0.644072	0.395413
C149	C	1.110710	-0.402897	-0.816497
C150	C	1.360710	-0.152897	-0.566497
C151	C	1.610710	0.097103	-0.316497
C152	C	1.860710	0.347103	-0.066497
C153	C	1.110718	-0.402868	-0.893356
C154	C	1.360718	-0.152868	-0.643356
C155	C	1.610718	0.097132	-0.393356
C156	C	1.860718	0.347132	-0.143356
C157	C	1.016550	-0.526235	-0.893323
C158	C	1.266550	-0.276235	-0.643323
C159	C	1.516550	-0.026235	-0.393323
C160	C	1.766550	0.223765	-0.143323
C161	C	1.016538	-0.526258	-0.816465
C162	C	1.266538	-0.276258	-0.566465
C163	C	1.516538	-0.026258	-0.316465
C164	C	1.766538	0.223742	-0.066465
C165	C	1.063622	-0.464590	-0.778055
C166	C	1.313622	-0.214590	-0.528055
C167	C	1.563622	0.035410	-0.278055
C168	C	1.813622	0.285410	-0.028055
C169	C	1.063643	-0.464539	-0.931771
C170	C	1.313643	-0.214539	-0.681771
C171	C	1.563643	0.035461	-0.431771
C172	C	1.813643	0.285461	-0.181771
C173	C	1.063652	-0.464509	-1.015105
C174	C	1.313652	-0.214509	-0.765105
C175	C	1.563652	0.035491	-0.515105
C176	C	1.813652	0.285491	-0.265105
C177	C	1.063612	-0.464618	-0.694716
C178	C	1.313612	-0.214618	-0.444716
C179	C	1.563612	0.035382	-0.194716
C180	C	1.813612	0.285382	0.055284
C181	C	1.063538	-0.464732	-0.163333
C182	C	1.313538	-0.214732	0.086667
C183	C	1.563538	0.035268	0.336667
C184	C	1.813538	0.285268	0.586667
C185	C	1.063661	-0.464489	-0.081534
C186	C	1.313661	-0.214489	0.168466
C187	C	1.563661	0.035511	0.418466
C188	C	1.813661	0.285511	0.668466
H189	H	0.633635	-0.576794	-0.439792
H190	H	0.883635	-0.326794	-0.189792
H191	H	1.133635	-0.076794	0.060208
H192	H	1.383635	0.173206	0.310208
H193	H	0.494208	-0.576809	-0.439801
H194	H	0.744208	-0.326809	-0.189801
H195	H	0.994208	-0.076809	0.060199
H196	H	1.244208	0.173191	0.310199
C197	C	0.644598	-0.335032	-0.255873
C198	C	0.894598	-0.085032	-0.005873
C199	C	1.144598	0.164968	0.244127
C200	C	1.394598	0.414968	0.494127
H201	H	0.695877	-0.343860	-0.262607
H202	H	0.945877	-0.093860	-0.012607
H203	H	1.195877	0.156140	0.237393
H204	H	1.445877	0.406140	0.487393
H205	H	0.631988	-0.349067	-0.206408
H206	H	0.881988	-0.099067	0.043592
H207	H	1.131988	0.150933	0.293592
H208	H	1.381988	0.400933	0.543592
H209	H	0.632011	-0.270239	-0.266733
H210	H	0.882011	-0.020239	-0.016733
H211	H	1.132011	0.229761	0.233267
H212	H	1.382011	0.479761	0.483267
H213	H	0.494183	-0.352702	-0.269291
H214	H	0.744183	-0.102702	-0.019291
H215	H	0.994183	0.147298	0.230709
H216	H	1.244183	0.397298	0.480709
C217	C	1.162490	-0.335053	-0.774248
C218	C	1.412490	-0.085053	-0.524248
C219	C	1.662490	0.164947	-0.274248
C220	C	1.912490	0.414947	-0.024248
H221	H	1.190529	-0.298300	-0.808154
H222	H	1.440529	-0.048300	-0.558154
H223	H	1.690529	0.201700	-0.308154
H224	H	1.940529	0.451700	-0.058154
H225	H	1.194543	-0.371956	-0.744262
H226	H	1.444543	-0.121956	-0.494262
H227	H	1.694543	0.128044	-0.244262
H228	H	1.944543	0.378044	0.005738
H229	H	1.134337	-0.293029	-0.744272
H230	H	1.384337	-0.043029	-0.494272
H231	H	1.634337	0.206971	-0.244272
H232	H	1.884337	0.456971	0.005728
C233	C	1.162518	-0.335010	-0.935640
C234	C	1.412518	-0.085010	-0.685640
C235	C	1.662518	0.164990	-0.435640
C236	C	1.912518	0.414990	-0.185640
H237	H	1.190560	-0.298294	-0.901754
H238	H	1.440560	-0.048294	-0.651754
H239	H	1.690560	0.201706	-0.401754
H240	H	1.940560	0.451706	-0.151754
H241	H	1.134387	-0.292967	-0.965625
H242	H	1.384387	-0.042967	-0.715625
H243	H	1.634387	0.207033	-0.465625
H244	H	1.884387	0.457033	-0.215625
H245	H	1.194579	-0.371912	-0.965620
H246	H	1.444579	-0.121912	-0.715620
H247	H	1.694579	0.128088	-0.465620
H248	H	1.944579	0.378088	-0.215620
H249	H	0.978218	-0.576445	-0.924606
H250	H	1.228218	-0.326445	-0.674606
H251	H	1.478218	-0.076445	-0.424606
H252	H	1.728218	0.173555	-0.174606
C253	C	0.964744	-0.594130	-0.774176
C254	C	1.214744	-0.344130	-0.524176
C255	C	1.464744	-0.094130	-0.274176
C256	C	1.714744	0.155870	-0.024176
H257	H	0.936713	-0.630865	-0.808058
H258	H	1.186713	-0.380865	-0.558058
H259	H	1.436713	-0.130865	-0.308058
H260	H	1.686713	0.119135	-0.058058
H261	H	0.932685	-0.557240	-0.744193
H262	H	1.182685	-0.307240	-0.494193
H263	H	1.432685	-0.057240	-0.244193
H264	H	1.682685	0.192760	0.005807
H265	H	0.992888	-0.636170	-0.744193
H266	H	1.242888	-0.386170	-0.494193
H267	H	1.492888	-0.136170	-0.244193
H268	H	1.742888	0.113830	0.005807
