data_functionalizedCrystal
_audit_creation_method	'MofGen! by Chris Wilmer'
_symmetry_space_group_name_H-M	'P1'
_symmetry_Int_Tables_number	1
_symmetry_cell_setting	triclinic
loop_
_symmetry_equiv_pos_as_xyz
  x,y,z
_cell_length_a	14.044220
_cell_length_b	13.930277
_cell_length_c	14.853567
_cell_angle_alpha	90.000757
_cell_angle_beta	88.411904
_cell_angle_gamma	90.002277
loop_
_atom_site_label
_atom_site_type_symbol
_atom_site_fract_x
_atom_site_fract_y
_atom_site_fract_z
O1	O	1.257997	0.079714	0.217372
O2	O	0.982017	0.079738	0.209528
O3	O	1.127379	0.079728	0.082805
O4	O	1.112635	0.079724	0.344096
O5	O	1.127359	-0.079934	0.082800
O6	O	0.981997	-0.079923	0.209524
O7	O	1.257976	-0.079948	0.217368
Zn8	Zn	1.119983	-0.105286	0.213445
Zn9	Zn	1.120010	0.105076	0.213451
O10	O	1.112615	-0.079938	0.344091
C11	C	0.946688	-0.000089	0.206092
C12	C	0.841449	-0.000079	0.195851
N13	N	1.119972	-0.248852	0.213441
C14	C	1.055641	-0.701116	0.269540
C15	C	1.184405	-0.701095	0.157357
C16	C	1.184394	-0.600599	0.157353
C17	C	1.120006	-0.550357	0.213445
C18	C	1.055630	-0.600611	0.269540
C19	C	1.248775	-0.550338	0.101266
C20	C	1.248767	-0.449836	0.101260
C21	C	1.184374	-0.399592	0.157348
C22	C	1.119995	-0.449852	0.213445
C23	C	1.055608	-0.399611	0.269536
C24	C	0.991223	-0.449869	0.325629
C25	C	0.991237	-0.550368	0.325627
C26	C	1.184360	-0.299093	0.157349
C27	C	1.055596	-0.299106	0.269536
C28	C	0.648763	-0.000098	0.177127
C29	C	0.591225	-0.000103	0.249765
C30	C	0.484008	-0.000114	0.239347
C31	C	0.755990	-0.000088	0.187544
C32	C	1.293306	-0.000118	0.220803
C33	C	1.398545	-0.000122	0.231045
C34	C	1.126701	-0.000100	0.049161
C35	C	1.124699	-0.000091	-0.051082
N36	N	1.120029	0.248642	0.213449
C37	C	1.029888	-0.000101	-0.471127
C38	C	1.202581	-0.000116	-0.478726
C39	C	1.204464	-0.000111	-0.384543
C40	C	1.119057	-0.000102	-0.333648
C41	C	1.031768	-0.000098	-0.376935
C42	C	1.291751	-0.000124	-0.341248
C43	C	1.293637	-0.000120	-0.247060
C44	C	1.208229	-0.000104	-0.196163
C45	C	1.120937	-0.000099	-0.239456
C46	C	1.035530	-0.000090	-0.188561
C47	C	0.948237	-0.000079	-0.231852
C48	C	0.946360	-0.000083	-0.326038
C49	C	1.210105	-0.000100	-0.101977
C50	C	1.037410	-0.000088	-0.094369
C51	C	1.113293	-0.000108	0.377735
C52	C	1.115295	-0.000110	0.477978
H53	H	1.003160	-0.258205	0.315209
H54	H	0.967860	-0.000076	-0.052936
O55	O	1.246931	-0.250422	0.102785
C56	C	1.374698	-0.261011	-0.008437
C57	C	1.303869	-0.316250	0.053302
H58	H	1.420765	-0.314210	-0.048446
H59	H	1.333762	-0.213996	-0.056857
H60	H	1.422048	-0.213923	0.034343
H61	H	1.256501	-0.363391	0.010595
H62	H	1.344864	-0.363205	0.101726
H63	H	0.617501	-0.000102	0.107120
O64	O	0.945072	0.000081	-0.513134
C65	C	0.796883	0.082787	-0.535404
C66	C	0.892913	0.082711	-0.487789
H67	H	0.754677	0.149576	-0.514916
H68	H	0.810150	0.082849	-0.611472
H69	H	0.754703	0.015942	-0.515025
H70	H	0.935143	0.149544	-0.508095
H71	H	0.879579	0.082598	-0.411730
O72	O	0.628395	0.000041	0.333342
C73	C	0.639774	0.082817	0.475087
C74	C	0.597598	0.082754	0.380475
H75	H	0.614908	0.149694	0.513214
H76	H	0.614852	0.016048	0.513356
H77	H	0.720854	0.082783	0.468707
H78	H	0.516517	0.082823	0.386772
H79	H	0.622596	0.149517	0.342241
O80	O	0.865301	0.000099	-0.182369
C81	C	0.767254	0.082792	-0.071560
C82	C	0.861199	0.082721	-0.127564
H83	H	0.763916	0.149574	-0.027223
H84	H	0.704501	0.082863	-0.118630
H85	H	0.763825	0.015941	-0.027318
H86	H	0.864721	0.149561	-0.171812
H87	H	0.923907	0.082600	-0.080443
O88	O	0.928666	-0.599297	0.379988
C89	C	0.799220	-0.712756	0.388695
C90	C	0.870037	-0.657415	0.327029
H91	H	0.751787	-0.759743	0.345902
H92	H	0.840165	-0.759862	0.437033
H93	H	0.753236	-0.659573	0.428809
H94	H	0.916039	-0.710529	0.286858
H95	H	0.829035	-0.610295	0.278749
H96	H	1.272115	-0.000132	-0.520170
H97	H	1.003218	-0.742039	0.315207
H98	H	1.361284	-0.000141	-0.382694
O99	O	0.861488	-0.000033	-0.367948
C100	C	0.690396	-0.000074	-0.350476
C101	C	0.786444	-0.000105	-0.302894
H102	H	0.629697	-0.000152	-0.297901
H103	H	0.685145	0.066758	-0.394358
H104	H	0.685244	-0.066879	-0.394405
H105	H	0.791661	0.066655	-0.258918
H106	H	0.791654	-0.066980	-0.259067
H107	H	1.364716	-0.000128	-0.211820
O108	O	1.294973	-0.000066	-0.060067
C109	C	1.466065	-0.000142	-0.077549
C110	C	1.370013	-0.000164	-0.125125
H111	H	1.526760	-0.000242	-0.130127
H112	H	1.471337	0.066696	-0.033677
H113	H	1.471201	-0.066941	-0.033610
H114	H	1.364812	0.066589	-0.169110
H115	H	1.364783	-0.067047	-0.168942
H116	H	0.938802	-0.408951	0.371303
H117	H	1.236832	-0.742005	0.111694
O118	O	1.311180	-0.599192	0.046684
C119	C	1.331188	-0.712717	-0.074775
C120	C	1.260413	-0.657422	-0.013031
H121	H	1.290171	-0.759824	-0.123057
H122	H	1.377196	-0.659589	-0.114936
H123	H	1.378605	-0.759724	-0.031990
H124	H	1.212935	-0.610412	-0.055748
H125	H	1.214472	-0.710601	0.027135
O126	O	1.311337	-0.401168	0.046685
C127	C	1.439090	-0.411762	-0.064551
C128	C	1.368270	-0.466998	-0.002802
H129	H	1.485152	-0.464961	-0.104563
H130	H	1.398147	-0.364749	-0.112968
H131	H	1.486446	-0.364671	-0.021779
H132	H	1.320897	-0.514141	-0.045501
H133	H	1.409271	-0.513950	0.045620
