data_functionalizedCrystal
_audit_creation_method	'MofGen! by Chris Wilmer'
_symmetry_space_group_name_H-M	'P1'
_symmetry_Int_Tables_number	1
_symmetry_cell_setting	triclinic
loop_
_symmetry_equiv_pos_as_xyz
  x,y,z
_cell_length_a	19.805407
_cell_length_b	17.637651
_cell_length_c	19.805399
_cell_angle_alpha	78.757390
_cell_angle_beta	89.982197
_cell_angle_gamma	101.216285
loop_
_atom_site_label
_atom_site_type_symbol
_atom_site_fract_x
_atom_site_fract_y
_atom_site_fract_z
Zn1	Zn	0.980294	-0.314832	-0.328138
Zn2	Zn	1.313627	0.018501	0.005195
Zn3	Zn	1.646961	0.351834	0.338529
Zn4	Zn	0.957346	-0.447046	-0.192041
Zn5	Zn	1.290679	-0.113713	0.141292
Zn6	Zn	1.624013	0.219620	0.474625
Zn7	Zn	0.867106	-0.314848	-0.214963
Zn8	Zn	1.200439	0.018486	0.118370
Zn9	Zn	1.533773	0.351819	0.451703
Zn10	Zn	0.844218	-0.446998	-0.305200
Zn11	Zn	1.177551	-0.113665	0.028133
Zn12	Zn	1.510884	0.219668	0.361467
O13	O	0.912241	-0.380931	-0.260086
O14	O	1.245574	-0.047598	0.073248
O15	O	1.578908	0.285736	0.406581
O16	O	1.071964	-0.332384	-0.310091
O17	O	1.405298	0.000949	0.023242
O18	O	1.738631	0.334282	0.356576
O19	O	0.945351	-0.429537	-0.100361
O20	O	1.278684	-0.096203	0.232973
O21	O	1.612017	0.237130	0.566306
O22	O	0.901303	-0.204208	-0.249169
O23	O	1.234637	0.129125	0.084165
O24	O	1.567970	0.462458	0.417498
O25	O	1.055104	-0.429522	-0.210102
O26	O	1.388438	-0.096188	0.123232
O27	O	1.721771	0.237145	0.456565
O28	O	0.984462	-0.204197	-0.332317
O29	O	1.317795	0.129137	0.001016
O30	O	1.651129	0.462470	0.334349
O31	O	0.879052	-0.332411	-0.117201
O32	O	1.212385	0.000922	0.216132
O33	O	1.545718	0.334256	0.549465
O34	O	0.769356	-0.332364	-0.226927
O35	O	1.102689	0.000969	0.106407
O36	O	1.436022	0.334302	0.439740
O37	O	0.862294	-0.429439	-0.402964
O38	O	1.195627	-0.096106	-0.069631
O39	O	1.528960	0.237227	0.263703
O40	O	0.752540	-0.429455	-0.293223
O41	O	1.085873	-0.096121	0.040110
O42	O	1.419206	0.237212	0.373443
O43	O	0.962268	-0.332338	-0.419816
O44	O	1.295602	0.000996	-0.086483
O45	O	1.628935	0.334329	0.246850
O46	O	0.923157	-0.557677	-0.187860
O47	O	1.256490	-0.224344	0.145474
O48	O	1.589823	0.108989	0.478807
O49	O	0.840042	-0.557642	-0.270997
O50	O	1.173375	-0.224309	0.062337
O51	O	1.506709	0.109025	0.395670
C52	C	0.736389	-0.380906	-0.260073
C53	C	1.069723	-0.047573	0.073260
C54	C	1.403056	0.285760	0.406593
C55	C	0.661156	-0.380915	-0.260081
C56	C	0.994489	-0.047582	0.073252
C57	C	1.327822	0.285752	0.406586
C58	C	0.634576	-0.330425	-0.312196
C59	C	0.967909	0.002908	0.021137
C60	C	1.301242	0.336242	0.354471
C61	C	0.563887	-0.330429	-0.312198
C62	C	0.897220	0.002904	0.021136
C63	C	1.230553	0.336238	0.354469
C64	C	0.519778	-0.380928	-0.260087
C65	C	0.853111	-0.047594	0.073246
C66	C	1.186445	0.285739	0.406580
C67	C	0.546363	-0.431420	-0.207967
C68	C	0.879696	-0.098086	0.125366
C69	C	1.213029	0.235247	0.458700
C70	C	0.617051	-0.431411	-0.207963
C71	C	0.950385	-0.098078	0.125370
C72	C	1.283718	0.235256	0.458704
C73	C	0.261283	-0.431455	-0.207981
C74	C	0.594617	-0.098122	0.125352
C75	C	0.927950	0.235211	0.458685
C76	C	0.190590	-0.431462	-0.207991
C77	C	0.523923	-0.098129	0.125343
C78	C	0.857257	0.235205	0.458676
C79	C	0.208118	-0.330473	-0.312216
C80	C	0.541452	0.002860	0.021117
C81	C	0.874785	0.336193	0.354450
C82	C	0.278807	-0.330465	-0.312212
C83	C	0.612140	0.002869	0.021121
C84	C	0.945474	0.336202	0.354454
C85	C	0.305386	-0.380953	-0.260091
C86	C	0.638720	-0.047620	0.073243
C87	C	0.972053	0.285713	0.406576
C88	C	0.382036	-0.380947	-0.260089
C89	C	0.715369	-0.047614	0.073245
C90	C	1.048702	0.285719	0.406578
C91	C	0.443129	-0.380938	-0.260091
C92	C	0.776462	-0.047605	0.073242
C93	C	1.109796	0.285728	0.406575
C94	C	0.876644	-0.586347	-0.224467
C95	C	1.209977	-0.253014	0.108867
C96	C	1.543311	0.080320	0.442200
C97	C	0.861477	-0.674225	-0.209251
C98	C	1.194810	-0.340891	0.124082
C99	C	1.528144	-0.007558	0.457415
C100	C	1.027900	-0.962919	-0.375888
C101	C	1.361234	-0.629586	-0.042555
C102	C	1.694567	-0.296252	0.290778
C103	C	1.013628	-1.045493	-0.361579
C104	C	1.346961	-0.712160	-0.028246
C105	C	1.680294	-0.378827	0.305087
C106	C	0.927092	-1.045613	-0.274913
C107	C	1.260425	-0.712279	0.058421
C108	C	1.593759	-0.378946	0.391754
C109	C	0.941360	-0.963037	-0.289212
C110	C	1.274693	-0.629703	0.044121
C111	C	1.608027	-0.296370	0.377455
C112	C	0.991764	-0.921696	-0.339701
C113	C	1.325098	-0.588363	-0.006368
C114	C	1.658431	-0.255030	0.326966
C115	C	0.905224	-0.921814	-0.253025
C116	C	1.238557	-0.588480	0.080309
C117	C	1.571891	-0.255147	0.413642
C118	C	0.919488	-0.839245	-0.267326
C119	C	1.252822	-0.505911	0.066008
C120	C	1.586155	-0.172578	0.399341
C121	C	0.969889	-0.797899	-0.317814
C122	C	1.303222	-0.464565	0.015520
C123	C	1.636556	-0.131232	0.348853
C124	C	1.006029	-0.839127	-0.354002
C125	C	1.339362	-0.505794	-0.020669
C126	C	1.672696	-0.172461	0.312665
C127	C	0.854816	-0.963156	-0.202539
C128	C	1.188150	-0.629822	0.130794
C129	C	1.521483	-0.296489	0.464127
C130	C	0.818680	-0.921933	-0.166352
C131	C	1.152014	-0.588600	0.166981
C132	C	1.485347	-0.255266	0.500314
C133	C	0.832948	-0.839362	-0.180649
C134	C	1.166281	-0.506029	0.152684
C135	C	1.499615	-0.172696	0.486017
C136	C	0.883349	-0.798016	-0.231138
C137	C	1.216682	-0.464683	0.102196
C138	C	1.550015	-0.131350	0.435529
C139	C	0.796808	-0.798134	-0.144461
C140	C	1.130141	-0.464801	0.188872
C141	C	1.463475	-0.131467	0.522205
C142	C	0.811073	-0.715565	-0.158762
C143	C	1.144406	-0.382232	0.174571
C144	C	1.477739	-0.048898	0.507904
C145	C	0.897613	-0.715447	-0.245438
C146	C	1.230947	-0.382114	0.087895
C147	C	1.564280	-0.048781	0.421228
C148	C	1.088779	-0.380957	-0.260098
C149	C	1.422113	-0.047623	0.073235
C150	C	1.755446	0.285710	0.406569
C151	C	1.164009	-0.380967	-0.260103
C152	C	1.497343	-0.047634	0.073230
C153	C	1.830676	0.285699	0.406563
C154	C	0.912288	-0.380881	-0.436637
C155	C	1.245621	-0.047548	-0.103304
C156	C	1.578954	0.285785	0.230030
C157	C	0.912307	-0.380860	-0.511873
C158	C	1.245641	-0.047527	-0.178539
C159	C	1.578974	0.285807	0.154794
C160	C	0.947996	-0.174713	-0.295859
C161	C	1.281329	0.158620	0.037475
C162	C	1.614662	0.491953	0.370808
C163	C	0.963232	-0.086836	-0.311103
C164	C	1.296565	0.246498	0.022230
C165	C	1.629899	0.579831	0.355564
C166	C	0.964366	-0.330297	-0.555993
C167	C	1.297699	0.003037	-0.222660
C168	C	1.631032	0.336370	0.110673
C169	C	0.964377	-0.330274	-0.626686
C170	C	1.297710	0.003060	-0.293353
C171	C	1.631043	0.336393	0.039981
C172	C	0.912331	-0.380819	-0.653256
C173	C	1.245665	-0.047486	-0.319922
C174	C	1.578998	0.285848	0.013411
C175	C	0.860268	-0.431384	-0.609130
C176	C	1.193601	-0.098051	-0.275796
C177	C	1.526935	0.235282	0.057537
C178	C	0.860255	-0.431403	-0.538439
C179	C	1.193588	-0.098070	-0.205106
C180	C	1.526922	0.235264	0.128228
C181	C	0.860319	-0.431311	-0.894216
C182	C	1.193652	-0.097977	-0.560882
C183	C	1.526986	0.235356	-0.227549
C184	C	0.860337	-0.431290	-0.964911
C185	C	1.193670	-0.097957	-0.631578
C186	C	1.527004	0.235376	-0.298245
C187	C	0.964441	-0.330182	-0.982463
C188	C	1.297774	0.003152	-0.649129
C189	C	1.631107	0.336485	-0.315796
C190	C	0.964428	-0.330200	-0.911772
C191	C	1.297761	0.003133	-0.578439
C192	C	1.631094	0.336467	-0.245105
C193	C	0.912363	-0.380762	-0.867653
C194	C	1.245696	-0.047429	-0.534319
C195	C	1.579029	0.285904	-0.200986
C196	C	0.912351	-0.380786	-0.791000
C197	C	1.245684	-0.047452	-0.457667
C198	C	1.579017	0.285881	-0.124334
C199	C	0.912345	-0.380800	-0.729906
C200	C	1.245679	-0.047467	-0.396573
C201	C	1.579012	0.285866	-0.063239
C202	C	0.912243	-0.380924	-0.084231
C203	C	1.245577	-0.047590	0.249102
C204	C	1.578910	0.285743	0.582436
C205	C	0.912393	-0.380722	-0.009034
C206	C	1.245727	-0.047389	0.324299
C207	C	1.579060	0.285944	0.657632
H208	H	0.542249	-0.289317	-0.354636
H209	H	0.875582	0.044017	-0.021303
H210	H	1.208915	0.377350	0.312031
H211	H	0.638691	-0.472525	-0.165525
H212	H	0.972024	-0.139191	0.167808
H213	H	1.305358	0.194142	0.501141
F214	F	1.059683	-0.795125	-0.407731
F215	F	1.393016	-0.461792	-0.074398
F216	F	1.726349	-0.128458	0.258936
F217	F	0.325747	-0.276721	-0.367678
F218	F	0.659080	0.056612	-0.034345
F219	F	0.992414	0.389946	0.298989
H220	H	0.186470	-0.289360	-0.354655
H221	H	0.519804	0.043973	-0.021321
H222	H	0.853137	0.377307	0.312012
H223	H	0.282915	-0.472567	-0.165541
H224	H	0.616248	-0.139234	0.167792
H225	H	0.949581	0.194099	0.501125
H226	H	1.006810	-0.289044	-0.890143
H227	H	1.340143	0.044290	-0.556810
H228	H	1.673477	0.377623	-0.223476
H229	H	0.154677	-0.472586	-0.165553
H230	H	0.488011	-0.139253	0.167781
H231	H	0.821344	0.194081	0.501114
F232	F	1.081554	-0.918917	-0.429617
F233	F	1.414888	-0.585584	-0.096284
F234	F	1.748221	-0.252250	0.237049
F235	F	1.019852	-0.276366	-1.029424
F236	F	1.353185	0.056968	-0.696090
F237	F	1.686518	0.390301	-0.362757
H238	H	0.817890	-0.472536	-0.630768
H239	H	1.151223	-0.139203	-0.297435
H240	H	1.484557	0.194130	0.035898
H241	H	0.817858	-0.472569	-0.502517
H242	H	1.151192	-0.139235	-0.169184
H243	H	1.484525	0.194098	0.164149
H244	H	0.781646	-0.682001	-0.129295
H245	H	1.114979	-0.348668	0.204038
H246	H	1.448313	-0.015334	0.537371
F247	F	0.804907	-0.485124	-0.847270
F248	F	1.138240	-0.151791	-0.513936
F249	F	1.471573	0.181543	-0.180603
H250	H	0.817952	-0.472452	-0.986541
H251	H	1.151286	-0.139118	-0.653208
H252	H	1.484619	0.194215	-0.319875
H253	H	0.670485	-0.289305	-0.354632
H254	H	1.003818	0.044028	-0.021299
H255	H	1.337151	0.377362	0.312035
F256	F	0.499418	-0.485160	-0.152503
F257	F	0.832751	-0.151827	0.180830
F258	F	1.166085	0.181506	0.514163
H259	H	0.938663	-0.681786	-0.286547
H260	H	1.271996	-0.348453	0.046787
H261	H	1.605329	-0.015120	0.380120
H262	H	1.043048	-1.079054	-0.391061
H263	H	1.376381	-0.745721	-0.057727
H264	H	1.709715	-0.412387	0.275606
H265	H	0.886051	-1.079283	-0.233806
H266	H	1.219384	-0.745950	0.099527
H267	H	1.552718	-0.412617	0.432860
H268	H	0.843197	-1.030389	-0.190904
H269	H	1.176531	-0.697055	0.142430
H270	H	1.509864	-0.363722	0.475763
H271	H	0.981503	-0.730666	-0.329456
H272	H	1.314836	-0.397332	0.003877
H273	H	1.648169	-0.063999	0.337210
F274	F	0.765033	-0.965939	-0.112624
F275	F	1.098367	-0.632605	0.220709
F276	F	1.431700	-0.299272	0.554042
F277	F	0.743157	-0.842142	-0.090738
F278	F	1.076491	-0.508808	0.242595
F279	F	1.409824	-0.175475	0.575929
H280	H	1.006749	-0.289139	-0.534366
H281	H	1.340082	0.044194	-0.201033
H282	H	1.673415	0.377527	0.132301
F283	F	1.019803	-0.276484	-0.673635
F284	F	1.353136	0.056849	-0.340302
F285	F	1.686469	0.390182	-0.006969
