data_functionalizedCrystal
_audit_creation_method	'MofGen! by Chris Wilmer'
_symmetry_space_group_name_H-M	'P1'
_symmetry_Int_Tables_number	1
_symmetry_cell_setting	triclinic
loop_
_symmetry_equiv_pos_as_xyz
  x,y,z
_cell_length_a	18.101398
_cell_length_b	18.215405
_cell_length_c	18.215399
_cell_angle_alpha	90.029420
_cell_angle_beta	90.010431
_cell_angle_gamma	90.019377
loop_
_atom_site_label
_atom_site_type_symbol
_atom_site_fract_x
_atom_site_fract_y
_atom_site_fract_z
Zn1	Zn	1.132163	-0.293079	0.415924
Zn2	Zn	1.132074	-0.416150	0.292854
Zn3	Zn	1.008321	-0.293093	0.292891
Zn4	Zn	1.008289	-0.416099	0.415899
O5	O	1.070212	-0.354605	0.354392
O6	O	1.235784	-0.309421	0.399593
O7	O	1.115633	-0.399854	0.189875
O8	O	1.024800	-0.190107	0.309237
O9	O	1.235718	-0.399841	0.309174
O10	O	1.115786	-0.190097	0.399629
O11	O	1.024713	-0.309444	0.189902
O12	O	0.904684	-0.309394	0.309214
O13	O	1.024745	-0.399753	0.518887
O14	O	0.904660	-0.399766	0.399587
O15	O	1.115755	-0.309371	0.518905
O16	O	1.115602	-0.519128	0.309151
O17	O	1.024658	-0.519090	0.399551
C18	C	1.070137	-0.545812	0.354361
C19	C	1.070173	-0.627610	0.354372
C20	C	0.877801	-0.354576	0.354402
C21	C	0.795487	-0.354582	0.354424
C22	C	1.117666	-0.892663	0.307399
C23	C	1.117636	-0.815805	0.307382
C24	C	1.022849	-0.815806	0.401435
C25	C	1.022876	-0.892663	0.401447
C26	C	1.070289	-0.931090	0.354431
C27	C	1.070231	-0.777374	0.354401
C28	C	1.070198	-0.694040	0.354383
C29	C	1.070322	-1.014429	0.354447
C30	C	0.496396	-0.354625	0.354394
C31	C	0.527731	-0.411760	0.410973
C32	C	0.613350	-0.411581	0.411206
C33	C	0.644779	-0.354604	0.354409
C34	C	0.613715	-0.277090	0.375605
C35	C	0.528070	-0.277433	0.376007
C36	C	0.527945	-0.374321	0.276481
C37	C	0.613595	-0.376022	0.276897
C38	C	0.728638	-0.354588	0.354416
C39	C	0.412537	-0.354636	0.354388
C40	C	1.263374	-0.354635	0.354382
C41	C	1.345688	-0.354647	0.354378
C42	C	1.070257	-0.354555	0.546345
C43	C	1.070276	-0.354533	0.628144
C44	C	1.070307	-0.162652	0.354440
C45	C	1.070347	-0.080853	0.354460
C46	C	1.070209	-0.354603	0.163186
C47	C	1.070334	-0.354417	0.081387
C48	C	1.117682	-0.307427	0.816349
C49	C	1.117691	-0.307406	0.893207
C50	C	1.022922	-0.401525	0.893177
C51	C	1.022910	-0.401542	0.816320
C52	C	1.070294	-0.354494	0.777908
C53	C	1.070315	-0.354456	0.931624
C54	C	1.070324	-0.354433	1.014958
C55	C	1.070284	-0.354516	0.694569
H56	H	1.156213	-0.784520	0.269084
N57	N	0.971712	-0.774360	0.452142
H58	H	0.978883	-0.719840	0.445000
H59	H	0.983206	-0.787751	0.504714
N60	N	0.971768	-0.934116	0.452170
H61	H	0.941731	-0.898112	0.481956
H62	H	1.001899	-0.965964	0.486257
H63	H	0.634352	-0.469062	0.397921
N64	N	0.501095	-0.319205	0.220635
H65	H	0.521538	-0.332136	0.170689
H66	H	0.518425	-0.268506	0.235080
N67	N	1.168810	-0.256646	0.934667
H68	H	1.161628	-0.263770	0.989185
H69	H	1.157309	-0.204088	0.921245
N70	N	0.971806	-0.452257	0.934608
H71	H	0.979001	-0.445102	0.989130
H72	H	0.983294	-0.504825	0.921165
N73	N	0.500424	-0.488145	0.393572
H74	H	0.444684	-0.489094	0.395871
H75	H	0.521219	-0.523916	0.430533
N76	N	1.168800	-0.934111	0.256690
H77	H	1.198807	-0.898102	0.226892
H78	H	1.138688	-0.966044	0.222614
N79	N	0.499242	-0.394724	0.487001
H80	H	0.466127	-0.350157	0.484953
H81	H	0.542294	-0.384576	0.520796
N82	N	1.168789	-0.256688	0.774916
H83	H	1.138710	-0.222588	0.743031
H84	H	1.203077	-0.286669	0.743069
H85	H	0.984316	-0.439870	0.785021
H86	H	0.633851	-0.398549	0.468934
H87	H	0.508107	-0.260728	0.432965
H88	H	0.507342	-0.233338	0.336687
H89	H	0.634073	-0.233367	0.335681
H90	H	0.635178	-0.260083	0.431943
N91	N	0.499314	-0.447904	0.250960
H92	H	0.514902	-0.487185	0.286874
H93	H	0.520250	-0.459394	0.200866
N94	N	0.640556	-0.451545	0.255682
H95	H	0.672828	-0.471811	0.296110
H96	H	0.670049	-0.448198	0.208742
N97	N	0.641929	-0.324905	0.218051
H98	H	0.675529	-0.286968	0.240906
H99	H	0.598839	-0.299559	0.193614
