data_functionalizedCrystal
_audit_creation_method	'MofGen! by Chris Wilmer'
_symmetry_space_group_name_H-M	'P1'
_symmetry_Int_Tables_number	1
_symmetry_cell_setting	triclinic
loop_
_symmetry_equiv_pos_as_xyz
  x,y,z
_cell_length_a	14.446369
_cell_length_b	21.606444
_cell_length_c	21.606444
_cell_angle_alpha	60.001331
_cell_angle_beta	90.002213
_cell_angle_gamma	59.997435
loop_
_atom_site_label
_atom_site_type_symbol
_atom_site_fract_x
_atom_site_fract_y
_atom_site_fract_z
Zr1	Zr	0.891754	0.677418	-0.081179
O2	O	0.743935	0.806546	-0.180005
O3	O	0.937070	0.548297	-0.050886
O4	O	0.937058	0.677421	-0.180005
O5	O	0.743955	0.677418	0.050967
O6	O	1.089395	0.677415	-0.180001
O7	O	0.743947	0.677422	-0.050887
O8	O	1.089416	0.446436	0.050968
O9	O	0.743933	0.908397	-0.180002
O10	O	1.070082	0.601400	-0.037960
O11	O	0.956400	0.601401	0.038049
O12	O	0.956387	0.753427	-0.113971
O13	O	0.842705	0.753428	-0.037961
Zr14	Zr	1.134726	0.677402	0.081273
Zr15	Zr	1.134714	0.677409	-0.081173
Zr16	Zr	0.891766	0.677411	0.081267
Zr17	Zr	0.891751	0.839859	-0.081174
Zr18	Zr	1.134729	0.514962	0.081267
O19	O	1.089411	0.806524	0.050980
O20	O	1.089393	0.806534	-0.179997
O21	O	0.743953	0.806536	0.050972
O22	O	1.282545	0.548274	0.180099
O23	O	1.282528	0.548284	-0.050878
O24	O	0.937087	0.548287	0.180090
O25	O	1.282526	0.677403	-0.050874
O26	O	1.089422	0.677400	0.180098
O27	O	0.937085	0.677405	0.180095
O28	O	1.282533	0.677398	0.050981
O29	O	0.937054	0.908390	-0.179997
O30	O	1.089426	0.446431	0.180091
O31	O	1.282547	0.446424	0.180096
O32	O	1.282537	0.446429	0.050973
O33	O	0.743943	0.908392	-0.050879
O34	O	0.937064	0.908385	-0.050875
O35	O	1.070094	0.601393	0.114065
O36	O	1.183775	0.601392	0.038055
O37	O	1.070080	0.753420	-0.037956
O38	O	0.956398	0.753421	0.038054
C39	C	1.013243	0.474222	0.000040
C40	C	1.013244	0.405262	0.000038
C41	C	1.072583	0.372864	-0.039639
C42	C	1.072587	0.308064	-0.039634
C43	C	1.013245	0.275668	0.000044
C44	C	0.953905	0.308069	0.039727
C45	C	0.953909	0.372863	0.039726
C46	C	0.953892	0.046759	0.039733
C47	C	0.953890	-0.018038	0.039729
C48	C	1.072570	-0.018040	-0.039627
C49	C	1.072573	0.046755	-0.039628
C50	C	1.013239	0.079147	0.000057
C51	C	1.013237	0.149409	0.000053
C52	C	1.013240	0.205411	0.000045
C53	C	0.709334	0.677422	0.000039
C54	C	0.606191	0.677425	0.000037
C55	C	0.387817	0.773299	-0.047661
C56	C	0.495049	0.773364	-0.047929
C57	C	0.602866	0.629802	-0.034934
C58	C	0.495097	0.630410	-0.035284
C59	C	0.496469	0.628431	0.082766
C60	C	0.602438	0.630238	0.082636
C61	C	1.317146	0.677399	0.000054
C62	C	1.420289	0.677395	0.000057
C63	C	1.013225	0.677419	-0.203148
C64	C	1.013219	0.677422	-0.272110
C65	C	1.013237	0.880598	0.000053
C66	C	1.013236	0.949559	0.000056
C67	C	0.953871	0.756778	-0.344185
C68	C	0.953881	0.756776	-0.408980
C69	C	1.013233	0.677416	-0.401698
C70	C	1.072589	0.598054	-0.329615
C71	C	1.072585	0.598057	-0.264822
C72	C	1.072607	0.598039	-0.590918
C73	C	1.072603	0.598041	-0.655719
C74	C	0.953903	0.756757	-0.735077
C75	C	0.953899	0.756761	-0.670283
C76	C	1.013259	0.677399	-0.598206
C77	C	1.013249	0.677402	-0.527949
C78	C	1.013237	0.677412	-0.471954
C79	C	1.013256	0.677402	0.203242
C80	C	1.013261	0.677399	0.272204
C81	C	1.317149	0.474211	0.000048
C82	C	1.420293	0.405247	0.000048
C83	C	1.013259	0.474214	0.203235
C84	C	1.013265	0.405251	0.272195
C85	C	1.317165	0.474202	0.203242
C86	C	1.420314	0.405236	0.272205
C87	C	0.709315	0.880618	-0.203149
C88	C	0.606166	0.949585	-0.272111
C89	C	0.709331	0.880610	0.000046
C90	C	0.606187	0.949573	0.000046
C91	C	1.013222	0.880607	-0.203141
C92	C	1.013215	0.949570	-0.272101
C93	C	1.409384	0.372865	-0.039638
C94	C	1.506290	0.308075	-0.039653
C95	C	1.614103	0.275664	0.000023
C96	C	1.625010	0.308053	0.039710
C97	C	1.528106	0.372846	0.039720
C98	C	1.072615	0.372861	0.344266
C99	C	1.072616	0.308072	0.409067
C100	C	1.013274	0.275669	0.401797
C101	C	0.953917	0.308065	0.329719
C102	C	0.953910	0.372857	0.264919
C103	C	1.528105	0.372848	0.264914
C104	C	1.625034	0.308055	0.329706
C105	C	1.614170	0.275647	0.401787
C106	C	1.506367	0.308041	0.409077
C107	C	1.409441	0.372837	0.344286
C108	C	0.498375	0.981981	-0.264821
C109	C	0.401446	1.046794	-0.329612
C110	C	0.412311	1.079205	-0.401694
C111	C	0.520113	1.046807	-0.408983
C112	C	0.617039	0.981999	-0.344192
C113	C	0.617096	0.981963	0.039725
C114	C	0.520191	1.046770	0.039722
C115	C	0.412377	1.079184	0.000044
C116	C	0.401470	1.046792	-0.039640
C117	C	0.498374	0.981990	-0.039641
C118	C	1.072569	0.981952	-0.264806
C119	C	1.072585	1.046742	-0.329596
C120	C	1.013240	1.079153	-0.401679
C121	C	0.953885	1.046764	-0.408972
C122	C	0.953876	0.981971	-0.344184
H123	H	1.120888	-0.044423	-0.071938
H124	H	0.493290	0.810919	-0.024654
N125	N	0.486629	0.947035	-0.187084
H126	H	0.443826	0.996474	-0.181014
H127	H	0.564416	0.901049	-0.147182
H128	H	1.693000	0.222905	0.000010
H129	H	0.446447	0.659114	0.111980
N130	N	1.136658	0.273134	0.486798
H131	H	1.196378	0.208088	0.515453
H132	H	1.082169	0.284477	0.515396
N133	N	0.316347	0.823162	-0.016753
H134	H	0.304317	0.784073	0.028481
H135	H	0.240570	0.876120	-0.057302
H136	H	1.537004	0.399203	0.072042
H137	H	1.321606	0.399253	-0.071956
N138	N	1.136600	0.512451	-0.513181
H139	H	1.196321	0.508904	-0.484521
H140	H	1.174121	0.462223	-0.518459
H141	H	0.905563	0.821384	-0.676220
N142	N	0.889878	0.842359	-0.812818
H143	H	0.898886	0.830319	-0.852762
H144	H	0.921030	0.877015	-0.818817
N145	N	1.136598	0.512465	-0.187082
H146	H	1.127595	0.524508	-0.147141
H147	H	1.219589	0.477814	-0.181083
H148	H	0.604996	0.662883	-0.095219
H149	H	1.497387	0.281712	-0.071971
N150	N	1.013290	0.205784	0.471691
H151	H	1.059899	0.190185	0.518449
H152	H	1.047043	0.152059	0.471658
N153	N	0.889893	0.273134	0.082517
H154	H	0.852303	0.303491	0.107653
H155	H	0.944382	0.208086	0.122407
H156	H	0.704875	0.955577	0.072041
H157	H	0.905584	0.399221	0.206238
N158	N	1.494669	0.273071	0.486827
H159	H	1.451871	0.246180	0.492901
H160	H	1.451893	0.322535	0.492865
N161	N	0.889853	0.947050	-0.352057
H162	H	0.852262	0.977419	-0.407554
H163	H	0.830184	0.958334	-0.326911
N164	N	0.532828	0.534850	0.130086
H165	H	0.581747	0.503717	0.183159
H166	H	0.577453	0.504202	0.106619
N167	N	1.741298	0.273092	0.082501
H168	H	1.801021	0.227131	0.076470
H169	H	1.750289	0.246245	0.137991
N170	N	1.136579	0.947004	-0.187065
H171	H	1.174181	0.977355	-0.192286
H172	H	1.196239	0.881957	-0.158453
N173	N	0.307859	1.149066	0.000057
H174	H	0.261199	1.202844	-0.053677
H175	H	0.331226	1.164587	0.031254
N176	N	1.013271	1.149032	-0.471548
H177	H	0.979506	1.202793	-0.471568
H178	H	0.966694	1.164585	-0.518289
H179	H	1.120939	0.533413	-0.649782
N180	N	1.136627	0.407799	0.352118
H181	H	1.174216	0.377444	0.407612
H182	H	1.082133	0.472847	0.326959
H183	H	0.905603	0.281673	0.323810
N184	N	0.531960	1.081706	0.082521
H185	H	0.574766	1.032269	0.138029
H186	H	0.454175	1.127694	0.076435
H187	H	0.905586	0.399243	0.072033
N188	N	1.136596	0.512459	-0.321760
H189	H	1.174194	0.462187	-0.266266
H190	H	1.196258	0.508996	-0.346912
N191	N	0.285183	1.081741	-0.082420
H192	H	0.225459	1.127699	-0.076385
H193	H	0.276219	1.032249	-0.061572
N194	N	0.486600	0.947058	-0.082440
H195	H	0.403594	0.977429	-0.107572
H196	H	0.524215	0.882013	-0.046010
N197	N	0.285184	1.081728	-0.321741
H198	H	0.293019	1.051351	-0.266245
H199	H	0.242379	1.070462	-0.346901
H200	H	0.704805	0.955623	-0.350137
N201	N	1.539839	0.407786	0.187175
H202	H	1.622839	0.377430	0.192399
H203	H	1.502207	0.472834	0.158558
H204	H	1.712802	0.281686	0.323757
N205	N	0.307756	1.149096	-0.471567
H206	H	0.307698	1.126550	-0.502756
H207	H	0.307751	1.202848	-0.502700
H208	H	1.693103	0.222886	0.454538
N209	N	1.136609	1.081665	-0.321720
H210	H	1.174190	1.051303	-0.266223
H211	H	1.082126	1.146713	-0.346876
H212	H	1.321676	0.399199	0.350233
N213	N	0.531822	1.081768	-0.486730
H214	H	0.454057	1.127734	-0.526662
H215	H	0.574663	1.032286	-0.492739
N216	N	0.889875	1.081727	-0.486720
H217	H	0.944306	1.070452	-0.515370
H218	H	0.830166	1.146763	-0.515303
N219	N	1.136581	0.407807	-0.082443
H220	H	1.219602	0.358367	-0.061629
H221	H	1.127488	0.453785	-0.076414
N222	N	1.136585	0.273121	-0.082430
H223	H	1.174170	0.303481	-0.107571
H224	H	1.082086	0.284400	-0.122317
H225	H	0.905556	0.821396	-0.467665
N226	N	1.136569	0.081702	-0.082429
H227	H	1.174162	0.051344	-0.107564
H228	H	1.196233	0.070422	-0.045996
N229	N	0.889904	0.081688	0.082538
H230	H	0.852312	0.051332	0.107672
H231	H	0.830239	0.146736	0.046111
N232	N	0.889901	-0.052994	0.082538
H233	H	0.830171	-0.041713	0.046150
H234	H	0.852389	-0.022630	0.107680
N235	N	0.491804	0.823178	-0.128745
H236	H	0.420632	0.845175	-0.164334
H237	H	0.560427	0.783170	-0.135481
N238	N	0.428394	0.675245	-0.115900
H239	H	0.469135	0.694429	-0.150876
H240	H	0.350500	0.728072	-0.130869
N241	N	0.530413	0.537208	0.007763
H242	H	0.497420	0.529525	-0.026928
H243	H	0.501633	0.523795	0.052173
N244	N	0.706543	0.536364	0.008878
H245	H	0.756786	0.523977	0.051920
H246	H	0.749696	0.527310	-0.025992
H247	H	0.601922	0.664961	0.108761
H248	H	0.681601	0.560244	0.121181
N249	N	0.889857	0.842372	-0.352038
H250	H	0.806837	0.877070	-0.380666
H251	H	0.921078	0.876992	-0.380636
H252	H	0.332827	0.810757	-0.108305
