data_functionalizedCrystal
_audit_creation_method	'MofGen! by Chris Wilmer'
_symmetry_space_group_name_H-M	'P1'
_symmetry_Int_Tables_number	1
_symmetry_cell_setting	triclinic
loop_
_symmetry_equiv_pos_as_xyz
  x,y,z
_cell_length_a	23.532407
_cell_length_b	23.532407
_cell_length_c	9.798715
_cell_angle_alpha	89.988376
_cell_angle_beta	89.999003
_cell_angle_gamma	82.848747
loop_
_atom_site_label
_atom_site_type_symbol
_atom_site_fract_x
_atom_site_fract_y
_atom_site_fract_z
O1	O	0.755259	0.069134	-0.113430
O2	O	1.088592	0.402467	0.219904
O3	O	1.421926	0.735801	0.553237
O4	O	0.589396	0.079137	-0.113455
O5	O	0.922729	0.412470	0.219878
O6	O	1.256062	0.745804	0.553212
O7	O	0.677329	-0.008796	-0.113403
O8	O	1.010662	0.324537	0.219930
O9	O	1.343996	0.657871	0.553263
O10	O	0.667326	0.157067	-0.113481
O11	O	1.000659	0.490401	0.219852
O12	O	1.333992	0.823734	0.553185
O13	O	0.677322	-0.008796	0.113579
O14	O	1.010656	0.324537	0.446912
O15	O	1.343989	0.657870	0.780246
O16	O	0.589389	0.079137	0.113527
O17	O	0.922722	0.412470	0.446861
O18	O	1.256056	0.745804	0.780194
O19	O	0.755252	0.069134	0.113552
O20	O	1.088586	0.402467	0.446886
O21	O	1.421919	0.735801	0.780219
Zn22	Zn	0.672320	0.074135	0.149578
Zn23	Zn	1.005653	0.407469	0.482912
Zn24	Zn	1.338986	0.740802	0.816245
Zn25	Zn	0.672328	0.074136	-0.149481
Zn26	Zn	1.005662	0.407469	0.183853
Zn27	Zn	1.338995	0.740802	0.517186
O28	O	0.667319	0.157067	0.113501
O29	O	1.000653	0.490400	0.446834
O30	O	1.333986	0.823734	0.780168
C31	C	0.568176	0.078882	0.000034
C32	C	0.901510	0.412216	0.333367
C33	C	1.234843	0.745549	0.666700
C34	C	0.504959	0.078116	0.000026
C35	C	0.838293	0.411450	0.333359
C36	C	1.171626	0.744783	0.666693
C37	C	0.238792	0.022921	0.000089
C38	C	0.572125	0.356254	0.333422
C39	C	0.905458	0.689588	0.666756
C40	C	0.298192	0.023632	0.000088
C41	C	0.631525	0.356966	0.333422
C42	C	0.964859	0.690299	0.666755
O43	O	0.334937	-0.020153	0.000156
O44	O	0.668270	0.313180	0.333490
O45	O	1.001603	0.646513	0.666823
N46	N	0.320818	0.075909	0.000054
N47	N	0.654152	0.409242	0.333388
N48	N	0.987485	0.742575	0.666721
C49	C	0.284041	0.127477	0.000035
C50	C	0.617374	0.460810	0.333368
C51	C	0.950707	0.794144	0.666702
O52	O	0.308740	0.172007	0.000007
O53	O	0.642074	0.505341	0.333341
O54	O	0.975407	0.838674	0.666674
C55	C	0.224642	0.126765	0.000046
C56	C	0.557975	0.460098	0.333379
C57	C	0.891308	0.793432	0.666712
C58	C	0.202019	0.074485	0.000066
C59	C	0.535352	0.407819	0.333399
C60	C	0.868686	0.741152	0.666732
C61	C	0.216168	-0.029354	0.000111
C62	C	0.549502	0.303979	0.333444
C63	C	0.882835	0.637312	0.666777
C64	C	0.156772	-0.030066	0.000109
C65	C	0.490106	0.303268	0.333442
C66	C	0.823439	0.636601	0.666775
C67	C	0.119999	0.021499	0.000085
C68	C	0.453333	0.354832	0.333419
C69	C	0.786666	0.688165	0.666752
C70	C	0.142623	0.073774	0.000064
C71	C	0.475956	0.407107	0.333397
C72	C	0.809289	0.740441	0.666730
C73	C	0.187865	0.178333	0.000036
C74	C	0.521199	0.511666	0.333369
C75	C	0.854532	0.844999	0.666703
C76	C	0.128463	0.177616	0.000047
C77	C	0.461796	0.510949	0.333381
C78	C	0.795129	0.844283	0.666714
C79	C	0.105840	0.125336	0.000068
C80	C	0.439173	0.458670	0.333401
C81	C	0.772507	0.792003	0.666734
C82	C	0.046454	0.124627	0.000038
C83	C	0.379787	0.457960	0.333372
C84	C	0.713120	0.791294	0.666705
N85	N	0.023828	0.072351	0.000072
N86	N	0.357161	0.405684	0.333406
N87	N	0.690494	0.739017	0.666739
C88	C	0.060600	0.020787	0.000096
C89	C	0.393934	0.354120	0.333429
C90	C	0.727267	0.687453	0.666762
C91	C	0.408783	0.128968	0.000015
C92	C	0.742117	0.462302	0.333349
C93	C	1.075450	0.795635	0.666682
C94	C	0.468181	0.129681	-0.000005
C95	C	0.801515	0.463014	0.333329
C96	C	1.134848	0.796348	0.666662
C97	C	0.482328	0.025836	0.000051
C98	C	0.815662	0.359170	0.333384
C99	C	1.148995	0.692503	0.666718
C100	C	0.422929	0.025124	0.000061
C101	C	0.756263	0.358457	0.333395
C102	C	1.089596	0.691791	0.666728
C103	C	0.386157	0.076692	0.000049
C104	C	0.719490	0.410025	0.333383
C105	C	1.052824	0.743359	0.666716
C106	C	-0.064136	0.019297	0.000091
C107	C	0.269197	0.352630	0.333424
C108	C	0.602530	0.685964	0.666757
C109	C	-0.123538	0.018590	0.000083
C110	C	0.209795	0.351924	0.333416
C111	C	0.543128	0.685257	0.666750
C112	C	-0.137680	0.122435	0.000035
C113	C	0.195653	0.455768	0.333368
C114	C	0.528986	0.789101	0.666701
C115	C	-0.078284	0.123142	0.000035
C116	C	0.255050	0.456475	0.333368
C117	C	0.588383	0.789808	0.666702
C118	C	-0.041512	0.071568	0.000068
C119	C	0.291821	0.404901	0.333401
C120	C	0.625154	0.738235	0.666734
O121	O	0.009675	0.168390	-0.000024
O122	O	0.343008	0.501723	0.333309
O123	O	0.676341	0.835057	0.666643
O124	O	0.035892	-0.023737	0.000141
O125	O	0.369226	0.309597	0.333475
O126	O	0.702559	0.642930	0.666808
C127	C	0.677071	-0.030012	0.000095
C128	C	1.010404	0.303321	0.333428
C129	C	1.343738	0.636654	0.666761
C130	C	0.676305	-0.093229	0.000115
C131	C	1.009638	0.240104	0.333449
C132	C	1.342972	0.573437	0.666782
C133	C	0.621110	-0.359397	0.000022
C134	C	0.954443	-0.026063	0.333355
C135	C	1.287776	0.307270	0.666688
C136	C	0.621821	-0.299997	0.000032
C137	C	0.955154	0.033337	0.333366
C138	C	1.288488	0.366670	0.666699
O139	O	0.578035	-0.263252	-0.000017
O140	O	0.911368	0.070081	0.333316
O141	O	1.244702	0.403415	0.666649
N142	N	0.674097	-0.277370	0.000056
N143	N	1.007431	0.055963	0.333389
N144	N	1.340764	0.389296	0.666723
C145	C	0.725666	-0.314148	0.000055
C146	C	1.058999	0.019186	0.333388
C147	C	1.392332	0.352519	0.666722
O148	O	0.770196	-0.289448	0.000075
O149	O	1.103529	0.043885	0.333408
O150	O	1.436863	0.377219	0.666742
C151	C	0.724953	-0.373547	0.000035
C152	C	1.058287	-0.040214	0.333368
C153	C	1.391620	0.293120	0.666701
C154	C	0.672674	-0.396170	0.000025
C155	C	1.006007	-0.062836	0.333358
C156	C	1.339340	0.270497	0.666692
C157	C	0.568834	-0.382020	0.000010
C158	C	0.902167	-0.048687	0.333344
C159	C	1.235501	0.284647	0.666677
C160	C	0.568123	-0.441416	0.000002
C161	C	0.901456	-0.108083	0.333336
C162	C	1.234790	0.225250	0.666669
C163	C	0.619687	-0.478189	0.000006
C164	C	0.953021	-0.144856	0.333339
C165	C	1.286354	0.188478	0.666672
C166	C	0.671963	-0.455566	0.000017
C167	C	1.005296	-0.122232	0.333350
C168	C	1.338629	0.211101	0.666684
C169	C	0.776521	-0.410323	0.000024
C170	C	1.109854	-0.076990	0.333357
C171	C	1.443188	0.256343	0.666691
C172	C	0.775805	-0.469726	0.000003
C173	C	1.109138	-0.136392	0.333336
C174	C	1.442471	0.196941	0.666669
C175	C	0.723525	-0.492348	-0.000007
C176	C	1.056858	-0.159015	0.333326
C177	C	1.390192	0.174318	0.666660
C178	C	0.722816	-0.551735	0.000012
C179	C	1.056149	-0.218401	0.333345
C180	C	1.389482	0.114932	0.666679
N181	N	0.670539	-0.574361	-0.000011
N182	N	1.003873	-0.241028	0.333322
N183	N	1.337206	0.092306	0.666655
C184	C	0.618975	-0.537588	-0.000015
C185	C	0.952308	-0.204255	0.333319
C186	C	1.285642	0.129079	0.666652
C187	C	0.727157	-0.189405	0.000096
C188	C	1.060490	0.143928	0.333429
C189	C	1.393824	0.477261	0.666762
C190	C	0.727870	-0.130007	0.000126
C191	C	1.061203	0.203326	0.333459
C192	C	1.394536	0.536659	0.666792
C193	C	0.624025	-0.115860	0.000100
C194	C	0.957358	0.217473	0.333434
C195	C	1.290691	0.550807	0.666767
C196	C	0.623313	-0.175259	0.000080
C197	C	0.956646	0.158074	0.333413
C198	C	1.289979	0.491407	0.666747
C199	C	0.674881	-0.212031	0.000072
C200	C	1.008214	0.121302	0.333405
C201	C	1.341547	0.454635	0.666739
C202	C	0.617485	-0.662325	-0.000030
C203	C	0.950819	-0.328992	0.333303
C204	C	1.284152	0.004342	0.666636
C205	C	0.616779	-0.721727	-0.000033
C206	C	0.950112	-0.388394	0.333300
C207	C	1.283446	-0.055060	0.666634
C208	C	0.720623	-0.735869	-0.000015
C209	C	1.053957	-0.402536	0.333319
C210	C	1.387290	-0.069202	0.666652
C211	C	0.721330	-0.676472	-0.000005
C212	C	1.054664	-0.343139	0.333328
C213	C	1.387997	-0.009805	0.666662
C214	C	0.669757	-0.639701	-0.000018
C215	C	1.003090	-0.306368	0.333316
C216	C	1.336423	0.026966	0.666649
O217	O	0.766579	-0.588514	0.000056
O218	O	1.099912	-0.255181	0.333390
O219	O	1.433245	0.078153	0.666723
O220	O	0.574452	-0.562296	-0.000052
O221	O	0.907785	-0.228963	0.333281
O222	O	1.241119	0.104371	0.666614
C223	C	0.776472	0.069389	0.000061
C224	C	1.109805	0.402722	0.333394
C225	C	1.443138	0.736055	0.666728
C226	C	0.839689	0.070155	0.000060
C227	C	1.173022	0.403488	0.333393
C228	C	1.506355	0.736821	0.666726
C229	C	0.667577	0.178283	-0.000000
C230	C	1.000911	0.511617	0.333333
C231	C	1.334244	0.844950	0.666667
C232	C	0.668343	0.241500	-0.000030
C233	C	1.001676	0.574834	0.333304
C234	C	1.335010	0.908167	0.666637
N235	N	0.672318	0.074135	0.353678
N236	N	1.005651	0.407468	0.687011
N237	N	1.338985	0.740802	1.020345
N238	N	0.672335	0.074132	-0.353580
N239	N	1.005668	0.407465	-0.020247
N240	N	1.339001	0.740798	0.313086
C241	C	0.709241	0.037054	0.421476
C242	C	1.042574	0.370387	0.754810
C243	C	1.375908	0.703720	1.088143
C244	C	0.709250	0.037052	0.578639
C245	C	1.042584	0.370385	0.911973
C246	C	1.375917	0.703718	1.245306
H247	H	0.378846	0.170964	-0.000004
H248	H	0.712179	0.504297	0.333329
H249	H	1.045512	0.837630	0.666662
H250	H	0.817798	-0.499664	-0.000011
H251	H	1.151132	-0.166330	0.333322
H252	H	1.484465	0.167003	0.666655
F253	F	0.631016	0.115633	0.570224
F254	F	0.964349	0.448966	0.903558
F255	F	1.297683	0.782299	1.236891
F256	F	0.783513	-0.105937	0.000156
F257	F	1.116846	0.227396	0.333489
F258	F	1.450179	0.560729	0.666822
H259	H	0.486595	0.172252	-0.000040
H260	H	0.819928	0.505586	0.333293
H261	H	1.153262	0.838919	0.666627
F262	F	0.631005	0.115627	0.429882
F263	F	0.964338	0.448960	0.763216
F264	F	1.297671	0.782293	1.096549
F265	F	0.398858	-0.030518	0.000087
F266	F	0.732192	0.302815	0.333421
F267	F	1.065525	0.636148	0.666754
F268	F	0.561133	-0.745800	-0.000040
F269	F	0.894467	-0.412466	0.333293
F270	F	1.227800	-0.079133	0.666627
H271	H	-0.141954	-0.023984	0.000096
H272	H	0.191379	0.309349	0.333429
H273	H	0.524713	0.642683	0.666763
F274	F	0.132703	-0.085709	0.000119
F275	F	0.466037	0.247624	0.333453
F276	F	0.799370	0.580957	0.666786
F277	F	-0.025010	-0.035594	0.000125
F278	F	0.308324	0.297740	0.333458
F279	F	0.641657	0.631073	0.666791
H280	H	0.246104	-0.071347	0.000134
H281	H	0.579437	0.261987	0.333467
H282	H	0.912770	0.595320	0.666801
F283	F	0.211929	0.233977	0.000014
F284	F	0.545262	0.567310	0.333348
F285	F	0.878595	0.900643	0.666681
F286	F	0.521475	-0.029043	0.000075
F287	F	0.854809	0.304290	0.333408
F288	F	1.188142	0.637623	0.666742
H289	H	0.740864	0.005307	0.636943
H290	H	1.074197	0.338640	0.970276
H291	H	1.407530	0.671974	1.303610
F292	F	-0.176827	0.177310	0.000002
F293	F	0.156507	0.510644	0.333336
F294	F	0.489840	0.843977	0.666669
F295	F	0.089330	0.232503	0.000040
F296	F	0.422663	0.565837	0.333374
F297	F	0.755997	0.899170	0.666707
H298	H	0.740844	0.005306	0.363172
H299	H	1.074177	0.338640	0.696506
H300	H	1.407511	0.671973	1.029839
H301	H	-0.059863	0.165712	0.000017
H302	H	0.273470	0.499045	0.333350
H303	H	0.606803	0.832379	0.666684
H304	H	0.582038	-0.085909	0.000099
H305	H	0.915372	0.247425	0.333432
H306	H	1.248705	0.580758	0.666765
F307	F	0.512479	-0.465485	-0.000020
F308	F	0.845813	-0.132152	0.333313
F309	F	1.179146	0.201182	0.666646
F310	F	0.562595	-0.623198	-0.000043
F311	F	0.895928	-0.289865	0.333291
F312	F	1.229262	0.043468	0.666624
H313	H	0.526842	-0.352085	0.000003
H314	H	0.860175	-0.018751	0.333337
H315	H	1.193508	0.314582	0.666670
F316	F	0.567670	-0.199330	0.000068
F317	F	0.901004	0.134003	0.333401
F318	F	1.234337	0.467336	0.666734
H319	H	0.769152	-0.219343	0.000098
H320	H	1.102486	0.113991	0.333432
H321	H	1.435819	0.447324	0.666765
H322	H	0.819093	-0.391915	0.000031
H323	H	1.152426	-0.058581	0.333364
H324	H	1.485759	0.274752	0.666698
F325	F	0.776972	-0.652395	0.000049
F326	F	1.110305	-0.319061	0.333382
F327	F	1.443638	0.014272	0.666715
F328	F	0.775499	-0.775015	-0.000001
F329	F	1.108832	-0.441682	0.333332
F330	F	1.442165	-0.108349	0.666665
