data_functionalizedCrystal
_audit_creation_method	'MofGen! by Chris Wilmer'
_symmetry_space_group_name_H-M	'P1'
_symmetry_Int_Tables_number	1
_symmetry_cell_setting	triclinic
loop_
_symmetry_equiv_pos_as_xyz
  x,y,z
_cell_length_a	12.759401
_cell_length_b	18.050589
_cell_length_c	12.759393
_cell_angle_alpha	89.970454
_cell_angle_beta	89.979062
_cell_angle_gamma	90.029746
loop_
_atom_site_label
_atom_site_type_symbol
_atom_site_fract_x
_atom_site_fract_y
_atom_site_fract_z
Zn1	Zn	1.606168	-0.295593	-0.594027
Zn2	Zn	1.606017	-0.419801	-0.418350
Zn3	Zn	1.430466	-0.295633	-0.418362
Zn4	Zn	1.430417	-0.419749	-0.593987
O5	O	1.518267	-0.357694	-0.506182
O6	O	1.753169	-0.312075	-0.570735
O7	O	1.582688	-0.403368	-0.271331
O8	O	1.453857	-0.191703	-0.441686
O9	O	1.753058	-0.403330	-0.441666
O10	O	1.582944	-0.191674	-0.570746
O11	O	1.453711	-0.312142	-0.271339
O12	O	1.283439	-0.312092	-0.441648
O13	O	1.453773	-0.403241	-0.741014
O14	O	1.283402	-0.403280	-0.570679
O15	O	1.582896	-0.312025	-0.741043
O16	O	1.582640	-0.523719	-0.441627
O17	O	1.453627	-0.523681	-0.570667
C18	C	1.245300	-0.357685	-0.506161
C19	C	1.128523	-0.357699	-0.506177
C20	C	1.518140	-0.550646	-0.506164
C21	C	1.518182	-0.633192	-0.506192
C22	C	1.073670	-0.405253	-0.573257
C23	C	0.963946	-0.405256	-0.573278
C24	C	0.963938	-0.310149	-0.439129
C25	C	1.073660	-0.310143	-0.439114
C26	C	1.448094	-0.832649	-0.576339
C27	C	1.422478	-0.882097	-0.480470
C28	C	1.518285	-0.784322	-0.506206
C29	C	1.543953	-0.881956	-0.602085
C30	C	1.518383	-0.930307	-0.506227
C31	C	1.492619	-0.832683	-0.410286
C32	C	1.614139	-0.832538	-0.531966
C33	C	1.588559	-0.881964	-0.436031
C34	C	1.518226	-0.700224	-0.506194
C35	C	1.518442	-1.014404	-0.506228
C36	C	1.792300	-0.357704	-0.506203
C37	C	1.909077	-0.357708	-0.506212
C38	C	1.518346	-0.357623	-0.780215
C39	C	1.518379	-0.357592	-0.896992
C40	C	1.518423	-0.163989	-0.506222
C41	C	1.518489	-0.081443	-0.506239
C42	C	1.585619	-0.310088	-0.951871
C43	C	1.585637	-0.310056	-1.061595
C44	C	1.451172	-0.405039	-1.061552
C45	C	1.451150	-0.405067	-0.951829
C46	C	1.518249	-0.357712	-0.233214
C47	C	1.518419	-0.357533	-0.116438
H48	H	0.919289	-0.443978	-0.627904
H49	H	1.118323	-0.271414	-0.384489
H50	H	1.341464	-0.903882	-0.458702
H51	H	0.919255	-0.271432	-0.384527
H52	H	1.695134	-0.810755	-0.553780
O53	O	1.650949	-0.263899	-0.898763
C54	C	1.710316	-0.221976	-0.970735
H55	H	1.667300	-0.219385	-1.048942
H56	H	1.790090	-0.249171	-0.982412
C57	C	1.778347	-0.146129	-0.831881
C58	C	1.725509	-0.142941	-0.927933
H59	H	1.787723	-0.097378	-0.805477
H60	H	1.738353	-0.174375	-0.783390
H61	H	1.844819	-0.168795	-0.841624
H62	H	1.659033	-0.120285	-0.918185
H63	H	1.765492	-0.114690	-0.976421
O64	O	1.466474	-0.806940	-0.313601
C65	C	1.374935	-0.763527	-0.320904
H66	H	1.329250	-0.779945	-0.394067
H67	H	1.397348	-0.702482	-0.325963
C68	C	1.362488	-0.756223	-0.133355
C69	C	1.306373	-0.776392	-0.223211
H70	H	1.320197	-0.764155	-0.073092
H71	H	1.424162	-0.785469	-0.128434
H72	H	1.381162	-0.705353	-0.137586
H73	H	1.287711	-0.827262	-0.218985
H74	H	1.244694	-0.747155	-0.228128
H75	H	1.640388	-0.271372	-1.106272
H76	H	1.396439	-0.443693	-1.106214
O77	O	1.377039	-0.806844	-0.646877
C78	C	1.276137	-0.832116	-0.619342
H79	H	1.274211	-0.846010	-0.532197
H80	H	1.256447	-0.883792	-0.666759
C81	C	1.197486	-0.754084	-0.749967
C82	C	1.195118	-0.771142	-0.642931
H83	H	1.147508	-0.716474	-0.764521
H84	H	1.265465	-0.737059	-0.768521
H85	H	1.181080	-0.797152	-0.789468
H86	H	1.211536	-0.728076	-0.603432
H87	H	1.127139	-0.788158	-0.624370
H88	H	1.118336	-0.443974	-0.627867
O89	O	1.659305	-0.907606	-0.365067
C90	C	1.631920	-0.882349	-0.264164
H91	H	1.544746	-0.868622	-0.262087
H92	H	1.679254	-0.830574	-0.244686
C93	C	1.762893	-0.960101	-0.185613
C94	C	1.655822	-0.943248	-0.183059
H95	H	1.777640	-0.997664	-0.135582
H96	H	1.781346	-0.977115	-0.253593
H97	H	1.802325	-0.916951	-0.169384
H98	H	1.616392	-0.986395	-0.199301
H99	H	1.637362	-0.926242	-0.115080
H100	H	1.396388	-0.443750	-0.907146
O101	O	1.569690	-0.907690	-0.698885
C102	C	1.495411	-0.882579	-0.772554
H103	H	1.455372	-0.830620	-0.741380
H104	H	1.434246	-0.927604	-0.786248
C105	C	1.600158	-0.928331	-0.914926
C106	C	1.550987	-0.864511	-0.876642
H107	H	1.634438	-0.917189	-0.979134
H108	H	1.650200	-0.945252	-0.865294
H109	H	1.549179	-0.965846	-0.926329
H110	H	1.601968	-0.827001	-0.865227
H111	H	1.500955	-0.847583	-0.926274
