data_functionalizedCrystal
_audit_creation_method	'MofGen! by Chris Wilmer'
_symmetry_space_group_name_H-M	'P1'
_symmetry_Int_Tables_number	1
_symmetry_cell_setting	triclinic
loop_
_symmetry_equiv_pos_as_xyz
  x,y,z
_cell_length_a	17.639617
_cell_length_b	12.594516
_cell_length_c	17.639306
_cell_angle_alpha	101.189135
_cell_angle_beta	65.670249
_cell_angle_gamma	101.202304
loop_
_atom_site_label
_atom_site_type_symbol
_atom_site_fract_x
_atom_site_fract_y
_atom_site_fract_z
Zn1	Zn	1.354262	-0.251947	-0.721164
Zn2	Zn	1.326335	-0.400019	-0.583348
Zn3	Zn	1.188585	-0.251906	-0.555457
Zn4	Zn	1.216408	-0.459749	-0.693220
O5	O	1.271398	-0.340905	-0.638297
O6	O	1.465899	-0.246609	-0.726250
O7	O	1.284731	-0.355358	-0.464317
O8	O	1.210607	-0.102960	-0.577461
O9	O	1.445381	-0.355397	-0.624997
O10	O	1.332329	-0.102990	-0.699205
O11	O	1.183527	-0.246540	-0.443826
O12	O	1.076935	-0.304457	-0.550364
O13	O	1.258026	-0.457197	-0.812257
O14	O	1.097376	-0.457158	-0.651578
O15	O	1.359307	-0.304526	-0.832788
O16	O	1.311709	-0.556894	-0.597900
O17	O	1.230946	-0.600777	-0.678623
C18	C	1.057249	-0.387286	-0.594912
C19	C	0.965638	-0.407157	-0.576372
C20	C	0.717805	-0.189964	-0.779352
C21	C	0.631720	-0.208660	-0.761914
C22	C	0.610346	-0.321682	-0.656327
C23	C	0.696431	-0.303001	-0.673760
C24	C	0.750154	-0.237140	-0.735272
C25	C	0.728780	-0.350176	-0.629680
C26	C	0.814858	-0.331491	-0.647108
C27	C	0.868586	-0.265631	-0.708616
C28	C	0.836231	-0.218455	-0.752701
C29	C	0.675055	-0.416030	-0.568163
C30	C	0.707404	-0.463206	-0.524083
C31	C	0.793484	-0.444527	-0.541515
C32	C	0.847212	-0.378667	-0.603024
C33	C	0.825838	-0.491703	-0.497431
C34	C	0.911915	-0.473018	-0.514859
C35	C	0.933289	-0.359982	-0.620452
C36	C	1.271342	-0.617456	-0.638278
C37	C	1.271399	-0.735755	-0.638313
C38	C	1.227459	-0.828908	-0.682178
C39	C	1.192183	-0.887778	-0.602912
C40	C	1.306753	-0.887671	-0.717607
C41	C	1.236075	-0.793067	-0.558999
C42	C	1.350691	-0.792958	-0.673752
C43	C	1.315433	-0.851778	-0.594440
C44	C	1.486383	-0.294345	-0.681852
C45	C	1.577997	-0.274503	-0.700412
C46	C	1.314885	-0.387529	-0.853263
C47	C	1.333417	-0.407397	-0.944868
C48	C	1.271480	-0.063273	-0.638339
C49	C	1.271515	0.055037	-0.638357
C50	C	1.130934	-0.189503	-1.192833
C51	C	1.148366	-0.208191	-1.278914
C52	C	1.253739	-0.321491	-1.300229
C53	C	1.236319	-0.302809	-1.214149
C54	C	1.174915	-0.236815	-1.160457
C55	C	1.280299	-0.350120	-1.181773
C56	C	1.262877	-0.331444	-1.095699
C57	C	1.201474	-0.265456	-1.042002
C58	C	1.157492	-0.218138	-1.074383
C59	C	1.341699	-0.416120	-1.235466
C60	C	1.385679	-0.463432	-1.203090
C61	C	1.368262	-0.444749	-1.117016
C62	C	1.306859	-0.378761	-1.063318
C63	C	1.412243	-0.492067	-1.084634
C64	C	1.394821	-0.473390	-0.998561
C65	C	1.289436	-0.360085	-0.977244
C66	C	1.228127	-0.294376	-0.424177
C67	C	1.209755	-0.274174	-0.332605
H68	H	0.566592	-0.375302	-0.606241
H69	H	1.303731	-0.375227	-1.343956
H70	H	1.355884	-0.431321	-1.305552
H71	H	1.190203	-0.818080	-0.719189
H72	H	0.977035	-0.306356	-0.670545
H73	H	0.938674	-0.250414	-0.722802
C74	C	0.580368	-0.436591	-0.548988
C75	C	0.528751	-0.339978	-0.518318
C76	C	0.434065	-0.360540	-0.499142
C77	C	0.390994	-0.477716	-0.510637
C78	C	0.442611	-0.574337	-0.541310
C79	C	0.537298	-0.553775	-0.560485
H80	H	0.560634	-0.253230	-0.509807
H81	H	0.395855	-0.289014	-0.476437
H82	H	0.320901	-0.492938	-0.496443
H83	H	0.410728	-0.661085	-0.549820
H84	H	0.575507	-0.625301	-0.583191
H85	H	1.112550	-0.169654	-1.305270
H86	H	1.107500	-0.164387	-1.030665
C87	C	1.101664	-0.943514	-0.562438
C88	C	1.037676	-0.943571	-0.601065
C89	C	0.947158	-0.999305	-0.560597
C90	C	0.920626	-1.054982	-0.481503
C91	C	0.984615	-1.054926	-0.442872
C92	C	1.075134	-0.999192	-0.483339
H93	H	1.057315	-0.902354	-0.659619
H94	H	0.899789	-0.999346	-0.589195
H95	H	0.853619	-1.096239	-0.451546
H96	H	0.964976	-1.096143	-0.384317
H97	H	1.122502	-0.999152	-0.454741
H98	H	1.435672	-0.517168	-1.246817
H99	H	1.417685	-0.751693	-0.703730
C100	C	0.947509	-0.524909	-0.466375
C101	C	0.916713	-0.498293	-0.370296
C102	C	0.952307	-0.550179	-0.321807
C103	C	1.018696	-0.628681	-0.369398
C104	C	1.049496	-0.655300	-0.465483
C105	C	1.013902	-0.603415	-0.513971
H106	H	0.867564	-0.440178	-0.335061
H107	H	0.929507	-0.530473	-0.250679
H108	H	1.045045	-0.667090	-0.333504
H109	H	1.098645	-0.713416	-0.500717
H110	H	1.036702	-0.623121	-0.585099
C111	C	1.479777	-0.564666	-1.143705
C112	C	1.455999	-0.668805	-1.195620
C113	C	1.523532	-0.741407	-1.254692
C114	C	1.614843	-0.709869	-1.261848
C115	C	1.638626	-0.605725	-1.209931
C116	C	1.571093	-0.533123	-1.150859
H117	H	1.388401	-0.692155	-1.190324
H118	H	1.505925	-0.818501	-1.293125
H119	H	1.664835	-0.763614	-1.305577
H120	H	1.706224	-0.582375	-1.215227
H121	H	1.588699	-0.456029	-1.112427
C122	C	0.596141	-0.156748	-0.810404
C123	C	0.529766	-0.078228	-0.762809
C124	C	0.494189	-0.026307	-0.811293
C125	C	0.524988	-0.052906	-0.907373
C126	C	0.591367	-0.131430	-0.954974
C127	C	0.626944	-0.183351	-0.906490
H128	H	0.506964	-0.058534	-0.691679
H129	H	0.445051	0.031822	-0.776055
H130	H	0.498652	-0.014470	-0.943264
H131	H	0.614169	-0.151123	-1.026104
H132	H	0.676082	-0.241480	-0.941728
H133	H	1.206144	-0.752043	-0.491926
C134	C	1.365677	-0.866148	-0.544281
C135	C	1.337901	-0.820111	-0.450747
C136	C	1.388137	-0.834491	-0.400584
C137	C	1.466148	-0.894908	-0.443956
C138	C	1.493928	-0.940949	-0.537495
C139	C	1.443692	-0.926569	-0.587658
H140	H	1.280149	-0.775383	-0.418636
H141	H	1.367572	-0.800408	-0.331340
H142	H	1.503336	-0.905554	-0.406822
H143	H	1.551680	-0.985677	-0.569606
H144	H	1.464257	-0.960651	-0.656902
C145	C	1.347091	-0.943281	-0.808173
C146	C	1.355236	-1.066003	-0.824749
C147	C	1.395567	-1.121610	-0.915315
C148	C	1.427754	-1.054494	-0.989306
C149	C	1.419611	-0.931764	-0.972732
C150	C	1.379280	-0.876157	-0.882166
H151	H	1.331408	-1.115693	-0.769975
H152	H	1.401595	-1.212463	-0.927583
H153	H	1.457610	-1.095657	-1.056348
H154	H	1.443438	-0.882074	-1.027507
H155	H	1.373252	-0.785304	-0.869898
C156	C	1.443200	-0.525428	-0.962941
C157	C	1.510745	-0.598012	-1.021998
C158	C	1.559122	-0.650055	-0.986378
C159	C	1.539955	-0.629514	-0.891700
C160	C	1.472407	-0.556926	-0.832636
C161	C	1.424030	-0.504883	-0.868257
H162	H	1.524936	-0.613221	-1.092090
H163	H	1.609125	-0.703790	-1.030101
H164	H	1.575767	-0.668039	-0.865331
H165	H	1.458216	-0.541717	-0.762545
H166	H	1.374027	-0.451149	-0.824534
H167	H	0.663651	-0.516826	-0.473997
C168	C	1.221896	-0.287485	-0.918173
C169	C	1.231056	-0.167590	-0.931389
C170	C	1.163519	-0.094995	-0.872317
C171	C	1.086822	-0.142294	-0.800028
C172	C	1.077658	-0.262195	-0.786808
C173	C	1.145195	-0.334790	-0.845880
H174	H	1.287835	-0.132571	-0.984905
H175	H	1.170304	-0.006236	-0.882103
H176	H	1.036827	-0.088554	-0.756299
H177	H	1.020879	-0.297214	-0.733292
H178	H	1.138411	-0.423549	-0.836094
C179	C	1.063393	-0.116903	-1.133761
C180	C	1.072554	0.002992	-1.146978
C181	C	1.005017	0.075587	-1.087905
C182	C	0.928319	0.028288	-1.015616
C183	C	0.919156	-0.091613	-1.002396
C184	C	0.986693	-0.164209	-1.061469
H185	H	1.129333	0.038011	-1.200493
H186	H	1.011801	0.164346	-1.097692
H187	H	0.878325	0.082027	-0.971887
H188	H	0.862377	-0.126633	-0.948881
H189	H	0.979908	-0.252968	-1.051682
H190	H	0.879977	-0.164829	-0.802793
H191	H	0.782083	-0.545318	-0.447342
H192	H	0.761550	-0.136338	-0.829445
H193	H	1.187284	-0.250259	-0.971914
