data_functionalizedCrystal
_audit_creation_method	'MofGen! by Chris Wilmer'
_symmetry_space_group_name_H-M	'P1'
_symmetry_Int_Tables_number	1
_symmetry_cell_setting	triclinic
loop_
_symmetry_equiv_pos_as_xyz
  x,y,z
_cell_length_a	25.639239
_cell_length_b	19.077409
_cell_length_c	19.077174
_cell_angle_alpha	89.884052
_cell_angle_beta	92.270789
_cell_angle_gamma	92.340556
loop_
_atom_site_label
_atom_site_type_symbol
_atom_site_fract_x
_atom_site_fract_y
_atom_site_fract_z
Zn1	Zn	-0.186171	1.090118	-0.354303
Zn2	Zn	0.313829	1.590118	0.145697
Zn3	Zn	-0.270243	1.085290	-0.236796
Zn4	Zn	0.229757	1.585290	0.263204
Zn5	Zn	-0.186471	0.967898	-0.241514
Zn6	Zn	0.313529	1.467898	0.258486
Zn7	Zn	-0.277228	0.972547	-0.358966
Zn8	Zn	0.222772	1.472547	0.141034
O9	O	-0.230028	1.028963	-0.297895
O10	O	0.269972	1.528963	0.202105
O11	O	-0.194274	1.187811	-0.334790
O12	O	0.305726	1.687811	0.165210
O13	O	-0.256333	1.065752	-0.139091
O14	O	0.243667	1.565752	0.360909
O15	O	-0.113264	0.984186	-0.256498
O16	O	0.386736	1.484186	0.243502
O17	O	-0.256042	1.184264	-0.248458
O18	O	0.243958	1.684264	0.251542
O19	O	-0.113044	1.073980	-0.339364
O20	O	0.386956	1.573980	0.160636
O21	O	-0.194786	0.979505	-0.142557
O22	O	0.305214	1.479505	0.357443
O23	O	-0.201559	0.870182	-0.261019
O24	O	0.298441	1.370182	0.238981
O25	O	-0.267946	0.992108	-0.456678
O26	O	0.232054	1.492108	0.043322
O27	O	-0.268238	0.873597	-0.347311
O28	O	0.231762	1.373597	0.152689
O29	O	-0.201047	1.078488	-0.453253
O30	O	0.298953	1.578488	0.046747
O31	O	-0.344336	1.070260	-0.252980
O32	O	0.155664	1.570260	0.247020
O33	O	-0.349468	0.987427	-0.342737
O34	O	0.150532	1.487427	0.157263
C35	C	-0.235689	0.846393	-0.305184
C36	C	0.264311	1.346393	0.194816
C37	C	-0.238124	0.768289	-0.308319
C38	C	0.261876	1.268289	0.191681
C39	C	-0.255547	0.328842	-0.330836
C40	C	0.244453	0.828842	0.169164
C41	C	-0.253262	0.402228	-0.327878
C42	C	0.246738	0.902228	0.172122
C43	C	-0.217353	0.437123	-0.281545
C44	C	0.282647	0.937123	0.218455
C45	C	-0.183728	0.398628	-0.238164
C46	C	0.316272	0.898628	0.261836
C47	C	-0.186015	0.325242	-0.241119
C48	C	0.313985	0.825242	0.258881
C49	C	-0.206787	0.656408	-0.267893
C50	C	0.293213	1.156408	0.232107
C51	C	-0.204501	0.729799	-0.264942
C52	C	0.295499	1.229799	0.235058
C53	C	-0.274036	0.733394	-0.354655
C54	C	0.225964	1.233394	0.145345
C55	C	-0.276318	0.660007	-0.357610
C56	C	0.223682	1.160007	0.142390
C57	C	-0.242696	0.621518	-0.314226
C58	C	0.257304	1.121518	0.185774
N59	N	-0.215016	0.512136	-0.278521
N60	N	0.284984	1.012136	0.221479
N61	N	-0.245035	0.546507	-0.317246
N62	N	0.254965	1.046507	0.182754
C63	C	-0.365873	1.028844	-0.297867
C64	C	0.134127	1.528844	0.202133
C65	C	-0.423987	1.028858	-0.297876
C66	C	0.076013	1.528858	0.202124
C67	C	-0.781662	1.072214	-0.251230
C68	C	-0.281662	1.572214	0.248770
C69	C	-0.836265	1.072242	-0.251238
C70	C	-0.336265	1.572242	0.248762
O71	O	-0.862219	1.108981	-0.211547
O72	O	-0.362219	1.608981	0.288453
N73	N	-0.866265	1.029089	-0.297936
N74	N	-0.366265	1.529089	0.202064
C75	C	-0.841657	0.985910	-0.344634
C76	C	-0.341657	1.485910	0.155366
O77	O	-0.872188	0.949208	-0.384356
O78	O	-0.372188	1.449208	0.115644
C79	C	-0.787055	0.985887	-0.344629
C80	C	-0.287055	1.485887	0.155371
C81	C	-0.757058	1.029038	-0.297923
C82	C	-0.257058	1.529038	0.202077
C83	C	-0.751665	1.115363	-0.204528
C84	C	-0.251665	1.615363	0.295472
C85	C	-0.697065	1.115334	-0.204519
C86	C	-0.197065	1.615334	0.295481
C87	C	-0.672462	1.072157	-0.251212
C88	C	-0.172462	1.572157	0.248788
C89	C	-0.702458	1.029009	-0.297914
C90	C	-0.202458	1.529009	0.202086
C91	C	-0.762449	0.942712	-0.391329
C92	C	-0.262449	1.442712	0.108671
C93	C	-0.707842	0.942693	-0.391320
C94	C	-0.207842	1.442693	0.108680
C95	C	-0.677845	0.985844	-0.344614
C96	C	-0.177845	1.485844	0.155386
C97	C	-0.623255	0.985803	-0.344597
C98	C	-0.123255	1.485803	0.155403
N99	N	-0.593255	1.028957	-0.297899
N100	N	-0.093255	1.528957	0.202101
C101	C	-0.617859	1.072134	-0.251206
C102	C	-0.117859	1.572134	0.248794
C103	C	-0.956327	0.985964	-0.344643
C104	C	-0.456327	1.485964	0.155357
C105	C	-1.010929	0.985983	-0.344645
C106	C	-0.510929	1.485983	0.155355
C107	C	-1.005533	1.072316	-0.251250
C108	C	-0.505533	1.572316	0.248750
C109	C	-0.950930	1.072292	-0.251245
C110	C	-0.450930	1.572292	0.248755
C111	C	-0.926328	1.029117	-0.297945
C112	C	-0.426328	1.529117	0.202055
C113	C	-0.503195	1.072070	-0.251191
C114	C	-0.003195	1.572070	0.248809
C115	C	-0.448591	1.072035	-0.251184
C116	C	0.051409	1.572035	0.248816
C117	C	-0.453991	0.985705	-0.344581
C118	C	0.046009	1.485705	0.155419
C119	C	-0.508591	0.985736	-0.344586
C120	C	-0.008591	1.485736	0.155414
C121	C	-0.533192	1.028924	-0.297888
C122	C	-0.033192	1.528924	0.202112
O123	O	-0.597265	0.949085	-0.384270
O124	O	-0.097265	1.449085	0.115730
O125	O	-0.587322	1.108836	-0.211498
O126	O	-0.087322	1.608836	0.288502
C127	C	-0.093652	1.029103	-0.297937
C128	C	0.406348	1.529103	0.202063
C129	C	-0.035537	1.029163	-0.297955
C130	C	0.464463	1.529163	0.202045
C131	C	-0.235242	1.036355	-0.481175
C132	C	0.264758	1.536355	0.018825
C133	C	-0.237464	1.039505	-0.559278
C134	C	0.262536	1.539505	-0.059278
C135	C	-0.224345	1.212247	-0.290578
C136	C	0.275655	1.712247	0.209422
C137	C	-0.221924	1.290351	-0.287460
C138	C	0.278076	1.790351	0.212540
C139	C	-0.206465	0.996082	-0.597774
C140	C	0.293535	1.496082	-0.097774
C141	C	-0.208557	0.999039	-0.671160
C142	C	0.291443	1.499039	-0.171160
C143	C	-0.241646	1.045423	-0.706048
C144	C	0.258354	1.545423	-0.206048
C145	C	-0.272650	1.088847	-0.667546
C146	C	0.227350	1.588847	-0.167546
C147	C	-0.270560	1.085886	-0.594162
C148	C	0.229440	1.585886	-0.094162
C149	C	-0.251335	1.059091	-0.925332
C150	C	0.248665	1.559091	-0.425332
C151	C	-0.253422	1.062050	-0.998721
C152	C	0.246578	1.562050	-0.498721
C153	C	-0.189329	0.972240	-1.002330
C154	C	0.310671	1.472240	-0.502330
C155	C	-0.187240	0.969286	-0.928944
C156	C	0.312760	1.469286	-0.428944
C157	C	-0.218245	1.012708	-0.890449
C158	C	0.281755	1.512708	-0.390449
N159	N	-0.243785	1.048448	-0.781061
N160	N	0.256215	1.548448	-0.281061
N161	N	-0.216109	1.009679	-0.815438
N162	N	0.283891	1.509679	-0.315438
C163	C	-0.224795	1.021641	-0.115326
C164	C	0.275205	1.521641	0.384674
C165	C	-0.222422	1.018627	-0.037218
C166	C	0.277578	1.518627	0.462782
H167	H	-0.284786	0.300436	-0.368569
H168	H	0.215214	0.800436	0.131431
F169	F	-0.284331	1.105308	-0.884371
F170	F	0.215669	1.605308	-0.384371
H171	H	-0.523218	1.107239	-0.213166
H172	H	-0.023218	1.607239	0.286834
F173	F	-0.307870	1.138209	-0.704679
F174	F	0.192130	1.638209	-0.204679
F175	F	-1.042847	0.940047	-0.394349
F176	F	-0.542847	1.440047	0.105651
F177	F	-0.919010	1.118219	-0.201535
F178	F	-0.419010	1.618219	0.298465
F179	F	-0.289050	0.443189	-0.374044
F180	F	0.210950	0.943189	0.125956
F181	F	-0.314538	0.622875	-0.406923
F182	F	0.185462	1.122875	0.093077
H183	H	-0.160296	0.931514	-0.900544
H184	H	0.339704	1.431514	-0.400544
F185	F	-0.150231	0.284279	-0.194949
F186	F	0.349769	0.784279	0.305051
F187	F	-0.309820	0.774362	-0.400820
F188	F	0.190180	1.274362	0.099180
F189	F	-0.427797	0.939757	-0.394274
F190	F	0.072203	1.439757	0.105726
H191	H	-0.295799	1.121251	-0.562818
H192	H	0.204201	1.621251	-0.062818
F193	F	-0.665147	1.161270	-0.154815
F194	F	-0.165147	1.661270	0.345185
H195	H	-1.025575	1.107475	-0.213233
H196	H	-0.525575	1.607475	0.286767
F197	F	-0.540517	0.939797	-0.394283
F198	F	-0.040517	1.439797	0.105717
F199	F	-0.166281	0.766935	-0.215624
F200	F	0.333719	1.266935	0.284376
H201	H	-0.771691	1.150526	-0.166505
H202	H	-0.271691	1.650526	0.333495
H203	H	-0.424169	1.107173	-0.213148
H204	H	0.075831	1.607173	0.286852
F205	F	-0.170998	0.615455	-0.221725
F206	F	0.329002	1.115455	0.278275
H207	H	-0.154492	0.427045	-0.200436
H208	H	0.345508	0.927045	0.299564
H209	H	-0.936299	0.950799	-0.382670
H210	H	-0.436299	1.450799	0.117330
H211	H	-0.786863	0.907571	-0.429359
H212	H	-0.286863	1.407571	0.070641
F213	F	-0.681662	0.896740	-0.441027
F214	F	-0.181662	1.396740	0.058973
H215	H	-0.179516	0.958316	-0.569374
H216	H	0.320484	1.458316	-0.069374
H217	H	-0.183315	0.963677	-0.702501
H218	H	0.316685	1.463677	-0.202501
H219	H	-0.280368	1.099824	-1.027125
H220	H	0.219632	1.599824	-0.527125
F221	F	-0.156335	0.926029	-1.043305
F222	F	0.343665	1.426029	-0.543305
