data_functionalizedCrystal
_audit_creation_method	'MofGen! by Chris Wilmer'
_symmetry_space_group_name_H-M	'P1'
_symmetry_Int_Tables_number	1
_symmetry_cell_setting	triclinic
loop_
_symmetry_equiv_pos_as_xyz
  x,y,z
_cell_length_a	11.026607
_cell_length_b	15.021413
_cell_length_c	10.967829
_cell_angle_alpha	102.123825
_cell_angle_beta	96.380563
_cell_angle_gamma	90.008489
loop_
_atom_site_label
_atom_site_type_symbol
_atom_site_fract_x
_atom_site_fract_y
_atom_site_fract_z
O1	O	1.614543	0.154340	0.523484
O2	O	1.260739	0.145197	0.463873
O3	O	1.445797	0.122179	0.313866
O4	O	1.429485	0.177357	0.673491
O5	O	1.445767	-0.025882	0.313887
O6	O	1.260709	-0.002865	0.463894
O7	O	1.614513	0.006279	0.523504
Zn8	Zn	1.437607	-0.021801	0.493702
Zn9	Zn	1.437645	0.173276	0.493675
O10	O	1.429455	0.029296	0.673511
C11	C	1.215421	0.069479	0.452886
C12	C	1.080433	0.064450	0.420103
N13	N	1.437589	-0.154935	0.493722
C14	C	1.007384	0.078339	0.510622
C15	C	0.867866	0.073142	0.476742
C16	C	1.352004	-0.383982	0.563041
C17	C	1.462067	-0.435808	0.611982
C18	C	1.437620	-0.336546	0.493698
C19	C	1.327588	-0.461456	0.444792
C20	C	1.437640	-0.511973	0.493675
C21	C	1.547738	-0.387055	0.542707
C22	C	1.413186	-0.412707	0.375452
C23	C	1.523327	-0.464511	0.424363
C24	C	1.437607	-0.235486	0.493714
C25	C	1.437665	-0.613031	0.493661
C26	C	1.659831	0.081999	0.534491
C27	C	1.794819	0.087033	0.567274
C28	C	1.444593	0.040977	0.267121
C29	C	1.441035	0.019606	0.127802
N30	N	1.437673	0.306410	0.493647
C31	C	1.439464	0.086780	0.065684
C32	C	1.435787	0.064694	-0.078310
C33	C	1.430659	0.110501	0.720256
C34	C	1.434217	0.131877	0.859576
H35	H	0.827124	0.057425	0.374156
N36	N	1.439331	-0.073053	0.060800
N37	N	1.525244	-0.123697	0.083036
H38	H	1.524042	-0.189140	0.035718
H39	H	1.039685	0.048734	0.317524
N40	N	1.441220	0.179439	0.132694
N41	N	1.526418	0.232447	0.125889
H42	H	1.527661	0.297890	0.173213
N43	N	0.845935	0.106765	0.695964
N44	N	0.959197	0.110954	0.723307
H45	H	0.995301	0.124887	0.814193
H46	H	1.595817	-0.499361	0.365726
H47	H	1.434402	-0.009171	-0.131727
N48	N	1.664520	-0.346516	0.594733
N49	N	1.757837	-0.373820	0.544445
H50	H	1.840313	-0.345189	0.581191
N51	N	1.387187	-0.399205	0.250040
N52	N	1.288204	-0.427876	0.186944
H53	H	1.269829	-0.418341	0.098367
H54	H	1.279677	-0.348957	0.621759
N55	N	1.435936	0.224538	-0.073409
N56	N	1.438918	0.242350	0.043467
H57	H	1.440133	0.307790	0.090799
H58	H	1.048132	0.094073	0.613201
N59	N	1.487991	-0.449296	0.737416
N60	N	1.412482	-0.490958	0.783239
H61	H	1.430781	-0.500480	0.871829
N62	N	1.210842	-0.502138	0.392933
N63	N	1.117670	-0.475345	0.443841
H64	H	1.035216	-0.504075	0.407227
