data_functionalizedCrystal
_audit_creation_method	'MofGen! by Chris Wilmer'
_symmetry_space_group_name_H-M	'P1'
_symmetry_Int_Tables_number	1
_symmetry_cell_setting	triclinic
loop_
_symmetry_equiv_pos_as_xyz
  x,y,z
_cell_length_a	16.120530
_cell_length_b	19.121063
_cell_length_c	19.121175
_cell_angle_alpha	94.951770
_cell_angle_beta	84.775719
_cell_angle_gamma	89.687057
loop_
_atom_site_label
_atom_site_type_symbol
_atom_site_fract_x
_atom_site_fract_y
_atom_site_fract_z
Zn1	Zn	1.280176	-0.354302	-0.466830
Zn2	Zn	1.780176	0.145698	0.033170
Zn3	Zn	1.268666	-0.466436	-0.353667
Zn4	Zn	1.768666	0.033564	0.146333
Zn5	Zn	1.135066	-0.342821	-0.342715
Zn6	Zn	1.635066	0.157179	0.157285
Zn7	Zn	1.135010	-0.465443	-0.465332
Zn8	Zn	1.635010	0.034557	0.034668
O9	O	1.204730	-0.407250	-0.407136
O10	O	1.704730	0.092750	0.092864
O11	O	1.395313	-0.374397	-0.457030
O12	O	1.895313	0.125603	0.042970
O13	O	1.246151	-0.445649	-0.253539
O14	O	1.746151	0.054351	0.246461
O15	O	1.159156	-0.246097	-0.355222
O16	O	1.659156	0.253903	0.144778
O17	O	1.386858	-0.456781	-0.373889
O18	O	1.886858	0.043219	0.126111
O19	O	1.265767	-0.254532	-0.446410
O20	O	1.765767	0.245468	0.053590
O21	O	1.147995	-0.354829	-0.245493
O22	O	1.647995	0.145171	0.254507
O23	O	1.018394	-0.353867	-0.353769
O24	O	1.518394	0.146133	0.146231
O25	O	1.159060	-0.455090	-0.564206
O26	O	1.659060	0.044910	-0.064206
O27	O	1.018353	-0.443957	-0.443856
O28	O	1.518353	0.056043	0.056144
O29	O	1.265712	-0.373434	-0.565307
O30	O	1.765712	0.126566	-0.065307
O31	O	1.246096	-0.564551	-0.372436
O32	O	1.746096	-0.064551	0.127564
O33	O	1.147900	-0.563821	-0.454476
O34	O	1.647900	-0.063821	0.045524
C35	C	0.988124	-0.397559	-0.397462
C36	C	1.488124	0.102441	0.102538
C37	C	0.895459	-0.393430	-0.393341
C38	C	1.395459	0.106570	0.106659
C39	C	0.725801	-0.385876	-0.385822
C40	C	1.225801	0.114124	0.114178
C41	C	0.684499	-0.428679	-0.428504
C42	C	1.184499	0.071321	0.071496
C43	C	0.590095	-0.424476	-0.424320
C44	C	1.090095	0.075524	0.075680
C45	C	0.820213	-0.390078	-0.390004
C46	C	1.320213	0.109922	0.109996
C47	C	1.195766	-0.589662	-0.414498
C48	C	1.695766	-0.089662	0.085502
C49	C	1.192009	-0.667703	-0.417675
C50	C	1.692009	-0.167703	0.082325
C51	C	1.241413	-0.704726	-0.376493
C52	C	1.741413	-0.204726	0.123507
C53	C	1.237885	-0.778054	-0.379484
C54	C	1.737885	-0.278054	0.120516
C55	C	1.184948	-0.814357	-0.423655
C56	C	1.684948	-0.314357	0.076345
C57	C	1.135542	-0.777328	-0.464842
C58	C	1.635542	-0.277328	0.035158
C59	C	1.139075	-0.704002	-0.461853
C60	C	1.639075	-0.204002	0.038147
C61	C	1.171723	-1.035738	-0.434817
C62	C	1.671723	-0.535738	0.065183
C63	C	1.168192	-1.109069	-0.437801
C64	C	1.668192	-0.609069	0.062199
C65	C	1.270537	-1.109790	-0.352444
C66	C	1.770537	-0.609790	0.147556
C67	C	1.274061	-1.036462	-0.349456
C68	C	1.774061	-0.536462	0.150544
C69	C	1.224659	-0.999440	-0.390646
C70	C	1.724659	-0.499440	0.109354
C71	C	1.181338	-0.889310	-0.426713
C72	C	1.681338	-0.389310	0.073287
C73	C	1.228274	-0.924489	-0.387592
C74	C	1.728274	-0.424489	0.112408
C75	C	1.422181	-0.416981	-0.416848
C76	C	1.922181	0.083019	0.083152
C77	C	1.514846	-0.421127	-0.420987
C78	C	2.014846	0.078873	0.079013
C79	C	1.213664	-0.415432	-0.591057
C80	C	1.713664	0.084568	-0.091057
C81	C	1.217471	-0.418918	-0.669433
C82	C	1.717471	0.081082	-0.169433
C83	C	1.213751	-0.224128	-0.399762
C84	C	1.713751	0.275872	0.100238
C85	C	1.217596	-0.146093	-0.396619
C86	C	1.717596	0.353907	0.103381
C87	C	1.168158	-0.373272	-0.702064
C88	C	1.668158	0.126728	-0.202064
C89	C	1.171731	-0.376554	-0.775707
C90	C	1.671731	0.123446	-0.275707
C91	C	1.224623	-0.425479	-0.816717
C92	C	1.724623	0.074521	-0.316717
C93	C	1.273939	-0.471130	-0.784081
C94	C	1.773939	0.028870	-0.284081
C95	C	1.270360	-0.467851	-0.710439
C96	C	1.770360	0.032149	-0.210439
C97	C	1.237981	-0.437747	-1.039277
C98	C	1.737981	0.062253	-0.539277
C99	C	1.241558	-0.441021	-1.112923
C100	C	1.741558	0.058979	-0.612923
C101	C	1.139349	-0.346446	-1.104544
C102	C	1.639349	0.153554	-0.604544
C103	C	1.135779	-0.343169	-1.030901
C104	C	1.635779	0.156831	-0.530901
C105	C	1.185091	-0.388822	-0.998272
C106	C	1.685091	0.111178	-0.498272
C107	C	1.228280	-0.428833	-0.891992
C108	C	1.728280	0.071167	-0.391992
C109	C	1.181430	-0.385471	-0.922998
C110	C	1.681430	0.114529	-0.422998
C111	C	1.195881	-0.399052	-0.223931
C112	C	1.695881	0.100948	0.276069
C113	C	1.192245	-0.395375	-0.145554
C114	C	1.692245	0.104625	0.354446
H115	H	0.690262	-0.346079	-0.346142
H116	H	1.190262	0.153921	0.153858
H117	H	1.284517	-0.675173	-0.340521
H118	H	1.784517	-0.175173	0.159479
Cl119	Cl	0.739367	-0.490124	-0.489777
Cl120	Cl	1.239367	0.009876	0.010223
Cl121	Cl	1.114942	-0.323966	-0.871442
Cl122	Cl	1.614942	0.176034	-0.371442
Cl123	Cl	1.308064	-0.502525	-1.164478
Cl124	Cl	1.808064	-0.002525	-0.664478
H125	H	1.098846	-0.673858	-0.495389
H126	H	1.598846	-0.173858	0.004611
Cl127	Cl	1.299981	-0.495135	-0.998266
Cl128	Cl	1.799981	0.004865	-0.498266
Cl129	Cl	1.294771	-0.490336	-0.943554
Cl130	Cl	1.794771	0.009664	-0.443554
H131	H	1.310758	-1.139941	-0.318911
H132	H	1.810758	-0.639941	0.181089
Cl133	Cl	1.299999	-0.824596	-0.327712
Cl134	Cl	1.799999	-0.324596	0.172288
H135	H	1.317167	-1.006906	-0.313489
H136	H	1.817167	-0.506906	0.186511
H137	H	1.125095	-1.138626	-0.473783
H138	H	1.625095	-0.638626	0.026217
H139	H	1.138234	-0.918876	-0.462675
H140	H	1.638234	-0.418876	0.037325
Cl141	Cl	1.109615	-0.989205	-0.486597
Cl142	Cl	1.609615	-0.489205	0.013403
H143	H	1.092443	-0.806892	-0.500810
H144	H	1.592443	-0.306892	-0.000810
Cl145	Cl	1.294824	-0.878850	-0.332068
Cl146	Cl	1.794824	-0.378850	0.167932
Cl147	Cl	1.101665	-0.311761	-0.650516
Cl148	Cl	1.601665	0.188239	-0.150516
Cl149	Cl	1.069285	-0.281660	-0.979351
Cl150	Cl	1.569285	0.218340	-0.479351
Cl151	Cl	1.109694	-0.319199	-0.816726
Cl152	Cl	1.609694	0.180801	-0.316726
Cl153	Cl	1.077358	-0.289060	-1.145569
Cl154	Cl	1.577358	0.210940	-0.645569
H155	H	1.317000	-0.510968	-0.817477
H156	H	1.817000	-0.010968	-0.317477
Cl157	Cl	1.332353	-0.525240	-0.669417
Cl158	Cl	1.832353	-0.025240	-0.169417
