data_functionalizedCrystal
_audit_creation_method	'MofGen! by Chris Wilmer'
_symmetry_space_group_name_H-M	'P1'
_symmetry_Int_Tables_number	1
_symmetry_cell_setting	triclinic
loop_
_symmetry_equiv_pos_as_xyz
  x,y,z
_cell_length_a	16.959455
_cell_length_b	11.169416
_cell_length_c	11.169409
_cell_angle_alpha	89.969126
_cell_angle_beta	90.022047
_cell_angle_gamma	89.992713
loop_
_atom_site_label
_atom_site_type_symbol
_atom_site_fract_x
_atom_site_fract_y
_atom_site_fract_z
Zn1	Zn	1.208498	0.477808	0.678626
Zn2	Zn	1.208425	0.678548	0.477948
Zn3	Zn	1.076308	0.477867	0.477953
Zn4	Zn	1.076313	0.678437	0.678585
O5	O	1.142386	0.578165	0.578278
O6	O	1.319099	0.504458	0.652021
O7	O	1.190867	0.651999	0.309999
O8	O	1.093872	0.309909	0.504591
O9	O	1.319045	0.651941	0.504584
O10	O	1.190991	0.309866	0.652025
O11	O	1.093801	0.504559	0.310002
O12	O	0.965698	0.504451	0.504552
O13	O	1.093880	0.651751	0.846540
O14	O	0.965702	0.651809	0.651956
O15	O	1.190996	0.504350	0.846570
O16	O	1.190871	0.846483	0.504544
O17	O	1.093810	0.846401	0.651951
C18	C	0.937020	0.578125	0.578250
C19	C	0.849163	0.578137	0.578267
C20	C	1.142355	0.889990	0.578269
C21	C	1.142413	1.023390	0.578305
C22	C	1.142447	0.578032	0.891321
C23	C	1.142472	0.577975	1.024721
C24	C	0.477661	0.501373	0.501685
C25	C	0.477714	0.655056	0.654940
C26	C	0.560260	0.655039	0.654932
C27	C	0.601510	0.578189	0.578299
C28	C	0.560215	0.501356	0.501673
C29	C	0.601561	0.731878	0.731548
C30	C	0.684112	0.731865	0.731543
C31	C	0.725364	0.655008	0.654915
C32	C	0.684064	0.578172	0.578287
C33	C	0.725314	0.501322	0.501653
C34	C	0.684015	0.424478	0.425030
C35	C	0.601467	0.424499	0.425045
C36	C	0.807913	0.654987	0.654901
C37	C	0.807868	0.501305	0.501641
C38	C	1.348554	0.578206	0.578306
C39	C	1.436411	0.578223	0.578318
C40	C	1.142439	0.265123	0.578313
C41	C	1.142461	0.131723	0.578329
C42	C	1.142371	0.578211	0.266453
C43	C	1.142498	0.577930	0.133054
H44	H	0.841448	0.438716	0.439243
H45	H	0.841534	0.717556	0.717282
C46	C	0.729397	0.339946	0.340736
C47	C	0.786171	0.245781	0.392898
C48	C	0.831557	0.161253	0.308606
C49	C	0.820170	0.170889	0.172152
C50	C	0.763393	0.265057	0.119983
C51	C	0.718007	0.349586	0.204274
H52	H	0.794603	0.238645	0.493916
H53	H	0.873587	0.091543	0.347226
H54	H	0.853767	0.108316	0.109754
H55	H	0.754961	0.272194	0.018965
H56	H	0.675977	0.419295	0.165654
C57	C	0.556032	0.339986	0.340763
C58	C	0.499290	0.245844	0.392938
C59	C	0.453850	0.161337	0.308657
C60	C	0.465152	0.170971	0.172200
C61	C	0.521897	0.265117	0.120017
C62	C	0.567337	0.349625	0.204299
H63	H	0.490921	0.238709	0.493958
H64	H	0.411843	0.091644	0.347287
H65	H	0.431515	0.108414	0.109810
H66	H	0.530266	0.272253	0.018997
H67	H	0.609344	0.419318	0.165669
H68	H	0.717731	0.794435	0.793935
H69	H	0.567969	0.794454	0.793930
C70	C	0.432235	0.416849	0.417404
C71	C	0.375504	0.322692	0.469581
C72	C	0.330076	0.238168	0.385300
C73	C	0.341380	0.247801	0.248844
C74	C	0.398114	0.341962	0.196660
C75	C	0.443541	0.426486	0.280940
H76	H	0.367134	0.315558	0.570600
H77	H	0.288078	0.168464	0.423931
H78	H	0.307751	0.185232	0.186454
H79	H	0.406483	0.349097	0.095640
H80	H	0.485539	0.496190	0.242310
C81	C	0.432339	0.739585	0.739232
C82	C	0.375572	0.833763	0.687077
C83	C	0.330192	0.918293	0.771376
C84	C	0.341580	0.908645	0.907829
C85	C	0.398350	0.814463	0.959991
C86	C	0.443729	0.729933	0.875692
H87	H	0.367140	0.840909	0.586060
H88	H	0.288168	0.988013	0.732762
H89	H	0.307988	0.971219	0.970232
H90	H	0.406782	0.807318	1.061008
H91	H	0.485754	0.660213	0.914306
