data_functionalizedCrystal
_audit_creation_method	'MofGen! by Chris Wilmer'
_symmetry_space_group_name_H-M	'P1'
_symmetry_Int_Tables_number	1
_symmetry_cell_setting	triclinic
loop_
_symmetry_equiv_pos_as_xyz
  x,y,z
_cell_length_a	27.732048
_cell_length_b	13.262402
_cell_length_c	11.804365
_cell_angle_alpha	93.583660
_cell_angle_beta	101.725897
_cell_angle_gamma	83.577423
loop_
_atom_site_label
_atom_site_type_symbol
_atom_site_fract_x
_atom_site_fract_y
_atom_site_fract_z
O1	O	0.097372	1.320675	0.328725
O2	O	0.095367	1.034948	0.236175
O3	O	0.026309	1.186681	0.285346
O4	O	0.166430	1.168942	0.279555
O5	O	0.044470	1.146736	0.470457
O6	O	0.113528	0.995002	0.421286
O7	O	0.115533	1.280730	0.513837
Cu8	Cu	0.116189	1.134219	0.484464
Cu9	Cu	0.094711	1.181459	0.265548
O10	O	0.184591	1.128997	0.464666
C11	C	0.102889	0.978432	0.316894
C12	C	0.098239	0.869544	0.281625
C13	C	0.086154	0.840162	0.164148
C14	C	0.081791	0.737855	0.131013
C15	C	0.089507	0.664920	0.215351
C16	C	0.101589	0.694303	0.332830
C17	C	0.105957	0.796619	0.365969
C18	C	0.109310	0.621377	0.417172
C19	C	0.121392	0.650759	0.534651
C20	C	0.125759	0.753066	0.567784
C21	C	0.118042	0.826000	0.483446
C22	C	0.104942	0.519061	0.384033
C23	C	0.124745	0.475517	0.585854
C24	C	0.129108	0.577825	0.618989
C25	C	0.017369	1.166335	0.377784
C26	C	-0.036328	1.165211	0.377430
C27	C	-0.372040	1.247828	0.404129
C28	C	-0.573858	1.243669	0.402765
O29	O	-0.602276	1.319216	0.427184
N30	N	-0.596367	1.153695	0.373623
C31	C	-0.568419	1.064755	0.344812
O32	O	-0.592196	0.988134	0.319981
C33	C	-0.366603	1.068917	0.346168
C34	C	-0.344096	1.158895	0.375324
C35	C	-0.349533	1.337799	0.433281
C36	C	-0.299081	1.338836	0.433628
C37	C	-0.271136	1.249903	0.404822
C38	C	-0.293644	1.159932	0.375670
C39	C	-0.338657	0.979980	0.317349
C40	C	-0.288200	0.981029	0.317688
C41	C	-0.265693	1.071007	0.346844
C42	C	-0.215247	1.072036	0.347211
N43	N	-0.192738	1.162011	0.376354
C44	C	-0.220683	1.250944	0.405160
C45	C	-0.674375	1.062576	0.344104
C46	C	-0.724829	1.061535	0.343767
C47	C	-0.730265	1.240450	0.401719
C48	C	-0.679809	1.241488	0.402063
C49	C	-0.651866	1.152551	0.373247
C50	C	-0.114729	1.253116	0.405886
C51	C	-0.064272	1.254145	0.406235
C52	C	-0.058841	1.075232	0.348278
C53	C	-0.109294	1.074201	0.347935
C54	C	-0.137237	1.163152	0.376738
O55	O	-0.186800	0.996533	0.322794
O56	O	-0.196899	1.327560	0.429962
C57	C	-0.422492	1.246791	0.403782
C58	C	-0.445000	1.156820	0.374630
C59	C	-0.417055	1.067887	0.345825
C60	C	-0.495453	1.155779	0.374293
C61	C	-0.523398	1.244712	0.403099
C62	C	-0.500889	1.334686	0.432241
C63	C	-0.450437	1.335724	0.432588
C64	C	-0.439564	0.977912	0.316682
C65	C	-0.490016	0.976882	0.316339
C66	C	-0.517961	1.065815	0.345144
C67	C	0.193531	1.149343	0.372225
C68	C	0.247227	1.150468	0.372572
C69	C	0.108011	1.337246	0.433115
C70	C	0.112660	1.446136	0.468377
N71	N	0.131294	1.101000	0.638439
N72	N	0.079602	1.214685	0.111575
C73	C	0.043318	1.294456	1.075079
C74	C	0.031889	1.319585	0.958561
C75	C	0.056739	1.264941	0.878525
C76	C	0.093021	1.185164	0.915019
C77	C	0.104455	1.160037	1.031550
C78	C	0.117875	1.130522	0.834996
C79	C	0.154158	1.050745	0.871489
C80	C	0.165589	1.025622	0.988009
C81	C	0.140738	1.080267	1.068045
C82	C	0.106442	1.155648	0.718464
C83	C	0.167578	1.021229	0.674935
C84	C	0.179008	0.996100	0.791453
H85	H	-0.045949	1.327418	0.429981
C86	C	0.142402	0.610152	0.748209
H87	H	0.143901	0.681529	0.755859
H88	H	0.117857	0.592344	0.786817
H89	H	0.173659	0.576537	0.781665
H90	H	0.095106	0.495149	0.288380
C91	C	0.068501	0.705535	0.001799
H92	H	0.067010	0.634156	-0.005858
H93	H	0.037249	0.739150	-0.031665
H94	H	0.093054	0.723344	-0.036797
H95	H	0.187815	0.976735	0.609769
C96	C	0.077671	0.920381	0.071387
H97	H	0.069853	0.888233	-0.003325
H98	H	0.051066	0.969108	0.082689
H99	H	0.106870	0.953284	0.077556
C100	C	0.084706	0.552386	0.178903
H101	H	0.076402	0.545333	0.096860
H102	H	0.115273	0.513293	0.206108
H103	H	0.059469	0.529107	0.211241
H104	H	0.131030	0.416132	0.654529
H105	H	-0.416817	0.905491	0.293222
C106	C	-0.514769	0.877900	0.284262
H107	H	-0.490897	0.825091	0.267146
H108	H	-0.528014	0.859833	0.347464
H109	H	-0.540663	0.887714	0.218358
C110	C	0.122840	0.938539	0.519898
H111	H	0.131139	0.945596	0.601943
H112	H	0.148069	0.961832	0.487554
H113	H	0.092265	0.977620	0.492700
C114	C	-0.363405	0.881005	0.285268
H115	H	-0.339531	0.828201	0.268149
H116	H	-0.376647	0.862933	0.348472
H117	H	-0.389300	0.890815	0.219366
C118	C	0.218920	0.908357	0.831608
H119	H	0.222170	0.901228	0.912469
H120	H	0.209561	0.847082	0.791351
H121	H	0.249655	0.922643	0.815793
C122	C	-0.145459	1.350957	0.437578
H123	H	-0.124821	1.404680	0.454998
H124	H	-0.171583	1.368214	0.374104
H125	H	-0.158923	1.340339	0.503212
C126	C	-0.274331	1.437817	0.465678
H127	H	-0.298207	1.490629	0.482769
H128	H	-0.248432	1.428030	0.531569
H129	H	-0.261095	1.455872	0.402450
C130	C	0.205501	0.937878	1.028159
H131	H	0.208753	0.930747	1.109020
H132	H	0.196141	0.876604	0.987900
H133	H	0.236236	0.952164	1.012340
H134	H	-0.372281	1.410224	0.456735
H135	H	-0.127617	1.000927	0.324225
H136	H	0.047431	1.285404	0.783651
C137	C	0.139052	0.785389	0.697005
H138	H	0.140553	0.856765	0.704660
H139	H	0.114506	0.767580	0.735610
H140	H	0.170308	0.751770	0.730461
H141	H	-0.265451	0.908604	0.294219
C142	C	-0.655057	1.340465	0.434124
H143	H	-0.678930	1.393277	0.451224
H144	H	-0.629157	1.330666	0.500011
H145	H	-0.641821	1.358525	0.370897
H146	H	0.076901	1.220603	0.688762
H147	H	-0.753026	1.312863	0.425174
H148	H	-0.036079	1.002824	0.324829
C149	C	-0.425686	1.434703	0.464648
H150	H	-0.449562	1.487514	0.481741
H151	H	-0.399788	1.424909	0.530539
H152	H	-0.412449	1.452762	0.401424
C153	C	-0.749581	0.962558	0.311705
H154	H	-0.725709	0.909749	0.294587
H155	H	-0.762822	0.944494	0.374914
H156	H	-0.775477	0.972366	0.245805
C157	C	-0.643642	0.964735	0.312418
H158	H	-0.664277	0.911006	0.295029
H159	H	-0.630174	0.975336	0.246792
H160	H	-0.617519	0.947490	0.375909
H161	H	-0.523650	1.407098	0.455701
H162	H	0.002349	1.384539	0.928853
C163	C	0.015988	1.354556	1.163116
H164	H	0.027993	1.328161	1.237738
H165	H	0.021602	1.424064	1.165183
H166	H	-0.018494	1.348506	1.140748
H167	H	0.150043	1.059804	1.162924
