data_functionalizedCrystal
_audit_creation_method	'MofGen! by Chris Wilmer'
_symmetry_space_group_name_H-M	'P1'
_symmetry_Int_Tables_number	1
_symmetry_cell_setting	triclinic
loop_
_symmetry_equiv_pos_as_xyz
  x,y,z
_cell_length_a	14.853567
_cell_length_b	14.853559
_cell_length_c	16.053802
_cell_angle_alpha	92.571272
_cell_angle_beta	87.418119
_cell_angle_gamma	83.633192
loop_
_atom_site_label
_atom_site_type_symbol
_atom_site_fract_x
_atom_site_fract_y
_atom_site_fract_z
O1	O	1.200156	0.113917	-0.069367
O2	O	0.937697	0.127938	-0.069381
O3	O	1.075942	-0.010303	-0.069373
O4	O	1.061912	0.252158	-0.069376
O5	O	1.068332	-0.002725	0.069485
O6	O	0.930088	0.135515	0.069477
O7	O	1.192547	0.121495	0.069491
Zn8	Zn	1.060109	0.129708	0.091531
Zn9	Zn	1.070135	0.119724	-0.091421
O10	O	1.054303	0.259735	0.069483
C11	C	0.900304	0.131091	0.000046
C12	C	0.800221	0.129187	0.000041
C13	C	0.387689	0.039022	0.000060
C14	C	0.366403	0.203255	0.000058
C15	C	0.460437	0.205045	0.000055
C16	C	0.518101	0.123822	0.000054
C17	C	0.481732	0.040809	0.000055
C18	C	0.496814	0.288056	0.000045
C19	C	0.590853	0.289850	0.000042
C20	C	0.648519	0.208626	0.000046
C21	C	0.612144	0.125610	0.000049
C22	C	0.669808	0.044387	0.000047
C23	C	0.633435	-0.038630	0.000055
C24	C	0.539397	-0.040414	0.000060
C25	C	0.742556	0.210410	0.000042
C26	C	0.763851	0.046174	0.000042
C27	C	1.071503	-0.040103	0.000055
C28	C	1.069602	-0.140187	0.000050
C29	C	1.065686	-0.567493	-0.075643
C30	C	1.057390	-0.559226	0.075746
C31	C	1.059183	-0.465193	0.075747
C32	C	1.064227	-0.422305	0.000052
C33	C	1.067477	-0.473451	-0.075644
C34	C	1.055924	-0.414039	0.151442
C35	C	1.057717	-0.320000	0.151446
C36	C	1.062767	-0.277111	0.075749
C37	C	1.066018	-0.328263	0.000050
C38	C	1.071061	-0.285375	-0.075645
C39	C	1.074319	-0.336526	-0.151345
C40	C	1.072527	-0.430562	-0.151340
C41	C	1.064559	-0.183075	0.075745
C42	C	1.072852	-0.191333	-0.075646
C43	C	1.229940	0.118341	0.000062
C44	C	1.330024	0.120245	0.000062
C45	C	1.058742	0.289535	0.000053
C46	C	1.060643	0.389619	0.000053
N47	N	1.053274	0.136521	0.216391
N48	N	1.076978	0.112904	-0.216281
C49	C	1.112118	0.077721	0.260088
C50	C	1.107345	0.082495	0.347495
C51	C	1.043731	0.146076	0.391202
C52	C	0.984880	0.204879	0.347499
C53	C	0.989650	0.200099	0.260094
C54	C	1.022897	0.166927	0.652611
C55	C	1.018133	0.171704	0.740022
C56	C	1.140598	0.049319	0.740012
C57	C	1.145365	0.044549	0.652605
C58	C	1.086511	0.103349	0.608909
N59	N	1.038852	0.150959	0.480546
N60	N	1.091386	0.098460	0.519567
H61	H	0.319448	0.269383	0.000052
H62	H	0.941731	0.247980	0.224516
C63	C	0.997855	-0.531066	-0.239128
C64	C	1.076083	-0.486802	-0.234535
H65	H	1.000043	-0.565788	-0.290488
H66	H	0.994606	-0.570046	-0.194040
H67	H	0.945864	-0.487380	-0.235987
H68	H	1.128074	-0.530488	-0.237670
H69	H	1.079341	-0.447819	-0.279636
H70	H	1.053278	-0.594150	0.137374
H71	H	0.974977	0.214806	0.617040
C72	C	1.265928	-0.075953	0.661378
C73	C	1.215287	-0.025346	0.604564
H74	H	1.309092	-0.119105	0.631718
H75	H	1.296540	-0.036503	0.695457
H76	H	1.226495	-0.106585	0.695481
H77	H	1.254720	0.005292	0.570465
H78	H	1.184674	-0.064801	0.570471
C79	C	1.154646	-0.067967	0.838311
C80	C	1.205277	-0.015320	0.788045
H81	H	1.194578	-0.107880	0.867960
H82	H	1.116089	-0.029415	0.876845
H83	H	1.118945	-0.102324	0.804212
H84	H	1.240973	0.019043	0.822145
H85	H	1.243850	-0.053876	0.749507
C86	C	0.775446	-0.116348	0.000042
C87	C	0.827233	-0.043111	0.000036
H88	H	0.814577	-0.171468	0.000033
H89	H	0.735684	-0.110987	0.048467
H90	H	0.740965	-0.116264	-0.048380
H91	H	0.861709	-0.043191	0.048461
H92	H	0.867011	-0.048474	-0.048393
C93	C	0.382599	0.377411	-0.071325
C94	C	0.433424	0.377329	0.000048
H95	H	0.343457	0.432524	-0.071317
H96	H	0.422370	0.372062	-0.119743
H97	H	0.347489	0.327708	-0.071310
H98	H	0.468540	0.427028	0.000030
H99	H	0.393649	0.382687	0.048479
H100	H	0.772167	0.278001	0.000037
C101	C	0.897532	0.292179	0.731257
C102	C	0.948190	0.241584	0.788067
H103	H	0.854350	0.335311	0.760920
H104	H	0.936945	0.322826	0.697160
H105	H	0.866932	0.252712	0.697172
H106	H	0.978796	0.281051	0.822148
H107	H	0.908772	0.210936	0.822178
C108	C	0.688139	0.383248	-0.071362
C109	C	0.630822	0.381103	0.000026
H110	H	0.712807	0.439588	-0.071374
H111	H	0.735941	0.335145	-0.071352
H112	H	0.654534	0.376481	-0.119775
H113	H	0.664428	0.387864	0.048440
H114	H	0.583013	0.429220	0.000024
H115	H	1.163923	0.025951	0.224507
C116	C	1.080724	-0.196035	-0.218555
C117	C	1.079850	-0.289375	-0.234548
H118	H	1.084140	-0.166925	-0.269921
H119	H	1.026786	-0.172134	-0.187455
H120	H	1.131849	-0.185743	-0.187455
H121	H	1.028721	-0.299668	-0.265643
H122	H	1.133794	-0.313284	-0.265661
C123	C	0.524678	-0.177061	0.071440
C124	C	0.499416	-0.131661	0.000059
H125	H	0.499987	-0.233389	0.071438
H126	H	0.588928	-0.187621	0.071435
H127	H	0.502236	-0.140964	0.119859
H128	H	0.521863	-0.167755	-0.048359
H129	H	0.435152	-0.121104	0.000057
H130	H	0.680398	-0.104762	0.000049
H131	H	1.076964	-0.156421	-0.137287
H132	H	1.061886	-0.141430	0.137379
H133	H	1.068342	-0.609145	-0.137276
C134	C	0.971697	-0.504997	0.239257
C135	C	1.050403	-0.461198	0.234634
H136	H	0.968301	-0.534123	0.290615
H137	H	0.920036	-0.461682	0.236133
H138	H	0.973386	-0.548903	0.194163
H139	H	1.048711	-0.417287	0.279725
H140	H	1.102077	-0.504518	0.237767
C141	C	0.252995	-0.036652	0.000072
C142	C	0.347712	-0.052228	0.000066
H143	H	0.228318	-0.092987	0.000070
H144	H	0.230569	-0.000570	0.048493
H145	H	0.235863	-0.005847	-0.048353
H146	H	0.364845	-0.083027	0.048494
H147	H	0.370146	-0.088324	-0.048361
H148	H	1.055067	-0.278361	0.213085
C149	C	1.228897	-0.038930	0.338705
C150	C	1.172043	0.017874	0.395527
H151	H	1.268846	-0.078820	0.368360
H152	H	1.193201	-0.073303	0.304630
H153	H	1.263213	-0.003189	0.304599
H154	H	1.137722	-0.017868	0.429629
H155	H	1.207743	0.052250	0.429616
H156	H	0.933079	0.256644	0.383090
