data_functionalizedCrystal
_audit_creation_method	'MofGen! by Chris Wilmer'
_symmetry_space_group_name_H-M	'P1'
_symmetry_Int_Tables_number	1
_symmetry_cell_setting	triclinic
loop_
_symmetry_equiv_pos_as_xyz
  x,y,z
_cell_length_a	27.732048
_cell_length_b	14.971486
_cell_length_c	14.048226
_cell_angle_alpha	89.993360
_cell_angle_beta	89.999028
_cell_angle_gamma	83.128392
loop_
_atom_site_label
_atom_site_type_symbol
_atom_site_fract_x
_atom_site_fract_y
_atom_site_fract_z
O1	O	0.641420	0.106429	-0.079039
O2	O	1.141420	0.606429	0.420961
O3	O	0.500701	0.122612	-0.079068
O4	O	1.000701	0.622612	0.420932
O5	O	0.574832	-0.015739	-0.079046
O6	O	1.074832	0.484261	0.420954
O7	O	0.567289	0.244780	-0.079061
O8	O	1.067289	0.744780	0.420939
O9	O	0.574823	-0.015747	0.079276
O10	O	1.074823	0.484253	0.579276
O11	O	0.500692	0.122604	0.079254
O12	O	1.000692	0.622604	0.579254
O13	O	0.641411	0.106421	0.079283
O14	O	1.141411	0.606421	0.579283
Zn15	Zn	0.571050	0.114511	0.104405
Zn16	Zn	1.071050	0.614511	0.604405
Zn17	Zn	0.571062	0.114522	-0.104190
Zn18	Zn	1.071062	0.614522	0.395810
O19	O	0.567280	0.244772	0.079261
O20	O	1.067280	0.744772	0.579261
C21	C	0.574490	-0.049063	0.000115
C22	C	1.074490	0.450937	0.500115
C23	C	0.573479	-0.148344	0.000114
C24	C	1.073479	0.351656	0.500114
C25	C	0.482688	0.122268	0.000090
C26	C	0.982688	0.622268	0.500090
C27	C	0.429028	0.121245	0.000079
C28	C	0.929028	0.621245	0.500079
C29	C	0.617029	-0.206257	0.000123
C30	C	1.117029	0.293743	0.500123
C31	C	0.616076	-0.299542	0.000114
C32	C	1.116076	0.200458	0.500114
C33	C	0.571573	-0.334911	0.000101
C34	C	1.071573	0.165089	0.500101
C35	C	0.528020	-0.276990	0.000089
C36	C	1.028020	0.223010	0.500089
C37	C	0.528973	-0.183707	0.000091
C38	C	1.028973	0.316293	0.500091
C39	C	0.526036	-0.471421	0.000085
C40	C	1.026036	0.028579	0.500085
C41	C	0.525082	-0.564710	0.000083
C42	C	1.025082	-0.064710	0.500083
C43	C	0.613139	-0.587255	0.000107
C44	C	1.113139	-0.087255	0.500107
C45	C	0.614092	-0.493973	0.000110
C46	C	1.114092	0.006027	0.500110
C47	C	0.570539	-0.436058	0.000099
C48	C	1.070539	0.063942	0.500099
C49	C	0.090561	0.196562	0.000116
C50	C	0.590561	0.696562	0.500116
C51	C	-0.111116	0.192767	0.000124
C52	C	0.388884	0.692767	0.500124
O53	O	-0.142054	0.261639	0.000162
O54	O	0.357946	0.761639	0.500162
N55	N	-0.130619	0.110731	0.000127
N56	N	0.369381	0.610731	0.500127
C57	C	-0.099698	0.029637	0.000134
C58	C	0.400302	0.529637	0.500134
O59	O	-0.120914	-0.040227	0.000147
O60	O	0.379086	0.459773	0.500147
C61	C	0.101978	0.033433	0.000133
C62	C	0.601978	0.533433	0.500133
C63	C	0.121477	0.115475	0.000120
C64	C	0.621477	0.615475	0.500120
C65	C	0.110061	0.278597	0.000104
C66	C	0.610061	0.778597	0.500104
C67	C	0.160477	0.279545	0.000097
C68	C	0.660477	0.779545	0.500097
C69	C	0.191393	0.198458	0.000101
C70	C	0.691393	0.698458	0.500101
C71	C	0.171893	0.116423	0.000112
C72	C	0.671893	0.616423	0.500112
C73	C	0.132897	-0.047659	0.000147
C74	C	0.632897	0.452341	0.500147
C75	C	0.183319	-0.046703	0.000148
C76	C	0.683319	0.453297	0.500148
C77	C	0.202818	0.035339	0.000136
C78	C	0.702818	0.535339	0.500136
C79	C	0.253226	0.036284	0.000109
C80	C	0.753226	0.536284	0.500109
N81	N	0.272729	0.118320	0.000106
N82	N	0.772729	0.618320	0.500106
C83	C	0.241812	0.199407	0.000102
C84	C	0.741812	0.699407	0.500102
C85	C	-0.205582	0.027650	0.000134
C86	C	0.294418	0.527650	0.500134
C87	C	-0.256000	0.026701	0.000132
C88	C	0.244000	0.526701	0.500132
C89	C	-0.267415	0.189831	0.000124
C90	C	0.232585	0.689831	0.500124
C91	C	-0.216995	0.190779	0.000118
C92	C	0.283005	0.690779	0.500118
C93	C	-0.186079	0.109686	0.000131
C94	C	0.313921	0.609686	0.500131
C95	C	0.347690	0.201392	0.000086
C96	C	0.847690	0.701392	0.500086
C97	C	0.398112	0.202332	0.000074
C98	C	0.898112	0.702332	0.500074
C99	C	0.409522	0.039203	0.000088
C100	C	0.909522	0.539203	0.500088
C101	C	0.359105	0.038261	0.000094
C102	C	0.859105	0.538261	0.500094
C103	C	0.328190	0.119363	0.000096
C104	C	0.828190	0.619363	0.500096
O105	O	0.284193	-0.032551	0.000083
O106	O	0.784193	0.467449	0.500083
O107	O	0.263037	0.269261	0.000111
O108	O	0.763037	0.769261	0.500111
C109	C	0.040144	0.195614	0.000123
C110	C	0.540144	0.695614	0.500123
C111	C	0.020645	0.113579	0.000135
C112	C	0.520645	0.613579	0.500135
C113	C	0.051561	0.032492	0.000139
C114	C	0.551561	0.532492	0.500139
C115	C	-0.029774	0.112630	0.000133
C116	C	0.470226	0.612630	0.500133
C117	C	-0.060691	0.193717	0.000129
C118	C	0.439309	0.693717	0.500129
C119	C	-0.041188	0.275753	0.000126
C120	C	0.458812	0.775753	0.500126
C121	C	0.009228	0.276701	0.000119
C122	C	0.509228	0.776701	0.500119
C123	C	0.032059	-0.049544	0.000142
C124	C	0.532059	0.450456	0.500142
C125	C	-0.018358	-0.050486	0.000148
C126	C	0.481642	0.449514	0.500148
C127	C	-0.049275	0.030602	0.000144
C128	C	0.450725	0.530602	0.500144
C129	C	0.659424	0.106765	0.000124
C130	C	1.159424	0.606765	0.500124
C131	C	0.713083	0.107788	0.000128
C132	C	1.213083	0.607788	0.500128
C133	C	0.567621	0.278096	0.000098
C134	C	1.067621	0.778096	0.500098
C135	C	0.568632	0.377377	0.000093
C136	C	1.068632	0.877377	0.500093
N137	N	0.571045	0.114504	0.246766
N138	N	1.071045	0.614504	0.746766
N139	N	0.571070	0.114522	-0.246551
N140	N	1.071070	0.614522	0.253449
C141	C	0.603881	0.053267	0.296594
C142	C	1.103881	0.553267	0.796594
C143	C	0.603884	0.053266	0.396251
C144	C	1.103884	0.553266	0.896251
C145	C	0.571054	0.114507	0.446079
C146	C	1.071054	0.614507	0.946079
C147	C	0.538215	0.175747	0.396245
C148	C	1.038215	0.675747	0.896245
C149	C	0.538210	0.175743	0.296589
C150	C	1.038210	0.675743	0.796589
C151	C	0.538229	0.175753	0.603959
C152	C	1.038229	0.675753	1.103959
C153	C	0.538234	0.175759	0.703622
C154	C	1.038234	0.675759	1.203622
C155	C	0.603903	0.053277	0.703621
C156	C	1.103903	0.553277	1.203621
C157	C	0.603898	0.053272	0.603966
C158	C	1.103898	0.553272	1.103966
C159	C	0.571059	0.114514	0.554138
C160	C	1.071059	0.614514	1.054138
H161	H	0.653269	-0.177468	0.000139
H162	H	1.153269	0.322532	0.500139
H163	H	0.493510	-0.136554	0.000083
H164	H	0.993510	0.363446	0.500083
F165	F	-0.276747	-0.060619	0.000125
F166	F	0.223253	0.439381	0.500125
F167	F	0.638831	-0.011910	0.449282
F168	F	1.138831	0.488090	0.949282
H169	H	0.511481	0.225608	0.436820
H170	H	1.011481	0.725608	0.936820
F171	F	0.503291	0.240940	0.756645
F172	F	1.003291	0.740940	1.256645
H173	H	0.630617	0.003401	0.256030
H174	H	1.130617	0.503401	0.756030
F175	F	0.662428	-0.361174	0.000126
F176	F	1.162428	0.138826	0.500126
H177	H	0.117030	-0.114466	0.000158
H178	H	0.617030	0.385534	0.500158
H179	H	0.413985	0.269143	0.000064
H180	H	0.913985	0.769143	0.500064
H181	H	0.650331	-0.465179	0.000127
H182	H	1.150331	0.034821	0.500127
F183	F	0.216220	-0.133016	0.000164
F184	F	0.716220	0.366984	0.500164
H185	H	0.490570	-0.424269	0.000073
H186	H	0.990570	0.075731	0.500073
F187	F	-0.039105	-0.137812	0.000150
F188	F	0.460895	0.362188	0.500150
F189	F	0.503276	0.240932	0.550932
F190	F	1.003276	0.740932	1.050932
H191	H	0.630633	0.003410	0.563396
H192	H	1.130633	0.503410	1.063396
F193	F	0.638853	-0.011899	0.756656
F194	F	1.138853	0.488101	1.256656
F195	F	0.659492	-0.648893	0.000114
F196	F	1.159492	-0.148893	0.500114
F197	F	-0.300327	0.276130	0.000120
F198	F	0.199673	0.776130	0.500120
H199	H	0.511471	0.225607	0.256020
H200	H	1.011471	0.725607	0.756020
F201	F	0.477717	-0.602350	0.000071
F202	F	0.977717	-0.102350	0.500071
F203	F	0.029974	0.364022	0.000105
F204	F	0.529974	0.864022	0.500105
H205	H	0.491784	-0.305795	0.000072
H206	H	0.991784	0.194205	0.500072
F207	F	0.181223	0.366865	0.000088
F208	F	0.681223	0.866865	0.500088
F209	F	0.314795	0.287709	0.000089
F210	F	0.814795	0.787709	0.500089
H211	H	0.084893	0.344632	0.000104
H212	H	0.584893	0.844632	0.500104
H213	H	0.343228	-0.028543	0.000091
H214	H	0.843228	0.471457	0.500091
H215	H	-0.201123	0.257585	0.000113
H216	H	0.298877	0.757585	0.500113
H217	H	-0.180413	-0.038389	0.000144
H218	H	0.319587	0.461611	0.500144
H219	H	0.434703	-0.026816	0.000088
H220	H	0.934703	0.473184	0.500088
F221	F	-0.074101	0.362052	0.000117
F222	F	0.425899	0.862052	0.500117
H223	H	0.057227	-0.115577	0.000148
H224	H	0.557227	0.384423	0.500148
