data_functionalizedCrystal
_audit_creation_method	'MofGen! by Chris Wilmer'
_symmetry_space_group_name_H-M	'P1'
_symmetry_Int_Tables_number	1
_symmetry_cell_setting	triclinic
loop_
_symmetry_equiv_pos_as_xyz
  x,y,z
_cell_length_a	30.570277
_cell_length_b	30.570279
_cell_length_c	30.570330
_cell_angle_alpha	59.997668
_cell_angle_beta	89.998668
_cell_angle_gamma	60.000192
loop_
_atom_site_label
_atom_site_type_symbol
_atom_site_fract_x
_atom_site_fract_y
_atom_site_fract_z
O1	O	-0.372836	-0.313095	0.013011
O2	O	-0.309225	-0.223519	-0.012953
O3	O	-0.309223	-0.313094	0.076622
O4	O	-0.372839	-0.223520	-0.076564
O5	O	-0.236468	-0.385848	0.076622
O6	O	-0.236471	-0.296273	-0.012953
O7	O	-0.300082	-0.385850	0.013011
Cu8	Cu	-0.261633	-0.347704	0.000029
Cu9	Cu	-0.347674	-0.261664	0.000029
O10	O	-0.300084	-0.296275	-0.076564
C11	C	-0.188654	-0.082303	-0.027139
C12	C	-0.215647	-0.028318	-0.023422
C13	C	-0.136009	-0.108501	-0.027507
C14	C	-0.188656	-0.161512	-0.027144
C15	C	-0.215651	-0.192218	-0.023433
C16	C	-0.136010	-0.187591	-0.027512
C17	C	-0.109441	-0.161515	-0.027139
C18	C	-0.051740	-0.192225	-0.023422
C19	C	-0.215103	-0.108498	-0.027512
C20	C	-0.005122	-0.217036	-0.020418
C21	C	-0.237454	0.015296	-0.020418
C22	C	-0.237459	-0.217026	-0.020433
C23	C	0.053362	-0.248162	-0.016650
C24	C	-0.264813	0.070012	-0.016651
C25	C	-0.264819	-0.248149	-0.016672
C26	C	-0.528835	-0.481158	0.031534
C27	C	-0.502268	-0.534173	0.031905
C28	C	-0.449624	-0.481155	0.031530
C29	C	-0.423176	-0.534171	0.031901
C30	C	-0.449623	-0.560370	0.031533
C31	C	-0.502268	-0.455079	0.031901
C32	C	-0.614448	-0.395339	0.025106
C33	C	-0.668545	-0.366177	0.021050
C34	C	-0.695677	-0.391210	0.019017
C35	C	-0.754333	-0.359592	0.014617
C36	C	-0.668716	-0.445410	0.021045
C37	C	-0.614621	-0.474572	0.025103
C38	C	-0.587489	-0.449534	0.027131
C39	C	-0.449828	-0.639557	0.025109
C40	C	-0.424894	-0.689598	0.021053
C41	C	-0.372730	-0.714694	0.019016
C42	C	-0.345693	-0.768949	0.014615
C43	C	-0.345492	-0.689758	0.021040
C44	C	-0.370425	-0.639721	0.025098
C45	C	-0.422593	-0.614621	0.027130
C46	C	-0.449831	-0.395334	0.025098
C47	C	-0.424899	-0.366164	0.021031
C48	C	-0.372736	-0.391195	0.018994
C49	C	-0.345699	-0.359574	0.014590
C50	C	-0.345499	-0.445391	0.021019
C51	C	-0.370429	-0.474560	0.025084
C52	C	-0.422594	-0.449529	0.027123
C53	C	-0.449629	-0.128223	-0.400622
C54	C	-0.502274	-0.075208	-0.427071
C55	C	-0.449630	-0.128223	-0.321410
C56	C	-0.502275	-0.075207	-0.347979
C57	C	-0.528843	-0.049010	-0.400624
C58	C	-0.423182	-0.154300	-0.347977
C59	C	-0.370237	-0.214043	-0.400414
C60	C	-0.345131	-0.243207	-0.425348
C61	C	-0.372198	-0.218175	-0.477512
C62	C	-0.344980	-0.249795	-0.504549
C63	C	-0.424371	-0.163975	-0.504752
C64	C	-0.449476	-0.134812	-0.479820
C65	C	-0.422408	-0.159848	-0.427652
C66	C	-0.614455	0.030175	-0.480016
C67	C	-0.668553	0.080216	-0.505123
C68	C	-0.695686	0.105313	-0.478056
C69	C	-0.754343	0.159568	-0.505274
C70	C	-0.668725	0.080378	-0.425883
C71	C	-0.614630	0.030342	-0.400778
C72	C	-0.587497	0.005241	-0.427845
C73	C	-0.370239	-0.214042	-0.235795
C74	C	-0.345135	-0.243209	-0.181695
C75	C	-0.372203	-0.218177	-0.154563
C76	C	-0.344985	-0.249796	-0.095906
C77	C	-0.424374	-0.163982	-0.181523
C78	C	-0.449480	-0.134814	-0.235621
C79	C	-0.422410	-0.159847	-0.262755
O80	O	0.226322	-0.385862	0.013031
O81	O	0.073137	-0.296286	-0.012932
O82	O	0.162706	-0.385864	0.076642
O83	O	0.136754	-0.296283	-0.076544
O84	O	0.162707	-0.313113	0.076647
O85	O	0.073139	-0.223534	-0.012927
O86	O	0.226324	-0.313110	0.013035
Cu87	Cu	0.149732	-0.261680	0.000054
Cu88	Cu	0.149730	-0.347717	0.000049
O89	O	0.136756	-0.223532	-0.076539
O90	O	-0.300077	0.213289	0.013034
O91	O	-0.236463	0.086067	-0.012928
O92	O	-0.236466	0.086060	0.076646
O93	O	-0.300074	0.213297	-0.076541
O94	O	-0.309222	0.086062	0.076641
O95	O	-0.309219	0.086070	-0.012933
O96	O	-0.372833	0.213292	0.013029
Cu97	Cu	-0.347669	0.149681	0.000047
Cu98	Cu	-0.261627	0.149678	0.000053
O99	O	-0.372830	0.213300	-0.076546
O100	O	-0.926872	0.304555	-0.541036
O101	O	-0.773688	0.177328	-0.477419
O102	O	-0.863257	0.177325	-0.477417
O103	O	-0.837303	0.304558	-0.541038
O104	O	-0.863255	0.177323	-0.550170
O105	O	-0.773686	0.177326	-0.550173
O106	O	-0.926870	0.304553	-0.613790
Cu107	Cu	-0.850278	0.240940	-0.588624
Cu108	Cu	-0.850280	0.240942	-0.502585
O109	O	-0.837301	0.304556	-0.613792
O110	O	-0.309222	-0.313094	-0.613776
O111	O	-0.372836	-0.223523	-0.550164
O112	O	-0.372834	-0.313097	-0.550160
O113	O	-0.309224	-0.223521	-0.613781
O114	O	-0.300079	-0.385852	-0.477404
O115	O	-0.300081	-0.296279	-0.477409
O116	O	-0.236467	-0.385850	-0.541021
Cu117	Cu	-0.261631	-0.347707	-0.502572
Cu118	Cu	-0.347672	-0.261666	-0.588613
O119	O	-0.236469	-0.296276	-0.541025
C120	C	-0.109443	-0.527076	0.338416
C121	C	-0.051741	-0.581062	0.365410
C122	C	-0.136011	-0.500878	0.364863
C123	C	-0.188656	-0.447863	0.259202
C124	C	-0.215650	-0.417154	0.201500
C125	C	-0.215104	-0.421785	0.285770
C126	C	-0.188656	-0.447863	0.338415
C127	C	-0.215649	-0.417155	0.365408
C128	C	-0.136011	-0.500878	0.285771
C129	C	-0.237457	-0.392345	0.387215
C130	C	-0.005124	-0.624677	0.387218
C131	C	-0.237457	-0.392344	0.154883
C132	C	-0.264816	-0.361220	0.414573
C133	C	0.053360	-0.679395	0.414577
C134	C	-0.264817	-0.361219	0.096399
C135	C	0.176900	-0.447894	0.338441
C136	C	0.173185	-0.417189	0.365437
C137	C	0.177268	-0.500910	0.364887
C138	C	0.176902	-0.447889	0.259226
C139	C	0.173189	-0.417178	0.201523
C140	C	0.177270	-0.500904	0.285792
C141	C	0.176898	-0.527104	0.338437
C142	C	0.173181	-0.581091	0.365429
C143	C	0.177272	-0.421814	0.285795
C144	C	0.170177	-0.624706	0.387234
C145	C	0.170183	-0.392382	0.387246
C146	C	0.170189	-0.392365	0.154906
C147	C	0.166409	-0.679423	0.414591
C148	C	0.166417	-0.361260	0.414607
C149	C	0.166425	-0.361238	0.096422
C150	C	-0.188656	-0.161565	0.338427
C151	C	-0.215650	-0.192274	0.365416
C152	C	-0.136010	-0.187647	0.364876
C153	C	-0.188655	-0.082342	0.259219
C154	C	-0.215648	-0.028347	0.201519
C155	C	-0.136009	-0.108545	0.285789
C156	C	-0.109441	-0.161568	0.338432
C157	C	-0.051739	-0.192281	0.365427
C158	C	-0.215103	-0.108542	0.285783
C159	C	-0.005121	-0.217095	0.387236
C160	C	-0.237458	-0.217086	0.387220
C161	C	-0.237456	0.015274	0.154902
C162	C	0.053363	-0.248225	0.414596
C163	C	-0.264818	-0.248212	0.414575
C164	C	-0.264815	0.070001	0.096420
C165	C	0.118261	-0.049006	-0.400600
C166	C	0.117891	-0.075201	-0.427049
C167	C	0.118257	-0.128221	-0.321388
C168	C	0.117887	-0.154296	-0.347958
C169	C	0.118259	-0.128216	-0.400603
C170	C	0.117889	-0.075206	-0.347955
C171	C	0.124691	0.030176	-0.400391
C172	C	0.128750	0.080217	-0.425324
C173	C	0.130788	0.105316	-0.477489
C174	C	0.135192	0.159570	-0.504524
C175	C	0.128762	0.080383	-0.504729
C176	C	0.124700	0.030348	-0.479798
C177	C	0.122667	0.005244	-0.427629
C178	C	0.124689	-0.134434	-0.479996
C179	C	0.128747	-0.163423	-0.505104
C180	C	0.130780	-0.217623	-0.478038
C181	C	0.135182	-0.249059	-0.505257
C182	C	0.128752	-0.242837	-0.425864
C183	C	0.124692	-0.213848	-0.400759
C184	C	0.122664	-0.159648	-0.427825
C185	C	0.124683	-0.134448	-0.235773
C186	C	0.128745	-0.163447	-0.181672
C187	C	0.130779	-0.217647	-0.154541
C188	C	0.135178	-0.249089	-0.095884
C189	C	0.128755	-0.242857	-0.181502
C190	C	0.124695	-0.213862	-0.235600
C191	C	0.122659	-0.159658	-0.262733
O192	O	0.136720	-0.296316	0.522623
O193	O	0.162693	-0.385890	0.459012
O194	O	0.073116	-0.296315	0.459000
O195	O	0.226297	-0.385891	0.522635
O196	O	0.073125	-0.223561	0.386249
O197	O	0.162702	-0.313136	0.386260
O198	O	0.136728	-0.223562	0.449871
Cu199	Cu	0.149716	-0.261706	0.411423
Cu200	Cu	0.149706	-0.347746	0.497460
O201	O	0.226306	-0.313137	0.449883
C202	C	-0.528835	0.518896	-0.400596
C203	C	-0.502267	0.544976	-0.427040
C204	C	-0.449621	0.439671	-0.321383
C205	C	-0.423173	0.465871	-0.347947
C206	C	-0.449621	0.518894	-0.400591
C207	C	-0.502267	0.465874	-0.347953
C208	C	-0.614449	0.525120	-0.400395
C209	C	-0.668547	0.554117	-0.425332
C210	C	-0.695679	0.608323	-0.477494
C211	C	-0.754336	0.639767	-0.504533
C212	C	-0.668718	0.633538	-0.504729
C213	C	-0.614622	0.604542	-0.479795
C214	C	-0.587490	0.550335	-0.427628
C215	C	-0.449826	0.604722	-0.479976
C216	C	-0.424890	0.633887	-0.505078
C217	C	-0.372726	0.608850	-0.478008
C218	C	-0.345687	0.640471	-0.505221
C219	C	-0.345487	0.554643	-0.425836
C220	C	-0.370420	0.525478	-0.400737
C221	C	-0.422590	0.550520	-0.427807
C222	C	-0.449827	0.360475	-0.235774
C223	C	-0.424895	0.310431	-0.181675
C224	C	-0.372730	0.285329	-0.154541
C225	C	-0.345693	0.231066	-0.095885
C226	C	-0.345493	0.310267	-0.181496
C227	C	-0.370424	0.360310	-0.235593
C228	C	-0.422591	0.385412	-0.262730
H229	H	-0.114681	-0.086573	-0.028104
C230	C	-0.507213	-0.367798	0.027340
C231	C	-0.519579	-0.360290	0.072933
C232	C	-0.576964	-0.332751	0.075170
C233	C	-0.621983	-0.312719	0.031813
C234	C	-0.609619	-0.320226	-0.013783
C235	C	-0.552234	-0.347766	-0.016020
H236	H	-0.486252	-0.375120	0.105031
H237	H	-0.586117	-0.327193	0.108923
H238	H	-0.664463	-0.292332	0.033469
H239	H	-0.642946	-0.305397	-0.045881
H240	H	-0.543081	-0.353323	-0.049774
C241	C	-0.507211	-0.611953	0.027352
C242	C	-0.518311	-0.611449	0.076291
C243	C	-0.575695	-0.583841	0.078529
C244	C	-0.621979	-0.556737	0.031829
C245	C	-0.610880	-0.557239	-0.017113
C246	C	-0.553496	-0.584847	-0.019352
H247	H	-0.484048	-0.631514	0.110864
H248	H	-0.583911	-0.583470	0.114760
H249	H	-0.664458	-0.536300	0.033486
H250	H	-0.645143	-0.537174	-0.051686
H251	H	-0.545280	-0.585219	-0.055582
C252	C	-0.698202	0.526383	-0.395374
C253	C	-0.747595	0.564579	-0.384636
C254	C	-0.777251	0.536843	-0.354680
C255	C	-0.757514	0.470911	-0.335461
C256	C	-0.708118	0.432710	-0.346198
C257	C	-0.678462	0.460446	-0.376154
H258	H	-0.762209	0.613390	-0.398864
H259	H	-0.813818	0.565123	-0.346732
H260	H	-0.779467	0.450379	-0.313285
H261	H	-0.693504	0.383899	-0.331970
H262	H	-0.641895	0.432167	-0.384102
H263	H	-0.114679	-0.086619	0.264458
H264	H	-0.523599	-0.053278	-0.470330
H265	H	-0.114684	-0.230310	0.408133
H266	H	-0.690492	-0.322048	0.019398
H267	H	-0.258358	-0.086616	0.264453
C268	C	0.130979	-0.135688	-0.562491
C269	C	0.084273	-0.069751	-0.608690
C270	C	0.086505	-0.042020	-0.666078
C271	C	0.135443	-0.080225	-0.677267
C272	C	0.182152	-0.146165	-0.631066
C273	C	0.179920	-0.173897	-0.573678
H274	H	0.048044	-0.041466	-0.600409
H275	H	0.051928	0.006794	-0.700279
H276	H	0.137095	-0.059696	-0.719748
H277	H	0.218381	-0.174450	-0.639347
H278	H	0.214497	-0.222710	-0.539477
C279	C	-0.107193	-0.245219	-0.028319
C280	C	-0.136406	-0.274038	-0.028720
C281	C	-0.107589	-0.331663	-0.029527
C282	C	-0.049560	-0.360470	-0.029934
C283	C	-0.020344	-0.331650	-0.029534
C284	C	-0.049161	-0.274025	-0.028726
H285	H	-0.179365	-0.252714	-0.028419
H286	H	-0.129217	-0.352997	-0.029824
H287	H	-0.028228	-0.403128	-0.030532
H288	H	0.022616	-0.352975	-0.029835
H289	H	-0.027533	-0.252691	-0.028430
C290	C	-0.288115	-0.472930	0.018778
C291	C	-0.277016	-0.434590	-0.030165
C292	C	-0.219631	-0.462129	-0.032403
C293	C	-0.173346	-0.528008	0.014302
C294	C	-0.184444	-0.566351	0.063248
C295	C	-0.241829	-0.538813	0.065487
H296	H	-0.311280	-0.385820	-0.064741
H297	H	-0.211416	-0.433744	-0.068637
H298	H	-0.130867	-0.548393	0.012645
H299	H	-0.150180	-0.615122	0.097825
H300	H	-0.250044	-0.567198	0.101720
H301	H	-0.258357	-0.379120	0.264434
H302	H	-0.114679	-0.522807	0.408119
H303	H	0.123038	-0.234377	-0.358280
C304	C	-0.698567	0.693172	-0.562111
C305	C	-0.703419	0.751125	-0.574464
C306	C	-0.733265	0.810757	-0.631845
C307	C	-0.758259	0.812438	-0.676874
C308	C	-0.753408	0.754484	-0.664523
C309	C	-0.723562	0.694851	-0.607141
H310	H	-0.684917	0.749882	-0.541129
H311	H	-0.736856	0.853659	-0.640988
H312	H	-0.780353	0.856581	-0.719351
H313	H	-0.771910	0.755726	-0.697857
H314	H	-0.719971	0.651949	-0.597998
C315	C	0.178078	-0.530525	0.256978
C316	C	0.178478	-0.501709	0.198945
C317	C	0.179287	-0.531331	0.170135
C318	C	0.179696	-0.589770	0.199357
C319	C	0.179295	-0.618590	0.257393
C320	C	0.178486	-0.588967	0.286204
H321	H	0.178176	-0.458446	0.177310
H322	H	0.179584	-0.509997	0.127172
H323	H	0.180295	-0.611698	0.178030
H324	H	0.179598	-0.661852	0.279028
H325	H	0.178190	-0.610302	0.329166
H326	H	-0.348193	-0.234430	-0.357937
C327	C	0.130969	-0.135712	-0.152021
C328	C	0.176551	-0.128147	-0.147315
C329	C	0.178778	-0.100413	-0.117661
C330	C	0.135423	-0.080243	-0.092714
C331	C	0.089838	-0.087807	-0.097420
C332	C	0.087611	-0.115541	-0.127074
H333	H	0.208647	-0.143079	-0.165782
H334	H	0.212523	-0.094814	-0.114178
H335	H	0.137072	-0.059713	-0.070763
H336	H	0.057742	-0.072876	-0.078953
H337	H	0.053865	-0.121141	-0.130557
H338	H	0.177854	-0.522830	0.408140
H339	H	-0.258359	-0.086568	-0.028112
H340	H	0.130421	0.100827	-0.547207
C341	C	-0.364742	-0.563796	0.032705
C342	C	-0.350375	-0.526242	-0.013164
C343	C	-0.291943	-0.555870	-0.012359
C344	C	-0.247878	-0.623052	0.034315
C345	C	-0.262243	-0.660610	0.080188
C346	C	-0.320675	-0.630983	0.079383
H347	H	-0.382996	-0.476506	-0.047717
H348	H	-0.281309	-0.528066	-0.046317
H349	H	-0.204623	-0.644984	0.034911
H350	H	-0.229622	-0.710346	0.114742
H351	H	-0.331309	-0.658786	0.113341
C352	C	-0.364738	0.436252	-0.319135
C353	C	-0.320673	0.412701	-0.342252
C354	C	-0.262240	0.383086	-0.313444
C355	C	-0.247873	0.377021	-0.261518
C356	C	-0.291940	0.400573	-0.238398
C357	C	-0.350372	0.430188	-0.267206
H358	H	-0.331307	0.417190	-0.380694
H359	H	-0.229619	0.365651	-0.330559
H360	H	-0.204618	0.355098	-0.240192
H361	H	-0.281306	0.396084	-0.199956
H362	H	-0.382993	0.447623	-0.250091
C363	C	0.178071	-0.364180	0.256966
C364	C	0.132206	-0.303966	0.205032
C365	C	0.133002	-0.246331	0.176195
C366	C	0.179663	-0.248910	0.199292
C367	C	0.225531	-0.309126	0.251228
C368	C	0.224735	-0.366761	0.280065
H369	H	0.097662	-0.302055	0.187932
H370	H	0.099047	-0.201755	0.137748
H371	H	0.180252	-0.206245	0.177945
H372	H	0.260075	-0.311037	0.268329
H373	H	0.258691	-0.411337	0.318512
H374	H	-0.690815	-0.465790	0.019388
H375	H	-0.592365	0.009742	-0.502060
H376	H	0.123059	0.010043	-0.501975
C377	C	-0.584960	0.632270	-0.509746
C378	C	-0.604685	0.698197	-0.528955
C379	C	-0.575021	0.725924	-0.558905
C380	C	-0.525632	0.687726	-0.569646
C381	C	-0.505904	0.621795	-0.550437
C382	C	-0.535568	0.594068	-0.520487
H383	H	-0.641248	0.726477	-0.521005
H384	H	-0.589625	0.774730	-0.573125
H385	H	-0.503673	0.708251	-0.591817
H386	H	-0.469341	0.593515	-0.558387
H387	H	-0.520964	0.545262	-0.506267
C388	C	-0.454859	-0.306553	0.018806
C389	C	-0.474070	-0.307072	0.065523
C390	C	-0.504032	-0.247456	0.063295
C391	C	-0.514783	-0.187320	0.014349
C392	C	-0.495572	-0.186798	-0.032372
C393	C	-0.465610	-0.246415	-0.030143
H394	H	-0.466112	-0.351590	0.101759
H395	H	-0.518253	-0.247842	0.097881
H396	H	-0.536962	-0.143188	0.012699
H397	H	-0.503530	-0.142280	-0.068608
H398	H	-0.451389	-0.246028	-0.064729
C399	C	-0.454853	0.693510	-0.562463
C400	C	-0.507990	0.751369	-0.574727
C401	C	-0.537948	0.810992	-0.632114
C402	C	-0.514771	0.812758	-0.677235
C403	C	-0.461631	0.754898	-0.664972
C404	C	-0.431672	0.695274	-0.607586
H405	H	-0.525150	0.750063	-0.541325
H406	H	-0.577286	0.853824	-0.641191
H407	H	-0.536948	0.856895	-0.719716
H408	H	-0.444471	0.756203	-0.698375
H409	H	-0.392335	0.652442	-0.598508
H410	H	-0.592670	-0.518703	0.026754
H411	H	0.117290	-0.196956	-0.326627
H412	H	-0.114673	-0.522795	0.264437
H413	H	0.117296	-0.053271	-0.470306
H414	H	0.117336	-0.053308	-0.326611
H415	H	-0.523599	-0.556098	0.032502
H416	H	-0.592678	0.010046	-0.358301
H417	H	0.123023	-0.090311	-0.257863
H418	H	-0.447076	-0.709896	0.019407
C419	C	-0.364744	-0.211925	-0.319149
C420	C	-0.320692	-0.209299	-0.298645
C421	C	-0.262256	-0.266918	-0.269813
C422	C	-0.247872	-0.327164	-0.261486
C423	C	-0.291925	-0.329793	-0.281990
C424	C	-0.350361	-0.272173	-0.310822
H425	H	-0.331339	-0.164699	-0.304810
H426	H	-0.229645	-0.264972	-0.254635
H427	H	-0.204614	-0.369817	-0.240143
H428	H	-0.281278	-0.374392	-0.275826
H429	H	-0.382972	-0.274119	-0.326001
H430	H	-0.523602	-0.412416	0.032492
C431	C	0.130981	0.107637	-0.395360
C432	C	0.087619	0.175934	-0.418537
C433	C	0.089848	0.203359	-0.388574
C434	C	0.135438	0.162485	-0.335435
C435	C	0.178803	0.094184	-0.312255
C436	C	0.176575	0.066760	-0.342218
H437	H	0.053868	0.206195	-0.457877
H438	H	0.057746	0.253920	-0.405734
H439	H	0.137087	0.182787	-0.313254
H440	H	0.212555	0.063923	-0.272915
H441	H	0.208677	0.016198	-0.325058
H442	H	-0.690498	0.100513	-0.547603
C443	C	-0.288107	0.282655	-0.151649
C444	C	-0.243089	0.214312	-0.126669
C445	C	-0.185703	0.186697	-0.096821
C446	C	-0.173335	0.227426	-0.091953
C447	C	-0.218355	0.295773	-0.116933
C448	C	-0.275741	0.323388	-0.146781
H449	H	-0.252243	0.184158	-0.130272
H450	H	-0.152377	0.136102	-0.078329
H451	H	-0.130855	0.206984	-0.069858
H452	H	-0.209201	0.325926	-0.113330
H453	H	-0.309067	0.373983	-0.165273
H454	H	0.123031	0.009743	-0.357914
C455	C	-0.288108	-0.717365	0.018797
C456	C	-0.277011	-0.717856	-0.030147
C457	C	-0.219628	-0.745461	-0.032388
C458	C	-0.173342	-0.772575	0.014316
C459	C	-0.184438	-0.772085	0.063263
C460	C	-0.241821	-0.744480	0.065504
H461	H	-0.311276	-0.697784	-0.064723
H462	H	-0.211414	-0.745824	-0.068622
H463	H	-0.130863	-0.793010	0.012657
H464	H	-0.150173	-0.792157	0.097839
H465	H	-0.250035	-0.744118	0.101739
H466	H	0.123035	-0.090300	-0.502039
H467	H	0.130406	-0.286972	-0.403829
C468	C	0.130992	-0.302481	-0.151658
C469	C	0.179931	-0.362525	-0.102218
C470	C	0.182166	-0.422148	-0.072374
C471	C	0.135462	-0.421725	-0.091970
C472	C	0.086519	-0.361679	-0.141413
C473	C	0.084284	-0.302057	-0.171257
H474	H	0.214507	-0.362840	-0.087709
H475	H	0.218396	-0.466598	-0.035773
H476	H	0.137116	-0.465861	-0.069877
H477	H	0.051943	-0.361364	-0.155921
H478	H	0.048054	-0.257606	-0.207858
H479	H	0.123049	-0.234393	-0.257550
C480	C	-0.531098	-0.045585	-0.319169
C481	C	-0.539410	-0.083145	-0.267248
C482	C	-0.568236	-0.053522	-0.238442
C483	C	-0.588750	0.013661	-0.261555
C484	C	-0.580439	0.051225	-0.313479
C485	C	-0.551613	0.021602	-0.342286
H486	H	-0.524223	-0.132881	-0.250135
H487	H	-0.574388	-0.081330	-0.200004
H488	H	-0.610089	0.035589	-0.240231
H489	H	-0.595626	0.100961	-0.330592
H490	H	-0.545461	0.049410	-0.380723
C491	C	-0.531077	0.436246	-0.319135
C492	C	-0.551595	0.412698	-0.342252
C493	C	-0.580401	0.383068	-0.313432
C494	C	-0.588689	0.376988	-0.261497
C495	C	-0.568170	0.400537	-0.238378
C496	C	-0.539364	0.430166	-0.267197
H497	H	-0.545461	0.417198	-0.380700
H498	H	-0.595591	0.365636	-0.330547
H499	H	-0.610012	0.355054	-0.240163
H500	H	-0.574304	0.396036	-0.199930
H501	H	-0.524174	0.447598	-0.250083
H502	H	-0.592359	-0.374950	0.026761
H503	H	-0.523597	0.587640	-0.470296
H504	H	-0.447075	0.290129	-0.159733
C505	C	-0.288102	0.527102	-0.396058
C506	C	-0.243082	0.507078	-0.419384
C507	C	-0.185697	0.479533	-0.389603
C508	C	-0.173332	0.472013	-0.336496
C509	C	-0.218353	0.492038	-0.313166
C510	C	-0.275738	0.519582	-0.342947
H511	H	-0.252234	0.512644	-0.458700
H512	H	-0.152370	0.464710	-0.406874
H513	H	-0.130852	0.451623	-0.314450
H514	H	-0.209201	0.486471	-0.273851
H515	H	-0.309066	0.534406	-0.325677
H516	H	-0.492303	0.380909	-0.257867
H517	H	-0.348248	-0.619417	0.026742
H518	H	-0.592359	0.480981	-0.357920
H519	H	-0.348250	-0.518687	0.026730
H520	H	-0.302656	-0.287335	-0.159749
H521	H	-0.492302	0.625111	-0.502024
H522	H	-0.348193	-0.234426	-0.257886
H523	H	-0.302652	-0.287333	-0.403167
H524	H	-0.446407	-0.143596	-0.547231
H525	H	-0.491953	-0.090678	-0.502003
H526	H	-0.348242	0.481343	-0.358259
H527	H	-0.690825	0.100822	-0.403847
H528	H	-0.491961	-0.090687	-0.257571
C529	C	-0.454154	-0.136441	-0.151679
C530	C	-0.507254	-0.128937	-0.146818
C531	C	-0.537031	-0.101397	-0.116974
C532	C	-0.513709	-0.081361	-0.091990
C533	C	-0.460607	-0.088865	-0.096850
C534	C	-0.430829	-0.116405	-0.126694
H535	H	-0.524521	-0.143769	-0.165314
H536	H	-0.576341	-0.095843	-0.113376
H537	H	-0.535752	-0.060975	-0.069897
H538	H	-0.443340	-0.074032	-0.078354
H539	H	-0.391520	-0.121959	-0.130292
H540	H	-0.348244	0.380614	-0.257539
