data_functionalizedCrystal
_audit_creation_method	'MofGen! by Chris Wilmer'
_symmetry_space_group_name_H-M	'P1'
_symmetry_Int_Tables_number	1
_symmetry_cell_setting	triclinic
loop_
_symmetry_equiv_pos_as_xyz
  x,y,z
_cell_length_a	16.109302
_cell_length_b	9.016244
_cell_length_c	16.109301
_cell_angle_alpha	89.996338
_cell_angle_beta	96.538369
_cell_angle_gamma	90.009280
loop_
_atom_site_label
_atom_site_type_symbol
_atom_site_fract_x
_atom_site_fract_y
_atom_site_fract_z
O1	O	1.103135	0.123412	-0.106867
O2	O	1.353135	0.373412	0.143133
O3	O	1.603135	0.623412	0.393133
O4	O	1.853135	0.873412	0.643133
O5	O	0.861073	0.123401	-0.120165
O6	O	1.111073	0.373401	0.129835
O7	O	1.361073	0.623401	0.379835
O8	O	1.611073	0.873401	0.629835
O9	O	0.988754	0.123391	0.007515
O10	O	1.238754	0.373391	0.257515
O11	O	1.488754	0.623391	0.507515
O12	O	1.738754	0.873391	0.757515
O13	O	0.975455	0.123421	-0.234547
O14	O	1.225455	0.373421	0.015453
O15	O	1.475455	0.623421	0.265453
O16	O	1.725455	0.873421	0.515453
O17	O	0.988735	-0.123289	0.007512
O18	O	1.238735	0.126711	0.257512
O19	O	1.488735	0.376711	0.507512
O20	O	1.738735	0.626711	0.757512
O21	O	0.861055	-0.123280	-0.120168
O22	O	1.111055	0.126720	0.129832
O23	O	1.361055	0.376720	0.379832
O24	O	1.611055	0.626720	0.629832
O25	O	1.103117	-0.123269	-0.106870
O26	O	1.353117	0.126731	0.143130
O27	O	1.603117	0.376731	0.393130
O28	O	1.853117	0.626731	0.643130
Cu29	Cu	0.982084	-0.145799	-0.113519
Cu30	Cu	1.232084	0.104201	0.136481
Cu31	Cu	1.482084	0.354201	0.386481
Cu32	Cu	1.732084	0.604201	0.636481
Cu33	Cu	0.982106	0.145930	-0.113516
Cu34	Cu	1.232106	0.395930	0.136484
Cu35	Cu	1.482106	0.645930	0.386484
Cu36	Cu	1.732106	0.895930	0.636484
O37	O	0.975436	-0.123260	-0.234550
O38	O	1.225436	0.126740	0.015450
O39	O	1.475436	0.376740	0.265450
O40	O	1.725436	0.626740	0.515450
C41	C	0.830089	0.000059	-0.119628
C42	C	1.080089	0.250059	0.130372
C43	C	1.330089	0.500059	0.380372
C44	C	1.580089	0.750059	0.630372
C45	C	0.737794	0.000054	-0.118013
C46	C	0.987794	0.250054	0.131987
C47	C	1.237794	0.500054	0.381987
C48	C	1.487794	0.750054	0.631987
C49	C	0.525443	-0.134398	-0.114279
C50	C	0.775443	0.115602	0.135721
C51	C	1.025443	0.365602	0.385721
C52	C	1.275443	0.615602	0.635721
C53	C	0.438723	-0.134393	-0.112752
C54	C	0.688723	0.115607	0.137248
C55	C	0.938723	0.365607	0.387248
C56	C	1.188723	0.615607	0.637248
C57	C	0.438754	0.134552	-0.112753
C58	C	0.688754	0.384552	0.137247
C59	C	0.938754	0.634552	0.387247
C60	C	1.188754	0.884552	0.637247
C61	C	0.525473	0.134546	-0.114274
C62	C	0.775473	0.384546	0.135726
C63	C	1.025473	0.634546	0.385726
C64	C	1.275473	0.884546	0.635726
C65	C	0.568815	0.000066	-0.115041
C66	C	0.818815	0.250066	0.134959
C67	C	1.068815	0.500066	0.384959
C68	C	1.318815	0.750066	0.634959
C69	C	0.395375	0.000078	-0.111994
C70	C	0.645375	0.250078	0.138006
C71	C	0.895375	0.500078	0.388006
C72	C	1.145375	0.750078	0.638006
C73	C	0.301350	0.000084	-0.110338
C74	C	0.551350	0.250084	0.139662
C75	C	0.801350	0.500084	0.389662
C76	C	1.051350	0.750084	0.639662
C77	C	0.662847	0.000059	-0.116695
C78	C	0.912847	0.250059	0.133305
C79	C	1.162847	0.500059	0.383305
C80	C	1.412847	0.750059	0.633305
N81	N	0.982075	-0.350985	-0.113521
N82	N	1.232075	-0.100985	0.136479
N83	N	1.482075	0.149015	0.386479
N84	N	1.732075	0.399015	0.636479
C85	C	0.913568	-0.586012	-0.181597
C86	C	1.163568	-0.336012	0.068403
C87	C	1.413568	-0.086012	0.318403
C88	C	1.663568	0.163988	0.568403
C89	C	0.913716	-0.414121	-0.181848
C90	C	1.163716	-0.164121	0.068152
C91	C	1.413716	0.085879	0.318152
C92	C	1.663716	0.335879	0.568152
C93	C	1.068821	-0.413316	-0.132447
C94	C	1.318821	-0.163316	0.117553
C95	C	1.568821	0.086684	0.367553
C96	C	1.818821	0.336684	0.617553
C97	C	1.068446	-0.585261	-0.132928
C98	C	1.318446	-0.335261	0.117072
C99	C	1.568446	-0.085261	0.367072
C100	C	1.818446	0.164739	0.617072
C101	C	0.964699	-0.585540	-0.026291
C102	C	1.214699	-0.335540	0.223709
C103	C	1.464699	-0.085540	0.473709
C104	C	1.714699	0.164460	0.723709
C105	C	0.962699	-0.413586	-0.026876
C106	C	1.212699	-0.163586	0.223124
C107	C	1.462699	0.086414	0.473124
C108	C	1.712699	0.336414	0.723124
C109	C	1.134101	0.000076	-0.107407
C110	C	1.384101	0.250076	0.142593
C111	C	1.634101	0.500076	0.392593
C112	C	1.884101	0.750076	0.642593
C113	C	1.226396	0.000091	-0.109022
C114	C	1.476396	0.250091	0.140978
C115	C	1.726396	0.500091	0.390978
C116	C	1.976396	0.750091	0.640978
C117	C	0.988206	0.000050	0.038488
C118	C	1.238206	0.250050	0.288488
C119	C	1.488206	0.500050	0.538488
C120	C	1.738206	0.750050	0.788488
C121	C	0.986591	0.000048	0.130784
C122	C	1.236591	0.250048	0.380784
C123	C	1.486591	0.500048	0.630784
C124	C	1.736591	0.750048	0.880784
N125	N	0.982122	0.351116	-0.113507
N126	N	1.232122	0.601116	0.136493
N127	N	1.482122	0.851116	0.386493
N128	N	1.732122	1.101116	0.636493
C129	C	0.975984	0.000085	-0.265523
C130	C	1.225984	0.250085	-0.015523
C131	C	1.475984	0.500085	0.234477
C132	C	1.725984	0.750085	0.484477
C133	C	0.977599	0.000096	-0.357819
C134	C	1.227599	0.250096	-0.107819
C135	C	1.477599	0.500096	0.142181
C136	C	1.727599	0.750096	0.392181
C137	C	1.058599	0.000075	0.353056
C138	C	1.308599	0.250075	0.603056
C139	C	1.558599	0.500075	0.853056
C140	C	1.808599	0.750075	1.103056
C141	C	1.057074	0.000087	0.439776
C142	C	1.307074	0.250087	0.689776
C143	C	1.557074	0.500087	0.939776
C144	C	1.807074	0.750087	1.189776
C145	C	0.905586	0.000074	0.419902
C146	C	1.155586	0.250074	0.669902
C147	C	1.405586	0.500074	0.919902
C148	C	1.655586	0.750074	1.169902
C149	C	0.907111	0.000073	0.333184
C150	C	1.157111	0.250073	0.583184
C151	C	1.407111	0.500073	0.833184
C152	C	1.657111	0.750073	1.083184
C153	C	0.983620	0.000065	0.299763
C154	C	1.233620	0.250065	0.549763
C155	C	1.483620	0.500065	0.799763
C156	C	1.733620	0.750065	1.049763
C157	C	0.980571	0.000079	0.473202
C158	C	1.230571	0.250079	0.723202
C159	C	1.480571	0.500079	0.973202
C160	C	1.730571	0.750079	1.223202
C161	C	0.978918	0.000092	0.567228
C162	C	1.228918	0.250092	0.817228
C163	C	1.478918	0.500092	1.067228
C164	C	1.728918	0.750092	1.317228
C165	C	0.985273	0.000055	0.205731
C166	C	1.235273	0.250055	0.455731
C167	C	1.485273	0.500055	0.705731
C168	C	1.735273	0.750055	0.955731
H169	H	0.849235	-0.371982	-0.170575
H170	H	1.099235	-0.121982	0.079425
H171	H	1.349235	0.128018	0.329425
H172	H	1.599235	0.378018	0.579425
H173	H	0.560729	-0.243899	-0.114904
H174	H	0.810729	0.006101	0.135096
H175	H	1.060729	0.256101	0.385096
H176	H	1.310729	0.506101	0.635096
H177	H	0.403454	0.244041	-0.112130
H178	H	0.653454	0.494041	0.137870
H179	H	0.903454	0.744041	0.387870
H180	H	1.153454	0.994041	0.637870
H181	H	0.843295	0.000077	0.447124
H182	H	1.093295	0.250077	0.697124
H183	H	1.343295	0.500077	0.947124
H184	H	1.593295	0.750077	1.197124
H185	H	0.846050	0.000069	0.289790
H186	H	1.096050	0.250069	0.539790
H187	H	1.346050	0.500069	0.789790
H188	H	1.596050	0.750069	1.039790
H189	H	0.924835	-0.372966	-0.246571
H190	H	1.174835	-0.122966	0.003429
H191	H	1.424835	0.127034	0.253429
H192	H	1.674835	0.377034	0.503429
H193	H	0.403413	-0.243887	-0.112132
H194	H	0.653413	0.006113	0.137868
H195	H	0.903413	0.256113	0.387868
H196	H	1.153413	0.506113	0.637868
H197	H	0.848883	-0.627411	-0.170508
H198	H	1.098883	-0.377411	0.079492
H199	H	1.348883	-0.127411	0.329492
H200	H	1.598883	0.122589	0.579492
H201	H	1.121047	-0.372415	-0.084174
H202	H	1.371047	-0.122415	0.165826
H203	H	1.621047	0.127585	0.415826
H204	H	1.871047	0.377585	0.665826
H205	H	1.121051	-0.626847	-0.085289
H206	H	1.371051	-0.376847	0.164711
H207	H	1.621051	-0.126847	0.414711
H208	H	1.871051	0.123153	0.664711
H209	H	0.560787	0.244049	-0.114892
H210	H	0.810787	0.494049	0.135108
H211	H	1.060787	0.744049	0.385108
H212	H	1.310787	0.994049	0.635108
H213	H	1.084541	-0.370230	-0.195328
H214	H	1.334541	-0.120230	0.054672
H215	H	1.584541	0.129770	0.304672
H216	H	1.834541	0.379770	0.554672
H217	H	0.924538	-0.629197	-0.245954
H218	H	1.174538	-0.379197	0.004046
H219	H	1.424538	-0.129197	0.254046
H220	H	1.674538	0.120803	0.504046
H221	H	1.083803	-0.625341	-0.196533
H222	H	1.333803	-0.375341	0.053467
H223	H	1.583803	-0.125341	0.303467
H224	H	1.833803	0.124659	0.553467
H225	H	0.902823	-0.628993	-0.008086
H226	H	1.152823	-0.378993	0.241914
H227	H	1.402823	-0.128993	0.491914
H228	H	1.652823	0.121007	0.741914
H229	H	1.120897	0.000072	0.325848
H230	H	1.370897	0.250072	0.575848
H231	H	1.620897	0.500072	0.825848
H232	H	1.870897	0.750072	1.075848
H233	H	0.898888	-0.372849	-0.012513
H234	H	1.148888	-0.122849	0.237487
H235	H	1.398888	0.127151	0.487487
H236	H	1.648888	0.377151	0.737487
H237	H	1.009384	-0.370614	0.026164
H238	H	1.259384	-0.120614	0.276164
H239	H	1.509384	0.129386	0.526164
H240	H	1.759384	0.379386	0.776164
H241	H	1.014692	-0.626196	0.024378
H242	H	1.264692	-0.376196	0.274378
H243	H	1.514692	-0.126196	0.524378
H244	H	1.764692	0.123804	0.774378
H245	H	1.118130	0.000098	0.483165
H246	H	1.368130	0.250098	0.733165
H247	H	1.618130	0.500098	0.983165
H248	H	1.868130	0.750098	1.233165
