data_functionalizedCrystal
_audit_creation_method	'MofGen! by Chris Wilmer'
_symmetry_space_group_name_H-M	'P1'
_symmetry_Int_Tables_number	1
_symmetry_cell_setting	triclinic
loop_
_symmetry_equiv_pos_as_xyz
  x,y,z
_cell_length_a	16.120530
_cell_length_b	25.639239
_cell_length_c	16.120256
_cell_angle_alpha	92.870449
_cell_angle_beta	90.128265
_cell_angle_gamma	87.134054
loop_
_atom_site_label
_atom_site_type_symbol
_atom_site_fract_x
_atom_site_fract_y
_atom_site_fract_z
Zn1	Zn	1.247329	-0.264893	-0.534538
Zn2	Zn	1.747329	0.235107	-0.034538
Zn3	Zn	1.254246	-0.348122	-0.395471
Zn4	Zn	1.754246	0.151878	0.104529
Zn5	Zn	1.115324	-0.256055	-0.388456
Zn6	Zn	1.615324	0.243945	0.111544
Zn7	Zn	1.108202	-0.347643	-0.527441
Zn8	Zn	1.608202	0.152357	-0.027441
O9	O	1.181275	-0.304178	-0.461477
O10	O	1.681275	0.195822	0.038523
O11	O	1.364612	-0.279833	-0.521996
O12	O	1.864612	0.220167	-0.021996
O13	O	1.241692	-0.332411	-0.278175
O14	O	1.741692	0.167589	0.221825
O15	O	1.132920	-0.184066	-0.407869
O16	O	1.632920	0.315934	0.092131
O17	O	1.369693	-0.340981	-0.419824
O18	O	1.869693	0.159019	0.080176
O19	O	1.229905	-0.190559	-0.515195
O20	O	1.729905	0.309441	-0.015195
O21	O	1.139627	-0.264770	-0.273021
O22	O	1.639627	0.235230	0.226979
O23	O	0.998014	-0.264306	-0.400987
O24	O	1.498014	0.235694	0.099013
O25	O	1.120783	-0.340164	-0.644748
O26	O	1.620783	0.159836	-0.144748
O27	O	0.992782	-0.331595	-0.503098
O28	O	1.492782	0.168405	-0.003098
O29	O	1.222999	-0.279368	-0.649962
O30	O	1.722999	0.220632	-0.149962
O31	O	1.234787	-0.421220	-0.412942
O32	O	1.734787	0.078780	0.087058
O33	O	1.127489	-0.420868	-0.509900
O34	O	1.627489	0.079132	-0.009900
C35	C	0.965226	-0.296940	-0.450512
C36	C	1.465226	0.203060	0.049488
C37	C	0.872798	-0.293856	-0.445841
C38	C	1.372798	0.206144	0.054159
C39	C	0.703571	-0.288214	-0.437320
C40	C	1.203571	0.211786	0.062680
C41	C	0.659817	-0.320183	-0.485694
C42	C	1.159817	0.179817	0.014306
C43	C	0.565653	-0.317044	-0.480953
C44	C	1.065653	0.182956	0.019047
C45	C	0.797744	-0.291352	-0.442060
C46	C	1.297744	0.208648	0.057940
C47	C	1.181137	-0.440015	-0.461431
C48	C	1.681137	0.059985	0.038569
C49	C	1.181153	-0.498130	-0.461444
C50	C	1.681153	0.001870	0.038556
C51	C	1.237279	-0.858676	-0.411088
C52	C	1.737279	-0.358676	0.088912
C53	C	1.237311	-0.913282	-0.411101
C54	C	1.737311	-0.413282	0.088899
O55	O	1.284888	-0.941668	-0.368238
O56	O	1.784888	-0.441668	0.131762
N57	N	1.181419	-0.940424	-0.461539
N58	N	1.681419	-0.440424	0.038461
C59	C	1.125497	-0.912958	-0.511974
C60	C	1.625497	-0.412958	-0.011974
O61	O	1.077959	-0.941059	-0.554877
O62	O	1.577959	-0.441059	-0.054877
C63	C	1.125470	-0.858354	-0.511965
C64	C	1.625470	-0.358354	-0.011965
C65	C	1.181360	-0.831214	-0.461517
C66	C	1.681360	-0.331214	0.038483
C67	C	1.293166	-0.831536	-0.360646
C68	C	1.793166	-0.331536	0.139354
C69	C	1.293133	-0.776934	-0.360632
C70	C	1.793133	-0.276934	0.139368
C71	C	1.237213	-0.749472	-0.411061
C72	C	1.737213	-0.249472	0.088939
C73	C	1.181327	-0.776612	-0.461504
C74	C	1.681327	-0.276612	0.038496
C75	C	1.069552	-0.830889	-0.562404
C76	C	1.569552	-0.330889	-0.062404
C77	C	1.069530	-0.776281	-0.562391
C78	C	1.569530	-0.276281	-0.062391
C79	C	1.125421	-0.749141	-0.511943
C80	C	1.625421	-0.249141	-0.011943
C81	C	1.125375	-0.694548	-0.511919
C82	C	1.625375	-0.194548	-0.011919
N83	N	1.181267	-0.667405	-0.461481
N84	N	1.681267	-0.167405	0.038519
C85	C	1.237186	-0.694868	-0.411052
C86	C	1.737186	-0.194868	0.088948
C87	C	1.125559	-1.027631	-0.511990
C88	C	1.625559	-0.527631	-0.011990
C89	C	1.125581	-1.082234	-0.511995
C90	C	1.625581	-0.582234	-0.011995
C91	C	1.237396	-1.082554	-0.411123
C92	C	1.737396	-0.582554	0.088877
C93	C	1.237369	-1.027950	-0.411114
C94	C	1.737369	-0.527950	0.088886
C95	C	1.181451	-1.000489	-0.461552
C96	C	1.681451	-0.500489	0.038448
C97	C	1.237112	-0.580199	-0.411026
C98	C	1.737112	-0.080199	0.088974
C99	C	1.237072	-0.525592	-0.411015
C100	C	1.737072	-0.025592	0.088985
C101	C	1.125260	-0.525277	-0.511889
C102	C	1.625260	-0.025277	-0.011889
C103	C	1.125297	-0.579879	-0.511898
C104	C	1.625297	-0.079879	-0.011898
C105	C	1.181230	-0.607339	-0.461464
C106	C	1.681230	-0.107339	0.038536
O107	O	1.077824	-0.666127	-0.554763
O108	O	1.577824	-0.166127	-0.054763
O109	O	1.284723	-0.666761	-0.368164
O110	O	1.784723	-0.166761	0.131836
C111	C	1.398168	-0.311446	-0.472484
C112	C	1.898168	0.188554	0.027516
C113	C	1.490595	-0.314543	-0.477175
C114	C	1.990595	0.185457	0.022825
C115	C	1.170325	-0.310699	-0.678371
C116	C	1.670325	0.189301	-0.178371
C117	C	1.165659	-0.313477	-0.770798
C118	C	1.665659	0.186523	-0.270798
C119	C	1.181435	-0.167813	-0.461541
C120	C	1.681435	0.332187	0.038459
C121	C	1.181504	-0.109701	-0.461569
C122	C	1.681504	0.390299	0.038431
C123	C	1.205608	-0.289675	-0.983785
C124	C	1.705608	0.210325	-0.483785
C125	C	1.157112	-0.318528	-0.940018
C126	C	1.657112	0.181472	-0.440018
C127	C	1.161869	-0.315717	-0.845855
C128	C	1.661869	0.184283	-0.345855
C129	C	1.200852	-0.292485	-1.077956
C130	C	1.700852	0.207515	-0.577956
C131	C	1.192230	-0.297647	-0.245428
C132	C	1.692230	0.202353	0.254572
C133	C	1.197058	-0.294727	-0.153010
C134	C	1.697058	0.205273	0.346990
H135	H	0.693076	-0.349910	-0.530669
H136	H	1.193076	0.150090	-0.030669
C137	C	0.658646	-0.248062	-0.376560
C138	C	1.158646	0.251938	0.123440
H139	H	0.600335	-0.251200	-0.381301
H140	H	1.100335	0.248800	0.118699
H141	H	0.672244	-0.213776	-0.389522
H142	H	1.172244	0.286224	0.110478
H143	H	0.675630	-0.254450	-0.321364
H144	H	1.175630	0.245550	0.178636
C145	C	1.096200	-0.354753	-0.984924
C146	C	1.596200	0.145247	-0.484924
H147	H	1.066396	-0.372484	-0.945079
H148	H	1.566396	0.127516	-0.445079
H149	H	1.126307	-0.379588	-1.020424
H150	H	1.626307	0.120412	-0.520424
H151	H	1.058309	-0.334529	-1.016966
H152	H	1.558309	0.165471	-0.516966
H153	H	1.250696	-0.262865	-0.950539
H154	H	1.750696	0.237135	-0.450539
C155	C	1.064035	-0.997428	-0.567464
C156	C	1.564035	-0.497428	-0.067464
H157	H	1.030751	-1.021417	-0.597496
H158	H	1.530751	-0.521417	-0.097496
H159	H	1.093965	-0.978251	-0.605336
H160	H	1.593965	-0.478251	-0.105336
H161	H	1.029420	-0.973990	-0.533779
H162	H	1.529420	-0.473990	-0.033779
H163	H	1.282585	-0.503497	-0.369931
H164	H	1.782585	-0.003497	0.130069
H165	H	1.282660	-0.602551	-0.369960
H166	H	1.782660	-0.102551	0.130040
H167	H	1.338645	-0.754840	-0.319556
H168	H	1.838645	-0.254840	0.180444
H169	H	1.338706	-0.853890	-0.319580
H170	H	1.838706	-0.353890	0.180420
H171	H	1.282880	-1.005856	-0.370036
H172	H	1.782880	-0.505856	0.129964
H173	H	1.282932	-1.104924	-0.370064
H174	H	1.782932	-0.604924	0.129936
H175	H	1.080062	-1.104326	-0.553066
H176	H	1.580062	-0.604326	-0.053066
C177	C	1.008078	-0.860731	-0.617903
C178	C	1.508078	-0.360731	-0.117903
H179	H	0.974784	-0.836548	-0.647939
H180	H	1.474784	-0.336548	-0.147939
H181	H	0.973482	-0.879897	-0.584244
H182	H	1.473482	-0.379897	-0.084244
H183	H	1.038046	-0.884154	-0.655783
H184	H	1.538046	-0.384154	-0.155783
C185	C	1.008019	-0.746077	-0.617874
C186	C	1.508019	-0.246077	-0.117874
H187	H	0.974738	-0.770064	-0.647913
H188	H	1.474738	-0.270064	-0.147913
H189	H	1.037957	-0.726899	-0.655739
H190	H	1.537957	-0.226899	-0.155739
H191	H	0.973400	-0.722639	-0.584192
H192	H	1.473400	-0.222639	-0.084192
H193	H	1.079789	-0.601978	-0.552979
H194	H	1.579789	-0.101978	-0.052979
H195	H	1.079729	-0.502909	-0.552946
H196	H	1.579729	-0.002909	-0.052946
