data_functionalizedCrystal
_audit_creation_method	'MofGen! by Chris Wilmer'
_symmetry_space_group_name_H-M	'P1'
_symmetry_Int_Tables_number	1
_symmetry_cell_setting	triclinic
loop_
_symmetry_equiv_pos_as_xyz
  x,y,z
_cell_length_a	16.992694
_cell_length_b	13.339070
_cell_length_c	16.053802
_cell_angle_alpha	93.267614
_cell_angle_beta	87.249047
_cell_angle_gamma	103.148759
loop_
_atom_site_label
_atom_site_type_symbol
_atom_site_fract_x
_atom_site_fract_y
_atom_site_fract_z
O1	O	1.090314	0.214289	-0.069315
O2	O	0.861508	0.211892	-0.069340
O3	O	0.949651	0.063704	-0.069328
O4	O	1.002170	0.362477	-0.069327
O5	O	0.944792	0.071825	0.069530
O6	O	0.856649	0.220013	0.069518
O7	O	1.085454	0.222410	0.069543
Zn8	Zn	0.970280	0.222501	0.091577
Zn9	Zn	0.976682	0.211801	-0.091374
O10	O	0.997311	0.370598	0.069531
C11	C	0.829196	0.212871	0.000086
C12	C	0.740151	0.203676	0.000076
C13	C	0.709211	0.292389	0.000077
C14	C	0.625543	0.283745	0.000089
C15	C	0.572817	0.186385	0.000093
C16	C	0.603763	0.097665	0.000095
C17	C	0.687429	0.106311	0.000090
C18	C	0.321423	0.150552	0.000116
C19	C	0.237752	0.141912	0.000119
C20	C	0.259538	0.327993	0.000114
C21	C	0.343205	0.336630	0.000103
C22	C	0.374143	0.247910	0.000109
N23	N	0.487295	0.177547	0.000103
N24	N	0.459663	0.256750	0.000106
C25	C	0.938350	0.029358	0.000099
C26	C	0.911906	-0.085082	0.000093
C27	C	1.117519	-0.433251	0.000116
C28	C	1.142367	-0.325729	0.000126
C29	C	1.084754	-0.265562	0.000118
C30	C	1.002289	-0.312928	0.000099
C31	C	0.977439	-0.420460	0.000095
C32	C	0.944673	-0.252771	0.000097
C33	C	0.862209	-0.300136	0.000078
C34	C	0.837363	-0.407658	0.000074
C35	C	0.894976	-0.467825	0.000082
C36	C	0.969524	-0.145239	0.000101
C37	C	0.829443	-0.132447	0.000080
C38	C	0.804596	-0.239970	0.000070
C39	C	1.117767	0.221431	0.000115
C40	C	1.206811	0.230626	0.000120
C41	C	1.008612	0.404944	0.000102
C42	C	1.035056	0.519384	0.000103
N43	N	0.965916	0.229803	0.216437
N44	N	0.981051	0.204492	-0.216234
C45	C	1.003445	0.166774	0.260136
C46	C	1.000402	0.171892	0.347543
C47	C	0.959834	0.240045	0.391248
C48	C	0.922300	0.303076	0.347543
C49	C	0.925339	0.297952	0.260138
C50	C	0.946555	0.262399	0.652656
C51	C	0.943522	0.267520	0.740067
C52	C	1.021623	0.136334	0.740060
C53	C	1.024662	0.131221	0.652654
C54	C	0.987124	0.194248	0.608956
N55	N	0.956725	0.245281	0.480592
N56	N	0.990229	0.189006	0.519615
H57	H	0.194823	0.062627	0.000122
O58	O	0.351566	0.064437	-0.000000
C59	C	0.401798	0.059646	-0.071930
H60	H	0.424632	0.140319	-0.095903
H61	H	0.365930	0.007465	-0.122288
C62	C	0.446233	-0.083156	-0.020648
C63	C	0.474283	0.015928	-0.050088
H64	H	0.490943	-0.110128	-0.007177
H65	H	0.412388	-0.079932	0.027812
H66	H	0.416342	-0.126629	-0.062618
H67	H	0.504164	0.059401	-0.008114
H68	H	0.508135	0.012710	-0.098540
O69	O	0.888777	0.359031	0.217649
C70	C	0.829308	0.296901	0.167088
H71	H	0.809381	0.217126	0.193437
H72	H	0.855418	0.289658	0.100842
C73	C	0.780467	0.444559	0.133389
C74	C	0.755988	0.346582	0.165755
H75	H	0.735242	0.475206	0.132563
H76	H	0.820535	0.486419	0.167450
H77	H	0.802226	0.438510	0.078187
H78	H	0.734239	0.352633	0.220959
H79	H	0.715915	0.304724	0.131703
H80	H	1.209509	-0.287171	0.000142
H81	H	0.915992	0.313720	0.617084
O82	O	0.595624	0.370024	0.000051
C83	C	0.660101	0.457810	0.000062
H84	H	0.717463	0.435156	-0.026233
H85	H	0.670032	0.491237	0.066677
C86	C	0.569181	0.566973	-0.022095
C87	C	0.639631	0.539151	-0.054399
H88	H	0.556554	0.617150	-0.055686
H89	H	0.525740	0.507831	-0.022099
H90	H	0.577465	0.594822	0.033417
H91	H	0.631343	0.511290	-0.109905
H92	H	0.683070	0.598290	-0.054405
H93	H	0.752136	0.371670	0.000073
H94	H	0.386130	0.415909	0.000090
H95	H	0.782530	-0.083459	0.000077
H96	H	0.770215	-0.446220	0.000065
H97	H	1.057695	0.075725	0.617071
O98	O	1.108790	-0.161113	0.000016
C99	C	1.081214	-0.125883	-0.071916
H100	H	1.026842	-0.185515	-0.095906
H101	H	1.131665	-0.113785	-0.122262
C102	C	1.123169	0.050054	-0.020607
C103	C	1.056384	-0.023184	-0.050068
H104	H	1.107856	0.113406	-0.007133
H105	H	1.141750	0.026320	0.027854
H106	H	1.165205	0.060123	-0.062567
H107	H	1.014353	-0.033261	-0.008104
H108	H	1.037795	0.000551	-0.098522
H109	H	0.234339	0.400223	0.000111
O110	O	1.042858	0.100480	0.217814
C111	C	1.075345	0.045965	0.275131
H112	H	1.040198	0.045786	0.337440
H113	H	1.141592	0.084783	0.284417
C114	C	1.111987	-0.065560	0.164500
C115	C	1.068815	-0.065787	0.241027
H116	H	1.107963	-0.134492	0.143463
H117	H	1.090103	-0.028830	0.125883
H118	H	1.167190	-0.033206	0.172249
H119	H	1.013613	-0.098128	0.233276
H120	H	1.090690	-0.102525	0.279642
O121	O	1.036731	0.110560	0.390024
C122	C	0.978417	0.046513	0.440608
H123	H	0.916001	0.038089	0.414281
H124	H	0.978941	0.082275	0.506851
C125	C	1.074984	-0.050029	0.474280
C126	C	0.998325	-0.060383	0.441940
H127	H	1.087265	-0.115966	0.475106
H128	H	1.114273	-0.006877	0.440204
H129	H	1.075411	-0.020224	0.529480
H130	H	0.997901	-0.090175	0.386739
H131	H	0.959036	-0.103542	0.476008
O132	O	1.058208	0.075209	0.782469
C133	C	1.141606	0.097115	0.761083
H134	H	1.160772	0.178186	0.737055
H135	H	1.154394	0.038981	0.710345
C136	C	1.165999	-0.009512	0.868231
C137	C	1.189541	0.090064	0.838726
H138	H	1.195569	-0.013865	0.916123
H139	H	1.109812	-0.024274	0.882637
H140	H	1.176657	-0.057946	0.825942
H141	H	1.178874	0.138495	0.881011
H142	H	1.245728	0.104834	0.824329
O143	O	0.904037	0.333742	0.782395
C144	C	0.871568	0.388287	0.725085
H145	H	0.863655	0.342347	0.662781
H146	H	0.914437	0.466361	0.715782
C147	C	0.798601	0.460882	0.835734
C148	C	0.788876	0.404454	0.759213
H149	H	0.747594	0.470860	0.856786
H150	H	0.820478	0.424137	0.874345
H151	H	0.834328	0.525938	0.827971
H152	H	0.753158	0.339395	0.766978
H153	H	0.766991	0.441188	0.720603
H154	H	1.164418	-0.482247	0.000129
O155	O	0.882825	0.369140	0.390090
C156	C	0.819817	0.312936	0.440647
H157	H	0.833628	0.235720	0.453743
H158	H	0.760469	0.299152	0.406973
C159	C	0.795538	0.469307	0.507586
C160	C	0.812505	0.374472	0.523676
H161	H	0.791025	0.507266	0.558801
H162	H	0.837986	0.507174	0.473523
H163	H	0.746084	0.457806	0.479522
H164	H	0.861963	0.385973	0.551730
H165	H	0.770065	0.336608	0.557746
H166	H	0.560826	0.018394	0.000111
H167	H	0.712618	0.034071	0.000088
H168	H	1.036667	-0.106684	0.000116
H169	H	0.874749	-0.555379	0.000071
H170	H	0.737452	-0.278550	0.000055
