data_functionalizedCrystal
_audit_creation_method	'MofGen! by Chris Wilmer'
_symmetry_space_group_name_H-M	'P1'
_symmetry_Int_Tables_number	1
_symmetry_cell_setting	triclinic
loop_
_symmetry_equiv_pos_as_xyz
  x,y,z
_cell_length_a	23.196402
_cell_length_b	19.851628
_cell_length_c	23.196402
_cell_angle_alpha	60.005047
_cell_angle_beta	60.000268
_cell_angle_gamma	60.002455
loop_
_atom_site_label
_atom_site_type_symbol
_atom_site_fract_x
_atom_site_fract_y
_atom_site_fract_z
Zr1	Zr	0.555365	0.088390	0.555381
O2	O	0.583591	0.195939	0.463336
O3	O	0.463311	0.055425	0.583595
O4	O	0.463319	0.195950	0.583601
O5	O	0.678448	-0.055440	0.463328
O6	O	0.463317	0.195954	0.678471
O7	O	0.583583	0.055414	0.463330
O8	O	0.463303	-0.055420	0.678460
O9	O	0.678463	0.195934	0.463339
O10	O	0.524812	0.041363	0.666432
O11	O	0.595610	-0.041368	0.595629
O12	O	0.595620	0.124082	0.595637
O13	O	0.666418	0.041351	0.524835
Zr14	Zr	0.706661	-0.088402	0.706684
Zr15	Zr	0.555362	0.088396	0.706688
Zr16	Zr	0.706664	-0.088408	0.555377
Zr17	Zr	0.706674	0.088383	0.555385
Zr18	Zr	0.555352	-0.088395	0.706680
O19	O	0.798715	-0.055437	0.678470
O20	O	0.583587	0.195948	0.678475
O21	O	0.798719	-0.055446	0.463331
O22	O	0.678434	-0.195951	0.798729
O23	O	0.463306	0.055434	0.798734
O24	O	0.678438	-0.195960	0.583590
O25	O	0.583577	0.055428	0.798737
O26	O	0.798707	-0.195962	0.678463
O27	O	0.798709	-0.195966	0.583593
O28	O	0.678442	-0.055426	0.798735
O29	O	0.678460	0.195939	0.583607
O30	O	0.583565	-0.195951	0.678457
O31	O	0.583563	-0.195946	0.798726
O32	O	0.463300	-0.055415	0.798729
O33	O	0.798725	0.055403	0.463336
O34	O	0.798723	0.055408	0.583605
O35	O	0.666406	-0.124094	0.666428
O36	O	0.595608	-0.041362	0.737230
O37	O	0.666415	0.041356	0.666435
O38	O	0.737213	-0.041375	0.595633
C39	C	0.441748	0.000004	0.631027
C40	C	0.377514	0.000007	0.631025
C41	C	0.631000	-0.221145	0.631023
C42	C	0.630996	-0.296197	0.631019
C43	C	0.310385	0.043195	0.667979
C44	C	0.250029	0.043188	0.667985
C45	C	0.256807	0.000005	0.631025
C46	C	0.323948	-0.043193	0.594071
C47	C	0.384302	-0.043192	0.594071
C48	C	0.189505	0.006165	0.569121
C49	C	0.129152	0.006170	0.569119
C50	C	0.070660	-0.000004	0.631026
C51	C	0.072522	-0.006166	0.692935
C52	C	0.132875	-0.006164	0.692935
C53	C	0.191369	-0.000002	0.631022
C54	C	-0.061916	0.043179	0.667990
C55	C	-0.122271	0.043167	0.667999
C56	C	-0.048350	-0.043209	0.594077
C57	C	0.012003	-0.043202	0.594075
C58	C	0.005215	-0.000003	0.631030
C59	C	0.592406	-0.432457	0.592424
C60	C	0.564423	-0.499903	0.658996
C61	C	0.631007	-0.433628	0.631030
C62	C	0.658968	-0.499917	0.564475
C63	C	0.631017	-0.566378	0.631034
C64	C	0.602985	-0.500086	0.697641
C65	C	0.697566	-0.500089	0.603072
C66	C	0.669599	-0.567548	0.669684
C67	C	0.630999	-0.357154	0.631027
C68	C	0.631023	-0.642854	0.631045
C69	C	0.820277	-0.000015	0.631038
C70	C	0.884512	-0.000019	0.631039
C71	C	0.631016	-0.000014	0.441771
C72	C	0.631018	-0.000016	0.377537
C73	C	0.631025	0.221133	0.631042
C74	C	0.631029	0.296185	0.631045
C75	C	0.594052	-0.043187	0.384316
C76	C	0.594054	-0.043190	0.323962
C77	C	0.631012	-0.000007	0.256829
C78	C	0.667985	0.043165	0.250053
C79	C	0.667988	0.043161	0.310407
C80	C	0.625734	0.072331	0.132903
C81	C	0.625726	0.072338	0.072552
C82	C	0.631007	0.000006	0.070675
C83	C	0.636281	-0.072332	0.129165
C84	C	0.636284	-0.072337	0.189519
C85	C	0.631013	0.000002	0.191381
C86	C	0.594042	-0.043172	0.012014
C87	C	0.594049	-0.043178	-0.048343
C88	C	0.667975	0.043185	-0.122253
C89	C	0.667973	0.043183	-0.061896
C90	C	0.631002	0.000006	0.005235
C91	C	0.631009	0.000002	0.820294
C92	C	0.631008	0.000004	0.884527
C93	C	0.441761	0.221142	0.631037
C94	C	0.377530	0.296198	0.631038
C95	C	0.441745	0.000011	0.820289
C96	C	0.377509	0.000017	0.884521
C97	C	0.630996	-0.221137	0.820284
C98	C	0.630991	-0.296187	0.884514
C99	C	0.631029	0.221125	0.441781
C100	C	0.631034	0.296175	0.377550
C101	C	0.820281	-0.000023	0.441776
C102	C	0.884517	-0.000029	0.377544
C103	C	0.820265	-0.221154	0.631028
C104	C	0.884495	-0.296210	0.631026
C105	C	0.384328	0.374630	0.594085
C106	C	0.323983	0.445160	0.594090
C107	C	0.256840	0.437255	0.631043
C108	C	0.250044	0.358814	0.668001
C109	C	0.310389	0.288286	0.668001
C110	C	0.310382	0.043209	0.877728
C111	C	0.250020	0.043231	0.938075
C112	C	0.256786	0.000056	1.005214
C113	C	0.323920	-0.043138	1.012004
C114	C	0.384280	-0.043154	0.951658
C115	C	0.594033	-0.288246	0.951642
C116	C	0.594030	-0.358756	1.011999
C117	C	0.630982	-0.437207	1.005227
C118	C	0.667945	-0.445146	0.938092
C119	C	0.667952	-0.374636	0.877737
C120	C	0.668000	0.288234	0.310423
C121	C	0.668021	0.358744	0.250066
C122	C	0.631072	0.437195	0.256838
C123	C	0.594105	0.445134	0.323973
C124	C	0.594089	0.374624	0.384328
C125	C	0.951643	-0.043214	0.384337
C126	C	1.012005	-0.043216	0.323990
C127	C	1.005239	-0.000038	0.256851
C128	C	0.938106	0.043152	0.250060
C129	C	0.877745	0.043159	0.310407
C130	C	0.951625	-0.288278	0.594065
C131	C	1.011982	-0.358794	0.594049
C132	C	1.005207	-0.437241	0.630999
C133	C	0.938070	-0.445171	0.667962
C134	C	0.877714	-0.374655	0.667973
H135	H	0.195363	0.078358	0.698078
N136	N	0.705712	0.087307	-0.068820
N137	N	0.673541	0.144168	-0.043385
H138	H	0.700196	0.175333	-0.048277
N139	N	0.303439	0.087317	0.705735
N140	N	0.243492	0.125870	0.738732
H141	H	0.238586	0.157029	0.765401
N142	N	0.134768	-0.012458	0.756173
N143	N	0.082543	-0.017967	0.811444
H144	H	0.083879	-0.022415	0.856108
H145	H	-0.042830	-0.078370	0.563984
H146	H	0.559720	-0.374622	0.559830
N147	N	1.066870	-0.509258	0.630975
N148	N	1.126802	-0.502155	0.597969
H149	H	1.170355	-0.553015	0.597951
N150	N	0.493823	-0.500770	0.688672
N151	N	0.477161	-0.558661	0.742788
H152	H	0.427300	-0.559271	0.763744
H153	H	0.329418	-0.078289	1.066677
H154	H	1.054395	-0.000051	0.207719
H155	H	0.563939	-0.224374	0.957169
N156	N	0.330889	-0.087315	0.556317
N157	N	0.362374	-0.163454	0.571988
H158	H	0.367279	-0.194620	0.545326
H159	H	0.563943	-0.078340	0.438973
N160	N	-0.190844	0.087306	0.705732
N161	N	-0.232758	0.144164	0.673554
H162	H	-0.281189	0.175343	0.700201
N163	N	0.705682	-0.525290	0.931194
N164	N	0.705659	-0.588231	0.985093
H165	H	0.732306	-0.644836	0.980224
N166	N	0.573228	-0.499343	0.768289
N167	N	0.552056	-0.556857	0.818626
H168	H	0.531038	-0.556330	0.868521
N169	N	0.958544	-0.208147	0.556312
N170	N	0.904658	-0.145185	0.556316
H171	H	0.909548	-0.088592	0.529648
N172	N	0.452910	0.382711	0.556355
N173	N	0.494823	0.352987	0.588539
H174	H	0.543258	0.358697	0.561896
H175	H	0.753836	-0.499378	0.579401
H176	H	1.066643	-0.352322	0.563950
H177	H	0.563928	-0.352277	1.066657
H178	H	0.702239	-0.625289	0.702379
N179	N	0.249259	0.012464	0.505887
N180	N	0.307624	-0.043798	0.504662
H181	H	0.349825	-0.039351	0.460005
H182	H	0.682607	-0.500585	0.508191
N183	N	0.195204	0.509303	0.631022
N184	N	0.151770	0.521511	0.607093
H185	H	0.108241	0.572398	0.607072
N186	N	0.705709	-0.382769	0.809174
N187	N	0.738695	-0.452823	0.803146
H188	H	0.765364	-0.458574	0.754724
N189	N	1.080580	-0.087331	0.330923
N190	N	1.122510	-0.049754	0.305509
H191	H	1.170940	-0.080910	0.310406
N192	N	0.181451	0.087333	0.931128
N193	N	0.139525	0.049746	0.956554
H194	H	0.091099	0.080891	0.951646
H195	H	0.631091	0.494602	0.207687
H196	H	0.698093	0.078313	0.304882
N197	N	0.303440	0.208170	0.705754
N198	N	0.271946	0.187139	0.770915
H199	H	0.267034	0.130557	0.797582
N200	N	0.705746	0.208111	0.303482
N201	N	0.738749	0.201047	0.243535
H202	H	0.765412	0.144462	0.238627
H203	H	0.932564	-0.509051	0.698046
N204	N	0.705759	0.350638	0.181491
N205	N	0.705768	0.413592	0.127602
H206	H	0.732415	0.407866	0.079171
N207	N	0.556291	-0.087296	0.330892
N208	N	0.523288	-0.125844	0.390833
H209	H	0.496617	-0.156994	0.395730
H210	H	0.640583	-0.131238	0.237138
N211	N	0.452870	-0.087302	0.556305
N212	N	0.470868	-0.068993	0.491144
H213	H	0.519294	-0.100144	0.464469
H214	H	0.207631	0.000075	1.054346
N215	N	0.931213	0.087253	0.181473
N216	N	0.985118	0.087230	0.127604
H217	H	0.980253	0.118373	0.079162
N218	N	0.809144	-0.382765	0.705726
N219	N	0.791140	-0.419561	0.690054
H220	H	0.742713	-0.425294	0.716718
N221	N	0.630966	-0.509218	1.066890
N222	N	0.597959	-0.502107	1.126819
H223	H	0.597943	-0.552963	1.170372
H224	H	0.564022	0.509017	0.329478
H225	H	0.563953	-0.078347	0.066675
N226	N	0.012767	-0.012451	0.756166
N227	N	-0.041118	-0.012445	0.756159
H228	H	-0.083325	-0.016875	0.800812
N229	N	0.556322	0.382758	0.452891
N230	N	0.523336	0.452811	0.458919
H231	H	0.496661	0.458562	0.507341
H232	H	0.823090	0.078323	0.304866
N233	N	-0.068856	0.087316	0.705732
N234	N	-0.128801	0.125876	0.738724
H235	H	-0.133705	0.157053	0.765377
N236	N	0.080569	-0.087306	0.556305
N237	N	0.098563	-0.068992	0.491144
H238	H	0.146989	-0.100144	0.464466
N239	N	0.127259	0.012475	0.505877
N240	N	0.179489	0.017977	0.450609
H241	H	0.178155	0.022432	0.405941
N242	N	0.641667	-0.146215	0.127251
N243	N	0.641665	-0.146204	0.073360
H244	H	0.645465	-0.198380	0.072006
N245	N	0.958578	-0.087330	0.452906
N246	N	1.018524	-0.125877	0.458948
H247	H	1.023428	-0.157034	0.507374
H248	H	0.304860	0.078378	0.823066
H249	H	0.563950	-0.078338	-0.042817
N250	N	0.452842	-0.087283	0.958615
N251	N	0.458865	-0.125827	1.018567
H252	H	0.507286	-0.156995	1.023486
H253	H	0.698066	0.078347	-0.176913
N254	N	0.181451	0.350764	0.705733
N255	N	0.139538	0.380500	0.673547
H256	H	0.091092	0.374819	0.700191
N257	N	0.620331	0.146234	0.012820
N258	N	0.615626	0.210808	0.014498
H259	H	0.611815	0.263001	-0.027687
H260	H	0.698077	0.078325	0.195389
N261	N	0.620338	0.146229	0.134803
N262	N	0.615619	0.210811	0.082584
H263	H	0.611806	0.263001	0.083925
H264	H	0.329530	0.509023	0.563991
