data_functionalizedCrystal
_audit_creation_method	'MofGen! by Chris Wilmer'
_symmetry_space_group_name_H-M	'P1'
_symmetry_Int_Tables_number	1
_symmetry_cell_setting	triclinic
loop_
_symmetry_equiv_pos_as_xyz
  x,y,z
_cell_length_a	10.489741
_cell_length_b	26.210047
_cell_length_c	10.489741
_cell_angle_alpha	89.995802
_cell_angle_beta	95.460826
_cell_angle_gamma	90.013751
loop_
_atom_site_label
_atom_site_type_symbol
_atom_site_fract_x
_atom_site_fract_y
_atom_site_fract_z
O1	O	1.694076	0.042397	-0.179965
O2	O	1.322880	0.042405	-0.196858
O3	O	1.516925	0.042398	-0.002814
O4	O	1.500032	0.042404	-0.374010
O5	O	1.516863	-0.042460	-0.002813
O6	O	1.322819	-0.042453	-0.196857
O7	O	1.694014	-0.042461	-0.179964
Cu8	Cu	1.508411	-0.050205	-0.188411
Cu9	Cu	1.508484	0.050149	-0.188412
O10	O	1.499970	-0.042454	-0.374009
C11	C	1.275318	-0.000023	-0.195582
C12	C	1.133688	-0.000020	-0.191765
N13	N	1.508369	-0.120789	-0.188409
C14	C	1.065548	-0.000027	-0.068300
C15	C	0.973452	0.041812	-0.126624
C16	C	0.973425	-0.041851	-0.126652
C17	C	1.043457	0.041854	-0.250139
C18	C	1.043440	-0.041847	-0.250151
C19	C	0.951371	0.000003	-0.308564
C20	C	1.586542	-0.473304	-0.266519
C21	C	1.586580	-0.686962	-0.266519
O22	O	1.653017	-0.714584	-0.332916
N23	N	1.508514	-0.713683	-0.188399
C24	C	1.430439	-0.686986	-0.110268
O25	O	1.364050	-0.714616	-0.043813
C26	C	1.430409	-0.473328	-0.110263
C27	C	1.508471	-0.446610	-0.188397
C28	C	1.664599	-0.446585	-0.344646
C29	C	1.664583	-0.393174	-0.344650
C30	C	1.586512	-0.366481	-0.266528
C31	C	1.508455	-0.393199	-0.188402
C32	C	1.352342	-0.446632	-0.032126
C33	C	1.352344	-0.393214	-0.032129
C34	C	1.430405	-0.366496	-0.110263
C35	C	1.430368	-0.313094	-0.110284
N36	N	1.508434	-0.286373	-0.188403
C37	C	1.586506	-0.313066	-0.266525
C38	C	1.430459	-0.799159	-0.110278
C39	C	1.430464	-0.852573	-0.110281
C40	C	1.586607	-0.852546	-0.266530
C41	C	1.586594	-0.799131	-0.266533
C42	C	1.508525	-0.772438	-0.188398
C43	C	1.586467	-0.200899	-0.266530
C44	C	1.586441	-0.147482	-0.266531
C45	C	1.430303	-0.147515	-0.110278
C46	C	1.430324	-0.200926	-0.110281
C47	C	1.508416	-0.227617	-0.188411
O48	O	1.363977	-0.285439	-0.043911
O49	O	1.652907	-0.285427	-0.332950
C50	C	1.586558	-0.526715	-0.266515
C51	C	1.508501	-0.553433	-0.188388
C52	C	1.430430	-0.526740	-0.110266
C53	C	1.508507	-0.606847	-0.188391
C54	C	1.586579	-0.633541	-0.266513
C55	C	1.664645	-0.606820	-0.344632
C56	C	1.664630	-0.553408	-0.344637
C57	C	1.352364	-0.553461	-0.032146
C58	C	1.352384	-0.606872	-0.032149
C59	C	1.430456	-0.633566	-0.110271
C60	C	1.741577	-0.000032	-0.181241
C61	C	1.883206	-0.000031	-0.185058
C62	C	1.515618	-0.000031	0.044718
C63	C	1.511801	-0.000030	0.186348
N64	N	1.508536	0.120733	-0.188403
C65	C	1.501277	-0.000024	-0.421541
C66	C	1.505094	-0.000022	-0.563170
C67	C	1.388336	-0.000023	0.254488
C68	C	1.446629	-0.041864	0.346611
C69	C	1.446719	0.041799	0.346584
C70	C	1.570145	-0.041905	0.276605
C71	C	1.570218	0.041796	0.276569
C72	C	1.628600	-0.000055	0.368665
H73	H	0.942463	0.077183	-0.074384
O74	O	1.124999	-0.000006	0.052711
C75	C	1.258805	-0.000441	0.047468
H76	H	1.281881	-0.016774	-0.048399
H77	H	1.305400	-0.025070	0.128531
H78	H	1.297334	0.040166	0.058034
H79	H	1.394489	0.077176	0.377548
H80	H	1.622440	0.077169	0.245524
O81	O	1.384488	-0.084098	0.383707
C82	C	1.468225	-0.113265	0.467865
H83	H	1.571528	-0.103919	0.451402
H84	H	1.449526	-0.155583	0.449207
H85	H	1.451331	-0.103880	0.571035
O86	O	1.662356	-0.226742	-0.342546
C87	C	1.731261	-0.191697	-0.411472
H88	H	1.678506	-0.153631	-0.418386
H89	H	1.740091	-0.207120	-0.511863
H90	H	1.830903	-0.186002	-0.359904
O91	O	1.740273	-0.527436	-0.420680
C92	C	1.663297	-0.496538	-0.506951
H93	H	1.561921	-0.512642	-0.519648
H94	H	1.704935	-0.495933	-0.603441
H95	H	1.660791	-0.456055	-0.467529
O96	O	1.080167	0.084066	-0.312612
C97	C	1.020487	0.084171	-0.438860
H98	H	0.992511	0.043527	-0.468404
H99	H	1.089641	0.100002	-0.506501
H100	H	0.931052	0.109068	-0.443765
H101	H	1.650158	-0.777380	-0.330158
O102	O	1.632504	-0.084101	0.239697
C103	C	1.740184	-0.069174	0.177918
H104	H	1.725226	-0.028797	0.138944
H105	H	1.753216	-0.096474	0.095561
H106	H	1.829178	-0.070183	0.249291
O107	O	0.892192	0.000007	-0.429686
C108	C	0.758343	-0.000400	-0.424760
H109	H	0.734997	-0.016706	-0.328943
H110	H	0.711873	-0.025038	-0.505876
H111	H	0.719925	0.040213	-0.435479
O112	O	1.080427	-0.084097	-0.312234
C113	C	1.045098	-0.128127	-0.246828
H114	H	1.033879	-0.118105	-0.142738
H115	H	1.122447	-0.158486	-0.250649
H116	H	0.950403	-0.143394	-0.294207
H117	H	0.942421	-0.077223	-0.074389
O118	O	1.662344	-0.121472	-0.342253
C119	C	1.748686	-0.090573	-0.265329
H120	H	1.708128	-0.082577	-0.170292
H121	H	1.763351	-0.053010	-0.316756
H122	H	1.844395	-0.111146	-0.246737
O123	O	1.276397	-0.527614	0.043776
C124	C	1.207531	-0.562658	0.112743
H125	H	1.200597	-0.600732	0.060004
H126	H	1.107146	-0.547246	0.121630
H127	H	1.259160	-0.568335	0.212361
H128	H	1.730204	-0.000080	0.418089
H129	H	1.650171	-0.874289	-0.330145
O130	O	1.740544	-0.367303	-0.420574
C131	C	1.809425	-0.402326	-0.489536
H132	H	1.816373	-0.440401	-0.436794
H133	H	1.909805	-0.386887	-0.498422
H134	H	1.757801	-0.408010	-0.589154
H135	H	1.366883	-0.874323	-0.046672
H136	H	1.366881	-0.777431	-0.046647
H137	H	1.288777	-0.468377	0.031501
H138	H	1.288769	-0.371484	0.031501
O139	O	1.740589	-0.472532	-0.420353
C140	C	1.826913	-0.503433	-0.343448
H141	H	1.839683	-0.487347	-0.242068
H142	H	1.923365	-0.504017	-0.385161
H143	H	1.787497	-0.543922	-0.340928
O144	O	1.354452	-0.226803	-0.034272
C145	C	1.285513	-0.191784	0.034645
H146	H	1.338236	-0.153701	0.041558
H147	H	1.276691	-0.207216	0.135037
H148	H	1.185868	-0.186119	-0.016928
H149	H	1.366735	-0.125771	-0.046676
O150	O	1.740633	-0.632778	-0.420329
C151	C	1.826933	-0.663674	-0.343383
H152	H	1.839695	-0.647572	-0.242017
H153	H	1.923392	-0.664273	-0.385079
H154	H	1.787497	-0.704159	-0.340831
O155	O	1.276728	-0.632879	0.043826
C156	C	1.353725	-0.663755	0.130134
H157	H	1.448727	-0.671747	0.089504
H158	H	1.302328	-0.701322	0.144865
H159	H	1.372382	-0.643164	0.225822
H160	H	1.286824	-0.000063	0.204837
