data_functionalizedCrystal
_audit_creation_method	'MofGen! by Chris Wilmer'
_symmetry_space_group_name_H-M	'P1'
_symmetry_Int_Tables_number	1
_symmetry_cell_setting	triclinic
loop_
_symmetry_equiv_pos_as_xyz
  x,y,z
_cell_length_a	18.101398
_cell_length_b	18.101395
_cell_length_c	18.101389
_cell_angle_alpha	90.016841
_cell_angle_beta	90.024327
_cell_angle_gamma	90.026371
loop_
_atom_site_label
_atom_site_type_symbol
_atom_site_fract_x
_atom_site_fract_y
_atom_site_fract_z
Zn1	Zn	1.132121	-0.295001	0.418847
Zn2	Zn	1.465454	0.038333	0.752180
Zn3	Zn	1.798788	0.371666	1.085514
Zn4	Zn	1.132017	-0.418826	0.295009
Zn5	Zn	1.465350	-0.085493	0.628342
Zn6	Zn	1.798684	0.247840	0.961675
Zn7	Zn	1.008280	-0.294993	0.295008
Zn8	Zn	1.341613	0.038340	0.628341
Zn9	Zn	1.674947	0.371674	0.961675
Zn10	Zn	1.008231	-0.418795	0.418797
Zn11	Zn	1.341564	-0.085461	0.752131
Zn12	Zn	1.674897	0.247872	1.085464
O13	O	1.070162	-0.356904	0.356915
O14	O	1.403495	-0.023570	0.690249
O15	O	1.736829	0.309763	1.023582
O16	O	1.235740	-0.311443	0.402440
O17	O	1.569073	0.021890	0.735774
O18	O	1.902407	0.355224	1.069107
O19	O	1.115580	-0.402410	0.191376
O20	O	1.448913	-0.069076	0.524709
O21	O	1.782247	0.264257	0.858042
O22	O	1.024772	-0.191361	0.311456
O23	O	1.358105	0.141972	0.644789
O24	O	1.691439	0.475305	0.978123
O25	O	1.235664	-0.402417	0.311457
O26	O	1.568997	-0.069084	0.644790
O27	O	1.902330	0.264249	0.978124
O28	O	1.115757	-0.191367	0.402440
O29	O	1.449091	0.141966	0.735773
O30	O	1.782424	0.475300	1.069106
O31	O	1.024671	-0.311430	0.191375
O32	O	1.358004	0.021903	0.524708
O33	O	1.691338	0.355237	0.858042
O34	O	0.904641	-0.311399	0.311408
O35	O	1.237974	0.021934	0.644741
O36	O	1.571307	0.355268	0.978075
O37	O	1.024688	-0.402363	0.522437
O38	O	1.358021	-0.069030	0.855770
O39	O	1.691355	0.264303	1.189103
O40	O	0.904604	-0.402356	0.402355
O41	O	1.237938	-0.069022	0.735689
O42	O	1.571271	0.264311	1.069022
O43	O	1.115710	-0.311412	0.522473
O44	O	1.449043	0.021921	0.855807
O45	O	1.782376	0.355254	1.189140
O46	O	1.115532	-0.522455	0.311409
O47	O	1.448866	-0.189122	0.644742
O48	O	1.782199	0.144212	0.978076
O49	O	1.024587	-0.522432	0.402356
O50	O	1.357920	-0.189099	0.735689
O51	O	1.691254	0.144235	1.069023
C52	C	0.877752	-0.356874	0.356877
C53	C	1.211085	-0.023540	0.690210
C54	C	1.544418	0.309793	1.023543
C55	C	0.795437	-0.356879	0.356878
C56	C	1.128771	-0.023545	0.690211
C57	C	1.462104	0.309788	1.023544
C58	C	0.496347	-0.356925	0.356940
C59	C	0.829680	-0.023592	0.690273
C60	C	1.163013	0.309742	1.023606
C61	C	0.527670	-0.299412	0.299997
C62	C	0.861003	0.033922	0.633331
C63	C	1.194336	0.367255	0.966664
C64	C	0.613288	-0.299566	0.299754
C65	C	0.946621	0.033768	0.633088
C66	C	1.279955	0.367101	0.966421
C67	C	0.644729	-0.356901	0.356909
C68	C	0.978062	-0.023568	0.690242
C69	C	1.311396	0.309765	1.023576
C70	C	0.613611	-0.434909	0.335587
C71	C	0.946944	-0.101576	0.668920
C72	C	1.280278	0.231757	1.002253
C73	C	0.527966	-0.434590	0.335191
C74	C	0.861299	-0.101256	0.668524
C75	C	1.194632	0.232077	1.001857
C76	C	0.527961	-0.337109	0.435339
C77	C	0.861294	-0.003775	0.768672
C78	C	1.194628	0.329558	1.102005
C79	C	0.613612	-0.335371	0.434911
C80	C	0.946945	-0.002038	0.768244
C81	C	1.280279	0.331295	1.101577
C82	C	0.728589	-0.356893	0.356893
C83	C	1.061922	-0.023559	0.690226
C84	C	1.395255	0.309774	1.023559
C85	C	0.412487	-0.356939	0.356954
C86	C	0.745820	-0.023605	0.690288
C87	C	1.079154	0.309728	1.023621
C88	C	1.070063	-0.549314	0.356893
C89	C	1.403396	-0.215981	0.690227
C90	C	1.736730	0.117352	1.023560
C91	C	1.070088	-0.631628	0.356909
C92	C	1.403422	-0.298295	0.690242
C93	C	1.736755	0.035038	1.023576
C94	C	1.070251	-0.930719	0.356949
C95	C	1.403584	-0.597386	0.690282
C96	C	1.736918	-0.264053	1.023615
C97	C	1.013163	-0.899410	0.414312
C98	C	1.346497	-0.566077	0.747646
C99	C	1.679830	-0.232744	1.080979
C100	C	1.012892	-0.813792	0.414133
C101	C	1.346225	-0.480459	0.747466
C102	C	1.679559	-0.147126	1.080799
C103	C	1.070170	-0.782337	0.356930
C104	C	1.403504	-0.449003	0.690263
C105	C	1.736837	-0.115670	1.023596
C106	C	1.049041	-0.813472	0.278878
C107	C	1.382374	-0.480139	0.612211
C108	C	1.715708	-0.146806	0.945545
C109	C	1.048673	-0.899117	0.279221
C110	C	1.382006	-0.565784	0.612555
C111	C	1.715340	-0.232451	0.945888
C112	C	1.148593	-0.899073	0.376950
C113	C	1.481926	-0.565740	0.710283
C114	C	1.815259	-0.232407	1.043617
C115	C	1.148132	-0.813422	0.378661
C116	C	1.481465	-0.480089	0.711995
C117	C	1.814799	-0.146756	1.045328
C118	C	1.070126	-0.698477	0.356914
C119	C	1.403459	-0.365144	0.690247
C120	C	1.736793	-0.031811	1.023581
C121	C	1.070293	-1.014579	0.356959
C122	C	1.403627	-0.681245	0.690293
C123	C	1.736960	-0.347912	1.023626
C124	C	1.263324	-0.356934	0.356954
C125	C	1.596657	-0.023601	0.690288
C126	C	1.929991	0.309732	1.023621
C127	C	1.345638	-0.356948	0.356971
C128	C	1.678971	-0.023614	0.690304
C129	C	2.012305	0.309719	1.023638
C130	C	1.070205	-0.356885	0.550077
C131	C	1.403538	-0.023552	0.883411
C132	C	1.736872	0.309782	1.216744
C133	C	1.070223	-0.356877	0.632391
C134	C	1.403556	-0.023544	0.965725
C135	C	1.736890	0.309790	1.299058
C136	C	1.070282	-0.163742	0.356953
C137	C	1.403615	0.169591	0.690287
C138	C	1.736948	0.502925	1.023620
C139	C	1.070333	-0.081428	0.356970
C140	C	1.403666	0.251906	0.690303
C141	C	1.736999	0.585239	1.023636
C142	C	1.070162	-0.356869	0.164505
C143	C	1.403495	-0.023536	0.497838
C144	C	1.736829	0.309798	0.831171
C145	C	1.070287	-0.356668	0.082191
C146	C	1.403621	-0.023335	0.415524
C147	C	1.736954	0.309998	0.748858
C148	C	1.070266	-0.356738	0.931482
C149	C	1.403600	-0.023405	1.264816
C150	C	1.736933	0.309928	1.598149
C151	C	1.012801	-0.413780	0.900134
C152	C	1.346134	-0.080447	1.233468
C153	C	1.679467	0.252887	1.566801
C154	C	1.012956	-0.414045	0.814516
C155	C	1.346289	-0.080711	1.147849
C156	C	1.679623	0.252622	1.481183
C157	C	1.070244	-0.356807	0.783100
C158	C	1.403578	-0.023474	1.116433
C159	C	1.736911	0.309860	1.449767
C160	C	1.148270	-0.377998	0.814206
C161	C	1.481603	-0.044664	1.147539
C162	C	1.814936	0.288669	1.480873
C163	C	1.147949	-0.378372	0.899851
C164	C	1.481283	-0.045039	1.233184
C165	C	1.814616	0.288295	1.566518
C166	C	1.050385	-0.278379	0.899905
C167	C	1.383718	0.054954	1.233238
C168	C	1.717052	0.388288	1.566571
C169	C	1.048649	-0.278832	0.814254
C170	C	1.381982	0.054502	1.147587
C171	C	1.715315	0.387835	1.480920
C172	C	1.070237	-0.356845	0.699240
C173	C	1.403570	-0.023511	1.032574
C174	C	1.736903	0.309822	1.365907
C175	C	1.070279	-0.356702	1.015342
C176	C	1.403613	-0.023369	1.348675
C177	C	1.736946	0.309964	1.682009
H178	H	0.507954	-0.451397	0.277877
H179	H	0.841287	-0.118063	0.611211
H180	H	1.174621	0.215270	0.944544
O181	O	0.640558	-0.259334	0.456219
O182	O	0.973892	0.073999	0.789552
O183	O	1.307225	0.407333	1.122886
H184	H	0.675970	-0.236964	0.411449
H185	H	1.009303	0.096369	0.744782
H186	H	1.342636	0.429703	1.078116
O187	O	0.641976	-0.457557	0.260488
O188	O	0.975310	-0.124223	0.593821
O189	O	1.308643	0.209110	0.927154
H190	H	0.673925	-0.509628	0.265616
H191	H	1.007258	-0.176294	0.598950
H192	H	1.340591	0.157039	0.932283
O193	O	1.100046	-0.219541	0.785939
O194	O	1.433380	0.113792	1.119272
O195	O	1.766713	0.447126	1.452606
H196	H	1.141976	-0.244838	0.749059
H197	H	1.475310	0.088496	1.082392
H198	H	1.808643	0.421829	1.415726
H199	H	1.192217	-0.338629	0.920590
H200	H	1.525550	-0.005296	1.253924
H201	H	1.858884	0.328038	1.587257
O202	O	1.169249	-0.786466	0.454747
O203	O	1.502583	-0.453133	0.788080
O204	O	1.835916	-0.119800	1.121414
H205	H	1.221150	-0.753982	0.451232
H206	H	1.554483	-0.420649	0.784566
H207	H	1.887817	-0.087316	1.117899
O208	O	1.105824	-0.222083	0.926763
O209	O	1.439157	0.111250	1.260097
O210	O	1.772490	0.444583	1.593430
H211	H	1.133928	-0.196569	0.878619
H212	H	1.467261	0.136764	1.211952
H213	H	1.800594	0.470097	1.545285
O214	O	0.936706	-0.927978	0.396984
O215	O	1.270039	-0.594645	0.730317
O216	O	1.603373	-0.261312	1.063650
H217	H	0.939188	-0.964378	0.347692
H218	H	1.272521	-0.631045	0.681025
H219	H	1.605854	-0.297712	1.014359
O220	O	1.102382	-0.786482	0.220717
O221	O	1.435715	-0.453149	0.554050
O222	O	1.769049	-0.119816	0.887384
H223	H	1.129868	-0.834551	0.194398
H224	H	1.463201	-0.501218	0.527731
H225	H	1.796535	-0.167885	0.861064
H226	H	0.506120	-0.312363	0.242242
H227	H	0.839454	0.020971	0.575576
H228	H	1.172787	0.354304	0.908909
O229	O	0.500514	-0.493277	0.387725
O230	O	0.833847	-0.159943	0.721058
O231	O	1.167181	0.173390	1.054392
H232	H	0.439196	-0.493485	0.387839
H233	H	0.772529	-0.160152	0.721172
H234	H	1.105863	0.173181	1.054506
H235	H	1.088449	-0.919830	0.235023
H236	H	1.421783	-0.586497	0.568357
H237	H	1.755116	-0.253163	0.901690
H238	H	1.167856	-0.920633	0.432895
H239	H	1.501190	-0.587300	0.766229
H240	H	1.834523	-0.253966	1.099562
O241	O	0.641936	-0.386831	0.494124
O242	O	0.975269	-0.053498	0.827457
O243	O	1.308602	0.279836	1.160791
H244	H	0.678797	-0.428744	0.468769
H245	H	1.012130	-0.095411	0.802102
H246	H	1.345463	0.237923	1.135436
O247	O	0.935980	-0.786719	0.396564
O248	O	1.269314	-0.453386	0.729897
O249	O	1.602647	-0.120052	1.063231
H250	H	0.898836	-0.834799	0.388157
H251	H	1.232170	-0.501466	0.721490
H252	H	1.565503	-0.168132	1.054823
H253	H	0.994478	-0.259074	0.921490
H254	H	1.327811	0.074259	1.254823
H255	H	1.661144	0.407593	1.588157
H256	H	1.164804	-0.435654	0.919836
H257	H	1.498137	-0.102320	1.253169
H258	H	1.831471	0.231013	1.586503
H259	H	0.634329	-0.241719	0.313119
H260	H	0.967662	0.091614	0.646453
H261	H	1.300995	0.424948	0.979786
H262	H	1.026082	-0.472127	0.794035
H263	H	1.359415	-0.138794	1.127369
H264	H	1.692749	0.194540	1.460702
H265	H	1.192236	-0.337757	0.793859
H266	H	1.525569	-0.004423	1.127192
H267	H	1.858902	0.328910	1.460526
H268	H	0.991406	-0.919153	0.262279
H269	H	1.324739	-0.585819	0.595613
H270	H	1.658072	-0.252486	0.928946
H271	H	1.192915	-0.792007	0.339927
H272	H	1.526248	-0.458673	0.673260
H273	H	1.859582	-0.125340	1.006593
O274	O	0.972591	-0.257661	0.787321
O275	O	1.305924	0.075673	1.120655
O276	O	1.639257	0.409006	1.453988
H277	H	0.957735	-0.202493	0.809581
H278	H	1.291068	0.130840	1.142915
H279	H	1.624402	0.464173	1.476248
H280	H	0.507705	-0.378999	0.477766
H281	H	0.841038	-0.045666	0.811100
H282	H	1.174371	0.287667	1.144433
H283	H	0.954768	-0.400655	0.920720
H284	H	1.288101	-0.067321	1.254053
H285	H	1.621434	0.266012	1.587386
H286	H	1.025796	-0.471508	0.921661
H287	H	1.359130	-0.138174	1.254995
H288	H	1.692463	0.195159	1.588328
O289	O	0.973985	-0.785146	0.256028
O290	O	1.307319	-0.451813	0.589361
O291	O	1.640652	-0.118479	0.922695
H292	H	0.951611	-0.748903	0.300131
H293	H	1.284944	-0.415569	0.633464
H294	H	1.618278	-0.082236	0.966798
O295	O	1.170987	-0.453070	0.785818
O296	O	1.504320	-0.119737	1.119151
O297	O	1.837654	0.213597	1.452484
H298	H	1.126836	-0.475409	0.749563
H299	H	1.460170	-0.142076	1.082897
H300	H	1.793503	0.191257	1.416230
H301	H	0.955097	-0.400784	0.793483
H302	H	1.288430	-0.067450	1.126816
H303	H	1.621764	0.265883	1.460150
H304	H	0.633741	-0.312665	0.241661
H305	H	0.967075	0.020668	0.574995
H306	H	1.300408	0.354002	0.908328
O307	O	0.500377	-0.222557	0.317460
O308	O	0.833710	0.110776	0.650793
O309	O	1.167043	0.444109	0.984127
H310	H	0.464196	-0.224526	0.366912
H311	H	0.797530	0.108807	0.700246
H312	H	1.130863	0.442141	1.033579
O313	O	1.204975	-0.926055	0.321733
O314	O	1.538308	-0.592722	0.655067
O315	O	1.871642	-0.259389	0.988400
H316	H	1.177378	-0.961810	0.280228
H317	H	1.510711	-0.628477	0.613561
H318	H	1.844045	-0.295143	0.946895
O319	O	0.640580	-0.493199	0.388800
O320	O	0.973914	-0.159865	0.722133
O321	O	1.307247	0.173468	1.055466
H322	H	0.701845	-0.495297	0.387412
H323	H	1.035179	-0.161963	0.720745
H324	H	1.368512	0.171370	1.054078
H325	H	1.026111	-0.792740	0.472007
H326	H	1.359445	-0.459407	0.805340
H327	H	1.692778	-0.126073	1.138674
O328	O	0.499400	-0.263068	0.461021
O329	O	0.832733	0.070265	0.794354
O330	O	1.166066	0.403598	1.127688
H331	H	0.438192	-0.264854	0.464233
H332	H	0.771526	0.068479	0.797566
H333	H	1.104859	0.401813	1.130900
H334	H	1.026252	-0.919970	0.472374
H335	H	1.359585	-0.586636	0.805707
H336	H	1.692918	-0.253303	1.139040
