data_functionalizedCrystal
_audit_creation_method	'MofGen! by Chris Wilmer'
_symmetry_space_group_name_H-M	'P1'
_symmetry_Int_Tables_number	1
_symmetry_cell_setting	triclinic
loop_
_symmetry_equiv_pos_as_xyz
  x,y,z
_cell_length_a	14.971506
_cell_length_b	10.654550
_cell_length_c	9.130313
_cell_angle_alpha	90.002847
_cell_angle_beta	89.995972
_cell_angle_gamma	95.946341
loop_
_atom_site_label
_atom_site_type_symbol
_atom_site_fract_x
_atom_site_fract_y
_atom_site_fract_z
O1	O	1.187824	-0.163774	-0.121809
O2	O	1.687824	0.336226	0.378191
O3	O	0.927533	-0.183346	-0.121810
O4	O	1.427533	0.316654	0.378190
O5	O	1.063663	0.009243	-0.121800
O6	O	1.563663	0.509243	0.378200
O7	O	1.051694	-0.356363	-0.121819
O8	O	1.551694	0.143637	0.378181
O9	O	1.063653	0.009243	0.121798
O10	O	1.563653	0.509243	0.621798
O11	O	0.927522	-0.183346	0.121789
O12	O	1.427522	0.316654	0.621789
O13	O	1.187814	-0.163774	0.121790
O14	O	1.687814	0.336226	0.621790
Cu15	Cu	1.057667	-0.173560	0.144032
Cu16	Cu	1.557667	0.326440	0.644032
Cu17	Cu	1.057679	-0.173560	-0.144052
Cu18	Cu	1.557679	0.326440	0.355948
O19	O	1.051683	-0.356363	0.121780
O20	O	1.551683	0.143637	0.621780
C21	C	0.894198	-0.182466	-0.000010
C22	C	1.394198	0.317534	0.499990
C23	C	0.794888	-0.179830	-0.000011
C24	C	1.294888	0.320170	0.499989
C25	C	1.062779	0.056031	-0.000002
C26	C	1.562779	0.556031	0.499998
C27	C	1.060150	0.195447	-0.000004
C28	C	1.560150	0.695447	0.499996
N29	N	1.057665	-0.173560	0.346654
N30	N	1.557665	0.326440	0.846654
C31	C	0.357166	-0.282910	-0.000031
C32	C	0.857166	0.217090	0.499969
C33	C	0.450480	-0.285378	-0.000037
C34	C	0.950480	0.214622	0.499963
C35	C	0.507084	-0.172224	-0.000025
C36	C	1.007084	0.327776	0.499975
C37	C	0.470370	-0.056596	-0.000021
C38	C	0.970370	0.443404	0.499979
C39	C	0.377058	-0.054130	-0.000025
C40	C	0.877058	0.445870	0.499975
C41	C	0.664861	-0.061744	-0.000009
C42	C	1.164861	0.438256	0.499991
C43	C	0.758180	-0.064210	-0.000002
C44	C	1.258180	0.435790	0.499998
C45	C	0.738283	-0.292992	-0.000021
C46	C	1.238283	0.207008	0.499979
C47	C	0.644971	-0.290526	-0.000025
C48	C	1.144971	0.209474	0.499975
C49	C	0.608264	-0.174897	-0.000019
C50	C	1.108264	0.325103	0.499981
C51	C	1.221148	-0.164654	-0.000013
C52	C	1.721148	0.335346	0.499987
C53	C	1.320458	-0.167291	-0.000023
C54	C	1.820458	0.332709	0.499977
C55	C	1.052567	-0.403152	-0.000022
C56	C	1.552567	0.096848	0.499978
C57	C	1.055197	-0.542567	-0.000029
C58	C	1.555197	-0.042567	0.499971
C59	C	1.140301	0.275784	-0.000004
C60	C	1.640301	0.775784	0.499996
C61	C	1.137825	0.406778	-0.000022
C62	C	1.637825	0.906778	0.499978
C63	C	0.975039	0.377085	-0.000033
C64	C	1.475039	0.877085	0.499967
C65	C	0.977516	0.246093	-0.000026
C66	C	1.477516	0.746093	0.499974
N67	N	1.057688	-0.173551	-0.346675
N68	N	1.557688	0.326449	0.153325
C69	C	1.112384	-0.249860	0.423297
C70	C	1.612384	0.250140	0.923297
C71	C	1.112398	-0.249853	0.576634
C72	C	1.612398	0.250147	1.076634
C73	C	1.002968	-0.097241	0.576672
C74	C	1.502968	0.402759	1.076672
C75	C	1.002959	-0.097243	0.423338
C76	C	1.502959	0.402757	0.923338
H77	H	0.311085	-0.375053	-0.000030
H78	H	0.811085	0.124947	0.499970
H79	H	1.156957	-0.311983	0.639029
H80	H	1.656957	0.188017	1.139029
H81	H	0.958426	-0.035109	0.639126
H82	H	1.458426	0.464891	1.139126
H83	H	0.958399	-0.035103	0.360934
H84	H	1.458399	0.464897	0.860934
H85	H	0.480362	-0.379526	-0.000058
H86	H	0.980362	0.120474	0.499942
H87	H	0.907762	0.418339	-0.000048
H88	H	1.407762	0.918339	0.499952
H89	H	0.598886	-0.382666	-0.000026
H90	H	1.098886	0.117334	0.499974
H91	H	0.347173	0.040019	-0.000021
H92	H	0.847173	0.540019	0.499979
H93	H	0.516465	0.035535	-0.000020
H94	H	1.016465	0.535535	0.499980
H95	H	1.156929	-0.312002	0.360866
H96	H	1.656929	0.187998	0.860866
H97	H	0.768174	-0.387141	-0.000025
H98	H	1.268174	0.112859	0.499975
H99	H	0.804265	0.027929	-0.000004
H100	H	1.304265	0.527929	0.499996
H101	H	0.634978	0.032413	-0.000011
H102	H	1.134978	0.532413	0.499989
H103	H	1.207586	0.234552	0.000010
H104	H	1.707586	0.734552	0.500010
H105	H	0.912243	0.180679	-0.000030
H106	H	1.412243	0.680679	0.499970
H107	H	1.203092	0.472185	-0.000026
H108	H	1.703092	0.972185	0.499974
