data_functionalizedCrystal
_audit_creation_method	'MofGen! by Chris Wilmer'
_symmetry_space_group_name_H-M	'P1'
_symmetry_Int_Tables_number	1
_symmetry_cell_setting	triclinic
loop_
_symmetry_equiv_pos_as_xyz
  x,y,z
_cell_length_a	14.519709
_cell_length_b	10.654550
_cell_length_c	9.730223
_cell_angle_alpha	90.004253
_cell_angle_beta	89.997675
_cell_angle_gamma	84.082538
loop_
_atom_site_label
_atom_site_type_symbol
_atom_site_fract_x
_atom_site_fract_y
_atom_site_fract_z
O1	O	-1.224719	-0.164623	-0.114110
O2	O	-0.956343	-0.184009	-0.114152
O3	O	-1.096702	0.008483	-0.114122
O4	O	-1.084361	-0.357114	-0.114141
O5	O	-1.096693	0.008488	0.114458
O6	O	-0.956334	-0.184004	0.114428
O7	O	-1.224710	-0.164617	0.114470
Zn8	Zn	-1.090521	-0.174310	0.150741
Zn9	Zn	-1.090533	-0.174317	-0.150423
O10	O	-1.084352	-0.357109	0.114439
C11	C	-0.921974	-0.183103	0.000132
C12	C	-0.819579	-0.180396	0.000116
C13	C	-1.095791	0.055275	0.000167
C14	C	-1.093080	0.194692	0.000165
C15	C	-1.259079	-0.165524	0.000182
C16	C	-1.361475	-0.168231	0.000189
C17	C	-0.444631	-0.170428	0.000179
C18	C	-0.548954	-0.173196	0.000162
C19	C	-0.632102	-0.175412	0.000147
C20	C	-0.736431	-0.178180	0.000131
C21	C	-1.085262	-0.403901	0.000147
C22	C	-1.087973	-0.543318	0.000140
N23	N	-1.090519	-0.174304	0.356277
C24	C	-1.175721	0.274972	0.000177
C25	C	-1.173168	0.405968	0.000160
C26	C	-1.005326	0.376391	0.000124
C27	C	-1.007880	0.245397	0.000131
N28	N	-1.090541	-0.174312	-0.355960
C29	C	-1.152691	-0.089105	0.428216
C30	C	-1.152701	-0.089105	0.572099
C31	C	-1.028363	-0.259516	0.572091
C32	C	-1.028350	-0.259508	0.428210
H33	H	-1.240463	0.471328	0.000167
H34	H	-0.977747	-0.328889	0.630673
H35	H	-0.940579	0.180029	0.000117
C36	C	-0.959957	-0.353235	0.349064
C37	C	-0.891612	-0.447011	0.428179
C38	C	-0.823220	-0.540728	0.349031
C39	C	-0.823173	-0.540669	0.190769
C40	C	-0.891521	-0.446889	0.111645
C41	C	-0.959912	-0.353172	0.190792
H42	H	-0.891644	-0.447059	0.545342
H43	H	-0.772625	-0.610151	0.407605
H44	H	-0.772545	-0.610044	0.132179
H45	H	-0.891488	-0.446841	-0.005519
H46	H	-1.010508	-0.283749	0.132219
C47	C	-1.221069	0.004627	0.349089
C48	C	-1.289453	0.098349	0.428229
C49	C	-1.357830	0.192087	0.349107
C50	C	-1.357824	0.192102	0.190844
C51	C	-1.289438	0.098376	0.111695
C52	C	-1.221060	0.004638	0.190817
H53	H	-1.289460	0.098342	0.545393
H54	H	-1.408454	0.261469	0.407699
H55	H	-1.408441	0.261492	0.132273
H56	H	-1.289431	0.098383	-0.005469
H57	H	-1.170436	-0.064744	0.132225
H58	H	-1.245096	0.233692	0.000202
H59	H	-0.935959	0.417692	0.000099
H60	H	-1.203326	-0.019727	0.630669
