data_functionalizedCrystal
_audit_creation_method	'MofGen! by Chris Wilmer'
_symmetry_space_group_name_H-M	'P1'
_symmetry_Int_Tables_number	1
_symmetry_cell_setting	triclinic
loop_
_symmetry_equiv_pos_as_xyz
  x,y,z
_cell_length_a	18.050591
_cell_length_b	18.050589
_cell_length_c	18.050582
_cell_angle_alpha	89.981795
_cell_angle_beta	89.989456
_cell_angle_gamma	90.027061
loop_
_atom_site_label
_atom_site_type_symbol
_atom_site_fract_x
_atom_site_fract_y
_atom_site_fract_z
Zn1	Zn	1.135292	-0.295730	-0.419848
Zn2	Zn	1.635292	0.204270	0.080152
Zn3	Zn	1.135203	-0.419913	-0.295668
Zn4	Zn	1.635203	0.080087	0.204332
Zn5	Zn	1.011112	-0.295739	-0.295682
Zn6	Zn	1.511112	0.204261	0.204318
Zn7	Zn	1.011060	-0.419880	-0.419826
Zn8	Zn	1.511060	0.080120	0.080174
O9	O	1.073167	-0.357815	-0.357756
O10	O	1.573167	0.142185	0.142244
O11	O	1.239205	-0.312213	-0.403379
O12	O	1.739205	0.187787	0.096621
O13	O	1.118727	-0.403459	-0.191745
O14	O	1.618727	0.096541	0.308255
O15	O	1.027644	-0.191813	-0.312168
O16	O	1.527644	0.308187	0.187832
O17	O	1.239140	-0.403450	-0.312144
O18	O	1.739140	0.096550	0.187856
O19	O	1.118879	-0.191806	-0.403393
O20	O	1.618879	0.308194	0.096607
O21	O	1.027557	-0.312228	-0.191755
O22	O	1.527557	0.187772	0.308245
O23	O	0.907180	-0.312196	-0.312146
O24	O	1.407180	0.187804	0.187854
O25	O	1.027555	-0.403393	-0.523753
O26	O	1.527555	0.096607	-0.023753
O27	O	0.907142	-0.403402	-0.403354
O28	O	1.407142	0.096598	0.096646
O29	O	1.118828	-0.312181	-0.523770
O30	O	1.618828	0.187819	-0.023770
O31	O	1.118676	-0.523833	-0.312122
O32	O	1.618676	-0.023833	0.187878
O33	O	1.027468	-0.523809	-0.403341
O34	O	1.527468	-0.023809	0.096659
C35	C	0.880215	-0.357797	-0.357750
C36	C	1.380215	0.142203	0.142250
C37	C	0.797669	-0.357807	-0.357765
C38	C	1.297669	0.142193	0.142235
C39	C	0.548844	-0.407508	-0.407296
C40	C	1.048844	0.092492	0.092704
C41	C	0.598214	-0.425579	-0.339512
C42	C	1.098214	0.074421	0.160488
C43	C	0.500548	-0.357831	-0.357764
C44	C	1.000548	0.142169	0.142236
C45	C	0.598260	-0.339783	-0.425545
C46	C	1.098260	0.160217	0.074455
C47	C	0.646534	-0.357821	-0.357768
C48	C	1.146534	0.142179	0.142232
C49	C	0.548831	-0.375937	-0.289943
C50	C	1.048831	0.124063	0.210057
C51	C	0.548873	-0.290110	-0.376022
C52	C	1.048873	0.209890	0.123978
C53	C	0.598221	-0.308155	-0.308191
C54	C	1.098221	0.191845	0.191809
C55	C	0.416450	-0.357838	-0.357762
C56	C	0.916450	0.142162	0.142238
C57	C	0.730630	-0.357813	-0.357762
C58	C	1.230630	0.142187	0.142238
C59	C	1.073077	-0.550767	-0.357744
C60	C	1.573077	-0.050767	0.142256
C61	C	1.073107	-0.633313	-0.357763
C62	C	1.573107	-0.133313	0.142237
C63	C	1.023557	-0.832778	-0.407350
C64	C	1.523557	-0.332778	0.092650
C65	C	1.005459	-0.882211	-0.339584
C66	C	1.505459	-0.382211	0.160416
C67	C	1.073180	-0.784444	-0.357773
C68	C	1.573180	-0.284444	0.142227
C69	C	1.091314	-0.882092	-0.425547
C70	C	1.591314	-0.382092	0.074453
C71	C	1.073249	-0.930429	-0.357788
C72	C	1.573249	-0.430429	0.142212
C73	C	1.055046	-0.832790	-0.289971
C74	C	1.555046	-0.332790	0.210029
C75	C	1.140933	-0.832666	-0.375979
C76	C	1.640933	-0.332666	0.124021
C77	C	1.122861	-0.882077	-0.308166
C78	C	1.622861	-0.382077	0.191834
C79	C	1.073138	-0.700345	-0.357765
C80	C	1.573138	-0.200345	0.142235
C81	C	1.073291	-1.014525	-0.357788
C82	C	1.573291	-0.514525	0.142212
C83	C	1.266872	-0.357834	-0.357763
C84	C	1.766872	0.142166	0.142237
C85	C	1.349418	-0.357842	-0.357765
C86	C	1.849418	0.142158	0.142235
C87	C	1.073196	-0.357782	-0.551462
C88	C	1.573196	0.142218	-0.051462
C89	C	1.073208	-0.357768	-0.634007
C90	C	1.573208	0.142232	-0.134007
C91	C	1.073277	-0.164110	-0.357785
C92	C	1.573277	0.335890	0.142215
C93	C	1.073324	-0.081564	-0.357797
C94	C	1.573324	0.418436	0.142203
C95	C	1.023612	-0.407302	-0.833449
C96	C	1.523612	0.092698	-0.333449
C97	C	1.091367	-0.425457	-0.882837
C98	C	1.591367	0.074543	-0.382837
C99	C	1.073245	-0.357712	-0.785138
C100	C	1.573245	0.142288	-0.285138
C101	C	1.005527	-0.339536	-0.882832
C102	C	1.505527	0.160464	-0.382832
C103	C	1.073274	-0.357658	-0.931123
C104	C	1.573274	0.142342	-0.431123
C105	C	1.141036	-0.375902	-0.833438
C106	C	1.641036	0.124098	-0.333438
C107	C	1.055150	-0.289950	-0.833429
C108	C	1.555150	0.210050	-0.333429
C109	C	1.122952	-0.308079	-0.882794
C110	C	1.622952	0.191921	-0.382794
C111	C	1.073227	-0.357744	-0.701040
C112	C	1.573227	0.142256	-0.201040
C113	C	1.073300	-0.357626	-1.015220
C114	C	1.573300	0.142374	-0.515220
C115	C	1.073181	-0.357795	-0.164804
C116	C	1.573181	0.142205	0.335196
C117	C	1.073312	-0.357599	-0.082258
C118	C	1.573312	0.142401	0.417742
H119	H	0.619887	-0.482845	-0.324065
H120	H	1.119887	0.017155	0.175935
H121	H	0.527211	-0.391267	-0.232607
H122	H	1.027211	0.108733	0.267393
C123	C	0.966972	-0.464032	-0.804161
C124	C	1.466972	0.035968	-0.304161
N125	N	0.924318	-0.506763	-0.782094
N126	N	1.424318	-0.006763	-0.282094
H127	H	0.981530	-0.811130	-0.449217
H128	H	1.481530	-0.311130	0.050783
C129	C	0.627589	-0.319164	-0.502982
C130	C	1.127589	0.180836	-0.002982
N131	N	0.649676	-0.303638	-0.561309
N132	N	1.149676	0.196362	-0.061309
H133	H	0.948195	-0.903990	-0.324200
H134	H	1.448195	-0.403990	0.175800
C135	C	1.034269	-0.803657	-0.212528
C136	C	1.534269	-0.303657	0.287472
N137	N	1.018616	-0.781712	-0.154199
N138	N	1.518616	-0.281712	0.345801
H139	H	0.619764	-0.266140	-0.266256
H140	H	1.119764	0.233860	0.233744
C141	C	1.179591	-0.911144	-0.251470
C142	C	1.679591	-0.411144	0.248530
N143	N	1.222316	-0.933039	-0.208765
N144	N	1.722316	-0.433039	0.291235
H145	H	0.527164	-0.449554	-0.449130
H146	H	1.027164	0.050446	0.050870
H147	H	0.527183	-0.232860	-0.391488
H148	H	1.027183	0.267140	0.108512
H149	H	1.106690	-0.482739	-0.904539
H150	H	1.606690	0.017261	-0.404539
H151	H	1.198184	-0.810889	-0.391396
H152	H	1.698184	-0.310889	0.108604
H153	H	1.106625	-0.903748	-0.482856
H154	H	1.606625	-0.403748	0.017144
C155	C	1.218441	-0.396735	-0.804252
C156	C	1.718441	0.103265	-0.304252
N157	N	1.276740	-0.412430	-0.782268
N158	N	1.776740	0.087570	-0.282268
H159	H	1.164986	-0.266119	-0.904324
H160	H	1.664986	0.233881	-0.404324
H161	H	1.039807	-0.232684	-0.811711
H162	H	1.539807	0.267316	-0.311711
C163	C	0.928143	-0.318795	-0.912140
C164	C	1.428143	0.181205	-0.412140
N165	N	0.869856	-0.303177	-0.934211
N166	N	1.369856	0.196823	-0.434211
