data_functionalizedCrystal
_audit_creation_method	'MofGen! by Chris Wilmer'
_symmetry_space_group_name_H-M	'P1'
_symmetry_Int_Tables_number	1
_symmetry_cell_setting	triclinic
loop_
_symmetry_equiv_pos_as_xyz
  x,y,z
_cell_length_a	13.339070
_cell_length_b	15.538191
_cell_length_c	11.804365
_cell_angle_alpha	97.089886
_cell_angle_beta	74.875130
_cell_angle_gamma	81.450694
loop_
_atom_site_label
_atom_site_type_symbol
_atom_site_fract_x
_atom_site_fract_y
_atom_site_fract_z
O1	O	1.209080	0.418419	-0.099025
O2	O	0.935320	0.361861	-0.099024
O3	O	1.125491	0.266938	-0.099030
O4	O	1.018909	0.513341	-0.099019
O5	O	1.075439	0.291892	0.099027
O6	O	0.885268	0.386815	0.099033
O7	O	1.159028	0.443373	0.099033
Cu8	Cu	1.017578	0.417373	0.117117
Cu9	Cu	1.076770	0.387861	-0.117109
O10	O	0.968857	0.538296	0.099039
C11	C	0.876113	0.364784	0.000005
C12	C	0.774268	0.336307	0.000004
C13	C	0.328172	0.557731	-0.000004
C14	C	0.423860	0.584490	-0.000008
C15	C	0.511466	0.522446	-0.000004
C16	C	0.503376	0.433640	0.000002
C17	C	0.407681	0.406878	-0.000004
C18	C	0.590975	0.371593	-0.000004
C19	C	0.582885	0.282786	0.000002
C20	C	0.487198	0.256029	-0.000003
C21	C	0.399592	0.318072	-0.000006
C22	C	0.686670	0.398355	0.000002
C23	C	0.766179	0.247501	0.000002
C24	C	0.670491	0.220743	0.000006
C25	C	1.111617	0.247233	-0.000006
C26	C	1.144835	0.151340	-0.000018
C27	C	0.814845	-0.222695	0.000009
C28	C	0.846078	-0.312797	0.000012
C29	C	1.021762	-0.289322	0.000011
C30	C	0.990545	-0.199217	0.000002
C31	C	0.887085	-0.165911	0.000003
C32	C	1.062785	-0.142432	-0.000004
C33	C	1.031568	-0.052335	-0.000006
C34	C	0.928112	-0.019021	-0.000002
C35	C	0.855868	-0.075813	0.000001
C36	C	1.166242	-0.175739	0.000004
C37	C	1.238482	-0.118955	-0.000003
C38	C	1.207268	-0.028856	-0.000013
C39	C	1.103812	0.004457	-0.000009
C40	C	1.279512	0.027936	-0.000016
C41	C	1.248295	0.118034	-0.000018
C42	C	1.072595	0.094555	-0.000011
C43	C	1.218236	0.440449	0.000001
C44	C	1.320083	0.468926	-0.000006
C45	C	0.982732	0.558000	0.000011
C46	C	0.949516	0.653893	0.000016
N47	N	0.975952	0.438131	0.281859
N48	N	1.118406	0.367098	-0.281851
C49	C	1.218370	0.317233	0.655800
C50	C	1.249860	0.301526	0.531137
C51	C	1.181386	0.335676	0.468812
C52	C	1.081416	0.385536	0.531161
C53	C	1.049926	0.401251	0.655836
C54	C	1.012942	0.419693	0.468847
C55	C	0.912972	0.469553	0.531197
C56	C	0.881487	0.485265	0.655860
C57	C	0.949962	0.451115	0.718185
C58	C	1.044432	0.403978	0.344173
C59	C	0.875988	0.487995	0.344208
C60	C	0.844498	0.503703	0.468871
H61	H	0.663892	0.148434	0.000001
Br62	Br	1.346327	0.195108	0.000003
H63	H	0.256840	0.608236	-0.000017
Br64	Br	1.419909	-0.017273	0.000012
Br65	Br	0.697639	0.518873	-0.000009
H66	H	0.820231	0.515805	0.293464
Br67	Br	0.885071	0.163291	-0.000008
H68	H	0.988350	0.121673	-0.000020
H69	H	1.125827	0.363382	0.293419
H70	H	0.430441	0.656794	-0.000022
H71	H	0.902696	0.054344	0.000003
Br72	Br	0.715461	-0.030605	-0.000016
H73	H	0.730600	-0.195577	0.000001
H74	H	0.787240	-0.359027	0.000034
H75	H	0.924321	0.463901	0.819696
Br76	Br	1.208606	-0.298015	0.000020
Br77	Br	0.269720	0.281760	0.000005
H78	H	1.105998	-0.316452	0.000015
Br79	Br	0.745825	0.552948	0.740480
Br80	Br	0.476232	0.135500	-0.000043
H81	H	1.322719	-0.146085	0.000002
H82	H	1.207029	0.322884	0.367306
Br83	Br	1.385526	0.233866	0.446521
Br84	Br	1.311298	0.270905	0.740384
H85	H	0.763101	0.544301	0.519652
H86	H	0.589378	0.544238	-0.000010
