data_functionalizedCrystal
_audit_creation_method	'MofGen! by Chris Wilmer'
_symmetry_space_group_name_H-M	'P1'
_symmetry_Int_Tables_number	1
_symmetry_cell_setting	triclinic
loop_
_symmetry_equiv_pos_as_xyz
  x,y,z
_cell_length_a	15.995350
_cell_length_b	15.538191
_cell_length_c	14.750522
_cell_angle_alpha	72.469982
_cell_angle_beta	104.197131
_cell_angle_gamma	114.617766
loop_
_atom_site_label
_atom_site_type_symbol
_atom_site_fract_x
_atom_site_fract_y
_atom_site_fract_z
O1	O	-0.261272	-1.268160	0.079852
O2	O	-0.164593	-0.993900	0.079847
O3	O	-0.337099	-1.138527	0.079849
O4	O	-0.088766	-1.123533	0.079850
O5	O	-0.358439	-1.102028	-0.079810
O6	O	-0.185933	-0.957401	-0.079812
O7	O	-0.282612	-1.231661	-0.079807
Zn8	Zn	-0.237661	-1.088736	-0.105158
Zn9	Zn	-0.209544	-1.136825	0.105199
O10	O	-0.110106	-1.087035	-0.079808
C11	C	-0.378775	-1.119658	0.000021
C12	C	-0.471160	-1.117801	0.000026
C13	C	-0.165148	-0.940555	0.000017
C14	C	-0.135018	-0.835981	0.000016
C15	C	-0.282057	-1.285007	0.000025
C16	C	-0.312186	-1.389582	0.000033
C17	C	-0.806879	-1.111126	0.000023
C18	C	-0.728094	-1.008207	0.000379
C19	C	-0.632017	-1.009984	0.000020
C20	C	-0.640325	-1.114437	0.000025
C21	C	-0.709028	-1.144399	-0.091145
C22	C	-0.804887	-1.141794	-0.091221
C23	C	-0.781625	-1.185427	0.090340
C24	C	-0.684511	-1.185678	0.091545
C25	C	-0.546198	-1.116313	0.000023
C26	C	-0.901008	-1.109252	0.000019
C27	C	-0.068430	-1.105904	0.000021
C28	C	0.023956	-1.107762	0.000022
N29	N	-0.256852	-1.055924	-0.248722
C30	C	-0.434350	-0.548194	0.000029
C31	C	-0.406017	-0.449928	0.000030
C32	C	-0.246651	-0.427485	0.000030
C33	C	-0.274971	-0.525750	0.000025
C34	C	-0.368822	-0.586097	0.000025
C35	C	-0.209443	-0.563653	0.000021
C36	C	-0.237761	-0.661910	0.000021
C37	C	-0.331607	-0.722264	0.000024
C38	C	-0.397140	-0.684354	0.000025
C39	C	-0.115592	-0.503306	0.000028
C40	C	-0.050064	-0.541209	0.000024
C41	C	-0.078382	-0.639467	0.000017
C42	C	-0.172228	-0.699821	0.000020
C43	C	-0.012850	-0.677377	0.000016
C44	C	-0.041167	-0.775634	0.000015
C45	C	-0.200546	-0.798078	0.000019
C46	C	-0.136717	-1.261207	-0.600494
C47	C	-0.150185	-1.238237	-0.700998
C48	C	-0.217083	-1.123993	-0.700986
C49	C	-0.203617	-1.146950	-0.600480
C50	C	-0.163435	-1.215559	-0.550241
C51	C	-0.230334	-1.101302	-0.550228
C52	C	-0.216874	-1.124262	-0.449730
C53	C	-0.176695	-1.192870	-0.399485
C54	C	-0.149974	-1.238519	-0.449744
C55	C	-0.270523	-1.032699	-0.600468
C56	C	-0.297240	-0.987050	-0.550216
C57	C	-0.283773	-1.010005	-0.449717
C58	C	-0.243595	-1.078613	-0.399471
C59	C	-0.310495	-0.964356	-0.399458
C60	C	-0.297034	-0.987315	-0.298960
C61	C	-0.230134	-1.101572	-0.298974
N62	N	-0.190362	-1.169645	0.248762
H63	H	-0.582722	-0.984989	0.065374
N64	N	-0.669255	-1.077107	-0.181023
H65	H	-0.713971	-1.096974	-0.239298
H66	H	-0.608049	-1.081077	-0.181974
H67	H	0.063564	-0.628230	0.000025
H68	H	-0.354660	-0.802274	0.000036
H69	H	-0.718677	-1.220363	-0.094531
N70	N	-0.186799	-1.175577	-0.244780
H71	H	-0.182331	-1.183194	-0.173491
H72	H	-0.122608	-1.152947	-0.262361
H73	H	-0.165738	-1.211564	-0.317653
H74	H	-0.691562	-1.263109	0.097054
N75	N	-0.783042	-1.161755	0.181877
H76	H	-0.800074	-1.102620	0.165724
H77	H	-0.719602	-1.148108	0.221440
H78	H	-0.836383	-1.261510	0.090957
N79	N	-0.106626	-1.312510	-0.395539
H80	H	-0.042409	-1.289923	-0.413044
H81	H	-0.146338	-1.377032	-0.413029
N82	N	-0.093362	-1.335194	-0.546296
H83	H	-0.078471	-1.360627	-0.593379
H84	H	-0.138252	-1.390776	-0.504581
N85	N	-0.121359	-1.287469	-0.755201
H86	H	-0.093859	-1.334412	-0.708122
H87	H	-0.073550	-1.236861	-0.796911
N88	N	-0.260427	-1.050001	-0.755174
H89	H	-0.264903	-1.042383	-0.826465
H90	H	-0.220744	-0.985502	-0.737624
H91	H	-0.092539	-0.423300	0.000031
N92	N	-0.285646	-1.008135	-0.708859
H93	H	-0.250338	-0.936608	-0.733381
H94	H	-0.354091	-1.024006	-0.732367
N95	N	0.029505	-0.816525	0.000016
H96	H	0.093255	-0.763386	0.000013
H97	H	0.013313	-0.843275	-0.059171
H98	H	-0.600684	-0.954815	-0.065448
H99	H	-0.459385	-0.419073	0.000034
H100	H	-0.170237	-0.378339	0.000034
H101	H	-0.318788	-0.950142	-0.258044
N102	N	-0.340581	-0.913058	-0.604412
H103	H	-0.295723	-0.857424	-0.646126
H104	H	-0.355466	-0.887697	-0.557267
N105	N	-0.826292	-1.072087	-0.181497
H106	H	-0.773490	-1.043335	-0.220867
H107	H	-0.834302	-1.018325	-0.163756
N108	N	-0.353831	-0.890359	-0.453651
H109	H	-0.368714	-0.864923	-0.406566
H110	H	-0.412810	-0.921915	-0.495326
N111	N	-0.621476	-1.156958	0.180884
H112	H	-0.559232	-1.160041	0.182706
H113	H	-0.650331	-1.203051	0.239463
N114	N	-0.724487	-0.973461	0.086977
H115	H	-0.773890	-1.024093	0.126819
H116	H	-0.735744	-0.910557	0.065137
H117	H	-0.743922	-0.952359	-0.064638
N118	N	0.051157	-0.476121	0.000029
H119	H	0.059155	-0.408123	0.000031
H120	H	0.073091	-0.474862	-0.059162
H121	H	-0.860671	-1.216470	-0.095354
H122	H	-0.276969	-0.847215	0.000014
N123	N	-0.498367	-0.749446	0.000012
H124	H	-0.520374	-0.750788	0.059195
H125	H	-0.506286	-0.817406	-0.000025
N126	N	-0.535576	-0.613290	0.000015
H127	H	-0.572797	-0.574370	0.000012
H128	H	-0.542887	-0.668078	0.059202
