data_functionalizedCrystal
_audit_creation_method	'MofGen! by Chris Wilmer'
_symmetry_space_group_name_H-M	'P1'
_symmetry_Int_Tables_number	1
_symmetry_cell_setting	triclinic
loop_
_symmetry_equiv_pos_as_xyz
  x,y,z
_cell_length_a	25.639239
_cell_length_b	19.077105
_cell_length_c	19.076919
_cell_angle_alpha	89.923776
_cell_angle_beta	92.268407
_cell_angle_gamma	92.265071
loop_
_atom_site_label
_atom_site_type_symbol
_atom_site_fract_x
_atom_site_fract_y
_atom_site_fract_z
Zn1	Zn	-0.252939	-1.058187	-0.440398
Zn2	Zn	0.247061	-0.558187	0.059602
Zn3	Zn	-0.337004	-1.062799	-0.322884
Zn4	Zn	0.162996	-0.562799	0.177116
Zn5	Zn	-0.245935	-0.945407	-0.318192
Zn6	Zn	0.254065	-0.445407	0.181808
Zn7	Zn	-0.336689	-0.940620	-0.435637
Zn8	Zn	0.163311	-0.440620	0.064363
O9	O	-0.293142	-1.001753	-0.379278
O10	O	0.206858	-0.501753	0.120722
O11	O	-0.267153	-1.157129	-0.428766
O12	O	0.232847	-0.657129	0.071234
O13	O	-0.322124	-1.051160	-0.223931
O14	O	0.177876	-0.551160	0.276069
O15	O	-0.173702	-0.960440	-0.334431
O16	O	0.326298	-0.460440	0.165569
O17	O	-0.328916	-1.160518	-0.342429
O18	O	0.171084	-0.660518	0.157571
O19	O	-0.178848	-1.043299	-0.424215
O20	O	0.321152	-0.543299	0.075785
O21	O	-0.255216	-0.964912	-0.220483
O22	O	0.244784	-0.464912	0.279517
O23	O	-0.254910	-0.846441	-0.329815
O24	O	0.245090	-0.346441	0.170185
O25	O	-0.328378	-0.952283	-0.534600
O26	O	0.171622	-0.452283	-0.034600
O27	O	-0.321587	-0.842925	-0.416101
O28	O	0.178413	-0.342925	0.083899
O29	O	-0.266848	-1.038658	-0.538097
O30	O	0.233152	-0.538658	-0.038097
O31	O	-0.410124	-1.046519	-0.337813
O32	O	0.089876	-0.546519	0.162187
O33	O	-0.409893	-0.956755	-0.420652
O34	O	0.090107	-0.456755	0.079348
C35	C	-0.287455	-0.819187	-0.371933
C36	C	0.212545	-0.319187	0.128067
C37	C	-0.285035	-0.741083	-0.368807
C38	C	0.214965	-0.241083	0.131193
C39	C	-0.428980	-1.001636	-0.379241
C40	C	0.071020	-0.501636	0.120759
C41	C	-0.487094	-1.001650	-0.379251
C42	C	0.012906	-0.501650	0.120749
C43	C	-0.298359	-0.994422	-0.562557
C44	C	0.201641	-0.494422	-0.062557
C45	C	-0.300582	-0.991298	-0.640660
C46	C	0.199418	-0.491298	-0.140660
C47	C	-0.847575	-1.048607	-0.336225
C48	C	-0.347575	-0.548607	0.163775
C49	C	-0.902180	-1.048634	-0.336235
C50	C	-0.402180	-0.548634	0.163765
O51	O	-0.930513	-1.088438	-0.299613
O52	O	-0.430513	-0.588438	0.200387
N53	N	-0.929386	-1.001875	-0.379329
N54	N	-0.429386	-0.501875	0.120671
C55	C	-0.901983	-0.955090	-0.422421
C56	C	-0.401983	-0.455090	0.077579
O57	O	-0.930137	-0.915321	-0.459077
O58	O	-0.430137	-0.415321	0.040923
C59	C	-0.847379	-0.955067	-0.422413
C60	C	-0.347379	-0.455067	0.077587
C61	C	-0.820176	-1.001825	-0.379311
C62	C	-0.320176	-0.501825	0.120689
C63	C	-0.820372	-1.095362	-0.293127
C64	C	-0.320372	-0.595362	0.206873
C65	C	-0.765771	-1.095334	-0.293116
C66	C	-0.265771	-0.595334	0.206884
C67	C	-0.738372	-1.048551	-0.336202
C68	C	-0.238372	-0.548551	0.163798
C69	C	-0.765574	-1.001797	-0.379300
C70	C	-0.265574	-0.501797	0.120700
C71	C	-0.819977	-0.908287	-0.465508
C72	C	-0.319977	-0.408287	0.034492
C73	C	-0.765369	-0.908268	-0.465497
C74	C	-0.265369	-0.408268	0.034503
C75	C	-0.738167	-0.955026	-0.422395
C76	C	-0.238167	-0.455026	0.077605
C77	C	-0.683574	-0.954987	-0.422375
C78	C	-0.183574	-0.454987	0.077625
N79	N	-0.656368	-1.001746	-0.379282
N80	N	-0.156368	-0.501746	0.120718
C81	C	-0.683767	-1.048528	-0.336195
C82	C	-0.183767	-0.548528	0.163805
C83	C	-1.016656	-0.955143	-0.422434
C84	C	-0.516656	-0.455143	0.077566
C85	C	-1.071259	-0.955162	-0.422438
C86	C	-0.571259	-0.455162	0.077562
C87	C	-1.071452	-1.048707	-0.336253
C88	C	-0.571452	-0.548707	0.163747
C89	C	-1.016848	-1.048684	-0.336246
C90	C	-0.516848	-0.548684	0.163754
C91	C	-0.989450	-1.001902	-0.379340
C92	C	-0.489450	-0.501902	0.120660
C93	C	-0.569100	-1.048466	-0.336174
C94	C	-0.069100	-0.548466	0.163826
C95	C	-0.514493	-1.048432	-0.336164
C96	C	-0.014493	-0.548432	0.163836
C97	C	-0.514304	-0.954890	-0.422351
C98	C	-0.014304	-0.454890	0.077649
C99	C	-0.568906	-0.954921	-0.422359
C100	C	-0.068906	-0.454921	0.077641
C101	C	-0.596303	-1.001715	-0.379268
C102	C	-0.096303	-0.501715	0.120732
O103	O	-0.655207	-0.915205	-0.458982
O104	O	-0.155207	-0.415205	0.041018
O105	O	-0.655607	-1.088298	-0.299552
O106	O	-0.155607	-0.588298	0.200448
C107	C	-0.156774	-1.001889	-0.379331
C108	C	0.343226	-0.501889	0.120669
C109	C	-0.098662	-1.001947	-0.379354
C110	C	0.401338	-0.501947	0.120646
C111	C	-0.298851	-1.185032	-0.386652
C112	C	0.201149	-0.685032	0.113348
C113	C	-0.301284	-1.263135	-0.389794
C114	C	0.198716	-0.763135	0.110206
C115	C	-0.318661	-0.702581	-0.412193
C116	C	0.181339	-0.202581	0.087807
C117	C	-0.316381	-0.629194	-0.409259
C118	C	0.183619	-0.129194	0.090741
C119	C	-0.280476	-0.594312	-0.362936
C120	C	0.219524	-0.094312	0.137064
C121	C	-0.246846	-0.632820	-0.319549
C122	C	0.253154	-0.132820	0.180451
C123	C	-0.249125	-0.706205	-0.322486
C124	C	0.250875	-0.206205	0.177514
C125	C	-0.269932	-0.375028	-0.349344
C126	C	0.230068	0.124972	0.150656
C127	C	-0.267658	-0.301638	-0.346409
C128	C	0.232342	0.198362	0.153591
C129	C	-0.337192	-0.298017	-0.436121
C130	C	0.162808	0.201983	0.063879
C131	C	-0.339469	-0.371404	-0.439051
C132	C	0.160531	0.128596	0.060949
C133	C	-0.305837	-0.409905	-0.395666
C134	C	0.194163	0.090095	0.104334
N135	N	-0.278146	-0.519299	-0.359935
N136	N	0.221854	-0.019299	0.140065
N137	N	-0.308166	-0.484917	-0.398671
N138	N	0.191834	0.015083	0.101329
C139	C	-0.269593	-1.034799	-0.679175
C140	C	0.230407	-0.534799	-0.179175
C141	C	-0.271680	-1.031855	-0.752561
C142	C	0.228320	-0.531855	-0.252561
C143	C	-0.304759	-0.985413	-0.787430
C144	C	0.195241	-0.485413	-0.287430
C145	C	-0.335750	-0.941907	-0.748910
C146	C	0.164250	-0.441907	-0.248910
C147	C	-0.333660	-0.944848	-0.675526
C148	C	0.166340	-0.444848	-0.175526
C149	C	-0.314442	-0.971792	-1.006711
C150	C	0.185558	-0.471792	-0.506711
C151	C	-0.316531	-0.968856	-1.080100
C152	C	0.183469	-0.468856	-0.580100
C153	C	-0.252460	-1.058803	-1.083746
C154	C	0.247540	-0.558803	-0.583746
C155	C	-0.250375	-1.061742	-1.010361
C156	C	0.249625	-0.561742	-0.510361
C157	C	-0.281364	-1.018234	-0.971846
C158	C	0.218636	-0.518234	-0.471846
N159	N	-0.306894	-0.982404	-0.862442
N160	N	0.193106	-0.482404	-0.362442
N161	N	-0.279226	-1.021240	-0.896836
N162	N	0.220774	-0.521240	-0.396836
C163	C	-0.287908	-1.009096	-0.196713
C164	C	0.212092	-0.509096	0.303287
C165	C	-0.285541	-1.012356	-0.118616
C166	C	0.214459	-0.512356	0.381384
H167	H	-0.591400	-1.086571	-0.301087
H168	H	-0.091400	-0.586571	0.198913
H169	H	-0.368707	-0.399800	-0.476771
H170	H	0.131293	0.100200	0.023229
N171	N	-0.350314	-0.921410	-1.115731
N172	N	0.149686	-0.421410	-0.615731
N173	N	-0.352174	-0.918795	-1.181252
N174	N	0.147826	-0.418795	-0.681252
H175	H	-0.376032	-0.885289	-1.206418
H176	H	0.123968	-0.385289	-0.706418
H177	H	-0.591056	-0.916849	-0.457458
H178	H	-0.091056	-0.416849	0.042542
N179	N	-0.235808	-1.082239	-0.643550
N180	N	0.264192	-0.582239	-0.143550
N181	N	-0.254431	-1.128639	-0.604397
N182	N	0.245569	-0.628639	-0.104397
H183	H	-0.230569	-1.162143	-0.579237
H184	H	0.269431	-0.662143	-0.079237
N185	N	-0.214767	-0.745526	-0.278170
N186	N	0.285233	-0.245526	0.221830
N187	N	-0.182710	-0.714375	-0.236816
N188	N	0.317290	-0.214375	0.263184
H189	H	-0.158441	-0.742144	-0.205520
H190	H	0.341559	-0.242144	0.294480
H191	H	-0.842116	-0.870208	-0.500603
H192	H	-0.342116	-0.370208	-0.000603
N193	N	-0.365309	-0.900414	-0.636170
N194	N	0.134691	-0.400414	-0.136170
N195	N	-0.344349	-0.857299	-0.593424
N196	N	0.155651	-0.357299	-0.093424
H197	H	-0.366700	-0.825914	-0.565627
H198	H	0.133300	-0.325914	-0.065627
H199	H	-0.246446	-1.067280	-0.783917
H200	H	0.253554	-0.567280	-0.283917
N201	N	-0.486303	-0.907104	-0.466351
N202	N	0.013697	-0.407104	0.033649
N203	N	-0.437549	-0.907092	-0.466330
N204	N	0.062451	-0.407092	0.033670
H205	H	-0.417771	-0.873345	-0.497406
H206	H	0.082229	-0.373345	0.002594
N207	N	-0.737986	-1.143084	-0.249075
N208	N	-0.237986	-0.643084	0.250925
N209	N	-0.705513	-1.120170	-0.203271
N210	N	-0.205513	-0.620170	0.296729
H211	H	-0.685895	-1.153894	-0.172161
H212	H	-0.185895	-0.653894	0.327839
N213	N	-0.371548	-0.258689	-0.480429
N214	N	0.128452	0.241311	0.019571
N215	N	-0.402860	-0.218701	-0.453985
N216	N	0.097140	0.281299	0.046015
H217	H	-0.427126	-0.190926	-0.485280
H218	H	0.072874	0.309074	0.014720
H219	H	-0.347900	-0.730976	-0.449912
H220	H	0.152100	-0.230976	0.050088
H221	H	-0.238414	-0.273239	-0.308691
H222	H	0.261586	0.226761	0.191309
N223	N	-0.350726	-0.589850	-0.453568
N224	N	0.149274	-0.089850	0.046432
N225	N	-0.332391	-0.547129	-0.496752
N226	N	0.167609	-0.047129	0.003248
H227	H	-0.356648	-0.519340	-0.528045
H228	H	0.143352	-0.019340	-0.028045
N229	N	-0.848363	-1.143150	-0.249118
N230	N	-0.348363	-0.643150	0.250882
N231	N	-0.880890	-1.186935	-0.275671
N232	N	-0.380890	-0.686935	0.224329
H233	H	-0.900656	-1.220685	-0.244584
H234	H	-0.400656	-0.720685	0.255416
N235	N	-0.235579	-0.414339	-0.305020
N236	N	0.264421	0.085661	0.194980
N237	N	-0.203528	-0.383183	-0.263660
N238	N	0.296472	0.116817	0.236340
H239	H	-0.179265	-0.410949	-0.232352
H240	H	0.320735	0.089051	0.267648
N241	N	-1.099437	-1.096501	-0.292235
N242	N	-0.599437	-0.596501	0.207765
N243	N	-1.091374	-1.094490	-0.227205
N244	N	-0.591374	-0.594490	0.272795
H245	H	-1.111138	-1.128242	-0.196118
H246	H	-0.611138	-0.628242	0.303882
H247	H	-0.217610	-0.604413	-0.281834
H248	H	0.282390	-0.104413	0.218166
H249	H	-0.223440	-1.099562	-0.981975
H250	H	0.276560	-0.599562	-0.481975
N251	N	-0.346099	-0.927346	-0.967387
N252	N	0.153901	-0.427346	-0.467387
N253	N	-0.375633	-0.885886	-0.998531
N254	N	0.124367	-0.385886	-0.498531
H255	H	-0.397993	-0.854494	-0.970757
H256	H	0.102007	-0.354494	-0.470757
N257	N	-0.220811	-1.103238	-1.123099
N258	N	0.279189	-0.603238	-0.623099
N259	N	-0.222681	-1.100610	-1.188620
N260	N	0.277319	-0.600610	-0.688620
H261	H	-0.200327	-1.131993	-1.216413
H262	H	0.299673	-0.631993	-0.716413
N263	N	-0.369528	-0.894456	-0.784532
N264	N	0.130472	-0.394456	-0.284532
N265	N	-0.350895	-0.848062	-0.823684
N266	N	0.149105	-0.348062	-0.323684
H267	H	-0.374750	-0.814548	-0.848844
H268	H	0.125250	-0.314548	-0.348844
N269	N	-0.486709	-1.096187	-0.292122
N270	N	0.013291	-0.596187	0.207878
N271	N	-0.490847	-1.094170	-0.227096
N272	N	0.009153	-0.594170	0.272904
H273	H	-0.471227	-1.127897	-0.195990
H274	H	0.028773	-0.627897	0.304010
N275	N	-0.989072	-1.096448	-0.292213
N276	N	-0.489072	-0.596448	0.207787
N277	N	-1.013548	-1.138209	-0.253744
N278	N	-0.513548	-0.638209	0.246256
H279	H	-0.993934	-1.171945	-0.222644
H280	H	-0.493934	-0.671945	0.277356
N281	N	-1.099041	-0.907384	-0.466448
N282	N	-0.599041	-0.407384	0.033552
N283	N	-1.090840	-0.842735	-0.459120
N284	N	-0.590840	-0.342735	0.040880
H285	H	-1.110460	-0.808991	-0.490206
H286	H	-0.610460	-0.308991	0.009794
N287	N	-0.988680	-0.907346	-0.466458
N288	N	-0.488680	-0.407346	0.033542
N289	N	-1.012981	-0.865604	-0.504929
N290	N	-0.512981	-0.365604	-0.004929
H291	H	-0.993226	-0.831848	-0.536023
H292	H	-0.493226	-0.331848	-0.036023
H293	H	-0.743065	-0.870174	-0.500592
H294	H	-0.243065	-0.370174	-0.000592
