data_functionalizedCrystal
_audit_creation_method	'MofGen! by Chris Wilmer'
_symmetry_space_group_name_H-M	'P1'
_symmetry_Int_Tables_number	1
_symmetry_cell_setting	triclinic
loop_
_symmetry_equiv_pos_as_xyz
  x,y,z
_cell_length_a	16.974885
_cell_length_b	16.992695
_cell_length_c	16.053942
_cell_angle_alpha	92.749749
_cell_angle_beta	83.790486
_cell_angle_gamma	87.023153
loop_
_atom_site_label
_atom_site_type_symbol
_atom_site_fract_x
_atom_site_fract_y
_atom_site_fract_z
O1	O	1.055529	0.099814	-0.001823
O2	O	0.825432	0.113288	0.013711
O3	O	0.939558	-0.007588	0.005999
O4	O	0.941403	0.220690	0.005888
O5	O	0.945804	-0.014218	-0.133279
O6	O	0.831678	0.106658	-0.125567
O7	O	1.061775	0.093185	-0.141102
Zn8	Zn	0.947718	0.098869	-0.155448
Zn9	Zn	0.939489	0.107603	0.028057
O10	O	0.947648	0.214060	-0.133390
C11	C	0.798977	0.109585	-0.053931
C12	C	0.710842	0.108418	-0.047981
C13	C	0.214372	0.102216	-0.006282
C14	C	0.297185	0.103312	-0.011884
C15	C	0.341987	0.100252	-0.090606
C16	C	0.303974	0.096087	-0.163732
C17	C	0.221163	0.094986	-0.158129
C18	C	0.590018	0.103153	-0.115504
C19	C	0.672834	0.104257	-0.121101
C20	C	0.666039	0.111479	0.030747
C21	C	0.583227	0.110382	0.036343
C22	C	0.545222	0.106214	-0.036782
N23	N	0.426634	0.101374	-0.096334
N24	N	0.460576	0.105086	-0.031054
C25	C	0.940308	-0.040105	-0.063479
C26	C	0.933227	-0.127119	-0.063001
C27	C	1.001549	-0.177654	-0.067615
C28	C	0.994890	-0.259412	-0.067157
C29	C	0.919910	-0.290632	-0.062092
C30	C	0.851583	-0.240091	-0.057476
C31	C	0.858242	-0.158334	-0.057927
C32	C	0.892311	-0.534111	-0.060217
C33	C	0.885658	-0.615873	-0.059769
C34	C	1.028966	-0.635189	-0.069448
C35	C	1.035618	-0.553430	-0.069905
C36	C	0.967291	-0.502895	-0.065284
N37	N	0.913102	-0.374202	-0.061627
N38	N	0.974099	-0.419327	-0.065743
C39	C	1.088230	0.096888	-0.073457
C40	C	1.176364	0.098055	-0.079402
C41	C	0.946899	0.246578	-0.063909
C42	C	0.953979	0.333591	-0.064382
N43	N	0.953340	0.092907	-0.280685
C44	C	0.982445	0.062145	-0.806272
C45	C	0.978494	0.066325	-0.718600
C46	C	0.925967	0.121916	-0.671363
C47	C	0.877393	0.173335	-0.711803
C48	C	0.881348	0.169158	-0.799473
C49	C	0.908721	0.140149	-0.408796
C50	C	0.904768	0.144321	-0.321119
C51	C	1.005871	0.037312	-0.327922
C52	C	1.009818	0.033136	-0.415594
C53	C	0.961247	0.084558	-0.456027
N54	N	0.921926	0.126189	-0.581748
N55	N	0.965293	0.080289	-0.545640
N56	N	0.933873	0.113559	0.153294
H57	H	0.696993	0.114872	0.090281
H58	H	0.190218	0.091606	-0.217671
F59	F	1.038348	0.002974	-0.856537
H60	H	0.790531	-0.265517	-0.053347
H61	H	0.328127	0.106695	0.047658
F62	F	0.720515	0.100999	-0.204892
H63	H	0.869171	0.182017	-0.441709
H64	H	1.018046	0.024461	-0.685679
F65	F	0.535551	0.113640	0.120130
F66	F	1.065722	-0.026030	-0.465866
F67	F	0.549579	0.098733	-0.193331
F68	F	0.351658	0.092828	-0.247514
F69	F	1.057562	-0.017410	-0.284886
F70	F	1.081355	-0.144435	-0.073013
H71	H	1.050526	-0.300555	-0.070916
H72	H	0.861991	0.189592	-0.282662
H73	H	1.096676	-0.528017	-0.074029
F74	F	1.101679	-0.688976	-0.074365
H75	H	0.834627	0.218602	-0.673338
H76	H	0.836674	-0.492974	-0.056455
H77	H	0.802606	-0.117189	-0.054170
F78	F	0.166697	0.105479	0.077505
F79	F	0.805849	-0.649098	-0.054382
H80	H	0.841797	0.211025	-0.832393
