data_functionalizedCrystal
_audit_creation_method	'MofGen! by Chris Wilmer'
_symmetry_space_group_name_H-M	'P1'
_symmetry_Int_Tables_number	1
_symmetry_cell_setting	triclinic
loop_
_symmetry_equiv_pos_as_xyz
  x,y,z
_cell_length_a	15.995288
_cell_length_b	19.288865
_cell_length_c	17.766277
_cell_angle_alpha	89.988397
_cell_angle_beta	90.011620
_cell_angle_gamma	96.698486
loop_
_atom_site_label
_atom_site_type_symbol
_atom_site_fract_x
_atom_site_fract_y
_atom_site_fract_z
O1	O	-1.110687	0.089325	-0.062642
O2	O	-0.866863	0.100426	-0.062636
O3	O	-0.995820	-0.006238	-0.062625
O4	O	-0.981730	0.195989	-0.062654
O5	O	-0.995798	-0.006244	0.062564
O6	O	-0.866840	0.100420	0.062552
O7	O	-1.110664	0.089319	0.062546
Cu8	Cu	-0.988750	0.094869	0.073980
Cu9	Cu	-0.988777	0.094876	-0.074070
O10	O	-0.981707	0.195983	0.062534
C11	C	-0.835657	0.099972	-0.000041
C12	C	-0.742709	0.098619	-0.000038
C13	C	-0.995356	-0.032118	-0.000028
C14	C	-0.993995	-0.109225	-0.000021
C15	C	-0.572535	0.096120	-0.000042
C16	C	-0.524782	0.172066	-0.000051
C17	C	-0.428099	0.170684	-0.000335
C18	C	-0.404986	0.093661	-0.000044
C19	C	-0.446274	0.055985	-0.071387
C20	C	-0.542901	0.057903	-0.071446
C21	C	-0.543159	0.056772	0.070921
C22	C	-0.446214	0.056783	0.071858
C23	C	-0.310296	0.092267	-0.000048
C24	C	-0.667226	0.097512	-0.000043
C25	C	-1.069661	-0.153739	-0.000020
C26	C	-1.068382	-0.226189	-0.000032
C27	C	-0.991433	-0.254122	-0.000030
C28	C	-0.915757	-0.209598	-0.000036
C29	C	-0.917037	-0.137150	-0.000032
C30	C	-0.930934	-0.362557	0.043822
C31	C	-0.929656	-0.435005	0.043823
C32	C	-0.987479	-0.477577	-0.000047
C33	C	-1.046594	-0.447695	-0.043907
C34	C	-1.047875	-0.375246	-0.043902
C35	C	-0.990036	-0.332680	-0.000035
C36	C	-1.061765	-0.600651	-0.000059
C37	C	-1.060483	-0.673102	-0.000075
C38	C	-0.907855	-0.656509	-0.000073
C39	C	-0.909139	-0.584060	-0.000064
C40	C	-0.986096	-0.556135	-0.000053
C41	C	-0.141868	0.089782	-0.000048
C42	C	-0.234812	0.091163	-0.000048
C43	C	-0.982172	0.221863	-0.000064
C44	C	-0.983533	0.298970	-0.000075
N45	N	-0.988738	0.094864	0.178110
N46	N	-0.988796	0.094875	-0.178200
C47	C	-1.045858	0.047657	0.217502
C48	C	-1.045863	0.047653	0.296304
C49	C	-0.988755	0.094870	0.335711
C50	C	-0.931624	0.142081	0.296309
C51	C	-0.931615	0.142078	0.217509
C52	C	-0.977546	0.158131	0.460540
C53	C	-0.977560	0.158134	0.539339
C54	C	-0.988778	0.094878	0.578757
C55	C	-0.999998	0.031616	0.539367
C56	C	-0.999989	0.031613	0.460567
C57	C	-0.988758	0.094878	0.421156
C58	C	-1.045907	0.047663	0.703595
C59	C	-1.045906	0.047659	0.782398
C60	C	-0.931670	0.142093	0.782402
C61	C	-0.931667	0.142091	0.703600
C62	C	-0.988790	0.094877	0.664202
H63	H	-0.399515	0.200289	0.050794
H64	H	-0.575151	0.000779	0.071616
Cl65	Cl	-0.424837	-0.031393	-0.075166
H66	H	-0.418761	0.084296	0.124639
Cl67	Cl	-0.859827	0.201436	0.345847
H68	H	-0.543149	0.202583	0.051100
Cl69	Cl	-0.859871	0.201446	0.831936
Cl70	Cl	-0.402397	0.095928	-0.153681
H71	H	-0.968429	0.209646	0.571404
Cl72	Cl	-0.858236	-0.309045	0.098980
H73	H	-0.853104	-0.232346	-0.000037
Cl74	Cl	-1.166407	-0.118638	-0.000028
H75	H	-1.092418	0.009213	0.814472
H76	H	-0.885157	0.180535	0.671525
Cl77	Cl	-0.814010	-0.528096	-0.000062
Cl78	Cl	-0.574647	0.095370	0.154435
Cl79	Cl	-0.963521	0.237662	0.410993
Cl80	Cl	-0.859801	0.201431	0.167984
Cl81	Cl	-1.122182	-0.337681	-0.099043
Cl82	Cl	-0.811117	-0.691618	-0.000075
Cl83	Cl	-1.117713	-0.011695	0.654064
H84	H	-0.431087	0.000627	0.076386
H85	H	-1.130001	-0.262440	-0.000033
H86	H	-1.092369	0.009211	0.185426
H87	H	-1.092379	0.009210	0.328383
Cl88	Cl	-0.554890	0.218489	-0.078933
Cl89	Cl	-1.155616	-0.729064	-0.000078
H90	H	-0.400149	0.200166	-0.051783
Cl91	Cl	-1.119291	-0.501207	-0.099062
H92	H	-0.855419	-0.100906	-0.000033
H93	H	-0.561128	0.085059	-0.124986
H94	H	-1.009123	-0.019897	0.428499
H95	H	-0.881518	-0.459329	0.079532
Cl96	Cl	-0.593058	-0.028195	-0.076138
Cl97	Cl	-1.158508	-0.565542	-0.000042
H98	H	-1.009132	-0.019893	0.571460
