data_functionalizedCrystal
_audit_creation_method	'MofGen! by Chris Wilmer'
_symmetry_space_group_name_H-M	'P1'
_symmetry_Int_Tables_number	1
_symmetry_cell_setting	triclinic
loop_
_symmetry_equiv_pos_as_xyz
  x,y,z
_cell_length_a	12.759401
_cell_length_b	17.640280
_cell_length_c	12.759393
_cell_angle_alpha	78.768965
_cell_angle_beta	89.979062
_cell_angle_gamma	78.802151
loop_
_atom_site_label
_atom_site_type_symbol
_atom_site_fract_x
_atom_site_fract_y
_atom_site_fract_z
Zn1	Zn	1.690818	-0.314597	-0.509562
Zn2	Zn	1.726238	-0.446790	-0.298393
Zn3	Zn	1.515128	-0.314639	-0.333886
Zn4	Zn	1.550623	-0.446735	-0.474045
O5	O	1.620702	-0.380691	-0.403971
O6	O	1.842539	-0.332138	-0.481560
O7	O	1.698203	-0.429301	-0.156069
O8	O	1.508756	-0.204028	-0.386908
O9	O	1.868562	-0.429260	-0.326415
O10	O	1.637835	-0.203997	-0.515976
O11	O	1.543101	-0.332210	-0.182146
O12	O	1.372814	-0.332157	-0.352468
O13	O	1.569251	-0.429166	-0.625788
O14	O	1.398892	-0.429207	-0.455443
O15	O	1.672252	-0.332085	-0.651883
O16	O	1.732620	-0.557389	-0.291976
O17	O	1.603596	-0.557349	-0.421027
C18	C	1.347732	-0.380681	-0.403953
C19	C	1.230959	-0.380696	-0.403965
C20	C	1.675832	-0.586048	-0.348819
C21	C	1.699513	-0.673900	-0.325259
C22	C	1.189724	-0.431307	-0.457458
C23	C	1.080001	-0.431310	-0.457478
C24	C	1.052757	-0.330089	-0.350505
C25	C	1.162477	-0.330082	-0.350491
C26	C	0.937727	-0.459671	-0.573724
C27	C	0.896492	-0.510294	-0.627204
C28	C	0.952820	-0.587430	-0.622444
C29	C	1.050387	-0.613957	-0.564184
C30	C	1.091618	-0.563338	-0.510695
C31	C	1.035288	-0.486192	-0.515479
C32	C	1.304755	-0.301729	-0.234241
C33	C	1.345989	-0.251113	-0.180746
C34	C	1.289662	-0.173977	-0.185495
C35	C	1.192092	-0.147452	-0.243736
C36	C	1.150858	-0.198068	-0.297231
C37	C	1.207193	-0.275203	-0.292484
C38	C	1.441231	-0.962869	-0.583333
C39	C	1.463485	-1.045420	-0.561162
C40	C	1.597921	-1.045396	-0.426917
C41	C	1.575682	-0.962844	-0.449081
C42	C	1.497335	-0.921586	-0.527289
C43	C	1.631786	-0.921561	-0.393036
C44	C	1.609545	-0.839016	-0.415195
C45	C	1.531199	-0.797753	-0.493397
C46	C	1.475094	-0.839041	-0.549447
C47	C	1.710127	-0.962820	-0.314823
C48	C	1.766231	-0.921538	-0.258779
C49	C	1.743996	-0.838991	-0.280942
C50	C	1.665650	-0.797728	-0.359145
C51	C	1.800101	-0.797703	-0.224892
C52	C	1.777860	-0.715158	-0.247051
C53	C	1.643409	-0.715183	-0.381303
C54	C	1.894738	-0.380701	-0.403990
C55	C	2.011516	-0.380705	-0.403998
C56	C	1.620760	-0.380615	-0.678025
C57	C	1.620785	-0.380582	-0.794811
C58	C	1.565385	-0.174531	-0.459363
C59	C	1.541813	-0.086679	-0.482967
C60	C	1.674420	-0.330024	-0.863264
C61	C	1.674429	-0.329990	-0.972997
C62	C	1.567166	-0.431079	-0.945813
C63	C	1.567151	-0.431109	-0.836083
C64	C	1.686978	-0.236736	-1.148011
C65	C	1.740632	-0.186184	-1.216466
C66	C	1.839887	-0.174064	-1.184128
C67	C	1.885512	-0.212507	-1.083334
C68	C	1.831866	-0.263064	-1.014883
C69	C	1.732592	-0.275169	-1.047223
C70	C	1.554613	-0.524364	-0.661067
C71	C	1.500973	-0.574926	-0.592613
C72	C	1.401718	-0.587054	-0.624946
C73	C	1.356100	-0.548625	-0.725740
C74	C	1.409741	-0.498064	-0.794194
C75	C	1.508994	-0.485934	-0.761853
C76	C	1.620689	-0.380709	-0.130999
C77	C	1.620808	-0.380519	-0.014274
H78	H	1.171055	-0.584937	-0.463261
H79	H	1.523502	-0.472218	-0.979430
O80	O	1.365467	-0.460604	-0.892073
C81	C	1.349729	-0.378359	-0.899410
H82	H	1.406519	-0.364798	-0.839792
H83	H	1.263616	-0.354794	-0.880508
C84	C	1.302400	-0.355328	-1.086720
C85	C	1.372157	-0.338671	-1.013501
H86	H	1.316229	-0.330845	-1.157097
H87	H	1.312998	-0.410738	-1.081777
H88	H	1.230645	-0.335690	-1.070954
H89	H	1.443909	-0.358318	-1.029259
H90	H	1.361571	-0.283264	-1.018450
H91	H	1.966341	-0.202640	-1.057017
H92	H	1.579618	-0.681589	-0.444996
O93	O	1.104986	-0.688905	-0.559701
C94	C	1.047660	-0.727900	-0.619381
H95	H	0.992198	-0.682486	-0.681246
H96	H	0.998311	-0.764441	-0.563430
C97	C	1.194745	-0.838263	-0.600600
C98	C	1.126631	-0.782484	-0.676590
H99	H	1.243456	-0.871936	-0.635886
H100	H	1.233365	-0.811993	-0.560389
H101	H	1.153608	-0.868706	-0.553980
H102	H	1.167767	-0.752037	-0.723200
H103	H	1.088020	-0.808751	-0.716810
O104	O	1.259770	-0.560484	-0.757279
C105	C	1.271212	-0.592324	-0.850745
H106	H	1.357981	-0.622614	-0.855936
H107	H	1.247594	-0.542972	-0.923794
C108	C	1.091833	-0.615652	-0.840773
C109	C	1.198402	-0.652860	-0.847145
H110	H	1.046918	-0.652991	-0.838557
H111	H	1.084123	-0.594198	-0.777806
H112	H	1.072167	-0.574527	-0.901650
H113	H	1.218071	-0.693977	-0.786263
H114	H	1.206115	-0.674322	-0.910102
H115	H	0.919239	-0.628647	-0.665990
O116	O	1.409090	-1.085488	-0.615771
C117	C	1.426522	-1.065245	-0.725937
H118	H	1.504321	-1.042499	-0.737423
H119	H	1.357273	-1.017356	-0.766204
C120	C	1.338461	-1.166490	-0.762256
C121	C	1.434019	-1.138558	-0.776364
H122	H	1.343081	-1.211711	-0.793364
H123	H	1.326712	-1.180127	-0.688036
H124	H	1.280763	-1.126575	-0.795812
H125	H	1.491712	-1.178469	-0.742796
H126	H	1.445777	-1.124930	-0.850580
H127	H	1.661708	-1.078999	-0.363237
O128	O	0.883146	-0.384685	-0.578480
C129	C	0.946981	-0.331018	-0.624585
H130	H	1.009372	-0.360808	-0.675370
H131	H	0.988829	-0.311392	-0.558591
C132	C	0.799268	-0.222074	-0.633119
C133	C	0.875893	-0.258661	-0.695501
H134	H	0.755419	-0.177440	-0.676859
H135	H	0.756262	-0.258231	-0.602053
H136	H	0.834154	-0.205727	-0.578127
H137	H	0.841007	-0.275017	-0.750483
H138	H	0.918892	-0.222506	-0.726578
H139	H	1.538130	-0.606224	-0.510546
H140	H	1.323241	-0.132769	-0.141924
H141	H	1.245479	-0.472518	-0.501003
O142	O	1.365273	-0.922745	-0.659432
C143	C	1.412179	-0.874918	-0.740151
H144	H	1.501609	-0.899749	-0.740046
H145	H	1.398970	-0.812373	-0.724449
C146	C	1.250614	-0.843122	-0.849806
C147	C	1.360452	-0.873624	-0.849683
H148	H	1.218704	-0.842320	-0.917371
H149	H	1.219010	-0.875341	-0.795423
H150	H	1.239621	-0.791004	-0.836716
H151	H	1.371443	-0.925744	-0.862759
H152	H	1.392057	-0.841413	-0.904071
H153	H	1.071415	-0.176462	-0.344663
H154	H	0.817051	-0.488688	-0.674642
H155	H	1.513085	-0.730539	-0.511429
O156	O	1.137529	-0.072486	-0.248284
C157	C	1.194831	-0.033505	-0.188560
H158	H	1.282888	-0.063351	-0.181669
H159	H	1.161601	-0.036413	-0.105232
C160	C	1.075214	0.089979	-0.253655
C161	C	1.183368	0.053326	-0.245199
H162	H	1.068139	0.143542	-0.288588
H163	H	1.036605	0.063717	-0.293889
H164	H	1.047534	0.087548	-0.184210
H165	H	1.211042	0.055749	-0.314642
H166	H	1.221981	0.079591	-0.204977
O167	O	1.359590	-0.376650	-0.229482
C168	C	1.454556	-0.389203	-0.166620
H169	H	1.445096	-0.345715	-0.110237
H170	H	1.523892	-0.380029	-0.220880
C171	C	1.489028	-0.527465	-0.170068
C172	C	1.477406	-0.474057	-0.100812
H173	H	1.503127	-0.579808	-0.129478
H174	H	1.425050	-0.519008	-0.212423
H175	H	1.546807	-0.519811	-0.215281
H176	H	1.419620	-0.481705	-0.055610
H177	H	1.541375	-0.482517	-0.058448
H178	H	1.635433	-0.514487	-0.634727
H179	H	1.411304	-0.805448	-0.613140
H180	H	0.996987	-0.288882	-0.306966
O181	O	1.842320	-0.961741	-0.182864
C182	C	1.849894	-1.043450	-0.175293
H183	H	1.818490	-1.054716	-0.253323
H184	H	1.800288	-1.066923	-0.106630
C185	C	2.006169	-1.071943	-0.058536
C186	C	1.967606	-1.085780	-0.154376
H187	H	2.078778	-1.098055	-0.045628
H188	H	2.001064	-1.016893	-0.063632
H189	H	1.964820	-1.091504	-0.001327
H190	H	2.008945	-1.066210	-0.211584
H191	H	1.972720	-1.140827	-0.149288
H192	H	1.606151	-0.246593	-1.174346
O193	O	1.876200	-0.837663	-0.148855
C194	C	1.920972	-0.783524	-0.104159
H195	H	1.862100	-0.724707	-0.116275
H196	H	1.998365	-0.774688	-0.145077
C197	C	2.017168	-0.888015	0.031185
C198	C	1.944856	-0.815776	0.016312
H199	H	2.031906	-0.907910	0.105495
H200	H	1.987008	-0.924490	0.001070
H201	H	2.081653	-0.880642	-0.002921
H202	H	1.880368	-0.823152	0.050405
H203	H	1.975006	-0.779303	0.046434
O204	O	1.832197	-0.675014	-0.192513
C205	C	1.759563	-0.627316	-0.137426
H206	H	1.683541	-0.652249	-0.124165
H207	H	1.739060	-0.564747	-0.186708
C208	C	1.903983	-0.595430	-0.044881
C209	C	1.810615	-0.626058	-0.028585
H210	H	1.935475	-0.594650	0.022255
H211	H	1.952919	-0.627562	-0.081997
H212	H	1.886884	-0.543292	-0.085953
H213	H	1.827717	-0.678198	0.012474
H214	H	1.761684	-0.593934	0.008540
O215	O	1.726366	-0.280825	-0.823252
C216	C	1.682285	-0.202043	-0.871252
H217	H	1.597285	-0.198045	-0.902472
H218	H	1.733075	-0.181369	-0.940509
C219	C	1.784743	-0.154227	-0.749611
C220	C	1.680341	-0.149315	-0.787948
H221	H	1.783548	-0.121700	-0.698228
H222	H	1.814445	-0.207304	-0.717274
H223	H	1.827057	-0.136999	-0.807334
H224	H	1.638033	-0.166551	-0.730228
H225	H	1.650632	-0.096240	-0.820273
O226	O	1.349490	-0.636173	-0.558600
C227	C	1.252086	-0.638614	-0.608746
H228	H	1.257479	-0.621111	-0.699132
H229	H	1.184451	-0.595799	-0.580347
C230	C	1.223142	-0.744257	-0.468778
C231	C	1.229769	-0.722766	-0.579792
H232	H	1.209372	-0.796164	-0.450915
H233	H	1.288762	-0.742611	-0.434991
H234	H	1.166780	-0.708571	-0.445126
H235	H	1.286137	-0.758445	-0.603440
H236	H	1.164157	-0.724419	-0.613582
O237	O	1.891852	-0.124918	-1.250743
C238	C	1.830323	-0.093615	-1.346652
H239	H	1.742884	-0.096193	-1.331650
H240	H	1.860263	-0.129606	-1.409658
C241	C	1.948175	-0.004152	-1.404998
C242	C	1.840780	-0.007313	-1.386570
H243	H	1.954628	0.049082	-1.429625
H244	H	1.989631	-0.025244	-1.340384
H245	H	1.973112	-0.034149	-1.457500
H246	H	1.815848	0.022675	-1.334060
H247	H	1.799319	0.013786	-1.451176
H248	H	1.425437	-0.272717	-0.133321
H249	H	1.728236	-1.030034	-0.296788
H250	H	1.869016	-0.294366	-0.932821
H251	H	1.703474	-0.154884	-1.298532
