data_functionalizedCrystal
_audit_creation_method	'MofGen! by Chris Wilmer'
_symmetry_space_group_name_H-M	'P1'
_symmetry_Int_Tables_number	1
_symmetry_cell_setting	triclinic
loop_
_symmetry_equiv_pos_as_xyz
  x,y,z
_cell_length_a	17.699083
_cell_length_b	19.188930
_cell_length_c	16.176319
_cell_angle_alpha	89.988074
_cell_angle_beta	89.998611
_cell_angle_gamma	83.213899
loop_
_atom_site_label
_atom_site_type_symbol
_atom_site_fract_x
_atom_site_fract_y
_atom_site_fract_z
O1	O	1.003963	0.088294	-0.068640
O2	O	1.503963	0.588294	0.431360
O3	O	0.783569	0.099782	-0.068668
O4	O	1.283569	0.599782	0.431332
O5	O	0.900126	-0.007610	-0.068637
O6	O	1.400126	0.492390	0.431363
O7	O	0.887406	0.195687	-0.068671
O8	O	1.387406	0.695687	0.431329
O9	O	0.900110	-0.007617	0.068856
O10	O	1.400110	0.492383	0.568856
O11	O	0.783553	0.099775	0.068825
O12	O	1.283553	0.599775	0.568825
O13	O	1.003947	0.088288	0.068853
O14	O	1.503947	0.588288	0.568853
Cu15	Cu	0.893748	0.094031	0.081393
Cu16	Cu	1.393748	0.594031	0.581393
Cu17	Cu	0.893767	0.094039	-0.081208
Cu18	Cu	1.393767	0.594039	0.418792
O19	O	0.887390	0.195680	0.068822
O20	O	1.387390	0.695680	0.568822
C21	C	0.755365	0.099367	0.000075
C22	C	1.255365	0.599367	0.500075
C23	C	0.671348	0.098132	0.000065
C24	C	1.171348	0.598132	0.500065
C25	C	0.622644	0.161169	0.000055
C26	C	1.122644	0.661169	0.500055
C27	C	0.543702	0.160004	0.000065
C28	C	1.043702	0.660004	0.500065
C29	C	0.513466	0.095802	0.000081
C30	C	1.013466	0.595802	0.500081
C31	C	0.562176	0.032761	0.000093
C32	C	1.062176	0.532761	0.500093
C33	C	0.641117	0.033926	0.000088
C34	C	1.141117	0.533926	0.500088
C35	C	0.243819	0.028060	0.000115
C36	C	0.743819	0.528060	0.500115
C37	C	0.164873	0.026900	0.000117
C38	C	0.664873	0.526900	0.500117
C39	C	0.146405	0.154139	0.000092
C40	C	0.646405	0.654139	0.500092
C41	C	0.225345	0.155304	0.000087
C42	C	0.725345	0.655304	0.500087
C43	C	0.274049	0.092263	0.000104
C44	C	0.774049	0.592263	0.500104
C45	C	0.359646	0.093526	0.000094
C46	C	0.859646	0.593526	0.500094
C47	C	0.427870	0.094538	0.000085
C48	C	0.927870	0.594538	0.500085
C49	C	0.899706	-0.033625	0.000112
C50	C	1.399706	0.466375	0.500112
C51	C	0.898469	-0.111131	0.000119
C52	C	1.398469	0.388869	0.500119
C53	C	0.966861	-0.155978	0.000131
C54	C	1.466861	0.344022	0.500131
C55	C	0.965699	-0.228804	0.000118
C56	C	1.465699	0.271196	0.500118
C57	C	0.896142	-0.256778	0.000108
C58	C	1.396142	0.243222	0.500108
C59	C	0.827741	-0.211921	0.000091
C60	C	1.327741	0.288079	0.500091
C61	C	0.828905	-0.139098	0.000096
C62	C	1.328905	0.360902	0.500096
N63	N	0.842968	-0.364845	0.046893
N64	N	1.342968	0.135155	0.546893
N65	N	0.841868	-0.434025	0.046890
N66	N	1.341868	0.065975	0.546890
C67	C	0.892632	-0.476191	0.000091
C68	C	1.392632	0.023809	0.500091
N69	N	0.944550	-0.446565	-0.046694
N70	N	1.444550	0.053435	0.453306
N71	N	0.945653	-0.377379	-0.046687
N72	N	1.445653	0.122621	0.453313
C73	C	0.894873	-0.335742	0.000102
C74	C	1.394873	0.164258	0.500102
C75	C	0.959769	-0.600004	0.000088
C76	C	1.459769	-0.100004	0.500088
C77	C	0.958604	-0.672830	0.000070
C78	C	1.458604	-0.172830	0.500070
C79	C	0.820644	-0.655946	0.000051
C80	C	1.320644	-0.155946	0.500051
C81	C	0.821811	-0.583121	0.000061
C82	C	1.321811	-0.083121	0.500061
C83	C	0.891375	-0.555155	0.000084
C84	C	1.391375	-0.055155	0.500084
C85	C	1.032151	0.088703	0.000108
C86	C	1.532151	0.588703	0.500108
C87	C	1.116167	0.089938	0.000113
C88	C	1.616167	0.589938	0.500113
C89	C	0.887810	0.221695	0.000071
C90	C	1.387810	0.721695	0.500071
C91	C	0.889046	0.299201	0.000059
C92	C	1.389046	0.799201	0.500059
N93	N	0.893741	0.094025	0.195758
N94	N	1.393741	0.594025	0.695758
N95	N	0.893781	0.094039	-0.195574
N96	N	1.393781	0.594039	0.304426
C97	C	0.945367	0.046491	0.239036
C98	C	1.445367	0.546491	0.739036
C99	C	0.945371	0.046490	0.325584
C100	C	1.445371	0.546490	0.825584
C101	C	0.893751	0.094027	0.368851
C102	C	1.393751	0.594027	0.868851
C103	C	0.842119	0.141563	0.325567
C104	C	1.342119	0.641563	0.825567
C105	C	0.842112	0.141560	0.239022
C106	C	1.342112	0.641560	0.739022
C107	C	0.842145	0.141576	0.674595
C108	C	1.342145	0.641576	1.174595
C109	C	0.842157	0.141577	0.761147
C110	C	1.342157	0.641577	1.261147
C111	C	0.945404	0.046506	0.761157
C112	C	1.445404	0.546506	1.261157
C113	C	0.945397	0.046503	0.674612
C114	C	1.445397	0.546503	1.174612
C115	C	0.893763	0.094036	0.631335
C116	C	1.393763	0.594036	1.131335
C117	C	0.893758	0.094036	0.537491
C118	C	1.393758	0.594036	1.037491
C119	C	0.893759	0.094031	0.462694
C120	C	1.393759	0.594031	0.962694
H121	H	0.106741	0.205470	0.000082
H122	H	0.606741	0.705470	0.500082
O123	O	0.532845	-0.029624	0.000253
O124	O	1.032845	0.470376	0.500253
C125	C	0.524521	-0.138759	0.071474
C126	C	1.024521	0.361241	0.571474
C127	C	0.557771	-0.068125	0.071411
C128	C	1.057771	0.431875	0.571411
H129	H	0.544674	-0.169913	0.128991
H130	H	1.044674	0.330087	0.628991
H131	H	0.459731	-0.128808	0.071526
H132	H	0.959731	0.371192	0.571526
H133	H	0.544585	-0.169870	0.013912
H134	H	1.044585	0.330130	0.513912
H135	H	0.537765	-0.036978	0.128964
H136	H	1.037765	0.463022	0.628964
H137	H	0.622558	-0.078125	0.071317
H138	H	1.122558	0.421875	0.571317
O139	O	1.027406	-0.572948	0.000059
O140	O	1.527406	-0.072948	0.500059
C141	C	1.164118	-0.597379	0.000109
C142	C	1.664118	-0.097379	0.500109
C143	C	1.087573	-0.628110	0.000127
C144	C	1.587573	-0.128110	0.500127
H145	H	1.212783	-0.641962	0.000182
H146	H	1.712783	-0.141962	0.500182
H147	H	1.168164	-0.563719	-0.057442
H148	H	1.668164	-0.063719	0.442558
H149	H	1.168070	-0.563696	0.057639
H150	H	1.668070	-0.063696	0.557639
H151	H	1.083570	-0.661824	-0.057364
H152	H	1.583570	-0.161824	0.442636
H153	H	1.083560	-0.661730	0.057717
H154	H	1.583560	-0.161730	0.557717
O155	O	0.753055	-0.683077	-0.000105
O156	O	1.253055	-0.183077	0.499895
C157	C	0.634777	-0.690874	-0.071332
C158	C	1.134777	-0.190874	0.428668
C159	C	0.711304	-0.660112	-0.071262
C160	C	1.211304	-0.160112	0.428738
H161	H	0.600993	-0.672308	-0.128847
H162	H	1.100993	-0.172308	0.371153
H163	H	0.645645	-0.750630	-0.071389
H164	H	1.145645	-0.250630	0.428611
H165	H	0.601016	-0.672418	-0.013769
H166	H	1.101016	-0.172418	0.486231
H167	H	0.745104	-0.678515	-0.128816
H168	H	1.245104	-0.178515	0.371184
H169	H	0.700382	-0.600360	-0.071162
H170	H	1.200382	-0.100360	0.428838
H171	H	0.800104	0.180281	0.639366
H172	H	1.300104	0.680281	1.139366
H173	H	1.014299	-0.709345	0.000076
H174	H	1.514299	-0.209345	0.500076
H175	H	0.987433	0.007796	0.639386
H176	H	1.487433	0.507796	1.139386
O177	O	0.762416	-0.095600	-0.000022
O178	O	1.262416	0.404400	0.499978
C179	C	0.644892	-0.058839	-0.071293
C180	C	1.144892	0.441161	0.428707
C181	C	0.720154	-0.108152	-0.071255
C182	C	1.220154	0.391848	0.428745
H183	H	0.610709	-0.068960	-0.128888
H184	H	1.110709	0.431040	0.371112
H185	H	0.610587	-0.069016	-0.013799
H186	H	1.110587	0.430984	0.486201
H187	H	0.657690	-0.001991	-0.071244
H188	H	1.157690	0.498009	0.428756
H189	H	0.707424	-0.165017	-0.071334
H190	H	1.207424	0.334983	0.428666
H191	H	0.754436	-0.097914	-0.128744
H192	H	1.254436	0.402086	0.371256
H193	H	0.800085	0.180266	0.360800
H194	H	1.300085	0.680266	0.860800
O195	O	0.135627	-0.035531	0.000174
O196	O	0.635627	0.464469	0.500174
C197	C	0.162271	-0.161617	0.000161
C198	C	0.662271	0.338383	0.500161
C199	C	0.195494	-0.090970	0.000118
C200	C	0.695494	0.409030	0.500118
H201	H	0.210657	-0.206458	0.000098
H202	H	0.710657	0.293542	0.500098
H203	H	0.125800	-0.165387	0.057716
H204	H	0.625800	0.334613	0.557716
H205	H	0.125749	-0.165304	-0.057365
H206	H	0.625749	0.334696	0.442635
H207	H	0.232050	-0.087235	0.057604
H208	H	0.732050	0.412765	0.557604
H209	H	0.231921	-0.087230	-0.057476
H210	H	0.731921	0.412770	0.442524
H211	H	0.766119	-0.546605	0.000056
H212	H	1.266119	-0.046605	0.500056
H213	H	0.680771	-0.017406	0.000096
H214	H	1.180771	0.482594	0.500096
H215	H	0.987405	0.007784	0.203814
H216	H	1.487405	0.507784	0.703814
H217	H	0.800071	0.180266	0.203785
H218	H	1.300071	0.680266	0.703785
H219	H	0.504050	0.211335	0.000056
H220	H	1.004050	0.711335	0.500056
O221	O	1.032187	-0.272309	0.000024
O222	O	1.532187	0.227691	0.500024
C223	C	1.149736	-0.309048	-0.071200
C224	C	1.649736	0.190952	0.428800
C225	C	1.074477	-0.259730	-0.071188
C226	C	1.574477	0.240270	0.428812
H227	H	1.183941	-0.298905	-0.128778
H228	H	1.683941	0.201095	0.371222
H229	H	1.184021	-0.298897	-0.013689
H230	H	1.684021	0.201103	0.486311
H231	H	1.136932	-0.365894	-0.071165
H232	H	1.636932	0.134106	0.428835
H233	H	1.087211	-0.202866	-0.071252
H234	H	1.587211	0.297134	0.428748
H235	H	1.040214	-0.269941	-0.128695
H236	H	1.540214	0.230059	0.371305
H237	H	0.987409	0.007784	0.360820
H238	H	1.487409	0.507784	0.860820
H239	H	0.987446	0.007800	0.796402
H240	H	1.487446	0.507800	1.296402
O241	O	0.291197	-0.033131	0.000011
O242	O	0.791197	0.466869	0.500011
C243	C	0.390998	-0.105687	-0.071244
C244	C	0.890998	0.394313	0.428756
C245	C	0.337397	-0.036351	-0.071216
C246	C	0.837397	0.463649	0.428784
H247	H	0.428354	-0.108319	-0.128833
H248	H	0.928354	0.391681	0.371167
H249	H	0.428473	-0.108344	-0.013744
H250	H	0.928473	0.391656	0.486256
H251	H	0.355805	-0.151758	-0.071197
H252	H	0.855805	0.348242	0.428803
H253	H	0.372530	0.009759	-0.071292
H254	H	0.872530	0.509759	0.428708
H255	H	0.299920	-0.033756	-0.128711
H256	H	0.799920	0.466244	0.371289
H257	H	0.647256	0.213450	0.000042
H258	H	1.147256	0.713450	0.500042
O259	O	0.760221	-0.239175	-0.000027
O260	O	1.260221	0.260825	0.499973
C261	C	0.678834	-0.311551	-0.071300
C262	C	1.178834	0.188449	0.428700
C263	C	0.755337	-0.280747	-0.071254
C264	C	1.255337	0.219253	0.428746
H265	H	0.674854	-0.345157	-0.128889
H266	H	1.174854	0.154843	0.371111
H267	H	0.674821	-0.345279	-0.013800
H268	H	1.174821	0.154721	0.486200
H269	H	0.630163	-0.266973	-0.071268
H270	H	1.130163	0.233027	0.428732
H271	H	0.804053	-0.325280	-0.071315
H272	H	1.304053	0.174720	0.428685
H273	H	0.759285	-0.247001	-0.128749
H274	H	1.259285	0.252999	0.371251
H275	H	0.249959	0.207584	0.000070
H276	H	0.749959	0.707584	0.500070
H277	H	1.023506	-0.133213	0.000147
H278	H	1.523506	0.366787	0.500147
H279	H	0.800119	0.180289	0.796374
H280	H	1.300119	0.680289	1.296374
