data_functionalizedCrystal
_audit_creation_method	'MofGen! by Chris Wilmer'
_symmetry_space_group_name_H-M	'P1'
_symmetry_Int_Tables_number	1
_symmetry_cell_setting	triclinic
loop_
_symmetry_equiv_pos_as_xyz
  x,y,z
_cell_length_a	16.120297
_cell_length_b	13.032831
_cell_length_c	13.032721
_cell_angle_alpha	90.902885
_cell_angle_beta	80.345876
_cell_angle_gamma	93.942761
loop_
_atom_site_label
_atom_site_type_symbol
_atom_site_fract_x
_atom_site_fract_y
_atom_site_fract_z
Zn1	Zn	-0.685769	-1.471908	0.646883
Zn2	Zn	-0.561755	-1.458691	0.812079
Zn3	Zn	-0.527021	-1.311115	0.616368
Zn4	Zn	-0.681325	-1.278370	0.796687
O5	O	-0.613968	-1.380021	0.718004
O6	O	-0.685715	-1.612912	0.688009
O7	O	-0.440670	-1.447287	0.779788
O8	O	-0.535402	-1.351680	0.475817
O9	O	-0.594602	-1.603202	0.809377
O10	O	-0.652034	-1.469814	0.498236
O11	O	-0.415151	-1.338864	0.636001
O12	O	-0.531093	-1.164014	0.621076
O13	O	-0.798392	-1.295870	0.783144
O14	O	-0.644460	-1.139956	0.753555
O15	O	-0.801657	-1.438062	0.673084
O16	O	-0.590293	-1.415535	0.954636
O17	O	-0.678141	-1.283054	0.943328
C18	C	-0.583526	-1.114969	0.682335
C19	C	-0.570525	-1.001574	0.667102
C20	C	-0.831071	-1.364788	0.729801
C21	C	-0.923587	-1.358296	0.734828
C22	C	-0.637526	-1.344333	0.986479
C23	C	-0.647642	-1.329157	1.101348
C24	C	-1.092969	-1.346410	0.743978
C25	C	-1.135814	-1.413874	0.691748
C26	C	-1.230064	-1.407260	0.696839
C27	C	-0.998710	-1.353022	0.738888
C28	C	-0.397710	-1.395263	0.706187
C29	C	-0.305191	-1.401991	0.700895
C30	C	-0.644529	-1.646107	0.753814
C31	C	-0.657552	-1.759498	0.769073
C32	C	-0.620753	-0.939135	0.725955
C33	C	-0.607317	-0.821935	0.710212
C34	C	-0.590339	-1.415874	0.448486
C35	C	-0.580270	-1.431153	0.333633
C36	C	-0.608731	-1.387993	1.158130
C37	C	-0.619187	-1.372309	1.276853
H38	H	-1.101710	-1.476597	0.643207
H39	H	-0.660246	-1.310327	1.316130
H40	H	-0.554367	-0.788630	0.648162
H41	H	-0.567681	-1.449979	1.118852
H42	H	-0.539218	-1.493143	1.294358
H43	H	-1.127071	-1.283692	0.792515
C44	C	-0.703103	-1.245424	1.154403
H45	H	-0.702850	-1.245863	1.227238
H46	H	-0.759200	-1.258689	1.141762
H47	H	-0.681462	-1.180051	1.126947
C48	C	-0.729091	-0.804474	0.852892
H49	H	-0.758864	-0.750101	0.887768
H50	H	-0.705872	-0.842311	0.901665
H51	H	-0.766683	-0.848748	0.820944
H52	H	-0.673705	-0.972446	0.787993
C53	C	-0.498996	-0.956586	0.583284
H54	H	-0.499347	-0.883716	0.583701
H55	H	-0.507161	-0.982364	0.516869
H56	H	-0.446344	-0.975914	0.597583
