data_functionalizedCrystal
_audit_creation_method	'MofGen! by Chris Wilmer'
_symmetry_space_group_name_H-M	'P1'
_symmetry_Int_Tables_number	1
_symmetry_cell_setting	triclinic
loop_
_symmetry_equiv_pos_as_xyz
  x,y,z
_cell_length_a	21.395362
_cell_length_b	12.645330
_cell_length_c	21.395356
_cell_angle_alpha	89.980568
_cell_angle_beta	89.964230
_cell_angle_gamma	90.033572
loop_
_atom_site_label
_atom_site_type_symbol
_atom_site_fract_x
_atom_site_fract_y
_atom_site_fract_z
Zn1	Zn	0.957866	-0.421639	-0.354613
Zn2	Zn	0.957807	-0.598910	-0.249846
Zn3	Zn	0.853095	-0.421710	-0.249814
Zn4	Zn	0.853074	-0.598910	-0.354551
O5	O	0.905460	-0.510292	-0.302206
O6	O	1.045536	-0.445124	-0.340754
O7	O	0.943901	-0.575434	-0.162164
O8	O	0.867027	-0.273353	-0.263728
O9	O	1.045493	-0.575364	-0.263783
O10	O	0.944001	-0.273301	-0.340723
O11	O	0.866970	-0.445246	-0.162140
O12	O	0.765415	-0.445246	-0.263668
O13	O	0.866990	-0.575364	-0.442237
O14	O	0.765399	-0.575433	-0.340618
O15	O	0.943980	-0.445124	-0.442282
O16	O	0.943880	-0.747257	-0.263724
O17	O	0.866933	-0.747257	-0.340650
C18	C	0.742673	-0.510348	-0.302133
C19	C	0.673031	-0.510397	-0.302117
C20	C	0.905415	-0.785722	-0.302197
C21	C	0.905452	-0.903552	-0.302214
C22	C	0.640326	-0.578276	-0.342125
C23	C	0.574891	-0.578250	-0.342153
C24	C	0.542163	-0.510357	-0.302162
C25	C	0.574876	-0.442465	-0.262151
C26	C	0.640310	-0.442485	-0.262129
C27	C	0.438445	-0.501828	-0.245756
C28	C	0.373012	-0.501815	-0.245777
C29	C	0.340342	-0.510287	-0.302231
C30	C	0.373114	-0.518795	-0.358665
C31	C	0.438548	-0.518815	-0.358643
C32	C	0.471211	-0.510326	-0.302182
C33	C	0.236685	-0.578142	-0.342272
C34	C	0.171248	-0.578108	-0.342301
C35	C	0.171235	-0.442328	-0.262294
C36	C	0.236670	-0.442356	-0.262271
C37	C	0.269391	-0.510268	-0.302259
C38	C	0.857245	-1.071160	-0.350758
C39	C	0.856998	-0.948600	-0.350602
C40	C	0.887583	-0.948144	-0.236177
C41	C	0.887289	-1.070742	-0.236472
C42	C	0.971824	-1.070613	-0.319173
C43	C	0.971417	-0.948006	-0.320616
C44	C	1.068884	-0.510236	-0.302279
C45	C	1.138525	-0.510213	-0.302311
C46	C	0.905489	-0.510236	-0.465629
C47	C	0.905501	-0.510212	-0.535271
C48	C	0.905523	-0.233787	-0.302228
C49	C	0.905550	-0.115957	-0.302238
C50	C	0.945630	-0.577779	-1.037080
C51	C	0.945618	-0.577813	-0.971645
C52	C	0.905561	-0.510044	-0.938909
C53	C	0.865501	-0.442257	-0.971615
C54	C	0.865509	-0.442232	-1.037049
C55	C	0.900623	-0.414574	-0.835246
C56	C	0.900619	-0.414597	-0.769813
C57	C	0.905533	-0.510119	-0.737088
C58	C	0.910463	-0.605623	-0.769804
C59	C	0.910471	-0.605599	-0.835239
C60	C	0.905548	-0.510063	-0.867957
C61	C	0.945575	-0.577945	-0.633438
C62	C	0.945560	-0.577980	-0.568001
C63	C	0.865445	-0.442415	-0.567973
C64	C	0.865458	-0.442389	-0.633408
C65	C	0.905526	-0.510152	-0.666137
C66	C	0.905468	-0.510271	-0.139418
C67	C	0.905577	-0.509996	-0.069777
H68	H	0.666964	-0.633574	-0.374687
C69	C	0.538908	-0.652858	-0.386200
H70	H	0.567767	-0.693290	-0.410021
H71	H	0.513445	-0.612304	-0.413536
H72	H	0.513320	-0.699006	-0.362222
H73	H	0.832892	-0.387033	-1.063671
C74	C	0.272650	-0.367698	-0.218258
H75	H	0.316307	-0.377428	-0.223976
H76	H	0.261880	-0.383110	-0.176148
H77	H	0.261968	-0.296485	-0.227508
H78	H	0.465040	-0.494925	-0.199781
H79	H	0.914466	-0.683406	-0.743161
H80	H	0.984893	-0.918857	-0.369216
H81	H	0.896662	-0.336777	-0.861885
C82	C	0.933599	-0.908724	-0.185999
H83	H	0.921932	-0.936627	-0.146440
H84	H	0.932599	-0.833671	-0.184438
H85	H	0.974656	-0.931576	-0.196158
H86	H	0.839642	-0.917552	-0.221575
H87	H	0.832885	-0.387080	-0.944957
C88	C	0.932751	-1.110789	-0.185968
H89	H	0.932882	-1.185917	-0.185809
H90	H	0.919762	-1.085603	-0.146207
H91	H	0.973660	-1.085560	-0.194740
C92	C	0.474597	-0.528168	-0.420713
H93	H	0.518245	-0.526975	-0.412611
H94	H	0.463928	-0.470560	-0.447132
H95	H	0.463864	-0.592756	-0.440684
C96	C	0.821380	-0.367871	-0.531975
H97	H	0.797525	-0.327499	-0.560823
H98	H	0.845352	-0.321681	-0.506462
H99	H	0.794066	-0.408453	-0.506435
C100	C	0.135242	-0.367633	-0.218312
H101	H	0.091587	-0.377342	-0.224055
H102	H	0.146012	-0.296435	-0.227555
H103	H	0.145913	-0.383051	-0.176190
C104	C	0.993846	-1.112270	-0.383121
H105	H	0.962823	-1.157710	-0.400092
H106	H	1.031757	-1.150378	-0.378063
H107	H	1.000528	-1.054415	-0.410668
H108	H	0.838843	-1.099454	-0.222129
C109	C	0.989621	-0.652543	-0.532034
H110	H	1.013488	-0.692886	-0.560900
H111	H	0.965646	-0.698759	-0.506493
H112	H	1.016925	-0.611977	-0.506525
C113	C	0.821407	-0.367814	-0.669377
H114	H	0.797551	-0.327451	-0.640511
H115	H	0.794102	-0.408363	-0.694889
H116	H	0.845393	-0.321602	-0.694916
H117	H	0.896608	-0.336832	-0.743181
H118	H	0.978243	-0.632998	-0.945017
C119	C	0.135269	-0.652774	-0.386313
H120	H	0.091612	-0.643028	-0.380605
H121	H	0.145949	-0.723984	-0.377066
H122	H	0.146044	-0.637358	-0.428425
C123	C	0.989693	-0.652332	-1.073078
H124	H	1.013541	-0.692715	-1.044229
H125	H	1.017005	-0.611769	-1.098625
H126	H	0.965711	-0.698527	-1.098584
C127	C	0.337189	-0.528104	-0.420770
H128	H	0.366077	-0.533177	-0.454374
H129	H	0.311700	-0.467350	-0.426345
H130	H	0.311631	-0.589547	-0.419906
C131	C	0.915885	-0.710643	-0.871224
H132	H	0.918806	-0.767541	-0.842367
H133	H	0.952205	-0.709245	-0.896771
H134	H	0.879971	-0.719957	-0.896728
H135	H	0.346335	-0.494895	-0.199825
C136	C	0.791284	-1.112918	-0.335792
H137	H	0.793055	-1.157531	-0.300102
H138	H	0.775895	-1.151928	-0.370463
H139	H	0.764209	-1.055048	-0.327565
C140	C	0.272684	-0.652825	-0.386263
H141	H	0.316338	-0.643125	-0.380515
H142	H	0.262009	-0.637399	-0.428379
H143	H	0.261918	-0.724033	-0.377026
H144	H	0.548225	-0.387184	-0.229591
C145	C	0.676287	-0.367821	-0.218115
H146	H	0.647427	-0.327384	-0.194298
H147	H	0.701861	-0.321698	-0.242118
H148	H	0.701765	-0.408329	-0.190762
H149	H	0.868177	-0.918449	-0.399567
C150	C	0.872146	-1.111025	-0.417110
H151	H	0.907965	-1.155337	-0.415820
H152	H	0.880114	-1.052403	-0.443728
H153	H	0.837537	-1.149993	-0.432708
C154	C	1.022597	-0.906592	-0.276349
H155	H	1.004323	-0.861450	-0.245927
H156	H	1.052807	-0.868215	-0.299720
H157	H	1.042227	-0.964572	-0.256074
H158	H	0.807865	-0.919387	-0.339381
H159	H	1.007813	-1.099578	-0.283834
H160	H	0.978200	-0.633125	-0.660087
