data_functionalizedCrystal
_audit_creation_method	'MofGen! by Chris Wilmer'
_symmetry_space_group_name_H-M	'P1'
_symmetry_Int_Tables_number	1
_symmetry_cell_setting	triclinic
loop_
_symmetry_equiv_pos_as_xyz
  x,y,z
_cell_length_a	19.805407
_cell_length_b	18.101395
_cell_length_c	19.805399
_cell_angle_alpha	89.974882
_cell_angle_beta	89.980427
_cell_angle_gamma	90.031104
loop_
_atom_site_label
_atom_site_type_symbol
_atom_site_fract_x
_atom_site_fract_y
_atom_site_fract_z
Zn1	Zn	1.034714	-0.294847	-0.382731
Zn2	Zn	1.534714	0.205153	0.117269
Zn3	Zn	1.034619	-0.418690	-0.269548
Zn4	Zn	1.534619	0.081310	0.230452
Zn5	Zn	0.921528	-0.294867	-0.269556
Zn6	Zn	1.421528	0.205133	0.230444
Zn7	Zn	0.921482	-0.418651	-0.382695
Zn8	Zn	1.421482	0.081349	0.117305
O9	O	0.978086	-0.356764	-0.326132
O10	O	1.478086	0.143236	0.173868
O11	O	1.129418	-0.311283	-0.367729
O12	O	1.629418	0.188717	0.132271
O13	O	1.019597	-0.402290	-0.174832
O14	O	1.519597	0.097710	0.325168
O15	O	0.936601	-0.191232	-0.284587
O16	O	1.436601	0.308768	0.215413
O17	O	1.129348	-0.402270	-0.284574
O18	O	1.629348	0.097730	0.215426
O19	O	1.019758	-0.191217	-0.367737
O20	O	1.519758	0.308783	0.132263
O21	O	0.936510	-0.311318	-0.174838
O22	O	1.436510	0.188682	0.325162
O23	O	0.826806	-0.311279	-0.284552
O24	O	1.326806	0.188721	0.215448
O25	O	0.936523	-0.402203	-0.477416
O26	O	1.436523	0.097797	0.022584
O27	O	0.826772	-0.402223	-0.367674
O28	O	1.326772	0.097777	0.132326
O29	O	1.019714	-0.311245	-0.477443
O30	O	1.519714	0.188755	0.022557
O31	O	1.019553	-0.522318	-0.284538
O32	O	1.519553	-0.022318	0.215462
O33	O	0.936432	-0.522289	-0.367667
O34	O	1.436432	-0.022289	0.132333
C35	C	0.802230	-0.356750	-0.326110
C36	C	1.302230	0.143250	0.173890
C37	C	0.726998	-0.356761	-0.326117
C38	C	1.226998	0.143239	0.173883
C39	C	0.691654	-0.404187	-0.369329
C40	C	1.191654	0.095813	0.130671
C41	C	0.620965	-0.404188	-0.369339
C42	C	1.120965	0.095812	0.130661
C43	C	0.585622	-0.356767	-0.326132
C44	C	1.085622	0.143233	0.173868
C45	C	0.620971	-0.309336	-0.282919
C46	C	1.120971	0.190664	0.217081
C47	C	0.691658	-0.309332	-0.282913
C48	C	1.191658	0.190668	0.217087
C49	C	0.335898	-0.309353	-0.282941
C50	C	0.835898	0.190647	0.217059
C51	C	0.265206	-0.309363	-0.282948
C52	C	0.765206	0.190637	0.217052
C53	C	0.265205	-0.404209	-0.369367
C54	C	0.765205	0.095791	0.130633
C55	C	0.335892	-0.404205	-0.369361
C56	C	0.835892	0.095795	0.130639
C57	C	0.371235	-0.356771	-0.326150
C58	C	0.871235	0.143229	0.173850
C59	C	0.447883	-0.356770	-0.326141
C60	C	0.947883	0.143230	0.173859
C61	C	0.508975	-0.356772	-0.326137
C62	C	1.008975	0.143228	0.173863
C63	C	0.977995	-0.549174	-0.326112
C64	C	1.477995	-0.049174	0.173888
C65	C	0.978018	-0.631489	-0.326127
C66	C	1.478018	-0.131489	0.173873
C67	C	0.978167	-0.930579	-0.326163
C68	C	1.478167	-0.430579	0.173837
C69	C	0.925991	-0.899267	-0.378595
C70	C	1.425991	-0.399267	0.121405
C71	C	0.925743	-0.813649	-0.378431
C72	C	1.425743	-0.313649	0.121569
C73	C	0.978093	-0.782197	-0.326146
C74	C	1.478093	-0.282197	0.173854
C75	C	0.958782	-0.813345	-0.254811
C76	C	1.458782	-0.313345	0.245189
C77	C	0.958446	-0.898990	-0.255125
C78	C	1.458446	-0.398990	0.244875
C79	C	1.049768	-0.898924	-0.344438
C80	C	1.549768	-0.398924	0.155562
C81	C	1.049347	-0.813273	-0.346002
C82	C	1.549347	-0.313273	0.153998
C83	C	0.978053	-0.698337	-0.326131
C84	C	1.478053	-0.198337	0.173869
C85	C	0.978206	-1.014439	-0.326173
C86	C	1.478206	-0.514439	0.173827
C87	C	1.154629	-0.356779	-0.326155
C88	C	1.654629	0.143221	0.173845
C89	C	1.229861	-0.356785	-0.326164
C90	C	1.729861	0.143215	0.173836
C91	C	0.978124	-0.356717	-0.502675
C92	C	1.478124	0.143283	-0.002675
C93	C	0.978140	-0.356697	-0.577907
C94	C	1.478140	0.143303	-0.077907
C95	C	0.978195	-0.163602	-0.326167
C96	C	1.478195	0.336398	0.173833
C97	C	0.978242	-0.081288	-0.326182
C98	C	1.478242	0.418712	0.173818
C99	C	1.021458	-0.309333	-0.613266
C100	C	1.521458	0.190667	-0.113266
C101	C	1.021465	-0.309311	-0.683955
C102	C	1.521465	0.190689	-0.183955
C103	C	0.978157	-0.356659	-0.719283
C104	C	1.478157	0.143341	-0.219283
C105	C	0.934834	-0.404025	-0.683919
C106	C	1.434834	0.095975	-0.183919
C107	C	0.934824	-0.404042	-0.613231
C108	C	1.434824	0.095958	-0.113231
C109	C	0.934872	-0.403956	-0.968992
C110	C	1.434872	0.096044	-0.468992
C111	C	0.934887	-0.403937	-1.039684
C112	C	1.434887	0.096063	-0.539684
C113	C	1.021513	-0.309225	-1.039716
C114	C	1.521513	0.190775	-0.539716
C115	C	1.021503	-0.309242	-0.969028
C116	C	1.521503	0.190758	-0.469028
C117	C	0.978178	-0.356606	-0.933670
C118	C	1.478178	0.143394	-0.433670
C119	C	0.978170	-0.356628	-0.857022
C120	C	1.478170	0.143372	-0.357022
C121	C	0.978168	-0.356641	-0.795930
C122	C	1.478168	0.143359	-0.295930
C123	C	0.978087	-0.356757	-0.150276
C124	C	1.478087	0.143243	0.349724
C125	C	0.978202	-0.356568	-0.075045
C126	C	1.478202	0.143432	0.424955
H127	H	0.236431	-0.270742	-0.247765
H128	H	0.736431	0.229258	0.252235
C129	C	1.107103	-0.215704	-0.676886
C130	C	1.607103	0.284296	-0.176886
C131	C	1.069087	-0.257252	-0.722822
C132	C	1.569087	0.242748	-0.222822
H133	H	1.136506	-0.183567	-0.700882
H134	H	1.636506	0.316433	-0.200882
H135	H	1.077628	-0.187379	-0.649316
H136	H	1.577628	0.312621	-0.149316
H137	H	1.132966	-0.247992	-0.649313
H138	H	1.632966	0.252008	-0.149313
H139	H	1.043220	-0.224965	-0.750391
H140	H	1.543220	0.275035	-0.250391
H141	H	1.098565	-0.285579	-0.750403
H142	H	1.598565	0.214421	-0.250403
C143	C	1.030905	-0.209738	-0.533795
C144	C	1.530905	0.290262	-0.033795
C145	C	1.069063	-0.257284	-0.574437
C146	C	1.569063	0.242716	-0.074437
H147	H	1.060295	-0.177606	-0.509822
H148	H	1.560295	0.322394	-0.009822
H149	H	1.001440	-0.181407	-0.561372
H150	H	1.501440	0.318593	-0.061372
H151	H	1.005110	-0.237958	-0.502619
H152	H	1.505110	0.262042	-0.002619
H153	H	1.094854	-0.229064	-0.605616
H154	H	1.594854	0.270936	-0.105616
H155	H	1.098540	-0.285618	-0.546858
H156	H	1.598540	0.214382	-0.046858
H157	H	0.906997	-0.791960	-0.239053
H158	H	1.406997	-0.291960	0.260947
H159	H	0.937825	-0.792587	-0.431325
H160	H	1.437825	-0.292587	0.068675
H161	H	0.995590	-0.792973	-0.214680
H162	H	1.495590	-0.292973	0.285320
H163	H	1.056772	-0.270690	-0.940268
H164	H	1.556772	0.229310	-0.440268
H165	H	0.872670	-0.793225	-0.366326
H166	H	1.372670	-0.293225	0.133674
C167	C	1.059993	-0.267126	-1.148088
C168	C	1.559993	0.232874	-0.648088
C169	C	1.069130	-0.257152	-1.078583
C170	C	1.569130	0.242848	-0.578583
H171	H	1.089387	-0.234976	-1.172081
H172	H	1.589387	0.265024	-0.672081
H173	H	1.069873	-0.316875	-1.159665
H174	H	1.569873	0.183125	-0.659665
H175	H	1.014521	-0.256279	-1.159658
H176	H	1.514521	0.243721	-0.659658
H177	H	1.114601	-0.268004	-1.067013
H178	H	1.614601	0.231996	-0.567013
H179	H	1.059254	-0.207391	-1.067002
H180	H	1.559254	0.292609	-0.567002
H181	H	0.899617	-0.442494	-1.068446
H182	H	1.399617	0.057506	-0.568446
H183	H	0.994801	-0.919706	-0.214727
H184	H	1.494801	-0.419706	0.285273
C185	C	0.328788	-0.215599	-0.197521
C186	C	0.828788	0.284401	0.302479
C187	C	0.374741	-0.257216	-0.235443
C188	C	0.874741	0.242784	0.264557
H189	H	0.352772	-0.183413	-0.168195
H190	H	0.852772	0.316587	0.331805
H191	H	0.301242	-0.187323	-0.227060
H192	H	0.801242	0.312677	0.272940
H193	H	0.301195	-0.247839	-0.171580
H194	H	0.801195	0.252161	0.328420
H195	H	0.402331	-0.224976	-0.261388
H196	H	0.902331	0.275024	0.238612
H197	H	0.402299	-0.285494	-0.205900
H198	H	0.902299	0.214506	0.294100
C199	C	0.820203	-0.440080	-0.705656
C200	C	1.320203	0.059920	-0.205656
C201	C	0.887227	-0.456070	-0.722749
C202	C	1.387227	0.043930	-0.222749
H203	H	0.790814	-0.472211	-0.729631
H204	H	1.290814	0.027789	-0.229631
H205	H	0.814002	-0.446870	-0.658503
H206	H	1.314002	0.053130	-0.158503
H207	H	0.810336	-0.390317	-0.717254
H208	H	1.310336	0.109683	-0.217254
H209	H	0.897095	-0.505832	-0.711147
H210	H	1.397095	-0.005832	-0.211147
H211	H	0.893431	-0.449286	-0.769913
H212	H	1.393431	0.050714	-0.269913
C213	C	0.846158	-0.865117	-0.221553
C214	C	1.346158	-0.365117	0.278447
C215	C	0.887788	-0.926053	-0.234234
C216	C	1.387788	-0.426053	0.265766
H217	H	0.802535	-0.881823	-0.208661
H218	H	1.302535	-0.381823	0.291339
H219	H	0.865001	-0.836336	-0.186166
H220	H	1.365001	-0.336336	0.313834
H221	H	0.842697	-0.835871	-0.261237
H222	H	1.342697	-0.335871	0.238763
H223	H	0.891254	-0.955295	-0.194548
H224	H	1.391254	-0.455295	0.305452
H225	H	0.868941	-0.954846	-0.269623
H226	H	1.368941	-0.454846	0.230377
C227	C	0.999177	-0.972615	-0.448163
C228	C	1.499177	-0.472615	0.051837
C229	C	0.942127	-0.927015	-0.450233
C230	C	1.442127	-0.427015	0.049767
H231	H	1.009135	-0.989754	-0.492390
H232	H	1.509135	-0.489754	0.007610
H233	H	1.036530	-0.945409	-0.431233
H234	H	1.536530	-0.445409	0.068767
H235	H	0.990550	-1.013615	-0.419468
H236	H	1.490550	-0.513615	0.080532
H237	H	0.950756	-0.886012	-0.478924
H238	H	1.450756	-0.386012	0.021076
H239	H	0.904766	-0.954222	-0.467171
H240	H	1.404766	-0.454222	0.032829
H241	H	1.067374	-0.920474	-0.395569
H242	H	1.567374	-0.420474	0.104431
H243	H	0.899604	-0.442533	-0.940212
H244	H	1.399604	0.057467	-0.440212
C245	C	1.078683	-0.846463	-0.459640
C246	C	1.578683	-0.346463	0.040360
C247	C	1.068981	-0.785801	-0.416885
C248	C	1.568981	-0.285801	0.083115
H249	H	1.090789	-0.829504	-0.503406
H250	H	1.590789	-0.329504	-0.003406
H251	H	1.113747	-0.876738	-0.442210
H252	H	1.613747	-0.376738	0.057790
H253	H	1.038088	-0.874282	-0.462310
H254	H	1.538088	-0.374282	0.037690
H255	H	1.109578	-0.757986	-0.414212
H256	H	1.609578	-0.257986	0.085788
H257	H	1.033915	-0.755514	-0.434320
H258	H	1.533915	-0.255514	0.065680
C259	C	0.800010	-0.446301	-0.407692
C260	C	1.300010	0.053699	0.092308
C261	C	0.730501	-0.456315	-0.416823
C262	C	1.230501	0.043685	0.083177
H263	H	0.823989	-0.478486	-0.437013
H264	H	1.323989	0.021514	0.062987
H265	H	0.811617	-0.396562	-0.417678
H266	H	1.311617	0.103438	0.082322
H267	H	0.811564	-0.457076	-0.362195
H268	H	1.311564	0.042924	0.137805
H269	H	0.718946	-0.445535	-0.462319
H270	H	1.218946	0.054465	0.037681
H271	H	0.718889	-0.506065	-0.406842
H272	H	1.218889	-0.006065	0.093158
H273	H	0.899543	-0.442604	-0.584443
H274	H	1.399543	0.057396	-0.084443
C275	C	1.075516	-0.737874	-0.249790
C276	C	1.575516	-0.237874	0.250210
C277	C	1.104606	-0.784369	-0.298208
C278	C	1.604606	-0.284369	0.201792
H279	H	1.109630	-0.720035	-0.220279
H280	H	1.609630	-0.220035	0.279721
H281	H	1.054314	-0.697380	-0.271703
H282	H	1.554314	-0.197380	0.228297
H283	H	1.042883	-0.764682	-0.224545
H284	H	1.542883	-0.264682	0.275455
H285	H	1.137236	-0.757560	-0.323456
H286	H	1.637236	-0.257560	0.176544
H287	H	1.125819	-0.824870	-0.276294
H288	H	1.625819	-0.324870	0.223706
H289	H	0.592189	-0.270722	-0.247742
H290	H	1.092189	0.229278	0.252258
C291	C	0.830286	-0.968568	-0.417684
C292	C	1.330286	-0.468568	0.082316
C293	C	0.854780	-0.928406	-0.362461
C294	C	1.354780	-0.428406	0.137539
H295	H	0.786326	-0.986562	-0.407718
H296	H	1.286326	-0.486562	0.092282
H297	H	0.828380	-0.937395	-0.456225
H298	H	1.328380	-0.437395	0.043775
H299	H	0.859538	-1.008991	-0.426550
H300	H	1.359538	-0.508991	0.073450
H301	H	0.825530	-0.887980	-0.353598
H302	H	1.325530	-0.387980	0.146402
H303	H	0.856682	-0.959581	-0.323908
H304	H	1.356682	-0.459581	0.176092
C305	C	0.628065	-0.497963	-0.454741
C306	C	1.128065	0.002037	0.045259
C307	C	0.582115	-0.456332	-0.416828
C308	C	1.082115	0.043668	0.083172
H309	H	0.604079	-0.530161	-0.484054
H310	H	1.104079	-0.030161	0.015946
H311	H	0.655656	-0.465738	-0.480688
H312	H	1.155656	0.034262	0.019312
H313	H	0.655615	-0.526234	-0.425190
H314	H	1.155615	-0.026234	0.074810
H315	H	0.554569	-0.428057	-0.446378
H316	H	1.054569	0.071943	0.053622
H317	H	0.554513	-0.488561	-0.390878
H318	H	1.054513	0.011439	0.109122
C319	C	0.357692	-0.440435	-0.483913
C320	C	0.857692	0.059565	0.016087
C321	C	0.374741	-0.456328	-0.416857
C322	C	0.874741	0.043672	0.083143
H323	H	0.381678	-0.472610	-0.513236
H324	H	0.881678	0.027390	-0.013236
H325	H	0.310540	-0.447229	-0.490096
H326	H	0.810540	0.052771	0.009904
H327	H	0.369305	-0.390687	-0.493886
H328	H	0.869305	0.109313	0.006114
H329	H	0.363123	-0.506074	-0.406882
H330	H	0.863123	-0.006074	0.093118
H331	H	0.421903	-0.449540	-0.410671
H332	H	0.921903	0.050460	0.089329
C333	C	0.156846	-0.446332	-0.407762
C334	C	0.656846	0.053668	0.092238
C335	C	0.226354	-0.456342	-0.416874
C336	C	0.726354	0.043658	0.083126
H337	H	0.132864	-0.478514	-0.437093
H338	H	0.632864	0.021486	0.062907
H339	H	0.145238	-0.457106	-0.362275
H340	H	0.645238	0.042894	0.137725
H341	H	0.145295	-0.396587	-0.417752
H342	H	0.645295	0.103413	0.082248
H343	H	0.237906	-0.506086	-0.406879
H344	H	0.737906	-0.006086	0.093121
H345	H	0.237966	-0.445573	-0.462371
H346	H	0.737966	0.054427	0.037629
H347	H	1.088641	-0.919172	-0.306250
H348	H	1.588641	-0.419172	0.193750
H349	H	0.720435	-0.270709	-0.247729
H350	H	1.220435	0.229291	0.252271
