data_functionalizedCrystal
_audit_creation_method	'MofGen! by Chris Wilmer'
_symmetry_space_group_name_H-M	'P1'
_symmetry_Int_Tables_number	1
_symmetry_cell_setting	triclinic
loop_
_symmetry_equiv_pos_as_xyz
  x,y,z
_cell_length_a	14.560438
_cell_length_b	14.560438
_cell_length_c	14.560438
_cell_angle_alpha	60.000069
_cell_angle_beta	90.000986
_cell_angle_gamma	60.001166
loop_
_atom_site_label
_atom_site_type_symbol
_atom_site_fract_x
_atom_site_fract_y
_atom_site_fract_z
Zr1	Zr	0.884754	1.005292	-0.120493
O2	O	0.738108	1.196893	-0.267140
O3	O	0.929709	0.813691	-0.075540
O4	O	0.929709	1.005295	-0.267141
O5	O	0.738109	1.005286	0.075601
O6	O	1.080847	1.005298	-0.267139
O7	O	0.738108	1.005289	-0.075540
O8	O	1.080847	0.662553	0.075600
O9	O	0.738109	1.348031	-0.267138
O10	O	1.061675	0.892501	-0.056364
O11	O	0.948882	0.892497	0.056429
O12	O	0.948882	1.118087	-0.169156
O13	O	0.836090	1.118083	-0.056363
Zr14	Zr	1.125803	1.005292	0.120563
Zr15	Zr	1.125802	1.005296	-0.120489
Zr16	Zr	0.884755	1.005288	0.120559
Zr17	Zr	0.884755	1.246340	-0.120488
Zr18	Zr	1.125802	0.764244	0.120559
O19	O	1.080848	1.196893	0.075610
O20	O	1.080848	1.196899	-0.267135
O21	O	0.738109	1.196887	0.075605
O22	O	1.272449	0.813691	0.267211
O23	O	1.272448	0.813697	-0.075535
O24	O	0.929709	0.813685	0.267205
O25	O	1.272449	1.005298	-0.075531
O26	O	1.080848	1.005289	0.267211
O27	O	0.929710	1.005286	0.267209
O28	O	1.272449	1.005295	0.075610
O29	O	0.929710	1.348034	-0.267135
O30	O	1.080847	0.662550	0.267205
O31	O	1.272448	0.662553	0.267208
O32	O	1.272448	0.662557	0.075603
O33	O	0.738109	1.348027	-0.075533
O34	O	0.929710	1.348031	-0.075530
O35	O	1.061675	0.892497	0.169226
O36	O	1.174468	0.892501	0.056433
O37	O	1.061675	1.118086	-0.056359
O38	O	0.948882	1.118083	0.056434
C39	C	1.005278	0.703778	0.000029
C40	C	1.005278	0.601447	0.000027
C41	C	1.064152	0.553373	-0.058849
C42	C	1.064156	0.457214	-0.058839
C43	C	0.946403	0.457215	0.058927
C44	C	0.946406	0.553366	0.058922
C45	C	0.703764	1.005287	0.000030
C46	C	0.601433	1.005285	0.000029
C47	C	0.612231	0.887534	0.058905
C48	C	0.516076	0.887540	0.058915
C49	C	0.398328	1.123059	-0.058836
C50	C	0.494482	1.123051	-0.058839
C51	C	0.680211	0.751559	0.126884
C52	C	0.584056	0.751565	0.126894
C53	C	1.306793	1.005297	0.000040
C54	C	1.409124	1.005299	0.000042
C55	C	1.005278	1.005297	-0.301485
C56	C	1.005278	1.005299	-0.403818
C57	C	1.005279	1.306806	0.000041
C58	C	1.005279	1.409137	0.000043
C59	C	1.088541	1.005302	-0.451892
C60	C	1.088544	1.005290	-0.548038
C61	C	0.922012	1.005278	-0.548029
C62	C	0.922014	1.005281	-0.451880
C63	C	1.005279	1.005287	0.301555
C64	C	1.005279	1.005285	0.403888
C65	C	1.306792	0.703783	0.000034
C66	C	1.409123	0.601454	0.000034
C67	C	1.005278	0.703773	0.301549
C68	C	1.005278	0.601440	0.403880
C69	C	1.306793	0.703778	0.301554
C70	C	1.409124	0.601447	0.403887
C71	C	0.703764	1.306806	-0.301484
C72	C	0.601433	1.409137	-0.403816
C73	C	0.703765	1.306801	0.000036
C74	C	0.601434	1.409130	0.000036
C75	C	1.005279	1.306811	-0.301479
C76	C	1.005279	1.409144	-0.403810
C77	C	1.398325	0.553377	-0.058842
C78	C	1.494480	0.457236	-0.058846
C79	C	1.612228	0.457253	0.058911
C80	C	1.516074	0.553399	0.058908
C81	C	1.064154	0.553362	0.510834
C82	C	1.064141	0.457218	0.606981
C83	C	0.946375	0.457236	0.489206
C84	C	0.946382	0.553384	0.393062
C85	C	1.516076	0.553371	0.393089
C86	C	1.612223	0.457229	0.489245
C87	C	1.494452	0.457242	0.606994
C88	C	1.398308	0.553389	0.510838
H89	H	1.112099	0.418073	-0.106780
H90	H	1.524888	0.592499	0.306007
C91	C	0.881613	0.606272	0.275401
N92	N	0.832829	0.646108	0.186781
C93	C	1.180148	1.005277	-0.600908
N94	N	1.249152	1.005260	-0.640726
C95	C	0.482597	1.252586	-0.123604
N96	N	0.473642	1.350157	-0.172391
C97	C	1.180141	1.005306	-0.399019
N98	N	1.249141	1.005304	-0.359194
H99	H	0.311239	1.218940	-0.106765
C100	C	0.750737	0.681024	0.248504
N101	N	0.803856	0.627900	0.340107
H102	H	0.854218	1.005266	-0.587173
C103	C	1.729880	0.404373	0.123679
N104	N	1.818495	0.364541	0.172468
C105	C	1.527958	0.606286	0.123680
N106	N	1.536906	0.646123	0.172463
H107	H	1.311244	0.592512	-0.106793
C108	C	0.830370	1.005365	-0.399038
N109	N	0.761333	1.005456	-0.359252
H110	H	0.731118	0.709375	0.082017
H111	H	1.112106	0.592491	0.519649
H112	H	0.898471	0.418057	0.106876
H113	H	0.898463	0.592507	0.106872
H114	H	1.485677	0.418097	-0.106791
H115	H	0.584050	0.699369	0.089066
C116	C	0.881601	0.404357	0.477319
N117	N	0.832816	0.364526	0.468363
C118	C	1.128916	0.404330	0.724631
N119	N	1.177708	0.364494	0.813247
C120	C	1.280650	0.606285	0.522721
N121	N	1.192031	0.646131	0.531668
H122	H	1.485660	0.418100	0.694083
C123	C	1.128923	0.606248	-0.123624
N124	N	1.177715	0.646067	-0.172411
C125	C	0.572280	0.694547	0.244503
N126	N	0.563409	0.651601	0.333085
H127	H	1.699306	0.418090	0.480446
