data_functionalizedCrystal
_audit_creation_method	'MofGen! by Chris Wilmer'
_symmetry_space_group_name_H-M	'P1'
_symmetry_Int_Tables_number	1
_symmetry_cell_setting	triclinic
loop_
_symmetry_equiv_pos_as_xyz
  x,y,z
_cell_length_a	12.759395
_cell_length_b	16.120484
_cell_length_c	12.759395
_cell_angle_alpha	87.115561
_cell_angle_beta	90.005123
_cell_angle_gamma	92.926975
loop_
_atom_site_label
_atom_site_type_symbol
_atom_site_fract_x
_atom_site_fract_y
_atom_site_fract_z
Zn1	Zn	1.584810	-0.332013	0.615178
Zn2	Zn	1.575806	-0.471399	0.448387
Zn3	Zn	1.409156	-0.332006	0.439514
Zn4	Zn	1.400159	-0.471393	0.624026
O5	O	1.492483	-0.401703	0.531776
O6	O	1.730636	-0.350509	0.593063
O7	O	1.553696	-0.452908	0.300189
O8	O	1.439990	-0.215339	0.455400
O9	O	1.724021	-0.452915	0.470523
O10	O	1.569042	-0.215344	0.584459
O11	O	1.431259	-0.350496	0.293670
O12	O	1.260942	-0.350490	0.463980
O13	O	1.424657	-0.452904	0.769873
O14	O	1.254332	-0.452897	0.599540
O15	O	1.560319	-0.350502	0.763373
O16	O	1.544973	-0.588066	0.479103
O17	O	1.415926	-0.588061	0.608144
C18	C	1.219516	-0.401692	0.531758
C19	C	1.102738	-0.401708	0.531776
C20	C	1.478524	-0.618314	0.545569
C21	C	1.472649	-0.710982	0.551505
C22	C	1.095883	-0.508517	0.672728
C23	C	1.037594	-0.561928	0.743208
C24	C	0.927872	-0.561938	0.743221
C25	C	0.876436	-0.508530	0.672750
C26	C	0.934725	-0.455119	0.602270
C27	C	1.044450	-0.455116	0.602262
C28	C	0.941581	-0.348307	0.461325
C29	C	1.051303	-0.348300	0.461304
C30	C	0.890145	-0.294899	0.390853
C31	C	0.948434	-0.241491	0.320367
C32	C	1.058163	-0.241483	0.320356
C33	C	1.109592	-0.294889	0.390825
C34	C	1.461928	-0.880646	0.562363
C35	C	1.523225	-0.921919	0.501207
C36	C	1.517260	-1.016326	0.507249
C37	C	1.467892	-0.786230	0.556323
C38	C	1.766515	-0.401713	0.531796
C39	C	1.883292	-0.401718	0.531804
C40	C	1.492488	-0.401703	0.805810
C41	C	1.492491	-0.401703	0.922587
C42	C	1.506524	-0.184245	0.517953
C43	C	1.512508	-0.091578	0.512062
C44	C	1.633765	-0.295079	0.915838
C45	C	1.704401	-0.241772	0.967324
C46	C	1.704397	-0.241774	1.077046
C47	C	1.633747	-0.295089	1.135284
C48	C	1.563110	-0.348397	1.083797
C49	C	1.563124	-0.348390	0.974073
C50	C	1.421833	-0.455015	1.090546
C51	C	1.421841	-0.455018	0.980825
C52	C	1.351183	-0.508329	1.148784
C53	C	1.280550	-0.561643	1.097298
C54	C	1.280557	-0.561639	0.987569
C55	C	1.351204	-0.508326	0.929338
C56	C	1.492469	-0.401717	1.258810
C57	C	1.492470	-0.401707	1.142033
H58	H	1.185224	-0.508520	0.672717
H59	H	1.580182	-0.886351	0.444311
F60	F	1.387483	-0.927132	0.636723
H61	H	1.351181	-0.508325	1.238125
H62	H	0.906546	-0.198006	0.263000
F63	F	0.865835	-0.618779	0.818238
H64	H	1.633784	-0.295080	0.826497
H65	H	1.761921	-0.198363	0.919895
F66	F	1.120190	-0.184631	0.245345
F67	F	0.773369	-0.294906	0.390875
H68	H	1.761909	-0.198361	1.118966
H69	H	1.079485	-0.605411	0.800586
F70	F	1.633738	-0.295082	1.252059
H71	H	1.198933	-0.294890	0.390820
F72	F	1.205362	-0.618373	1.159283
H73	H	1.223026	-0.605040	0.945655
F74	F	1.351223	-0.508321	0.812562
H75	H	0.787095	-0.508536	0.672776
