data_functionalizedCrystal
_audit_creation_method	'MofGen! by Chris Wilmer'
_symmetry_space_group_name_H-M	'P1'
_symmetry_Int_Tables_number	1
_symmetry_cell_setting	triclinic
loop_
_symmetry_equiv_pos_as_xyz
  x,y,z
_cell_length_a	29.839131
_cell_length_b	19.805407
_cell_length_c	19.805399
_cell_angle_alpha	90.019573
_cell_angle_beta	89.970435
_cell_angle_gamma	89.958580
loop_
_atom_site_label
_atom_site_type_symbol
_atom_site_fract_x
_atom_site_fract_y
_atom_site_fract_z
Zn1	Zn	-0.178864	-1.034665	-0.382710
Zn2	Zn	-0.253991	-1.034550	-0.269518
Zn3	Zn	-0.178876	-0.921480	-0.269535
Zn4	Zn	-0.253967	-0.921414	-0.382665
O5	O	-0.216425	-0.978027	-0.326107
O6	O	-0.188834	-1.129366	-0.367707
O7	O	-0.244042	-1.019531	-0.174804
O8	O	-0.116007	-0.936570	-0.284574
O9	O	-0.244030	-1.129282	-0.284545
O10	O	-0.115998	-1.019727	-0.367723
O11	O	-0.188856	-0.936458	-0.174816
O12	O	-0.188832	-0.826754	-0.284530
O13	O	-0.243990	-0.936457	-0.477388
O14	O	-0.244002	-0.826706	-0.367646
O15	O	-0.188811	-1.019662	-0.477421
O16	O	-0.316855	-1.019467	-0.284501
O17	O	-0.316838	-0.936346	-0.367630
C18	C	-0.216416	-0.802171	-0.326085
C19	C	-0.216423	-0.726939	-0.326092
C20	C	-0.333147	-0.977905	-0.326073
C21	C	-0.383082	-0.977915	-0.326082
C22	C	-0.216396	-0.978065	-0.502650
C23	C	-0.216384	-0.978081	-0.577882
C24	C	-0.692722	-1.021387	-0.282885
C25	C	-0.880395	-1.021471	-0.282912
O26	O	-0.904656	-1.058335	-0.246159
N27	N	-0.903867	-0.978168	-0.326158
C28	C	-0.880418	-0.934844	-0.369404
O29	O	-0.904688	-0.898019	-0.406194
C30	C	-0.692746	-0.934764	-0.369381
C31	C	-0.669276	-0.978065	-0.326127
C32	C	-0.669252	-1.064685	-0.239635
C33	C	-0.622336	-1.064661	-0.239626
C34	C	-0.598891	-1.021339	-0.282868
C35	C	-0.622360	-0.978041	-0.326118
C36	C	-0.669297	-0.891444	-0.412630
C37	C	-0.622376	-0.891429	-0.412621
C38	C	-0.598907	-0.934730	-0.369367
C39	C	-0.551999	-0.934695	-0.369351
N40	N	-0.528527	-0.977998	-0.326104
C41	C	-0.551973	-1.021320	-0.282863
C42	C	-0.978948	-0.934888	-0.369412
C43	C	-1.025866	-0.934907	-0.369418
C44	C	-1.025840	-1.021534	-0.282926
C45	C	-0.978921	-1.021512	-0.282918
C46	C	-0.955476	-0.978191	-0.326166
C47	C	-0.453447	-1.021266	-0.282847
C48	C	-0.406527	-1.021237	-0.282840
C49	C	-0.406558	-0.934611	-0.369334
C50	C	-0.453473	-0.934638	-0.369339
C51	C	-0.476917	-0.977971	-0.326093
O52	O	-0.527708	-0.897855	-0.406090
O53	O	-0.527694	-1.058150	-0.246090
C54	C	-0.739637	-1.021411	-0.282894
C55	C	-0.763107	-0.978113	-0.326144
C56	C	-0.739661	-0.934791	-0.369386
C57	C	-0.810025	-0.978132	-0.326149
C58	C	-0.833470	-1.021454	-0.282908
C59	C	-0.809998	-1.064757	-0.239661
C60	C	-0.763083	-1.064733	-0.239653
C61	C	-0.763133	-0.891488	-0.412632
C62	C	-0.810049	-0.891515	-0.412637
C63	C	-0.833494	-0.934837	-0.369395
C64	C	-0.099246	-0.978168	-0.326156
C65	C	-0.049312	-0.978228	-0.326176
C66	C	-0.216434	-1.154570	-0.326129
C67	C	-0.216437	-1.229802	-0.326139
C68	C	-0.245193	-0.691587	-0.369300
C69	C	-0.245194	-0.620899	-0.369310
C70	C	-0.216427	-0.585564	-0.326107
C71	C	-0.187654	-0.620920	-0.282897
C72	C	-0.187651	-0.691607	-0.282891
C73	C	-0.187664	-0.335847	-0.282919
C74	C	-0.187669	-0.265155	-0.282927
C75	C	-0.245207	-0.265139	-0.369338
C76	C	-0.245204	-0.335826	-0.369332
C77	C	-0.216429	-0.371176	-0.326125
C78	C	-0.216428	-0.447825	-0.326116
C79	C	-0.216430	-0.508916	-0.326112
C80	C	-0.187652	-1.021407	-0.613244
C81	C	-0.187638	-1.021414	-0.683933
C82	C	-0.216361	-0.978098	-0.719258
C83	C	-0.245095	-0.934767	-0.683890
C84	C	-0.245105	-0.934757	-0.613203
C85	C	-0.245053	-0.934806	-0.968963
C86	C	-0.245041	-0.934820	-1.039656
C87	C	-0.187586	-1.021462	-1.039694
C88	C	-0.187597	-1.021453	-0.969006
C89	C	-0.216329	-0.978120	-0.933645
C90	C	-0.216342	-0.978112	-0.856997
C91	C	-0.216350	-0.978109	-0.795905
C92	C	-0.216420	-0.978028	-0.150251
C93	C	-0.216306	-0.978143	-0.075019
H94	H	-0.472529	-1.056554	-0.247634
H95	H	-1.044971	-0.899640	-0.404633
C96	C	-0.156035	-1.069076	-0.722829
H97	H	-0.138935	-1.094878	-0.691667
H98	H	-0.136453	-1.043216	-0.750407
H99	H	-0.173222	-1.098551	-0.750402
C100	C	-0.737349	-0.843826	-0.460195
H101	H	-0.758051	-0.818038	-0.485944
H102	H	-0.719014	-0.869681	-0.489712
H103	H	-0.719081	-0.814337	-0.434265
H104	H	-0.164229	-0.592145	-0.247723
C105	C	-0.276648	-0.887128	-0.930075
H106	H	-0.293751	-0.861333	-0.961239
H107	H	-0.259455	-0.857657	-0.902511
H108	H	-0.296234	-0.912977	-0.902487
C109	C	-0.835792	-1.112411	-0.192096
H110	H	-0.815098	-1.138197	-0.166330
H111	H	-0.854065	-1.141891	-0.218022
H112	H	-0.854125	-1.086539	-0.162583
H113	H	-0.164221	-0.720390	-0.247710
H114	H	-0.164264	-1.056683	-0.584488
C115	C	-0.276839	-0.226254	-0.416898
H116	H	-0.293970	-0.257424	-0.442628
H117	H	-0.259667	-0.198723	-0.446433
H118	H	-0.296399	-0.198636	-0.390973
C119	C	-0.276722	-0.887116	-0.574304
H120	H	-0.293833	-0.861328	-0.605465
H121	H	-0.259549	-0.857637	-0.546722
H122	H	-0.296301	-0.912998	-0.546734
H123	H	-0.959863	-0.899609	-0.404631
C124	C	-0.156001	-1.069098	-0.930153
H125	H	-0.138883	-1.094898	-0.961338
H126	H	-0.173189	-1.098564	-0.902574
H127	H	-0.136428	-1.043218	-0.902584
C128	C	-0.155977	-1.069126	-1.078590
H129	H	-0.138877	-1.094926	-1.047427
H130	H	-0.136395	-1.043265	-1.106168
H131	H	-0.173163	-1.098601	-1.106162
C132	C	-0.276634	-0.887165	-1.078512
H133	H	-0.293744	-0.861351	-1.047328
H134	H	-0.296207	-0.913035	-1.106083
H135	H	-0.259437	-0.857702	-1.106088
H136	H	-0.268622	-0.592119	-0.404494
C137	C	-0.953109	-1.069147	-0.235344
H138	H	-0.973796	-1.094951	-0.209597
H139	H	-0.934833	-1.043271	-0.205825
H140	H	-0.934779	-1.098621	-0.261266
H141	H	-0.268620	-0.720352	-0.404479
C142	C	-0.276689	-0.887121	-0.722745
H143	H	-0.272572	-0.893337	-0.769909
H144	H	-0.270115	-0.841650	-0.711156
H145	H	-0.306878	-0.896994	-0.711147
H146	H	-0.164241	-0.236387	-0.247745
H147	H	-0.387420	-1.056497	-0.247615
H148	H	-0.688336	-1.099967	-0.204423
C149	C	-0.596526	-1.112301	-0.192055
H150	H	-0.617214	-1.138107	-0.166312
H151	H	-0.578250	-1.086428	-0.162532
H152	H	-0.578195	-1.141773	-0.217978
H153	H	-0.688398	-0.856180	-0.447849
H154	H	-1.044937	-1.056809	-0.247717
H155	H	-0.472583	-0.899381	-0.404562
C156	C	-0.596590	-0.843775	-0.460196
H157	H	-0.617290	-0.817990	-0.485952
H158	H	-0.578257	-0.869641	-0.489708
H159	H	-0.578319	-0.814284	-0.434274
C160	C	-0.276846	-0.374691	-0.416857
H161	H	-0.293978	-0.343512	-0.442598
H162	H	-0.296397	-0.402238	-0.390913
H163	H	-0.259680	-0.402293	-0.446395
C164	C	-0.380762	-0.886964	-0.416899
H165	H	-0.349458	-0.893161	-0.410702
H166	H	-0.388482	-0.841494	-0.406961
H167	H	-0.388424	-0.896856	-0.462389
H168	H	-0.743977	-1.099993	-0.204431
C169	C	-0.156021	-0.374724	-0.235381
H170	H	-0.138895	-0.343553	-0.209646
H171	H	-0.136465	-0.402333	-0.261315
H172	H	-0.173186	-0.402265	-0.205839
H173	H	-0.829154	-0.856248	-0.447859
