data_functionalizedCrystal
_audit_creation_method	'MofGen! by Chris Wilmer'
_symmetry_space_group_name_H-M	'P1'
_symmetry_Int_Tables_number	1
_symmetry_cell_setting	triclinic
loop_
_symmetry_equiv_pos_as_xyz
  x,y,z
_cell_length_a	10.967926
_cell_length_b	17.038272
_cell_length_c	10.065875
_cell_angle_alpha	99.426590
_cell_angle_beta	93.120479
_cell_angle_gamma	87.839574
loop_
_atom_site_label
_atom_site_type_symbol
_atom_site_fract_x
_atom_site_fract_y
_atom_site_fract_z
O1	O	1.626878	0.136749	0.269136
O2	O	2.126878	0.636749	0.769136
O3	O	1.277063	0.138988	0.186859
O4	O	1.777063	0.638988	0.686859
O5	O	1.449890	0.023993	0.227519
O6	O	1.949890	0.523993	0.727519
O7	O	1.454051	0.251744	0.228476
O8	O	1.954051	0.751744	0.728476
O9	O	1.416943	0.046013	0.446756
O10	O	1.916943	0.546013	0.946756
O11	O	1.244116	0.161008	0.406097
O12	O	1.744116	0.661008	0.906097
O13	O	1.593931	0.158769	0.488374
O14	O	2.093931	0.658769	0.988374
Zn15	Zn	1.413793	0.163385	0.482044
Zn16	Zn	1.913793	0.663385	0.982044
Zn17	Zn	1.457201	0.134372	0.193189
Zn18	Zn	1.957201	0.634372	0.693189
O19	O	1.421104	0.273764	0.447714
O20	O	1.921104	0.773764	0.947714
C21	C	1.215609	0.148171	0.285898
C22	C	1.715609	0.648171	0.785898
C23	C	1.081581	0.142719	0.254375
C24	C	1.581581	0.642719	0.754375
C25	C	1.429634	0.005764	0.336248
C26	C	1.929634	0.505764	0.836248
C27	C	1.418351	-0.081360	0.333594
C28	C	1.918351	0.418640	0.833594
C29	C	1.004760	0.151695	0.353893
C30	C	1.504760	0.651695	0.853893
C31	C	0.866235	0.146059	0.321314
C32	C	1.366235	0.646059	0.821314
C33	C	1.521945	-0.128434	0.357961
C34	C	2.021945	0.371566	0.857961
C35	C	1.511337	-0.210297	0.355453
C36	C	2.011337	0.289703	0.855453
C37	C	1.397135	-0.245084	0.328587
C38	C	1.897135	0.254916	0.828587
C39	C	1.293534	-0.198004	0.304215
C40	C	1.793534	0.301996	0.804215
C41	C	1.304144	-0.116143	0.306714
C42	C	1.804144	0.383857	0.806714
C43	C	1.359654	-0.491944	0.319753
C44	C	1.859654	0.008056	0.819753
C45	C	1.349051	-0.573810	0.317260
C46	C	1.849051	-0.073810	0.817260
C47	C	1.566856	-0.586098	0.368496
C48	C	2.066856	-0.086098	0.868496
C49	C	1.577454	-0.504235	0.371000
C50	C	2.077454	-0.004235	0.871000
C51	C	1.473855	-0.457163	0.346621
C52	C	1.973855	0.042837	0.846621
C53	C	1.386289	-0.328761	0.326028
C54	C	1.886289	0.171239	0.826028
C55	C	1.484703	-0.373488	0.349171
C56	C	1.984703	0.126512	0.849171
C57	C	1.655385	0.149585	0.389331
C58	C	2.155385	0.649585	0.889331
C59	C	1.789414	0.155037	0.420846
C60	C	2.289414	0.655037	0.920846
C61	C	1.441360	0.291993	0.338982
C62	C	1.941360	0.791993	0.838982
C63	C	1.452644	0.379116	0.341627
C64	C	1.952644	0.879116	0.841627
N65	N	1.384177	0.183185	0.679182
N66	N	1.884177	0.683185	1.179182
N67	N	1.486826	0.114566	-0.003947
N68	N	1.986826	0.614566	0.496053
C69	C	1.446889	0.141256	0.761714
C70	C	1.946889	0.641256	1.261714
C71	C	1.424105	0.156501	0.913522
C72	C	1.924105	0.656501	1.413522
H73	H	0.829456	0.134200	0.211988
H74	H	1.329456	0.634200	0.711988
O75	O	1.540347	0.078753	0.706450
O76	O	2.040347	0.578753	1.206450
H77	H	1.582813	0.050353	0.789997
H78	H	2.082813	0.550353	1.289997
O79	O	1.290716	0.245690	0.734435
O80	O	1.790716	0.745690	1.234435
H81	H	1.287495	0.247860	0.845001
H82	H	1.787495	0.747860	1.345001
H83	H	1.044797	0.130860	0.145056
H84	H	1.544797	0.630860	0.645056
O85	O	0.838111	0.170748	0.565668
O86	O	1.338111	0.670748	1.065668
H87	H	0.939271	0.172716	0.568534
H88	H	1.439271	0.672716	1.068534
O89	O	1.645123	-0.090916	0.386924
O90	O	2.145123	0.409084	0.886924
H91	H	1.715377	-0.137408	0.403429
H92	H	2.215377	0.362592	0.903429
H93	H	1.275295	-0.453627	0.299902
H94	H	1.775295	0.046373	0.799902
H95	H	1.595694	-0.248622	0.375298
H96	H	2.095694	0.251378	0.875298
H97	H	1.557384	0.067377	0.954332
H98	H	2.057384	0.567377	1.454332
O99	O	1.053474	0.167408	0.498702
O100	O	1.553474	0.667408	0.998702
H101	H	1.026048	0.119085	0.551628
H102	H	1.526048	0.619085	1.051628
O103	O	1.330646	0.219016	0.968761
O104	O	1.830646	0.719016	1.468761
H105	H	1.259120	0.190680	1.017070
H106	H	1.759120	0.690680	1.517070
O107	O	1.700635	-0.466717	0.399944
O108	O	2.200635	0.033283	0.899944
H109	H	1.770893	-0.513207	0.416447
H110	H	2.270893	-0.013207	0.916447
H111	H	1.651201	-0.624433	0.388342
H112	H	2.151201	-0.124433	0.888342
O113	O	1.225872	-0.611336	0.288268
O114	O	1.725872	-0.111336	0.788268
H115	H	1.155616	-0.564854	0.271720
H116	H	1.655616	-0.064854	0.771720
O117	O	1.170351	-0.235516	0.275251
O118	O	1.670351	0.264484	0.775251
H119	H	1.180372	-0.300346	0.277626
H120	H	1.680372	0.199654	0.777626
O121	O	1.192411	-0.065363	0.280447
O122	O	1.692411	0.434637	0.780447
H123	H	1.111213	-0.103302	0.261361
H124	H	1.611213	0.396698	0.761361
O125	O	1.607881	-0.335977	0.378142
O126	O	2.107881	0.164023	0.878142
H127	H	1.604490	-0.290007	0.469867
H128	H	2.104490	0.209993	0.969867
H129	H	1.293304	-0.357093	0.304157
H130	H	1.793304	0.142907	0.804157
