data_functionalizedCrystal
_audit_creation_method	'MofGen! by Chris Wilmer'
_symmetry_space_group_name_H-M	'P1'
_symmetry_Int_Tables_number	1
_symmetry_cell_setting	triclinic
loop_
_symmetry_equiv_pos_as_xyz
  x,y,z
_cell_length_a	10.654550
_cell_length_b	10.654551
_cell_length_c	9.130313
_cell_angle_alpha	89.998309
_cell_angle_beta	89.999724
_cell_angle_gamma	84.485146
loop_
_atom_site_label
_atom_site_type_symbol
_atom_site_fract_x
_atom_site_fract_y
_atom_site_fract_z
O1	O	1.667840	0.176399	-0.121680
O2	O	1.302362	0.193205	-0.121706
O3	O	1.493503	0.002063	-0.121693
O4	O	1.476699	0.367541	-0.121693
O5	O	1.493490	0.002057	0.121906
O6	O	1.302349	0.193199	0.121893
O7	O	1.667827	0.176393	0.121919
Cu8	Cu	1.485087	0.184796	0.144148
Cu9	Cu	1.485102	0.184802	-0.143935
O10	O	1.476685	0.367535	0.121906
C11	C	1.255557	0.191968	0.000090
C12	C	1.116114	0.188276	0.000080
C13	C	1.036629	0.300818	0.000084
C14	C	0.905608	0.297341	0.000110
C15	C	0.933570	0.068772	0.000120
C16	C	1.064588	0.072249	0.000105
C17	C	1.492262	-0.044738	0.000103
C18	C	1.488570	-0.184181	0.000093
C19	C	1.486845	-0.249690	-0.132690
C20	C	1.483365	-0.380711	-0.132684
C21	C	1.483340	-0.380702	0.132901
C22	C	1.486811	-0.249683	0.132893
C23	C	1.488604	-0.184188	-0.265490
C24	C	1.486880	-0.249698	-0.398285
C25	C	1.483400	-0.380718	-0.398278
C26	C	1.481643	-0.446229	-0.265478
C27	C	1.714631	0.177630	0.000120
C28	C	1.854075	0.181322	0.000120
C29	C	1.477926	0.414336	0.000107
C30	C	1.481619	0.553779	0.000107
N31	N	1.485085	0.184790	0.346771
N32	N	1.485114	0.184798	-0.346558
C33	C	1.569751	0.100188	0.423429
C34	C	1.569763	0.100189	0.576765
C35	C	1.400438	0.269404	0.576774
C36	C	1.400421	0.269396	0.423440
H37	H	1.129309	-0.019401	0.000106
H38	H	1.331509	0.338290	0.639213
H39	H	1.331470	0.338290	0.361021
H40	H	1.491441	-0.077506	-0.265511
H41	H	1.078576	0.395294	0.000074
H42	H	1.488298	-0.196348	-0.506406
H43	H	0.840895	0.388984	0.000116
H44	H	0.891602	-0.025693	0.000150
H45	H	1.481911	-0.434052	0.241021
H46	H	1.481984	-0.434050	-0.506405
N47	N	1.477872	-0.587542	-0.265465
H48	H	1.477039	-0.619104	-0.369735
H49	H	1.554752	-0.628513	-0.213254
H50	H	1.488189	-0.196341	0.241017
N51	N	1.661060	0.008938	0.340733
H52	H	1.714695	-0.044658	0.412568
H53	H	1.612495	-0.047036	0.277126
H54	H	1.638704	0.031297	0.639176
