data_functionalizedCrystal
_audit_creation_method	'MofGen! by Chris Wilmer'
_symmetry_space_group_name_H-M	'P1'
_symmetry_Int_Tables_number	1
_symmetry_cell_setting	triclinic
loop_
_symmetry_equiv_pos_as_xyz
  x,y,z
_cell_length_a	15.944551
_cell_length_b	10.489741
_cell_length_c	9.565339
_cell_angle_alpha	90.007425
_cell_angle_beta	90.001528
_cell_angle_gamma	95.981044
loop_
_atom_site_label
_atom_site_type_symbol
_atom_site_fract_x
_atom_site_fract_y
_atom_site_fract_z
O1	O	1.115511	-0.164509	-0.116113
O2	O	0.871083	-0.184790	-0.116148
O3	O	0.998859	0.011026	-0.116121
O4	O	0.987735	-0.360324	-0.116140
O5	O	0.998852	0.011043	0.116399
O6	O	0.871077	-0.184772	0.116372
O7	O	1.115504	-0.164491	0.116407
Zn8	Zn	0.993289	-0.174629	0.153307
Zn9	Zn	0.993298	-0.174652	-0.153048
O10	O	0.987729	-0.360307	0.116380
C11	C	0.839781	-0.183939	0.000108
C12	C	0.746520	-0.181415	0.000095
N13	N	0.993289	-0.174612	0.362386
C14	C	0.998015	0.058554	0.000138
C15	C	0.995502	0.200149	0.000135
C16	C	0.530897	-0.054006	0.000128
C17	C	0.470236	-0.113179	-0.114520
C18	C	0.575766	-0.176849	0.000111
C19	C	0.470252	-0.113191	0.114727
C20	C	0.410827	-0.172428	0.000134
C21	C	0.516334	-0.236056	-0.114631
C22	C	0.516356	-0.236050	0.114719
C23	C	0.455713	-0.295313	0.000043
C24	C	0.670784	-0.179391	0.000097
C25	C	0.315811	-0.169895	0.000138
C26	C	1.146807	-0.165342	0.000148
C27	C	1.240068	-0.167866	0.000152
C28	C	0.988572	-0.407835	0.000118
C29	C	0.991086	-0.549430	0.000112
C30	C	0.914202	0.267162	0.000113
C31	C	0.952604	0.359826	0.114763
C32	C	0.952630	0.359783	-0.114484
C33	C	1.033937	0.290948	0.114879
C34	C	1.033952	0.290896	-0.114470
C35	C	1.072413	0.383533	0.000208
C36	C	1.051919	-0.083353	0.546734
C37	C	1.069588	-0.198256	0.453493
C38	C	0.975658	-0.059719	0.453558
C39	C	1.011013	-0.289617	0.546683
C40	C	0.917048	-0.151004	0.546756
C41	C	0.934686	-0.265990	0.453557
N42	N	0.993305	-0.174656	0.637872
H43	H	0.563617	0.047944	-0.000009
H44	H	0.536796	-0.287957	0.211645
C45	C	0.442693	-0.042970	0.245664
H46	H	0.468694	0.042742	0.245516
H47	H	0.383146	-0.042549	0.245182
H48	H	0.459257	-0.085768	0.327075
C49	C	0.823907	0.198825	0.000252
H50	H	0.795156	0.222251	0.081809
H51	H	0.794734	0.223376	-0.080368
H52	H	0.826129	0.108678	-0.000568
C53	C	1.031273	-0.420930	0.601695
H54	H	1.039695	-0.475728	0.525003
H55	H	1.081000	-0.410083	0.656976
H56	H	0.985612	-0.458001	0.657029
C57	C	0.867713	-0.370372	0.398618
H58	H	0.827504	-0.331757	0.343965
H59	H	0.894185	-0.429404	0.342672
H60	H	0.840124	-0.414340	0.475331
C61	C	0.906133	0.401095	0.245687
H62	H	0.849924	0.360853	0.245543
H63	H	0.934473	0.376375	0.327103
H64	H	0.905315	0.491520	0.245166
C65	C	1.080357	0.249959	0.245974
H66	H	1.081644	0.159619	0.245209
H67	H	1.136391	0.290851	0.246319
H68	H	1.051657	0.274101	0.327280
C69	C	0.906150	0.400974	-0.245427
H70	H	0.849947	0.360708	-0.245284
H71	H	0.905328	0.491393	-0.244951
H72	H	0.934492	0.376203	-0.326833
C73	C	1.162789	0.451568	0.000305
H74	H	1.191526	0.428018	0.081822
H75	H	1.191889	0.426925	-0.080357
H76	H	1.160704	0.541745	-0.000458
H77	H	1.068325	0.260320	-0.211394
C78	C	1.118931	0.020805	0.602018
H79	H	1.173076	0.003798	0.570083
H80	H	1.106933	0.102281	0.568766
H81	H	1.118135	0.020570	0.701326
H82	H	0.852586	-0.130972	0.587752
H83	H	1.134070	-0.218251	0.412528
C84	C	0.442641	-0.043003	-0.245444
H85	H	0.468626	0.042718	-0.245303
H86	H	0.459181	-0.085821	-0.326860
H87	H	0.383090	-0.042588	-0.244920
H88	H	0.960737	0.037464	0.412650
H89	H	0.536636	-0.287981	-0.211662
H90	H	0.423168	-0.397367	-0.000026
