data_functionalizedCrystal
_audit_creation_method	'MofGen! by Chris Wilmer'
_symmetry_space_group_name_H-M	'P1'
_symmetry_Int_Tables_number	1
_symmetry_cell_setting	triclinic
loop_
_symmetry_equiv_pos_as_xyz
  x,y,z
_cell_length_a	12.759401
_cell_length_b	21.395361
_cell_length_c	12.759393
_cell_angle_alpha	89.960721
_cell_angle_beta	89.981504
_cell_angle_gamma	90.030985
loop_
_atom_site_label
_atom_site_type_symbol
_atom_site_fract_x
_atom_site_fract_y
_atom_site_fract_z
Zn1	Zn	1.606138	-0.249397	-0.593927
Zn2	Zn	1.605983	-0.354189	-0.418223
Zn3	Zn	1.430440	-0.249430	-0.418266
Zn4	Zn	1.430380	-0.354141	-0.593865
O5	O	1.518235	-0.301789	-0.506070
O6	O	1.753139	-0.263304	-0.570627
O7	O	1.582658	-0.340326	-0.271208
O8	O	1.453837	-0.161747	-0.441611
O9	O	1.753025	-0.340294	-0.441539
O10	O	1.582921	-0.161723	-0.570669
O11	O	1.453687	-0.263360	-0.271239
O12	O	1.283411	-0.263314	-0.441551
O13	O	1.453734	-0.340212	-0.740894
O14	O	1.283367	-0.340244	-0.570563
O15	O	1.582863	-0.263257	-0.740939
O16	O	1.582599	-0.441861	-0.441479
O17	O	1.453584	-0.441825	-0.570521
C18	C	1.245268	-0.301778	-0.506056
C19	C	1.128491	-0.301788	-0.506074
C20	C	1.518097	-0.464577	-0.506012
C21	C	1.518133	-0.534218	-0.506022
C22	C	0.963903	-0.341916	-0.573152
C23	C	1.073627	-0.341909	-0.573141
C24	C	1.073626	-0.261676	-0.439006
C25	C	0.963904	-0.261686	-0.439013
C26	C	1.585371	-0.566929	-0.438898
C27	C	1.585420	-0.632364	-0.438921
C28	C	1.518212	-0.665086	-0.506058
C29	C	1.450970	-0.632368	-0.573195
C30	C	1.450930	-0.566933	-0.573177
C31	C	1.423614	-0.768800	-0.514296
C32	C	1.423652	-0.834233	-0.514307
C33	C	1.518335	-0.866907	-0.506119
C34	C	1.612983	-0.834140	-0.497899
C35	C	1.612943	-0.768706	-0.497881
C36	C	1.518248	-0.736039	-0.506085
C37	C	1.585631	-0.970570	-0.439017
C38	C	1.585682	-1.036007	-0.439048
C39	C	1.451222	-1.036009	-0.573316
C40	C	1.451181	-0.970574	-0.573291
C41	C	1.518384	-0.937858	-0.506136
C42	C	1.792269	-0.301801	-0.506085
C43	C	1.909045	-0.301806	-0.506092
C44	C	1.518309	-0.301726	-0.780103
C45	C	1.518340	-0.301699	-0.896880
C46	C	1.518403	-0.138366	-0.506152
C47	C	1.518475	-0.068724	-0.506186
C48	C	1.451209	-0.261615	-0.951758
C49	C	1.451233	-0.261596	-1.061482
C50	C	1.585529	-0.341745	-1.061441
C51	C	1.585498	-0.341767	-0.951719
C52	C	1.518223	-0.301807	-0.233103
C53	C	1.518395	-0.301657	-0.116327
H54	H	0.919240	-0.374585	-0.627772
H55	H	1.396568	-0.228956	-1.106159
Br56	Br	1.676604	-0.396175	-0.877235
Br57	Br	1.676589	-0.522532	-0.347774
H58	H	1.118287	-0.374572	-0.627747
H59	H	1.640442	-1.062639	-0.384390
H60	H	1.396524	-0.228989	-0.907112
H61	H	1.396176	-0.540300	-0.627838
H62	H	1.690083	-0.860741	-0.491233
H63	H	1.396505	-1.062651	-0.627984
H64	H	1.640208	-0.374368	-1.106104
H65	H	1.396251	-0.659014	-0.627859
H66	H	1.118306	-0.229011	-0.384395
H67	H	0.919238	-0.229022	-0.384399
H68	H	1.640177	-0.659002	-0.384261
H69	H	1.640356	-0.943932	-0.384339
H70	H	1.690008	-0.742028	-0.491191
H71	H	1.396425	-0.943939	-0.627945
Br72	Br	1.295104	-0.724464	-0.525412
Br73	Br	1.295203	-0.878696	-0.525456
