data_functionalizedCrystal
_audit_creation_method	'MofGen! by Chris Wilmer'
_symmetry_space_group_name_H-M	'P1'
_symmetry_Int_Tables_number	1
_symmetry_cell_setting	triclinic
loop_
_symmetry_equiv_pos_as_xyz
  x,y,z
_cell_length_a	19.805405
_cell_length_b	19.805407
_cell_length_c	19.805399
_cell_angle_alpha	89.978275
_cell_angle_beta	90.029301
_cell_angle_gamma	89.972362
loop_
_atom_site_label
_atom_site_type_symbol
_atom_site_fract_x
_atom_site_fract_y
_atom_site_fract_z
Zn1	Zn	-0.269457	-1.034736	0.382750
Zn2	Zn	-0.382645	-1.034651	0.269559
Zn3	Zn	-0.269478	-0.921550	0.269571
Zn4	Zn	-0.382611	-0.921514	0.382701
O5	O	-0.326048	-0.978113	0.326145
O6	O	-0.284477	-1.129441	0.367751
O7	O	-0.367656	-1.019627	0.174844
O8	O	-0.174758	-0.936616	0.284610
O9	O	-0.367636	-1.129378	0.284589
O10	O	-0.174743	-1.019772	0.367762
O11	O	-0.284513	-0.936533	0.174853
O12	O	-0.284480	-0.826829	0.284562
O13	O	-0.367578	-0.936553	0.477424
O14	O	-0.367599	-0.826802	0.367679
O15	O	-0.284444	-1.019737	0.477461
O16	O	-0.477357	-1.019592	0.284542
O17	O	-0.477333	-0.936471	0.367667
C18	C	-0.326039	-0.802257	0.326117
C19	C	-0.326051	-0.727025	0.326121
C20	C	-0.282819	-0.265270	0.369524
C21	C	-0.282821	-0.335958	0.369520
C22	C	-0.326050	-0.371263	0.326153
C23	C	-0.369285	-0.335876	0.282791
C24	C	-0.369286	-0.265188	0.282799
C25	C	-0.369284	-0.620949	0.282762
C26	C	-0.369278	-0.691641	0.282757
C27	C	-0.282819	-0.691719	0.369484
C28	C	-0.282819	-0.621031	0.369491
C29	C	-0.326057	-0.585650	0.326132
C30	C	-0.326055	-0.509002	0.326137
C31	C	-0.326049	-0.447910	0.326144
C32	C	-0.501904	-0.978036	0.326113
C33	C	-0.577136	-0.978066	0.326121
C34	C	-0.612470	-1.021389	0.282883
C35	C	-0.683159	-1.021418	0.282898
C36	C	-0.718511	-0.978119	0.326148
C37	C	-0.683172	-0.934794	0.369391
C38	C	-0.612485	-0.934769	0.369379
C39	C	-0.968245	-0.934894	0.369441
C40	C	-1.038937	-0.934921	0.369448
C41	C	-1.038919	-1.021542	0.282960
C42	C	-0.968232	-1.021518	0.282948
C43	C	-0.932899	-0.978195	0.326193
C44	C	-0.856250	-0.978166	0.326177
C45	C	-0.795158	-0.978145	0.326161
C46	C	-0.149505	-0.978207	0.326193
C47	C	-0.074273	-0.978248	0.326213
C48	C	-0.326005	-0.978151	0.502688
C49	C	-0.325987	-0.978167	0.577920
C50	C	-0.326054	-0.154655	0.326169
C51	C	-0.326049	-0.229887	0.326164
C52	C	-0.326041	-0.978114	0.150289
C53	C	-0.325869	-0.978229	0.075058
C54	C	-0.282697	-1.021481	0.613284
C55	C	-0.282677	-1.021488	0.683973
C56	C	-0.325952	-0.978184	0.719296
C57	C	-0.369244	-0.934864	0.683927
C58	C	-0.369259	-0.934854	0.613240
C59	C	-0.369181	-0.934902	0.969000
C60	C	-0.369163	-0.934917	1.039692
C61	C	-0.282598	-1.021536	1.039733
C62	C	-0.282614	-1.021527	0.969046
C63	C	-0.325903	-0.978205	0.933683
C64	C	-0.325923	-0.978197	0.857035
C65	C	-0.325936	-0.978194	0.795943
H66	H	-0.404486	-0.364626	0.247484
H67	H	-0.583691	-1.056644	0.247661
H68	H	-0.939450	-1.056773	0.247728
C69	C	-0.235912	-0.582579	0.416504
C70	C	-0.245155	-0.513101	0.407218
C71	C	-0.201952	-0.477659	0.450512
H72	H	-0.245837	-0.594100	0.461989
H73	H	-0.190406	-0.594139	0.406677
H74	H	-0.290651	-0.501546	0.417051
H75	H	-0.235225	-0.501560	0.361743
H76	H	-0.156445	-0.489219	0.440685
H77	H	-0.211880	-0.489185	0.495995
H78	H	-0.208212	-0.430515	0.444213
C79	C	-0.416108	-0.730009	0.235591
C80	C	-0.377729	-0.770573	0.192259
C81	C	-0.420841	-0.805921	0.148797
H82	H	-0.445641	-0.757639	0.261352
H83	H	-0.441849	-0.698835	0.209730
H84	H	-0.352000	-0.801744	0.218116
H85	H	-0.348198	-0.742960	0.166482
H86	H	-0.446582	-0.774747	0.122937
H87	H	-0.450372	-0.833547	0.174564
H88	H	-0.394807	-0.833443	0.119387
C89	C	-0.416332	-0.226857	0.235760
C90	C	-0.483317	-0.244041	0.250365
C91	C	-0.526677	-0.208751	0.207043
H92	H	-0.410235	-0.179692	0.241933
H93	H	-0.406408	-0.238437	0.190287
H94	H	-0.493237	-0.232457	0.295827
H95	H	-0.489436	-0.291200	0.244188
H96	H	-0.516754	-0.220332	0.161570
H97	H	-0.520574	-0.161588	0.213220
H98	H	-0.572131	-0.220411	0.216943
C99	C	-0.574081	-0.887845	0.416406
C100	C	-0.533453	-0.926135	0.459829
C101	C	-0.498073	-0.882934	0.503170
H102	H	-0.546491	-0.858347	0.390562
H103	H	-0.605236	-0.862072	0.442207
H104	H	-0.502303	-0.951897	0.434031
H105	H	-0.561027	-0.955632	0.485689
H106	H	-0.529228	-0.857161	0.528970
H107	H	-0.470487	-0.853438	0.477319
H108	H	-0.470508	-0.908907	0.532641
C109	C	-0.235858	-0.227064	0.416684
C110	C	-0.198014	-0.273184	0.454670
C111	C	-0.154754	-0.238016	0.498131
H112	H	-0.206272	-0.199487	0.390927
H113	H	-0.261775	-0.199506	0.446167
H114	H	-0.172099	-0.300730	0.425191
H115	H	-0.227582	-0.300762	0.480441
H116	H	-0.180671	-0.210458	0.527614
H117	H	-0.125173	-0.210441	0.472368
H118	H	-0.129076	-0.269303	0.523914
C119	C	-0.721400	-1.068478	0.235877
C120	C	-0.675310	-1.106375	0.197982
C121	C	-0.710513	-1.149730	0.154651
H122	H	-0.748934	-1.098027	0.261724
H123	H	-0.749003	-1.042627	0.206331
H124	H	-0.647719	-1.132224	0.227524
H125	H	-0.647775	-1.076844	0.172121
H126	H	-0.738116	-1.123879	0.125105
H127	H	-0.738046	-1.179274	0.180504
H128	H	-0.679246	-1.175444	0.128930
C129	C	-0.235615	-1.068493	1.078251
C130	C	-0.244845	-1.059221	1.147716
C131	C	-0.201572	-1.102459	1.183217
H132	H	-0.245484	-1.113990	1.066757
H133	H	-0.190126	-1.058604	1.066712
H134	H	-0.290324	-1.069115	1.159250
H135	H	-0.234971	-1.013733	1.159230
H136	H	-0.156083	-1.092570	1.171678
H137	H	-0.211445	-1.147954	1.171717
H138	H	-0.207824	-1.096170	1.230353
H139	H	-0.711962	-0.899543	0.404609
C140	C	-0.416243	-0.887833	0.930734
C141	C	-0.454144	-0.849922	0.976801
C142	C	-0.497508	-0.806554	0.941572
H143	H	-0.390420	-0.858295	0.903166
H144	H	-0.445784	-0.913675	0.903163
H145	H	-0.424607	-0.824082	1.004361
H146	H	-0.479982	-0.879443	1.004371
H147	H	-0.527049	-0.832396	0.914001
H148	H	-0.471679	-0.777019	0.914005
H149	H	-0.523234	-0.780830	0.972823
H150	H	-0.247615	-0.720534	0.404791
H151	H	-0.247621	-0.364763	0.404831
H152	H	-0.247378	-1.056792	0.940290
H153	H	-0.404488	-0.592150	0.247455
C154	C	-1.077189	-1.068701	0.236052
C155	C	-1.059903	-1.135650	0.250845
C156	C	-1.095131	-1.179110	0.207641
H157	H	-1.124362	-1.062618	0.242205
H158	H	-1.065626	-1.058858	0.190552
H159	H	-1.071469	-1.145490	0.296333
H160	H	-1.012735	-1.141755	0.244687
H161	H	-1.083569	-1.169267	0.162141
H162	H	-1.142303	-1.173021	0.213797
H163	H	-1.083403	-1.224539	0.217667
C164	C	-1.077200	-0.887887	0.416487
C165	C	-1.031128	-0.849955	0.454372
C166	C	-1.066350	-0.806630	0.497714
H167	H	-1.104819	-0.858359	0.390648
H168	H	-1.104720	-0.913761	0.446039
H169	H	-1.003620	-0.824083	0.424823
H170	H	-1.003507	-0.879466	0.480224
H171	H	-1.093870	-0.832504	0.527266
H172	H	-1.093969	-0.777107	0.471869
H173	H	-1.035096	-0.780893	0.523428
H174	H	-0.939482	-0.899618	0.404651
H175	H	-0.247460	-1.056747	0.584529
H176	H	-0.404476	-0.899602	0.712693
H177	H	-0.247427	-1.056761	0.712763
H178	H	-0.404404	-0.899650	1.068451
H179	H	-0.404504	-0.899576	0.584447
