data_functionalizedCrystal
_audit_creation_method	'MofGen! by Chris Wilmer'
_symmetry_space_group_name_H-M	'P1'
_symmetry_Int_Tables_number	1
_symmetry_cell_setting	triclinic
loop_
_symmetry_equiv_pos_as_xyz
  x,y,z
_cell_length_a	23.096457
_cell_length_b	14.628931
_cell_length_c	14.628931
_cell_angle_alpha	90.000000
_cell_angle_beta	60.000465
_cell_angle_gamma	60.001579
loop_
_atom_site_label
_atom_site_type_symbol
_atom_site_fract_x
_atom_site_fract_y
_atom_site_fract_z
Zr1	Zr	0.633728	-0.119917	0.880644
O2	O	0.754514	-0.265871	0.734688
O3	O	0.512942	-0.075181	0.925384
O4	O	0.633728	-0.265878	0.925389
O5	O	0.633728	0.075259	0.734683
O6	O	0.633728	-0.265878	1.075821
O7	O	0.633728	-0.075173	0.734683
O8	O	0.417663	0.075245	1.075813
O9	O	0.849792	-0.265864	0.734692
O10	O	0.562622	-0.056094	1.056735
O11	O	0.562622	0.056172	0.944470
O12	O	0.704833	-0.168350	0.944475
O13	O	0.704833	-0.056085	0.832209
Zr14	Zr	0.633727	0.120005	1.120566
Zr15	Zr	0.633727	-0.119917	1.120566
Zr16	Zr	0.633727	0.120004	0.880645
Zr17	Zr	0.785685	-0.119907	0.880650
Zr18	Zr	0.481770	0.119995	1.120560
O19	O	0.754513	0.075268	1.075826
O20	O	0.754514	-0.265870	1.075826
O21	O	0.754514	0.075267	0.734688
O22	O	0.512941	0.265958	1.266523
O23	O	0.512941	-0.075180	1.266522
O24	O	0.512941	0.265957	0.925385
O25	O	0.633727	-0.075172	1.266527
O26	O	0.633727	0.265966	1.075822
O27	O	0.633727	0.265966	0.925390
O28	O	0.633727	0.075260	1.266527
O29	O	0.849792	-0.265864	0.925398
O30	O	0.417663	0.265951	1.075813
O31	O	0.417663	0.265952	1.266519
O32	O	0.417663	0.075246	1.266519
O33	O	0.849792	-0.075158	0.734692
O34	O	0.849791	-0.075158	0.925398
O35	O	0.562622	0.168438	1.056736
O36	O	0.562622	0.056172	1.169001
O37	O	0.704832	-0.056084	1.056741
O38	O	0.704832	0.056181	0.944475
C39	C	0.443652	0.000031	1.000598
C40	C	0.379142	0.000027	1.000595
C41	C	0.633728	0.000043	0.700500
C42	C	0.633728	0.000043	0.598647
C43	C	0.633727	0.300149	1.000606
C44	C	0.633727	0.402002	1.000606
C45	C	0.348841	-0.058579	1.059189
C46	C	0.288219	-0.058570	1.059200
C47	C	0.257911	0.000030	1.000595
C48	C	0.288216	0.058648	0.941999
C49	C	0.348832	0.058647	0.941999
N50	N	0.195516	-0.008096	0.905227
N51	N	0.137935	-0.008101	0.905229
C52	C	0.075279	0.000040	1.000594
N53	N	0.072387	0.008164	1.095955
N54	N	0.129976	0.008163	1.095951
C55	C	0.192184	0.000039	1.000589
C56	C	-0.020756	-0.058558	1.059205
C57	C	-0.081383	-0.058541	1.059219
C58	C	-0.081379	0.058670	0.942007
C59	C	-0.020758	0.058660	0.942004
C60	C	0.009552	0.000040	1.000600
C61	C	0.823803	0.000056	1.000613
C62	C	0.888313	0.000061	1.000616
C63	C	0.633728	-0.300062	1.000605
C64	C	0.633728	-0.401915	1.000605
C65	C	0.704272	0.391725	0.944917
C66	C	0.704274	0.496994	0.944916
C67	C	0.563182	0.055730	0.608926
C68	C	0.563181	0.055731	0.503657
C69	C	0.633727	0.000044	1.300711
C70	C	0.633727	0.000044	1.402564
C71	C	0.443651	0.000031	1.300703
C72	C	0.379141	0.000027	1.402554
C73	C	0.443651	0.300137	1.000598
C74	C	0.379141	0.401986	1.000596
C75	C	0.443651	0.300137	1.300704
C76	C	0.379140	0.401986	1.402554
C77	C	0.823804	-0.300050	0.700507
C78	C	0.888314	-0.401899	0.598656
C79	C	0.823803	0.000056	0.700507
C80	C	0.888313	0.000060	0.598657
C81	C	0.823803	-0.300049	1.000613
C82	C	0.888313	-0.401898	1.000615
C83	C	0.348847	-0.058586	1.391782
C84	C	0.288241	-0.058613	1.487473
C85	C	0.257927	-0.000018	1.593933
C86	C	0.288227	0.058597	1.604703
C87	C	0.348836	0.058616	1.509014
C88	C	0.348846	0.508427	1.059196
C89	C	0.288241	0.604133	1.059190
C90	C	0.257927	0.593397	1.000589
C91	C	0.288228	0.486945	0.941981
C92	C	0.348836	0.391240	0.941981
C93	C	0.348846	0.391214	1.508996
C94	C	0.288240	0.486903	1.604705
C95	C	0.257926	0.593363	1.593969
C96	C	0.288227	0.604133	1.487517
C97	C	0.348835	0.508445	1.391810
C98	C	0.918616	-0.391127	0.492214
C99	C	0.979241	-0.486815	0.396506
C100	C	1.009558	-0.593275	0.407241
C101	C	0.979254	-0.604045	0.513694
C102	C	0.918634	-0.508357	0.609400
C103	C	0.918614	0.058664	0.609428
C104	C	0.979237	0.058664	0.513738
C105	C	1.009553	0.000066	0.407277
C106	C	0.979250	-0.058545	0.396508
C107	C	0.918633	-0.058551	0.492197
C108	C	0.918608	-0.391126	1.059228
C109	C	0.979214	-0.486814	1.059252
C110	C	1.009528	-0.593274	1.000656
C111	C	0.979228	-0.604044	0.942042
C112	C	0.918619	-0.508357	0.942025
H113	H	0.373516	-0.106307	1.106905
H114	H	0.263578	-0.106344	1.478682
Br115	Br	0.389977	0.246745	1.523597
H116	H	0.893935	-0.304449	1.106943
H117	H	0.263536	0.690825	1.478792
Br118	Br	0.389939	0.523085	1.247357
H119	H	0.764671	0.488370	0.897243
H120	H	1.003878	-0.478023	1.106981
H121	H	-0.106054	0.106383	0.894290
H122	H	0.208575	-0.000042	1.671840
H123	H	0.263536	0.106303	1.691396
Br124	Br	0.247078	0.472393	0.862456
Br125	Br	0.462512	0.135226	0.753484
Br126	Br	0.175670	0.723215	1.723870
Br127	Br	0.877486	0.138195	0.753899
H128	H	0.208576	0.671335	1.000597
Br129	Br	0.877482	-0.246657	0.477614
H130	H	0.502784	0.103399	0.512283
Br131	Br	0.247130	0.748589	1.138736
Br132	Br	0.389940	0.246788	0.862448
H133	H	1.003905	-0.478024	0.309837
Br134	Br	1.091829	-0.723128	0.277341
Br135	Br	0.533053	0.612480	1.080088
H136	H	0.694124	-0.047629	0.511912
H137	H	0.003921	-0.106286	1.106922
Br138	Br	0.389976	-0.138121	1.247312
H139	H	0.373494	0.106353	1.517800
H140	H	1.058881	-0.671180	1.000679
H141	H	0.694127	-0.047638	0.393930
Br142	Br	1.091820	0.000085	0.277423
H143	H	0.764668	0.304992	0.897237
H144	H	1.003919	-0.690737	0.894335
Br145	Br	0.877513	-0.522997	0.753854
H146	H	1.003946	-0.690736	0.522422
H147	H	0.573331	0.488735	1.048276
H148	H	0.263575	0.478114	1.691375
H149	H	1.003899	0.106396	0.522529
H150	H	1.003943	-0.106254	0.309815
Br151	Br	0.877514	-0.138087	0.477558
Br152	Br	0.247076	-0.138095	1.138742
Br153	Br	0.877519	-0.522997	0.862461
H154	H	0.263535	0.106362	0.894283
H155	H	0.373503	0.106371	0.894282
Br156	Br	0.020367	0.138201	0.862479
Br157	Br	-0.122506	-0.138087	1.138744
H158	H	0.373521	0.517190	1.106917
