data_functionalizedCrystal
_audit_creation_method	'MofGen! by Chris Wilmer'
_symmetry_space_group_name_H-M	'P1'
_symmetry_Int_Tables_number	1
_symmetry_cell_setting	triclinic
loop_
_symmetry_equiv_pos_as_xyz
  x,y,z
_cell_length_a	11.026607
_cell_length_b	11.026607
_cell_length_c	10.066291
_cell_angle_alpha	100.716198
_cell_angle_beta	79.292688
_cell_angle_gamma	108.586017
loop_
_atom_site_label
_atom_site_type_symbol
_atom_site_fract_x
_atom_site_fract_y
_atom_site_fract_z
O1	O	-1.712134	-0.548230	-0.113484
O2	O	-1.345554	-0.487467	-0.113486
O3	O	-1.498463	-0.334558	-0.113480
O4	O	-1.559225	-0.701139	-0.113490
O5	O	-1.527644	-0.305334	0.113495
O6	O	-1.374735	-0.458243	0.113489
O7	O	-1.741315	-0.519007	0.113491
Zn8	Zn	-1.562658	-0.483985	0.149527
Zn9	Zn	-1.524211	-0.522488	-0.149522
O10	O	-1.588406	-0.671916	0.113485
C11	C	-1.312485	-0.461645	0.000001
C12	C	-1.170471	-0.428228	0.000000
C13	C	-1.501843	-0.272287	0.000005
C14	C	-1.468426	-0.130273	0.000000
C15	C	-1.774384	-0.544828	0.000001
C16	C	-1.916397	-0.578246	-0.000007
C17	C	-1.116821	-0.520498	-0.000003
C18	C	-0.970042	-0.485963	-0.000004
C19	C	-1.585025	-0.734187	-0.000004
C20	C	-1.618442	-0.876201	-0.000008
N21	N	-1.588907	-0.457709	0.353620
C22	C	-1.560695	-0.076624	-0.000001
C23	C	-1.526159	0.070154	-0.000006
C24	C	-1.553546	-0.493126	0.578579
C25	C	-1.533315	-0.513355	0.421422
N26	N	-1.497962	-0.548764	0.646385
H27	H	-1.179555	-0.625061	0.000002
H28	H	-1.722999	0.061058	-0.000110
C29	C	-1.327163	-0.045529	0.000001
N30	N	-1.220760	0.018299	0.000006
H31	H	-1.421588	0.132882	-0.000016
C32	C	-1.638071	-0.408540	0.657330
N33	N	-1.701735	-0.344826	0.716644
C34	C	-0.885303	-0.344692	-0.000000
N35	N	-0.821475	-0.238289	0.000000
H36	H	-1.435402	-0.611379	0.588089
C37	C	-1.673437	-0.373120	0.432363
N38	N	-1.737103	-0.309406	0.491673
C39	C	-1.001134	-0.719518	-0.000012
N40	N	-1.064958	-0.825923	-0.000019
C41	C	-1.085727	-0.286965	0.000004
N42	N	-1.021899	-0.180562	0.000004
H43	H	-1.665259	-0.139356	0.000008
C44	C	-1.448784	-0.597944	0.342676
N45	N	-1.385115	-0.661652	0.283363
