data_functionalizedCrystal
_audit_creation_method	'MofGen! by Chris Wilmer'
_symmetry_space_group_name_H-M	'P1'
_symmetry_Int_Tables_number	1
_symmetry_cell_setting	triclinic
loop_
_symmetry_equiv_pos_as_xyz
  x,y,z
_cell_length_a	14.519709
_cell_length_b	14.044220
_cell_length_c	12.996460
_cell_angle_alpha	90.001035
_cell_angle_beta	90.000602
_cell_angle_gamma	88.434511
loop_
_atom_site_label
_atom_site_type_symbol
_atom_site_fract_x
_atom_site_fract_y
_atom_site_fract_z
O1	O	1.233894	0.124265	0.085435
O2	O	1.733894	0.624265	0.585435
O3	O	0.966597	0.138899	0.085466
O4	O	1.466597	0.638899	0.585466
O5	O	1.096233	-0.006410	0.085441
O6	O	1.596233	0.493590	0.585441
O7	O	1.104258	0.269573	0.085460
O8	O	1.604258	0.769573	0.585460
O9	O	1.096216	-0.006401	-0.085693
O10	O	1.596216	0.493599	0.414307
O11	O	0.966580	0.138908	-0.085667
O12	O	1.466580	0.638908	0.414333
O13	O	1.233876	0.124273	-0.085699
O14	O	1.733876	0.624273	0.414301
Cu15	Cu	1.100226	0.131591	-0.101309
Cu16	Cu	1.600226	0.631591	0.398691
Cu17	Cu	1.100247	0.131581	0.101076
Cu18	Cu	1.600247	0.631581	0.601076
O19	O	1.104240	0.269582	-0.085674
O20	O	1.604240	0.769582	0.414326
C21	C	0.932174	0.138221	-0.000097
C22	C	1.432174	0.638221	0.499903
C23	C	0.829628	0.136177	-0.000085
C24	C	1.329628	0.636177	0.499915
C25	C	0.454125	0.128653	-0.000132
C26	C	0.954125	0.628653	0.499868
C27	C	0.558601	0.130743	-0.000119
C28	C	1.058601	0.630743	0.499881
C29	C	0.641873	0.132415	-0.000107
C30	C	1.141873	0.632415	0.499893
C31	C	0.746356	0.134505	-0.000096
C32	C	1.246356	0.634505	0.499904
C33	C	1.092712	-0.041726	-0.000126
C34	C	1.592712	0.458274	0.499874
C35	C	1.082235	-0.146969	-0.000126
C36	C	1.582235	0.353031	0.499874
C37	C	1.063081	-0.339663	-0.000109
C38	C	1.563081	0.160337	0.499891
C39	C	1.137389	-0.397170	-0.000115
C40	C	1.637389	0.102830	0.499885
C41	C	1.126731	-0.504392	-0.000105
C42	C	1.626731	-0.004392	0.499895
C43	C	1.073737	-0.232432	-0.000118
C44	C	1.573737	0.267568	0.499882
C45	C	1.268300	0.124951	-0.000134
C46	C	1.768300	0.624951	0.499866
C47	C	1.370846	0.126995	-0.000139
C48	C	1.870846	0.626995	0.499861
C49	C	1.107761	0.304898	-0.000104
C50	C	1.607761	0.804898	0.499896
C51	C	1.118238	0.410141	-0.000098
C52	C	1.618238	0.910141	0.499902
N53	N	1.100218	0.131597	-0.243656
N54	N	1.600218	0.631597	0.256344
C55	C	1.100223	0.131600	-0.336762
C56	C	1.600223	0.631600	0.163238
C57	C	1.100231	0.131593	-0.453567
C58	C	1.600231	0.631593	0.046433
C59	C	1.100241	0.131583	-0.546666
C60	C	1.600241	0.631583	-0.046666
C61	C	1.100251	0.131578	-0.663478
C62	C	1.600251	0.631578	-0.163478
N63	N	1.100262	0.131567	0.243424
N64	N	1.600262	0.631567	0.743424
H65	H	1.209010	-0.365878	-0.000054
H66	H	1.709010	0.134122	0.499946
O67	O	0.977708	-0.377143	-0.000149
O68	O	1.477708	0.122857	0.499851
C69	C	0.985941	-0.477407	-0.000119
C70	C	1.485941	0.022593	0.499881
H71	H	1.056044	-0.500385	-0.032516
H72	H	1.556044	-0.000385	0.467484
H73	H	0.979253	-0.504949	0.081984
H74	H	1.479253	-0.004949	0.581984
C75	C	0.823167	-0.490466	-0.027439
C76	C	1.323167	0.009534	0.472561
C77	C	0.909266	-0.518688	-0.067239
C78	C	1.409266	-0.018688	0.432761
H79	H	0.775868	-0.515931	-0.068837
H80	H	1.275868	-0.015931	0.431163
H81	H	0.817619	-0.422917	-0.027455
H82	H	1.317619	0.077083	0.472545
H83	H	0.817606	-0.513419	0.040979
H84	H	1.317606	-0.013419	0.540979
H85	H	0.914830	-0.495725	-0.135650
H86	H	1.414830	0.004275	0.364350
H87	H	0.914813	-0.586235	-0.067235
H88	H	1.414813	-0.086235	0.432765
