data_functionalizedCrystal
_audit_creation_method	'MofGen! by Chris Wilmer'
_symmetry_space_group_name_H-M	'P1'
_symmetry_Int_Tables_number	1
_symmetry_cell_setting	triclinic
loop_
_symmetry_equiv_pos_as_xyz
  x,y,z
_cell_length_a	11.892276
_cell_length_b	12.811453
_cell_length_c	12.837942
_cell_angle_alpha	90.587019
_cell_angle_beta	93.955698
_cell_angle_gamma	91.078808
loop_
_atom_site_label
_atom_site_type_symbol
_atom_site_fract_x
_atom_site_fract_y
_atom_site_fract_z
O1	O	-0.236499	-1.390097	0.124758
O2	O	-0.205554	-1.088197	0.141897
O3	O	-0.220333	-1.232453	-0.017560
O4	O	-0.221720	-1.245841	0.284216
O5	O	-0.033669	-1.245502	-0.005758
O6	O	-0.018890	-1.101246	0.153700
O7	O	-0.049835	-1.403146	0.136561
Zn8	Zn	-0.004726	-1.254268	0.147004
Zn9	Zn	-0.250663	-1.237075	0.131454
O10	O	-0.035056	-1.258890	0.296018
C11	C	-0.108233	-1.055811	0.147199
C12	C	-0.096349	-0.939870	0.145399
N13	N	0.163120	-1.266009	0.157616
C14	C	-0.277539	-0.707773	0.129169
C15	C	-0.266377	-0.598836	0.127478
C16	C	-0.062865	-0.613055	0.140334
C17	C	-0.074027	-0.721993	0.142025
C18	C	-0.181367	-0.769348	0.136440
C19	C	-0.192528	-0.878288	0.138124
C20	C	0.010984	-0.892505	0.150987
C21	C	0.022145	-0.783567	0.149296
C22	C	0.412380	-1.143506	0.046950
C23	C	0.529874	-1.151738	0.054374
C24	C	0.515606	-1.290699	0.179893
C25	C	0.398111	-1.282467	0.172469
C26	C	0.346503	-1.208869	0.105994
C27	C	0.229005	-1.200643	0.098565
C28	C	0.214739	-1.339599	0.224089
C29	C	0.332234	-1.347830	0.231513
N30	N	0.581491	-1.225333	0.120842
C31	C	-0.126538	-1.234455	-0.050270
C32	C	-0.125158	-1.220965	-0.165319
C33	C	-0.147157	-0.435532	0.131259
C34	C	-0.159044	-0.551473	0.133059
C35	C	-0.141804	-1.383130	-0.406622
C36	C	-0.140507	-1.370461	-0.514721
C37	C	-0.121275	-1.182956	-0.489619
C38	C	-0.122572	-1.195626	-0.381520
C39	C	-0.132835	-1.295716	-0.340025
C40	C	-0.134124	-1.308386	-0.231924
C41	C	-0.114900	-1.120882	-0.206824
C42	C	-0.113603	-1.108212	-0.314923
C43	C	-0.128853	-1.256888	0.328728
C44	C	-0.130241	-1.270377	0.443776
H45	H	-0.279930	-0.916842	0.133576
H46	H	0.374270	-1.407749	0.285638
H47	H	-0.150149	-1.464628	-0.372836
C48	C	-0.150366	-1.466616	-0.587974
H49	H	-0.156656	-1.528037	-0.547774
H50	H	-0.215352	-1.461020	-0.634779
H51	H	-0.085156	-1.470124	-0.626549
C52	C	0.116780	-0.960234	0.158993
H53	H	0.182303	-0.916425	0.162070
H54	H	0.116856	-1.001081	0.220334
H55	H	0.116457	-1.004970	0.099494
C56	C	-0.109988	-1.072869	-0.535276
H57	H	-0.110496	-1.077849	-0.609194
H58	H	-0.171340	-1.031867	-0.516515
H59	H	-0.041145	-1.040982	-0.508298
H60	H	-0.364939	-0.746331	0.124617
C61	C	0.142272	-1.411502	0.289040
H62	H	0.064905	-1.396059	0.275103
H63	H	0.154404	-1.482270	0.270885
H64	H	0.162790	-1.400521	0.361205
C65	C	-0.145412	-1.418476	-0.186275
H66	H	-0.144889	-1.413507	-0.112356
H67	H	-0.214244	-1.450367	-0.213259
H68	H	-0.084048	-1.459472	-0.205038
C69	C	-0.372165	-0.531107	0.119480
H70	H	-0.437688	-0.574917	0.116391
H71	H	-0.371839	-0.486367	0.178970
H72	H	-0.372245	-0.490264	0.058129
H73	H	-0.105252	-1.026721	-0.348724
C74	C	-0.105030	-1.024720	-0.133570
H75	H	-0.098722	-0.963300	-0.173768
H76	H	-0.170223	-1.021206	-0.094983
H77	H	-0.040029	-1.030324	-0.086774
C78	C	0.055198	-0.560957	0.146485
H79	H	0.110882	-0.613228	0.151066
H80	H	0.063584	-0.520695	0.085682
H81	H	0.063973	-0.516815	0.206522
C82	C	0.140212	-0.731475	0.155438
H83	H	0.195890	-0.783752	0.160016
H84	H	0.148594	-0.691219	0.094631
H85	H	0.148998	-0.687331	0.215472
C86	C	0.172232	-1.119683	0.025459
H87	H	0.092821	-1.124144	0.029487
H88	H	0.198620	-1.051616	0.046055
H89	H	0.190220	-1.133354	-0.044275
H90	H	0.370359	-1.083585	-0.007182
C91	C	0.602341	-1.079842	-0.010574
H92	H	0.679709	-1.095277	0.003372
H93	H	0.581820	-1.090813	-0.082734
H94	H	0.590213	-1.009070	0.007590
C95	C	0.572388	-1.371649	0.253005
H96	H	0.651798	-1.367190	0.248962
H97	H	0.554400	-1.357984	0.322733
H98	H	0.546010	-1.439724	0.232406
