data_functionalizedCrystal
_audit_creation_method	'MofGen! by Chris Wilmer'
_symmetry_space_group_name_H-M	'P1'
_symmetry_Int_Tables_number	1
_symmetry_cell_setting	triclinic
loop_
_symmetry_equiv_pos_as_xyz
  x,y,z
_cell_length_a	18.215407
_cell_length_b	19.805404
_cell_length_c	18.215399
_cell_angle_alpha	90.028419
_cell_angle_beta	90.016899
_cell_angle_gamma	90.027052
loop_
_atom_site_label
_atom_site_type_symbol
_atom_site_fract_x
_atom_site_fract_y
_atom_site_fract_z
Zn1	Zn	1.125048	-0.269516	0.416056
Zn2	Zn	1.124946	-0.382707	0.292989
Zn3	Zn	1.001980	-0.269532	0.293009
Zn4	Zn	1.001936	-0.382663	0.416020
O5	O	1.063478	-0.326105	0.354518
O6	O	1.228019	-0.284543	0.399737
O7	O	1.108610	-0.367719	0.190007
O8	O	1.018367	-0.174814	0.309356
O9	O	1.227944	-0.367703	0.309320
O10	O	1.108784	-0.174802	0.399757
O11	O	1.018268	-0.284570	0.190022
O12	O	0.898990	-0.284528	0.309321
O13	O	1.018291	-0.367629	0.519009
O14	O	0.898958	-0.367645	0.399696
O15	O	1.108741	-0.284500	0.519035
O16	O	1.108568	-0.477418	0.309285
O17	O	1.018193	-0.477386	0.399676
C18	C	0.872271	-0.326084	0.354507
C19	C	0.790472	-0.326091	0.354520
C20	C	0.525417	-0.369455	0.401512
C21	C	0.602276	-0.369449	0.401509
C22	C	0.602279	-0.282770	0.307538
C23	C	0.525422	-0.282779	0.307538
C24	C	0.486993	-0.326121	0.354529
C25	C	0.640709	-0.326106	0.354525
C26	C	0.724043	-0.326099	0.354521
C27	C	0.403654	-0.326129	0.354533
C28	C	1.063384	-0.501961	0.354490
C29	C	1.063412	-0.577193	0.354503
C30	C	1.110717	-1.038978	0.307555
C31	C	1.110682	-0.968289	0.307541
C32	C	1.063574	-0.932954	0.354557
C33	C	1.016492	-0.968311	0.401586
C34	C	1.016524	-1.038999	0.401596
C35	C	1.016364	-0.683238	0.401546
C36	C	1.016338	-0.612546	0.401534
C37	C	1.110523	-0.612529	0.307490
C38	C	1.110554	-0.683216	0.307500
C39	C	1.063470	-0.718567	0.354526
C40	C	1.063507	-0.795215	0.354540
C41	C	1.063540	-0.856307	0.354548
C42	C	1.255431	-0.326126	0.354530
C43	C	1.337229	-0.326135	0.354535
C44	C	1.063522	-0.326058	0.546471
C45	C	1.063542	-0.326038	0.628270
C46	C	1.063591	-0.149562	0.354563
C47	C	1.063640	-0.074330	0.354582
C48	C	1.063475	-0.326102	0.163312
C49	C	1.063599	-0.325932	0.081514
C50	C	1.110656	-0.282712	0.816479
C51	C	1.110664	-0.282693	0.893338
C52	C	1.016480	-0.369259	0.893299
C53	C	1.016468	-0.369275	0.816442
C54	C	1.063560	-0.326003	0.778034
C55	C	1.063581	-0.325967	0.931750
C56	C	1.063590	-0.325946	1.015084
C57	C	1.063550	-0.326023	0.694695
H58	H	0.494131	-0.404746	0.439775
H59	H	1.148859	-0.583739	0.269197
C60	C	0.533139	-0.197091	0.214653
C61	C	0.483180	-0.235141	0.255892
H62	H	0.507059	-0.167682	0.182774
H63	H	0.563096	-0.226544	0.186448
H64	H	0.563137	-0.171233	0.246772
H65	H	0.453186	-0.261003	0.223773
H66	H	0.453211	-0.205685	0.284100
C67	C	0.923374	-0.454851	0.824117
C68	C	0.964699	-0.416866	0.774177
H69	H	0.891419	-0.484232	0.798023
H70	H	0.895246	-0.425355	0.854097
H71	H	0.955435	-0.480737	0.854093
H72	H	0.932638	-0.390977	0.744204
H73	H	0.992830	-0.446366	0.744184
H74	H	1.149081	-1.067743	0.269273
C75	C	0.594548	-0.455120	0.494401
C76	C	0.644512	-0.417080	0.453157
H77	H	0.620624	-0.484523	0.526291
H78	H	0.564552	-0.480977	0.462291
H79	H	0.564589	-0.425655	0.522603
H80	H	0.674467	-0.446544	0.424951
H81	H	0.674520	-0.391220	0.485272
H82	H	1.148917	-0.711982	0.269217
H83	H	0.978132	-0.939538	0.439865
C84	C	1.203800	-0.975373	0.214597
C85	C	1.162438	-0.929430	0.255855
H86	H	1.235757	-0.951381	0.182692
H87	H	1.171769	-1.002983	0.186419
H88	H	1.231936	-1.002904	0.246703
H89	H	1.134298	-0.901902	0.223749
H90	H	1.194474	-0.901809	0.284036
H91	H	0.633578	-0.247482	0.269280
H92	H	1.149013	-0.247440	0.924637
H93	H	0.977974	-0.583777	0.439821
C94	C	0.923267	-0.676145	0.494509
C95	C	0.964615	-0.722090	0.453241
H96	H	0.891322	-0.700134	0.526427
H97	H	0.895127	-0.648616	0.462415
H98	H	0.955313	-0.648532	0.522680
H99	H	0.932569	-0.749699	0.425065
H100	H	0.992757	-0.749630	0.485338
C101	C	1.120917	-0.191686	0.730076
C102	C	1.162410	-0.235141	0.774260
H103	H	1.152869	-0.162319	0.704011
H104	H	1.088877	-0.165793	0.760063
H105	H	1.092872	-0.217479	0.696179
H106	H	1.190450	-0.209348	0.808161
H107	H	1.194462	-0.261037	0.744270
H108	H	0.978193	-1.067781	0.439894
H109	H	0.978140	-0.404491	0.924580
