data_functionalizedCrystal
_audit_creation_method	'MofGen! by Chris Wilmer'
_symmetry_space_group_name_H-M	'P1'
_symmetry_Int_Tables_number	1
_symmetry_cell_setting	triclinic
loop_
_symmetry_equiv_pos_as_xyz
  x,y,z
_cell_length_a	19.805407
_cell_length_b	13.897448
_cell_length_c	13.897441
_cell_angle_alpha	89.969401
_cell_angle_beta	89.977165
_cell_angle_gamma	90.017692
loop_
_atom_site_label
_atom_site_type_symbol
_atom_site_fract_x
_atom_site_fract_y
_atom_site_fract_z
Zn1	Zn	1.034798	-0.383984	-0.545435
Zn2	Zn	1.034724	-0.545306	-0.384137
Zn3	Zn	0.921607	-0.384026	-0.384148
Zn4	Zn	0.921594	-0.545239	-0.545383
O5	O	0.978181	-0.464639	-0.464776
O6	O	1.129505	-0.405394	-0.524056
O7	O	1.019693	-0.523957	-0.249156
O8	O	0.936658	-0.249039	-0.405569
O9	O	1.129451	-0.523916	-0.405550
O10	O	1.019820	-0.249008	-0.524066
O11	O	0.936586	-0.405466	-0.249165
O12	O	0.826888	-0.405401	-0.405519
O13	O	0.936636	-0.523802	-0.680372
O14	O	0.826879	-0.523843	-0.523978
O15	O	1.019807	-0.405329	-0.680410
O16	O	1.019681	-0.680279	-0.405500
O17	O	0.936564	-0.680229	-0.523967
C18	C	0.802325	-0.464620	-0.464745
C19	C	0.727093	-0.464636	-0.464754
C20	C	0.691761	-0.526401	-0.526336
C21	C	0.621073	-0.526403	-0.526350
C22	C	0.585717	-0.464643	-0.464776
C23	C	0.621053	-0.402871	-0.403191
C24	C	0.691741	-0.402865	-0.403183
C25	C	0.335980	-0.402892	-0.403223
C26	C	0.265288	-0.402905	-0.403234
C27	C	0.265313	-0.526430	-0.526389
C28	C	0.336000	-0.526424	-0.526381
C29	C	0.371330	-0.464649	-0.464801
C30	C	0.447978	-0.464646	-0.464788
C31	C	0.509070	-0.464650	-0.464783
C32	C	0.978131	-0.715253	-0.464748
C33	C	0.978172	-0.822467	-0.464768
C34	C	0.978243	-1.018762	-0.464829
C35	C	0.978202	-0.909530	-0.464798
C36	C	1.154723	-0.464658	-0.464808
C37	C	1.229955	-0.464666	-0.464821
C38	C	0.978229	-0.464554	-0.716369
C39	C	0.978249	-0.464517	-0.823583
C40	C	0.978249	-0.213046	-0.464825
C41	C	0.978278	-0.105832	-0.464846
C42	C	0.978268	-0.464452	-1.019878
C43	C	0.978255	-0.464491	-0.910646
C44	C	0.978172	-0.464654	-0.214161
C45	C	0.978283	-0.464419	-0.106948
H46	H	0.364783	-0.576719	-0.576518
H47	H	0.236538	-0.576727	-0.576535
C48	C	0.226778	-0.335960	-0.336406
C49	C	0.157312	-0.349218	-0.349571
C50	C	0.121815	-0.287586	-0.288014
H51	H	0.238288	-0.271122	-0.350566
H52	H	0.238304	-0.350012	-0.271552
H53	H	0.145790	-0.335159	-0.414410
H54	H	0.145782	-0.414043	-0.335404
H55	H	0.133341	-0.301638	-0.223160
H56	H	0.133331	-0.222752	-0.302180
H57	H	0.074679	-0.296579	-0.296931
H58	H	0.364737	-0.352598	-0.353073
C59	C	0.582632	-0.335973	-0.336224
C60	C	0.542033	-0.390516	-0.274289
C61	C	0.506637	-0.328924	-0.212576
H62	H	0.555021	-0.293977	-0.373090
H63	H	0.613777	-0.299200	-0.299491
H64	H	0.510891	-0.427273	-0.311018
H65	H	0.569627	-0.432511	-0.237401
H66	H	0.537782	-0.292150	-0.175843
H67	H	0.479030	-0.286930	-0.249451
H68	H	0.479091	-0.365922	-0.170541
C69	C	0.730069	-0.335930	-0.336156
C70	C	0.712854	-0.356838	-0.240683
C71	C	0.748155	-0.295203	-0.178912
H72	H	0.718531	-0.271102	-0.350257
H73	H	0.777237	-0.344780	-0.344907
H74	H	0.665696	-0.347979	-0.231937
H75	H	0.724393	-0.421654	-0.226552
H76	H	0.795323	-0.304053	-0.187662
H77	H	0.736614	-0.230378	-0.193021
H78	H	0.736484	-0.309386	-0.114126
C79	C	0.730022	-0.593493	-0.593296
C80	C	0.683947	-0.647564	-0.647249
C81	C	0.719166	-0.709368	-0.708956
H82	H	0.757581	-0.635561	-0.556432
H83	H	0.757603	-0.556662	-0.635437
H84	H	0.656378	-0.684392	-0.605113
H85	H	0.656387	-0.605521	-0.684133
H86	H	0.746747	-0.672538	-0.751097
H87	H	0.746723	-0.751430	-0.672084
H88	H	0.687910	-0.746057	-0.745576
H89	H	0.592309	-0.576700	-0.576495
