data_functionalizedCrystal
_audit_creation_method	'MofGen! by Chris Wilmer'
_symmetry_space_group_name_H-M	'P1'
_symmetry_Int_Tables_number	1
_symmetry_cell_setting	triclinic
loop_
_symmetry_equiv_pos_as_xyz
  x,y,z
_cell_length_a	14.044220
_cell_length_b	10.868271
_cell_length_c	11.792254
_cell_angle_alpha	89.994692
_cell_angle_beta	88.693738
_cell_angle_gamma	90.000690
loop_
_atom_site_label
_atom_site_type_symbol
_atom_site_fract_x
_atom_site_fract_y
_atom_site_fract_z
O1	O	1.259124	-0.102193	0.273770
O2	O	0.983103	-0.102224	0.263891
O3	O	1.127806	-0.102199	0.104289
O4	O	1.114422	-0.102218	0.433372
O5	O	1.127794	0.102446	0.104281
O6	O	0.983091	0.102421	0.263883
O7	O	1.259112	0.102452	0.273762
Zn8	Zn	1.121100	0.134928	0.268821
Zn9	Zn	1.121115	-0.134700	0.268832
O10	O	1.114410	0.102427	0.433364
C11	C	0.947761	0.000095	0.259563
C12	C	0.842468	0.000083	0.246664
N13	N	1.121096	0.318942	0.268814
N14	N	1.121127	-0.318714	0.268831
C15	C	0.649685	0.000109	0.223082
C16	C	0.592525	0.000109	0.314566
C17	C	0.485254	0.000123	0.301445
C18	C	0.756966	0.000095	0.236201
C19	C	1.294455	0.000131	0.278090
C20	C	1.399747	0.000135	0.290989
C21	C	1.126956	0.000123	0.061915
C22	C	1.124433	0.000122	-0.064335
C23	C	1.121110	0.569948	0.268829
C24	C	1.121099	0.430271	0.268824
C25	C	1.122383	0.000117	-0.166864
C26	C	1.119819	0.000106	-0.295491
C27	C	1.115259	0.000102	0.475738
C28	C	1.117782	0.000096	0.601988
H29	H	0.624152	0.000098	0.402743
F30	F	0.608348	0.000119	0.107835
