data_functionalizedCrystal
_audit_creation_method	'MofGen! by Chris Wilmer'
_symmetry_space_group_name_H-M	'P1'
_symmetry_Int_Tables_number	1
_symmetry_cell_setting	triclinic
loop_
_symmetry_equiv_pos_as_xyz
  x,y,z
_cell_length_a	6.817900
_cell_length_b	11.102188
_cell_length_c	16.255661
_cell_angle_alpha	93.854852
_cell_angle_beta	103.488922
_cell_angle_gamma	108.603875
loop_
_atom_site_label
_atom_site_type_symbol
_atom_site_fract_x
_atom_site_fract_y
_atom_site_fract_z
V1	V	-4.052929	-0.176865	-0.263871
O2	O	-4.013087	0.007443	-0.258848
O3	O	-4.030098	-0.349678	-0.262067
O4	O	-4.004157	-0.174608	-0.378954
O5	O	-4.039208	-0.168839	-0.141151
V6	V	-4.533292	-0.154765	-0.249193
O7	O	-4.321119	-0.225344	-0.296069
O8	O	-4.715300	-0.106287	-0.216995
O9	O	-4.332917	0.018048	-0.250997
O10	O	-4.690531	-0.339073	-0.254216
O11	O	-4.664411	-0.162792	-0.371913
O12	O	-4.358858	-0.157022	-0.134110
C13	C	-3.881331	-0.391792	-0.257904
C14	C	-3.943947	-0.533072	-0.257196
C15	C	-3.930405	-0.580995	-0.179361
C16	C	-3.989264	-0.713744	-0.178699
C17	C	-4.075197	-0.750636	-0.333712
C18	C	-4.016353	-0.617890	-0.334374
C19	C	-3.848239	-0.168471	-0.407005
C20	C	-3.889815	-0.167769	-0.501086
C21	C	-3.799128	-0.159385	-0.723905
C22	C	-3.971585	-0.267595	-0.793381
C23	C	-3.966004	-0.166453	-0.673335
C24	C	-3.867655	-0.057005	-0.771496
C25	C	-4.039583	-0.165176	-0.839718
C26	C	-4.137957	-0.274760	-0.741581
C27	C	-4.033950	-0.064074	-0.719680
C28	C	-4.206548	-0.172315	-0.789137
C29	C	-3.923612	-0.167190	-0.577485
C30	C	-4.081993	-0.164449	-0.935567
C31	C	-4.145028	0.060155	-0.255158
C32	C	-4.061649	0.201433	-0.255872
C33	C	-4.178119	-0.163164	-0.106055
C34	C	-4.115781	-0.163859	-0.011973
H35	H	-3.871450	-0.511938	-0.116518
H36	H	-3.626585	-0.154059	-0.695424
H37	H	-3.945667	-0.353640	-0.825467
H38	H	-4.251829	-0.366887	-0.728114
O39	O	-4.145814	-0.833169	-0.408629
C40	C	-4.356379	-0.917201	-0.416905
H41	H	-4.385883	-0.923125	-0.350851
H42	H	-4.476706	-0.879463	-0.458219
C43	C	-4.347754	-1.044696	-0.540496
C44	C	-4.383985	-1.051980	-0.459366
H45	H	-4.364788	-1.127833	-0.566691
H46	H	-4.205895	-0.988079	-0.534923
H47	H	-4.448031	-1.013242	-0.574913
H48	H	-4.283692	-1.083417	-0.424947
H49	H	-4.525828	-1.108605	-0.464935
H50	H	-3.978234	-0.752755	-0.115319
O51	O	-4.029545	-0.571542	-0.410060
C52	C	-4.106103	-0.674868	-0.478039
H53	H	-4.071868	-0.761837	-0.453384
H54	H	-4.286696	-0.700364	-0.505514
C55	C	-4.034071	-0.528998	-0.578766
C56	C	-3.992006	-0.635811	-0.548486
H57	H	-3.963701	-0.504906	-0.622224
H58	H	-3.982500	-0.459384	-0.532969
H59	H	-4.184568	-0.550259	-0.601656
H60	H	-3.841516	-0.614544	-0.525588
H61	H	-4.043550	-0.705421	-0.594282
O62	O	-3.731915	0.052695	-0.787846
C63	C	-3.774679	0.052418	-0.877019
H64	H	-3.856640	-0.050782	-0.911620
H65	H	-3.884609	0.110145	-0.897126
C66	C	-3.461509	0.240292	-0.858028
C67	C	-3.562159	0.113539	-0.900525
H68	H	-3.330420	0.277999	-0.872528
H69	H	-3.432701	0.240483	-0.797950
H70	H	-3.553140	0.288381	-0.874788
H71	H	-3.470540	0.065448	-0.883756
H72	H	-3.590947	0.113342	-0.960601
O73	O	-4.412683	-0.179093	-0.822946
C74	C	-4.554864	-0.293955	-0.807989
H75	H	-4.470038	-0.367302	-0.797577
H76	H	-4.607968	-0.273446	-0.748640
C77	C	-4.857214	-0.257966	-0.898674
C78	C	-4.753034	-0.348055	-0.885893
H79	H	-4.979460	-0.291336	-0.946727
H80	H	-4.761426	-0.180578	-0.908749
H81	H	-4.901447	-0.240883	-0.849211
H82	H	-4.708779	-0.365125	-0.935351
H83	H	-4.848820	-0.425447	-0.875829
H84	H	-4.059790	0.021975	-0.687572
