data_functionalizedCrystal
_audit_creation_method	'MofGen! by Chris Wilmer'
_symmetry_space_group_name_H-M	'P1'
_symmetry_Int_Tables_number	1
_symmetry_cell_setting	triclinic
loop_
_symmetry_equiv_pos_as_xyz
  x,y,z
_cell_length_a	12.594517
_cell_length_b	12.594516
_cell_length_c	12.759393
_cell_angle_alpha	90.029472
_cell_angle_beta	89.978001
_cell_angle_gamma	89.973469
loop_
_atom_site_label
_atom_site_type_symbol
_atom_site_fract_x
_atom_site_fract_y
_atom_site_fract_z
Zn1	Zn	1.627195	0.423685	-0.594095
Zn2	Zn	2.127195	0.923685	-0.094095
Zn3	Zn	1.627051	0.601704	-0.418421
Zn4	Zn	2.127051	1.101704	0.081579
Zn5	Zn	1.449197	0.423740	-0.418423
Zn6	Zn	1.949197	0.923740	0.081577
Zn7	Zn	1.449148	0.601621	-0.594052
Zn8	Zn	1.949148	1.101621	-0.094052
O9	O	1.538148	0.512688	-0.506248
O10	O	2.038148	1.012688	-0.006248
O11	O	1.776122	0.447312	-0.570808
O12	O	2.276122	0.947312	-0.070808
O13	O	1.603418	0.578155	-0.271400
O14	O	2.103418	1.078155	0.228600
O15	O	1.472890	0.274787	-0.441745
O16	O	1.972890	0.774787	0.058255
O17	O	1.776016	0.578102	-0.441742
O18	O	2.276016	1.078102	0.058258
O19	O	1.603664	0.274746	-0.570810
O20	O	2.103664	0.774746	-0.070810
O21	O	1.472750	0.447405	-0.271402
O22	O	1.972750	0.947405	0.228598
O23	O	1.300245	0.447324	-0.441704
O24	O	1.800245	0.947324	0.058296
O25	O	1.472806	0.577960	-0.741079
O26	O	1.972806	1.077960	-0.241079
O27	O	1.300209	0.578013	-0.570738
O28	O	1.800209	1.078013	-0.070738
O29	O	1.603617	0.447231	-0.741110
O30	O	2.103617	0.947231	-0.241110
O31	O	1.603371	0.750639	-0.441700
O32	O	2.103371	1.250639	0.058300
O33	O	1.472666	0.750578	-0.570735
O34	O	1.972666	1.250578	-0.070735
C35	C	1.261607	0.512666	-0.506217
C36	C	1.761607	1.012666	-0.006217
C37	C	1.143301	0.512683	-0.506229
C38	C	1.643301	1.012683	-0.006229
C39	C	1.074037	0.441504	-0.436181
C40	C	1.574037	0.941504	0.063819
C41	C	1.003207	0.538594	-0.410342
C42	C	1.503207	1.038594	0.089658
C43	C	1.003332	0.415640	-0.532085
C44	C	1.503332	0.915640	-0.032085
C45	C	1.074030	0.609824	-0.480340
C46	C	1.574030	1.109824	0.019660
C47	C	1.074161	0.486804	-0.602127
C48	C	1.574161	0.986804	-0.102127
C49	C	1.003363	0.583962	-0.576325
C50	C	1.503363	1.083962	-0.076325
C51	C	1.538026	0.789229	-0.506236
C52	C	2.038026	1.289229	-0.006236
C53	C	1.538072	0.907534	-0.506266
C54	C	2.038072	1.407534	-0.006266
C55	C	1.466962	0.976793	-0.576398
C56	C	1.966962	1.476793	-0.076398
C57	C	1.441014	1.047663	-0.480530
C58	C	1.941014	1.547663	0.019470
C59	C	1.564077	1.047463	-0.602150
C60	C	2.064077	1.547463	-0.102150
C61	C	1.512073	0.976846	-0.410347
C62	C	2.012073	1.476846	0.089653
C63	C	1.635181	0.976640	-0.532031
C64	C	2.135181	1.476640	-0.032031
C65	C	1.609270	1.047478	-0.436096
C66	C	2.109270	1.547478	0.063904
C67	C	1.815768	0.512710	-0.506280
C68	C	2.315768	1.012710	-0.006280
C69	C	1.934074	0.512719	-0.506293
C70	C	2.434074	1.012719	-0.006293
C71	C	1.538222	0.512580	-0.780281
C72	C	2.038222	1.012580	-0.280281
C73	C	1.538254	0.512534	-0.897058
C74	C	2.038254	1.012534	-0.397058
C75	C	1.538252	1.235067	-0.506281
C76	C	2.038252	1.735067	-0.006281
C77	C	1.538176	1.116761	-0.506292
C78	C	2.038176	1.616761	-0.006292
C79	C	1.606376	0.444457	-0.951938
C80	C	2.106376	0.944457	-0.451938
C81	C	1.606402	0.444419	-1.061662
C82	C	2.106402	0.944419	-0.561662
C83	C	1.470179	0.580544	-1.061617
C84	C	1.970179	1.080544	-0.561617
C85	C	1.470149	0.580576	-0.951894
C86	C	1.970149	1.080576	-0.451894
C87	C	1.674481	0.376416	-0.897102
C88	C	2.174481	0.876416	-0.397102
C89	C	1.742610	0.308334	-0.951982
C90	C	2.242610	0.808334	-0.451982
C91	C	1.742635	0.308295	-1.061706
C92	C	2.242635	0.808295	-0.561706
C93	C	1.674532	0.376339	-1.116550
C94	C	2.174532	0.876339	-0.616550
C95	C	1.538135	0.512718	-0.233281
C96	C	2.038135	1.012718	0.266719
C97	C	1.538309	0.512464	-0.116504
C98	C	2.038309	1.012464	0.383496
H99	H	1.105068	0.381369	-0.376871
H100	H	1.605068	0.881369	0.123129
H101	H	1.798050	0.252929	-0.907321
H102	H	2.298050	0.752929	-0.407321
Br103	Br	0.951963	0.684423	-0.675107
Br104	Br	1.451963	1.184423	-0.175107
H105	H	1.798101	0.252852	-1.106387
H106	H	2.298101	0.752852	-0.606387
Br107	Br	1.709581	1.098883	-0.337156
Br108	Br	2.209581	1.598883	0.162844
H109	H	0.972220	0.333568	-0.553892
H110	H	1.472220	0.833568	-0.053892
H111	H	0.972043	0.560505	-0.329270
H112	H	1.472043	1.060505	0.170730
Br113	Br	1.125567	0.746676	-0.443778
Br114	Br	1.625567	1.246676	0.056222
H115	H	1.414662	0.635994	-0.907210
H116	H	1.914662	1.135994	-0.407210
H117	H	1.105350	0.464864	-0.683175
H118	H	1.605350	0.964864	-0.183175
H119	H	1.674545	0.376290	-1.205895
H120	H	2.174545	0.876290	-0.705895
Br121	Br	1.366589	0.925058	-0.675111
Br122	Br	1.866589	1.425058	-0.175111
H123	H	1.358941	1.078883	-0.458759
H124	H	1.858941	1.578883	0.041241
Br125	Br	1.475329	0.925367	-0.275172
Br126	Br	1.975329	1.425367	0.224828
H127	H	1.717236	0.945423	-0.553848
H128	H	2.217236	1.445423	-0.053848
H129	H	1.414732	0.635941	-1.106279
H130	H	1.914732	1.135941	-0.606279
H131	H	1.586031	1.078482	-0.683227
H132	H	2.086031	1.578482	-0.183227
H133	H	1.674470	0.376442	-0.807759
H134	H	2.174470	0.876442	-0.307759
