data_functionalizedCrystal
_audit_creation_method	'MofGen! by Chris Wilmer'
_symmetry_space_group_name_H-M	'P1'
_symmetry_Int_Tables_number	1
_symmetry_cell_setting	triclinic
loop_
_symmetry_equiv_pos_as_xyz
  x,y,z
_cell_length_a	17.077404
_cell_length_b	14.908178
_cell_length_c	17.077396
_cell_angle_alpha	93.326565
_cell_angle_beta	90.018362
_cell_angle_gamma	93.311930
loop_
_atom_site_label
_atom_site_type_symbol
_atom_site_fract_x
_atom_site_fract_y
_atom_site_fract_z
Zn1	Zn	1.182045	-0.359235	0.425771
Zn2	Zn	1.174388	-0.510118	0.286925
Zn3	Zn	1.050776	-0.359261	0.294520
Zn4	Zn	1.043184	-0.510059	0.418154
O5	O	1.112598	-0.434668	0.356342
O6	O	1.290876	-0.379264	0.407362
O7	O	1.157963	-0.490142	0.178083
O8	O	1.074571	-0.233003	0.318297
O9	O	1.285250	-0.490117	0.305352
O10	O	1.171014	-0.232984	0.414727
O11	O	1.067146	-0.379308	0.183664
O12	O	0.939922	-0.379250	0.310911
O13	O	1.061631	-0.490016	0.529013
O14	O	0.934345	-0.490041	0.401745
O15	O	1.163652	-0.379207	0.534609
O16	O	1.150602	-0.636365	0.297966
O17	O	1.054206	-0.636321	0.394379
C18	C	0.908652	-0.434643	0.356326
C19	C	0.821401	-0.434653	0.356337
C20	C	0.783336	-0.377035	0.409525
C21	C	0.701355	-0.377041	0.409528
C22	C	0.657441	-0.434670	0.356346
C23	C	0.695512	-0.492291	0.303153
C24	C	0.777491	-0.492280	0.303146
C25	C	0.524641	-0.492312	0.303171
C26	C	0.442656	-0.492324	0.303178
C27	C	0.448505	-0.377072	0.409553
C28	C	0.530484	-0.377061	0.409546
C29	C	0.568549	-0.434684	0.356353
C30	C	1.100771	-0.669079	0.344539
C31	C	1.095783	-0.769361	0.339516
C32	C	1.186760	-0.957632	0.430596
C33	C	1.182076	-1.051856	0.425879
C34	C	1.081727	-1.052034	0.325369
C35	C	1.086411	-0.957810	0.330086
C36	C	1.138930	-0.910612	0.382700
C37	C	1.143617	-0.816387	0.387413
C38	C	1.043266	-0.816567	0.286907
C39	C	1.038582	-0.910791	0.282190
C40	C	1.317341	-0.434695	0.356359
C41	C	1.404590	-0.434706	0.356366
C42	C	1.112649	-0.434602	0.561090
C43	C	1.112671	-0.434573	0.648341
C44	C	1.124493	-0.199342	0.368209
C45	C	1.129562	-0.099060	0.373266
C46	C	1.112596	-0.434669	0.152395
C47	C	1.112739	-0.434443	0.065156
C48	C	1.165795	-0.376870	0.692247
C49	C	1.165806	-0.376840	0.774229
C50	C	1.112696	-0.434519	0.812304
C51	C	1.059566	-0.492224	0.768392
C52	C	1.059552	-0.492249	0.686412
C53	C	1.059600	-0.492170	0.939265
C54	C	1.059615	-0.492147	1.021251
C55	C	1.165854	-0.376761	1.027082
C56	C	1.165840	-0.376786	0.945102
C57	C	1.112711	-0.434493	0.901196
H58	H	0.819085	-0.330108	0.452833
C59	C	0.647212	-0.555685	0.244653
H60	H	0.681626	-0.589994	0.212971
H61	H	0.613263	-0.595044	0.272646
H62	H	0.616958	-0.521122	0.212240
H63	H	1.229528	-0.919203	0.473431
H64	H	1.186383	-0.777959	0.430252
H65	H	1.209067	-0.329855	0.809974
C66	C	0.819363	-0.555668	0.244646
H67	H	0.781469	-0.589999	0.212979
H68	H	0.853071	-0.521105	0.212229
H69	H	0.849371	-0.595020	0.272641
C70	C	1.224260	-0.313342	0.903221
H71	H	1.255899	-0.278964	0.941110
H72	H	1.256710	-0.347870	0.869503
H73	H	1.196207	-0.274035	0.873220
H74	H	1.209046	-0.329904	0.661253
C75	C	1.234693	-1.103574	0.478559
H76	H	1.266644	-1.061967	0.510563
H77	H	1.202819	-1.140336	0.510892
H78	H	1.267091	-1.140318	0.446717
H79	H	1.209113	-0.329772	1.062834
H80	H	0.670366	-0.330124	0.452840
H81	H	0.566237	-0.330139	0.452856
H82	H	1.016366	-0.539112	1.052249
H83	H	1.016325	-0.539147	0.903520
H84	H	1.038966	-1.090479	0.282536
H85	H	0.995820	-0.949232	0.239355
C86	C	1.001144	-0.555671	0.810268
H87	H	0.969498	-0.590035	0.772376
H88	H	1.029189	-0.594977	0.840270
H89	H	0.968690	-0.521139	0.843984
C90	C	0.990647	-0.764844	0.234224
H91	H	1.000953	-0.701968	0.244571
H92	H	1.001396	-0.780319	0.180718
H93	H	0.937126	-0.780328	0.244894
H94	H	1.016285	-0.539228	0.650665
H95	H	0.406902	-0.539252	0.259874
C96	C	0.406637	-0.313687	0.468062
H97	H	0.351524	-0.321938	0.460445
H98	H	0.419424	-0.326970	0.520114
H99	H	0.423123	-0.253045	0.459712
H100	H	0.555631	-0.539232	0.259854
