data_functionalizedCrystal
_audit_creation_method	'MofGen! by Chris Wilmer'
_symmetry_space_group_name_H-M	'P1'
_symmetry_Int_Tables_number	1
_symmetry_cell_setting	triclinic
loop_
_symmetry_equiv_pos_as_xyz
  x,y,z
_cell_length_a	18.215407
_cell_length_b	19.077068
_cell_length_c	18.215399
_cell_angle_alpha	92.268164
_cell_angle_beta	89.980167
_cell_angle_gamma	92.327501
loop_
_atom_site_label
_atom_site_type_symbol
_atom_site_fract_x
_atom_site_fract_y
_atom_site_fract_z
Zn1	Zn	1.113288	-0.280200	-0.427869
Zn2	Zn	1.613288	0.219800	0.072131
Zn3	Zn	1.108246	-0.397902	-0.309739
Zn4	Zn	1.608246	0.102098	0.190261
Zn5	Zn	0.990220	-0.280223	-0.304817
Zn6	Zn	1.490220	0.219777	0.195183
Zn7	Zn	0.985238	-0.397863	-0.432763
Zn8	Zn	1.485238	0.102137	0.067237
O9	O	1.049248	-0.339047	-0.368797
O10	O	1.549248	0.160953	0.131203
O11	O	1.215603	-0.295821	-0.412210
O12	O	1.715603	0.204179	0.087790
O13	O	1.092565	-0.382318	-0.206103
O14	O	1.592565	0.117682	0.293897
O15	O	1.010740	-0.181729	-0.317032
O16	O	1.510740	0.318271	0.182968
O17	O	1.211899	-0.382295	-0.325421
O18	O	1.711899	0.117705	0.174579
O19	O	1.101157	-0.181712	-0.407437
O20	O	1.601157	0.318288	0.092563
O21	O	1.005851	-0.295860	-0.202487
O22	O	1.505851	0.204140	0.297513
O23	O	0.886575	-0.295822	-0.321777
O24	O	1.386575	0.204178	0.178223
O25	O	1.002249	-0.382229	-0.535097
O26	O	1.502249	0.117771	-0.035097
O27	O	0.882915	-0.382251	-0.415778
O28	O	1.382915	0.117749	0.084222
O29	O	1.096327	-0.295783	-0.531501
O30	O	1.596327	0.204217	-0.031501
O31	O	1.087734	-0.496388	-0.330167
O32	O	1.587734	0.003612	0.169833
O33	O	0.997361	-0.496359	-0.420551
O34	O	1.497361	0.003641	0.079449
C35	C	0.858042	-0.339035	-0.368775
C36	C	1.358042	0.160965	0.131225
C37	C	0.776243	-0.339047	-0.368784
C38	C	1.276243	0.160953	0.131216
C39	C	0.586159	-0.384121	-0.417674
C40	C	1.086159	0.115879	0.082326
C41	C	0.509301	-0.384124	-0.417684
C42	C	1.009301	0.115876	0.082316
C43	C	0.513088	-0.293986	-0.319936
C44	C	1.013088	0.206014	0.180064
C45	C	0.589945	-0.293980	-0.319931
C46	C	1.089945	0.206020	0.180069
C47	C	0.626479	-0.339052	-0.368799
C48	C	1.126479	0.160948	0.131201
C49	C	0.472763	-0.339060	-0.368814
C50	C	0.972763	0.160940	0.131186
C51	C	0.389429	-0.339062	-0.368823
C52	C	0.889429	0.160938	0.131177
C53	C	0.709818	-0.339050	-0.368791
C54	C	1.209818	0.160950	0.131209
C55	C	1.041480	-0.521911	-0.376440
C56	C	1.541480	-0.021911	0.123560
C57	C	1.038224	-0.600141	-0.379735
C58	C	1.538224	-0.100141	0.120265
C59	C	1.083783	-0.636886	-0.334263
C60	C	1.583783	-0.136886	0.165737
C61	C	1.080725	-0.710391	-0.337366
C62	C	1.580725	-0.210391	0.162634
C63	C	1.032104	-0.747151	-0.385937
C64	C	1.532104	-0.247151	0.114063
C65	C	0.986542	-0.710401	-0.431414
C66	C	1.486542	-0.210401	0.068586
C67	C	0.989604	-0.636897	-0.428314
C68	C	1.489604	-0.136897	0.071686
C69	C	1.017899	-0.966985	-0.400254
C70	C	1.517899	-0.466985	0.099746
C71	C	1.014839	-1.040495	-0.403348
C72	C	1.514839	-0.540495	0.096652
C73	C	1.109023	-1.040479	-0.309301
C74	C	1.609023	-0.540479	0.190699
C75	C	1.112078	-0.966974	-0.306202
C76	C	1.612078	-0.466974	0.193798
C77	C	1.066520	-0.930231	-0.351682
C78	C	1.566520	-0.430231	0.148318
N79	N	1.028975	-0.822285	-0.389109
N80	N	1.528975	-0.322285	0.110891
N81	N	1.069652	-0.855098	-0.348514
N82	N	1.569652	-0.355098	0.151486
C83	C	1.241200	-0.339060	-0.368819
C84	C	1.741200	0.160940	0.131181
C85	C	1.322999	-0.339065	-0.368828
C86	C	1.822999	0.160935	0.131172
C87	C	1.049295	-0.338999	-0.560748
C88	C	1.549295	0.161001	-0.060748
C89	C	1.049315	-0.338978	-0.642546
C90	C	1.549315	0.161022	-0.142546
C91	C	1.057067	-0.155469	-0.361140
C92	C	1.557067	0.344531	0.138860
C93	C	1.060398	-0.077239	-0.357877
C94	C	1.560398	0.422761	0.142123
C95	C	1.098320	-0.293923	-0.828867
C96	C	1.598320	0.206077	-0.328867
C97	C	1.098329	-0.293903	-0.905725
C98	C	1.598329	0.206097	-0.405725
C99	C	1.000366	-0.383924	-0.909458
C100	C	1.500366	0.116076	-0.409458
C101	C	1.000354	-0.383940	-0.832601
C102	C	1.500354	0.116060	-0.332601
C103	C	1.049335	-0.338941	-0.792308
C104	C	1.549335	0.161059	-0.292308
C105	C	1.049357	-0.338904	-0.946023
C106	C	1.549357	0.161096	-0.446023
C107	C	1.049367	-0.338882	-1.029355
C108	C	1.549367	0.161118	-0.529355
C109	C	1.049324	-0.338962	-0.708970
C110	C	1.549324	0.161038	-0.208970
C111	C	1.049246	-0.339045	-0.177591
C112	C	1.549246	0.160955	0.322409
C113	C	1.049377	-0.338867	-0.095785
C114	C	1.549377	0.161133	0.404215
H115	H	0.476476	-0.420822	-0.457484
H116	H	0.976476	0.079178	0.042516
H117	H	1.138217	-0.257244	-0.935488
H118	H	1.638217	0.242756	-0.435488
C119	C	0.672216	-0.394010	-0.517055
C120	C	1.172216	0.105990	-0.017055
C121	C	0.626321	-0.433657	-0.471395
C122	C	1.126321	0.066343	0.028605
H123	H	0.697011	-0.424592	-0.550218
H124	H	1.197011	0.075408	-0.050218
H125	H	0.643544	-0.363386	-0.543974
H126	H	1.143544	0.136614	-0.043974
H127	H	0.707227	-0.367172	-0.487936
H128	H	1.207227	0.132828	0.012064
H129	H	0.591306	-0.460491	-0.500513
H130	H	1.091306	0.039509	-0.000513
H131	H	0.654995	-0.464293	-0.444473
H132	H	1.154995	0.035707	0.055527
H133	H	1.146116	-1.070403	-0.272275
H134	H	1.646116	-0.570403	0.227725
H135	H	1.138201	-0.257280	-0.796062
H136	H	1.638201	0.242720	-0.296062
H137	H	0.952506	-0.606981	-0.465343
H138	H	1.452506	-0.106981	0.034657
C139	C	0.922059	-1.033131	-0.496019
C140	C	1.422059	-0.533131	0.003981
C141	C	0.961397	-1.080903	-0.456750
C142	C	1.461397	-0.580903	0.043250
H143	H	0.889072	-1.058079	-0.528987
H144	H	1.389072	-0.558079	-0.028987
H145	H	0.895114	-1.004507	-0.462728
H146	H	1.395114	-0.504507	0.037272
H147	H	0.955314	-1.004416	-0.522983
H148	H	1.455314	-0.504416	-0.022983
H149	H	0.928142	-1.109615	-0.429781
H150	H	1.428142	-0.609615	0.070219
H151	H	0.988343	-1.109539	-0.490045
H152	H	1.488343	-0.609539	0.009955
H153	H	0.960490	-0.420562	-0.942274
H154	H	1.460490	0.079438	-0.442274
C155	C	0.903526	-0.472931	-0.844005
C156	C	1.403526	0.027069	-0.344005
C157	C	0.946508	-0.433431	-0.792410
C158	C	1.446508	0.066569	-0.292410
H159	H	0.870288	-0.503484	-0.819191
H160	H	1.370288	-0.003484	-0.319191
H161	H	0.876684	-0.442261	-0.872697
H162	H	1.376684	0.057739	-0.372697
H163	H	0.934456	-0.499847	-0.875112
H164	H	1.434456	0.000153	-0.375112
H165	H	0.915577	-0.406511	-0.761306
H166	H	1.415577	0.093489	-0.261306
H167	H	0.973351	-0.464105	-0.763705
H168	H	1.473351	0.035895	-0.263705
C169	C	1.120646	-0.614315	-0.208726
C170	C	1.620646	-0.114315	0.291274
C171	C	1.137230	-0.596483	-0.280870
C172	C	1.637230	-0.096483	0.219130
H173	H	1.153647	-0.589376	-0.175765
H174	H	1.653647	-0.089376	0.324235
H175	H	1.071712	-0.602311	-0.197409
H176	H	1.571712	-0.102311	0.302591
H177	H	1.125344	-0.663352	-0.204076
H178	H	1.625344	-0.163352	0.295924
H179	H	1.132527	-0.547447	-0.285522
H180	H	1.632527	-0.047447	0.214478
H181	H	1.186176	-0.608482	-0.292191
H182	H	1.686176	-0.108482	0.207809
H183	H	0.483333	-0.257291	-0.280148
H184	H	0.983333	0.242709	0.219852
H185	H	0.622775	-0.257275	-0.280130
H186	H	1.122775	0.242725	0.219870
H187	H	1.117824	-0.740305	-0.300338
H188	H	1.617824	-0.240305	0.199662
C189	C	0.980773	-0.854323	-0.437272
C190	C	1.480773	-0.354323	0.062728
C191	C	0.967819	-0.926603	-0.450240
C192	C	1.467819	-0.426603	0.049760
H193	H	0.949856	-0.829391	-0.468137
H194	H	1.449856	-0.329391	0.031863
H195	H	0.970529	-0.842318	-0.387317
H196	H	1.470529	-0.342318	0.112683
H197	H	1.030719	-0.842238	-0.447581
H198	H	1.530719	-0.342238	0.052419
H199	H	0.917874	-0.938689	-0.439926
H200	H	1.417874	-0.438689	0.060074
H201	H	0.978057	-0.938612	-0.500208
H202	H	1.478057	-0.438612	-0.000208
C203	C	1.204883	-0.974345	-0.213566
C204	C	1.704883	-0.474345	0.286434
C205	C	1.165534	-0.926570	-0.252820
C206	C	1.665534	-0.426570	0.247180
H207	H	1.237888	-0.949399	-0.180614
H208	H	1.737888	-0.449399	0.319386
H209	H	1.171642	-1.003054	-0.186592
H210	H	1.671642	-0.503054	0.313408
H211	H	1.231816	-1.002974	-0.246873
H212	H	1.731816	-0.502974	0.253127
H213	H	1.138597	-0.897943	-0.219513
H214	H	1.638597	-0.397943	0.280487
H215	H	1.198780	-0.897849	-0.279795
H216	H	1.698780	-0.397849	0.220205
C217	C	0.893759	-0.703028	-0.524070
C218	C	1.393759	-0.203028	-0.024070
C219	C	0.933098	-0.750805	-0.484809
C220	C	1.433098	-0.250805	0.015191
H221	H	0.860768	-0.727972	-0.557037
H222	H	1.360768	-0.227972	-0.057037
H223	H	0.866820	-0.674405	-0.490774
H224	H	1.366820	-0.174405	0.009226
H225	H	0.927013	-0.674313	-0.551035
H226	H	1.427013	-0.174313	-0.051035
H227	H	0.899845	-0.779517	-0.457839
H228	H	1.399845	-0.279517	0.042161
H229	H	0.960040	-0.779441	-0.518109
H230	H	1.460040	-0.279441	-0.018109
