data_functionalizedCrystal
_audit_creation_method	'MofGen! by Chris Wilmer'
_symmetry_space_group_name_H-M	'P1'
_symmetry_Int_Tables_number	1
_symmetry_cell_setting	triclinic
loop_
_symmetry_equiv_pos_as_xyz
  x,y,z
_cell_length_a	19.188930
_cell_length_b	19.188930
_cell_length_c	14.586319
_cell_angle_alpha	89.991095
_cell_angle_beta	89.982618
_cell_angle_gamma	83.144779
loop_
_atom_site_label
_atom_site_type_symbol
_atom_site_fract_x
_atom_site_fract_y
_atom_site_fract_z
O1	O	0.926144	0.087167	-0.076545
O2	O	1.426144	0.587167	0.423455
O3	O	0.722833	0.098901	-0.076484
O4	O	1.222833	0.598901	0.423516
O5	O	0.830355	-0.008622	-0.076498
O6	O	1.330355	0.491378	0.423502
O7	O	0.818621	0.194690	-0.076531
O8	O	1.318621	0.694690	0.423469
O9	O	0.830348	-0.008623	0.075982
O10	O	1.330348	0.491377	0.575982
O11	O	0.722825	0.098899	0.075997
O12	O	1.222825	0.598899	0.575997
O13	O	0.926136	0.087165	0.075936
O14	O	1.426136	0.587165	0.575936
Cu15	Cu	0.824480	0.093032	0.089889
Cu16	Cu	1.324480	0.593032	0.589889
Cu17	Cu	0.824489	0.093034	-0.090437
Cu18	Cu	1.324489	0.593034	0.409563
O19	O	0.818614	0.194688	0.075950
O20	O	1.318614	0.694688	0.575950
C21	C	0.696818	0.098520	-0.000235
C22	C	1.196818	0.598520	0.499765
C23	C	0.619313	0.097380	-0.000211
C24	C	1.119313	0.597380	0.499789
C25	C	0.574389	0.160470	-0.000235
C26	C	1.074389	0.660470	0.499765
C27	C	0.501566	0.159399	-0.000245
C28	C	1.001566	0.659399	0.499755
C29	C	0.473669	0.095233	-0.000249
C30	C	0.973669	0.595233	0.499751
C31	C	0.518603	0.032133	-0.000220
C32	C	1.018603	0.532133	0.499780
C33	C	0.591425	0.033207	-0.000201
C34	C	1.091425	0.533207	0.499799
N35	N	0.365691	0.046186	-0.052174
N36	N	0.865691	0.546186	0.447826
N37	N	0.296513	0.045171	-0.052194
N38	N	0.796513	0.545171	0.447806
C39	C	0.254260	0.091994	-0.000305
C40	C	0.754260	0.591994	0.499695
N41	N	0.283799	0.139883	0.051594
N42	N	0.783799	0.639883	0.551594
N43	N	0.352983	0.140900	0.051610
N44	N	0.852983	0.640900	0.551610
C45	C	0.394707	0.094062	-0.000269
C46	C	0.894707	0.594062	0.499731
C47	C	0.130372	0.153928	-0.000339
C48	C	0.630372	0.653928	0.499661
C49	C	0.057547	0.152853	-0.000343
C50	C	0.557547	0.652853	0.499657
C51	C	0.074586	0.025586	-0.000326
C52	C	0.574586	0.525586	0.499674
C53	C	0.147409	0.026662	-0.000313
C54	C	0.647409	0.526662	0.499687
C55	C	0.175298	0.090835	-0.000323
C56	C	0.675298	0.590835	0.499677
C57	C	0.829972	-0.034634	-0.000255
C58	C	1.329972	0.465366	0.499745
C59	C	0.828831	-0.112138	-0.000247
C60	C	1.328831	0.387862	0.499753
C61	C	0.891922	-0.157062	-0.000262
C62	C	1.391922	0.342938	0.499738
C63	C	0.890850	-0.229886	-0.000276
C64	C	1.390850	0.270114	0.499724
C65	C	0.826684	-0.257782	-0.000257
C66	C	1.326684	0.242218	0.499743
C67	C	0.763585	-0.212849	-0.000248
C68	C	1.263585	0.287151	0.499752
C69	C	0.764658	-0.140026	-0.000243
C70	C	1.264658	0.359974	0.499757
N71	N	0.777634	-0.365788	0.051650
N72	N	1.277634	0.134212	0.551650
N73	N	0.776619	-0.434967	0.051647
N74	N	1.276619	0.065033	0.551647
C75	C	0.823446	-0.477191	-0.000275
C76	C	1.323446	0.022809	0.499725
N77	N	0.871338	-0.447625	-0.052182
N78	N	1.371338	0.052375	0.447818
N79	N	0.872355	-0.378440	-0.052175
N80	N	1.372355	0.121560	0.447825
C81	C	0.825513	-0.336745	-0.000264
C82	C	1.325513	0.163255	0.499736
C83	C	0.885379	-0.601079	-0.000306
C84	C	1.385379	-0.101079	0.499694
C85	C	0.884305	-0.673904	-0.000327
C86	C	1.384305	-0.173904	0.499673
C87	C	0.757038	-0.656865	-0.000289
C88	C	1.257038	-0.156865	0.499711
C89	C	0.758114	-0.584042	-0.000278
C90	C	1.258114	-0.084042	0.499722
C91	C	0.822286	-0.556154	-0.000283
C92	C	1.322286	-0.056154	0.499717
C93	C	0.952151	0.087546	-0.000315
C94	C	1.452151	0.587546	0.499685
C95	C	1.029656	0.088687	-0.000345
C96	C	1.529656	0.588687	0.499655
C97	C	0.818997	0.220700	-0.000295
C98	C	1.318997	0.720700	0.499705
C99	C	0.820138	0.298204	-0.000309
C100	C	1.320138	0.798204	0.499691
N101	N	0.824479	0.093030	0.216721
N102	N	1.324479	0.593030	0.716721
N103	N	0.824496	0.093030	-0.217269
N104	N	1.324496	0.593030	0.282731
C105	C	0.872106	0.045435	0.451721
C106	C	1.372106	0.545435	0.951721
C107	C	0.872108	0.045433	0.547702
C108	C	1.372108	0.545433	1.047702
C109	C	0.776864	0.140628	0.547724
C110	C	1.276864	0.640628	1.047724
C111	C	0.776859	0.140626	0.451745
C112	C	1.276859	0.640626	0.951745
C113	C	0.824484	0.093030	0.403745
C114	C	1.324484	0.593030	0.903745
C115	C	0.824491	0.093031	0.595706
C116	C	1.324491	0.593031	1.095706
C117	C	0.824493	0.093029	0.699773
C118	C	1.324493	0.593029	1.199773
C119	C	0.824481	0.093030	0.299672
C120	C	1.324481	0.593030	0.799672
H121	H	0.464982	0.210776	-0.000263
H122	H	0.964982	0.710776	0.499737
C123	C	0.923742	-0.006198	0.399440
C124	C	1.423742	0.493802	0.899440
C125	C	0.913545	0.003982	0.305116
C126	C	1.413545	0.503982	0.805116
C127	C	0.961090	-0.043582	0.256930
C128	C	1.461090	0.456418	0.756930
H129	H	0.916313	-0.052794	0.415100
H130	H	1.416313	0.447206	0.915100
H131	H	0.970344	0.001238	0.415069
H132	H	1.470344	0.501238	0.915069
H133	H	0.866953	-0.003460	0.289494
H134	H	1.366953	0.496540	0.789494
H135	H	0.920979	0.050568	0.289429
H136	H	1.420979	0.550568	0.789429
H137	H	1.007692	-0.036145	0.272559
H138	H	1.507692	0.463855	0.772559
H139	H	0.953657	-0.090174	0.272597
H140	H	1.453657	0.409826	0.772597
H141	H	0.954182	-0.036677	0.192927
H142	H	1.454182	0.463323	0.692927
H143	H	0.738090	0.179380	0.586815
H144	H	1.238090	0.679380	1.086815
H145	H	0.183988	-0.024713	-0.000298
H146	H	0.683988	0.475287	0.499702
C147	C	0.959277	-0.278788	-0.000330
C148	C	1.459277	0.221212	0.499670
C149	C	0.944600	-0.348531	-0.000352
C150	C	1.444600	0.151469	0.499648
C151	C	1.007616	-0.393597	-0.000412
C152	C	1.507616	0.106403	0.499588
H153	H	0.985641	-0.270452	0.052827
H154	H	1.485641	0.229548	0.552827
H155	H	0.985613	-0.270391	-0.053527
H156	H	1.485613	0.229609	0.446473
H157	H	0.918275	-0.356925	0.052839
H158	H	1.418275	0.143075	0.552839
H159	H	0.918246	-0.356890	-0.053505
H160	H	1.418246	0.143110	0.446495
H161	H	1.033952	-0.385200	-0.053609
H162	H	1.533952	0.114800	0.446391
H163	H	1.033975	-0.385254	0.052746
H164	H	1.533975	0.114746	0.552746
H165	H	0.997667	-0.440922	-0.000435
H166	H	1.497667	0.059078	0.499565
H167	H	0.935683	-0.710481	-0.000344
H168	H	1.435683	-0.210481	0.499656
H169	H	0.704792	-0.679578	-0.000278
H170	H	1.204792	-0.179578	0.499722
H171	H	0.713281	-0.103449	-0.000230
H172	H	1.213281	0.396551	0.499770
H173	H	0.051874	-0.026659	-0.000386
H174	H	0.551874	0.473341	0.499614
H175	H	0.738076	0.179383	0.412681
H176	H	1.238076	0.679383	0.912681
C177	C	0.160751	0.223548	-0.000190
C178	C	0.660751	0.723548	0.499810
C179	C	0.202047	0.227870	0.078255
C180	C	0.702047	0.727870	0.578255
C181	C	0.230047	0.291990	0.078419
C182	C	0.730047	0.791990	0.578419
H183	H	0.123633	0.261030	-0.000150
H184	H	0.623633	0.761030	0.499850
H185	H	0.188863	0.226624	-0.053330
H186	H	0.688863	0.726624	0.446670
H187	H	0.173937	0.224800	0.131381
H188	H	0.673937	0.724800	0.631381
H189	H	0.239175	0.190403	0.078231
H190	H	0.739175	0.690403	0.578231
H191	H	0.258159	0.295066	0.025279
H192	H	0.758159	0.795066	0.525279
H193	H	0.192925	0.329466	0.078457
H194	H	0.692925	0.829466	0.578457
H195	H	0.258075	0.294928	0.131639
H196	H	0.758075	0.794928	0.631639
H197	H	0.910885	0.006677	0.586761
H198	H	1.410885	0.506677	1.086761
H199	H	0.937632	-0.578372	-0.000314
H200	H	1.437632	-0.078372	0.499686
H201	H	0.706738	-0.547464	-0.000261
H202	H	1.206738	-0.047464	0.499739
C203	C	0.604532	0.230213	-0.000188
C204	C	1.104532	0.730213	0.499812
C205	C	0.549596	0.285237	-0.000187
C206	C	1.049596	0.785237	0.499813
C207	C	0.577338	0.349493	-0.000128
C208	C	1.077338	0.849493	0.499872
H209	H	0.632597	0.233379	-0.053338
H210	H	1.132597	0.733379	0.446662
H211	H	0.632543	0.233315	0.053015
H212	H	1.132543	0.733315	0.553015
H213	H	0.521597	0.282137	-0.053385
H214	H	1.021597	0.782137	0.446615
H215	H	0.521527	0.282094	0.052959
H216	H	1.021527	0.782094	0.552959
H217	H	0.605349	0.352594	0.053076
H218	H	1.105349	0.852594	0.553076
H219	H	0.605403	0.352652	-0.053279
H220	H	1.105403	0.852652	0.446721
H221	H	0.540069	0.386834	-0.000119
H222	H	1.040069	0.886834	0.499881
C223	C	0.488359	-0.037555	-0.000039
C224	C	0.988359	0.462445	0.499961
C225	C	0.511164	-0.075676	0.078432
C226	C	1.011164	0.424324	0.578432
C227	C	0.483311	-0.139874	0.078640
C228	C	0.983311	0.360126	0.578640
H229	H	0.503797	-0.063607	-0.053142
H230	H	1.003797	0.436393	0.446858
H231	H	0.438551	-0.029188	-0.000007
H232	H	0.938551	0.470812	0.499993
H233	H	0.560961	-0.084045	0.078392
H234	H	1.060961	0.415955	0.578392
H235	H	0.495727	-0.049645	0.131548
H236	H	0.995727	0.450355	0.631548
H237	H	0.433503	-0.131508	0.078671
H238	H	0.933503	0.368492	0.578671
H239	H	0.498751	-0.165921	0.025533
H240	H	0.998751	0.334079	0.525533
H241	H	0.498775	-0.165745	0.131885
H242	H	0.998775	0.334255	0.631885
C243	C	0.008885	0.221432	-0.000414
C244	C	0.508885	0.721432	0.499586
C245	C	0.048899	0.277857	-0.000444
C246	C	0.548899	0.777857	0.499556
C247	C	0.004095	0.341042	-0.000521
C248	C	0.504095	0.841042	0.499479
H249	H	-0.019912	0.223761	0.052739
H250	H	0.480088	0.723761	0.552739
H251	H	-0.019849	0.223694	-0.053614
H252	H	0.480151	0.723694	0.446386
H253	H	0.077621	0.275596	0.052752
H254	H	0.577621	0.775596	0.552752
H255	H	0.077694	0.275551	-0.053593
H256	H	0.577694	0.775551	0.446407
H257	H	-0.024639	0.343304	-0.053722
H258	H	0.475361	0.843304	0.446278
H259	H	-0.024699	0.343365	0.052633
H260	H	0.475301	0.843365	0.552633
H261	H	0.031238	0.379334	-0.000550
H262	H	0.531238	0.879334	0.499450
C263	C	0.961665	-0.126919	-0.000320
C264	C	1.461665	0.373081	0.499680
C265	C	1.016688	-0.181855	-0.000359
C266	C	1.516688	0.318145	0.499641
C267	C	1.080944	-0.154113	-0.000426
C268	C	1.580944	0.345887	0.499574
H269	H	0.964825	-0.098884	0.052840
H270	H	1.464825	0.401116	0.552840
H271	H	0.964772	-0.098879	-0.053514
H272	H	1.464772	0.401121	0.446486
H273	H	1.013582	-0.209884	0.052830
H274	H	1.513582	0.290116	0.552830
H275	H	1.013551	-0.209895	-0.053515
H276	H	1.513551	0.290105	0.446485
H277	H	1.084052	-0.126072	-0.053620
H278	H	1.584052	0.373928	0.446380
H279	H	1.084097	-0.126078	0.052735
H280	H	1.584097	0.373922	0.552735
H281	H	1.118285	-0.191382	-0.000461
H282	H	1.618285	0.308618	0.499539
C283	C	0.640171	-0.035318	-0.000371
C284	C	1.140171	0.464682	0.499629
C285	C	0.627635	-0.073959	-0.078829
C286	C	1.127635	0.426041	0.421171
C287	C	0.672534	-0.137083	-0.079026
C288	C	1.172534	0.362917	0.420974
H289	H	0.631761	-0.061724	0.052741
H290	H	1.131761	0.438276	0.552741
H291	H	0.687546	-0.025518	-0.000413
H292	H	1.187546	0.474482	0.499587
H293	H	0.580271	-0.083761	-0.078779
H294	H	1.080271	0.416239	0.421221
H295	H	0.636050	-0.047574	-0.131954
H296	H	1.136050	0.452426	0.368046
H297	H	0.719909	-0.127283	-0.079068
H298	H	1.219909	0.372717	0.420932
H299	H	0.664120	-0.163483	-0.025910
H300	H	1.164120	0.336517	0.474090
H301	H	0.664039	-0.163306	-0.132263
H302	H	1.164039	0.336694	0.367737
H303	H	0.711340	-0.235567	-0.000235
H304	H	1.211340	0.264433	0.499765
