data_functionalizedCrystal
_audit_creation_method	'MofGen! by Chris Wilmer'
_symmetry_space_group_name_H-M	'P1'
_symmetry_Int_Tables_number	1
_symmetry_cell_setting	triclinic
loop_
_symmetry_equiv_pos_as_xyz
  x,y,z
_cell_length_a	17.077404
_cell_length_b	19.805405
_cell_length_c	17.077395
_cell_angle_alpha	89.972297
_cell_angle_beta	89.984359
_cell_angle_gamma	90.026951
loop_
_atom_site_label
_atom_site_type_symbol
_atom_site_fract_x
_atom_site_fract_y
_atom_site_fract_z
Zn1	Zn	1.200004	-0.269468	-0.443840
Zn2	Zn	1.533337	0.063866	-0.110507
Zn3	Zn	1.866670	0.397199	0.222827
Zn4	Zn	1.199911	-0.382658	-0.312573
Zn5	Zn	1.533244	-0.049325	0.020760
Zn6	Zn	1.866578	0.284009	0.354094
Zn7	Zn	1.068744	-0.269489	-0.312588
Zn8	Zn	1.402078	0.063845	0.020745
Zn9	Zn	1.735411	0.397178	0.354079
Zn10	Zn	1.068695	-0.382620	-0.443797
Zn11	Zn	1.402028	-0.049287	-0.110463
Zn12	Zn	1.735361	0.284046	0.222870
O13	O	1.134338	-0.326059	-0.378199
O14	O	1.467672	0.007275	-0.044866
O15	O	1.801005	0.340608	0.288467
O16	O	1.309838	-0.284489	-0.426439
O17	O	1.643172	0.048844	-0.093106
O18	O	1.976505	0.382177	0.240228
O19	O	1.182493	-0.367671	-0.202728
O20	O	1.515827	-0.034337	0.130605
O21	O	1.849160	0.298996	0.463939
O22	O	1.086216	-0.174769	-0.330023
O23	O	1.419549	0.158564	0.003310
O24	O	1.752883	0.491897	0.336643
O25	O	1.309770	-0.367650	-0.329998
O26	O	1.643103	-0.034317	0.003336
O27	O	1.976437	0.299017	0.336669
O28	O	1.182652	-0.174754	-0.426454
O29	O	1.515985	0.158580	-0.093120
O30	O	1.849318	0.491913	0.240213
O31	O	1.086126	-0.284526	-0.202739
O32	O	1.419459	0.048808	0.130594
O33	O	1.752793	0.382141	0.463928
O34	O	0.958891	-0.284489	-0.329981
O35	O	1.292224	0.048844	0.003352
O36	O	1.625558	0.382178	0.336685
O37	O	1.086131	-0.367586	-0.553649
O38	O	1.419465	-0.034252	-0.220316
O39	O	1.752798	0.299081	0.113017
O40	O	0.958854	-0.367606	-0.426380
O41	O	1.292188	-0.034273	-0.093046
O42	O	1.625521	0.299060	0.240287
O43	O	1.182603	-0.284453	-0.553681
O44	O	1.515937	0.048880	-0.220348
O45	O	1.849270	0.382214	0.112985
O46	O	1.182445	-0.477370	-0.329956
O47	O	1.515778	-0.144036	0.003378
O48	O	1.849112	0.189297	0.336711
O49	O	1.086041	-0.477342	-0.426365
O50	O	1.419375	-0.144009	-0.093032
O51	O	1.752708	0.189325	0.240302
C52	C	0.930391	-0.326046	-0.378178
C53	C	1.263724	0.007287	-0.044844
C54	C	1.597057	0.340620	0.288489
C55	C	0.843141	-0.326057	-0.378187
C56	C	1.176474	0.007276	-0.044854
C57	C	1.509807	0.340609	0.288480
C58	C	1.134249	-0.501915	-0.378171
C59	C	1.467582	-0.168581	-0.044838
C60	C	1.800916	0.164752	0.288496
C61	C	1.134283	-0.577147	-0.378185
C62	C	1.467616	-0.243813	-0.044852
C63	C	1.800949	0.089520	0.288482
C64	C	0.802152	-0.369402	-0.428301
C65	C	1.135486	-0.036069	-0.094968
C66	C	1.468819	0.297265	0.238365
C67	C	0.720172	-0.369403	-0.428314
C68	C	1.053505	-0.036070	-0.094980
C69	C	1.386838	0.297263	0.238353
C70	C	0.679181	-0.326063	-0.378208
C71	C	1.012515	0.007270	-0.044874
C72	C	1.345848	0.340603	0.288459
C73	C	0.720176	-0.282714	-0.328091
C74	C	1.053509	0.050619	0.005242
C75	C	1.386842	0.383953	0.338575
C76	C	0.802155	-0.282710	-0.328083
C77	C	1.135488	0.050624	0.005250
C78	C	1.468821	0.383957	0.338583
C79	C	0.549306	-0.282727	-0.328110
C80	C	0.882639	0.050606	0.005223
C81	C	1.215972	0.383939	0.338556
C82	C	0.467321	-0.282732	-0.328117
C83	C	0.800654	0.050601	0.005216
C84	C	1.133988	0.383934	0.338550
C85	C	0.467323	-0.369421	-0.428341
C86	C	0.800656	-0.036088	-0.095007
C87	C	1.133989	0.297246	0.238326
C88	C	0.549302	-0.369417	-0.428333
C89	C	0.882635	-0.036083	-0.094999
C90	C	1.215968	0.297250	0.238334
C91	C	0.590290	-0.326068	-0.378215
C92	C	0.923624	0.007265	-0.044882
C93	C	1.256957	0.340598	0.288452
C94	C	1.184467	-0.612425	-0.428436
C95	C	1.517800	-0.279091	-0.095102
C96	C	1.851134	0.054242	0.238231
C97	C	1.184495	-0.683113	-0.428450
C98	C	1.517829	-0.349780	-0.095117
C99	C	1.851162	-0.016446	0.238216
C100	C	1.134343	-0.718522	-0.378210
C101	C	1.467676	-0.385189	-0.044876
C102	C	1.801009	-0.051856	0.288457
C103	C	1.084153	-0.683240	-0.327957
C104	C	1.417486	-0.349906	0.005376
C105	C	1.750819	-0.016573	0.338710
C106	C	1.084121	-0.612552	-0.327947
C107	C	1.417454	-0.279219	0.005386
C108	C	1.750788	0.054114	0.338720
C109	C	1.084279	-0.968313	-0.327997
C110	C	1.417612	-0.634979	0.005336
C111	C	1.750945	-0.301646	0.338670
C112	C	1.084316	-1.039005	-0.328009
C113	C	1.417649	-0.705672	0.005324
C114	C	1.750983	-0.372338	0.338657
C115	C	1.184653	-1.038873	-0.428501
C116	C	1.517986	-0.705540	-0.095167
C117	C	1.851320	-0.372207	0.238166
C118	C	1.184621	-0.968186	-0.428491
C119	C	1.517955	-0.634853	-0.095157
C120	C	1.851288	-0.301520	0.238176
C121	C	1.134429	-0.932910	-0.378241
C122	C	1.467762	-0.599576	-0.044908
C123	C	1.801096	-0.266243	0.288426
C124	C	1.134398	-0.856261	-0.378227
C125	C	1.467731	-0.522928	-0.044893
C126	C	1.801064	-0.189595	0.288440
C127	C	1.134377	-0.795169	-0.378219
C128	C	1.467711	-0.461836	-0.044886
C129	C	1.801044	-0.128503	0.288447
C130	C	1.339083	-0.326071	-0.378222
C131	C	1.672416	0.007262	-0.044888
C132	C	2.005749	0.340595	0.288445
C133	C	1.426333	-0.326077	-0.378231
C134	C	1.759666	0.007256	-0.044898
C135	C	2.092999	0.340590	0.288436
C136	C	1.134372	-0.326013	-0.582944
C137	C	1.467706	0.007321	-0.249610
C138	C	1.801039	0.340654	0.083723
C139	C	1.134387	-0.325993	-0.670194
C140	C	1.467720	0.007340	-0.336860
C141	C	1.801053	0.340674	-0.003527
C142	C	1.134450	-0.149516	-0.378245
C143	C	1.467783	0.183817	-0.044912
C144	C	1.801116	0.517151	0.288422
C145	C	1.134497	-0.074284	-0.378265
C146	C	1.467830	0.259049	-0.044931
C147	C	1.801164	0.592383	0.288402
C148	C	1.184707	-0.282614	-1.046026
C149	C	1.518040	0.050719	-0.712693
C150	C	1.851373	0.384053	-0.379359
C151	C	1.184691	-0.282638	-0.964046
C152	C	1.518024	0.050696	-0.630712
C153	C	1.851357	0.384029	-0.297379
C154	C	1.134451	-0.325929	-0.923043
C155	C	1.467785	0.007404	-0.589709
C156	C	1.801118	0.340738	-0.256376
C157	C	1.084230	-0.369204	-0.964024
C158	C	1.417564	-0.035871	-0.630691
C159	C	1.750897	0.297462	-0.297358
C160	C	1.084251	-0.369184	-1.046003
C161	C	1.417584	-0.035850	-0.712670
C162	C	1.750917	0.297483	-0.379337
C163	C	1.084190	-0.369244	-0.793154
C164	C	1.417523	-0.035910	-0.459821
C165	C	1.750856	0.297423	-0.126488
C166	C	1.084168	-0.369264	-0.711170
C167	C	1.417501	-0.035930	-0.377836
C168	C	1.750834	0.297403	-0.044503
C169	C	1.184629	-0.282698	-0.711196
C170	C	1.517963	0.050636	-0.377863
C171	C	1.851296	0.383969	-0.044530
C172	C	1.184650	-0.282677	-0.793175
C173	C	1.517983	0.050657	-0.459842
C174	C	1.851317	0.383990	-0.126509
C175	C	1.134428	-0.325952	-0.834152
C176	C	1.467761	0.007382	-0.500818
C177	C	1.801094	0.340715	-0.167485
C178	C	1.134350	-0.326056	-0.174252
C179	C	1.467683	0.007278	0.159082
C180	C	1.801017	0.340611	0.492415
C181	C	1.134488	-0.325885	-0.087002
C182	C	1.467821	0.007449	0.246331
C183	C	1.801154	0.340782	0.579664
H184	H	0.835521	-0.404697	-0.469101
H185	H	1.168854	-0.071363	-0.135768
H186	H	1.502187	0.261970	0.197566
C187	C	1.029032	-0.722192	-0.272644
C188	C	1.362365	-0.388859	0.060689
C189	C	1.695699	-0.055526	0.394023
N190	N	0.987533	-0.751531	-0.230962
N191	N	1.320867	-0.418198	0.102372
N192	N	1.654200	-0.084864	0.435705
H193	H	0.686795	-0.247423	-0.287297
H194	H	1.020128	0.085910	0.046036
H195	H	1.353462	0.419244	0.379369
C196	C	1.028940	-0.416847	-0.838226
C197	C	1.362274	-0.083514	-0.504893
C198	C	1.695607	0.249820	-0.171559
N199	N	0.987324	-0.452698	-0.872174
N200	N	1.320657	-0.119365	-0.538841
N201	N	1.653991	0.213969	-0.205508
C202	C	1.239928	-0.235030	-0.918976
C203	C	1.573262	0.098303	-0.585642
C204	C	1.906595	0.431636	-0.252309
N205	N	1.281534	-0.199169	-0.885030
N206	N	1.614867	0.134165	-0.551696
N207	N	1.948201	0.467498	-0.218363
C208	C	1.239879	-0.235099	-0.666121
C209	C	1.573213	0.098234	-0.332788
C210	C	1.906546	0.431568	0.000545
N211	N	1.281491	-0.199248	-0.632167
N212	N	1.614825	0.134085	-0.298834
N213	N	1.948158	0.467418	0.034500
H214	H	1.043472	-1.067833	-0.287096
H215	H	1.376805	-0.734500	0.046237
H216	H	1.710139	-0.401167	0.379570
C217	C	1.239975	-0.234989	-1.091122
C218	C	1.573308	0.098344	-0.757788
C219	C	1.906642	0.431677	-0.424455
N220	N	1.281608	-0.199119	-1.125086
N221	N	1.614941	0.134214	-0.791752
N222	N	1.948274	0.467548	-0.458419
C223	C	0.847242	-0.235029	-0.272952
C224	C	1.180575	0.098304	0.060381
C225	C	1.513908	0.431638	0.393714
N226	N	0.881200	-0.199113	-0.231427
N227	N	1.214534	0.134220	0.101906
N228	N	1.547867	0.467554	0.435240
C229	C	1.029048	-0.929518	-0.272739
C230	C	1.362381	-0.596184	0.060594
C231	C	1.695714	-0.262851	0.393928
N232	N	0.987438	-0.900295	-0.231122
N233	N	1.320771	-0.566962	0.102211
N234	N	1.654105	-0.233628	0.435544
C235	C	1.028913	-0.416896	-0.666068
C236	C	1.362247	-0.083563	-0.332735
C237	C	1.695580	0.249770	0.000599
N238	N	0.987298	-0.452777	-0.632097
N239	N	1.320631	-0.119444	-0.298764
N240	N	1.653965	0.213890	0.034569
H241	H	1.225366	-0.711833	-0.469363
H242	H	1.558700	-0.378500	-0.136030
H243	H	1.892033	-0.045166	0.197303
H244	H	1.043255	-0.583830	-0.287029
H245	H	1.376588	-0.250497	0.046305
H246	H	1.709922	0.082837	0.379638
H247	H	1.225556	-0.247422	-0.826558
H248	H	1.558889	0.085911	-0.493225
H249	H	1.892223	0.419244	-0.159891
H250	H	1.043328	-0.404456	-0.930633
H251	H	1.376661	-0.071123	-0.597300
H252	H	1.709995	0.262211	-0.263967
H253	H	0.686802	-0.404699	-0.469121
H254	H	1.020136	-0.071366	-0.135788
H255	H	1.353469	0.261967	0.197546
C256	C	0.594390	-0.417097	-0.483448
C257	C	0.927723	-0.083763	-0.150114
C258	C	1.261056	0.249570	0.183219
N259	N	0.628350	-0.453009	-0.524962
N260	N	0.961683	-0.119676	-0.191629
N261	N	1.295016	0.213658	0.141705
H262	H	1.043358	-0.404420	-1.079365
H263	H	1.376691	-0.071086	-0.746032
H264	H	1.710025	0.262247	-0.412698
H265	H	0.433946	-0.404715	-0.469150
H266	H	0.767279	-0.071382	-0.135817
H267	H	1.100613	0.261952	0.197516
C268	C	0.422233	-0.235054	-0.273001
C269	C	0.755567	0.098280	0.060333
C270	C	1.088900	0.431613	0.393666
N271	N	0.388273	-0.199141	-0.231487
N272	N	0.721606	0.134193	0.101847
N273	N	1.054940	0.467526	0.435180
H274	H	0.582676	-0.247422	-0.287306
H275	H	0.916010	0.085911	0.046027
H276	H	1.249343	0.419244	0.379361
H277	H	1.225463	-0.939358	-0.469398
H278	H	1.558796	-0.606025	-0.136065
H279	H	1.892130	-0.272691	0.197268
H280	H	1.225310	-0.583599	-0.469344
H281	H	1.558644	-0.250266	-0.136011
H282	H	1.891977	0.083068	0.197323
H283	H	1.225520	-1.067604	-0.469419
H284	H	1.558853	-0.734271	-0.136086
H285	H	1.892186	-0.400937	0.197248
