data_functionalizedCrystal
_audit_creation_method	'MofGen! by Chris Wilmer'
_symmetry_space_group_name_H-M	'P1'
_symmetry_Int_Tables_number	1
_symmetry_cell_setting	triclinic
loop_
_symmetry_equiv_pos_as_xyz
  x,y,z
_cell_length_a	10.489741
_cell_length_b	10.489746
_cell_length_c	9.565339
_cell_angle_alpha	90.001166
_cell_angle_beta	89.994586
_cell_angle_gamma	84.540238
loop_
_atom_site_label
_atom_site_type_symbol
_atom_site_fract_x
_atom_site_fract_y
_atom_site_fract_z
O1	O	1.694044	0.179962	0.116175
O2	O	1.322849	0.196854	0.116197
O3	O	1.516890	0.002811	0.116175
O4	O	1.500004	0.374005	0.116197
O5	O	1.516898	0.002816	-0.116345
O6	O	1.322857	0.196860	-0.116324
O7	O	1.694053	0.179967	-0.116345
Zn8	Zn	1.508457	0.188415	-0.153252
Zn9	Zn	1.508445	0.188407	0.153103
O10	O	1.500012	0.374011	-0.116324
C11	C	1.275322	0.195581	-0.000061
C12	C	1.133692	0.191764	-0.000053
C13	C	1.515617	-0.044718	-0.000085
C14	C	1.511797	-0.186347	-0.000084
C15	C	1.065550	0.068300	-0.000073
C16	C	0.973420	0.126620	0.114572
C17	C	0.973462	0.126655	-0.114675
C18	C	1.043427	0.250135	0.114687
C19	C	1.043479	0.250153	-0.114663
C20	C	0.951377	0.308564	0.000011
C21	C	1.741580	0.181240	-0.000085
C22	C	1.883210	0.185057	-0.000084
C23	C	1.386074	-0.339205	-0.000059
C24	C	1.448926	-0.261816	0.114579
C25	C	1.448964	-0.261851	-0.114668
C26	C	1.567908	-0.361307	0.114680
C27	C	1.567928	-0.361348	-0.114670
C28	C	1.630868	-0.284008	-0.000003
C29	C	1.501285	0.421540	-0.000061
C30	C	1.505105	0.563169	-0.000053
N31	N	1.508474	0.188419	-0.362331
C32	C	1.598240	0.098686	-0.453507
C33	C	1.482744	0.072851	-0.546672
C34	C	1.623924	0.214171	-0.546722
C35	C	1.392919	0.162527	-0.453445
C36	C	1.534175	0.303897	-0.453486
C37	C	1.418596	0.278110	-0.546609
N38	N	1.508438	0.188393	0.362183
H39	H	1.115237	-0.033196	0.000064
H40	H	1.282572	-0.363924	0.000061
O41	O	1.560402	0.420326	-0.404668
C42	C	1.711779	0.579160	-0.396795
C43	C	1.682234	0.447274	-0.452150
H44	H	1.810268	0.601000	-0.435185
H45	H	1.710692	0.578341	-0.277620
H46	H	1.636193	0.655823	-0.436679
H47	H	1.757788	0.370537	-0.412369
H48	H	1.683275	0.448200	-0.571322
H49	H	0.942487	0.074395	-0.211599
O50	O	1.740368	0.240099	-0.595808
C51	C	1.870445	0.270391	-0.798574
C52	C	1.738510	0.241009	-0.743198
H53	H	1.868979	0.271163	-0.917743
H54	H	1.946893	0.193776	-0.760405
H55	H	1.893113	0.368085	-0.758553
H56	H	1.715721	0.143351	-0.783195
H57	H	1.662137	0.317702	-0.781355
H58	H	1.460981	-0.024816	-0.587606
O59	O	1.327995	0.368784	-0.594915
C60	C	1.251564	0.592751	-0.600328
C61	C	1.354238	0.490200	-0.545496
H62	H	1.272760	0.690942	-0.560420
H63	H	1.153212	0.570653	-0.561754
H64	H	1.252756	0.592581	-0.719504
H65	H	1.353164	0.490314	-0.426324
H66	H	1.452542	0.512335	-0.584178
H67	H	1.074253	0.302333	0.211720
O68	O	0.936486	0.064096	0.230091
C69	C	0.953297	-0.133191	0.360748
C70	C	0.995196	-0.062535	0.229858
H71	H	1.000766	-0.235576	0.360618
H72	H	0.844780	-0.134782	0.360157
H73	H	0.983396	-0.081478	0.458433
H74	H	0.965185	-0.114191	0.132104
H75	H	1.103710	-0.060932	0.230573
O76	O	1.388831	-0.210166	-0.230265
C77	C	1.191880	-0.179023	-0.360822
C78	C	1.259840	-0.237633	-0.229871
H79	H	1.087573	-0.201186	-0.360532
H80	H	1.241499	-0.221555	-0.458560
H81	H	1.196246	-0.070847	-0.360269
H82	H	1.255494	-0.345808	-0.230288
H83	H	1.210203	-0.195001	-0.132191
H84	H	0.901955	0.410167	0.000079
H85	H	1.074530	0.302354	-0.211587
O86	O	1.754412	-0.254733	-0.000190
C87	C	1.917151	-0.150323	-0.121091
C88	C	1.777223	-0.183418	-0.121080
H89	H	1.935630	-0.092637	-0.218804
H90	H	1.984272	-0.242421	-0.120210
H91	H	1.935117	-0.091332	-0.024196
H92	H	1.759134	-0.242374	-0.217958
H93	H	1.710174	-0.091271	-0.121888
H94	H	1.398674	-0.218343	0.211505
H95	H	1.618135	-0.404845	-0.211600
O96	O	1.627897	-0.412728	0.230485
C97	C	1.741274	-0.372787	0.442721
C98	C	1.673407	-0.314387	0.311618
H99	H	1.778063	-0.293304	0.508368
H100	H	1.825196	-0.443531	0.409924
H101	H	1.670716	-0.424768	0.506980
H102	H	1.743866	-0.262341	0.247300
H103	H	1.589465	-0.243712	0.344510
H104	H	1.674079	0.022762	-0.412627
H105	H	1.295246	0.140624	-0.412645
