data_functionalizedCrystal
_audit_creation_method	'MofGen! by Chris Wilmer'
_symmetry_space_group_name_H-M	'P1'
_symmetry_Int_Tables_number	1
_symmetry_cell_setting	triclinic
loop_
_symmetry_equiv_pos_as_xyz
  x,y,z
_cell_length_a	19.805407
_cell_length_b	14.908178
_cell_length_c	19.805399
_cell_angle_alpha	93.324276
_cell_angle_beta	90.019573
_cell_angle_gamma	93.313831
loop_
_atom_site_label
_atom_site_type_symbol
_atom_site_fract_x
_atom_site_fract_y
_atom_site_fract_z
Zn1	Zn	1.019225	-0.359207	0.367165
Zn2	Zn	1.352558	-0.025874	0.700498
Zn3	Zn	1.685892	0.307460	1.033832
Zn4	Zn	1.012625	-0.510084	0.247444
Zn5	Zn	1.345958	-0.176750	0.580777
Zn6	Zn	1.679291	0.156583	0.914110
Zn7	Zn	0.906038	-0.359232	0.253989
Zn8	Zn	1.239372	-0.025899	0.587322
Zn9	Zn	1.572705	0.307435	0.920655
Zn10	Zn	0.899490	-0.510036	0.360592
Zn11	Zn	1.232823	-0.176702	0.693926
Zn12	Zn	1.566157	0.156631	1.027259
O13	O	0.959345	-0.434640	0.307297
O14	O	1.292678	-0.101306	0.640631
O15	O	1.626011	0.232027	0.973964
O16	O	1.113065	-0.379231	0.351295
O17	O	1.446399	-0.045898	0.684629
O18	O	1.779732	0.287436	1.017962
O19	O	0.998464	-0.490103	0.153594
O20	O	1.331797	-0.156770	0.486927
O21	O	1.665131	0.176563	0.820261
O22	O	0.926556	-0.232974	0.274492
O23	O	1.259889	0.100359	0.607825
O24	O	1.593222	0.433692	0.941158
O25	O	1.108216	-0.490079	0.263336
O26	O	1.441550	-0.156746	0.596670
O27	O	1.774883	0.176587	0.930003
O28	O	1.009713	-0.232956	0.357642
O29	O	1.343046	0.100377	0.690975
O30	O	1.676380	0.433711	1.024309
O31	O	0.920156	-0.379273	0.158402
O32	O	1.253489	-0.045940	0.491736
O33	O	1.586822	0.287393	0.825069
O34	O	0.810454	-0.379227	0.268118
O35	O	1.143787	-0.045893	0.601452
O36	O	1.477120	0.287440	0.934785
O37	O	0.915395	-0.489998	0.456182
O38	O	1.248728	-0.156664	0.789516
O39	O	1.582062	0.176669	1.122849
O40	O	0.805643	-0.490022	0.346440
O41	O	1.138976	-0.156688	0.679773
O42	O	1.472309	0.176645	1.013106
O43	O	1.003363	-0.379184	0.461011
O44	O	1.336697	-0.045851	0.794345
O45	O	1.670030	0.287482	1.127678
O46	O	0.992115	-0.636332	0.256963
O47	O	1.325448	-0.302998	0.590296
O48	O	1.658781	0.030335	0.923630
O49	O	0.908995	-0.636296	0.340093
O50	O	1.242328	-0.302963	0.673426
O51	O	1.575662	0.030370	1.006760
C52	C	0.783489	-0.434622	0.307276
C53	C	1.116823	-0.101289	0.640610
C54	C	1.450156	0.232044	0.973943
C55	C	0.708257	-0.434637	0.307282
C56	C	1.041590	-0.101303	0.640616
C57	C	1.374923	0.232030	0.973949
C58	C	0.670421	-0.492414	0.347990
C59	C	1.003755	-0.159081	0.681324
C60	C	1.337088	0.174252	1.014657
C61	C	0.599733	-0.492416	0.348000
C62	C	0.933066	-0.159083	0.681333
C63	C	1.266400	0.174251	1.014667
C64	C	0.566881	-0.434644	0.307297
C65	C	0.900214	-0.101310	0.640631
C66	C	1.233547	0.232023	0.973964
C67	C	0.604721	-0.376860	0.266588
C68	C	0.938055	-0.043526	0.599921
C69	C	1.271388	0.289807	0.933254
C70	C	0.675409	-0.376854	0.266582
C71	C	1.008742	-0.043521	0.599915
C72	C	1.342075	0.289812	0.933249
C73	C	0.319647	-0.376880	0.266609
C74	C	0.652980	-0.043546	0.599942
C75	C	0.986314	0.289787	0.933276
C76	C	0.248955	-0.376891	0.266616
C77	C	0.582288	-0.043558	0.599949
C78	C	0.915621	0.289775	0.933283
C79	C	0.243971	-0.492441	0.348027
C80	C	0.577305	-0.159108	0.681360
C81	C	0.910638	0.174225	1.014693
C82	C	0.314659	-0.492436	0.348021
C83	C	0.647992	-0.159103	0.681355
C84	C	0.981325	0.174231	1.014688
C85	C	0.352493	-0.434649	0.307315
C86	C	0.685827	-0.101316	0.640648
C87	C	1.019160	0.232018	0.973981
C88	C	0.429142	-0.434647	0.307306
C89	C	0.762475	-0.101313	0.640639
C90	C	1.095808	0.232020	0.973973
C91	C	0.490233	-0.434650	0.307302
C92	C	0.823567	-0.101317	0.640635
C93	C	1.156900	0.232017	0.973969
C94	C	0.949146	-0.669050	0.297119
C95	C	1.282480	-0.335717	0.630453
C96	C	1.615813	-0.002384	0.963786
C97	C	0.944845	-0.769332	0.292788
C98	C	1.278179	-0.435999	0.626121
C99	C	1.611512	-0.102666	0.959455
C100	C	1.023290	-0.957604	0.371326
C101	C	1.356623	-0.624270	0.704659
C102	C	1.689957	-0.290937	1.037992
C103	C	1.019251	-1.051827	0.367258
C104	C	1.352585	-0.718494	0.700591
C105	C	1.685918	-0.385161	1.033925
C106	C	0.932726	-1.052005	0.280589
C107	C	1.266060	-0.718672	0.613922
C108	C	1.599393	-0.385339	0.947256
C109	C	0.936765	-0.957782	0.284657
C110	C	1.270098	-0.624448	0.617990
C111	C	1.603432	-0.291115	0.951323
C112	C	0.982049	-0.910584	0.330026
C113	C	1.315382	-0.577251	0.663359
C114	C	1.648716	-0.243917	0.996692
C115	C	0.986091	-0.816359	0.334089
C116	C	1.319424	-0.483025	0.667423
C117	C	1.652757	-0.149692	1.000756
C118	C	0.899563	-0.816538	0.247424
C119	C	1.232896	-0.483205	0.580758
C120	C	1.566230	-0.149871	0.914091
C121	C	0.895524	-0.910762	0.243357
C122	C	1.228857	-0.577429	0.576690
C123	C	1.562191	-0.244095	0.910023
C124	C	1.135886	-0.434658	0.307319
C125	C	1.469220	-0.101324	0.640652
C126	C	1.802553	0.232009	0.973986
C127	C	1.211118	-0.434665	0.307328
C128	C	1.544451	-0.101332	0.640662
C129	C	1.877785	0.232001	0.973995
C130	C	0.959385	-0.434583	0.483843
C131	C	1.292718	-0.101249	0.817176
C132	C	1.626052	0.232084	1.150509
C133	C	0.959402	-0.434559	0.559076
C134	C	1.292736	-0.101225	0.892409
C135	C	1.626069	0.232108	1.225742
C136	C	0.969601	-0.199314	0.317530
C137	C	1.302934	0.134020	0.650863
C138	C	1.636268	0.467353	0.984197
C139	C	0.973972	-0.099032	0.321891
C140	C	1.307305	0.234302	0.655224
C141	C	1.640638	0.567635	0.988557
C142	C	0.959346	-0.434631	0.131442
C143	C	1.292679	-0.101298	0.464775
C144	C	1.626013	0.232036	0.798108
C145	C	0.959471	-0.434401	0.056220
C146	C	1.292804	-0.101068	0.389554
C147	C	1.626138	0.232265	0.722887
C148	C	1.005209	-0.376855	0.596936
C149	C	1.338542	-0.043522	0.930269
C150	C	1.671875	0.289811	1.263602
C151	C	1.005217	-0.376829	0.667625
C152	C	1.338550	-0.043496	1.000959
C153	C	1.671883	0.289838	1.334292
C154	C	0.959421	-0.434511	0.700453
C155	C	1.292754	-0.101178	1.033787
C156	C	1.626088	0.232155	1.367120
C157	C	0.913610	-0.492217	0.662589
C158	C	1.246943	-0.158884	0.995922
C159	C	1.580276	0.174449	1.329255
C160	C	0.913599	-0.492238	0.591900
C161	C	1.246932	-0.158905	0.925234
C162	C	1.580266	0.174428	1.258567
C163	C	0.913652	-0.492133	0.947666
C164	C	1.246985	-0.158800	1.280999
C165	C	1.580318	0.174533	1.614332
C166	C	0.913667	-0.492110	1.018359
C167	C	1.247001	-0.158776	1.351692
C168	C	1.580334	0.174557	1.685025
C169	C	1.005269	-0.376724	1.023390
C170	C	1.338603	-0.043391	1.356724
C171	C	1.671936	0.289943	1.690057
C172	C	1.005258	-0.376745	0.952702
C173	C	1.338592	-0.043412	1.286036
C174	C	1.671925	0.289922	1.619369
C175	C	0.959445	-0.434447	0.914844
C176	C	1.292779	-0.101114	1.248177
C177	C	1.626112	0.232220	1.581510
C178	C	0.959436	-0.434474	0.838194
C179	C	1.292769	-0.101140	1.171527
C180	C	1.626103	0.232193	1.504861
C181	C	0.959433	-0.434490	0.777102
C182	C	1.292766	-0.101157	1.110435
C183	C	1.626099	0.232176	1.443768
H184	H	0.341403	-0.539483	0.381163
H185	H	0.674736	-0.206150	0.714497
H186	H	1.008070	0.127183	1.047830
H187	H	1.022965	-0.777931	0.371029
H188	H	1.356298	-0.444598	0.704363
H189	H	1.689632	-0.111264	1.037696
Cl190	Cl	0.875787	-1.111355	0.223575
Cl191	Cl	1.209120	-0.778021	0.556908
Cl192	Cl	1.542453	-0.444688	0.890242
H193	H	0.876357	-0.539131	0.916849
H194	H	1.209690	-0.205798	1.250182
H195	H	1.543024	0.127536	1.583516
H196	H	0.858654	-0.949203	0.206420
H197	H	1.191987	-0.615870	0.539753
H198	H	1.525320	-0.282536	0.873087
H199	H	1.052830	-1.090107	0.400892
H200	H	1.386164	-0.756774	0.734225
H201	H	1.719497	-0.423441	1.067559
H202	H	0.865984	-0.778244	0.213793
H203	H	1.199317	-0.444911	0.547126
H204	H	1.532650	-0.111577	0.880460
H205	H	1.042503	-0.329886	0.570212
H206	H	1.375836	0.003447	0.903545
H207	H	1.709169	0.336780	1.236879
H208	H	1.042518	-0.329843	0.698448
H209	H	1.375852	0.003490	1.031781
H210	H	1.709185	0.336823	1.365114
H211	H	1.042552	-0.329777	0.925977
H212	H	1.375885	0.003556	1.259310
H213	H	1.709219	0.336890	1.592644
Cl214	Cl	0.711714	-0.565051	0.399159
Cl215	Cl	1.045047	-0.231718	0.732493
Cl216	Cl	1.378380	0.101615	1.065826
H217	H	0.706214	-0.329801	0.233437
H218	H	1.039547	0.003533	0.566771
H219	H	1.372880	0.336866	0.900104
H220	H	0.213158	-0.539491	0.381175
H221	H	0.546491	-0.206158	0.714508
H222	H	0.879825	0.127176	1.047842
Cl223	Cl	0.552171	-0.565054	0.399178
Cl224	Cl	0.885505	-0.231721	0.732512
Cl225	Cl	1.218838	0.101612	1.065845
Cl226	Cl	1.062862	-0.304179	1.070989
Cl227	Cl	1.396195	0.029154	1.404322
Cl228	Cl	1.729528	0.362487	1.737655
H229	H	0.876372	-0.539083	1.045085
H230	H	1.209705	-0.205750	1.378419
H231	H	1.543039	0.127583	1.711752
Cl232	Cl	1.080224	-0.898266	0.428351
Cl233	Cl	1.413558	-0.564933	0.761685
Cl234	Cl	1.746891	-0.231600	1.095018
H235	H	0.577968	-0.329817	0.233450
H236	H	0.911301	0.003517	0.566783
H237	H	1.244634	0.336850	0.900116
H238	H	0.876292	-0.539217	0.561076
H239	H	1.209626	-0.205884	0.894409
H240	H	1.542959	0.127450	1.227743
Cl241	Cl	0.207656	-0.304256	0.215444
Cl242	Cl	0.540989	0.029077	0.548777
Cl243	Cl	0.874322	0.362411	0.882111
Cl244	Cl	0.367201	-0.304230	0.215437
Cl245	Cl	0.700535	0.029103	0.548770
Cl246	Cl	1.033868	0.362436	0.882103
H247	H	0.876320	-0.539180	0.689323
H248	H	1.209653	-0.205847	1.022656
H249	H	1.542987	0.127487	1.355990
