data_functionalizedCrystal
_audit_creation_method	'MofGen! by Chris Wilmer'
_symmetry_space_group_name_H-M	'P1'
_symmetry_Int_Tables_number	1
_symmetry_cell_setting	triclinic
loop_
_symmetry_equiv_pos_as_xyz
  x,y,z
_cell_length_a	16.109301
_cell_length_b	15.625429
_cell_length_c	14.586319
_cell_angle_alpha	71.919058
_cell_angle_beta	89.998857
_cell_angle_gamma	83.866959
loop_
_atom_site_label
_atom_site_type_symbol
_atom_site_fract_x
_atom_site_fract_y
_atom_site_fract_z
O1	O	1.103292	0.115880	-0.114709
O2	O	1.603292	0.615880	0.385291
O3	O	0.861250	0.130301	-0.119515
O4	O	1.361250	0.630301	0.380485
O5	O	0.988738	-0.008148	-0.073482
O6	O	1.488738	0.491852	0.426518
O7	O	0.975804	0.254329	-0.160742
O8	O	1.475804	0.754329	0.339258
O9	O	0.988729	-0.008150	0.079000
O10	O	1.488729	0.491850	0.579000
O11	O	0.861241	0.130299	0.032966
O12	O	1.361241	0.630299	0.532966
O13	O	1.103283	0.115878	0.037773
O14	O	1.603283	0.615878	0.537773
Cu15	Cu	0.982261	0.123088	0.049292
Cu16	Cu	1.482261	0.623088	0.549292
Cu17	Cu	0.982272	0.123090	-0.131035
Cu18	Cu	1.482272	0.623090	0.368965
O19	O	0.975795	0.254327	-0.008261
O20	O	1.475795	0.754327	0.491739
C21	C	0.830270	0.129715	-0.043082
C22	C	1.330270	0.629715	0.456918
C23	C	0.737972	0.127964	-0.042504
C24	C	1.237972	0.627964	0.457496
C25	C	0.429080	0.204391	-0.067897
C26	C	0.929080	0.704391	0.432103
C27	C	0.515803	0.206045	-0.068452
C28	C	1.015803	0.706045	0.431548
C29	C	0.535447	0.041781	-0.013854
C30	C	1.035447	0.541781	0.486146
C31	C	0.448726	0.040128	-0.013306
C32	C	0.948726	0.540128	0.486694
C33	C	0.395545	0.121436	-0.040323
C34	C	0.895545	0.621436	0.459677
C35	C	0.568988	0.124743	-0.041427
C36	C	1.068988	0.624743	0.458573
C37	C	0.663017	0.126536	-0.042029
C38	C	1.163017	0.626536	0.457971
C39	C	0.301510	0.119643	-0.039723
C40	C	0.801510	0.619643	0.460277
C41	C	0.988148	-0.041736	0.013923
C42	C	1.488148	0.458264	0.513923
C43	C	0.986394	-0.141815	0.047188
C44	C	1.486394	0.358185	0.547188
C45	C	0.980624	-0.470959	-0.258961
C46	C	1.480624	0.029041	0.241039
C47	C	0.978972	-0.564998	-0.227675
C48	C	1.478972	-0.064998	0.272325
C49	C	0.978963	-0.564987	-0.061450
C50	C	1.478963	-0.064987	0.438550
C51	C	0.980619	-0.470946	-0.092722
C52	C	1.480619	0.029054	0.407278
C53	C	0.981449	-0.423940	-0.191478
C54	C	1.481449	0.076060	0.308522
C55	C	0.981444	-0.423927	-0.025240
C56	C	1.481444	0.076073	0.474760
C57	C	0.983095	-0.329894	-0.056510
C58	C	1.483095	0.170106	0.443490
C59	C	0.983923	-0.282880	-0.155262
C60	C	1.483923	0.217120	0.344738
C61	C	0.983101	-0.329907	-0.222749
C62	C	1.483101	0.170093	0.277251
C63	C	0.980608	-0.470934	0.073516
C64	C	1.480608	0.029066	0.573516
C65	C	0.981432	-0.423915	0.140998
C66	C	1.481432	0.076085	0.640998
C67	C	0.983090	-0.329881	0.109729
C68	C	1.483090	0.170119	0.609729
C69	C	0.983917	-0.282868	0.010976
C70	C	1.483917	0.217132	0.510976
C71	C	0.983912	-0.282855	0.177215
C72	C	1.483912	0.217145	0.677215
C73	C	0.985564	-0.188822	0.145945
C74	C	1.485564	0.311178	0.645945
C75	C	0.985569	-0.188835	-0.020294
C76	C	1.485569	0.311165	0.479706
C77	C	1.134263	0.116463	-0.038663
C78	C	1.634263	0.616463	0.461337
C79	C	1.226561	0.118214	-0.039246
C80	C	1.726561	0.618214	0.460754
C81	C	0.976385	0.287915	-0.095668
C82	C	1.476385	0.787915	0.404332
C83	C	0.978139	0.387994	-0.128939
C84	C	1.478139	0.887994	0.371061
N85	N	0.982260	0.123086	0.176125
N86	N	1.482260	0.623086	0.676125
N87	N	0.982280	0.123086	-0.257865
N88	N	1.482280	0.623086	0.242135
C89	C	1.038730	0.061801	0.431508
C90	C	1.538730	0.561801	0.931508
C91	C	1.038733	0.061799	0.527490
C92	C	1.538733	0.561799	1.027490
C93	C	0.925803	0.184373	0.486744
C94	C	1.425803	0.684373	0.986744
C95	C	0.925797	0.184370	0.390766
C96	C	1.425797	0.684370	0.890766
C97	C	0.982266	0.123085	0.363150
C98	C	1.482266	0.623085	0.863150
C99	C	0.982274	0.123086	0.555110
C100	C	1.482274	0.623086	1.055110
C101	C	0.982276	0.123084	0.659178
C102	C	1.482276	0.623084	1.159178
C103	C	0.982263	0.123086	0.259076
C104	C	1.482263	0.623086	0.759076
H105	H	0.385782	0.270598	-0.089897
H106	H	0.885782	0.770598	0.410103
H107	H	0.978293	-0.603277	-0.282635
H108	H	1.478293	-0.103277	0.217365
C109	C	0.411836	-0.051135	0.017034
C110	C	0.911836	0.448865	0.517034
N111	N	0.384050	-0.119871	0.039886
N112	N	0.884050	0.380129	0.539886
H113	H	0.986252	-0.150560	-0.100711
H114	H	1.486252	0.349440	0.399289
C115	C	1.100840	-0.005621	0.401137
C116	C	1.600840	0.494379	0.901137
N117	N	1.147621	-0.056408	0.378266
N118	N	1.647621	0.443592	0.878266
C119	C	0.863717	0.251832	0.315552
C120	C	1.363717	0.751832	0.815552
N121	N	0.816972	0.302655	0.258897
N122	N	1.316972	0.802655	0.758897
H123	H	0.543103	0.273596	-0.090906
H124	H	1.043103	0.773596	0.409094
C125	C	0.984017	-0.278195	-0.331386
C126	C	1.484017	0.221805	0.168614
N127	N	0.984706	-0.239245	-0.413209
N128	N	1.484706	0.260755	0.086791
C129	C	0.593955	-0.047653	0.015879
C130	C	1.093955	0.452347	0.515879
N131	N	0.638022	-0.115017	0.038282
N132	N	1.138022	0.384983	0.538282
C133	C	0.985741	-0.179441	-0.189660
C134	C	1.485741	0.320559	0.310340
N135	N	0.987113	-0.101530	-0.215568
N136	N	1.487113	0.398470	0.284432
H137	H	0.981308	-0.432684	-0.339378
H138	H	1.481308	0.067316	0.160622
H139	H	0.979254	-0.547500	0.098973
H140	H	1.479254	-0.047500	0.598973
C141	C	0.978047	-0.616704	0.047180
C142	C	1.478047	-0.116704	0.547180
N143	N	0.977358	-0.655657	0.129001
N144	N	1.477358	-0.155657	0.629001
C145	C	0.980516	-0.475632	0.249628
C146	C	1.480516	0.024368	0.749628
N147	N	0.979828	-0.514585	0.331449
N148	N	1.479828	-0.014585	0.831449
H149	H	0.983228	-0.321141	0.257622
H150	H	1.483228	0.178859	0.757622
H151	H	0.986218	-0.150535	0.200895
H152	H	1.486218	0.349465	0.700895
H153	H	1.084710	0.011895	0.583147
H154	H	1.584710	0.511895	1.083147
C155	C	0.863690	0.251781	0.517133
C156	C	1.363690	0.751781	1.017133
N157	N	0.816905	0.302554	0.540020
N158	N	1.316905	0.802554	1.040020
