data_functionalizedCrystal
_audit_creation_method	'MofGen! by Chris Wilmer'
_symmetry_space_group_name_H-M	'P1'
_symmetry_Int_Tables_number	1
_symmetry_cell_setting	triclinic
loop_
_symmetry_equiv_pos_as_xyz
  x,y,z
_cell_length_a	19.288840
_cell_length_b	10.654559
_cell_length_c	17.766277
_cell_angle_alpha	89.995202
_cell_angle_beta	89.983415
_cell_angle_gamma	83.807337
loop_
_atom_site_label
_atom_site_type_symbol
_atom_site_fract_x
_atom_site_fract_y
_atom_site_fract_z
O1	O	0.922392	0.156506	-0.062718
O2	O	0.720268	0.177672	-0.062691
O3	O	0.825974	-0.015750	-0.062703
O4	O	0.816686	0.349927	-0.062706
O5	O	0.825955	-0.015760	0.062486
O6	O	0.720249	0.177662	0.062497
O7	O	0.922373	0.156496	0.062471
Cu8	Cu	0.821309	0.167078	0.073915
Cu9	Cu	0.821331	0.167090	-0.074135
O10	O	0.816667	0.349918	0.062483
C11	C	0.694377	0.176991	-0.000094
C12	C	0.617259	0.174962	-0.000084
C13	C	0.581060	0.173993	-0.068326
C14	C	0.508600	0.172073	-0.068335
C15	C	0.472345	0.171097	-0.000098
C16	C	0.508553	0.172073	0.068153
C17	C	0.581010	0.174006	0.068160
C18	C	0.362506	0.094476	0.052171
C19	C	0.290051	0.092536	0.052161
C20	C	0.248862	0.165141	-0.000118
C21	C	0.280139	0.239671	-0.052399
C22	C	0.352596	0.241604	-0.052392
C23	C	0.393777	0.169002	-0.000098
C24	C	0.134093	0.162092	-0.068375
C25	C	0.061632	0.160180	-0.068381
C26	C	0.061587	0.160167	0.068109
C27	C	0.134046	0.162092	0.068113
C28	C	0.170295	0.163048	-0.000130
C29	C	0.825281	-0.062538	-0.000110
C30	C	0.823237	-0.201936	-0.000113
C31	C	0.759077	-0.252092	-0.000108
C32	C	0.757160	-0.383073	-0.000106
C33	C	0.883569	-0.413732	-0.000117
C34	C	0.885484	-0.282753	-0.000113
C35	C	0.678603	-0.543665	0.043757
C36	C	0.614440	-0.593825	0.043749
C37	C	0.559267	-0.537772	-0.000112
C38	C	0.568255	-0.431562	-0.043983
C39	C	0.632419	-0.381410	-0.043982
C40	C	0.687589	-0.437459	-0.000103
C41	C	0.964037	-0.122158	-0.043983
C42	C	1.028202	-0.072003	-0.043987
C43	C	1.083381	-0.128054	-0.000130
C44	C	1.074400	-0.234270	0.043730
C45	C	1.010235	-0.284425	0.043734
C46	C	0.955056	-0.228365	-0.000121
C47	C	0.948264	0.157177	-0.000128
C48	C	1.025381	0.159206	-0.000143
C49	C	0.817360	0.396706	-0.000112
C50	C	0.819404	0.536104	-0.000114
N51	N	0.821299	0.167069	0.178045
N52	N	0.821347	0.167089	-0.178265
C53	C	0.868121	0.081464	0.217427
C54	C	0.868125	0.081458	0.296229
C55	C	0.821313	0.167079	0.335646
C56	C	0.774482	0.252691	0.296254
C57	C	0.774475	0.252686	0.217454
C58	C	0.812766	0.281501	0.460483
C59	C	0.812778	0.281508	0.539282
C60	C	0.821332	0.167094	0.578692
C61	C	0.829889	0.052669	0.539293
C62	C	0.829881	0.052664	0.460493
C63	C	0.821316	0.167094	0.421091
C64	C	0.868161	0.081476	0.703520
C65	C	0.868160	0.081468	0.782323
C66	C	0.774521	0.252712	0.782347
C67	C	0.774519	0.252708	0.703545
C68	C	0.821342	0.167092	0.664136
H69	H	0.032068	0.159380	0.123669
H70	H	0.479029	0.171282	0.123712
O71	O	0.173203	0.163133	-0.141972
H72	H	0.153533	0.248347	-0.174696
H73	H	0.163521	0.162873	0.123684
H74	H	0.805788	0.374676	0.428403
H75	H	1.135627	-0.087207	-0.000139
O76	O	0.235729	0.318036	-0.108775
H77	H	0.251690	0.288155	-0.166646
H78	H	0.736367	0.322403	0.328352
O79	O	0.022585	0.159090	-0.141988
H80	H	0.059970	0.160051	-0.189437
O81	O	0.918617	-0.010893	0.174927
H82	H	0.952629	0.041803	0.139011
H83	H	0.264591	0.031843	0.094728
O84	O	0.724053	0.345098	0.824854
H85	H	0.691499	0.404639	0.784227
O86	O	0.620052	0.175059	0.141772
H87	H	0.658852	0.090372	0.145046
O88	O	0.918633	-0.010875	0.338714
H89	H	0.910768	0.003511	0.400129
O90	O	0.620156	0.175031	-0.141930
H91	H	0.647386	0.261480	-0.145192
O92	O	0.642117	-0.266852	-0.091284
H93	H	0.633236	-0.288449	-0.151408
H94	H	0.708391	-0.186294	-0.000104
O95	O	0.469543	0.171023	-0.141941
H96	H	0.442316	0.084570	-0.145194
H97	H	0.906286	0.011757	0.671432
H98	H	0.396037	0.035348	0.094746
H99	H	0.906286	0.011751	0.814388
H100	H	0.378058	0.302292	-0.094959
O101	O	0.839097	-0.070739	0.417995
H102	H	0.845041	-0.150303	0.458631
H103	H	1.035511	0.014486	-0.079703
O104	O	0.604746	-0.708366	0.091075
H105	H	0.550862	-0.733832	0.083695
O106	O	0.839110	-0.070749	0.581785
H107	H	0.837668	-0.051529	0.643198
H108	H	0.507025	-0.578621	-0.000117
H109	H	1.119333	-0.279918	0.079435
O110	O	0.724019	0.345055	0.661070
H111	H	0.690001	0.292347	0.625194
O112	O	0.803564	0.404915	0.581776
H113	H	0.797605	0.484473	0.541135
O114	O	0.508747	-0.371104	-0.091296
H115	H	0.462618	-0.423814	-0.083921
O116	O	0.950705	-0.500899	-0.000119
H117	H	0.952871	-0.561290	-0.051148
O118	O	0.738107	-0.604095	0.091087
H119	H	0.721076	-0.686375	0.121585
H120	H	1.002926	-0.370914	0.079450
H121	H	0.736346	0.322397	0.185389
O122	O	0.904519	-0.061707	-0.091290
H123	H	0.921548	0.020562	-0.121800
