data_functionalizedCrystal
_audit_creation_method	'MofGen! by Chris Wilmer'
_symmetry_space_group_name_H-M	'P1'
_symmetry_Int_Tables_number	1
_symmetry_cell_setting	triclinic
loop_
_symmetry_equiv_pos_as_xyz
  x,y,z
_cell_length_a	17.699077
_cell_length_b	15.021413
_cell_length_c	17.699083
_cell_angle_alpha	89.996880
_cell_angle_beta	83.281795
_cell_angle_gamma	90.006741
loop_
_atom_site_label
_atom_site_type_symbol
_atom_site_fract_x
_atom_site_fract_y
_atom_site_fract_z
O1	O	1.004083	0.074022	0.095680
O2	O	0.783704	0.074027	0.108137
O3	O	0.900120	0.074016	-0.008281
O4	O	0.887667	0.074032	0.212098
O5	O	0.900101	-0.074048	-0.008265
O6	O	0.783685	-0.074038	0.108153
O7	O	1.004064	-0.074042	0.095696
Zn8	Zn	0.893872	-0.097548	0.101927
Zn9	Zn	0.893896	0.097533	0.101906
O10	O	0.887649	-0.074032	0.212114
C11	C	0.755498	-0.000005	0.107700
C12	C	0.671479	-0.000003	0.106363
N13	N	0.893861	-0.230686	0.101942
C14	C	0.632002	-0.080714	0.105742
C15	C	0.553059	-0.080715	0.104474
C16	C	0.513595	-0.000005	0.103832
C17	C	0.553078	0.080712	0.104450
C18	C	0.632020	0.080713	0.105713
C19	C	0.234715	0.080714	0.099357
C20	C	0.155767	0.080707	0.098097
C21	C	0.155754	-0.080714	0.098118
C22	C	0.234696	-0.080714	0.099380
C23	C	0.274173	0.000002	0.099995
C24	C	0.359772	0.000003	0.101369
C25	C	0.427997	-0.000004	0.102464
C26	C	0.840022	-0.470364	0.155748
C27	C	0.908386	-0.529699	0.170311
C28	C	0.893880	-0.412293	0.101923
C29	C	0.825535	-0.529700	0.087377
C30	C	0.893893	-0.587717	0.101906
C31	C	0.962278	-0.470321	0.116520
C32	C	0.879383	-0.470317	0.033556
C33	C	0.947796	-0.529625	0.048090
C34	C	0.893872	-0.311236	0.101934
C35	C	0.893909	-0.688772	0.101894
C36	C	1.032271	-0.000009	0.096133
C37	C	1.116289	-0.000004	0.097470
C38	C	0.899664	-0.000016	-0.036470
C39	C	0.898326	-0.000016	-0.120488
N40	N	0.893913	0.230670	0.101885
C41	C	0.966659	-0.000019	-0.169110
C42	C	0.965397	-0.000011	-0.248054
C43	C	0.895800	-0.000007	-0.278373
C44	C	0.827461	-0.000001	-0.229744
C45	C	0.828724	-0.000003	-0.150803
C46	C	0.822366	0.000006	-0.548107
C47	C	0.821108	0.000005	-0.627055
C48	C	0.959039	-0.000002	-0.645358
C49	C	0.960302	-0.000004	-0.566417
C50	C	0.891963	0.000006	-0.517795
C51	C	0.893333	-0.000001	-0.432196
C52	C	0.894430	-0.000006	-0.363971
C53	C	0.888104	0.000002	0.240303
C54	C	0.889443	0.000008	0.324321
H55	H	0.664127	-0.146438	0.106271
H56	H	1.023333	-0.000028	-0.144431
Br57	Br	1.058140	-0.000014	-0.314039
H58	H	1.016974	-0.000012	-0.541735
Br59	Br	0.102208	0.190251	0.097227
H60	H	0.920659	-0.555782	0.228120
H61	H	0.520922	-0.146438	0.103956
H62	H	0.266848	0.146438	0.099855
Br63	Br	0.733007	0.000019	-0.270891
Br64	Br	0.499525	0.190250	0.103546
Br65	Br	0.729194	-0.573178	0.066882
H66	H	1.014683	-0.000006	-0.684956
Br67	Br	0.726649	0.000009	-0.668202
H68	H	0.993397	-0.555481	0.002561
H69	H	0.664161	0.146436	0.106220
Br70	Br	0.729621	0.000025	-0.482130
Br71	Br	0.735982	0.000008	-0.084813
Br72	Br	1.058645	-0.427038	0.137124
Br73	Br	0.288250	-0.190254	0.100258
Br74	Br	0.102174	-0.190260	0.097282
Br75	Br	0.764185	-0.426991	0.231672
Br76	Br	0.858892	-0.426805	-0.062767
