data_functionalizedCrystal
_audit_creation_method	'MofGen! by Chris Wilmer'
_symmetry_space_group_name_H-M	'P1'
_symmetry_Int_Tables_number	1
_symmetry_cell_setting	triclinic
loop_
_symmetry_equiv_pos_as_xyz
  x,y,z
_cell_length_a	18.050591
_cell_length_b	18.050588
_cell_length_c	19.805399
_cell_angle_alpha	89.974760
_cell_angle_beta	89.985740
_cell_angle_gamma	90.028402
loop_
_atom_site_label
_atom_site_type_symbol
_atom_site_fract_x
_atom_site_fract_y
_atom_site_fract_z
Zn1	Zn	1.135313	-0.295700	-0.382635
Zn2	Zn	1.135213	-0.419892	-0.269451
Zn3	Zn	1.011124	-0.295718	-0.269470
Zn4	Zn	1.011077	-0.419850	-0.382608
O5	O	1.073182	-0.357790	-0.326041
O6	O	1.239224	-0.312184	-0.367624
O7	O	1.118730	-0.403445	-0.174737
O8	O	1.027659	-0.191791	-0.284500
O9	O	1.239150	-0.403428	-0.284468
O10	O	1.118900	-0.191777	-0.367642
O11	O	1.027562	-0.312215	-0.174751
O12	O	0.907193	-0.312174	-0.284475
O13	O	1.027580	-0.403356	-0.477328
O14	O	0.907159	-0.403373	-0.367597
O15	O	1.118855	-0.312143	-0.477348
O16	O	1.118684	-0.523811	-0.284443
O17	O	1.027482	-0.523780	-0.367579
C18	C	0.880229	-0.357772	-0.326035
C19	C	0.797684	-0.357782	-0.326049
C20	C	0.548861	-0.407479	-0.371189
C21	C	0.598226	-0.425554	-0.309410
C22	C	0.500563	-0.357805	-0.326048
C23	C	0.598280	-0.339753	-0.387824
C24	C	0.646548	-0.357795	-0.326052
C25	C	0.548841	-0.375916	-0.264236
C26	C	0.548891	-0.290083	-0.342692
C27	C	0.598233	-0.308133	-0.280870
C28	C	0.416465	-0.357813	-0.326047
C29	C	0.730645	-0.357788	-0.326046
C30	C	1.073087	-0.550742	-0.326021
C31	C	1.073115	-0.633288	-0.326035
C32	C	1.023598	-0.882123	-0.371244
C33	C	1.091315	-0.832655	-0.387849
C34	C	1.073269	-0.930408	-0.326072
C35	C	1.005479	-0.832795	-0.309481
C36	C	1.073190	-0.784423	-0.326055
C37	C	1.141023	-0.882027	-0.342709
C38	C	1.055142	-0.882171	-0.264312
C39	C	1.122906	-0.832725	-0.280893
C40	C	1.073314	-1.014506	-0.326084
C41	C	1.073153	-0.700326	-0.326044
C42	C	1.266887	-0.357809	-0.326047
C43	C	1.349433	-0.357816	-0.326049
C44	C	1.073223	-0.357743	-0.502584
C45	C	1.073241	-0.357723	-0.577816
C46	C	1.073296	-0.164084	-0.326076
C47	C	1.073345	-0.081538	-0.326091
C48	C	1.120769	-0.310226	-0.613171
C49	C	1.120777	-0.310205	-0.683860
C50	C	1.073259	-0.357684	-0.719191
C51	C	1.025726	-0.405183	-0.683831
C52	C	1.025715	-0.405200	-0.613144
C53	C	1.025768	-0.405114	-0.968905
C54	C	1.025784	-0.405095	-1.039597
C55	C	1.120830	-0.310118	-1.039620
C56	C	1.120819	-0.310136	-0.968933
C57	C	1.073283	-0.357631	-0.933579
C58	C	1.073274	-0.357653	-0.856930
C59	C	1.073271	-0.357667	-0.795839
C60	C	1.073183	-0.357783	-0.150185
C61	C	1.073309	-0.357593	-0.074953
H62	H	0.527203	-0.232832	-0.356790
H63	H	1.198335	-0.903564	-0.356796
F64	F	0.626666	-0.319800	-0.456107
F65	F	1.111320	-0.804228	-0.456107
F66	F	1.177827	-0.804551	-0.230953
H67	H	0.948184	-0.811165	-0.295455
H68	H	0.981677	-0.903811	-0.409481
H69	H	0.987034	-0.443839	-0.712604
F70	F	1.035113	-0.910621	-0.196073
H71	H	1.159466	-0.271565	-0.584409
H72	H	1.159481	-0.271530	-0.712643
F73	F	1.171396	-0.259604	-0.931334
F74	F	0.520524	-0.462430	-0.421022
F75	F	0.975206	-0.455631	-1.077198
H76	H	1.159533	-0.271442	-1.068414
F77	F	0.626556	-0.500405	-0.291006
H78	H	0.987072	-0.443799	-0.940128
H79	H	0.527217	-0.391250	-0.211979
F80	F	0.626385	-0.253215	-0.230920
H81	H	0.987005	-0.443870	-0.584359
