data_functionalizedCrystal
_audit_creation_method	'MofGen! by Chris Wilmer'
_symmetry_space_group_name_H-M	'P1'
_symmetry_Int_Tables_number	1
_symmetry_cell_setting	triclinic
loop_
_symmetry_equiv_pos_as_xyz
  x,y,z
_cell_length_a	26.809956
_cell_length_b	10.540539
_cell_length_c	10.540539
_cell_angle_alpha	95.474508
_cell_angle_beta	89.993466
_cell_angle_gamma	89.993147
loop_
_atom_site_label
_atom_site_type_symbol
_atom_site_fract_x
_atom_site_fract_y
_atom_site_fract_z
O1	O	0.041454	-1.685897	0.178883
O2	O	0.041459	-1.316484	0.195739
O3	O	0.041456	-1.509619	0.002604
O4	O	0.041457	-1.492763	0.372017
O5	O	-0.041504	-1.509582	0.002633
O6	O	-0.041500	-1.316448	0.195768
O7	O	-0.041506	-1.685861	0.178912
Zn8	Zn	-0.054674	-1.501148	0.187345
Zn9	Zn	0.054628	-1.501196	0.187306
O10	O	-0.041502	-1.492726	0.372047
C11	C	-0.000019	-1.269163	0.194489
C12	C	-0.000017	-1.128215	0.190707
N13	N	-0.129270	-1.501125	0.187370
C14	C	-0.000023	-1.508336	-0.044684
C15	C	-0.000020	-1.504554	-0.185632
C16	C	-0.473898	-1.586705	0.101807
C17	C	-0.682776	-1.586735	0.101788
O18	O	-0.709781	-1.659448	0.029047
N19	N	-0.708897	-1.501203	0.187278
C20	C	-0.682796	-1.415651	0.272773
O21	O	-0.709807	-1.342893	0.345478
C22	C	-0.473920	-1.415616	0.272785
C23	C	-0.447801	-1.501163	0.187298
C24	C	-0.447779	-1.672244	0.016326
C25	C	-0.395563	-1.672241	0.016337
C26	C	-0.369465	-1.586698	0.101828
C27	C	-0.395584	-1.501159	0.187309
C28	C	-0.447820	-1.330060	0.358273
C29	C	-0.395597	-1.330056	0.358266
C30	C	-0.369478	-1.415603	0.272779
C31	C	-0.317271	-1.415613	0.272810
N32	N	-0.291149	-1.501146	0.187320
C33	C	-0.317246	-1.586688	0.101829
C34	C	-0.792460	-1.415678	0.272763
C35	C	-0.844679	-1.415688	0.272761
C36	C	-0.844654	-1.586770	0.101774
C37	C	-0.792434	-1.586765	0.101783
C38	C	-0.766338	-1.501210	0.187273
C39	C	-0.207588	-1.586675	0.101858
C40	C	-0.155368	-1.586667	0.101879
C41	C	-0.155397	-1.415580	0.272861
C42	C	-0.207613	-1.415592	0.272845
C43	C	-0.233708	-1.501144	0.187333
O44	O	-0.290233	-1.342930	0.345504
O45	O	-0.290227	-1.659417	0.029116
C46	C	-0.526114	-1.586709	0.101797
C47	C	-0.552233	-1.501170	0.187278
C48	C	-0.526136	-1.415628	0.272769
C49	C	-0.604452	-1.501180	0.187277
C50	C	-0.630550	-1.586723	0.101785
C51	C	-0.604428	-1.672255	0.016296
C52	C	-0.552212	-1.672251	0.016306
C53	C	-0.552258	-1.330096	0.358259
C54	C	-0.604474	-1.330107	0.358242
C55	C	-0.630571	-1.415650	0.272751
N56	N	0.129224	-1.501230	0.187270
C57	C	-0.000026	-1.733182	0.180161
C58	C	-0.000025	-1.874130	0.183943
C59	C	-0.000211	-0.944788	0.045790
C60	C	-0.000019	-1.091406	0.049624
C61	C	0.047355	-1.066563	0.258586
C62	C	0.047390	-0.920019	0.253771
C63	C	-0.046951	-0.919488	0.256674
C64	C	-0.047571	-1.066470	0.257974
C65	C	0.000168	-1.359637	-0.369059
C66	C	-0.000019	-1.363471	-0.222441
C67	C	-0.047395	-1.572429	-0.247273
C68	C	-0.047435	-1.567614	-0.393818
C69	C	0.046905	-1.570525	-0.394369
C70	C	0.047531	-1.571825	-0.247388
C71	C	-0.000022	-1.494008	0.419335
C72	C	-0.000022	-1.497790	0.560283
H73	H	-0.134103	-1.656334	0.032266
H74	H	0.049540	-0.872050	0.355235
Br75	Br	-0.105984	-1.134538	0.175181
Br76	Br	-0.360184	-1.213933	0.474291
Br77	Br	0.050308	-1.103856	0.431260
H78	H	-0.034185	-0.916188	-0.009934
Br79	Br	-0.242994	-1.702782	-0.014196
H80	H	0.082610	-1.109167	0.211409
Br81	Br	-0.051026	-1.736721	-0.473774
H82	H	-0.134140	-1.345936	0.342471
Br83	Br	0.105955	-1.489757	-0.178484
Br84	Br	-0.106800	-0.866891	0.180593
Br85	Br	0.047435	-1.740370	-0.473081
H86	H	-0.530949	-1.741911	-0.053306
H87	H	-0.625685	-1.741912	-0.053311
Br88	Br	-0.243059	-1.299507	0.388883
Br89	Br	0.056584	-1.274454	-0.151445
Br90	Br	0.052302	-1.743268	-0.207011
Br91	Br	0.056794	-1.266764	-0.416740
H92	H	0.033998	-1.133166	-0.004187
Br93	Br	-0.360121	-1.788337	-0.099691
H94	H	-0.033613	-1.304118	-0.399255
H95	H	-0.034034	-1.309658	-0.180673
Br96	Br	-0.880083	-1.702863	-0.014247
H97	H	-0.082847	-1.517421	-0.422005
Br98	Br	-0.516847	-1.213991	0.474292
H99	H	-0.049158	-1.676036	-0.224918
Br100	Br	-0.639916	-1.214005	0.474278
Br101	Br	-0.056619	-1.162415	-0.039398
Br102	Br	-0.880120	-1.299606	0.388804
H103	H	0.033572	-0.914596	-0.009722
Br104	Br	-0.106155	-1.493798	-0.176257
H105	H	-0.050431	-1.090695	0.360834
Br106	Br	0.106753	-1.494434	-0.446961
H107	H	-0.469023	-1.741903	-0.053296
Br108	Br	-0.756993	-1.702868	-0.014239
H109	H	-0.047270	-0.872261	0.358578
Br110	Br	-0.757049	-1.299559	0.388797
Br111	Br	0.106410	-0.873018	0.170114
H112	H	-0.469079	-1.260400	0.427883
