data_functionalizedCrystal
_audit_creation_method	'MofGen! by Chris Wilmer'
_symmetry_space_group_name_H-M	'P1'
_symmetry_Int_Tables_number	1
_symmetry_cell_setting	triclinic
loop_
_symmetry_equiv_pos_as_xyz
  x,y,z
_cell_length_a	12.759401
_cell_length_b	12.759399
_cell_length_c	12.759393
_cell_angle_alpha	90.031461
_cell_angle_beta	90.020473
_cell_angle_gamma	90.016641
loop_
_atom_site_label
_atom_site_type_symbol
_atom_site_fract_x
_atom_site_fract_y
_atom_site_fract_z
Zn1	Zn	1.606259	-0.418167	0.594017
Zn2	Zn	2.106259	0.081833	1.094017
Zn3	Zn	1.606150	-0.593884	0.418336
Zn4	Zn	2.106150	-0.093884	0.918336
Zn5	Zn	1.430559	-0.418225	0.418352
Zn6	Zn	1.930559	0.081775	0.918352
Zn7	Zn	1.430548	-0.593809	0.593973
Zn8	Zn	1.930548	-0.093809	1.093973
O9	O	1.518379	-0.506021	0.506170
O10	O	2.018379	-0.006021	1.006170
O11	O	1.753265	-0.441484	0.570724
O12	O	2.253265	0.058516	1.070724
O13	O	1.582816	-0.570638	0.271317
O14	O	2.082816	-0.070638	0.771317
O15	O	1.453916	-0.271196	0.441680
O16	O	1.953916	0.228804	0.941680
O17	O	1.753185	-0.570582	0.441652
O18	O	2.253185	-0.070582	0.941652
O19	O	1.583002	-0.271154	0.570740
O20	O	2.083002	0.228846	1.070740
O21	O	1.453810	-0.441582	0.271329
O22	O	1.953810	0.058418	0.771329
O23	O	1.283536	-0.441509	0.441637
O24	O	1.783536	0.058491	0.941637
O25	O	1.453897	-0.570454	0.741000
O26	O	1.953897	-0.070454	1.241000
O27	O	1.283528	-0.570510	0.570665
O28	O	1.783528	-0.070510	1.070665
O29	O	1.582991	-0.441411	0.741032
O30	O	2.082991	0.058589	1.241032
O31	O	1.582806	-0.740895	0.441609
O32	O	2.082806	-0.240895	0.941609
O33	O	1.453792	-0.740840	0.570649
O34	O	1.953792	-0.240840	1.070649
C35	C	1.245411	-0.506008	0.506149
C36	C	1.745411	-0.006008	1.006149
C37	C	1.128635	-0.506028	0.506165
C38	C	1.628635	-0.006028	1.006165
C39	C	1.073796	-0.573301	0.573244
C40	C	1.573796	-0.073301	1.073244
C41	C	0.964072	-0.573305	0.573265
C42	C	1.464072	-0.073305	1.073265
C43	C	0.964035	-0.438760	0.439118
C44	C	1.464035	0.061240	0.939118
C45	C	1.073757	-0.438752	0.439104
C46	C	1.573757	0.061248	0.939104
C47	C	1.518314	-0.778989	0.506146
C48	C	2.018314	-0.278989	1.006146
C49	C	1.518383	-0.895765	0.506171
C50	C	2.018383	-0.395765	1.006171
C51	C	1.585637	-0.950621	0.439056
C52	C	2.085637	-0.450621	0.939056
C53	C	1.585705	-1.060345	0.439091
C54	C	2.085705	-0.560345	0.939091
C55	C	1.451255	-1.060348	0.573359
C56	C	1.951255	-0.560348	1.073359
C57	C	1.451193	-0.950626	0.573328
C58	C	1.951193	-0.450626	1.073328
C59	C	1.792412	-0.506035	0.506191
C60	C	2.292412	-0.006035	1.006191
C61	C	1.909189	-0.506041	0.506200
C62	C	2.409189	-0.006041	1.006200
C63	C	1.518455	-0.505918	0.780203
C64	C	2.018455	-0.005918	1.280203
C65	C	1.518488	-0.505874	0.896980
C66	C	2.018488	-0.005874	1.396980
C67	C	1.518472	-0.231988	0.506217
C68	C	2.018472	0.268012	1.006217
C69	C	1.518512	-0.115211	0.506237
C70	C	2.018512	0.384789	1.006237
C71	C	1.518363	-0.506049	0.233202
C72	C	2.018363	-0.006049	0.733202
C73	C	1.518534	-0.505797	0.116426
C74	C	2.018534	-0.005797	0.616426
C75	C	1.585733	-0.438630	1.061592
C76	C	2.085733	0.061370	1.561592
C77	C	1.585713	-0.438671	0.951867
C78	C	2.085713	0.061329	1.451867
C79	C	1.451285	-0.573047	0.951822
C80	C	1.951285	-0.073047	1.451822
C81	C	1.451311	-0.573011	1.061544
C82	C	1.951311	-0.073011	1.561544
H83	H	1.118408	-0.383963	0.384480
H84	H	1.618408	0.116037	0.884480
C85	C	1.659553	-0.890278	0.365187
C86	C	2.159553	-0.390278	0.865187
N87	N	1.715232	-0.844831	0.309549
N88	N	2.215232	-0.344831	0.809549
H89	H	1.640471	-1.105004	0.384441
H90	H	2.140471	-0.605004	0.884441
H91	H	1.396554	-0.627770	0.907124
H92	H	1.896554	-0.127770	1.407124
C93	C	1.377338	-1.120705	0.647216
C94	C	1.877338	-0.620705	1.147216
N95	N	1.321658	-1.166164	0.702843
N96	N	1.821658	-0.666164	1.202843
H97	H	1.396426	-0.905959	0.627986
H98	H	1.896426	-0.405959	1.127986
C99	C	1.134158	-0.647300	0.647021
C100	C	1.634158	-0.147300	1.147021
N101	N	1.179619	-0.703034	0.702595
N102	N	1.679619	-0.203034	1.202595
H103	H	1.640470	-0.383899	1.106273
H104	H	2.140470	0.116101	1.606273
H105	H	0.919427	-0.628084	0.627889
H106	H	1.419427	-0.128084	1.127889
H107	H	0.919340	-0.383988	0.384518
H108	H	1.419340	0.116012	0.884518
H109	H	1.640435	-0.383978	0.907226
H110	H	2.140435	0.116022	1.407226
C111	C	1.377381	-0.646902	1.121866
C112	C	1.877381	-0.146902	1.621866
N113	N	1.321700	-0.702555	1.167300
N114	N	1.821700	-0.202555	1.667300
