data_functionalizedCrystal
_audit_creation_method	'MofGen! by Chris Wilmer'
_symmetry_space_group_name_H-M	'P1'
_symmetry_Int_Tables_number	1
_symmetry_cell_setting	triclinic
loop_
_symmetry_equiv_pos_as_xyz
  x,y,z
_cell_length_a	17.699083
_cell_length_b	17.699083
_cell_length_c	16.776229
_cell_angle_alpha	90.001114
_cell_angle_beta	89.992455
_cell_angle_gamma	96.716985
loop_
_atom_site_label
_atom_site_type_symbol
_atom_site_fract_x
_atom_site_fract_y
_atom_site_fract_z
O1	O	0.095713	-1.004078	-0.066178
O2	O	0.595713	-0.504078	0.433822
O3	O	0.108165	-0.783700	-0.066204
O4	O	0.608165	-0.283700	0.433796
O5	O	-0.008250	-0.900116	-0.066183
O6	O	0.491750	-0.400116	0.433817
O7	O	0.212128	-0.887663	-0.066199
O8	O	0.712128	-0.387663	0.433801
O9	O	-0.008257	-0.900100	0.066393
O10	O	0.491743	-0.400100	0.566393
O11	O	0.108158	-0.783685	0.066372
O12	O	0.608158	-0.283685	0.566372
O13	O	0.095706	-1.004063	0.066398
O14	O	0.595706	-0.504063	0.566398
Zn15	Zn	0.101931	-0.893871	0.087435
Zn16	Zn	0.601931	-0.393871	0.587435
Zn17	Zn	0.101940	-0.893892	-0.087241
Zn18	Zn	0.601940	-0.393892	0.412759
O19	O	0.212121	-0.887648	0.066378
O20	O	0.712121	-0.387648	0.566378
C21	C	0.107716	-0.755495	0.000081
C22	C	0.607716	-0.255495	0.500081
C23	C	0.106377	-0.671477	0.000071
C24	C	0.606377	-0.171477	0.500071
C25	C	-0.036451	-0.899662	0.000105
C26	C	0.463549	-0.399662	0.500105
C27	C	-0.120469	-0.898323	0.000105
C28	C	0.379531	-0.398323	0.500105
C29	C	0.096156	-1.032268	0.000112
C30	C	0.596156	-0.532268	0.500112
C31	C	0.097494	-1.116286	0.000116
C32	C	0.597494	-0.616286	0.500116
C33	C	-0.169090	-0.966656	0.000114
C34	C	0.330910	-0.466656	0.500114
C35	C	-0.248033	-0.965394	0.000107
C36	C	0.251967	-0.465394	0.500107
C37	C	-0.278354	-0.895798	0.000096
C38	C	0.221646	-0.395798	0.500096
C39	C	-0.229727	-0.827459	0.000085
C40	C	0.270273	-0.327459	0.500085
C41	C	-0.150785	-0.828722	0.000086
C42	C	0.349215	-0.328722	0.500086
C43	C	-0.548090	-0.822364	0.000078
C44	C	-0.048090	-0.322364	0.500078
C45	C	-0.627038	-0.821106	0.000078
C46	C	-0.127038	-0.321106	0.500078
C47	C	-0.645338	-0.959036	0.000099
C48	C	-0.145338	-0.459036	0.500099
C49	C	-0.566396	-0.960299	0.000100
C50	C	-0.066396	-0.460299	0.500100
C51	C	-0.517776	-0.891961	0.000084
C52	C	-0.017776	-0.391961	0.500084
C53	C	-0.432177	-0.893330	0.000090
C54	C	0.067823	-0.393330	0.500090
C55	C	-0.363951	-0.894427	0.000096
C56	C	0.136049	-0.394427	0.500096
C57	C	0.240322	-0.888102	0.000087
C58	C	0.740322	-0.388102	0.500087
C59	C	0.324340	-0.889440	0.000082
C60	C	0.824340	-0.389440	0.500082
N61	N	0.101924	-0.893863	0.206646
N62	N	0.601924	-0.393863	0.706646
C63	C	0.174710	-0.622856	0.000066
C64	C	0.674710	-0.122856	0.500066
C65	C	0.173448	-0.543913	0.000077
C66	C	0.673448	-0.043913	0.500077
C67	C	0.103852	-0.513592	0.000086
C68	C	0.603852	-0.013592	0.500086
C69	C	0.035513	-0.562219	0.000093
C70	C	0.535513	-0.062219	0.500093
C71	C	0.036776	-0.641161	0.000088
C72	C	0.536776	-0.141161	0.500088
C73	C	0.030418	-0.243856	0.000113
C74	C	0.530418	0.256144	0.500113
C75	C	0.029160	-0.164908	0.000115
C76	C	0.529160	0.335092	0.500115
C77	C	0.167090	-0.146608	0.000101
C78	C	0.667090	0.353392	0.500101
C79	C	0.168353	-0.225550	0.000097
C80	C	0.668353	0.274450	0.500097
C81	C	0.100015	-0.274170	0.000108
C82	C	0.600015	0.225830	0.500108
C83	C	0.101384	-0.359769	0.000098
C84	C	0.601384	0.140231	0.500098
C85	C	0.102481	-0.427995	0.000090
C86	C	0.602481	0.072005	0.500090
N87	N	0.101941	-0.893906	-0.206452
N88	N	0.601941	-0.393906	0.293548
C89	C	0.050396	-0.945428	0.248372
C90	C	0.550396	-0.445428	0.748372
C91	C	0.050396	-0.945432	0.331824
C92	C	0.550396	-0.445432	0.831824
C93	C	0.101927	-0.893875	0.373549
C94	C	0.601927	-0.393875	0.873549
C95	C	0.153457	-0.842305	0.331817
C96	C	0.653457	-0.342305	0.831817
C97	C	0.153454	-0.842297	0.248366
C98	C	0.653454	-0.342297	0.748366
C99	C	0.153472	-0.842332	0.668364
C100	C	0.653472	-0.342332	1.168364
C101	C	0.153473	-0.842345	0.751820
C102	C	0.653473	-0.342345	1.251820
C103	C	0.050414	-0.945466	0.751822
C104	C	0.550414	-0.445466	1.251822
C105	C	0.050411	-0.945459	0.668372
C106	C	0.550411	-0.445459	1.168372
C107	C	0.101938	-0.893887	0.626647
C108	C	0.601938	-0.393887	1.126647
C109	C	0.101937	-0.893882	0.536158
C110	C	0.601937	-0.393882	1.036158
C111	C	0.101932	-0.893882	0.464036
C112	C	0.601932	-0.393882	0.964036
H113	H	-0.287618	-1.021038	0.000116
H114	H	0.212382	-0.521038	0.500116
H115	H	-0.651721	-0.764429	0.000071
H116	H	-0.151721	-0.264429	0.500071
N117	N	0.209029	-0.786677	0.203363
N118	N	0.709029	-0.286677	0.703363
H119	H	0.262738	-0.795290	0.217871
H120	H	0.762738	-0.295290	0.717871
H121	H	0.201141	-0.794519	0.144180
H122	H	0.701141	-0.294519	0.644180
N123	N	0.209041	-0.786707	0.623366
N124	N	0.709041	-0.286707	1.123366
H125	H	0.241685	-0.754049	0.662464
H126	H	0.741685	-0.254049	1.162464
H127	H	0.242467	-0.815606	0.588727
H128	H	0.742467	-0.315606	1.088727
N129	N	-0.533698	-1.035366	0.000116
N130	N	-0.033698	-0.535366	0.500116
H131	H	-0.551431	-1.065302	-0.049027
H132	H	-0.051431	-0.565302	0.450973
H133	H	-0.476316	-1.025735	0.000148
H134	H	0.023684	-0.525735	0.500148
H135	H	0.195437	-0.800358	0.785791
H136	H	0.695437	-0.300358	1.285791
N137	N	0.240807	-0.094178	0.000101
N138	N	0.740807	0.405822	0.500101
H139	H	0.243367	-0.061011	-0.049040
H140	H	0.743367	0.438989	0.450960
H141	H	0.243319	-0.061071	0.049284
H142	H	0.743319	0.438929	0.549284
H143	H	0.008456	-0.987457	0.785804
H144	H	0.508456	-0.487457	1.285804
H145	H	0.008452	-0.987444	0.634402
H146	H	0.508452	-0.487444	1.134402
N147	N	-0.697778	-1.032747	0.000116
N148	N	-0.197778	-0.532747	0.500116
H149	H	-0.752389	-1.021391	0.000111
H150	H	-0.252389	-0.521391	0.500111
H151	H	-0.687969	-1.063094	-0.049025
H152	H	-0.187969	-0.563094	0.450975
H153	H	-0.254420	-0.770792	0.000071
H154	H	0.245580	-0.270792	0.500071
N155	N	-0.098340	-0.755020	0.000071
N156	N	0.401660	-0.255020	0.500071
H157	H	-0.129525	-0.710739	0.000065
H158	H	0.370475	-0.210739	0.500065
H159	H	-0.065191	-0.752532	0.049218
H160	H	0.434809	-0.252532	0.549218
N161	N	-0.495655	-0.748660	0.000064
N162	N	0.004345	-0.248660	0.500064
H163	H	-0.526845	-0.704382	0.000061
H164	H	-0.026845	-0.204382	0.500061
H165	H	-0.462508	-0.746172	0.049211
H166	H	0.037492	-0.246172	0.549211
H167	H	-0.025228	-0.283434	0.000123
H168	H	0.474772	0.216566	0.500123
H169	H	0.225025	-0.250232	0.000085
H170	H	0.725025	0.249768	0.500085
N171	N	0.249776	-0.655557	0.000047
N172	N	0.749776	-0.155557	0.500047
H173	H	0.292873	-0.612774	0.000046
H174	H	0.792873	-0.112774	0.500046
H175	H	0.253305	-0.687915	0.049191
H176	H	0.753305	-0.187915	0.549191
H177	H	0.195412	-0.800322	0.365793
H178	H	0.695412	-0.300322	0.865793
N179	N	-0.136389	-1.041722	0.000134
N180	N	0.363611	-0.541722	0.500134
H181	H	-0.179172	-1.084819	0.000137
H182	H	0.320828	-0.584819	0.500137
H183	H	-0.104027	-1.045258	-0.049012
H184	H	0.395973	-0.545258	0.450988
H185	H	-0.021154	-0.537526	0.000112
H186	H	0.478846	-0.037526	0.500112
H187	H	0.229092	-0.504328	0.000072
H188	H	0.729092	-0.004328	0.500072
H189	H	-0.027517	-0.140225	0.000124
H190	H	0.472483	0.359775	0.500124
N191	N	-0.036929	-0.693601	0.000097
N192	N	0.463071	-0.193601	0.500097
H193	H	-0.067300	-0.683866	-0.049045
H194	H	0.432700	-0.183866	0.450955
H195	H	-0.025508	-0.748190	0.000127
H196	H	0.474492	-0.248190	0.500127
N197	N	-0.005180	-1.001041	0.203372
N198	N	0.494820	-0.501041	0.703372
H199	H	-0.037823	-1.033706	0.242472
H200	H	0.462177	-0.533706	0.742472
H201	H	-0.038606	-0.972128	0.168757
H202	H	0.461394	-0.472128	0.668757
H203	H	0.008438	-0.987419	0.365798
H204	H	0.508438	-0.487419	0.865798
