data_functionalizedCrystal
_audit_creation_method	'MofGen! by Chris Wilmer'
_symmetry_space_group_name_H-M	'P1'
_symmetry_Int_Tables_number	1
_symmetry_cell_setting	triclinic
loop_
_symmetry_equiv_pos_as_xyz
  x,y,z
_cell_length_a	19.188925
_cell_length_b	10.654550
_cell_length_c	9.730223
_cell_angle_alpha	90.002963
_cell_angle_beta	90.002766
_cell_angle_gamma	83.813726
loop_
_atom_site_label
_atom_site_type_symbol
_atom_site_fract_x
_atom_site_fract_y
_atom_site_fract_z
O1	O	-0.927170	-0.156747	-0.114316
O2	O	-0.723996	-0.177859	-0.114312
O3	O	-0.830254	0.015535	-0.114309
O4	O	-0.820911	-0.350141	-0.114319
O5	O	-0.830250	0.015540	0.114271
O6	O	-0.723992	-0.177854	0.114268
O7	O	-0.927166	-0.156742	0.114264
Zn8	Zn	-0.825578	-0.167297	0.150558
Zn9	Zn	-0.825583	-0.167304	-0.150606
O10	O	-0.820907	-0.350136	0.114261
C11	C	-0.829566	0.062321	-0.000021
C12	C	-0.827514	0.201721	-0.000025
C13	C	-0.697978	-0.177174	-0.000021
C14	C	-0.620460	-0.175125	-0.000020
C15	C	-0.953183	-0.157427	-0.000030
C16	C	-1.030701	-0.159476	-0.000040
C17	C	-0.059343	-0.274883	-0.000026
C18	C	-0.132178	-0.276819	-0.000033
C19	C	-0.176371	-0.163341	-0.000028
C20	C	-0.147722	-0.047919	-0.000050
C21	C	-0.074887	-0.045986	-0.000056
N22	N	-0.296509	-0.081187	0.077785
N23	N	-0.365699	-0.083030	0.077794
C24	C	-0.395818	-0.169158	-0.000012
N25	N	-0.354133	-0.253391	-0.077809
N26	N	-0.284937	-0.251551	-0.077812
C27	C	-0.255349	-0.165425	-0.000022
C28	C	-0.503435	-0.286673	-0.000007
C29	C	-0.576273	-0.288604	-0.000023
C30	C	-0.591815	-0.059701	-0.000026
C31	C	-0.518979	-0.057773	-0.000024
C32	C	-0.474793	-0.171262	-0.000008
C33	C	-0.821595	-0.396922	-0.000030
C34	C	-0.823648	-0.536322	-0.000035
N35	N	-0.825580	-0.167292	0.356094
C36	C	-0.890077	0.282533	-0.000023
C37	C	-0.888144	0.413513	-0.000032
C38	C	-0.761080	0.382856	-0.000042
C39	C	-0.763013	0.251879	-0.000042
C40	C	-0.954578	0.232375	-0.000006
C41	C	-1.017146	0.313188	-0.000002
C42	C	-1.015213	0.444168	-0.000011
C43	C	-0.950712	0.494335	-0.000025
N44	N	-0.825587	-0.167299	-0.356142
C45	C	-0.782875	-0.091314	0.428046
C46	C	-0.782877	-0.091320	0.571928
C47	C	-0.868294	-0.243286	0.571896
C48	C	-0.868288	-0.243285	0.428016
C49	C	-0.740168	-0.015321	0.356124
C50	C	-0.697460	0.060665	0.428075
C51	C	-0.697462	0.060659	0.571958
C52	C	-0.740171	-0.015333	0.643890
H53	H	-0.023370	-0.367295	-0.000020
Br54	Br	-0.480106	0.098861	-0.000055
Br55	Br	-1.100125	0.553840	-0.000025
H56	H	-0.949144	0.600989	-0.000048
Br57	Br	-0.926253	-0.346384	0.330358
Br58	Br	-0.673549	0.450940	-0.000061
H59	H	-1.069660	0.272333	-0.000025
H60	H	-0.712069	0.186079	-0.000042
Br61	Br	-0.926252	-0.346410	0.669517
H62	H	-0.956158	0.125726	0.000006
Br63	Br	-0.740169	-0.015298	0.160855
H64	H	-0.662684	0.122526	0.369499
Br65	Br	-0.651783	0.094308	-0.000047
Br66	Br	-0.639495	0.163763	0.669604
H67	H	-0.740165	-0.015339	0.761049
H68	H	-0.155503	-0.370800	-0.000009
Br69	Br	-0.036014	0.110650	-0.000084
Br70	Br	-0.443465	-0.440689	0.000013
Br71	Br	-0.207695	0.106088	-0.000054
H72	H	-0.599590	-0.382586	-0.000023
