data_functionalizedCrystal
_audit_creation_method	'MofGen! by Chris Wilmer'
_symmetry_space_group_name_H-M	'P1'
_symmetry_Int_Tables_number	1
_symmetry_cell_setting	triclinic
loop_
_symmetry_equiv_pos_as_xyz
  x,y,z
_cell_length_a	12.784890
_cell_length_b	10.489716
_cell_length_c	11.295483
_cell_angle_alpha	94.140629
_cell_angle_beta	86.328828
_cell_angle_gamma	78.817847
loop_
_atom_site_label
_atom_site_type_symbol
_atom_site_fract_x
_atom_site_fract_y
_atom_site_fract_z
O1	O	1.417465	-0.001400	-0.098988
O2	O	1.108423	0.053181	-0.098995
O3	O	1.269990	-0.160569	-0.098996
O4	O	1.255898	0.212350	-0.098988
O5	O	1.255799	-0.141821	0.099055
O6	O	1.094232	0.071928	0.099056
O7	O	1.403274	0.017348	0.099063
Cu8	Cu	1.247457	0.046350	0.117143
Cu9	Cu	1.264240	0.024179	-0.117075
O10	O	1.241707	0.231098	0.099063
C11	C	1.061755	0.066104	0.000029
C12	C	0.943841	0.076667	0.000026
C13	C	0.765868	0.209043	0.000027
C14	C	0.876658	0.199127	0.000027
C15	C	0.900228	-0.035887	0.000022
C16	C	0.789438	-0.025971	0.000022
C17	C	0.722262	0.096499	0.000027
C18	C	0.611469	0.106414	0.000035
C19	C	0.635042	-0.128599	0.000021
C20	C	0.745832	-0.138515	0.000021
C21	C	1.261836	-0.198598	0.000026
C22	C	1.258669	-0.339844	0.000015
C23	C	1.357746	-0.449599	0.000028
C24	C	1.312388	-0.529819	-0.097619
C25	C	1.298374	-0.511296	0.097643
C26	C	1.213358	-0.418211	-0.097713
C27	C	1.199352	-0.399676	0.097637
C28	C	1.153923	-0.479840	-0.000034
C29	C	1.449942	0.004424	0.000036
C30	C	1.567856	-0.006139	0.000031
C31	C	1.249861	0.269127	0.000039
C32	C	1.253029	0.410372	0.000042
N33	N	1.235661	0.061942	0.281879
N34	N	1.276044	0.008575	-0.281812
C35	C	1.360959	-0.103739	0.531168
C36	C	1.352052	-0.091947	0.655832
C37	C	1.208936	0.097311	0.655872
C38	C	1.217843	0.085519	0.531209
C39	C	1.293858	-0.015008	0.468861
C40	C	1.302769	-0.026793	0.344195
C41	C	1.159649	0.162459	0.344238
C42	C	1.150742	0.174250	0.468902
H43	H	0.912157	0.290773	0.000030
O44	O	1.376444	-0.124536	0.283523
C45	C	1.324080	-0.203711	0.211483
H46	H	1.242725	-0.145507	0.192799
H47	H	1.374515	-0.237138	0.123819
H48	H	1.312659	-0.292510	0.259573
O49	O	0.965641	-0.154737	0.000066
C50	C	1.072778	-0.139350	0.000028
H51	H	1.075091	-0.036168	0.037525
H52	H	1.118301	-0.212718	0.057522
H53	H	1.111577	-0.156724	-0.094989
H54	H	0.800542	-0.238226	0.000013
H55	H	1.360127	-0.586229	-0.180173
H56	H	0.599533	-0.220250	-0.000074
H57	H	1.443933	-0.435442	-0.000069
H58	H	1.334304	-0.552057	0.180195
O59	O	0.546056	0.225278	0.000088
C60	C	0.438920	0.209901	0.000058
H61	H	0.431227	0.113823	0.037558
H62	H	0.385169	0.294162	0.057554
H63	H	0.413729	0.209284	-0.094958
H64	H	1.177478	-0.377632	-0.180358
O65	O	1.417197	-0.178320	0.716228
C66	C	1.401131	-0.305452	0.685786
H67	H	1.366665	-0.309340	0.595281
H68	H	1.480784	-0.377427	0.681502
H69	H	1.342955	-0.332393	0.755958
O70	O	1.434930	-0.201208	0.470557
C71	C	1.506089	-0.146967	0.398431
H72	H	1.505918	-0.043093	0.436006
H73	H	1.590218	-0.208370	0.397018
H74	H	1.479675	-0.145579	0.303950
H75	H	1.147040	0.179149	0.706652
H76	H	1.067681	-0.493758	-0.000089
O77	O	1.076853	0.271739	0.529605
C78	C	1.005648	0.217534	0.601703
H79	H	1.045850	0.114905	0.620360
H80	H	0.982991	0.280870	0.689375
H81	H	0.930526	0.212997	0.553676
O82	O	1.142587	-0.332435	0.196246
C83	C	1.187745	-0.380064	0.299007
H84	H	1.275016	-0.429141	0.275614
H85	H	1.182960	-0.295602	0.369864
H86	H	1.141776	-0.453961	0.334637
H87	H	1.105014	0.234713	0.293493
H88	H	0.711171	0.308764	0.000045
