data_functionalizedCrystal
_audit_creation_method	'MofGen! by Chris Wilmer'
_symmetry_space_group_name_H-M	'P1'
_symmetry_Int_Tables_number	1
_symmetry_cell_setting	triclinic
loop_
_symmetry_equiv_pos_as_xyz
  x,y,z
_cell_length_a	10.654550
_cell_length_b	15.944551
_cell_length_c	9.130313
_cell_angle_alpha	89.997799
_cell_angle_beta	89.996220
_cell_angle_gamma	83.991820
loop_
_atom_site_label
_atom_site_type_symbol
_atom_site_fract_x
_atom_site_fract_y
_atom_site_fract_z
O1	O	1.666308	0.117973	-0.121923
O2	O	1.300684	0.129213	-0.121900
O3	O	1.493480	0.001376	-0.121899
O4	O	1.473511	0.245810	-0.121924
O5	O	1.493478	0.001379	0.121700
O6	O	1.300681	0.129216	0.121699
O7	O	1.666305	0.117976	0.121676
Cu8	Cu	1.483493	0.123596	0.143930
Cu9	Cu	1.483496	0.123592	-0.144154
O10	O	1.473509	0.245813	0.121675
C11	C	1.253895	0.128389	-0.000098
C12	C	1.114484	0.125920	-0.000088
C13	C	1.034024	0.201188	-0.000117
C14	C	0.903034	0.198863	-0.000142
C15	C	0.932975	0.045995	-0.000116
C16	C	1.063963	0.048321	-0.000080
C17	C	1.084545	0.278788	-0.000126
C18	C	1.004084	0.354062	-0.000156
C19	C	0.873094	0.351737	-0.000182
C20	C	0.822564	0.274137	-0.000176
C21	C	1.492650	-0.029921	-0.000099
C22	C	1.490165	-0.123182	-0.000098
C23	C	1.364720	-0.338765	-0.000111
C24	C	1.422971	-0.399443	0.119995
C25	C	1.485668	-0.293934	-0.000109
C26	C	1.423002	-0.399430	-0.120175
C27	C	1.481317	-0.458872	-0.000126
C28	C	1.543953	-0.353384	0.120095
C29	C	1.543967	-0.353364	-0.120182
C30	C	1.602306	-0.414024	-0.000048
C31	C	1.488172	-0.198917	-0.000098
C32	C	1.478822	-0.553887	-0.000127
C33	C	1.713094	0.118800	-0.000130
C34	C	1.852505	0.121269	-0.000149
C35	C	1.474339	0.277110	-0.000128
C36	C	1.476824	0.370371	-0.000139
N37	N	1.483500	0.123599	0.346552
N38	N	1.483499	0.123583	-0.346777
C39	C	1.568892	0.067012	0.423205
C40	C	1.568889	0.067002	0.576542
C41	C	1.398098	0.180173	0.576560
C42	C	1.398096	0.180178	0.423226
C43	C	1.654296	0.010433	0.346531
C44	C	1.739696	-0.046158	0.423184
C45	C	1.739693	-0.046168	0.576520
C46	C	1.654290	0.010412	0.653205
H47	H	1.129476	-0.012970	-0.000060
O48	O	1.244935	-0.299754	0.000290
C49	C	1.181622	-0.323117	0.127153
H50	H	1.253712	-0.344689	0.215220
H51	H	1.117024	-0.266705	0.169072
H52	H	1.122933	-0.376846	0.099752
O53	O	0.695311	0.271919	-0.000456
C54	C	0.643360	0.313085	-0.126613
H55	H	0.719130	0.313078	-0.214776
H56	H	0.562189	0.278595	-0.168978
H57	H	0.606753	0.380867	-0.098101
O58	O	1.315098	0.235020	0.651210
C59	C	1.237611	0.189549	0.739885
H60	H	1.287627	0.124130	0.762844
H61	H	1.217752	0.224480	0.847716
H62	H	1.144799	0.183268	0.680805
O63	O	1.362130	-0.423863	-0.241354
C64	C	1.445353	-0.479259	-0.325163
H65	H	1.523811	-0.509774	-0.251761
H66	H	1.391360	-0.530284	-0.375201
H67	H	1.488181	-0.442514	-0.416295
O68	O	1.605116	-0.329103	-0.241284
C69	C	1.729653	-0.368952	-0.242317
H70	H	1.734772	-0.428688	-0.173021
H71	H	1.758718	-0.386067	-0.359615
H72	H	1.796172	-0.324324	-0.195155
O73	O	1.822799	-0.101084	0.348833
C74	C	1.947123	-0.086662	0.386231
H75	H	1.947004	-0.054303	0.497574
H76	H	2.008954	-0.149422	0.391429
H77	H	1.985945	-0.044599	0.299934
O78	O	1.361827	-0.423882	0.240983
C79	C	1.257103	-0.465202	0.197876
H80	H	1.272897	-0.491004	0.082148
H81	H	1.245392	-0.519408	0.276439
H82	H	1.168339	-0.418609	0.200186
H83	H	1.328561	0.226256	0.360815
H84	H	1.654286	0.010394	0.778062
H85	H	0.807585	0.413029	-0.000192
H86	H	0.891822	-0.017184	-0.000135
H87	H	1.191203	0.280689	-0.000112
H88	H	1.702787	-0.446602	0.000014
O89	O	1.053372	0.429366	-0.000225
C90	C	1.186239	0.415282	-0.000164
H91	H	1.217005	0.349909	-0.046265
H92	H	1.226474	0.464976	-0.070889
H93	H	1.222679	0.419570	0.116709
O94	O	1.604845	-0.329041	0.241323
C95	C	1.606429	-0.240734	0.239880
H96	H	1.525815	-0.211005	0.168703
H97	H	1.594554	-0.215351	0.356334
H98	H	1.700198	-0.224438	0.193441
O99	O	1.654431	0.010304	0.197582
C100	C	1.748141	-0.051751	0.146340
H101	H	1.770050	-0.101659	0.234694
H102	H	1.712772	-0.082570	0.043754
H103	H	1.837374	-0.021206	0.119135
H104	H	1.809220	-0.092252	0.638929
