data_functionalizedCrystal
_audit_creation_method	'MofGen! by Chris Wilmer'
_symmetry_space_group_name_H-M	'P1'
_symmetry_Int_Tables_number	1
_symmetry_cell_setting	triclinic
loop_
_symmetry_equiv_pos_as_xyz
  x,y,z
_cell_length_a	13.031981
_cell_length_b	13.032951
_cell_length_c	11.169409
_cell_angle_alpha	97.196960
_cell_angle_beta	82.780222
_cell_angle_gamma	90.900548
loop_
_atom_site_label
_atom_site_type_symbol
_atom_site_fract_x
_atom_site_fract_y
_atom_site_fract_z
Zn1	Zn	-0.609495	-1.520376	-0.811058
Zn2	Zn	-0.781525	-1.498422	-0.582054
Zn3	Zn	-0.587669	-1.348375	-0.588519
Zn4	Zn	-0.759566	-1.326540	-0.760862
O5	O	-0.684564	-1.423428	-0.685623
O6	O	-0.650639	-1.661380	-0.798982
O7	O	-0.755865	-1.478468	-0.414946
O8	O	-0.446630	-1.389516	-0.641752
O9	O	-0.777029	-1.645250	-0.630734
O10	O	-0.462665	-1.515885	-0.805251
O11	O	-0.613441	-1.368228	-0.419696
O12	O	-0.592148	-1.201562	-0.593079
O13	O	-0.739603	-1.352303	-0.935486
O14	O	-0.718440	-1.185521	-0.719698
O15	O	-0.629346	-1.494713	-0.972365
O16	O	-0.922547	-1.457296	-0.582060
O17	O	-0.906414	-1.331015	-0.713430
C18	C	-0.650544	-1.156225	-0.651644
C19	C	-0.636014	-1.041912	-0.637132
C20	C	-0.951804	-1.389432	-0.641626
C21	C	-1.066143	-1.374982	-0.622856
C22	C	-0.692124	-0.983025	-0.693185
C23	C	-0.677109	-0.864876	-0.678187
C24	C	-1.124964	-1.431024	-0.695450
C25	C	-1.243139	-1.416091	-0.676052
C26	C	-0.416283	-1.457585	-0.729822
C27	C	-0.301958	-1.472141	-0.748657
C28	C	-0.684460	-1.423522	-0.998695
C29	C	-0.684415	-1.423561	-1.132107
C30	C	-0.718706	-0.691676	-0.719730
C31	C	-0.733226	-0.805990	-0.734248
C32	C	-0.684601	-1.423404	-0.373790
C33	C	-0.684381	-1.423600	-0.240451
H34	H	-0.617947	-0.827826	-0.619096
C35	C	-1.115562	-1.296096	-0.520968
C36	C	-1.076635	-1.197587	-0.538316
C37	C	-1.122143	-1.124887	-0.444488
H38	H	-1.099994	-1.313238	-0.445048
H39	H	-1.188412	-1.296449	-0.521490
H40	H	-1.003803	-1.197236	-0.537782
H41	H	-1.092202	-1.180412	-0.614218
H42	H	-1.194992	-1.125241	-0.445010
H43	H	-1.106572	-1.142040	-0.368574
H44	H	-1.095745	-1.058040	-0.456252
H45	H	-0.751274	-1.020080	-0.752282
C46	C	-1.292554	-1.337201	-0.574159
C47	C	-1.253627	-1.238692	-0.591507
C48	C	-1.299134	-1.165992	-0.497679
H49	H	-1.276986	-1.354343	-0.498239
H50	H	-1.365403	-1.337554	-0.574681
H51	H	-1.180794	-1.238341	-0.590973
H52	H	-1.269193	-1.221517	-0.667408
H53	H	-1.371984	-1.166345	-0.498200
H54	H	-1.283563	-1.183144	-0.421765
H55	H	-1.272736	-1.099145	-0.509442
H56	H	-0.792378	-0.843039	-0.793353
H57	H	-0.576857	-1.004858	-0.578045
H58	H	-1.264834	-1.531176	-0.825178
C59	C	-1.075277	-1.509728	-0.797368
C60	C	-0.967946	-1.508917	-0.796320
C61	C	-0.922145	-1.581417	-0.890181
H62	H	-1.090758	-1.492527	-0.873298
H63	H	-1.101526	-1.576670	-0.785804
H64	H	-0.941707	-1.441991	-0.807894
H65	H	-0.952435	-1.526130	-0.720412
H66	H	-0.948394	-1.648359	-0.878616
H67	H	-0.937634	-1.564209	-0.966104
H68	H	-0.849318	-1.580883	-0.889475
