data_functionalizedCrystal
_audit_creation_method	'MofGen! by Chris Wilmer'
_symmetry_space_group_name_H-M	'P1'
_symmetry_Int_Tables_number	1
_symmetry_cell_setting	triclinic
loop_
_symmetry_equiv_pos_as_xyz
  x,y,z
_cell_length_a	10.968094
_cell_length_b	10.489741
_cell_length_c	9.482900
_cell_angle_alpha	99.430409
_cell_angle_beta	92.548310
_cell_angle_gamma	84.625935
loop_
_atom_site_label
_atom_site_type_symbol
_atom_site_fract_x
_atom_site_fract_y
_atom_site_fract_z
O1	O	1.612130	0.225211	0.282944
O2	O	1.262946	0.228018	0.195471
O3	O	1.445482	0.041339	0.241206
O4	O	1.429593	0.411890	0.237209
O5	O	1.408406	0.079417	0.473709
O6	O	1.225870	0.266096	0.427974
O7	O	1.575054	0.263290	0.515447
Cu8	Cu	1.397076	0.268170	0.492940
Cu9	Cu	1.440923	0.223138	0.217978
O10	O	1.392518	0.449969	0.469712
C11	C	1.199695	0.243977	0.300521
C12	C	1.066464	0.234785	0.267146
C13	C	0.850152	0.240898	0.338206
C14	C	0.987850	0.250410	0.372715
C15	C	1.425744	0.012798	0.357156
C16	C	1.422153	-0.128977	0.356254
C17	C	1.306012	-0.201804	0.327149
C18	C	1.342596	-0.272939	0.455529
C19	C	1.379178	-0.310455	0.226306
C20	C	1.458771	-0.198229	0.484741
C21	C	1.495353	-0.235753	0.255411
C22	C	1.532017	-0.306852	0.383840
C23	C	1.638305	0.247330	0.410394
C24	C	1.771538	0.256520	0.443760
C25	C	1.412256	0.478509	0.353759
C26	C	1.415848	0.620283	0.354651
N27	N	1.366246	0.299843	0.686335
N28	N	1.471763	0.191455	0.024585
C29	C	1.431821	0.232473	0.774965
C30	C	1.406178	0.258835	0.935957
H31	H	0.806176	0.276931	0.559676
H32	H	1.331044	0.336031	0.979256
O33	O	1.257033	-0.295621	0.567600
H34	H	1.308960	-0.349031	0.646125
O35	O	1.503309	-0.133733	0.629563
H36	H	1.505577	-0.028235	0.629121
O37	O	1.571278	0.089184	0.967250
H38	H	1.575807	0.084525	0.849799
H39	H	1.031834	0.214369	0.151221
O40	O	1.531302	0.130185	0.717588
H41	H	1.600822	0.175782	0.665622
H42	H	1.345476	-0.359276	0.117067
O43	O	1.266734	0.402106	0.743680
H44	H	1.262217	0.406773	0.861133
H45	H	1.559909	-0.218601	0.170790
O46	O	0.804298	0.213847	0.184651
H47	H	0.738272	0.295311	0.161872
O48	O	1.033701	0.277472	0.526276
H49	H	1.099741	0.196021	0.549058
O50	O	1.179507	-0.141095	0.295607
H51	H	1.116388	-0.155291	0.378910
O52	O	1.658600	-0.367222	0.415629
H53	H	1.691317	-0.321659	0.522880
