data_functionalizedCrystal
_audit_creation_method	'MofGen! by Chris Wilmer'
_symmetry_space_group_name_H-M	'P1'
_symmetry_Int_Tables_number	1
_symmetry_cell_setting	triclinic
loop_
_symmetry_equiv_pos_as_xyz
  x,y,z
_cell_length_a	23.532407
_cell_length_b	13.930277
_cell_length_c	14.853567
_cell_angle_alpha	89.999243
_cell_angle_beta	83.241804
_cell_angle_gamma	89.998126
loop_
_atom_site_label
_atom_site_type_symbol
_atom_site_fract_x
_atom_site_fract_y
_atom_site_fract_z
O1	O	0.755739	-0.079703	0.109437
O2	O	1.255739	0.420297	0.609437
O3	O	0.589945	-0.079731	0.125272
O4	O	1.089945	0.420269	0.625272
O5	O	0.677271	-0.079719	-0.013923
O6	O	1.177271	0.420281	0.486077
O7	O	0.668414	-0.079715	0.248633
O8	O	1.168414	0.420285	0.748633
O9	O	0.677259	0.079943	-0.013926
O10	O	1.177259	0.579943	0.486074
O11	O	0.589933	0.079931	0.125269
O12	O	1.089933	0.579931	0.625269
O13	O	0.755727	0.079958	0.109435
O14	O	1.255727	0.579958	0.609435
Zn15	Zn	0.672828	0.105295	0.117352
Zn16	Zn	1.172828	0.605295	0.617352
Zn17	Zn	0.672844	-0.105067	0.117355
Zn18	Zn	1.172844	0.394933	0.617355
O19	O	0.668402	0.079947	0.248630
O20	O	1.168402	0.579947	0.748630
C21	C	0.568721	0.000097	0.124868
C22	C	1.068721	0.500097	0.624868
C23	C	0.505499	0.000086	0.123655
C24	C	1.005499	0.500086	0.623655
N25	N	0.672822	0.248861	0.117348
N26	N	1.172822	0.748861	0.617348
N27	N	0.672856	-0.248633	0.117351
N28	N	1.172856	0.251367	0.617351
C29	C	0.106722	0.000131	0.198424
C30	C	0.606722	0.500131	0.698424
C31	C	0.047317	0.000137	0.197298
C32	C	0.547317	0.500137	0.697298
O33	O	0.010875	0.000173	0.266610
O34	O	0.510875	0.500173	0.766610
N35	N	0.024330	0.000134	0.114546
N36	N	0.524330	0.500134	0.614546
C37	C	0.060751	0.000135	0.032915
C38	C	0.560751	0.500135	0.532915
O39	O	0.035744	0.000134	-0.037575
O40	O	0.535744	0.500134	0.462425
C41	C	0.120155	0.000136	0.034043
C42	C	0.620155	0.500136	0.534043
C43	C	0.143139	0.000129	0.116800
C44	C	0.643139	0.500129	0.616800
C45	C	0.129707	0.000125	0.281175
C46	C	0.629707	0.500125	0.781175
C47	C	0.189108	0.000117	0.282300
C48	C	0.689108	0.500117	0.782300
C49	C	0.225524	0.000116	0.200676
C50	C	0.725524	0.500116	0.700676
C51	C	0.202540	0.000121	0.117926
C52	C	0.702540	0.500121	0.617926
C53	C	0.156575	0.000143	-0.047587
C54	C	0.656575	0.500143	0.452413
C55	C	0.215983	0.000145	-0.046453
C56	C	0.715983	0.500145	0.453547
C57	C	0.238966	0.000138	0.036304
C58	C	0.738966	0.500138	0.536304
C59	C	0.298358	0.000112	0.037427
C60	C	0.798358	0.500112	0.537427
N61	N	0.321345	0.000115	0.120179
N62	N	0.821345	0.500115	0.620179
C63	C	0.284928	0.000117	0.201803
C64	C	0.784928	0.500117	0.701803
C65	C	-0.064002	0.000134	0.030555
C66	C	0.435998	0.500134	0.530555
C67	C	-0.123405	0.000126	0.029427
C68	C	0.376595	0.500126	0.529427
C69	C	-0.136834	0.000130	0.193810
C70	C	0.363166	0.500130	0.693810
C71	C	-0.077431	0.000131	0.194937
C72	C	0.422569	0.500131	0.694937
C73	C	-0.041014	0.000137	0.113306
C74	C	0.458986	0.500137	0.613306
C75	C	0.409675	0.000100	0.204161
C76	C	0.909675	0.500100	0.704161
C77	C	0.469082	0.000088	0.205280
C78	C	0.969082	0.500088	0.705280
C79	C	0.482507	0.000089	0.040897
C80	C	0.982507	0.500089	0.540897
C81	C	0.423105	0.000096	0.039778
C82	C	0.923105	0.500096	0.539778
C83	C	0.386690	0.000104	0.121418
C84	C	0.886690	0.500104	0.621418
O85	O	0.334835	0.000080	-0.031848
O86	O	0.834835	0.500080	0.468152
O87	O	0.309944	0.000130	0.272282
O88	O	0.809944	0.500130	0.772282
C89	C	0.776951	0.000129	0.109839
C90	C	1.276951	0.500129	0.609839
C91	C	0.840174	0.000133	0.111052
C92	C	1.340174	0.500133	0.611052
C93	C	0.676864	0.000109	-0.047509
C94	C	1.176864	0.500109	0.452491
C95	C	0.675661	0.000100	-0.147580
C96	C	1.175661	0.500100	0.352420
C97	C	0.634175	0.701125	0.178967
C98	C	1.134175	1.201125	0.678967
C99	C	0.711529	0.701104	0.055736
C100	C	1.211529	1.201104	0.555736
C101	C	0.711523	0.600609	0.055734
C102	C	1.211523	1.100609	0.555734
C103	C	0.672842	0.550366	0.117349
C104	C	1.172842	1.050366	0.617349
C105	C	0.634168	0.600620	0.178968
C106	C	1.134168	1.100620	0.678968
C107	C	0.750200	0.550348	-0.005878
C108	C	1.250200	1.050348	0.494122
C109	C	0.750195	0.449846	-0.005882
C110	C	1.250195	0.949846	0.494118
C111	C	0.711511	0.399602	0.055730
C112	C	1.211511	0.899602	0.555730
C113	C	0.672835	0.449861	0.117350
C114	C	1.172835	0.949861	0.617350
C115	C	0.634155	0.399619	0.178966
C116	C	1.134155	0.899619	0.678966
C117	C	0.595475	0.449877	0.240583
C118	C	1.095475	0.949877	0.740583
C119	C	0.595484	0.550376	0.240580
C120	C	1.095484	1.050376	0.740580
C121	C	0.711502	0.299103	0.055733
C122	C	1.211502	0.799103	0.555733
C123	C	0.634148	0.299114	0.178967
C124	C	1.134148	0.799114	0.678967
C125	C	0.618704	0.000109	-0.559490
C126	C	1.118704	0.500109	-0.059490
C127	C	0.722449	0.000126	-0.581906
C128	C	1.222449	0.500126	-0.081906
C129	C	0.723580	0.000121	-0.487885
C130	C	1.223580	0.500121	0.012115
C131	C	0.672272	0.000111	-0.429662
C132	C	1.172272	0.500111	0.070338
C133	C	0.619833	0.000107	-0.465460
C134	C	1.119833	0.500107	0.034540
C135	C	0.776017	0.000135	-0.452079
C136	C	1.276017	0.500135	0.047921
C137	C	0.777150	0.000130	-0.358053
C138	C	1.277150	0.500130	0.141947
C139	C	0.725842	0.000114	-0.299828
C140	C	1.225842	0.500114	0.200172
C141	C	0.673401	0.000108	-0.335631
C142	C	1.173401	0.500108	0.164369
C143	C	0.622093	0.000099	-0.277408
C144	C	1.122093	0.500099	0.222592
C145	C	0.569652	0.000086	-0.313210
C146	C	1.069652	0.500086	0.186790
C147	C	0.568524	0.000090	-0.407235
C148	C	1.068524	0.500090	0.092765
C149	C	0.726969	0.000110	-0.205803
C150	C	1.226969	0.500110	0.294197
C151	C	0.623222	0.000096	-0.183378
C152	C	1.123222	0.500096	0.316622
C153	C	0.668809	0.000117	0.282216
C154	C	1.168809	0.500117	0.782216
C155	C	0.670012	0.000119	0.382286
C156	C	1.170012	0.500119	0.882286
H157	H	0.487792	0.000082	0.272673
H158	H	0.987792	0.500082	0.772673
F159	F	0.568612	0.000079	-0.121419
F160	F	1.068612	0.500079	0.378581
F161	F	0.512718	0.000074	-0.445345
F162	F	1.012718	0.500074	0.054655
H163	H	0.742997	0.258188	0.005569
H164	H	1.242997	0.758188	0.505569
H165	H	0.781688	0.408932	-0.056054
H166	H	1.281688	0.908932	0.443946
F167	F	0.777051	0.000150	-0.643873
F168	F	1.277051	0.500150	-0.143873
H169	H	0.563984	0.408958	0.290755
H170	H	1.063984	0.908958	0.790755
F171	F	0.090957	0.000127	0.368059
F172	F	0.590957	0.500127	0.868059
H173	H	0.512168	0.000084	-0.025559
H174	H	1.012168	0.500084	0.474441
H175	H	0.527877	0.000085	-0.265793
H176	H	1.027877	0.500085	0.234207
F177	F	-0.175602	0.000136	0.280682
F178	F	0.324398	0.500136	0.780682
H179	H	0.576007	0.000096	-0.588645
H180	H	1.076007	0.500096	-0.088645
F181	F	0.830619	0.000163	-0.514048
F182	F	1.330619	0.500163	-0.014048
F183	F	0.832962	0.000131	-0.319958
F184	F	1.332962	0.500131	0.180042
H185	H	0.743025	0.742015	0.005575
H186	H	1.243025	1.242015	0.505575
F187	F	0.213561	0.000115	0.370383
F188	F	0.713561	0.500115	0.870383
H189	H	0.380033	0.000110	0.270640
H190	H	0.880033	0.500110	0.770640
F191	F	-0.052975	0.000126	0.283017
F192	F	0.447025	0.500126	0.783017
H193	H	-0.034354	0.000131	-0.035923
H194	H	0.465646	0.500131	0.464077
F195	F	0.132127	0.000137	-0.135670
F196	F	0.632127	0.500137	0.364330
F197	F	-0.147859	0.000112	-0.058655
F198	F	0.352141	0.500112	0.441345
F199	F	0.254736	0.000154	-0.133338
F200	F	0.754736	0.500154	0.366662
F201	F	0.398643	0.000103	-0.048300
F202	F	0.898643	0.500103	0.451700
H203	H	0.602647	0.258213	0.229139
H204	H	1.102647	0.758213	0.729139
F205	F	0.554324	0.603867	0.306154
F206	F	1.054324	1.103867	0.806154
H207	H	0.602681	0.742047	0.229132
H208	H	1.102681	1.242047	0.729132
F209	F	0.791368	0.603818	-0.071445
F210	F	1.291368	1.103818	0.428555
H211	H	0.769666	0.000126	-0.176657
H212	H	1.269666	0.500126	0.323343
