data_functionalizedCrystal
_audit_creation_method	'MofGen! by Chris Wilmer'
_symmetry_space_group_name_H-M	'P1'
_symmetry_Int_Tables_number	1
_symmetry_cell_setting	triclinic
loop_
_symmetry_equiv_pos_as_xyz
  x,y,z
_cell_length_a	17.917603
_cell_length_b	27.440280
_cell_length_c	17.917603
_cell_angle_alpha	63.034592
_cell_angle_beta	90.239941
_cell_angle_gamma	57.017611
loop_
_atom_site_label
_atom_site_type_symbol
_atom_site_fract_x
_atom_site_fract_y
_atom_site_fract_z
Zr1	Zr	0.757909	0.484735	-0.060798
O2	O	0.638507	0.586396	-0.180214
O3	O	0.794498	0.383074	-0.024193
O4	O	0.801626	0.475463	-0.173101
O5	O	0.625773	0.501321	0.086158
O6	O	0.930314	0.468149	-0.167488
O7	O	0.631379	0.494007	-0.031306
O8	O	0.917563	0.302883	0.098882
O9	O	0.638523	0.666587	-0.180212
O10	O	0.906158	0.419430	-0.004390
O11	O	0.805936	0.430347	0.079083
O12	O	0.814329	0.539123	-0.096237
O13	O	0.714107	0.550039	-0.012764
Zr14	Zr	0.954210	0.484735	0.135495
Zr15	Zr	0.963151	0.473070	-0.051846
Zr16	Zr	0.748968	0.496400	0.126543
Zr17	Zr	0.757936	0.612631	-0.060795
Zr18	Zr	0.954184	0.356838	0.135492
O19	O	0.917621	0.586395	0.098889
O20	O	0.930335	0.569809	-0.167486
O21	O	0.625794	0.602982	0.086161
O22	O	1.073613	0.383074	0.254911
O23	O	1.086326	0.366488	-0.011464
O24	O	0.781785	0.399660	0.242182
O25	O	1.086347	0.468148	-0.011461
O26	O	0.910494	0.494007	0.247798
O27	O	0.781806	0.501321	0.242185
O28	O	1.080741	0.475462	0.106003
O29	O	0.801663	0.657315	-0.173096
O30	O	0.910456	0.312154	0.247793
O31	O	1.073596	0.302882	0.254909
O32	O	1.080703	0.293610	0.105998
O33	O	0.631416	0.675859	-0.031301
O34	O	0.794556	0.666587	-0.024185
O35	O	0.897791	0.430347	0.170934
O36	O	0.998013	0.419430	0.087461
O37	O	0.906183	0.539122	-0.004387
O38	O	0.805961	0.550039	0.079086
C39	C	0.599333	0.499326	0.026151
C40	C	0.512203	0.504278	0.022350
C41	C	0.856027	0.324756	0.037344
C42	C	0.856016	0.270461	0.037343
C43	C	0.352692	0.513324	0.015410
C44	C	0.359421	0.456148	0.059285
C45	C	0.270664	0.461181	0.055423
C46	C	0.441455	0.508293	0.019270
C47	C	0.908401	-0.071983	-0.006215
C48	C	0.908409	-0.123007	-0.006212
O49	O	0.952929	-0.154260	-0.043240
N50	N	0.856094	-0.142825	0.037358
C51	C	0.803774	-0.111621	0.080936
O52	O	0.759277	-0.133163	0.117997
C53	C	0.803771	-0.060601	0.080938
C54	C	0.856083	-0.040781	0.037357
C55	C	0.960709	-0.052163	-0.049791
C56	C	0.960699	-0.001142	-0.049795
C57	C	0.908380	0.030060	-0.006223
C58	C	0.856072	0.010241	0.037353
C59	C	0.751457	-0.029401	0.124521
C60	C	0.751460	0.021622	0.124520
C61	C	0.803771	0.041441	0.080939
C62	C	0.803744	0.092464	0.080922
N63	N	0.856060	0.112282	0.037352
C64	C	0.908378	0.081080	-0.006221
C65	C	0.803785	-0.218767	0.080930
C66	C	0.803781	-0.269782	0.080923
C67	C	0.908419	-0.281166	-0.006224
C68	C	0.908416	-0.230146	-0.006222
C69	C	0.856100	-0.198949	0.037359
C70	C	0.908352	0.188230	-0.006226
C71	C	0.908334	0.239259	-0.006230
C72	C	0.803701	0.250636	0.080921
C73	C	0.803715	0.199614	0.080921
C74	C	0.856047	0.168410	0.037346
O75	O	0.759250	0.123745	0.117934
O76	O	0.952877	0.102623	-0.043265
C77	C	1.112786	0.470143	0.048546
C78	C	1.199917	0.465191	0.052347
C79	C	0.867244	0.470144	-0.196987
C80	C	0.871039	0.465192	-0.276518
C81	C	0.856093	0.644714	0.037353
C82	C	0.856104	0.699009	0.037354
C83	C	0.877993	0.456145	-0.422147
C84	C	0.834129	0.513321	-0.503159
C85	C	0.837998	0.508288	-0.584192
C86	C	0.874125	0.461177	-0.341105
C87	C	0.844876	0.499326	0.271684
C88	C	0.841080	0.504278	0.351215
C89	C	1.112753	0.310165	0.048542
C90	C	1.199873	0.250917	0.052341
C91	C	0.844843	0.339347	0.271679
C92	C	0.841036	0.290004	0.351209
C93	C	1.101569	0.324755	0.282877
C94	C	1.184893	0.270460	0.366207
C95	C	0.610550	0.644714	-0.208180
C96	C	0.527226	0.699010	-0.291511
C97	C	0.599366	0.659305	0.026155
C98	C	0.512247	0.718553	0.022356
C99	C	0.867277	0.630123	-0.196983
C100	C	0.871084	0.679466	-0.276512
C101	C	1.192838	0.223093	0.006172
C102	C	1.274689	0.167430	0.009724
C103	C	1.363573	0.139589	0.059450
C104	C	1.370606	0.167418	0.105620
C105	C	1.288756	0.223083	0.102063
C106	C	0.887195	0.266832	0.436510
C107	C	0.883614	0.220476	0.511244
C108	C	0.833879	0.197290	0.500675
C109	C	0.787714	0.220466	0.415365
C110	C	0.791290	0.266825	0.340633
C111	C	1.276346	0.239263	0.361768
C112	C	1.354646	0.188253	0.440059
C113	C	1.341490	0.168437	0.522788
C114	C	1.250028	0.199639	0.527225
C115	C	1.171730	0.250652	0.448935
C116	C	0.435773	0.730213	-0.287072
C117	C	0.357474	0.781239	-0.365362
C118	C	0.370629	0.801057	-0.448091
C119	C	0.462092	0.769852	-0.452528
C120	C	0.540389	0.718830	-0.374238
C121	C	0.519282	0.746381	0.068517
C122	C	0.437432	0.802057	0.064945
C123	C	0.348548	0.829900	0.015216
C124	C	0.341515	0.802069	-0.030951
C125	C	0.423364	0.746397	-0.027383
C126	C	0.920827	0.702638	-0.265915
C127	C	0.924422	0.748994	-0.340634
C128	C	0.878268	0.772181	-0.425949
C129	C	0.828523	0.749004	-0.436545
C130	C	0.824934	0.702645	-0.361827
H131	H	0.280277	0.566050	-0.025051
O132	O	0.415762	0.716383	-0.077168
H133	H	0.453065	0.721041	-0.126234
H134	H	1.405253	0.126898	0.586530
H135	H	0.784424	0.683784	-0.370468
H136	H	0.431841	0.403418	0.099748
O137	O	0.964784	0.154584	-0.053234
H138	H	1.001142	0.176951	-0.083541
H139	H	0.306866	0.842603	-0.511833
O140	O	1.017127	0.020229	-0.096793
H141	H	1.053510	-0.010051	-0.127080
O142	O	1.235843	0.178254	0.616456
H143	H	1.305659	0.137533	0.670142
O144	O	0.615145	0.716357	0.122153
H145	H	0.657047	0.721009	0.077683
O146	O	0.778771	0.774015	-0.528576
H147	H	0.808109	0.729073	-0.534923
O148	O	0.830048	0.147276	0.581288
H149	H	0.796815	0.171094	0.619385
O150	O	0.445033	0.832056	0.114758
H151	H	0.412374	0.887436	0.067054
H152	H	0.927694	0.285705	0.445133
O153	O	0.933425	0.195471	0.603252
H154	H	0.968626	0.219373	0.598039
H155	H	0.747221	0.201581	0.406772
O156	O	0.970623	0.677625	-0.173899
H157	H	1.005824	0.701524	-0.179097
H158	H	0.753705	0.285684	0.271180
O159	O	0.964759	0.260635	-0.053234
H160	H	1.001147	0.230358	-0.083523
O161	O	0.694990	-0.050733	0.171497
H162	H	0.720580	-0.071235	0.243090
O163	O	0.260267	0.889928	0.011399
H164	H	0.280101	0.904587	0.051872
H165	H	1.268945	0.144779	-0.027874
O166	O	0.931578	0.386304	-0.410895
H167	H	1.006911	0.354199	-0.371286
H168	H	1.097267	0.276046	0.452561
O169	O	0.964854	-0.314832	-0.053215
H170	H	0.939243	-0.274744	-0.124811
H171	H	1.120472	0.245760	-0.034331
H172	H	1.430213	0.094262	0.062340
O173	O	1.466476	0.137381	0.159261
H174	H	1.522200	0.093994	0.153982
O175	O	0.421575	0.708842	-0.197847
H176	H	0.381484	0.754398	-0.191976
O177	O	1.017132	-0.085808	-0.096800
H178	H	1.053492	-0.063441	-0.127103
H179	H	1.294497	0.245730	0.139665
H180	H	0.283008	0.806638	-0.361733
H181	H	0.472792	0.785995	-0.519895
O182	O	0.639029	0.685167	-0.379030
H183	H	0.635013	0.707518	-0.449711
H184	H	0.708855	0.047022	0.160008
O185	O	0.245645	0.832102	-0.084587
H186	H	0.189920	0.875484	-0.079299
H187	H	1.287076	0.255389	0.294414
H188	H	1.429112	0.162853	0.436431
H189	H	0.964928	0.767859	-0.331989
H190	H	0.951013	-0.214013	-0.041709
H191	H	0.761106	0.183484	0.116395
H192	H	0.881198	0.809929	-0.486782
H193	H	0.761173	-0.193363	0.116414
O194	O	0.747320	-0.291132	0.127887
H195	H	0.710935	-0.260854	0.158175
H196	H	0.793668	0.566052	-0.511658
O197	O	0.747328	0.284257	0.127972
H198	H	0.756144	0.323047	0.120672
