data_functionalizedCrystal
_audit_creation_method	'MofGen! by Chris Wilmer'
_symmetry_space_group_name_H-M	'P1'
_symmetry_Int_Tables_number	1
_symmetry_cell_setting	triclinic
loop_
_symmetry_equiv_pos_as_xyz
  x,y,z
_cell_length_a	17.699077
_cell_length_b	14.519709
_cell_length_c	16.776229
_cell_angle_alpha	89.992406
_cell_angle_beta	89.993415
_cell_angle_gamma	83.480361
loop_
_atom_site_label
_atom_site_type_symbol
_atom_site_fract_x
_atom_site_fract_y
_atom_site_fract_z
O1	O	1.004415	0.116598	-0.066279
O2	O	1.254415	0.366598	0.183721
O3	O	1.504415	0.616598	0.433721
O4	O	1.754415	0.866598	0.683721
O5	O	0.784080	0.131777	-0.066283
O6	O	1.034080	0.381777	0.183717
O7	O	1.284080	0.631777	0.433717
O8	O	1.534080	0.881777	0.683717
O9	O	0.900089	-0.010076	-0.066274
O10	O	1.150089	0.239924	0.183726
O11	O	1.400089	0.489924	0.433726
O12	O	1.650089	0.739924	0.683726
O13	O	0.888405	0.258451	-0.066289
O14	O	1.138405	0.508451	0.183711
O15	O	1.388405	0.758451	0.433711
O16	O	1.638405	1.008451	0.683711
O17	O	0.900074	-0.010085	0.066302
O18	O	1.150074	0.239915	0.316302
O19	O	1.400074	0.489915	0.566302
O20	O	1.650074	0.739915	0.816302
O21	O	0.784064	0.131768	0.066293
O22	O	1.034064	0.381768	0.316293
O23	O	1.284064	0.631768	0.566293
O24	O	1.534064	0.881768	0.816293
O25	O	1.004400	0.116589	0.066297
O26	O	1.254400	0.366589	0.316297
O27	O	1.504400	0.616589	0.566297
O28	O	1.754400	0.866589	0.816297
Zn29	Zn	0.894229	0.124177	0.087345
Zn30	Zn	1.144229	0.374177	0.337345
Zn31	Zn	1.394229	0.624177	0.587345
Zn32	Zn	1.644229	0.874177	0.837345
Zn33	Zn	0.894250	0.124189	-0.087331
Zn34	Zn	1.144250	0.374189	0.162669
Zn35	Zn	1.394250	0.624189	0.412669
Zn36	Zn	1.644250	0.874189	0.662669
O37	O	0.888390	0.258442	0.066288
O38	O	1.138390	0.508442	0.316288
O39	O	1.388390	0.758442	0.566288
O40	O	1.638390	1.008442	0.816288
C41	C	0.755873	0.131230	0.000004
C42	C	1.005873	0.381230	0.250004
C43	C	1.255873	0.631230	0.500004
C44	C	1.505873	0.881230	0.750004
C45	C	0.671850	0.129601	0.000003
C46	C	0.921850	0.379601	0.250003
C47	C	1.171850	0.629601	0.500003
C48	C	1.421850	0.879601	0.750003
C49	C	0.632372	0.128829	0.072271
C50	C	0.882372	0.378829	0.322271
C51	C	1.132372	0.628829	0.572271
C52	C	1.382372	0.878829	0.822271
C53	C	0.553425	0.127283	0.072272
C54	C	0.803425	0.377283	0.322272
C55	C	1.053425	0.627283	0.572272
C56	C	1.303425	0.877283	0.822272
C57	C	0.513957	0.126517	0.000004
C58	C	0.763957	0.376517	0.250004
C59	C	1.013957	0.626517	0.500004
C60	C	1.263957	0.876517	0.750004
C61	C	0.553441	0.127287	-0.072270
C62	C	0.803441	0.377287	0.177730
C63	C	1.053441	0.627287	0.427730
C64	C	1.303441	0.877287	0.677730
C65	C	0.632387	0.128825	-0.072270
C66	C	0.882387	0.378825	0.177730
C67	C	1.132387	0.628825	0.427730
C68	C	1.382387	0.878825	0.677730
C69	C	0.235060	0.121080	-0.072271
C70	C	0.485060	0.371080	0.177729
C71	C	0.735060	0.621080	0.427729
C72	C	0.985060	0.871080	0.677729
C73	C	0.156108	0.119544	-0.072265
C74	C	0.406108	0.369544	0.177735
C75	C	0.656108	0.619544	0.427735
C76	C	0.906108	0.869544	0.677735
C77	C	0.156098	0.119539	0.072271
C78	C	0.406098	0.369539	0.322271
C79	C	0.656098	0.619539	0.572271
C80	C	0.906098	0.869539	0.822271
C81	C	0.235044	0.121077	0.072271
C82	C	0.485044	0.371077	0.322271
C83	C	0.735044	0.621077	0.572271
C84	C	0.985044	0.871077	0.822271
C85	C	0.274522	0.121842	-0.000002
C86	C	0.524522	0.371842	0.249998
C87	C	0.774522	0.621842	0.499998
C88	C	1.024522	0.871842	0.749998
C89	C	0.360125	0.123515	-0.000002
C90	C	0.610125	0.373515	0.249998
C91	C	0.860125	0.623515	0.499998
C92	C	1.110125	0.873515	0.749998
C93	C	0.428354	0.124850	0.000003
C94	C	0.678354	0.374850	0.250003
C95	C	0.928354	0.624850	0.500003
C96	C	1.178354	0.874850	0.750003
C97	C	0.899537	-0.044438	0.000014
C98	C	1.149537	0.205562	0.250014
C99	C	1.399537	0.455562	0.500014
C100	C	1.649537	0.705562	0.750014
C101	C	0.897905	-0.146812	0.000015
C102	C	1.147905	0.103188	0.250015
C103	C	1.397905	0.353188	0.500015
C104	C	1.647905	0.603188	0.750015
C105	C	0.891898	-0.521682	-0.000006
C106	C	1.141898	-0.271682	0.249994
C107	C	1.391898	-0.021682	0.499994
C108	C	1.641898	0.228318	0.749994
C109	C	0.893566	-0.417381	-0.000000
C110	C	1.143566	-0.167381	0.250000
C111	C	1.393566	0.082619	0.500000
C112	C	1.643566	0.332619	0.750000
C113	C	0.894902	-0.334250	0.000005
C114	C	1.144902	-0.084250	0.250005
C115	C	1.394902	0.165750	0.500005
C116	C	1.644902	0.415750	0.750005
C117	C	0.896570	-0.229943	0.000010
C118	C	1.146570	0.020057	0.250010
C119	C	1.396570	0.270057	0.500010
C120	C	1.646570	0.520057	0.750010
C121	C	1.032606	0.117137	0.000008
C122	C	1.282606	0.367137	0.250008
C123	C	1.532606	0.617137	0.500008
C124	C	1.782606	0.867137	0.750008
C125	C	1.116629	0.118766	0.000004
C126	C	1.366629	0.368766	0.250004
C127	C	1.616629	0.618766	0.500004
C128	C	1.866629	0.868766	0.750004
C129	C	0.888942	0.292804	-0.000002
C130	C	1.138942	0.542804	0.249998
C131	C	1.388942	0.792804	0.499998
C132	C	1.638942	1.042804	0.749998
C133	C	0.890574	0.395178	-0.000008
C134	C	1.140574	0.645178	0.249992
C135	C	1.390574	0.895178	0.499992
C136	C	1.640574	1.145178	0.749992
N137	N	0.894221	0.124169	0.206556
N138	N	1.144221	0.374169	0.456556
N139	N	1.394221	0.624169	0.706556
N140	N	1.644221	0.874169	0.956556
N141	N	0.894264	0.124190	-0.206542
N142	N	1.144264	0.374190	0.043458
N143	N	1.394264	0.624190	0.293458
N144	N	1.644264	0.874190	0.543458
C145	C	0.945606	0.061382	0.248277
C146	C	1.195606	0.311382	0.498277
C147	C	1.445606	0.561382	0.748277
C148	C	1.695606	0.811382	0.998277
C149	C	0.945610	0.061382	0.331729
C150	C	1.195610	0.311382	0.581729
C151	C	1.445610	0.561382	0.831729
C152	C	1.695610	0.811382	1.081729
C153	C	0.894233	0.124173	0.373459
C154	C	1.144233	0.374173	0.623459
C155	C	1.394233	0.624173	0.873459
C156	C	1.644233	0.874173	1.123459
C157	C	0.842842	0.186962	0.331732
C158	C	1.092842	0.436962	0.581732
C159	C	1.342842	0.686962	0.831732
C160	C	1.592842	0.936962	1.081732
C161	C	0.842835	0.186958	0.248281
C162	C	1.092835	0.436958	0.498281
C163	C	1.342835	0.686958	0.748281
C164	C	1.592835	0.936958	0.998281
C165	C	0.842870	0.186980	0.668279
C166	C	1.092870	0.436980	0.918279
C167	C	1.342870	0.686980	1.168279
C168	C	1.592870	0.936980	1.418279
C169	C	0.842882	0.186982	0.751735
C170	C	1.092882	0.436982	1.001735
C171	C	1.342882	0.686982	1.251735
C172	C	1.592882	0.936982	1.501735
C173	C	0.945645	0.061404	0.751727
C174	C	1.195645	0.311404	1.001727
C175	C	1.445645	0.561404	1.251727
C176	C	1.695645	0.811404	1.501727
C177	C	0.945638	0.061400	0.668276
C178	C	1.195638	0.311400	0.918276
C179	C	1.445638	0.561400	1.168276
C180	C	1.695638	0.811400	1.418276
C181	C	0.894245	0.124186	0.626557
C182	C	1.144245	0.374186	0.876557
C183	C	1.394245	0.624186	1.126557
C184	C	1.644245	0.874186	1.376557
C185	C	0.894240	0.124185	0.536068
C186	C	1.144240	0.374185	0.786068
C187	C	1.394240	0.624185	1.036068
C188	C	1.644240	0.874185	1.286068
C189	C	0.894240	0.124179	0.463945
C190	C	1.144240	0.374179	0.713945
C191	C	1.394240	0.624179	0.963945
C192	C	1.644240	0.874179	1.213945
H193	H	0.664501	0.129460	0.131121
H194	H	0.914501	0.379460	0.381121
H195	H	1.164501	0.629460	0.631121
H196	H	1.414501	0.879460	0.881121
Br197	Br	0.102544	0.118506	-0.170351
Br198	Br	0.352544	0.368506	0.079649
Br199	Br	0.602544	0.618506	0.329649
Br200	Br	0.852544	0.868506	0.579649
H201	H	0.267193	0.121700	-0.131121
H202	H	0.517193	0.371700	0.118879
H203	H	0.767193	0.621700	0.368879
H204	H	1.017193	0.871700	0.618879
Br205	Br	1.015370	-0.023814	0.611646
Br206	Br	1.265370	0.226186	0.861646
Br207	Br	1.515370	0.476186	1.111646
Br208	Br	1.765370	0.726186	1.361646
H209	H	0.267175	0.121706	0.131119
H210	H	0.517175	0.371706	0.381119
H211	H	0.767175	0.621706	0.631119
H212	H	1.017175	0.871706	0.881119
Br213	Br	1.015393	-0.023809	0.808350
Br214	Br	1.265393	0.226191	1.058350
Br215	Br	1.515393	0.476191	1.308350
Br216	Br	1.765393	0.726191	1.558350
Br217	Br	0.773090	0.272166	0.191659
Br218	Br	1.023090	0.522166	0.441659
Br219	Br	1.273090	0.772166	0.691659
Br220	Br	1.523090	1.022166	0.941659
H221	H	0.664529	0.129456	-0.131118
H222	H	0.914529	0.379456	0.118882
H223	H	1.164529	0.629456	0.368882
H224	H	1.414529	0.879456	0.618882
Br225	Br	0.499882	0.126206	-0.170350
Br226	Br	0.749882	0.376206	0.079650
Br227	Br	0.999882	0.626206	0.329650
Br228	Br	1.249882	0.876206	0.579650
H229	H	0.987447	0.010254	0.214306
H230	H	1.237447	0.260254	0.464306
H231	H	1.487447	0.510254	0.714306
H232	H	1.737447	0.760254	0.964306
Br233	Br	1.015345	-0.023833	0.388354
Br234	Br	1.265345	0.226167	0.638354
Br235	Br	1.515345	0.476167	0.888354
Br236	Br	1.765345	0.726167	1.138354
H237	H	0.801025	0.238105	0.634317
H238	H	1.051025	0.488105	0.884317
H239	H	1.301025	0.738105	1.134317
H240	H	1.551025	0.988105	1.384317
H241	H	0.801042	0.238116	0.785710
H242	H	1.051042	0.488116	1.035710
H243	H	1.301042	0.738116	1.285710
H244	H	1.551042	0.988116	1.535710
H245	H	0.801006	0.238085	0.365712
H246	H	1.051006	0.488085	0.615712
H247	H	1.301006	0.738085	0.865712
H248	H	1.551006	0.988085	1.115712
H249	H	0.123946	0.118912	0.131120
H250	H	0.373946	0.368912	0.381120
H251	H	0.623946	0.618912	0.631120
H252	H	0.873946	0.868912	0.881120
Br253	Br	0.499849	0.126250	0.170355
Br254	Br	0.749849	0.376250	0.420355
Br255	Br	0.999849	0.626250	0.670355
Br256	Br	1.249849	0.876250	0.920355
