data_functionalizedCrystal
_audit_creation_method	'MofGen! by Chris Wilmer'
_symmetry_space_group_name_H-M	'P1'
_symmetry_Int_Tables_number	1
_symmetry_cell_setting	triclinic
loop_
_symmetry_equiv_pos_as_xyz
  x,y,z
_cell_length_a	18.101398
_cell_length_b	21.295412
_cell_length_c	18.101395
_cell_angle_alpha	90.025462
_cell_angle_beta	89.971165
_cell_angle_gamma	89.977775
loop_
_atom_site_label
_atom_site_type_symbol
_atom_site_fract_x
_atom_site_fract_y
_atom_site_fract_z
Zn1	Zn	1.132102	-0.356034	0.294889
Zn2	Zn	1.132004	-0.250769	0.418733
Zn3	Zn	1.008267	-0.250768	0.294905
Zn4	Zn	1.008212	-0.355991	0.418688
O5	O	1.070146	-0.303390	0.356804
O6	O	1.235722	-0.342089	0.311329
O7	O	1.115571	-0.162680	0.402333
O8	O	1.024758	-0.264749	0.191270
O9	O	1.235650	-0.264752	0.402317
O10	O	1.115739	-0.342087	0.191258
O11	O	1.024662	-0.162679	0.311357
O12	O	0.904627	-0.264707	0.311313
O13	O	1.024665	-0.444086	0.402240
O14	O	0.904586	-0.342014	0.402256
O15	O	1.115686	-0.444117	0.311286
O16	O	1.115518	-0.264710	0.522360
O17	O	1.024569	-0.342015	0.522327
C18	C	0.877736	-0.303356	0.356782
C19	C	0.795421	-0.303356	0.356791
C20	C	0.644713	-0.303385	0.356806
C21	C	0.613360	-0.254827	0.299505
C22	C	0.527742	-0.254986	0.299290
C23	C	0.496331	-0.303412	0.356821
C24	C	0.527467	-0.369827	0.335990
C25	C	0.613112	-0.369531	0.335565
C26	C	0.613110	-0.286113	0.435086
C27	C	0.527459	-0.284666	0.434673
C28	C	0.412471	-0.303431	0.356831
C29	C	0.728573	-0.303370	0.356794
C30	C	1.070180	-0.467581	0.356756
C31	C	1.070195	-0.537549	0.356736
C32	C	1.117660	-1.037024	0.309258
C33	C	1.117654	-0.971282	0.309276
C34	C	1.070259	-0.938388	0.356638
C35	C	1.022879	-0.971243	0.403999
C36	C	1.022892	-1.036984	0.403985
N37	N	1.005411	-0.835155	0.362334
N38	N	1.005402	-0.772703	0.362343
C39	C	1.070220	-0.740314	0.356684
N40	N	1.135050	-0.772735	0.351002
N41	N	1.135059	-0.835192	0.350989
C42	C	1.070241	-0.867103	0.356659
C43	C	1.117594	-0.636181	0.309350
C44	C	1.117590	-0.570438	0.309373
C45	C	1.022808	-0.570400	0.404091
C46	C	1.022819	-0.636143	0.404072
C47	C	1.070211	-0.669029	0.356697
C48	C	1.263308	-0.303425	0.356826
C49	C	1.345622	-0.303440	0.356836
C50	C	1.070047	-0.303372	0.549215
C51	C	1.070072	-0.303385	0.631529
C52	C	1.070155	-0.139839	0.356798
C53	C	1.070284	-0.069871	0.356610
C54	C	1.070266	-0.303423	0.163642
C55	C	1.070317	-0.303437	0.081328
C56	C	1.070235	-0.303419	0.930620
C57	C	1.013145	-0.352178	0.899304
C58	C	1.012873	-0.352026	0.813687
C59	C	1.070154	-0.303403	0.782237
C60	C	1.049029	-0.237058	0.813385
C61	C	1.048661	-0.237349	0.899030
C62	C	1.148576	-0.320421	0.898967
C63	C	1.148115	-0.321875	0.813316
C64	C	1.070110	-0.303389	0.698378
C65	C	1.070277	-0.303428	1.014479
H66	H	0.507279	-0.266453	0.241289
H67	H	0.991394	-0.222948	0.919070
H68	H	1.089302	-0.199737	0.793015
H69	H	0.955430	-0.341057	0.920888
N70	N	1.168786	-1.072493	0.258174
H71	H	1.161608	-1.119125	0.265350
H72	H	1.157289	-1.061013	0.205285
H73	H	1.191110	-0.284907	0.919217
H74	H	1.156183	-0.662959	0.270774
N75	N	0.971750	-0.935767	0.455071
H76	H	0.941736	-0.966554	0.485065
H77	H	1.001864	-0.908485	0.489351
H78	H	0.954805	-0.340763	0.793261
N79	N	0.973978	-0.217633	0.785058
H80	H	0.953555	-0.251707	0.752057
H81	H	0.939476	-0.210812	0.828189
N82	N	1.101325	-0.187574	0.926491
H83	H	1.141154	-0.207816	0.957453
H84	H	1.124629	-0.165551	0.882923
H85	H	0.506046	-0.384683	0.279412
H86	H	0.633116	-0.384130	0.278355
N87	N	0.641668	-0.223033	0.460289
H88	H	0.675386	-0.205012	0.421213
H89	H	0.598686	-0.193610	0.468608
H90	H	1.156233	-0.944533	0.270714
H91	H	0.984311	-1.063728	0.442545
N92	N	1.168697	-0.535007	0.258304
H93	H	1.198718	-0.565819	0.228292
H94	H	1.138565	-0.507729	0.224040
N95	N	0.499849	-0.189765	0.316499
H96	H	0.468947	-0.173989	0.273928
H97	H	0.468759	-0.191002	0.362820
N98	N	0.640598	-0.419110	0.388467
H99	H	0.597076	-0.441062	0.411957
H100	H	0.671562	-0.450726	0.360656
N101	N	0.639978	-0.332948	0.491637
H102	H	0.619500	-0.321616	0.541816
H103	H	0.622696	-0.376394	0.477435
N104	N	0.500526	-0.419083	0.389584
H105	H	0.467799	-0.398770	0.427974
H106	H	0.471523	-0.452073	0.361929
N107	N	0.971693	-0.534932	0.455182
H108	H	0.978875	-0.488300	0.448008
H109	H	0.918811	-0.546414	0.443651
H110	H	1.167837	-0.367975	0.920518
N111	N	1.207434	-0.278257	0.784959
H112	H	1.232122	-0.256580	0.828004
H113	H	1.245368	-0.303240	0.756447
N114	N	0.971707	-0.671573	0.455134
H115	H	0.978906	-0.718210	0.447938
H116	H	0.983198	-0.660073	0.508029
N117	N	1.030374	-0.417187	0.785780
H118	H	1.038335	-0.446269	0.829114
H119	H	0.987839	-0.433056	0.754896
H120	H	1.026230	-0.401531	0.919855
N121	N	1.169226	-0.386550	0.786349
H122	H	1.128466	-0.403816	0.754132
H123	H	1.216462	-0.383851	0.756805
N124	N	0.500485	-0.219927	0.455500
H125	H	0.520682	-0.208131	0.505622
H126	H	0.517987	-0.188557	0.417506
N127	N	0.640601	-0.189391	0.316496
H128	H	0.623876	-0.176775	0.367633
H129	H	0.696339	-0.188639	0.314120
N130	N	0.641879	-0.269835	0.223103
H131	H	0.697614	-0.267642	0.222936
H132	H	0.625600	-0.313491	0.208608
N133	N	0.499133	-0.328065	0.494228
H134	H	0.465573	-0.360641	0.471484
H135	H	0.542228	-0.349610	0.518979
