data_functionalizedCrystal
_audit_creation_method	'MofGen! by Chris Wilmer'
_symmetry_space_group_name_H-M	'P1'
_symmetry_Int_Tables_number	1
_symmetry_cell_setting	triclinic
loop_
_symmetry_equiv_pos_as_xyz
  x,y,z
_cell_length_a	13.897448
_cell_length_b	11.169417
_cell_length_c	11.169409
_cell_angle_alpha	90.021649
_cell_angle_beta	89.964424
_cell_angle_gamma	89.984086
loop_
_atom_site_label
_atom_site_type_symbol
_atom_site_fract_x
_atom_site_fract_y
_atom_site_fract_z
Zn1	Zn	-0.383983	-1.834901	-0.678574
Zn2	Zn	-0.545318	-1.834765	-0.477880
Zn3	Zn	-0.384034	-1.634187	-0.477902
Zn4	Zn	-0.545232	-1.634169	-0.678518
O5	O	-0.464642	-1.734505	-0.578218
O6	O	-0.405399	-2.002833	-0.651966
O7	O	-0.523981	-1.808108	-0.309933
O8	O	-0.249045	-1.660877	-0.504554
O9	O	-0.523931	-2.002732	-0.504516
O10	O	-0.249008	-1.808341	-0.651987
O11	O	-0.405486	-1.660745	-0.309949
O12	O	-0.405403	-1.466235	-0.504500
O13	O	-0.523785	-1.660846	-0.846475
O14	O	-0.523834	-1.466221	-0.651892
O15	O	-0.405315	-1.808323	-0.846517
O16	O	-0.680288	-1.808090	-0.504462
O17	O	-0.680225	-1.660713	-0.651870
C18	C	-0.464615	-1.422681	-0.578193
C19	C	-0.464627	-1.289281	-0.578211
C20	C	-0.715256	-1.734418	-0.578184
C21	C	-0.822470	-1.734490	-0.578209
C22	C	-1.018765	-1.734616	-0.578284
C23	C	-0.909533	-1.734543	-0.578246
C24	C	-0.213049	-1.734626	-0.578280
C25	C	-0.105835	-1.734677	-0.578306
C26	C	-0.464535	-1.734597	-0.891261
C27	C	-0.464489	-1.734637	-1.024661
C28	C	-0.464659	-1.047548	-0.578237
C29	C	-0.464643	-1.180948	-0.578224
C30	C	-0.464679	-1.734483	-0.266394
C31	C	-0.464453	-1.734676	-0.132994
