data_functionalizedCrystal
_audit_creation_method	'MofGen! by Chris Wilmer'
_symmetry_space_group_name_H-M	'P1'
_symmetry_Int_Tables_number	1
_symmetry_cell_setting	triclinic
loop_
_symmetry_equiv_pos_as_xyz
  x,y,z
_cell_length_a	16.109317
_cell_length_b	14.586319
_cell_length_c	16.109301
_cell_angle_alpha	89.995022
_cell_angle_beta	96.535152
_cell_angle_gamma	89.999094
loop_
_atom_site_label
_atom_site_type_symbol
_atom_site_fract_x
_atom_site_fract_y
_atom_site_fract_z
O1	O	-1.103122	-0.076146	0.106931
O2	O	-0.603122	0.423854	0.606931
O3	O	-0.861062	-0.076169	0.120216
O4	O	-0.361062	0.423831	0.620216
O5	O	-0.988742	-0.076147	-0.007457
O6	O	-0.488742	0.423853	0.492543
O7	O	-0.975443	-0.076167	0.234604
O8	O	-0.475443	0.423833	0.734604
O9	O	-0.988733	0.076333	-0.007458
O10	O	-0.488733	0.576333	0.492542
O11	O	-0.861053	0.076312	0.120215
O12	O	-0.361053	0.576312	0.620215
O13	O	-1.103113	0.076335	0.106930
O14	O	-0.603113	0.576335	0.606930
Cu15	Cu	-0.982082	0.090246	0.113572
Cu16	Cu	-0.482082	0.590246	0.613572
Cu17	Cu	-0.982093	-0.090080	0.113574
Cu18	Cu	-0.482093	0.409920	0.613574
O19	O	-0.975433	0.076313	0.234603
O20	O	-0.475433	0.576313	0.734603
C21	C	-0.830083	0.000068	0.119675
C22	C	-0.330083	0.500068	0.619675
C23	C	-0.737788	0.000060	0.118054
C24	C	-0.237788	0.500060	0.618054
N25	N	-0.982081	0.217078	0.113571
N26	N	-0.482081	0.717078	0.613571
C27	C	-0.988199	0.000093	-0.038433
C28	C	-0.488199	0.500093	0.461567
C29	C	-0.986584	0.000095	-0.130728
C30	C	-0.486584	0.500095	0.369272
C31	C	-0.438720	-0.083047	0.112821
C32	C	0.061280	0.416953	0.612821
C33	C	-0.525441	-0.083051	0.114338
C34	C	-0.025441	0.416949	0.614338
C35	C	-0.525450	0.083192	0.114325
C36	C	-0.025450	0.583192	0.614325
C37	C	-0.438731	0.083195	0.112802
C38	C	0.061269	0.583195	0.612802
C39	C	-0.395367	0.000073	0.112054
C40	C	0.104633	0.500073	0.612054
C41	C	-0.568808	0.000066	0.115095
C42	C	-0.068808	0.500066	0.615095
C43	C	-0.662835	0.000062	0.116740
C44	C	-0.162835	0.500062	0.616740
C45	C	-0.301335	0.000076	0.110408
C46	C	0.198665	0.500076	0.610408
C47	C	-0.134092	0.000091	0.107472
C48	C	0.365908	0.500091	0.607472
C49	C	-0.226387	0.000079	0.109095
C50	C	0.273613	0.500079	0.609095
C51	C	-1.038635	0.452094	0.057057
C52	C	-0.538635	0.952094	0.557057
C53	C	-1.038637	0.548075	0.057055
C54	C	-0.538637	1.048075	0.557055
C55	C	-0.925538	0.548065	0.170089
C56	C	-0.425538	1.048065	0.670089
C57	C	-0.925532	0.452086	0.170086
C58	C	-0.425532	0.952086	0.670086
C59	C	-0.982086	0.404103	0.113571
C60	C	-0.482086	0.904103	0.613571
C61	C	-0.982093	0.596063	0.113572
C62	C	-0.482093	1.096063	0.613572
C63	C	-0.982095	0.700131	0.113571
C64	C	-0.482095	1.200131	0.613571
C65	C	-0.982083	0.300029	0.113571
C66	C	-0.482083	0.800029	0.613571
N67	N	-0.982098	0.783088	0.113573
N68	N	-0.482098	1.283088	0.613573
C69	C	-1.058591	0.000087	-0.352996
C70	C	-0.558591	0.500087	0.147004
C71	C	-1.057067	0.000079	-0.439717
C72	C	-0.557067	0.500079	0.060283
C73	C	-0.905579	0.000068	-0.419851
C74	C	-0.405579	0.500068	0.080149
C75	C	-0.907104	0.000069	-0.333132
C76	C	-0.407104	0.500069	0.166868
C77	C	-0.983612	0.000083	-0.299707
C78	C	-0.483612	0.500083	0.200293
C79	C	-0.980563	0.000075	-0.473147
C80	C	-0.480563	0.500075	0.026853
C81	C	-0.978910	0.000066	-0.567173
C82	C	-0.478910	0.500066	-0.067173
C83	C	-0.985266	0.000090	-0.205675
C84	C	-0.485266	0.500090	0.294325
C85	C	-0.975977	0.000071	0.265578
C86	C	-0.475977	0.500071	0.765578
C87	C	-0.977592	0.000063	0.357874
C88	C	-0.477592	0.500063	0.857874
H89	H	-0.403416	-0.150730	0.112211
H90	H	0.096584	0.349270	0.612211
H91	H	-0.843289	0.000059	-0.447077
H92	H	-0.343289	0.500059	0.052923
H93	H	-0.879495	0.587143	0.216104
H94	H	-0.379495	1.087143	0.716104
H95	H	-0.846044	0.000064	-0.289742
H96	H	-0.346044	0.500064	0.210258
O97	O	-0.572202	-0.172701	0.115170
O98	O	-0.072202	0.327299	0.615170
H99	H	-0.527476	-0.230496	0.114400
H100	H	-0.027476	0.269504	0.614400
H101	H	-1.084684	0.587147	0.011035
H102	H	-0.584684	1.087147	0.511035
H103	H	-1.084683	0.413028	0.011038
H104	H	-0.584683	0.913028	0.511038
H105	H	-0.560766	0.150867	0.114936
H106	H	-0.060766	0.650867	0.614936
O107	O	-0.864540	0.400313	0.231046
O108	O	-0.364540	0.900313	0.731046
H109	H	-0.825225	0.449801	0.270354
H110	H	-0.325225	0.949801	0.770354
H111	H	-1.120889	0.000097	-0.325785
H112	H	-0.620889	0.500097	0.174215
O113	O	-1.137938	0.000097	-0.497191
O114	O	-0.637938	0.500097	0.002809
H115	H	-1.174561	-0.062041	-0.485299
H116	H	-0.674561	0.437959	0.014701
O117	O	-0.391961	0.172849	0.111981
O118	O	0.108039	0.672849	0.611981
H119	H	-0.436680	0.230649	0.112771
H120	H	0.063320	0.730649	0.612771
