data_functionalizedCrystal
_audit_creation_method	'MofGen! by Chris Wilmer'
_symmetry_space_group_name_H-M	'P1'
_symmetry_Int_Tables_number	1
_symmetry_cell_setting	triclinic
loop_
_symmetry_equiv_pos_as_xyz
  x,y,z
_cell_length_a	12.759401
_cell_length_b	19.120786
_cell_length_c	12.759393
_cell_angle_alpha	87.524000
_cell_angle_beta	89.980404
_cell_angle_gamma	92.465531
loop_
_atom_site_label
_atom_site_type_symbol
_atom_site_fract_x
_atom_site_fract_y
_atom_site_fract_z
Zn1	Zn	1.588345	-0.279592	-0.576098
Zn2	Zn	1.580707	-0.397067	-0.392904
Zn3	Zn	1.412642	-0.279627	-0.400435
Zn4	Zn	1.405110	-0.397015	-0.568549
O5	O	1.496701	-0.338325	-0.484497
O6	O	1.734353	-0.295183	-0.551805
O7	O	1.558368	-0.381524	-0.246880
O8	O	1.442298	-0.181332	-0.430049
O9	O	1.728741	-0.381491	-0.417213
O10	O	1.571387	-0.181306	-0.559108
O11	O	1.434892	-0.295242	-0.252413
O12	O	1.264622	-0.295192	-0.422728
O13	O	1.429461	-0.381403	-0.716574
O14	O	1.259088	-0.381436	-0.546241
O15	O	1.564083	-0.295133	-0.722120
O16	O	1.551064	-0.495351	-0.409892
O17	O	1.422054	-0.495313	-0.538938
C18	C	1.223734	-0.338313	-0.484483
C19	C	1.106957	-0.338324	-0.484501
C20	C	0.939505	-0.383311	-0.548710
C21	C	1.049229	-0.383303	-0.548700
C22	C	1.054954	-0.293356	-0.420301
C23	C	0.945231	-0.293368	-0.420306
C24	C	1.484941	-0.520818	-0.472802
C25	C	1.480007	-0.598888	-0.467833
C26	C	1.544848	-0.635493	-0.532748
C27	C	1.540207	-0.708848	-0.528082
C28	C	1.470729	-0.745599	-0.458495
C29	C	1.405881	-0.708990	-0.393578
C30	C	1.410518	-0.635635	-0.398250
C31	C	1.453366	-0.967086	-0.441028
C32	C	1.448737	-1.040446	-0.436359
C33	C	1.583062	-1.040299	-0.570865
C34	C	1.587696	-0.966943	-0.575526
C35	C	1.522844	-0.930341	-0.510613
C36	C	1.465986	-0.820580	-0.453721
C37	C	1.527583	-0.855360	-0.515393
C38	C	1.770733	-0.338339	-0.484511
C39	C	1.887510	-0.338344	-0.484517
C40	C	1.496784	-0.338258	-0.758534
C41	C	1.496819	-0.338229	-0.875313
C42	C	1.508535	-0.155121	-0.496260
C43	C	1.513578	-0.077050	-0.501273
C44	C	1.566923	-0.293301	-0.933065
C45	C	1.566942	-0.293271	-1.042791
C46	C	1.426752	-0.383103	-1.037003
C47	C	1.426728	-0.383129	-0.927279
C48	C	1.496682	-0.338342	-0.211528
C49	C	1.496863	-0.338173	-0.094763
H50	H	1.601428	-0.605575	-0.589408
H51	H	1.624026	-0.256685	-1.089809
O52	O	1.338335	-0.744765	-0.326121
C53	C	1.267748	-0.787196	-0.383174
H54	H	1.304069	-0.798126	-0.462130
H55	H	1.191666	-0.758967	-0.396447
C56	C	1.199745	-0.843489	-0.223934
C57	C	1.244358	-0.856918	-0.320905
H58	H	1.185312	-0.886496	-0.185523
H59	H	1.247297	-0.814901	-0.185495
H60	H	1.136348	-0.819963	-0.235009
H61	H	1.307760	-0.880436	-0.309829
H62	H	1.196816	-0.885512	-0.359340
H63	H	1.091559	-0.419920	-0.600971
O64	O	1.603165	-0.744323	-0.591280
C65	C	1.581290	-0.726373	-0.697122
H66	H	1.544253	-0.673139	-0.702661
H67	H	1.524666	-0.767677	-0.729849
C68	C	1.729407	-0.788263	-0.754241
C69	C	1.683925	-0.722877	-0.761045
H70	H	1.792715	-0.786109	-0.793674
H71	H	1.744142	-0.800359	-0.682934
H72	H	1.682210	-0.822676	-0.781512
H73	H	1.731116	-0.688468	-0.733762
H74	H	1.669200	-0.710776	-0.832349
O75	O	1.398451	-0.856360	-0.386259
C76	C	1.327863	-0.898789	-0.443314
H77	H	1.364178	-0.909710	-0.522276
H78	H	1.251776	-0.870563	-0.456573
C79	C	1.259880	-0.955100	-0.284077
C80	C	1.304487	-0.968518	-0.381057
H81	H	1.245456	-0.998110	-0.245673
H82	H	1.307434	-0.926513	-0.245638
H83	H	1.196480	-0.931576	-0.295141
H84	H	1.367892	-0.992033	-0.369992
H85	H	1.256943	-0.997111	-0.419493
O86	O	1.358820	-0.426794	-1.087528
C87	C	1.415718	-0.472138	-1.148110
H88	H	1.498176	-0.476490	-1.114774
H89	H	1.420761	-0.450401	-1.232663
C90	C	1.258395	-0.539807	-1.186044
C91	C	1.359669	-0.545157	-1.145095
H92	H	1.223820	-0.584848	-1.184189
H93	H	1.220061	-0.509257	-1.145232
H94	H	1.262612	-0.521690	-1.256501
H95	H	1.355450	-0.563265	-1.074635
H96	H	1.398001	-0.575712	-1.185895
H97	H	1.357716	-0.605833	-0.345391
H98	H	1.369634	-0.419714	-0.880256
H99	H	1.101965	-0.256736	-0.368024
O100	O	1.381389	-1.076175	-0.368643
C101	C	1.438562	-1.118612	-0.298148
H102	H	1.522709	-1.096457	-0.293142
H103	H	1.438658	-1.174189	-0.327091
C104	C	1.283862	-1.147030	-0.194956
C105	C	1.387212	-1.119816	-0.188801
H106	H	1.252186	-1.147776	-0.127506
H107	H	1.245343	-1.118442	-0.242451
H108	H	1.283956	-1.193342	-0.219079
H109	H	1.387115	-1.073502	-0.164691
H110	H	1.425730	-1.148396	-0.141298
H111	H	1.623993	-0.256739	-0.890758
H112	H	0.892511	-0.419934	-0.600994
H113	H	1.644270	-0.937023	-0.632189
O114	O	0.894840	-0.249718	-0.357789
C115	C	0.920621	-0.265002	-0.252063
H116	H	0.998551	-0.291994	-0.248099
H117	H	0.856538	-0.301093	-0.214276
C118	C	0.834365	-0.163328	-0.197840
C119	C	0.930084	-0.196475	-0.192972
H120	H	0.840198	-0.121058	-0.161388
H121	H	0.816992	-0.153032	-0.269069
H122	H	0.780972	-0.193411	-0.166353
H123	H	0.983471	-0.166395	-0.224471
H124	H	0.947466	-0.206764	-0.121746
O125	O	1.645891	-1.075891	-0.634034
C126	C	1.583349	-1.118335	-0.699113
H127	H	1.501995	-1.096270	-0.706930
H128	H	1.576231	-1.173946	-0.663083
C129	C	1.734465	-1.146484	-0.798713
C130	C	1.634547	-1.119380	-0.808321
H131	H	1.766048	-1.147131	-0.866077
H132	H	1.776602	-1.117890	-0.754866
H133	H	1.728519	-1.192824	-0.768684
H134	H	1.640496	-1.073038	-0.838338
H135	H	1.592413	-1.147965	-0.852177
H136	H	1.400563	-0.937290	-0.388171
H137	H	1.584148	-0.825436	-0.572055
