data_functionalizedCrystal
_audit_creation_method	'MofGen! by Chris Wilmer'
_symmetry_space_group_name_H-M	'P1'
_symmetry_Int_Tables_number	1
_symmetry_cell_setting	triclinic
loop_
_symmetry_equiv_pos_as_xyz
  x,y,z
_cell_length_a	19.188930
_cell_length_b	15.538191
_cell_length_c	14.750522
_cell_angle_alpha	72.474743
_cell_angle_beta	75.747426
_cell_angle_gamma	65.208439
loop_
_atom_site_label
_atom_site_type_symbol
_atom_site_fract_x
_atom_site_fract_y
_atom_site_fract_z
O1	O	-0.905516	-0.136000	0.080121
O2	O	-0.698216	-0.151832	0.080052
O3	O	-0.842219	-0.006624	0.080104
O4	O	-0.761513	-0.281208	0.080069
O5	O	-0.824395	0.029791	-0.079558
O6	O	-0.680392	-0.115417	-0.079610
O7	O	-0.887692	-0.099584	-0.079542
Zn8	Zn	-0.781212	-0.101719	-0.104926
Zn9	Zn	-0.804696	-0.149698	0.105436
O10	O	-0.743689	-0.244792	-0.079594
C11	C	-0.663421	-0.133110	0.000213
C12	C	-0.586301	-0.131563	0.000188
N13	N	-0.765190	-0.068974	-0.248492
C14	C	-0.922487	-0.118308	0.000300
C15	C	-0.999608	-0.119855	0.000331
C16	C	-0.519976	-0.216774	0.000192
C17	C	-0.447516	-0.215329	0.000202
C18	C	-0.441389	-0.128673	0.000228
C19	C	-0.507727	-0.043449	0.000219
C20	C	-0.580183	-0.044894	0.000199
N21	N	-0.356119	-0.074835	0.054616
N22	N	-0.287287	-0.073468	0.054637
C23	C	-0.223086	-0.124313	0.000288
N24	N	-0.230313	-0.176593	-0.054072
N25	N	-0.299151	-0.177963	-0.054089
C26	C	-0.362827	-0.127096	0.000250
C27	C	-0.078190	-0.207963	0.000302
C28	C	-0.005730	-0.206513	0.000307
C29	C	-0.065944	-0.034633	0.000333
C30	C	-0.138400	-0.036083	0.000319
C31	C	-0.144519	-0.122752	0.000308
C32	C	-0.841751	0.046712	0.000279
C33	C	-0.866904	0.151385	0.000297
C34	C	-0.744157	-0.298129	0.000234
C35	C	-0.719005	-0.402804	0.000222
C36	C	-0.617028	0.438170	0.000194
C37	C	-0.640679	0.536532	0.000200
C38	C	-0.773712	0.559513	0.000244
C39	C	-0.750073	0.461150	0.000243
C40	C	-0.671729	0.400486	0.000217
C41	C	-0.804774	0.423466	0.000266
C42	C	-0.781136	0.325112	0.000260
C43	C	-0.702796	0.264443	0.000231
C44	C	-0.648091	0.302133	0.000211
C45	C	-0.883116	0.484133	0.000285
C46	C	-0.937818	0.446449	0.000308
C47	C	-0.914181	0.348092	0.000309
C48	C	-0.835841	0.287423	0.000280
C49	C	-0.968886	0.310403	0.000329
C50	C	-0.945247	0.212049	0.000323
C51	C	-0.812202	0.189070	0.000274
C52	C	-0.865408	-0.273914	-0.600243
C53	C	-0.854201	-0.250954	-0.700750
C54	C	-0.798440	-0.136854	-0.700750
C55	C	-0.809639	-0.159808	-0.600241
C56	C	-0.843124	-0.228338	-0.549996
C57	C	-0.787354	-0.114233	-0.549994
C58	C	-0.798556	-0.137181	-0.449494
C59	C	-0.832042	-0.205706	-0.399241
C60	C	-0.854326	-0.251287	-0.449496
C61	C	-0.753874	-0.045698	-0.600241
C62	C	-0.731590	-0.000122	-0.549994
C63	C	-0.742786	-0.023076	-0.449492
C64	C	-0.776273	-0.091601	-0.399239
C65	C	-0.720503	0.022505	-0.399237
C66	C	-0.731705	-0.000444	-0.298738
C67	C	-0.787474	-0.114550	-0.298740
N68	N	-0.820726	-0.182435	0.249003
H69	H	-0.524950	-0.287347	0.000185
N70	N	-0.084791	-0.301437	0.000284
H71	H	-0.052398	-0.325254	-0.058908
H72	H	-0.140776	-0.289356	0.000314
H73	H	-0.713557	0.036667	-0.257825
H74	H	-0.553234	0.388772	0.000180
H75	H	-0.814731	-0.170363	-0.257827
H76	H	-1.001605	0.495855	0.000325
H77	H	-0.892665	-0.329728	-0.559330
N78	N	0.065828	-0.298404	0.000300
H79	H	0.103845	-0.288113	-0.058887
H80	H	0.050912	-0.353498	0.000324
N81	N	-0.677289	0.158360	0.000225
H82	H	-0.691102	0.152671	-0.058954
H83	H	-0.704324	0.125744	0.059459
N84	N	-0.762318	-0.062949	-0.754941
H85	H	-0.795441	0.001707	-0.737417
H86	H	-0.758602	-0.055406	-0.826216
N87	N	-0.651721	0.047019	0.000203
H88	H	-0.689750	0.036752	0.059383
H89	H	-0.676438	0.063704	-0.059029
H90	H	-0.060963	0.035911	0.000414
H91	H	-0.693246	0.078309	-0.440162
H92	H	-0.872350	-0.288073	-0.741657
H93	H	-0.744760	-0.027009	-0.682075
N94	N	-0.695479	0.073794	-0.604189
H95	H	-0.691765	0.081419	-0.675480
H96	H	-0.641891	0.050985	-0.586656
H97	H	-0.393504	-0.284720	0.000203
H98	H	-0.748408	0.139671	0.000260
N99	N	-0.501123	0.050020	0.000236
H100	H	-0.445158	0.038006	0.000250
H101	H	-0.533562	0.073802	0.059423
H102	H	-0.596126	0.567212	0.000167
H103	H	-0.192407	0.033304	0.000321
N104	N	-0.563596	0.236677	0.000186
H105	H	-0.545229	0.235261	0.059364
H106	H	-0.532073	0.262297	-0.059049
N107	N	-0.858206	0.624947	0.000263
H108	H	-0.864882	0.692973	0.000260
H109	H	-0.889732	0.599279	0.059462
H110	H	-0.902361	0.564216	0.000299
N111	N	-1.053379	0.375841	0.000339
H112	H	-1.060052	0.443867	0.000332
H113	H	-1.084910	0.350180	0.059535
N114	N	-1.004242	0.171397	0.000343
H115	H	-1.057459	0.224750	0.000362
H116	H	-1.003937	0.117591	0.059529
N117	N	-0.890443	-0.325199	-0.395285
H118	H	-0.852965	-0.380966	-0.353618
H119	H	-0.902864	-0.350522	-0.442420
H120	H	-0.841164	-0.224388	-0.317408
