data_functionalizedCrystal
_audit_creation_method	'MofGen! by Chris Wilmer'
_symmetry_space_group_name_H-M	'P1'
_symmetry_Int_Tables_number	1
_symmetry_cell_setting	triclinic
loop_
_symmetry_equiv_pos_as_xyz
  x,y,z
_cell_length_a	16.625547
_cell_length_b	29.839132
_cell_length_c	16.625539
_cell_angle_alpha	89.965692
_cell_angle_beta	90.024822
_cell_angle_gamma	89.954800
loop_
_atom_site_label
_atom_site_type_symbol
_atom_site_fract_x
_atom_site_fract_y
_atom_site_fract_z
Zn1	Zn	1.232553	0.178853	0.455967
Zn2	Zn	1.565886	0.512187	0.789301
Zn3	Zn	1.899219	0.845520	1.122634
Zn4	Zn	1.232402	0.253984	0.321120
Zn5	Zn	1.565736	0.587318	0.654454
Zn6	Zn	1.899069	0.920651	0.987787
Zn7	Zn	1.097715	0.178869	0.321138
Zn8	Zn	1.431048	0.512202	0.654471
Zn9	Zn	1.764381	0.845536	0.987804
Zn10	Zn	1.097631	0.253957	0.455900
Zn11	Zn	1.430965	0.587290	0.789233
Zn12	Zn	1.764298	0.920624	1.122567
O13	O	1.165075	0.216416	0.388531
O14	O	1.498409	0.549749	0.721865
O15	O	1.831742	0.883082	1.055198
O16	O	1.345365	0.188824	0.438100
O17	O	1.678699	0.522158	0.771434
O18	O	2.012032	0.855491	1.104767
O19	O	1.214508	0.244038	0.208290
O20	O	1.547841	0.577371	0.541623
O21	O	1.881174	0.910705	0.874957
O22	O	1.115699	0.116000	0.339058
O23	O	1.449032	0.449333	0.672392
O24	O	1.782366	0.782666	1.005725
O25	O	1.345255	0.244023	0.339029
O26	O	1.678588	0.577356	0.672362
O27	O	2.011921	0.910689	1.005695
O28	O	1.214764	0.115988	0.438117
O29	O	1.548097	0.449322	0.771450
O30	O	1.881431	0.782655	1.104784
O31	O	1.115553	0.188851	0.208303
O32	O	1.448886	0.522184	0.541636
O33	O	1.782220	0.855518	0.874970
O34	O	0.984871	0.188825	0.338993
O35	O	1.318204	0.522158	0.672327
O36	O	1.651538	0.855491	1.005660
O37	O	1.115557	0.243976	0.568741
O38	O	1.448890	0.577310	0.902075
O39	O	1.782224	0.910643	1.235408
O40	O	0.984810	0.243991	0.438003
O41	O	1.318143	0.577325	0.771336
O42	O	1.651477	0.910658	1.104669
O43	O	1.214683	0.188798	0.568791
O44	O	1.548017	0.522131	0.902124
O45	O	1.881350	0.855465	1.235457
O46	O	1.214427	0.316848	0.338964
O47	O	1.547760	0.650181	0.672297
O48	O	1.881094	0.983514	1.005630
O49	O	1.115411	0.316828	0.437986
O50	O	1.448745	0.650161	0.771319
O51	O	1.782078	0.983494	1.104653
C52	C	0.955584	0.216407	0.388493
C53	C	1.288918	0.549740	0.721827
C54	C	1.622251	0.883074	1.055160
C55	C	0.865963	0.216414	0.388496
C56	C	1.199297	0.549748	0.721829
C57	C	1.532630	0.883081	1.055163
C58	C	0.793181	0.216415	0.388506
C59	C	1.126514	0.549748	0.721839
C60	C	1.459848	0.883082	1.055173
C61	C	0.701872	0.216417	0.388526
C62	C	1.035206	0.549751	0.721860
C63	C	1.368539	0.883084	1.055193
C64	C	0.629096	0.216422	0.388547
C65	C	0.962429	0.549755	0.721880
C66	C	1.295763	0.883088	1.055213
C67	C	0.537782	0.216425	0.388566
C68	C	0.871115	0.549758	0.721899
C69	C	1.204448	0.883091	1.055233
C70	C	1.164916	0.333138	0.388483
C71	C	1.498249	0.666472	0.721817
C72	C	1.831582	0.999805	1.055150
C73	C	1.164921	0.383073	0.388490
C74	C	1.498254	0.716406	0.721823
C75	C	1.831588	1.049740	1.055156
C76	C	1.216669	0.692714	0.337013
C77	C	1.550002	1.026047	0.670346
C78	C	1.883336	1.359381	1.003679
C79	C	1.216746	0.880387	0.337031
C80	C	1.550079	1.213720	0.670364
C81	C	1.883413	1.547054	1.003698
O82	O	1.260657	0.904650	0.293249
O83	O	1.593991	1.237983	0.626583
O84	O	1.927324	1.571317	0.959916
N85	N	1.165160	0.903858	0.388544
N86	N	1.498493	1.237191	0.721878
N87	N	1.831826	1.570525	1.055211
C88	C	1.113554	0.880408	0.440061
C89	C	1.446887	1.213741	0.773394
C90	C	1.780221	1.547074	1.106727
O91	O	1.069684	0.904677	0.483882
O92	O	1.403018	1.238011	0.817216
O93	O	1.736351	1.571344	1.150549
C94	C	1.113482	0.692735	0.440046
C95	C	1.446815	1.026069	0.773379
C96	C	1.780149	1.359402	1.106712
C97	C	1.165066	0.669267	0.388523
C98	C	1.498399	1.002600	0.721857
C99	C	1.831733	1.335934	1.055190
C100	C	1.268250	0.669246	0.285495
C101	C	1.601583	1.002579	0.618828
C102	C	1.934916	1.335912	0.952162
C103	C	1.268227	0.622330	0.285488
C104	C	1.601560	0.955663	0.618821
C105	C	1.934893	1.288997	0.952155
C106	C	1.216623	0.598883	0.336998
C107	C	1.549957	0.932216	0.670332
C108	C	1.883290	1.265550	1.003665
C109	C	1.165043	0.622352	0.388516
C110	C	1.498376	0.955685	0.721849
C111	C	1.831710	1.289018	1.055183
C112	C	1.061881	0.669286	0.491566
C113	C	1.395214	1.002619	0.824899
C114	C	1.728548	1.335953	1.158232
C115	C	1.061869	0.622365	0.491559
C116	C	1.395202	0.955698	0.824892
C117	C	1.728536	1.289032	1.158225
C118	C	1.113453	0.598897	0.440036
C119	C	1.446786	0.932230	0.773369
C120	C	1.780120	1.265563	1.106703
C121	C	1.113417	0.551989	0.440020
C122	C	1.446750	0.885322	0.773353
C123	C	1.780084	1.218656	1.106686
N124	N	1.165003	0.528518	0.388506
N125	N	1.498337	0.861852	0.721839
N126	N	1.831670	1.195185	1.055173
C127	C	1.216607	0.551965	0.336996
C128	C	1.549940	0.885299	0.670329
C129	C	1.883273	1.218632	1.003662
C130	C	1.113595	0.978938	0.440064
C131	C	1.446928	1.312272	0.773397
C132	C	1.780261	1.645605	1.106730
C133	C	1.113612	1.025856	0.440066
C134	C	1.446945	1.359189	0.773400
C135	C	1.780278	1.692523	1.106733
C136	C	1.216805	1.025832	0.337038
C137	C	1.550138	1.359166	0.670371
C138	C	1.883471	1.692499	1.003704
C139	C	1.216783	0.978914	0.337031
C140	C	1.550116	1.312247	0.670365
C141	C	1.883450	1.645580	1.003698
C142	C	1.165181	0.955467	0.388550
C143	C	1.498514	1.288801	0.721884
C144	C	1.831848	1.622134	1.055217
C145	C	1.216554	0.453439	0.336984
C146	C	1.549887	0.786773	0.670317
C147	C	1.883221	1.120106	1.003651
C148	C	1.216524	0.406520	0.336979
C149	C	1.549858	0.739853	0.670312
C150	C	1.883191	1.073187	1.003646
C151	C	1.113335	0.406548	0.440010
C152	C	1.446668	0.739881	0.773344
C153	C	1.780001	1.073214	1.106677
C154	C	1.113361	0.453463	0.440013
C155	C	1.446694	0.786797	0.773346
C156	C	1.780028	1.120130	1.106679
C157	C	1.164977	0.476908	0.388497
C158	C	1.498311	0.810241	0.721830
C159	C	1.831644	1.143575	1.055163
O160	O	1.069535	0.527697	0.483785
O161	O	1.402868	0.861031	0.817118
O162	O	1.736202	1.194364	1.150451
O163	O	1.260482	0.527688	0.293193
O164	O	1.593816	0.861021	0.626527
O165	O	1.927149	1.194354	0.959860
C166	C	1.216692	0.739629	0.337020
C167	C	1.550025	1.072963	0.670353
C168	C	1.883359	1.406296	1.003687
C169	C	1.165112	0.763098	0.388538
C170	C	1.498445	1.096431	0.721871
C171	C	1.831778	1.429765	1.055204
C172	C	1.113508	0.739651	0.440048
C173	C	1.446842	1.072984	0.773381
C174	C	1.780175	1.406318	1.106715
C175	C	1.165128	0.810016	0.388540
C176	C	1.498462	1.143349	0.721874
C177	C	1.831795	1.476682	1.055207
C178	C	1.216732	0.833463	0.337030
C179	C	1.550065	1.166796	0.670363
C180	C	1.883398	1.500129	1.003697
C181	C	1.268318	0.809992	0.285517
C182	C	1.601651	1.143325	0.618850
C183	C	1.934985	1.476659	0.952183
C184	C	1.268295	0.763076	0.285509
C185	C	1.601629	1.096410	0.618843
C186	C	1.934962	1.429743	0.952176
C187	C	1.061922	0.763122	0.491561
C188	C	1.395255	1.096455	0.824895
C189	C	1.728589	1.429788	1.158228
C190	C	1.061948	0.810037	0.491564
C191	C	1.395282	1.143371	0.824897
C192	C	1.728615	1.476704	1.158230
C193	C	1.113552	0.833484	0.440053
C194	C	1.446885	1.166818	0.773387
C195	C	1.780218	1.500151	1.106720
C196	C	1.375384	0.216425	0.388570
C197	C	1.708717	0.549758	0.721903
C198	C	2.042051	0.883092	1.055237
C199	C	1.465005	0.216429	0.388586
C200	C	1.798339	0.549762	0.721920
C201	C	2.131672	0.883095	1.055253
C202	C	1.165227	1.099237	0.388580
C203	C	1.498561	1.432571	0.721913
C204	C	1.831894	1.765904	1.055246
C205	C	1.165215	1.049303	0.388556
C206	C	1.498548	1.382636	0.721889
C207	C	1.831881	1.715970	1.055223
C208	C	1.165128	0.216382	0.598840
C209	C	1.498461	0.549716	0.932174
C210	C	1.831794	0.883049	1.265507
C211	C	1.165150	0.216368	0.688461
C212	C	1.498483	0.549701	1.021795
C213	C	1.831817	0.883035	1.355128
C214	C	1.165069	0.216417	0.179040
C215	C	1.498403	0.549750	0.512374
C216	C	1.831736	0.883083	0.845707
C217	C	1.165203	0.216304	0.089420
C218	C	1.498537	0.549638	0.422753
C219	C	1.831870	0.882971	0.756086
C220	C	1.165187	0.216318	1.016637
C221	C	1.498521	0.549651	1.349971
C222	C	1.831854	0.882984	1.683304
C223	C	1.165175	0.216333	0.925329
C224	C	1.498508	0.549667	1.258662
C225	C	1.831841	0.883000	1.591995
C226	C	1.165169	0.216343	0.852552
C227	C	1.498502	0.549677	1.185886
C228	C	1.831836	0.883010	1.519219
C229	C	1.165156	0.216358	0.761238
C230	C	1.498489	0.549691	1.094571
C231	C	1.831822	0.883025	1.427905
H232	H	1.258530	0.387413	0.295020
H233	H	1.591863	0.720747	0.628354
H234	H	1.925197	1.054080	0.961687
H235	H	1.071317	0.387450	0.481947
H236	H	1.404651	0.720783	0.815281
H237	H	1.737984	1.054117	1.148614
O238	O	1.323942	0.737770	0.229944
O239	O	1.657276	1.071103	0.563277
O240	O	1.990609	1.404436	0.896610
H241	H	1.364934	0.716357	0.266072
H242	H	1.698268	1.049691	0.599406
H243	H	2.031601	1.383024	0.932739
H244	H	1.258587	0.472523	0.295037
H245	H	1.591920	0.805856	0.628370
H246	H	1.925253	1.139189	0.961703
H247	H	1.310333	0.829091	0.243572
H248	H	1.643666	1.162424	0.576906
H249	H	1.977000	1.495757	0.910239
O250	O	1.057713	0.478782	0.495565
O251	O	1.391046	0.812115	0.828899
O252	O	1.724379	1.145448	1.162232
H253	H	1.093785	0.500123	0.536626
H254	H	1.427118	0.833457	0.869959
H255	H	1.760451	1.166790	1.203292
H256	H	1.310233	0.603225	0.243536
H257	H	1.643566	0.936558	0.576870
H258	H	1.976900	1.269892	0.910203
H259	H	1.019935	0.829141	0.533519
H260	H	1.353269	1.162475	0.866852
H261	H	1.686602	1.495808	1.200186
O262	O	1.006246	0.694588	0.547145
O263	O	1.339580	1.027922	0.880478
O264	O	1.672913	1.361255	1.213811
H265	H	0.965238	0.715999	0.511030
H266	H	1.298572	1.049332	0.844364
H267	H	1.631905	1.382665	1.177697
O268	O	1.057920	0.953659	0.495629
O269	O	1.391253	1.286993	0.828963
O270	O	1.724586	1.620326	1.162296
H271	H	1.093962	0.932251	0.536704
H272	H	1.427295	1.265585	0.870037
H273	H	1.760629	1.598918	1.203371
H274	H	1.019901	0.744035	0.533509
H275	H	1.353235	1.077368	0.866842
H276	H	1.686568	1.410701	1.200175
H277	H	1.258788	0.959808	0.295078
H278	H	1.592121	1.293142	0.628411
H279	H	1.925454	1.626475	0.961745
O280	O	1.323906	0.694532	0.229927
O281	O	1.657240	1.027865	0.563261
O282	O	1.990573	1.361198	0.896594
H283	H	1.359760	0.670323	0.194105
H284	H	1.693093	1.003656	0.527438
H285	H	2.026426	1.336990	0.860772
H286	H	1.071599	1.044960	0.482014
H287	H	1.404932	1.378293	0.815347
H288	H	1.738266	1.711627	1.148680
O289	O	1.272480	1.051125	0.281492
O290	O	1.605813	1.384458	0.614825
O291	O	1.939146	1.717791	0.948159
H292	H	1.263828	1.087692	0.290164
H293	H	1.597162	1.421025	0.623497
H294	H	1.930495	1.754358	0.956830
O295	O	1.006201	0.597075	0.547116
O296	O	1.339535	0.930409	0.880450
O297	O	1.672868	1.263742	1.213783
H298	H	0.970332	0.621280	0.582932
H299	H	1.303666	0.954613	0.916266
H300	H	1.636999	1.287947	1.249599
