data_functionalizedCrystal
_audit_creation_method	'MofGen! by Chris Wilmer'
_symmetry_space_group_name_H-M	'P1'
_symmetry_Int_Tables_number	1
_symmetry_cell_setting	triclinic
loop_
_symmetry_equiv_pos_as_xyz
  x,y,z
_cell_length_a	29.839131
_cell_length_b	18.215407
_cell_length_c	18.215399
_cell_angle_alpha	90.020595
_cell_angle_beta	89.969127
_cell_angle_gamma	89.958659
loop_
_atom_site_label
_atom_site_type_symbol
_atom_site_fract_x
_atom_site_fract_y
_atom_site_fract_z
Zn1	Zn	-0.178859	-1.124987	-0.416116
Zn2	Zn	-0.253988	-1.124860	-0.293043
Zn3	Zn	-0.178873	-1.001920	-0.293062
Zn4	Zn	-0.253962	-1.001850	-0.416067
O5	O	-0.216421	-1.063404	-0.354572
O6	O	-0.188830	-1.227955	-0.399803
O7	O	-0.244041	-1.108528	-0.190061
O8	O	-0.116004	-1.018327	-0.309413
O9	O	-0.244027	-1.227861	-0.309382
O10	O	-0.115994	-1.108745	-0.399821
O11	O	-0.188854	-1.018204	-0.190075
O12	O	-0.188829	-0.898926	-0.309365
O13	O	-0.243983	-1.018209	-0.519057
O14	O	-0.243997	-0.898875	-0.399737
O15	O	-0.188805	-1.108677	-0.519094
O16	O	-0.316852	-1.108460	-0.309334
O17	O	-0.316833	-1.018086	-0.399719
C18	C	-0.216412	-0.872198	-0.354548
C19	C	-0.216419	-0.790399	-0.354555
C20	C	-0.245189	-0.602198	-0.401550
C21	C	-0.245190	-0.525339	-0.401558
C22	C	-0.187655	-0.525363	-0.307596
C23	C	-0.187652	-0.602220	-0.307592
C24	C	-0.216422	-0.640636	-0.354568
C25	C	-0.216425	-0.486920	-0.354580
C26	C	-0.216426	-0.403586	-0.354589
C27	C	-0.216420	-0.723975	-0.354561
C28	C	-0.333143	-1.063272	-0.354535
C29	C	-0.383078	-1.063282	-0.354544
C30	C	-0.692718	-1.110548	-0.307577
C31	C	-0.880391	-1.110639	-0.307606
O32	O	-0.904654	-1.150721	-0.267645
N33	N	-0.903863	-1.063557	-0.354627
C34	C	-0.880413	-1.016452	-0.401648
O35	O	-0.904683	-0.976414	-0.441649
C36	C	-0.692741	-1.016366	-0.401623
C37	C	-0.669272	-1.063446	-0.354593
C38	C	-0.669249	-1.157625	-0.260552
C39	C	-0.622334	-1.157599	-0.260542
C40	C	-0.598887	-1.110496	-0.307558
C41	C	-0.622356	-1.063420	-0.354584
C42	C	-0.669292	-0.969265	-0.448647
C43	C	-0.622371	-0.969249	-0.448638
C44	C	-0.598902	-1.016329	-0.401608
C45	C	-0.551994	-1.016291	-0.401590
N46	N	-0.528523	-1.063373	-0.354569
C47	C	-0.551969	-1.110476	-0.307553
C48	C	-0.978944	-1.016500	-0.401657
C49	C	-1.025861	-1.016521	-0.401663
C50	C	-1.025836	-1.110709	-0.307621
C51	C	-0.978918	-1.110684	-0.307612
C52	C	-0.955472	-1.063582	-0.354636
C53	C	-0.453444	-1.110417	-0.307536
C54	C	-0.406524	-1.110385	-0.307528
C55	C	-0.406553	-1.016200	-0.401573
C56	C	-0.453469	-1.016229	-0.401578
C57	C	-0.476913	-1.063344	-0.354557
O58	O	-0.527703	-0.976236	-0.441536
O59	O	-0.527691	-1.150520	-0.267570
C60	C	-0.739634	-1.110574	-0.307587
C61	C	-0.763103	-1.063498	-0.354612
C62	C	-0.739656	-1.016395	-0.401628
C63	C	-0.810020	-1.063518	-0.354618
C64	C	-0.833467	-1.110621	-0.307602
C65	C	-0.809995	-1.157703	-0.260580
C66	C	-0.763080	-1.157677	-0.260571
C67	C	-0.763128	-0.969313	-0.448650
C68	C	-0.810043	-0.969342	-0.448655
C69	C	-0.833490	-1.016445	-0.401639
C70	C	-0.099242	-1.063558	-0.354625
C71	C	-0.049308	-1.063623	-0.354647
C72	C	-0.216390	-1.063449	-0.546525
C73	C	-0.216376	-1.063468	-0.628324
C74	C	-0.216428	-0.255357	-0.354593
C75	C	-0.216428	-0.337156	-0.354593
C76	C	-0.187618	-1.110592	-0.816538
C77	C	-0.187605	-1.110601	-0.893397
C78	C	-0.245065	-1.016397	-0.893348
C79	C	-0.245076	-1.016385	-0.816490
C80	C	-0.216353	-1.063487	-0.778087
C81	C	-0.216329	-1.063507	-0.931804
C82	C	-0.216315	-1.063517	-1.015137
C83	C	-0.216366	-1.063477	-0.694748
C84	C	-0.216419	-1.063402	-0.163366
C85	C	-0.216306	-1.063526	-0.081567
H86	H	-0.268615	-0.494047	-0.439817
H87	H	-0.268451	-0.978050	-0.924625
N88	N	-0.158265	-0.641501	-0.259608
N89	N	-0.129657	-0.684430	-0.285588
H90	H	-0.108902	-0.712173	-0.251704
N91	N	-1.049831	-0.968434	-0.449707
N92	N	-1.075976	-0.994310	-0.496635
H93	H	-1.092904	-0.960350	-0.530570
N94	N	-0.382559	-1.158479	-0.259478
N95	N	-0.403502	-1.200530	-0.217504
H96	H	-0.386578	-1.234496	-0.183569
H97	H	-0.472526	-1.148784	-0.269249
N98	N	-0.158282	-1.158698	-0.777298
N99	N	-0.174094	-1.205568	-0.734412
H100	H	-0.153374	-1.239543	-0.706699
H101	H	-0.268614	-0.633474	-0.439803
H102	H	-0.268475	-0.978021	-0.785183
N103	N	-0.382605	-0.968092	-0.449609
N104	N	-0.403561	-0.926063	-0.491601
H105	H	-0.386647	-0.892089	-0.525532
H106	H	-0.164232	-0.494076	-0.269349
N107	N	-0.739184	-0.921204	-0.496688
N108	N	-0.744399	-0.926050	-0.564600
H109	H	-0.727490	-0.892068	-0.598531
N110	N	-0.955000	-0.968390	-0.449703
N111	N	-0.960218	-0.973236	-0.517615
H112	H	-0.943311	-0.939257	-0.551548
H113	H	-0.829148	-0.930998	-0.486951
H114	H	-0.603228	-1.195937	-0.222249
N115	N	-0.477443	-0.968146	-0.449625
N116	N	-0.503582	-0.994030	-0.496556
H117	H	-0.520511	-0.960076	-0.530496
N118	N	-0.693187	-1.205752	-0.212521
N119	N	-0.672218	-1.247778	-0.170544
H120	H	-0.689121	-1.281769	-0.136616
H121	H	-0.959812	-1.149021	-0.269317
H122	H	-0.688392	-0.930924	-0.486941
N123	N	-1.049798	-1.158816	-0.259596
N124	N	-1.091688	-1.158822	-0.259615
H125	H	-1.108614	-1.192798	-0.225702
H126	H	-0.603284	-0.930894	-0.486933
H127	H	-0.743975	-1.196014	-0.222275
H128	H	-0.829094	-1.196053	-0.222296
H129	H	-0.164206	-1.148958	-0.924700
