data_functionalizedCrystal
_audit_creation_method	'MofGen! by Chris Wilmer'
_symmetry_space_group_name_H-M	'P1'
_symmetry_Int_Tables_number	1
_symmetry_cell_setting	triclinic
loop_
_symmetry_equiv_pos_as_xyz
  x,y,z
_cell_length_a	14.853567
_cell_length_b	23.532407
_cell_length_c	13.330367
_cell_angle_alpha	89.990692
_cell_angle_beta	89.995418
_cell_angle_gamma	83.241804
loop_
_atom_site_label
_atom_site_type_symbol
_atom_site_fract_x
_atom_site_fract_y
_atom_site_fract_z
O1	O	1.195556	0.074353	-0.083365
O2	O	0.932999	0.083210	-0.083383
O3	O	1.072195	-0.004116	-0.083355
O4	O	1.056360	0.161678	-0.083393
O5	O	1.072175	-0.004118	0.083492
O6	O	0.932979	0.083208	0.083464
O7	O	1.195536	0.074351	0.083482
Cu8	Cu	1.064255	0.078779	0.098707
Cu9	Cu	1.064279	0.078782	-0.098609
O10	O	1.056340	0.161677	0.083454
C11	C	0.899405	0.082808	0.000038
C12	C	0.799334	0.081605	0.000032
C13	C	0.387423	0.024648	0.000067
C14	C	0.365008	0.128393	0.000043
C15	C	0.459029	0.129524	0.000039
C16	C	0.517252	0.078216	0.000048
C17	C	0.481454	0.025777	0.000061
C18	C	0.494835	0.181961	0.000016
C19	C	0.588861	0.183094	0.000012
C20	C	0.647086	0.131786	0.000028
C21	C	0.611283	0.079345	0.000042
C22	C	0.669506	0.028037	0.000051
C23	C	0.633704	-0.024404	0.000072
C24	C	0.539679	-0.025531	0.000077
C25	C	0.741111	0.132913	0.000023
C26	C	0.763536	0.029166	0.000044
C27	C	1.071782	-0.025335	0.000071
C28	C	1.070569	-0.088557	0.000078
C29	C	1.145338	-0.487334	0.000029
C30	C	1.144212	-0.546739	0.000021
O31	O	1.213524	-0.583181	-0.000011
N32	N	1.061460	-0.569726	0.000016
C33	C	0.979829	-0.533305	0.000008
O34	O	0.909339	-0.558312	0.000002
C35	C	0.980957	-0.473901	0.000009
C36	C	1.063714	-0.450917	0.000024
C37	C	1.228089	-0.464349	0.000043
C38	C	1.229214	-0.404948	0.000052
C39	C	1.147590	-0.368531	0.000048
C40	C	1.064839	-0.391516	0.000034
C41	C	0.899327	-0.437481	-0.000006
C42	C	0.900461	-0.378073	-0.000006
C43	C	0.983218	-0.355089	0.000009
C44	C	0.984341	-0.295698	0.000039
N45	N	1.067092	-0.272711	0.000044
C46	C	1.148717	-0.309128	0.000048
C47	C	0.977469	-0.658058	0.000005
C48	C	0.976340	-0.717461	0.000012
C49	C	1.140723	-0.730890	0.000023
C50	C	1.141851	-0.671486	0.000023
C51	C	1.060220	-0.635070	0.000011
C52	C	1.151075	-0.184380	0.000069
C53	C	1.152194	-0.124974	0.000083
C54	C	0.987811	-0.111549	0.000067
C55	C	0.986692	-0.170951	0.000058
C56	C	1.068331	-0.207365	0.000056
O57	O	0.915065	-0.259221	0.000067
O58	O	1.219196	-0.284112	0.000041
C59	C	1.229130	0.074753	0.000058
C60	C	1.329200	0.075956	0.000058
C61	C	1.056753	0.182895	0.000026
C62	C	1.057966	0.246118	0.000011
N63	N	1.064245	0.078777	0.237489
N64	N	1.064296	0.078779	-0.237390
C65	C	1.002641	0.117434	0.710099
C66	C	1.125942	0.040124	0.710092
C67	C	1.125932	0.040123	0.605074
C68	C	1.064276	0.078778	0.552563
C69	C	1.002631	0.117435	0.605071
C70	C	1.187582	0.001470	0.552558
C71	C	1.187575	0.001467	0.447533
C72	C	1.125914	0.040120	0.395021
C73	C	1.064266	0.078778	0.447535
C74	C	1.002610	0.117434	0.395025
C75	C	0.940957	0.156089	0.447537
C76	C	0.940970	0.156088	0.552559
C77	C	1.125901	0.040122	0.289999
C78	C	1.002600	0.117434	0.289997
H79	H	0.681121	-0.066179	0.000072
C80	C	0.430791	0.238394	0.000011
H81	H	0.369667	0.230210	0.000031
H82	H	0.441588	0.259896	-0.058178
H83	H	0.441597	0.259890	0.058196
C84	C	1.232882	-0.646209	0.000031
H85	H	1.281329	-0.676411	0.000028
H86	H	1.236737	-0.623318	0.058212
H87	H	1.236749	-0.623313	-0.058162
C88	C	0.827575	-0.027274	0.000049
H89	H	0.792784	-0.058664	0.000054
H90	H	0.864725	-0.028992	0.058226
H91	H	0.864714	-0.028988	-0.058148
H92	H	1.207187	-0.760552	0.000023
H93	H	0.890760	0.187565	0.404771
C94	C	0.873167	0.198609	0.610323
H95	H	0.882013	0.193076	0.680391
H96	H	0.813054	0.192358	0.593134
H97	H	0.882621	0.236630	0.593096
C98	C	0.934830	0.159954	0.767856
H99	H	0.943666	0.154421	0.837925
H100	H	0.874720	0.153701	0.750655
H101	H	0.944283	0.197976	0.750632
C102	C	0.885308	-0.742736	0.000004
H103	H	0.836862	-0.712535	-0.000005
H104	H	0.881437	-0.765639	0.058181
H105	H	0.881457	-0.765621	-0.058193
C106	C	0.934779	0.159957	0.232243
H107	H	0.898070	0.182979	0.278561
H108	H	0.897436	0.139429	0.191282
H109	H	0.966996	0.183706	0.191267
C110	C	1.193710	-0.002391	0.232235
H111	H	1.184877	0.003146	0.162167
H112	H	1.184273	-0.040413	0.249462
H113	H	1.253822	0.003871	0.249431
H114	H	0.770257	0.175610	0.000007
H115	H	0.510520	-0.068226	0.000118
H116	H	0.921355	-0.081888	0.000067
H117	H	1.237775	-0.030008	0.404784
C118	C	0.628236	0.240776	0.000003
H119	H	0.580093	0.271170	0.000006
H120	H	0.664456	0.243377	-0.058178
H121	H	0.664442	0.243369	0.058195
C122	C	0.887669	-0.618004	0.000010
H123	H	0.838230	-0.640207	0.000017
H124	H	0.884688	-0.594544	-0.058170
H125	H	0.884685	-0.594560	0.058204
C126	C	0.348047	-0.033033	0.000086
H127	H	0.283710	-0.026360	0.000083
H128	H	0.368065	-0.054163	0.058271
H129	H	0.368062	-0.054158	-0.058103
C130	C	0.895663	-0.196234	0.000039
H131	H	0.847212	-0.166036	0.000031
H132	H	0.891790	-0.219141	0.058211
H133	H	0.891821	-0.219115	-0.058163
H134	H	1.237785	-0.029999	0.595316
C135	C	0.300966	0.184826	0.000034
H136	H	0.239841	0.176643	0.000046
H137	H	0.311770	0.206329	-0.058151
H138	H	0.311767	0.206321	0.058223
H139	H	0.833986	-0.348425	-0.000018
H140	H	0.831937	-0.456183	-0.000024
C141	C	1.243230	-0.099695	0.000094
H142	H	1.291679	-0.129894	0.000084
H143	H	1.247084	-0.076808	0.058279
H144	H	1.247093	-0.076794	-0.058094
H145	H	1.176144	0.008655	0.752850
C146	C	1.320248	-0.379673	0.000050
H147	H	1.368692	-0.409876	0.000040
H148	H	1.324112	-0.356784	0.058231
H149	H	1.324109	-0.356777	-0.058143
C150	C	1.240876	-0.224428	0.000075
H151	H	1.290314	-0.202224	0.000095
H152	H	1.243873	-0.247876	-0.058108
H153	H	1.243847	-0.247886	0.058266
H154	H	1.294561	-0.493994	0.000043
