data_functionalizedCrystal
_audit_creation_method	'MofGen! by Chris Wilmer'
_symmetry_space_group_name_H-M	'P1'
_symmetry_Int_Tables_number	1
_symmetry_cell_setting	triclinic
loop_
_symmetry_equiv_pos_as_xyz
  x,y,z
_cell_length_a	19.805407
_cell_length_b	16.959453
_cell_length_c	19.805399
_cell_angle_alpha	90.026715
_cell_angle_beta	90.019573
_cell_angle_gamma	90.019988
loop_
_atom_site_label
_atom_site_type_symbol
_atom_site_fract_x
_atom_site_fract_y
_atom_site_fract_z
Zn1	Zn	1.034766	-0.314700	0.382724
Zn2	Zn	1.034693	-0.446882	0.269537
Zn3	Zn	0.921581	-0.314722	0.269548
Zn4	Zn	0.921557	-0.446840	0.382684
O5	O	0.978149	-0.380786	0.326123
O6	O	1.129473	-0.332243	0.367721
O7	O	1.019668	-0.429378	0.174822
O8	O	0.936635	-0.204108	0.284583
O9	O	1.129420	-0.429356	0.284564
O10	O	1.019792	-0.204092	0.367732
O11	O	0.936565	-0.332280	0.174830
O12	O	0.826861	-0.332239	0.284544
O13	O	0.936595	-0.429285	0.477406
O14	O	0.826843	-0.429306	0.367664
O15	O	1.019769	-0.332202	0.477435
O16	O	1.019645	-0.557488	0.284525
O17	O	0.936524	-0.557457	0.367653
C18	C	0.802293	-0.380771	0.326101
C19	C	0.727061	-0.380783	0.326108
C20	C	0.691726	-0.431402	0.369319
C21	C	0.621037	-0.431404	0.369328
C22	C	0.585686	-0.380790	0.326123
C23	C	0.621026	-0.330165	0.282911
C24	C	0.691713	-0.330160	0.282905
C25	C	0.335953	-0.330183	0.282933
C26	C	0.265261	-0.330193	0.282941
C27	C	0.265277	-0.431426	0.369356
C28	C	0.335964	-0.431421	0.369351
C29	C	0.371298	-0.380794	0.326141
C30	C	0.447947	-0.380792	0.326132
C31	C	0.509038	-0.380795	0.326128
C32	C	0.978093	-0.586152	0.326098
C33	C	0.978130	-0.674009	0.326111
C34	C	1.021504	-1.045418	0.369501
C35	C	0.934983	-1.045551	0.282846
C36	C	0.934958	-0.963005	0.282831
C37	C	0.978206	-0.921662	0.326152
C38	C	1.021479	-0.962864	0.369488
C39	C	0.891681	-0.921797	0.239500
C40	C	0.891653	-0.839246	0.239483
C41	C	0.934905	-0.797901	0.282801
C42	C	0.978181	-0.839108	0.326139
C43	C	1.021429	-0.797765	0.369460
C44	C	1.064708	-0.838971	0.412795
C45	C	1.064731	-0.921519	0.412806
C46	C	0.934882	-0.715352	0.282790
C47	C	1.021404	-0.715211	0.369447
C48	C	1.154692	-0.380802	0.326146
C49	C	1.229924	-0.380808	0.326155
C50	C	0.978187	-0.380736	0.502666
C51	C	0.978203	-0.380715	0.577898
C52	C	0.978224	-0.174618	0.326163
C53	C	0.978256	-0.086761	0.326180
C54	C	0.978150	-0.380779	0.150267
C55	C	0.978265	-0.380577	0.075036
C56	C	1.021513	-0.330161	0.613259
C57	C	1.021520	-0.330138	0.683947
C58	C	0.978220	-0.380674	0.719274
C59	C	0.934905	-0.431230	0.683908
C60	C	0.934896	-0.431248	0.613221
C61	C	0.934944	-0.431156	0.968982
C62	C	0.934958	-0.431135	1.039674
C63	C	1.021568	-0.330046	1.039708
C64	C	1.021558	-0.330065	0.969021
C65	C	0.978241	-0.380617	0.933661
C66	C	0.978234	-0.380641	0.857013
C67	C	0.978231	-0.380655	0.795921
H68	H	0.236499	-0.472646	0.404542
H69	H	0.899621	-0.472406	0.584432
C70	C	0.887992	-1.090539	0.235924
C71	C	0.844611	-1.137951	0.274213
C72	C	0.801320	-1.179416	0.231008
H73	H	0.862153	-1.054268	0.210095
H74	H	0.913896	-1.122789	0.206476
H75	H	0.818710	-1.105703	0.303649
H76	H	0.870432	-1.174235	0.300041
H77	H	0.827224	-1.211666	0.201561
H78	H	0.775486	-1.143140	0.205182
H79	H	0.771886	-1.211595	0.256981
C80	C	0.844694	-0.966788	0.192577
C81	C	0.801319	-1.014210	0.230865
C82	C	0.758033	-1.055681	0.187659
H83	H	0.818849	-0.930521	0.166749
H84	H	0.870601	-0.999033	0.163128
H85	H	0.775414	-0.981968	0.260302
H86	H	0.827145	-1.050491	0.256691
H87	H	0.783941	-1.087925	0.158210
H88	H	0.732193	-1.019408	0.161834
H89	H	0.728603	-1.087866	0.213631
C90	C	1.111593	-0.966307	0.459941
C91	C	1.073242	-1.013674	0.503299
C92	C	1.116381	-1.054942	0.546735
H93	H	1.141119	-0.998575	0.434163
H94	H	1.137338	-0.929895	0.485784
H95	H	1.047507	-1.050082	0.477459
H96	H	1.043717	-0.981426	0.529092
H97	H	1.142127	-1.018531	0.572578
H98	H	1.145906	-1.087206	0.520952
H99	H	1.090366	-1.087081	0.576163
H100	H	1.099918	-0.805299	0.448070
C101	C	0.374392	-0.275350	0.235975
C102	C	0.414959	-0.320030	0.192530
C103	C	0.450387	-0.269542	0.149266
H104	H	0.343287	-0.245195	0.210181
H105	H	0.402025	-0.240955	0.261895
H106	H	0.387329	-0.354411	0.166612
H107	H	0.446076	-0.350183	0.218305
H108	H	0.478019	-0.235147	0.175186
H109	H	0.419277	-0.239390	0.123476
H110	H	0.477920	-0.299850	0.119787
H111	H	0.592270	-0.472623	0.404514
H112	H	0.592237	-0.288951	0.247735
H113	H	0.856414	-0.805701	0.204197
C114	C	1.068575	-0.275376	0.722431
C115	C	1.111932	-0.320117	0.763033
C116	C	1.155278	-0.269691	0.798503
H117	H	1.094429	-0.245261	0.691350
H118	H	1.042710	-0.240941	0.750042
H119	H	1.137794	-0.354538	0.735425
H120	H	1.086096	-0.350231	0.794126
H121	H	1.129414	-0.235256	0.826114
H122	H	1.181128	-0.239579	0.767417
H123	H	1.184697	-0.300040	0.826060
H124	H	1.056743	-1.078971	0.404781
H125	H	0.899642	-0.681806	0.247510
H126	H	1.056836	-0.288881	1.068506
H127	H	0.899647	-0.472373	0.712677
H128	H	1.056775	-0.289012	0.584501
C129	C	1.068250	-0.670225	0.416522
C130	C	1.029885	-0.622821	0.459853
C131	C	1.073016	-0.581361	0.503221
H132	H	1.094042	-0.706498	0.442395
H133	H	1.097734	-0.637969	0.390672
H134	H	1.000413	-0.655074	0.485700
H135	H	1.004094	-0.586534	0.433999
H136	H	1.102500	-0.549106	0.477371
H137	H	1.098806	-0.617640	0.529089
H138	H	1.046992	-0.549188	0.532622
C139	C	0.887866	-0.486031	1.077908
C140	C	0.849915	-0.530292	1.031814
C141	C	0.806524	-0.580859	1.067010
H142	H	0.913673	-0.520539	1.105483
H143	H	0.858359	-0.455797	1.105471
H144	H	0.879418	-0.560524	1.004263
H145	H	0.824094	-0.495805	1.004238
H146	H	0.777016	-0.550625	1.094573
H147	H	0.832335	-0.615361	1.094584
H148	H	0.780764	-0.610891	1.035741
C149	C	0.226755	-0.275330	0.236049
C150	C	0.157288	-0.286195	0.245286
C151	C	0.121796	-0.235686	0.202094
H152	H	0.238266	-0.222200	0.245987
H153	H	0.238283	-0.286840	0.190541
H154	H	0.145764	-0.274680	0.290784
H155	H	0.145756	-0.339315	0.235344
H156	H	0.133324	-0.247196	0.156585
H157	H	0.133312	-0.182559	0.212035
H158	H	0.074659	-0.243056	0.208350
H159	H	1.056820	-0.288916	0.940261
C160	C	0.888024	-0.486092	0.930519
C161	C	0.926311	-0.536764	0.889919
C162	C	0.883107	-0.587378	0.854472
H163	H	0.862228	-0.516257	0.961613
H164	H	0.858545	-0.455884	0.902909
H165	H	0.955778	-0.566969	0.917527
H166	H	0.952105	-0.506621	0.858812
H167	H	0.853629	-0.557170	0.826861
H168	H	0.857314	-0.617537	0.885571
H169	H	0.909079	-0.621760	0.826916
H170	H	0.720504	-0.472621	0.404499
C171	C	0.730046	-0.275305	0.235874
C172	C	0.712834	-0.292430	0.168880
C173	C	0.748140	-0.241919	0.125536
H174	H	0.718510	-0.222183	0.245770
H175	H	0.777214	-0.282558	0.242014
H176	H	0.665677	-0.285171	0.162743
H177	H	0.724372	-0.345543	0.158963
H178	H	0.795307	-0.249172	0.131676
H179	H	0.736600	-0.188799	0.135438
H180	H	0.736471	-0.253536	0.080076
H181	H	0.364744	-0.472639	0.404530
