data_functionalizedCrystal
_audit_creation_method	'MofGen! by Chris Wilmer'
_symmetry_space_group_name_H-M	'P1'
_symmetry_Int_Tables_number	1
_symmetry_cell_setting	triclinic
loop_
_symmetry_equiv_pos_as_xyz
  x,y,z
_cell_length_a	14.908571
_cell_length_b	17.637651
_cell_length_c	14.908308
_cell_angle_alpha	98.643595
_cell_angle_beta	89.824947
_cell_angle_gamma	97.315537
loop_
_atom_site_label
_atom_site_type_symbol
_atom_site_fract_x
_atom_site_fract_y
_atom_site_fract_z
Zn1	Zn	1.257978	-0.403217	0.489413
Zn2	Zn	1.240094	-0.525429	0.309299
Zn3	Zn	1.119507	-0.388376	0.334024
Zn4	Zn	1.081320	-0.524511	0.451174
O5	O	1.174725	-0.460383	0.395977
O6	O	1.380004	-0.426024	0.471176
O7	O	1.232594	-0.501422	0.188173
O8	O	1.161342	-0.282226	0.380987
O9	O	1.366864	-0.515812	0.338847
O10	O	1.263076	-0.293130	0.495151
O11	O	1.144000	-0.400730	0.206338
O12	O	0.990044	-0.399840	0.343908
O13	O	1.096258	-0.514248	0.580653
O14	O	0.961988	-0.499858	0.429978
O15	O	1.226048	-0.425134	0.608746
O16	O	1.195566	-0.633426	0.301768
O17	O	1.078915	-0.632752	0.406003
C18	C	0.943761	-0.448139	0.385477
C19	C	0.844948	-0.442921	0.381002
C20	C	0.630079	-0.537409	0.462026
C21	C	0.537235	-0.532508	0.457824
C22	C	0.566414	-0.428216	0.368400
C23	C	0.659258	-0.433116	0.372603
C24	C	0.691087	-0.487716	0.419416
C25	C	0.783932	-0.492620	0.423613
C26	C	0.813110	-0.388324	0.334195
C27	C	0.720266	-0.383423	0.329992
C28	C	1.131179	-0.661125	0.347074
C29	C	1.112629	-0.747009	0.326186
C30	C	1.316205	-1.057562	0.554965
C31	C	1.298747	-1.138260	0.535321
C32	C	1.192895	-1.127013	0.416336
C33	C	1.210347	-1.046312	0.435967
C34	C	1.272002	-1.011592	0.505283
C35	C	1.166144	-1.000342	0.386285
C36	C	1.183592	-0.919648	0.405918
C37	C	1.245242	-0.884923	0.475233
C38	C	1.289450	-0.930898	0.524916
C39	C	1.104485	-1.035063	0.316974
C40	C	1.060282	-0.989094	0.267292
C41	C	1.077734	-0.908398	0.286920
C42	C	1.139384	-0.873673	0.356235
C43	C	1.033526	-0.862423	0.237237
C44	C	1.050974	-0.781728	0.256870
C45	C	1.156832	-0.792978	0.375868
C46	C	1.406591	-0.472676	0.406519
C47	C	1.505398	-0.477914	0.411011
C48	C	1.158888	-0.471244	0.627859
C49	C	1.152139	-0.475872	0.726672
C50	C	1.218464	-0.258860	0.445092
C51	C	1.237103	-0.172983	0.466022
C52	C	1.190563	-0.449512	0.165014
C53	C	1.197532	-0.444676	0.066262
C54	C	1.274609	-0.391756	0.941615
C55	C	1.268271	-0.396102	1.034460
C56	C	1.133123	-0.488905	1.005211
C57	C	1.139461	-0.484559	0.912366
C58	C	1.210207	-0.435984	0.880571
C59	C	1.216548	-0.431642	0.787723
C60	C	1.081396	-0.524441	0.758477
C61	C	1.075059	-0.528787	0.851322
H62	H	0.487564	-0.572973	0.492523
H63	H	0.983320	-0.890703	0.180806
H64	H	1.274154	-0.392091	0.761838
H65	H	0.862793	-0.347861	0.299496
C66	C	0.997249	-0.582221	0.886308
C67	C	1.018266	-0.647901	0.937109
C68	C	0.940459	-0.701339	0.972095
C69	C	0.841635	-0.689096	0.956281
C70	C	0.820612	-0.623412	0.905478
C71	C	0.898419	-0.569975	0.870491
H72	H	1.091427	-0.656967	0.948818
H73	H	0.956022	-0.749962	1.009703
H74	H	0.784037	-0.728653	0.982180
H75	H	0.747452	-0.614346	0.893769
H76	H	0.882857	-0.521351	0.832884
H77	H	0.809845	-0.537078	0.461729
C78	C	1.224662	-0.754776	0.452108
C79	C	1.323831	-0.770825	0.446838
C80	C	1.391659	-0.732620	0.523071
C81	C	1.360317	-0.678366	0.604576
C82	C	1.261143	-0.662314	0.609850
C83	C	1.193315	-0.700519	0.533616
H84	H	1.347037	-0.810990	0.386500
H85	H	1.465075	-0.744503	0.519167
H86	H	1.410527	-0.650084	0.661009
H87	H	1.237937	-0.622149	0.670187
H88	H	1.119899	-0.688636	0.537520
C89	C	0.665096	-0.597468	0.513515
C90	C	0.731408	-0.570725	0.594396
C91	C	0.766422	-0.630785	0.645886
C92	C	0.735124	-0.717589	0.616494
C93	C	0.668809	-0.744336	0.535609
C94	C	0.633794	-0.684276	0.484119
H95	H	0.754579	-0.506464	0.616157
H96	H	0.815514	-0.610985	0.705763
H97	H	0.761044	-0.762049	0.654610
H98	H	0.645637	-0.808597	0.513847
H99	H	0.584703	-0.704077	0.424242
C100	C	1.055319	-0.542361	1.040170
C101	C	0.956489	-0.530142	1.024340
C102	C	0.878690	-0.583613	1.059287
C103	C	0.899721	-0.649303	1.110064
C104	C	0.998556	-0.661526	1.125897
C105	C	1.076355	-0.608055	1.090950
H106	H	0.940916	-0.481511	0.986749
H107	H	0.805526	-0.574564	1.047566
H108	H	0.842130	-0.688886	1.135934
H109	H	1.014129	-0.710157	1.163488
H110	H	1.149519	-0.617104	1.102671
C111	C	1.010530	-0.573087	0.691338
C112	C	0.952355	-0.532915	0.632509
C113	C	0.881485	-0.581558	0.565376
C114	C	0.868792	-0.670373	0.557072
C115	C	0.926969	-0.710550	0.615902
C116	C	0.997838	-0.661907	0.683036
H117	H	0.961750	-0.467165	0.638655
H118	H	0.838419	-0.551816	0.521826
H119	H	0.816330	-0.706382	0.507376
H120	H	0.917574	-0.776301	0.609757
H121	H	1.040905	-0.691649	0.726586
C122	C	1.125080	-1.165210	0.340089
C123	C	1.156435	-1.219459	0.258587
C124	C	1.088622	-1.257655	0.182336
C125	C	0.989453	-1.241601	0.187587
C126	C	0.958093	-1.187350	0.269093
C127	C	1.025906	-1.149154	0.345344
H128	H	1.229850	-1.231345	0.254697
H129	H	1.111837	-1.297815	0.122000
H130	H	0.939254	-1.269876	0.131142
H131	H	0.884678	-1.175464	0.272983
H132	H	1.002691	-1.108993	0.405679
H133	H	1.339663	-0.902629	0.581354
C134	C	1.352428	-0.338330	0.906631
C135	C	1.363369	-0.250709	0.940465
C136	C	1.441189	-0.197283	0.905482
C137	C	1.508069	-0.231478	0.836665
C138	C	1.497130	-0.319103	0.802827
C139	C	1.419310	-0.372529	0.837810
H140	H	1.313859	-0.225392	0.991411
H141	H	1.449287	-0.132416	0.930531
H142	H	1.565676	-0.191928	0.810769
H143	H	1.546640	-0.344420	0.751881
H144	H	1.411213	-0.437396	0.812761
H145	H	1.334734	-1.175687	0.575795
H146	H	1.014978	-0.744299	0.216415
H147	H	1.366418	-1.029293	0.611403
C148	C	0.992469	-1.027291	0.191043
C149	C	1.009113	-1.011876	0.093013
C150	C	0.941303	-1.050072	0.016759
C151	C	0.856849	-1.103682	0.038535
C152	C	0.840200	-1.119100	0.136570
C153	C	0.908011	-1.080904	0.212823
H154	H	1.071635	-0.972188	0.076889
H155	H	0.953628	-1.038658	-0.055812
H156	H	0.806652	-1.131957	-0.017912
H157	H	0.777679	-1.158788	0.152693
H158	H	0.895686	-1.092317	0.285395
C159	C	0.531380	-0.368158	0.316922
C160	C	0.478060	-0.306000	0.367453
C161	C	0.443021	-0.245941	0.315979
C162	C	0.461303	-0.248039	0.213973
C163	C	0.514626	-0.310199	0.163437
C164	C	0.549665	-0.370259	0.214911
H165	H	0.464524	-0.304444	0.442969
H166	H	0.403547	-0.199925	0.353390
H167	H	0.435365	-0.203580	0.175869
H168	H	0.528162	-0.311755	0.087921
H169	H	0.589139	-0.416274	0.177499
C170	C	0.685245	-0.323368	0.278500
C171	C	0.631925	-0.261200	0.329009
C172	C	0.596905	-0.201145	0.277514
C173	C	0.615204	-0.203260	0.175510
C174	C	0.668527	-0.265430	0.124995
C175	C	0.703547	-0.325485	0.176490
H176	H	0.618376	-0.259632	0.404524
H177	H	0.557432	-0.155122	0.314909
H178	H	0.589280	-0.158804	0.137391
H179	H	0.682076	-0.266998	0.049481
H180	H	0.743020	-0.371508	0.139095
H181	H	1.259447	-0.819216	0.491216
H182	H	1.090272	-1.100770	0.300999
H183	H	1.320713	-0.360085	1.084160
