data_functionalizedCrystal
_audit_creation_method	'MofGen! by Chris Wilmer'
_symmetry_space_group_name_H-M	'P1'
_symmetry_Int_Tables_number	1
_symmetry_cell_setting	triclinic
loop_
_symmetry_equiv_pos_as_xyz
  x,y,z
_cell_length_a	16.625547
_cell_length_b	16.625545
_cell_length_c	16.625539
_cell_angle_alpha	89.973630
_cell_angle_beta	90.021309
_cell_angle_gamma	89.976026
loop_
_atom_site_label
_atom_site_type_symbol
_atom_site_fract_x
_atom_site_fract_y
_atom_site_fract_z
Zn1	Zn	1.232644	0.321016	0.456001
Zn2	Zn	1.482644	0.571016	0.706001
Zn3	Zn	1.732644	0.821016	0.956001
Zn4	Zn	1.982644	1.071016	1.206001
Zn5	Zn	1.232552	0.455855	0.321169
Zn6	Zn	1.482552	0.705855	0.571169
Zn7	Zn	1.732552	0.955855	0.821169
Zn8	Zn	1.982552	1.205855	1.071169
Zn9	Zn	1.097814	0.321040	0.321172
Zn10	Zn	1.347814	0.571040	0.571172
Zn11	Zn	1.597814	0.821040	0.821172
Zn12	Zn	1.847814	1.071040	1.071172
Zn13	Zn	1.097772	0.455811	0.455948
Zn14	Zn	1.347772	0.705811	0.705948
Zn15	Zn	1.597772	0.955811	0.955948
Zn16	Zn	1.847772	1.205811	1.205948
O17	O	1.165195	0.388430	0.388573
O18	O	1.415195	0.638430	0.638573
O19	O	1.665195	0.888430	0.888573
O20	O	1.915195	1.138430	1.138573
O21	O	1.345464	0.338912	0.438136
O22	O	1.595464	0.588912	0.688136
O23	O	1.845464	0.838912	0.938136
O24	O	2.095464	1.088912	1.188136
O25	O	1.214657	0.438000	0.208337
O26	O	1.464657	0.688000	0.458337
O27	O	1.714657	0.938000	0.708337
O28	O	1.964657	1.188000	0.958337
O29	O	1.115755	0.208204	0.339081
O30	O	1.365755	0.458204	0.589081
O31	O	1.615755	0.708204	0.839081
O32	O	1.865755	0.958204	1.089081
O33	O	1.345396	0.437977	0.339075
O34	O	1.595396	0.687977	0.589075
O35	O	1.845396	0.937977	0.839075
O36	O	2.095396	1.187977	1.089075
O37	O	1.214814	0.208187	0.438139
O38	O	1.464814	0.458187	0.688139
O39	O	1.714814	0.708187	0.938139
O40	O	1.964814	0.958187	1.188139
O41	O	1.115666	0.338952	0.208339
O42	O	1.365666	0.588952	0.458339
O43	O	1.615666	0.838952	0.708339
O44	O	1.865666	1.088952	0.958339
O45	O	0.984976	0.338909	0.339029
O46	O	1.234976	0.588909	0.589029
O47	O	1.484976	0.838909	0.839029
O48	O	1.734976	1.088909	1.089029
O49	O	1.115684	0.437901	0.568788
O50	O	1.365684	0.687901	0.818788
O51	O	1.615684	0.937901	1.068788
O52	O	1.865684	1.187901	1.318788
O53	O	0.984945	0.437924	0.438049
O54	O	1.234945	0.687924	0.688049
O55	O	1.484945	0.937924	0.938049
O56	O	1.734945	1.187924	1.188049
O57	O	1.214774	0.338869	0.568827
O58	O	1.464774	0.588869	0.818827
O59	O	1.714774	0.838869	1.068827
O60	O	1.964774	1.088869	1.318827
O61	O	1.214617	0.568682	0.339024
O62	O	1.464617	0.818682	0.589024
O63	O	1.714617	1.068682	0.839024
O64	O	1.964617	1.318682	1.089024
O65	O	1.115595	0.568649	0.438046
O66	O	1.365595	0.818649	0.688046
O67	O	1.615595	1.068649	0.938046
O68	O	1.865595	1.318649	1.188046
C69	C	0.955705	0.388415	0.388534
C70	C	1.205705	0.638415	0.638534
C71	C	1.455705	0.888415	0.888534
C72	C	1.705705	1.138415	1.138534
C73	C	0.866083	0.388428	0.388537
C74	C	1.116083	0.638428	0.638537
C75	C	1.366083	0.888428	0.888537
C76	C	1.616083	1.138428	1.138537
C77	C	0.793301	0.388429	0.388547
C78	C	1.043301	0.638429	0.638547
C79	C	1.293301	0.888429	0.888547
C80	C	1.543301	1.138429	1.138547
C81	C	0.701993	0.388433	0.388567
C82	C	0.951993	0.638433	0.638567
C83	C	1.201993	0.888433	0.888567
C84	C	1.451993	1.138433	1.138567
C85	C	0.629216	0.388441	0.388588
C86	C	0.879216	0.638441	0.638588
C87	C	1.129216	0.888441	0.888588
C88	C	1.379216	1.138441	1.138588
C89	C	0.537902	0.388446	0.388607
C90	C	0.787902	0.638446	0.638607
C91	C	1.037902	0.888446	0.888607
C92	C	1.287902	1.138446	1.138607
C93	C	1.165113	0.597921	0.388547
C94	C	1.415113	0.847921	0.638547
C95	C	1.665113	1.097921	0.888547
C96	C	1.915113	1.347921	1.138547
C97	C	1.165152	0.687542	0.388563
C98	C	1.415152	0.937542	0.638563
C99	C	1.665152	1.187542	0.888563
C100	C	1.915152	1.437542	1.138563
C101	C	1.165284	1.015718	0.388659
C102	C	1.415284	1.265718	0.638659
C103	C	1.665284	1.515718	0.888659
C104	C	1.915284	1.765718	1.138659
C105	C	1.165244	0.924410	0.388634
C106	C	1.415244	1.174410	0.638634
C107	C	1.665244	1.424410	0.888634
C108	C	1.915244	1.674410	1.138634
C109	C	1.165217	0.851633	0.388610
C110	C	1.415217	1.101633	0.638610
C111	C	1.665217	1.351633	0.888610
C112	C	1.915217	1.601633	1.138610
C113	C	1.165179	0.760319	0.388587
C114	C	1.415179	1.010319	0.638587
C115	C	1.665179	1.260319	0.888587
C116	C	1.915179	1.510319	1.138587
C117	C	1.375504	0.388447	0.388611
C118	C	1.625504	0.638447	0.638611
C119	C	1.875504	0.888447	0.888611
C120	C	2.125504	1.138447	1.138611
C121	C	1.465125	0.388454	0.388628
C122	C	1.715125	0.638454	0.638628
C123	C	1.965125	0.888454	0.888628
C124	C	2.215125	1.138454	1.138628
C125	C	1.165235	0.388377	0.598882
C126	C	1.415235	0.638377	0.848882
C127	C	1.665235	0.888377	1.098882
C128	C	1.915235	1.138377	1.348882
C129	C	1.165252	0.388355	0.688503
C130	C	1.415252	0.638355	0.938503
C131	C	1.665252	0.888355	1.188503
C132	C	1.915252	1.138355	1.438503
C133	C	1.165293	1.178122	0.388626
C134	C	1.415293	1.428122	0.638626
C135	C	1.665293	1.678122	0.888626
C136	C	1.915293	1.928122	1.138626
C137	C	1.165317	1.088500	0.388672
C138	C	1.415317	1.338500	0.638672
C139	C	1.665317	1.588500	0.888672
C140	C	1.915317	1.838500	1.138672
C141	C	1.165202	0.388425	0.179082
C142	C	1.415202	0.638425	0.429082
C143	C	1.665202	0.888425	0.679082
C144	C	1.915202	1.138425	0.929082
C145	C	1.165342	0.388221	0.089461
C146	C	1.415342	0.638221	0.339461
C147	C	1.665342	0.888221	0.589461
C148	C	1.915342	1.138221	0.839461
C149	C	1.165265	0.388337	0.761285
C150	C	1.415265	0.638337	1.011285
C151	C	1.665265	0.888337	1.261285
C152	C	1.915265	1.138337	1.511285
C153	C	1.165284	0.388307	0.852594
C154	C	1.415284	0.638307	1.102594
C155	C	1.665284	0.888307	1.352594
C156	C	1.915284	1.138307	1.602594
C157	C	1.165303	0.388278	0.925370
C158	C	1.415303	0.638278	1.175370
C159	C	1.665303	0.888278	1.425370
C160	C	1.915303	1.138278	1.675370
C161	C	1.165323	0.388249	1.016685
C162	C	1.415323	0.638249	1.266685
C163	C	1.665323	0.888249	1.516685
C164	C	1.915323	1.138249	1.766685
