data_functionalizedCrystal
_audit_creation_method	'MofGen! by Chris Wilmer'
_symmetry_space_group_name_H-M	'P1'
_symmetry_Int_Tables_number	1
_symmetry_cell_setting	triclinic
loop_
_symmetry_equiv_pos_as_xyz
  x,y,z
_cell_length_a	17.640112
_cell_length_b	29.839131
_cell_length_c	17.639309
_cell_angle_alpha	101.252120
_cell_angle_beta	65.723456
_cell_angle_gamma	101.266684
loop_
_atom_site_label
_atom_site_type_symbol
_atom_site_fract_x
_atom_site_fract_y
_atom_site_fract_z
Zn1	Zn	1.165534	-0.020454	0.211678
Zn2	Zn	1.193241	-0.108236	0.073891
Zn3	Zn	1.055575	-0.045759	0.101700
Zn4	Zn	1.027663	-0.108224	0.239455
O5	O	1.110503	-0.070668	0.156681
O6	O	1.284522	-0.021514	0.170137
O7	O	1.198256	-0.110544	-0.037735
O8	O	1.070247	0.020476	0.116302
O9	O	1.304878	-0.086007	0.068906
O10	O	1.151033	0.039068	0.197102
O11	O	1.097114	-0.064643	-0.017303
O12	O	0.936560	-0.064631	0.143237
O13	O	1.022675	-0.085985	0.351085
O14	O	0.916053	-0.110523	0.244445
O15	O	1.123968	-0.021501	0.330677
O16	O	1.171191	-0.171113	0.095841
O17	O	1.049542	-0.171104	0.217480
C18	C	0.896407	-0.090322	0.199873
C19	C	0.804812	-0.098738	0.218371
C20	C	0.556755	-0.006719	0.016166
C21	C	0.470685	-0.014636	0.033558
C22	C	0.449422	-0.062519	0.138764
C23	C	0.535492	-0.054604	0.121383
C24	C	0.589152	-0.026704	0.060083
C25	C	0.567888	-0.074590	0.165300
C26	C	0.653951	-0.066677	0.147918
C27	C	0.707616	-0.038780	0.086618
C28	C	0.675214	-0.018792	0.042700
C29	C	0.514227	-0.102492	0.226597
C30	C	0.546624	-0.122477	0.270514
C31	C	0.632687	-0.114563	0.253136
C32	C	0.686353	-0.086665	0.191836
C33	C	0.665089	-0.134551	0.297054
C34	C	0.751152	-0.126638	0.279671
C35	C	0.772415	-0.078753	0.174454
C36	C	1.110363	-0.187408	0.156670
C37	C	1.110372	-0.237341	0.156678
C38	C	1.173926	-0.546945	0.093401
C39	C	1.174021	-0.734606	0.093413
O40	O	1.227945	-0.758851	0.039605
N41	N	1.110661	-0.758089	0.156709
C42	C	1.047276	-0.734653	0.220010
O43	O	0.993392	-0.758932	0.273852
C44	C	1.047185	-0.546993	0.220001
C45	C	1.110544	-0.523513	0.156696
C46	C	1.237281	-0.523465	0.030102
C47	C	1.237254	-0.476553	0.030098
C48	C	1.173872	-0.453121	0.093392
C49	C	1.110517	-0.476601	0.156691
C50	C	0.983804	-0.523557	0.283304
C51	C	0.983788	-0.476639	0.283297
C52	C	1.047147	-0.453159	0.219992
C53	C	1.047109	-0.406258	0.219981
N54	N	1.110469	-0.382774	0.156685
C55	C	1.173850	-0.406206	0.093390
C56	C	1.047328	-0.833178	0.220009
C57	C	1.047350	-0.880093	0.220010
C58	C	1.174096	-0.880042	0.093414
C59	C	1.174070	-0.833127	0.093410
C60	C	1.110688	-0.809695	0.156713
C61	C	1.173789	-0.307688	0.093385
C62	C	1.173754	-0.260773	0.093384
C63	C	1.047011	-0.260827	0.219982
C64	C	1.047042	-0.307739	0.219981
C65	C	1.110438	-0.331168	0.156678
O66	O	0.993218	-0.381982	0.273765
O67	O	1.227737	-0.381917	0.039567
C68	C	1.173953	-0.593857	0.093406
C69	C	1.110598	-0.617337	0.156705
C70	C	1.047217	-0.593905	0.220000
C71	C	1.110620	-0.664252	0.156707
C72	C	1.174002	-0.687684	0.093413
C73	C	1.237362	-0.664201	0.030117
C74	C	1.237335	-0.617289	0.030112
C75	C	0.983857	-0.617388	0.283296
C76	C	0.983888	-0.664300	0.283295
C77	C	1.047270	-0.687732	0.220000
C78	C	1.325435	-0.050939	0.113321
C79	C	1.417026	-0.042531	0.094843
C80	C	1.067117	-0.050919	0.371617
C81	C	1.048629	-0.042503	0.463210
C82	C	1.110663	0.046531	0.156706
C83	C	1.110731	0.096475	0.156716
C84	C	1.153768	-0.090304	-0.057428
C85	C	1.172416	-0.098579	-0.149053
C86	C	0.969915	-0.006745	0.602944
C87	C	0.987294	-0.014656	0.516877
C88	C	1.092606	-0.062452	0.495596
C89	C	1.075233	-0.054548	0.581663
C90	C	1.013887	-0.026693	0.635331
C91	C	1.119205	-0.074495	0.614050
C92	C	1.101836	-0.066589	0.700109
C93	C	1.040495	-0.038735	0.753782
C94	C	0.996518	-0.018787	0.721390
C95	C	1.180554	-0.102347	0.560380
C96	C	1.224526	-0.122295	0.592767
C97	C	1.207154	-0.114391	0.678829
C98	C	1.145813	-0.086537	0.732501
C99	C	1.251130	-0.134339	0.711220
C100	C	1.233761	-0.126433	0.797279
C101	C	1.128444	-0.078631	0.818560
H102	H	0.777694	-0.032339	0.072465
H103	H	0.995750	-0.899208	0.271553
Br104	Br	1.175865	-0.100249	0.422754
H105	H	0.932175	-0.457562	0.334848
H106	H	1.225349	-0.241657	0.041830
H107	H	1.026357	-0.032296	0.823856
Br108	Br	0.961300	-0.801384	0.305928
Br109	Br	0.376594	-0.100390	0.221942
H110	H	0.718905	0.003935	-0.007205
H111	H	1.225663	-0.814012	0.041862
Br112	Br	0.960999	-0.229017	0.305880
Br113	Br	0.629586	0.031151	-0.067021
H114	H	1.288928	-0.598175	-0.021437
Br115	Br	1.293447	-0.153499	0.841237
H116	H	0.444312	0.001645	-0.002204
Br117	Br	0.473796	-0.160348	0.353692
H118	H	0.946562	0.003893	0.765090
Br119	Br	0.592260	-0.172426	0.380225
Br120	Br	0.795125	-0.153764	0.339269
H121	H	0.816107	-0.056026	0.124549
Br122	Br	1.259827	-0.339477	0.007474
Br123	Br	1.323256	-0.444693	-0.055811
Br124	Br	0.897817	-0.555409	0.369230
Br125	Br	1.323312	-0.555256	-0.055808
Br126	Br	1.323376	-0.696011	-0.055785
H127	H	0.932287	-0.683414	0.334846
H128	H	1.225704	-0.899128	0.041878
Br129	Br	0.961038	-0.339609	0.305879
Br130	Br	1.045203	-0.040818	0.891400
Br131	Br	0.886675	0.031067	0.675784
H132	H	0.444151	-0.108933	0.240747
H133	H	0.932244	-0.598313	0.334839
H134	H	0.951485	0.001592	0.490512
Br135	Br	1.307785	-0.160091	0.519925
Br136	Br	1.334396	-0.172131	0.638374
H137	H	1.194696	-0.108782	0.490306
