data_functionalizedCrystal
_audit_creation_method	'MofGen! by Chris Wilmer'
_symmetry_space_group_name_H-M	'P1'
_symmetry_Int_Tables_number	1
_symmetry_cell_setting	triclinic
loop_
_symmetry_equiv_pos_as_xyz
  x,y,z
_cell_length_a	12.759401
_cell_length_b	15.297327
_cell_length_c	15.297908
_cell_angle_alpha	69.244266
_cell_angle_beta	99.693292
_cell_angle_gamma	99.706546
loop_
_atom_site_label
_atom_site_type_symbol
_atom_site_fract_x
_atom_site_fract_y
_atom_site_fract_z
Zn1	Zn	1.632000	-0.461226	0.589776
Zn2	Zn	1.580036	-0.589844	0.461168
Zn3	Zn	1.430404	-0.434351	0.434297
Zn4	Zn	1.430331	-0.616693	0.616625
O5	O	1.518193	-0.525529	0.525466
O6	O	1.772127	-0.478299	0.572724
O7	O	1.538470	-0.546734	0.327475
O8	O	1.478925	-0.307779	0.432440
O9	O	1.733949	-0.572794	0.478236
O10	O	1.627036	-0.327524	0.546669
O11	O	1.428537	-0.432494	0.307734
O12	O	1.283374	-0.458529	0.458475
O13	O	1.478799	-0.618554	0.743191
O14	O	1.283320	-0.592495	0.592430
O15	O	1.626965	-0.504333	0.723465
O16	O	1.538399	-0.723544	0.504271
O17	O	1.428411	-0.743270	0.618485
C18	C	1.245226	-0.525510	0.525451
C19	C	1.128450	-0.525528	0.525470
C20	C	1.073555	-0.595362	0.595139
C21	C	0.963830	-0.595375	0.595151
C22	C	0.963905	-0.455716	0.455817
C23	C	1.073629	-0.455700	0.455810
C24	C	1.073510	-0.675995	0.675580
C25	C	0.963785	-0.676009	0.675592
C26	C	1.477790	-0.767154	0.567228
C27	C	1.460607	-0.870527	0.585125
C28	C	1.641489	-1.120741	0.397873
C29	C	1.657632	-1.023616	0.381053
C30	C	1.608378	-0.985339	0.432070
C31	C	1.542977	-1.044197	0.499908
C32	C	1.526825	-1.141330	0.516725
C33	C	1.493714	-1.005928	0.550921
C34	C	1.428312	-1.064786	0.618760
C35	C	1.412165	-1.161910	0.635574
C36	C	1.461419	-1.200187	0.584557
C37	C	1.509865	-0.908794	0.534105
C38	C	1.395201	-0.929384	0.652957
C39	C	1.379058	-1.026509	0.669777
C40	C	1.792225	-0.525549	0.525483
C41	C	1.909001	-0.525558	0.525490
C42	C	1.558670	-0.567436	0.768012
C43	C	1.575919	-0.585295	0.871371
C44	C	1.558785	-0.282964	0.483562
C45	C	1.576083	-0.179598	0.465705
C46	C	1.477945	-0.483717	0.283853
C47	C	1.460943	-0.465597	0.180449
C48	C	1.395604	-0.397724	1.121617
C49	C	1.379401	-0.380936	1.024505
C50	C	1.428529	-0.432024	0.986216
C51	C	1.493863	-0.499903	1.045050
C52	C	1.510074	-0.516688	1.142171
C53	C	1.542999	-0.550988	1.006770
C54	C	1.608333	-0.618868	1.065604
C55	C	1.624541	-0.635649	1.162715
C56	C	1.575413	-0.584561	1.201003
C57	C	1.526788	-0.534204	0.909649
C58	C	1.641258	-0.653168	0.930203
C59	C	1.657461	-0.669956	1.027315
H60	H	0.918736	-0.744657	0.668630
H61	H	1.091792	-0.739889	0.661483
H62	H	1.710658	-0.725223	1.075231
H63	H	1.563115	-0.860880	0.478870
H64	H	1.326205	-0.325669	0.976609
Br65	Br	0.889500	-0.360952	0.361285
H66	H	0.945480	-0.662155	0.739615
Br67	Br	1.148543	-0.664781	0.790142
H68	H	1.621524	-0.906254	0.418370
Br69	Br	1.707942	-0.722502	0.878249
H70	H	1.710880	-0.975697	0.325819
H71	H	1.118322	-0.398829	0.399084
H72	H	1.681578	-1.151915	0.356337
Br73	Br	1.597379	-0.607360	1.332806
Br74	Br	1.438973	-1.331932	0.606964
H75	H	1.355617	-0.356130	1.152800
Br76	Br	1.323398	-1.241787	0.727634
Br77	Br	1.290305	-1.106398	0.761843
H78	H	1.415332	-0.418352	0.907143
Br79	Br	1.328339	-0.877444	0.722189
Br80	Br	1.438124	-0.442084	0.829816
H81	H	1.677750	-0.690914	1.210614
