data_functionalizedCrystal
_audit_creation_method	'MofGen! by Chris Wilmer'
_symmetry_space_group_name_H-M	'P1'
_symmetry_Int_Tables_number	1
_symmetry_cell_setting	triclinic
loop_
_symmetry_equiv_pos_as_xyz
  x,y,z
_cell_length_a	23.532407
_cell_length_b	23.532407
_cell_length_c	9.130307
_cell_angle_alpha	90.000472
_cell_angle_beta	90.010050
_cell_angle_gamma	82.848751
loop_
_atom_site_label
_atom_site_type_symbol
_atom_site_fract_x
_atom_site_fract_y
_atom_site_fract_z
O1	O	-0.069131	-0.755259	-0.121740
O2	O	0.430869	-0.255259	0.378260
O3	O	-0.079134	-0.589396	-0.121768
O4	O	0.420866	-0.089396	0.378232
O5	O	0.008799	-0.677329	-0.121704
O6	O	0.508799	-0.177329	0.378296
O7	O	-0.157064	-0.667326	-0.121803
O8	O	0.342936	-0.167326	0.378197
O9	O	0.008793	-0.677322	0.121895
O10	O	0.508793	-0.177322	0.621895
O11	O	-0.079140	-0.589389	0.121831
O12	O	0.420860	-0.089389	0.621831
O13	O	-0.069137	-0.755253	0.121859
O14	O	0.430863	-0.255253	0.621859
Cu15	Cu	-0.074139	-0.672320	0.144088
Cu16	Cu	0.425861	-0.172320	0.644088
Cu17	Cu	-0.074132	-0.672328	-0.143996
Cu18	Cu	0.425868	-0.172328	0.356004
O19	O	-0.157070	-0.667319	0.121796
O20	O	0.342930	-0.167319	0.621796
C21	C	0.030012	-0.677071	0.000104
C22	C	0.530012	-0.177071	0.500104
C23	C	0.093229	-0.676305	0.000132
C24	C	0.593229	-0.176305	0.500132
C25	C	-0.078882	-0.568176	0.000029
C26	C	0.421118	-0.068176	0.500029
C27	C	-0.078116	-0.504959	0.000021
C28	C	0.421884	-0.004959	0.500021
C29	C	-0.069389	-0.776472	0.000059
C30	C	0.430611	-0.276472	0.500059
C31	C	-0.070155	-0.839689	0.000058
C32	C	0.429845	-0.339689	0.500058
C33	C	0.359397	-0.621110	0.000055
C34	C	0.859397	-0.121110	0.500055
C35	C	0.299997	-0.621821	0.000061
C36	C	0.799997	-0.121821	0.500061
O37	O	0.263252	-0.578035	0.000005
O38	O	0.763252	-0.078035	0.500005
N39	N	0.277370	-0.674097	0.000085
N40	N	0.777370	-0.174097	0.500085
C41	C	0.314148	-0.725666	0.000087
C42	C	0.814148	-0.225666	0.500087
O43	O	0.289448	-0.770196	0.000106
O44	O	0.789448	-0.270196	0.500106
C45	C	0.373547	-0.724953	0.000070
C46	C	0.873547	-0.224953	0.500070
C47	C	0.396170	-0.672674	0.000062
C48	C	0.896170	-0.172674	0.500062
C49	C	0.382020	-0.568834	0.000045
C50	C	0.882020	-0.068834	0.500045
C51	C	0.441416	-0.568123	0.000042
C52	C	0.941416	-0.068123	0.500042
C53	C	0.478189	-0.619687	0.000049
C54	C	0.978189	-0.119687	0.500049
C55	C	0.455566	-0.671963	0.000059
C56	C	0.955566	-0.171963	0.500059
C57	C	0.410323	-0.776521	0.000062
C58	C	0.910323	-0.276521	0.500062
C59	C	0.469726	-0.775804	0.000045
C60	C	0.969726	-0.275804	0.500045
C61	C	0.492348	-0.723525	0.000036
C62	C	0.992348	-0.223525	0.500036
C63	C	0.551735	-0.722816	0.000062
C64	C	1.051735	-0.222816	0.500062
N65	N	0.574361	-0.670539	0.000039
N66	N	1.074361	-0.170539	0.500039
C67	C	0.537588	-0.618975	0.000032
C68	C	1.037588	-0.118975	0.500032
C69	C	0.189405	-0.727157	0.000119
C70	C	0.689405	-0.227157	0.500119
C71	C	0.130007	-0.727870	0.000146
C72	C	0.630007	-0.227870	0.500146
C73	C	0.115860	-0.624025	0.000118
C74	C	0.615860	-0.124025	0.500118
C75	C	0.175259	-0.623313	0.000101
C76	C	0.675259	-0.123313	0.500101
C77	C	0.212031	-0.674881	0.000096
C78	C	0.712031	-0.174881	0.500096
C79	C	0.662325	-0.617485	0.000026
C80	C	1.162325	-0.117485	0.500026
C81	C	0.721727	-0.616779	0.000029
C82	C	1.221727	-0.116779	0.500029
C83	C	0.735869	-0.720623	0.000050
C84	C	1.235869	-0.220623	0.500050
C85	C	0.676472	-0.721330	0.000055
C86	C	1.176472	-0.221330	0.500055
C87	C	0.639701	-0.669757	0.000038
C88	C	1.139701	-0.169757	0.500038
O89	O	0.588514	-0.766579	0.000113
O90	O	1.088514	-0.266579	0.500113
O91	O	0.562296	-0.574452	-0.000006
O92	O	1.062296	-0.074452	0.499994
C93	C	0.821717	-0.667577	0.000006
C94	C	1.321717	-0.167577	0.500006
C95	C	0.758500	-0.668343	0.000036
C96	C	1.258500	-0.168343	0.500036
C97	C	-0.022921	-0.238792	0.000093
C98	C	0.477079	0.261208	0.500093
C99	C	-0.023632	-0.298192	0.000093
C100	C	0.476368	0.201808	0.500093
O101	O	0.020153	-0.334937	0.000169
O102	O	0.520153	0.165063	0.500169
N103	N	-0.075909	-0.320818	0.000052
N104	N	0.424091	0.179182	0.500052
C105	C	-0.127477	-0.284041	0.000026
C106	C	0.372523	0.215959	0.500026
O107	O	-0.172007	-0.308740	-0.000007
O108	O	0.327993	0.191260	0.499993
C109	C	-0.126765	-0.224642	0.000038
C110	C	0.373235	0.275358	0.500038
C111	C	-0.074485	-0.202019	0.000064
C112	C	0.425515	0.297981	0.500064
C113	C	0.029354	-0.216168	0.000121
C114	C	0.529354	0.283832	0.500121
C115	C	0.030066	-0.156772	0.000119
C116	C	0.530066	0.343228	0.500119
C117	C	-0.021499	-0.119999	0.000090
C118	C	0.478501	0.380001	0.500090
C119	C	-0.073774	-0.142623	0.000062
C120	C	0.426226	0.357377	0.500062
C121	C	-0.178333	-0.187865	0.000023
C122	C	0.321667	0.312135	0.500023
C123	C	-0.177616	-0.128463	0.000035
C124	C	0.322384	0.371537	0.500035
C125	C	-0.125336	-0.105840	0.000061
C126	C	0.374664	0.394160	0.500061
C127	C	-0.124627	-0.046454	0.000030
C128	C	0.375373	0.453546	0.500030
N129	N	-0.072351	-0.023828	0.000071
N130	N	0.427649	0.476172	0.500071
C131	C	-0.020787	-0.060600	0.000101
C132	C	0.479213	0.439400	0.500101
C133	C	-0.128968	-0.408783	0.000005
C134	C	0.371032	0.091217	0.500005
C135	C	-0.129681	-0.468181	-0.000017
C136	C	0.370319	0.031819	0.499983
C137	C	-0.025836	-0.482328	0.000052
C138	C	0.474164	0.017672	0.500052
C139	C	-0.025124	-0.422929	0.000064
C140	C	0.474876	0.077071	0.500064
C141	C	-0.076692	-0.386157	0.000046
C142	C	0.423308	0.113843	0.500046
C143	C	-0.019297	0.064136	0.000096
C144	C	0.480703	0.564136	0.500096
C145	C	-0.018590	0.123538	0.000088
C146	C	0.481410	0.623538	0.500088
C147	C	-0.122435	0.137680	0.000026
C148	C	0.377565	0.637680	0.500026
C149	C	-0.123142	0.078284	0.000027
C150	C	0.376858	0.578284	0.500027
C151	C	-0.071568	0.041512	0.000066
C152	C	0.428432	0.541512	0.500066
O153	O	-0.168390	-0.009675	-0.000041
O154	O	0.331610	0.490325	0.499959
O155	O	0.023737	-0.035892	0.000154
O156	O	0.523737	0.464108	0.500154
N157	N	-0.074143	-0.672319	0.346711
N158	N	0.425857	-0.172319	0.846711
N159	N	-0.074123	-0.672333	-0.346619
N160	N	0.425877	-0.172333	0.153381
C161	C	-0.005383	-0.603654	0.653402
C162	C	0.494617	-0.103654	1.153402
C163	C	0.028980	-0.569307	0.576745
C164	C	0.528980	-0.069307	1.076745
C165	C	0.028969	-0.569297	0.423412
C166	C	0.528969	-0.069297	0.923412
C167	C	-0.005407	-0.603637	0.346731
C168	C	0.494593	-0.103637	0.846731
C169	C	-0.039770	-0.637984	0.423388
C170	C	0.460230	-0.137984	0.923388
C171	C	-0.039756	-0.637989	0.576725
C172	C	0.460244	-0.137989	1.076725
C173	C	-0.108506	-0.706666	0.423367
C174	C	0.391494	-0.206666	0.923367
C175	C	-0.108499	-0.706674	0.576700
C176	C	0.391501	-0.206674	1.076700
C177	C	-0.142882	-0.741006	0.346686
C178	C	0.357118	-0.241006	0.846686
C179	C	-0.177249	-0.775350	0.423343
C180	C	0.322751	-0.275350	0.923343
C181	C	-0.177237	-0.775359	0.576685
C182	C	0.322763	-0.275359	1.076685
C183	C	-0.142862	-0.741020	0.653357
C184	C	0.357138	-0.241020	1.153357
H185	H	0.740143	-0.574205	0.000029
H186	H	1.240143	-0.074205	0.500029
Cl187	Cl	0.047138	0.151974	0.000111
Cl188	Cl	0.547138	0.651974	0.500111
Cl189	Cl	0.045539	0.017919	0.000141
Cl190	Cl	0.545539	0.517919	0.500141
H191	H	0.632392	-0.575489	0.000012
H192	H	1.132392	-0.075489	0.500012
H193	H	0.352085	-0.526842	0.000035
H194	H	0.852085	-0.026842	0.500035
Cl195	Cl	0.095792	-0.128342	0.000139
Cl196	Cl	0.595792	0.371658	0.500139
H197	H	-0.142886	-0.740998	0.221834
H198	H	0.357114	-0.240998	0.721834
H199	H	-0.005407	-0.603631	0.221879
H200	H	0.494593	-0.103631	0.721879
Cl201	Cl	-0.195407	-0.496613	-0.000080
Cl202	Cl	0.304593	0.003387	0.499920
H203	H	0.056970	-0.541349	0.639195
H204	H	0.556970	-0.041349	1.139195
Cl205	Cl	-0.193803	-0.362560	-0.000036
Cl206	Cl	0.306197	0.137440	0.499964
Cl207	Cl	0.648031	-0.787054	0.000119
Cl208	Cl	1.148031	-0.287054	0.500119
H209	H	-0.220904	-0.206274	-0.000005
H210	H	0.279096	0.293726	0.499995
H211	H	0.499664	-0.817798	0.000032
H212	H	0.999664	-0.317798	0.500032
Cl213	Cl	-0.142847	-0.741027	0.846120
Cl214	Cl	0.357153	-0.241027	1.346120
Cl215	Cl	0.469847	-0.502396	0.000013
Cl216	Cl	0.969847	-0.002396	0.500013
Cl217	Cl	-0.188865	0.049843	-0.000025
Cl218	Cl	0.311135	0.549843	0.499975
H219	H	0.219343	-0.769152	0.000125
H220	H	0.719343	-0.269152	0.500125
Cl221	Cl	0.203693	-0.557588	0.000086
Cl222	Cl	0.703693	-0.057588	0.500086
H223	H	-0.205232	-0.803310	0.360897
H224	H	0.294768	-0.303310	0.860897
H225	H	0.391915	-0.819093	0.000068
H226	H	0.891915	-0.319093	0.500068
H227	H	-0.219610	-0.098525	0.000028
H228	H	0.280390	0.401475	0.500028
H229	H	-0.205218	-0.803330	0.639090
H230	H	0.294782	-0.303330	1.139090
H231	H	0.017447	-0.404515	0.000086
H232	H	0.517447	0.095485	0.500086
Cl233	Cl	-0.005374	-0.603658	0.846165
Cl234	Cl	0.494626	-0.103658	1.346165
H235	H	0.071347	-0.246104	0.000150
H236	H	0.571347	0.253896	0.500150
Cl237	Cl	0.069620	-0.559201	0.000108
Cl238	Cl	0.569620	-0.059201	0.500108
H239	H	0.111594	-0.770441	0.000176
H240	H	0.611594	-0.270441	0.500176
Cl241	Cl	0.072176	-0.526126	0.327040
Cl242	Cl	0.572176	-0.026126	0.827040
H243	H	0.765820	-0.762605	0.000062
H244	H	1.265820	-0.262605	0.500062
H245	H	0.016150	-0.512280	0.000077
H246	H	0.516150	-0.012280	0.500077
H247	H	-0.164417	0.167631	-0.000005
H248	H	0.335583	0.667631	0.499995
