data_functionalizedCrystal
_audit_creation_method	'MofGen! by Chris Wilmer'
_symmetry_space_group_name_H-M	'P1'
_symmetry_Int_Tables_number	1
_symmetry_cell_setting	triclinic
loop_
_symmetry_equiv_pos_as_xyz
  x,y,z
_cell_length_a	23.204203
_cell_length_b	23.204116
_cell_length_c	23.204045
_cell_angle_alpha	90.001464
_cell_angle_beta	59.998054
_cell_angle_gamma	120.000226
loop_
_atom_site_label
_atom_site_type_symbol
_atom_site_fract_x
_atom_site_fract_y
_atom_site_fract_z
O1	O	0.412486	0.395350	-0.903684
O2	O	0.294475	0.311544	-0.701867
O3	O	0.412485	0.311544	-0.819875
O4	O	0.294476	0.395349	-0.785677
O5	O	0.508334	0.407396	-0.819875
O6	O	0.390324	0.407396	-0.701867
O7	O	0.508336	0.491202	-0.903684
Zn8	Zn	0.464548	0.464517	-0.802776
Zn9	Zn	0.338262	0.338228	-0.802776
O10	O	0.390326	0.491201	-0.785677
C11	C	0.212779	0.658550	-0.766966
C12	C	0.253236	0.734569	-0.771860
C13	C	0.142934	0.623548	-0.766478
C14	C	0.212778	0.554190	-0.766966
C15	C	0.253234	0.518628	-0.771860
C16	C	0.142933	0.519347	-0.766478
C17	C	0.108419	0.554191	-0.766966
C18	C	0.037295	0.518628	-0.771860
C19	C	0.247134	0.623548	-0.766478
C20	C	-0.020166	0.489898	-0.775815
C21	C	0.285922	0.795985	-0.775815
C22	C	0.285919	0.489897	-0.775815
C23	C	-0.092253	0.453855	-0.780777
C24	C	0.326927	0.873034	-0.780777
C25	C	0.326924	0.453853	-0.780777
O26	O	-0.281023	0.311546	-0.819875
O27	O	-0.113408	0.395351	-0.785677
O28	O	-0.113404	0.395352	-0.903684
O29	O	-0.281027	0.311545	-0.701867
O30	O	-0.113402	0.491204	-0.903684
O31	O	-0.113406	0.491203	-0.785677
O32	O	-0.281020	0.407398	-0.819875
Zn33	Zn	-0.197213	0.464519	-0.802776
Zn34	Zn	-0.197216	0.338230	-0.802776
O35	O	-0.281024	0.407397	-0.701867
C36	C	0.590046	0.554185	-1.248588
C37	C	0.549591	0.518622	-1.284151
C38	C	0.659891	0.623543	-1.283433
C39	C	0.590043	0.554187	-1.144227
C40	C	0.549584	0.518626	-1.068207
C41	C	0.659888	0.623545	-1.179230
C42	C	0.694404	0.658546	-1.248589
C43	C	0.765529	0.734565	-1.284152
C44	C	0.555688	0.519343	-1.179230
C45	C	0.822990	0.795981	-1.312883
C46	C	0.516906	0.489890	-1.312882
C47	C	0.516897	0.489896	-1.006790
C48	C	0.895078	0.873030	-1.348928
C49	C	0.475903	0.453845	-1.348926
C50	C	0.475889	0.453853	-0.929739
C51	C	0.621361	0.310662	-0.827658
C52	C	0.692485	0.346225	-0.822764
C53	C	0.586847	0.241305	-0.828145
C54	C	0.517002	0.310662	-0.827658
C55	C	0.476545	0.346224	-0.822764
C56	C	0.482646	0.241304	-0.828145
C57	C	0.517002	0.206303	-0.827658
C58	C	0.476546	0.130284	-0.822764
C59	C	0.586847	0.345505	-0.828145
O60	O	0.412484	1.100901	-0.819875
O61	O	0.294479	0.899088	-0.785677
O62	O	0.412488	1.017092	-0.903684
O63	O	0.294476	0.982896	-0.701867
O64	O	0.508339	1.017093	-0.903684
O65	O	0.390331	0.899089	-0.785677
O66	O	0.508336	1.100902	-0.819875
Zn67	Zn	0.464551	0.999996	-0.802776
Zn68	Zn	0.338263	0.999994	-0.802776
O69	O	0.390327	0.982897	-0.701867
O70	O	1.083829	1.100903	-1.395380
O71	O	0.916231	0.899086	-1.311579
O72	O	0.916211	1.017081	-1.311571
O73	O	1.083849	0.982908	-1.395388
O74	O	0.916215	1.017079	-1.407424
O75	O	0.916235	0.899084	-1.407432
O76	O	1.083833	1.100901	-1.491233
Zn77	Zn	1.000035	0.999992	-1.464551
Zn78	Zn	1.000030	0.999995	-1.338261
O79	O	1.083853	0.982906	-1.491241
O80	O	0.390331	0.407391	-1.491226
O81	O	0.508348	0.491195	-1.407427
O82	O	0.390330	0.491190	-1.407407
O83	O	0.508349	0.407397	-1.491247
O84	O	0.294486	0.395333	-1.311559
O85	O	0.412504	0.395339	-1.311580
O86	O	0.294488	0.311535	-1.395379
Zn87	Zn	0.338279	0.338218	-1.338262
Zn88	Zn	0.464557	0.464512	-1.464545
O89	O	0.412506	0.311541	-1.395400
C90	C	0.181457	0.206294	-0.492110
C91	C	0.110335	0.130274	-0.456549
C92	C	0.215972	0.241295	-0.457267
C93	C	0.285811	0.310657	-0.596467
C94	C	0.326265	0.346222	-0.672485
C95	C	0.320168	0.345500	-0.561466
C96	C	0.285815	0.310654	-0.492110
C97	C	0.326273	0.346216	-0.456549
C98	C	0.215968	0.241298	-0.561466
C99	C	-0.483008	0.310669	-0.492104
C100	C	-0.523462	0.346234	-0.456542
C101	C	-0.517367	0.241312	-0.457259
C102	C	-0.378647	0.310665	-0.596464
C103	C	-0.307520	0.346225	-0.672484
C104	C	-0.413165	0.241307	-0.561460
C105	C	-0.483012	0.206308	-0.492101
C106	C	-0.523473	0.130289	-0.456537
C107	C	-0.413160	0.345510	-0.561463
C108	C	0.285799	0.975116	-0.492102
C109	C	0.326254	0.980010	-0.456538
C110	C	0.215953	0.974628	-0.457259
C111	C	0.285805	0.975115	-0.596464
C112	C	0.326265	0.980008	-0.672484
C113	C	0.215958	0.974627	-0.561462
C114	C	0.181441	0.975115	-0.492104
C115	C	0.110315	0.980008	-0.456541
C116	C	0.320158	0.974628	-0.561461
C117	C	0.212804	0.658558	-1.248584
C118	C	0.253244	0.734570	-1.284152
C119	C	0.247182	0.623567	-1.283420
C120	C	0.108452	0.554201	-1.144220
C121	C	0.037319	0.518636	-1.068202
C122	C	0.142989	0.519370	-1.179215
C123	C	0.212841	0.554217	-1.248571
C124	C	0.253321	0.518669	-1.284126
C125	C	0.142951	0.623551	-1.179228
C126	C	0.286026	0.489950	-1.312850
C127	C	0.285916	0.795981	-1.312887
C128	C	-0.020149	0.489903	-1.006787
C129	C	0.327055	0.453920	-1.348885
C130	C	0.326904	0.873023	-1.348936
C131	C	-0.092245	0.453855	-0.929739
O132	O	-0.609734	-0.100919	-0.407416
O133	O	-0.491701	0.100898	-0.491225
O134	O	-0.609750	-0.017098	-0.491191
O135	O	-0.491684	0.017076	-0.407450
O136	O	-0.705568	-0.017081	-0.395319
O137	O	-0.587519	0.100915	-0.395353
O138	O	-0.705552	-0.100902	-0.311543
Zn139	Zn	-0.661748	0.000009	-0.338226
Zn140	Zn	-0.535504	-0.000014	-0.464542
O141	O	-0.587502	0.017093	-0.311578
C142	C	0.694403	1.035802	-1.248590
C143	C	0.765530	1.030909	-1.284155
C144	C	0.659889	1.036289	-1.283433
C145	C	0.590042	1.035802	-1.144227
C146	C	0.549584	1.030909	-1.068207
C147	C	0.555686	1.036289	-1.179228
C148	C	0.590042	1.035801	-1.248587
C149	C	0.549586	1.030906	-1.284149
C150	C	0.659888	1.036290	-1.179231
C151	C	0.516900	1.026950	-1.312878
C152	C	0.822991	1.026954	-1.312887
C153	C	0.516897	1.026954	-1.006790
C154	C	0.475894	1.021987	-1.348921
C155	C	0.895081	1.021994	-1.348933
C156	C	0.475891	1.021993	-0.929740
H157	H	0.303334	0.651651	-0.765691
H158	H	0.114050	0.462360	-0.765695
O159	O	-0.374891	0.420994	-0.598696
H160	H	-0.311379	0.454802	-0.614110
H161	H	0.615737	0.213207	-0.828932
H162	H	0.187079	0.973845	-0.589569
O163	O	0.481241	0.443858	-1.141999
H164	H	0.463037	0.425401	-1.178007
O165	O	0.625104	0.420991	-0.829188
H166	H	0.679569	0.439448	-0.829441
H167	H	0.187068	0.973844	-0.400271
O168	O	0.104656	0.660754	-1.142008
H169	H	0.140401	0.714961	-1.178020
O170	O	0.481241	1.037331	-1.142011
H171	H	0.463037	1.037585	-1.087799
O172	O	0.104668	0.660766	-0.765442
H173	H	0.140430	0.714981	-0.765200
H174	H	0.376370	0.402487	-0.589570
H175	H	0.376362	0.973843	-0.589559
H176	H	0.426437	0.213202	-0.828919
O177	O	-0.591807	0.204087	-0.381768
H178	H	-0.642486	0.156181	-0.378669
H179	H	0.688767	0.651646	-1.151124
H180	H	0.688781	1.037077	-1.340422
O181	O	0.177705	0.204065	-0.598685
H182	H	0.222517	0.201285	-0.646583
H183	H	0.187082	0.213192	-0.400279
H184	H	0.114149	0.462406	-1.151088
H185	H	0.303385	0.651672	-1.340409
H186	H	-0.384280	0.213206	-0.589565
O187	O	0.698146	1.037334	-1.142004
H188	H	0.752612	1.037588	-1.178014
H189	H	0.688775	0.651641	-1.340420
