data_functionalizedCrystal
_audit_creation_method	'MofGen! by Chris Wilmer'
_symmetry_space_group_name_H-M	'P1'
_symmetry_Int_Tables_number	1
_symmetry_cell_setting	triclinic
loop_
_symmetry_equiv_pos_as_xyz
  x,y,z
_cell_length_a	15.995350
_cell_length_b	17.038272
_cell_length_c	14.472310
_cell_angle_alpha	89.999298
_cell_angle_beta	89.990621
_cell_angle_gamma	87.301966
loop_
_atom_site_label
_atom_site_type_symbol
_atom_site_fract_x
_atom_site_fract_y
_atom_site_fract_z
O1	O	1.118175	0.100774	-0.076763
O2	O	1.618175	0.600774	0.423237
O3	O	0.875286	0.113219	-0.076782
O4	O	1.375286	0.613219	0.423218
O5	O	0.995287	-0.006819	-0.076766
O6	O	1.495287	0.493181	0.423234
O7	O	0.998174	0.220812	-0.076780
O8	O	1.498174	0.720812	0.423220
O9	O	0.995254	-0.006812	0.076916
O10	O	1.495254	0.493188	0.576916
O11	O	0.875253	0.113226	0.076900
O12	O	1.375253	0.613226	0.576900
O13	O	1.118142	0.100781	0.076919
O14	O	1.618142	0.600781	0.576919
Cu15	Cu	0.996695	0.107004	0.090942
Cu16	Cu	1.496695	0.607004	0.590942
Cu17	Cu	0.996733	0.106996	-0.090805
Cu18	Cu	1.496733	0.606996	0.409195
O19	O	0.998141	0.220819	0.076902
O20	O	1.498141	0.720819	0.576902
C21	C	0.844038	0.112708	0.000056
C22	C	1.344038	0.612708	0.500056
C23	C	0.750978	0.111165	0.000049
C24	C	1.250978	0.611165	0.500049
C25	C	0.412836	0.105626	0.000069
C26	C	0.912836	0.605626	0.500069
C27	C	0.454180	0.020137	0.000417
C28	C	0.954180	0.520137	0.500417
C29	C	0.550981	0.021680	0.000064
C30	C	1.050981	0.521680	0.500064
C31	C	0.580592	0.108374	0.000060
C32	C	1.080592	0.608374	0.500060
C33	C	0.542527	0.150536	-0.087699
C34	C	1.042527	0.650536	0.412301
C35	C	0.445739	0.148388	-0.087766
C36	C	0.945739	0.648388	0.412234
C37	C	0.445488	0.150162	0.086999
C38	C	0.945488	0.650162	0.586999
C39	C	0.542432	0.150142	0.088152
C40	C	1.042432	0.650142	0.588152
C41	C	0.675401	0.109931	0.000051
C42	C	1.175401	0.609931	0.500051
C43	C	0.318027	0.104071	0.000071
C44	C	0.818027	0.604071	0.500071
C45	C	0.992645	-0.035945	0.000075
C46	C	1.492645	0.464055	0.500075
C47	C	0.984810	-0.122740	0.000074
C48	C	1.484810	0.377260	0.500074
C49	C	1.056739	-0.172836	0.000081
C50	C	1.556739	0.327164	0.500081
C51	C	1.049373	-0.254389	0.000072
C52	C	1.549373	0.245611	0.500072
C53	C	0.970077	-0.285843	0.000062
C54	C	1.470077	0.214157	0.500062
C55	C	0.898143	-0.235740	0.000053
C56	C	1.398143	0.264260	0.500053
C57	C	0.905510	-0.154189	0.000056
C58	C	1.405510	0.345811	0.500056
C59	C	0.944051	-0.531607	0.000047
C60	C	1.444051	-0.031607	0.500047
C61	C	0.936689	-0.613164	0.000048
C62	C	1.436689	-0.113164	0.500048
C63	C	1.087920	-0.631807	0.000065
C64	C	1.587920	-0.131807	0.500065
C65	C	1.095280	-0.550254	0.000073
C66	C	1.595280	-0.050254	0.500073
C67	C	1.023346	-0.500158	0.000059
C68	C	1.523346	-0.000158	0.500059
C69	C	0.962546	-0.369202	0.000056
C70	C	1.462546	0.130798	0.500056
C71	C	1.030878	-0.416801	0.000059
C72	C	1.530878	0.083199	0.500059
C73	C	1.149390	0.101292	0.000078
C74	C	1.649390	0.601292	0.500078
C75	C	1.242450	0.102834	0.000079
C76	C	1.742450	0.602834	0.500079
C77	C	1.000784	0.249944	0.000059
C78	C	1.500784	0.749944	0.500059
C79	C	1.008618	0.336739	0.000054
C80	C	1.508618	0.836739	0.500054
N81	N	0.996674	0.107009	0.218773
N82	N	1.496674	0.607009	0.718773
N83	N	0.996761	0.106984	-0.218636
N84	N	1.496761	0.606984	0.281364
C85	C	0.996732	0.106993	0.592864
C86	C	1.496732	0.606993	1.092864
C87	C	0.932276	0.171007	0.553689
C88	C	1.432276	0.671007	1.053689
C89	C	0.932452	0.171241	0.446601
C90	C	1.432452	0.671241	0.946601
C91	C	0.996702	0.107001	0.407273
C92	C	1.496702	0.607001	0.907273
C93	C	1.085336	0.124819	0.446115
C94	C	1.585336	0.624819	0.946115
C95	C	1.084981	0.125274	0.553237
C96	C	1.584981	0.625274	1.053237
C97	C	0.973320	0.024970	0.553397
C98	C	1.473320	0.524970	1.053397
C99	C	0.971356	0.025517	0.446269
C100	C	1.471356	0.525517	0.946269
C101	C	0.996691	0.107004	0.302385
C102	C	1.496691	0.607004	0.802385
C103	C	0.996749	0.106991	0.697752
C104	C	1.496749	0.606991	1.197752
H105	H	0.418217	0.213193	0.087589
H106	H	0.918217	0.713193	0.587589
C107	C	0.567743	0.236580	-0.092119
C108	C	1.067743	0.736580	0.407881
N109	N	0.586738	0.301387	-0.095446
N110	N	1.086738	0.801387	0.404554
C111	C	0.953471	0.253469	0.411962
C112	C	1.453471	0.753469	0.911962
N113	N	0.969308	0.315406	0.385874
N114	N	1.469308	0.815406	0.885874
H115	H	0.909777	0.007837	0.580460
H116	H	1.409777	0.507837	1.080460
C117	C	1.167041	-0.686919	0.000072
C118	C	1.667041	-0.186919	0.500072
N119	N	1.226639	-0.728429	0.000073
N120	N	1.726639	-0.228429	0.500073
C121	C	0.408211	0.233178	-0.093171
C122	C	0.908211	0.733178	0.406829
N123	N	0.379949	0.297040	-0.097251
N124	N	0.879949	0.797040	0.402749
C125	C	0.864920	-0.476512	0.000027
C126	C	1.364920	0.023488	0.500027
N127	N	0.805315	-0.435011	0.000008
N128	N	1.305315	0.064989	0.500008
H129	H	0.947652	0.231532	0.580596
H130	H	1.447652	0.731532	1.080596
C131	C	1.036725	-0.039387	0.587627
C132	C	1.536725	0.460613	1.087627
N133	N	1.084483	-0.087856	0.613415
N134	N	1.584483	0.412144	1.113415
H135	H	0.568829	0.121246	-0.153008
H136	H	1.068829	0.621246	0.346992
C137	C	1.030069	-0.041853	0.410127
C138	C	1.530069	0.458147	0.910127
N139	N	1.074304	-0.092594	0.382913
N140	N	1.574304	0.407406	0.882913
H141	H	0.577035	-0.011462	0.062974
H142	H	1.077035	0.488538	0.562974
C143	C	0.883230	0.007250	0.411980
C144	C	1.383230	0.507250	0.911980
N145	N	0.816853	-0.006506	0.386149
N146	N	1.316853	0.493494	0.886149
H147	H	0.433211	-0.014032	0.063353
H148	H	0.933211	0.485968	0.563353
H149	H	0.897983	-0.394821	0.000050
H150	H	1.397983	0.105179	0.500050
C151	C	0.424443	-0.025827	-0.084121
C152	C	0.924443	0.474173	0.415879
N153	N	0.402040	-0.060445	-0.147794
N154	N	0.902040	0.439555	0.352206
C155	C	1.111637	0.206091	0.586977
C156	C	1.611637	0.706091	1.086977
N157	N	1.131708	0.266967	0.612385
N158	N	1.631708	0.766967	1.112385
C159	C	0.585426	-0.023400	-0.085069
C160	C	1.085426	0.476600	0.414931
N161	N	0.611369	-0.057356	-0.149197
N162	N	1.111369	0.442644	0.350803
C163	C	0.826383	-0.099083	0.000050
C164	C	1.326383	0.400917	0.500050
N165	N	0.766781	-0.057577	0.000044
N166	N	1.266781	0.442423	0.500044
H167	H	1.095440	-0.391187	0.000046
H168	H	1.595440	0.108813	0.500046
H169	H	0.422948	0.122217	0.153518
H170	H	0.922948	0.622217	0.653518
C171	C	1.112439	0.204716	0.409869
C172	C	1.612439	0.704716	0.909869
N173	N	1.132847	0.264898	0.382574
N174	N	1.632847	0.764898	0.882574
C175	C	0.843696	0.156913	0.411122
C176	C	1.343696	0.656913	0.911122
N177	N	0.776840	0.146126	0.384404
N178	N	1.276840	0.646126	0.884404
C179	C	0.576321	0.108539	0.175863
C180	C	1.076321	0.608539	0.675863
N181	N	0.601845	0.077196	0.241925
N182	N	1.101845	0.577196	0.741925
H183	H	0.425254	0.117636	-0.153365
H184	H	0.925254	0.617636	0.346635
C185	C	1.143971	-0.138245	0.000091
C186	C	1.643971	0.361755	0.500091
N187	N	1.209676	-0.112193	0.000095
N188	N	1.709676	0.387807	0.500095
C189	C	0.569285	0.235546	0.095321
C190	C	1.069285	0.735546	0.595321
N191	N	0.589516	0.299874	0.100718
N192	N	1.089516	0.799874	0.600718
C193	C	1.128501	-0.309492	0.000094
C194	C	1.628501	0.190508	0.500094
N195	N	1.188104	-0.350995	0.000115
N196	N	1.688104	0.149005	0.500115
C197	C	0.843257	0.156917	0.588542
C198	C	1.343257	0.656917	1.088542
N199	N	0.776207	0.146306	0.614806
N200	N	1.276207	0.646306	1.114806
H201	H	1.159850	-0.524651	0.000081
H202	H	1.659850	-0.024651	0.500081
H203	H	0.872114	-0.638770	0.000055
H204	H	1.372114	-0.138770	0.500055
C205	C	1.152148	0.064702	0.588246
C206	C	1.652148	0.564702	1.088246
N207	N	1.202748	0.019089	0.614611
N208	N	1.702748	0.519089	1.114611
C209	C	0.810917	-0.270342	0.000050
C210	C	1.310917	0.229658	0.500050
N211	N	0.745216	-0.296404	0.000055
N212	N	1.245216	0.203596	0.500055
H213	H	1.134688	0.079434	0.420639
H214	H	1.634688	0.579434	0.920639
