data_functionalizedCrystal
_audit_creation_method	'MofGen! by Chris Wilmer'
_symmetry_space_group_name_H-M	'P1'
_symmetry_Int_Tables_number	1
_symmetry_cell_setting	triclinic
loop_
_symmetry_equiv_pos_as_xyz
  x,y,z
_cell_length_a	17.639181
_cell_length_b	25.639239
_cell_length_c	17.640968
_cell_angle_alpha	101.231536
_cell_angle_beta	92.163516
_cell_angle_gamma	78.846973
loop_
_atom_site_label
_atom_site_type_symbol
_atom_site_fract_x
_atom_site_fract_y
_atom_site_fract_z
Zn1	Zn	1.247356	-0.348823	0.194243
Zn2	Zn	1.747356	0.151177	0.694243
Zn3	Zn	1.221547	-0.449793	0.067277
Zn4	Zn	1.721547	0.050207	0.567277
Zn5	Zn	1.094724	-0.341990	0.092991
Zn6	Zn	1.594724	0.158010	0.592991
Zn7	Zn	1.120325	-0.415823	0.219927
Zn8	Zn	1.620325	0.084177	0.719927
O9	O	1.170988	-0.389107	0.143610
O10	O	1.670988	0.110893	0.643610
O11	O	1.350171	-0.379293	0.155890
O12	O	1.850171	0.120707	0.655890
O13	O	1.183209	-0.446850	-0.035570
O14	O	1.683209	0.053150	0.464430
O15	O	1.115058	-0.269741	0.106435
O16	O	1.615058	0.230259	0.606435
O17	O	1.331210	-0.453475	0.062609
O18	O	1.831210	0.046525	0.562609
O19	O	1.227196	-0.274761	0.180824
O20	O	1.727196	0.225239	0.680824
O21	O	1.090032	-0.367648	-0.016678
O22	O	1.590032	0.132352	0.483322
O23	O	0.991881	-0.334708	0.131340
O24	O	1.491881	0.165292	0.631340
O25	O	1.158691	-0.395578	0.322779
O26	O	1.658691	0.104422	0.822779
O27	O	1.010690	-0.388952	0.224599
O28	O	1.510690	0.111048	0.724599
O29	O	1.252020	-0.346353	0.303909
O30	O	1.752020	0.153647	0.803909
O31	O	1.208033	-0.518442	0.087514
O32	O	1.708033	-0.018442	0.587514
O33	O	1.133666	-0.493484	0.199666
O34	O	1.633666	0.006516	0.699666
C35	C	0.973739	-0.357403	0.183547
C36	C	1.473739	0.142597	0.683547
C37	C	0.889359	-0.343850	0.200651
C38	C	1.389359	0.156150	0.700651
C39	C	0.562433	-0.492180	0.013685
C40	C	1.062433	0.007820	0.513685
C41	C	0.483146	-0.479437	0.029763
C42	C	0.983146	0.020563	0.529763
C43	C	0.502918	-0.402284	0.127041
C44	C	1.002918	0.097716	0.627041
C45	C	0.582208	-0.415018	0.110968
C46	C	1.082208	0.084982	0.610968
C47	C	0.611959	-0.459967	0.054290
C48	C	1.111959	0.040033	0.554290
C49	C	0.631734	-0.382806	0.151574
C50	C	1.131734	0.117194	0.651574
C51	C	0.711017	-0.395541	0.135505
C52	C	1.211017	0.104459	0.635505
C53	C	0.740774	-0.440489	0.078831
C54	C	1.240774	0.059511	0.578831
C55	C	0.691242	-0.472703	0.038222
C56	C	1.191242	0.027297	0.538222
C57	C	0.601983	-0.337859	0.208255
C58	C	1.101983	0.162141	0.708255
C59	C	0.651509	-0.305647	0.248861
C60	C	1.151509	0.194353	0.748861
C61	C	0.730793	-0.318380	0.232788
C62	C	1.230793	0.181620	0.732788
C63	C	0.760550	-0.363327	0.176114
C64	C	1.260550	0.136673	0.676114
C65	C	0.780325	-0.286166	0.273398
C66	C	1.280325	0.213834	0.773398
C67	C	0.859608	-0.298901	0.257329
C68	C	1.359608	0.201099	0.757329
C69	C	0.839833	-0.376063	0.160046
C70	C	1.339833	0.123937	0.660046
C71	C	1.170851	-0.524933	0.143599
C72	C	1.670851	-0.024933	0.643599
C73	C	1.170867	-0.583048	0.143606
C74	C	1.670867	-0.083048	0.643606
C75	C	1.132253	-0.821274	0.201993
C76	C	1.632253	-0.321274	0.701993
C77	C	1.132223	-0.766666	0.201990
C78	C	1.632223	-0.266666	0.701990
O79	O	1.099262	-0.727387	0.251633
O80	O	1.599262	-0.227387	0.751633
N81	N	1.170970	-0.752333	0.143627
N82	N	1.670970	-0.252333	0.643627
C83	C	1.209757	-0.792612	0.085267
C84	C	1.709757	-0.292612	0.585267
O85	O	1.242713	-0.775406	0.035624
O86	O	1.742713	-0.275406	0.535624
C87	C	1.209791	-0.847219	0.085273
C88	C	1.709791	-0.347219	0.585273
C89	C	1.171034	-0.861548	0.143637
C90	C	1.671034	-0.361548	0.643637
C91	C	1.093500	-0.835605	0.260352
C92	C	1.593500	-0.335605	0.760352
C93	C	1.093529	-0.890209	0.260354
C94	C	1.593529	-0.390209	0.760354
C95	C	1.132310	-0.930483	0.201997
C96	C	1.632310	-0.430483	0.701997
C97	C	1.171063	-0.916152	0.143639
C98	C	1.671063	-0.416152	0.643639
C99	C	1.248582	-0.887496	0.026917
C100	C	1.748582	-0.387496	0.526917
C101	C	1.248613	-0.942106	0.026929
C102	C	1.748613	-0.442106	0.526929
C103	C	1.209857	-0.956435	0.085293
C104	C	1.709857	-0.456435	0.585293
C105	C	1.209874	-1.011030	0.085284
C106	C	1.709874	-0.511030	0.585284
N107	N	1.171126	-1.025363	0.143648
N108	N	1.671126	-0.525363	0.643648
C109	C	1.132344	-0.985089	0.202004
C110	C	1.632344	-0.485089	0.702004
C111	C	1.209684	-0.677932	0.085257
C112	C	1.709684	-0.177932	0.585257
C113	C	1.209646	-0.623326	0.085247
C114	C	1.709646	-0.123326	0.585247
C115	C	1.132112	-0.597385	0.201971
C116	C	1.632112	-0.097385	0.701971
C117	C	1.132146	-0.651992	0.201978
C118	C	1.632146	-0.151992	0.701978
C119	C	1.170936	-0.692266	0.143621
C120	C	1.670936	-0.192266	0.643621
C121	C	1.132407	-1.099763	0.202004
C122	C	1.632407	-0.599763	0.702004
C123	C	1.132437	-1.154373	0.201999
C124	C	1.632437	-0.654373	0.701999
C125	C	1.209974	-1.180310	0.085277
C126	C	1.709974	-0.680310	0.585277
C127	C	1.209941	-1.125704	0.085279
C128	C	1.709941	-0.625704	0.585279
C129	C	1.171156	-1.085431	0.143649
C130	C	1.671156	-0.585431	0.643649
O131	O	1.242821	-1.050338	0.035668
O132	O	1.742821	-0.550338	0.535668
O133	O	1.099403	-1.002304	0.251644
O134	O	1.599403	-0.502304	0.751644
C135	C	1.369007	-0.420936	0.103516
C136	C	1.869007	0.079064	0.603516
C137	C	1.453391	-0.434499	0.086431
C138	C	1.953391	0.065501	0.586431
C139	C	1.211090	-0.367938	0.341666
C140	C	1.711090	0.132062	0.841666
C141	C	1.228179	-0.358917	0.426066
C142	C	1.728179	0.141083	0.926066
C143	C	1.171150	-0.252753	0.143633
C144	C	1.671150	0.247247	0.643633
C145	C	1.171219	-0.194647	0.143642
C146	C	1.671219	0.305353	0.643642
C147	C	1.131086	-0.410163	-0.053685
C148	C	1.631086	0.089837	0.446315
C149	C	1.114144	-0.419060	-0.138114
C150	C	1.614144	0.080940	0.361886
C151	C	1.041455	-0.457400	0.752763
C152	C	1.541455	0.042600	1.252763
C153	C	1.057529	-0.448920	0.832067
C154	C	1.557529	0.051080	1.332067
C155	C	1.154704	-0.397667	0.812408
C156	C	1.654704	0.102333	1.312408
C157	C	1.138636	-0.406141	0.733102
C158	C	1.638636	0.093859	1.233102
C159	C	1.082011	-0.436009	0.703286
C160	C	1.582011	0.063991	1.203286
C161	C	1.179192	-0.384749	0.683625
C162	C	1.679192	0.115251	1.183625
C163	C	1.163128	-0.393225	0.604326
C164	C	1.663128	0.106775	1.104326
C165	C	1.106507	-0.423093	0.574503
C166	C	1.606507	0.076907	1.074503
C167	C	1.065947	-0.444484	0.623987
C168	C	1.565947	0.055516	1.123987
C169	C	1.235820	-0.354885	0.713442
C170	C	1.735820	0.145115	1.213442
C171	C	1.276376	-0.333493	0.663965
C172	C	1.776376	0.166507	1.163965
C173	C	1.260308	-0.341966	0.584665
C174	C	1.760308	0.158034	1.084665
C175	C	1.203688	-0.371833	0.554842
C176	C	1.703688	0.128167	1.054842
C177	C	1.300869	-0.320574	0.535181
C178	C	1.800869	0.179426	1.035181
C179	C	1.284804	-0.329050	0.455881
C180	C	1.784804	0.170950	0.955881
C181	C	1.187623	-0.380309	0.475543
C182	C	1.687623	0.119691	0.975543
H183	H	0.478685	-0.365688	0.173190
H184	H	0.978685	0.134312	0.673190
C185	C	1.252266	-0.607571	0.021033
C186	C	1.752266	-0.107571	0.521033
N187	N	1.284371	-0.595706	-0.027335
N188	N	1.784371	-0.095706	0.472665
C189	C	0.747587	-0.236721	0.335736
C190	C	1.247587	0.263279	0.835736
N191	N	0.722928	-0.199475	0.382687
N192	N	1.222928	0.300525	0.882687
C193	C	0.914090	-0.263465	0.301996
C194	C	1.414090	0.236535	0.801996
N195	N	0.955126	-0.236774	0.335641
N196	N	1.455126	0.263226	0.835641
C197	C	1.329417	-0.305517	0.401454
C198	C	1.829417	0.194483	0.901454
N199	N	1.363021	-0.287792	0.360459
N200	N	1.863021	0.212208	0.860459
H201	H	1.100535	-0.564584	0.249490
H202	H	1.600535	-0.064584	0.749490
C203	C	0.827989	-0.454498	0.061154
C204	C	1.327989	0.045502	0.561154
N205	N	0.893679	-0.465048	0.047839
N206	N	1.393679	0.034952	0.547839
H207	H	0.537425	-0.327493	0.221339
H208	H	1.037425	0.172507	0.721339
H209	H	0.586656	-0.528779	-0.032473
H210	H	1.086656	-0.028779	0.467527
C211	C	1.088835	-0.432416	0.487271
C212	C	1.588835	0.067584	0.987271
N213	N	1.075523	-0.439437	0.421568
N214	N	1.575523	0.060563	0.921568
C215	C	1.253489	-0.345561	0.800675
C216	C	1.753489	0.154439	1.300675
N217	N	1.266795	-0.338538	0.866379
N218	N	1.766795	0.161462	1.366379
C219	C	1.089801	-1.170130	0.266207
C220	C	1.589801	-0.670130	0.766207
N221	N	1.057691	-1.181998	0.314568
N222	N	1.557691	-0.681998	0.814568
C223	C	1.003656	-0.477340	0.591186
C224	C	1.503656	0.022660	1.091186
N225	N	0.956742	-0.502087	0.566479
N226	N	1.456742	-0.002087	1.066479
H227	H	1.061967	-0.901870	0.307879
H228	H	1.561967	-0.401870	0.807879
H229	H	0.627275	-0.269051	0.295010
H230	H	1.127275	0.230949	0.795010
C231	C	1.089743	-1.055470	0.266214
C232	C	1.589743	-0.555470	0.766214
N233	N	1.057604	-1.022108	0.314575
N234	N	1.557604	-0.522108	0.814575
C235	C	1.252628	-1.224620	0.021085
C236	C	1.752628	-0.724620	0.521085
N237	N	1.284758	-1.257997	-0.027263
N238	N	1.784758	-0.757997	0.472737
C239	C	1.050850	-0.791311	0.324567
C240	C	1.550850	-0.291311	0.824567
N241	N	1.018726	-0.757951	0.372939
N242	N	1.518726	-0.257951	0.872939
H243	H	1.280142	-0.875838	-0.020607
H244	H	1.780142	-0.375838	0.479393
C245	C	0.723971	-0.522147	-0.024130
C246	C	1.223971	-0.022147	0.475870
N247	N	0.748623	-0.559389	-0.071090
N248	N	1.248623	-0.059389	0.428910
C249	C	1.089517	-0.667749	0.266185
C250	C	1.589517	-0.167749	0.766185
N251	N	1.057409	-0.679613	0.314550
N252	N	1.557409	-0.179613	0.814550
H253	H	1.322482	-0.309177	0.688252
H254	H	1.822482	0.190823	1.188252
H255	H	0.442823	-0.505673	-0.003305
H256	H	0.942823	-0.005673	0.496695
C257	C	1.252346	-0.722230	0.021047
C258	C	1.752346	-0.222230	0.521047
N259	N	1.284479	-0.755592	-0.027316
N260	N	1.784479	-0.255592	0.472684
H261	H	1.141496	-0.404615	0.451269
H262	H	1.641496	0.095385	0.951269
C263	C	1.291283	-0.986405	-0.037272
C264	C	1.791283	-0.486405	0.462728
N265	N	1.323420	-1.019769	-0.085630
N266	N	1.823420	-0.519769	0.414370
C267	C	1.363153	-0.287720	0.567990
C268	C	1.863153	0.212280	1.067990
N269	N	1.410064	-0.262972	0.592702
N270	N	1.910064	0.237028	1.092702
H271	H	0.995328	-0.481706	0.728490
H272	H	1.495328	0.018294	1.228490
C273	C	1.252579	-1.109942	0.021080
C274	C	1.752579	-0.609942	0.521080
N275	N	1.284704	-1.098074	-0.027270
N276	N	1.784704	-0.598074	0.472730
H277	H	1.024499	-0.466342	0.872350
H278	H	1.524499	0.033658	1.372350
H279	H	0.864056	-0.412662	0.113888
H280	H	1.364056	0.087338	0.613888
H281	H	1.200810	-0.373350	0.836695
H282	H	1.700810	0.126650	1.336695
