data_functionalizedCrystal
_audit_creation_method	'MofGen! by Chris Wilmer'
_symmetry_space_group_name_H-M	'P1'
_symmetry_Int_Tables_number	1
_symmetry_cell_setting	triclinic
loop_
_symmetry_equiv_pos_as_xyz
  x,y,z
_cell_length_a	10.723024
_cell_length_b	11.026660
_cell_length_c	9.798715
_cell_angle_alpha	90.000279
_cell_angle_beta	89.995970
_cell_angle_gamma	83.473648
loop_
_atom_site_label
_atom_site_type_symbol
_atom_site_fract_x
_atom_site_fract_y
_atom_site_fract_z
O1	O	-1.693990	0.170518	0.113495
O2	O	-1.334361	0.186839	0.113494
O3	O	-1.484372	0.001778	0.113493
O4	O	-1.543979	0.355579	0.113496
O5	O	-1.484357	0.001777	-0.113489
O6	O	-1.334346	0.186838	-0.113488
O7	O	-1.693976	0.170516	-0.113488
Zn8	Zn	-1.514159	0.178677	-0.149526
Zn9	Zn	-1.514178	0.178679	0.149533
O10	O	-1.543965	0.355577	-0.113487
C11	C	-1.287597	0.185651	0.000003
C12	C	-1.148276	0.182097	0.000003
C13	C	-1.095643	0.285648	0.000004
C14	C	-0.951647	0.281977	0.000004
C15	C	-1.473368	-0.043524	0.000005
C16	C	-1.440586	-0.178511	0.000012
C17	C	-1.497233	-0.391079	0.000008
C18	C	-1.531117	-0.251564	0.000011
C19	C	-0.740739	0.171705	0.000003
C20	C	-0.880060	0.175258	0.000003
C21	C	-1.554969	0.400880	0.000005
C22	C	-1.587751	0.535866	0.000006
N23	N	-1.514155	0.178675	-0.353626
C24	C	-1.602135	0.249173	-0.421403
C25	C	-1.602155	0.249171	-0.578566
N26	N	-1.514190	0.178671	0.353632
H27	H	-0.906348	0.370624	0.000010
O28	O	-1.653460	-0.202834	0.000196
C29	C	-1.816533	-0.075237	0.117838
C30	C	-1.677953	-0.130321	0.117782
H31	H	-1.836385	-0.016619	0.212911
H32	H	-1.836443	-0.016436	0.022914
H33	H	-1.879391	-0.151959	0.117770
H34	H	-1.615004	-0.053678	0.117899
H35	H	-1.658144	-0.189154	0.212698
O36	O	-1.710069	-0.415341	-0.000051
C37	C	-1.855366	-0.231802	0.000044
C38	C	-1.716788	-0.286893	0.000075
H39	H	-1.860844	-0.127944	0.000175
H40	H	-1.903950	-0.263261	-0.094971
H41	H	-1.903902	-0.263429	0.095012
H42	H	-1.668145	-0.255291	-0.094829
H43	H	-1.668298	-0.255438	0.095153
H44	H	-1.086733	0.090727	0.000037
H45	H	-1.677448	0.309524	-0.363077
H46	H	-1.337998	-0.219245	0.000017
H47	H	-0.925352	0.086606	0.000011
H48	H	-1.677473	0.309534	-0.636852
H49	H	-1.438858	0.118318	-0.588090
H50	H	-1.394652	-0.431821	0.000014
H51	H	-1.438848	0.118315	-0.411951
H52	H	-1.157186	0.377018	-0.000003
