data_functionalizedCrystal
_audit_creation_method	'MofGen! by Chris Wilmer'
_symmetry_space_group_name_H-M	'P1'
_symmetry_Int_Tables_number	1
_symmetry_cell_setting	triclinic
loop_
_symmetry_equiv_pos_as_xyz
  x,y,z
_cell_length_a	25.639234
_cell_length_b	25.639242
_cell_length_c	25.639239
_cell_angle_alpha	90.034213
_cell_angle_beta	90.024584
_cell_angle_gamma	90.026995
loop_
_atom_site_label
_atom_site_type_symbol
_atom_site_fract_x
_atom_site_fract_y
_atom_site_fract_z
Zn1	Zn	-0.295742	-0.799250	0.208247
Zn2	Zn	-0.208307	-0.799166	0.295674
Zn3	Zn	-0.208306	-0.711819	0.208248
Zn4	Zn	-0.295696	-0.711771	0.295646
O5	O	-0.252013	-0.755502	0.251954
O6	O	-0.284163	-0.872404	0.219855
O7	O	-0.135141	-0.787564	0.284089
O8	O	-0.219924	-0.723472	0.135083
O9	O	-0.219924	-0.872342	0.284088
O10	O	-0.284163	-0.787707	0.135082
O11	O	-0.135141	-0.723390	0.219858
O12	O	-0.219880	-0.638647	0.219830
O13	O	-0.368868	-0.723391	0.284040
O14	O	-0.284085	-0.638613	0.284041
O15	O	-0.368901	-0.787661	0.219828
O16	O	-0.219880	-0.787518	0.368836
O17	O	-0.284085	-0.723309	0.368815
C18	C	-0.251977	-0.619659	0.251933
C19	C	-0.251975	-0.561545	0.251937
C20	C	-0.251989	-0.755414	0.387796
C21	C	-0.251996	-0.755424	0.445910
C22	C	-0.388386	-0.755530	0.251931
C23	C	-0.446500	-0.755542	0.251921
C24	C	-0.697686	-0.788971	0.285323
C25	C	-0.643082	-0.788965	0.285334
O26	O	-0.614839	-0.817364	0.313792
N27	N	-0.615774	-0.755553	0.251895
C28	C	-0.643073	-0.722141	0.218447
O29	O	-0.614832	-0.693720	0.190006
C30	C	-0.697677	-0.722144	0.218439
C31	C	-0.724982	-0.755562	0.251877
C32	C	-0.724991	-0.822386	0.318758
C33	C	-0.779592	-0.822392	0.318747
C34	C	-0.806887	-0.788983	0.285300
C35	C	-0.779582	-0.755568	0.251865
C36	C	-0.724975	-0.688729	0.184994
C37	C	-0.779582	-0.688735	0.184989
C38	C	-0.806887	-0.722153	0.218427
C39	C	-0.861478	-0.722165	0.218406
N40	N	-0.888786	-0.755578	0.251845
C41	C	-0.861491	-0.788986	0.285292
C42	C	-0.528403	-0.722136	0.218467
C43	C	-0.473800	-0.722135	0.218472
C44	C	-0.473813	-0.788959	0.285360
C45	C	-0.528416	-0.788962	0.285352
C46	C	-0.555710	-0.755548	0.251906
C47	C	-0.976156	-0.788997	0.285264
C48	C	-1.030761	-0.789002	0.285248
C49	C	-1.030744	-0.722176	0.218363
C50	C	-0.976144	-0.722173	0.218377
C51	C	-0.948851	-0.755585	0.251832
O52	O	-0.889756	-0.693780	0.189965
O53	O	-0.889739	-0.817397	0.313733
C54	C	-0.116170	-0.755503	0.251939
C55	C	-0.058057	-0.755593	0.251802
C56	C	-0.252049	-0.891875	0.251975
C57	C	-0.252064	-0.949989	0.251984
C58	C	-0.285413	-0.201173	0.285444
C59	C	-0.285421	-0.146568	0.285447
O60	O	-0.313821	-0.118324	0.313911
N61	N	-0.252047	-0.119263	0.251968
C62	C	-0.218666	-0.146564	0.218480
O63	O	-0.190280	-0.118324	0.190003
C64	C	-0.218661	-0.201167	0.218474
C65	C	-0.252034	-0.228470	0.251959
C66	C	-0.318783	-0.228476	0.318926
C67	C	-0.318774	-0.283076	0.318924
C68	C	-0.285395	-0.310374	0.285439
C69	C	-0.252024	-0.283071	0.251957
C70	C	-0.185283	-0.228468	0.184983
C71	C	-0.185281	-0.283075	0.184981
C72	C	-0.218654	-0.310378	0.218466
C73	C	-0.218636	-0.364969	0.218469
N74	N	-0.252010	-0.392275	0.251949
C75	C	-0.285389	-0.364977	0.285434
C76	C	-0.218680	-0.031893	0.218493
C77	C	-0.218683	0.022709	0.218501
C78	C	-0.285438	0.022701	0.285468
C79	C	-0.285433	-0.031902	0.285463
C80	C	-0.252054	-0.059199	0.251972
C81	C	-0.285368	-0.479642	0.285426
C82	C	-0.285354	-0.534247	0.285422
C83	C	-0.218601	-0.534235	0.218453
C84	C	-0.218612	-0.479634	0.218458
C85	C	-0.252000	-0.452339	0.251947
O86	O	-0.190252	-0.393248	0.190019
O87	O	-0.313776	-0.393223	0.313901
C88	C	-0.252048	-0.755604	0.115581
C89	C	-0.252064	-0.755648	0.057467
C90	C	-0.218638	-0.789022	0.806272
C91	C	-0.218645	-0.789042	0.860876
O92	O	-0.190257	-0.817518	0.889111
N93	N	-0.252048	-0.755593	0.888193
C94	C	-0.285449	-0.722126	0.860902
O95	O	-0.313861	-0.693677	0.889152
C96	C	-0.285444	-0.722109	0.806299
C97	C	-0.252036	-0.755556	0.778985
C98	C	-0.185233	-0.822467	0.778958
C99	C	-0.185226	-0.822446	0.724357
C100	C	-0.218623	-0.788980	0.697071
C101	C	-0.252028	-0.755535	0.724385
C102	C	-0.318847	-0.688644	0.779010
C103	C	-0.318840	-0.688630	0.724403
C104	C	-0.285432	-0.722077	0.697089
C105	C	-0.285418	-0.722048	0.642498
N106	N	-0.252016	-0.755497	0.615181
C107	C	-0.218619	-0.788963	0.642467
C108	C	-0.285457	-0.722165	0.975573
C109	C	-0.285459	-0.722179	1.030175
C110	C	-0.218656	-0.789097	1.030145
C111	C	-0.218652	-0.789080	0.975542
C112	C	-0.252055	-0.755614	0.948256
C113	C	-0.218605	-0.788916	0.527802
C114	C	-0.218599	-0.788890	0.473197
C115	C	-0.285403	-0.721975	0.473232
C116	C	-0.285408	-0.721998	0.527832
C117	C	-0.252007	-0.755473	0.555116
O118	O	-0.313794	-0.693588	0.614228
O119	O	-0.190216	-0.817412	0.614212
H120	H	-1.052990	-0.816217	0.312477
H121	H	-0.312530	-0.556475	0.312691
H122	H	-0.312659	-0.694938	1.052410
H123	H	-0.312656	-0.694909	0.953360
H124	H	-0.702753	-0.661516	0.157767
H125	H	-0.158103	-0.305297	0.157705
N126	N	-0.184582	0.050587	0.184301
N127	N	-0.154781	0.026201	0.154410
H128	H	-0.130697	0.045887	0.130254
N129	N	-0.151105	-0.856646	0.806824
N130	N	-0.117766	-0.838279	0.837320
H131	H	-0.093657	-0.862416	0.856998
N132	N	-0.319525	-0.687801	0.445352
N133	N	-0.367774	-0.691249	0.451416
H134	H	-0.391876	-0.667117	0.431724
N135	N	-0.184515	-0.451750	0.184257
N136	N	-0.154713	-0.476132	0.154364
H137	H	-0.130634	-0.456442	0.130205
N138	N	-0.352953	-0.654436	0.696533
N139	N	-0.334519	-0.621115	0.666109
H140	H	-0.358610	-0.596964	0.646426
N141	N	-0.948257	-0.688048	0.184206
N142	N	-0.972637	-0.658228	0.154338
H143	H	-0.952946	-0.634126	0.130205
N144	N	-0.184506	-0.562132	0.184257
N145	N	-0.184508	-0.610885	0.184262
H146	H	-0.160431	-0.630589	0.160109
N147	N	-0.184553	-0.823294	1.058024
N148	N	-0.188077	-0.871535	1.051882
H149	H	-0.163994	-0.895686	1.071574
H150	H	-0.191448	-0.816316	0.953306
N151	N	-0.445904	-0.688011	0.184312
N152	N	-0.415450	-0.706427	0.151003
H153	H	-0.395748	-0.682325	0.126878
H154	H	-0.191392	-0.816127	0.450959
N155	N	-0.697126	-0.856526	0.352924
N156	N	-0.703259	-0.904772	0.349456
H157	H	-0.683584	-0.928889	0.373585
N158	N	-0.319539	0.050581	0.319678
N159	N	-0.315986	0.044512	0.367918
H160	H	-0.340068	0.064202	0.392078
H161	H	-0.550644	-0.816174	0.312580
H162	H	-0.346049	-0.661405	0.801240
N163	N	-0.184483	-0.823111	0.555659
N164	N	-0.154660	-0.852966	0.531256
H165	H	-0.130559	-0.877114	0.550929
H166	H	-0.158024	-0.849683	0.702121
N167	N	-0.807477	-0.856529	0.352903
N168	N	-0.801395	-0.904776	0.349450
H169	H	-0.821085	-0.928885	0.373578
N170	N	-0.319527	-0.687821	0.555728
N171	N	-0.349339	-0.657939	0.531356
H172	H	-0.373439	-0.633803	0.551054
N173	N	-0.319469	-0.451775	0.319643
N174	N	-0.315907	-0.457854	0.367881
H175	H	-0.339989	-0.438174	0.392050
H176	H	-0.801803	-0.661525	0.157753
H177	H	-0.953940	-0.816208	0.312504
H178	H	-0.451579	-0.816162	0.312595
H179	H	-1.052978	-0.694977	0.191130
N180	N	-0.556273	-0.688000	0.184295
N181	N	-0.531880	-0.658173	0.154444
H182	H	-0.551560	-0.634063	0.130310
H183	H	-0.345967	-0.206256	0.346194
N184	N	-0.352868	-0.310953	0.353131
N185	N	-0.382667	-0.286565	0.383022
H186	H	-0.406749	-0.306249	0.407182
N187	N	-0.319524	-0.059781	0.319671
N188	N	-0.349320	-0.035395	0.349567
H189	H	-0.373399	-0.055082	0.373729
H190	H	-0.191496	-0.054115	0.191222
N191	N	-0.151188	-0.200595	0.150777
N192	N	-0.121393	-0.224985	0.120884
H193	H	-0.097311	-0.205302	0.096723
