data_functionalizedCrystal
_audit_creation_method	'MofGen! by Chris Wilmer'
_symmetry_space_group_name_H-M	'P1'
_symmetry_Int_Tables_number	1
_symmetry_cell_setting	triclinic
loop_
_symmetry_equiv_pos_as_xyz
  x,y,z
_cell_length_a	13.897448
_cell_length_b	18.215407
_cell_length_c	18.215399
_cell_angle_alpha	90.014769
_cell_angle_beta	89.971263
_cell_angle_gamma	89.986687
loop_
_atom_site_label
_atom_site_type_symbol
_atom_site_fract_x
_atom_site_fract_y
_atom_site_fract_z
Zn1	Zn	-0.384115	-1.125087	-0.416084
Zn2	Zn	-0.134115	-0.875087	-0.166084
Zn3	Zn	0.115885	-0.625087	0.083916
Zn4	Zn	0.365885	-0.375087	0.333916
Zn5	Zn	-0.545431	-1.125017	-0.293021
Zn6	Zn	-0.295431	-0.875017	-0.043021
Zn7	Zn	-0.045431	-0.625017	0.206979
Zn8	Zn	0.204569	-0.375017	0.456979
Zn9	Zn	-0.384139	-1.002026	-0.293036
Zn10	Zn	-0.134139	-0.752026	-0.043036
Zn11	Zn	0.115861	-0.502026	0.206964
Zn12	Zn	0.365861	-0.252026	0.456964
Zn13	Zn	-0.545357	-1.002001	-0.416050
Zn14	Zn	-0.295357	-0.752001	-0.166050
Zn15	Zn	-0.045357	-0.502001	0.083950
Zn16	Zn	0.204643	-0.252001	0.333950
O17	O	-0.464760	-1.063533	-0.354548
O18	O	-0.214760	-0.813533	-0.104548
O19	O	0.035240	-0.563533	0.145452
O20	O	0.285240	-0.313533	0.395452
O21	O	-0.405534	-1.228062	-0.399767
O22	O	-0.155534	-0.978062	-0.149767
O23	O	0.094466	-0.728062	0.100233
O24	O	0.344466	-0.478062	0.350233
O25	O	-0.524077	-1.108683	-0.190039
O26	O	-0.274077	-0.858683	0.059961
O27	O	-0.024077	-0.608683	0.309961
O28	O	0.225923	-0.358683	0.559961
O29	O	-0.249154	-1.018390	-0.309378
O30	O	0.000846	-0.768390	-0.059378
O31	O	0.250846	-0.518390	0.190622
O32	O	0.500846	-0.268390	0.440622
O33	O	-0.524053	-1.228011	-0.309353
O34	O	-0.274053	-0.978011	-0.059353
O35	O	-0.024053	-0.728011	0.190647
O36	O	0.225947	-0.478011	0.440647
O37	O	-0.249136	-1.108802	-0.399781
O38	O	0.000864	-0.858802	-0.149781
O39	O	0.250864	-0.608802	0.100219
O40	O	0.500864	-0.358802	0.350219
O41	O	-0.405576	-1.018322	-0.190049
O42	O	-0.155576	-0.768322	0.059951
O43	O	0.094424	-0.518322	0.309951
O44	O	0.344424	-0.268322	0.559951
O45	O	-0.405505	-0.899038	-0.309346
O46	O	-0.155505	-0.649038	-0.059346
O47	O	0.094495	-0.399038	0.190654
O48	O	0.344495	-0.149038	0.440654
O49	O	-0.523926	-1.018347	-0.519039
O50	O	-0.273926	-0.768347	-0.269039
O51	O	-0.023926	-0.518347	-0.019039
O52	O	0.226074	-0.268347	0.230961
O53	O	-0.523950	-0.899020	-0.399724
O54	O	-0.273950	-0.649020	-0.149724
O55	O	-0.023950	-0.399020	0.100276
O56	O	0.226050	-0.149020	0.350276
O57	O	-0.405462	-1.108778	-0.519064
O58	O	-0.155462	-0.858778	-0.269064
O59	O	0.094538	-0.608778	-0.019064
O60	O	0.344538	-0.358778	0.230936
O61	O	-0.680403	-1.108659	-0.309321
O62	O	-0.430403	-0.858659	-0.059321
O63	O	-0.180403	-0.608659	0.190679
O64	O	0.069597	-0.358659	0.440679
O65	O	-0.680348	-1.018279	-0.399710
O66	O	-0.430348	-0.768279	-0.149710
O67	O	-0.180348	-0.518279	0.100290
O68	O	0.069652	-0.268279	0.350290
C69	C	-0.464723	-0.872326	-0.354533
C70	C	-0.214723	-0.622326	-0.104533
C71	C	0.035277	-0.372326	0.145467
C72	C	0.285277	-0.122326	0.395467
C73	C	-0.464730	-0.790528	-0.354545
C74	C	-0.214730	-0.540528	-0.104545
C75	C	0.035270	-0.290528	0.145455
C76	C	0.285270	-0.040528	0.395455
C77	C	-0.403137	-0.602359	-0.401696
C78	C	-0.153137	-0.352359	-0.151696
C79	C	0.096863	-0.102359	0.098304
C80	C	0.346863	0.147641	0.348304
C81	C	-0.403142	-0.525500	-0.401698
C82	C	-0.153142	-0.275500	-0.151698
C83	C	0.096858	-0.025500	0.098302
C84	C	0.346858	0.224500	0.348302
C85	C	-0.526370	-0.525458	-0.307405
C86	C	-0.276370	-0.275458	-0.057405
C87	C	-0.026370	-0.025458	0.192595
C88	C	0.223630	0.224542	0.442595
C89	C	-0.526359	-0.602315	-0.307400
C90	C	-0.276359	-0.352315	-0.057400
C91	C	-0.026359	-0.102315	0.192600
C92	C	0.223641	0.147685	0.442600
C93	C	-0.464744	-0.640764	-0.354550
C94	C	-0.214744	-0.390764	-0.104550
C95	C	0.035256	-0.140764	0.145450
C96	C	0.285256	0.109236	0.395450
C97	C	-0.464760	-0.487048	-0.354557
C98	C	-0.214760	-0.237048	-0.104557
C99	C	0.035240	0.012952	0.145443
C100	C	0.285240	0.262952	0.395443
C101	C	-0.464766	-0.403714	-0.354558
C102	C	-0.214766	-0.153714	-0.104558
C103	C	0.035234	0.096286	0.145442
C104	C	0.285234	0.346286	0.395442
C105	C	-0.464737	-0.724103	-0.354547
C106	C	-0.214737	-0.474103	-0.104547
C107	C	0.035263	-0.224103	0.145453
C108	C	0.285263	0.025897	0.395453
C109	C	-0.715375	-1.063479	-0.354526
C110	C	-0.465375	-0.813479	-0.104526
C111	C	-0.215375	-0.563479	0.145474
C112	C	0.034625	-0.313479	0.395474
C113	C	-0.822589	-1.063523	-0.354542
C114	C	-0.572589	-0.813523	-0.104542
C115	C	-0.322589	-0.563523	0.145458
C116	C	-0.072589	-0.313523	0.395458
C117	C	-1.018884	-1.063601	-0.354588
C118	C	-0.768884	-0.813601	-0.104588
C119	C	-0.518884	-0.563601	0.145412
C120	C	-0.268884	-0.313601	0.395412
C121	C	-0.909651	-1.063556	-0.354565
C122	C	-0.659651	-0.813556	-0.104565
C123	C	-0.409651	-0.563556	0.145435
C124	C	-0.159651	-0.313556	0.395435
C125	C	-0.213168	-1.063607	-0.354585
C126	C	0.036832	-0.813607	-0.104585
C127	C	0.286832	-0.563607	0.145415
C128	C	0.536832	-0.313607	0.395415
C129	C	-0.105954	-1.063638	-0.354601
C130	C	0.144046	-0.813638	-0.104601
C131	C	0.394046	-0.563638	0.145399
C132	C	0.644046	-0.313638	0.395399
C133	C	-0.464683	-1.063567	-0.546501
C134	C	-0.214683	-0.813567	-0.296501
C135	C	0.035317	-0.563567	-0.046501
C136	C	0.285317	-0.313567	0.203499
C137	C	-0.464651	-1.063582	-0.628300
C138	C	-0.214651	-0.813582	-0.378300
C139	C	0.035349	-0.563582	-0.128300
C140	C	0.285349	-0.313582	0.121700
C141	C	-0.464788	-0.255486	-0.354561
C142	C	-0.214788	-0.005486	-0.104561
C143	C	0.035212	0.244514	0.145439
C144	C	0.285212	0.494514	0.395439
C145	C	-0.464774	-0.337284	-0.354562
C146	C	-0.214774	-0.087284	-0.104562
C147	C	0.035226	0.162716	0.145438
C148	C	0.285226	0.412716	0.395438
C149	C	-0.402906	-1.016571	-0.816500
C150	C	-0.152906	-0.766571	-0.566500
C151	C	0.097094	-0.516571	-0.316500
C152	C	0.347094	-0.266571	-0.066500
C153	C	-0.402886	-1.016584	-0.893359
C154	C	-0.152886	-0.766584	-0.643359
C155	C	0.097114	-0.516584	-0.393359
C156	C	0.347114	-0.266584	-0.143359
C157	C	-0.526280	-1.110682	-0.893337
C158	C	-0.276280	-0.860682	-0.643337
C159	C	-0.026280	-0.610682	-0.393337
C160	C	0.223720	-0.360682	-0.143337
C161	C	-0.526304	-1.110664	-0.816480
C162	C	-0.276304	-0.860664	-0.566480
C163	C	-0.026304	-0.610664	-0.316480
C164	C	0.223696	-0.360664	-0.066480
C165	C	-0.464611	-1.063610	-0.778063
C166	C	-0.214611	-0.813610	-0.528063
C167	C	0.035389	-0.563610	-0.278063
C168	C	0.285389	-0.313610	-0.028063
C169	C	-0.464568	-1.063640	-0.931779
C170	C	-0.214568	-0.813640	-0.681779
C171	C	0.035432	-0.563640	-0.431779
C172	C	0.285432	-0.313640	-0.181779
C173	C	-0.464548	-1.063654	-1.015113
C174	C	-0.214548	-0.813654	-0.765113
C175	C	0.035452	-0.563654	-0.515113
C176	C	0.285452	-0.313654	-0.265113
C177	C	-0.464633	-1.063595	-0.694724
C178	C	-0.214633	-0.813595	-0.444724
C179	C	0.035367	-0.563595	-0.194724
C180	C	0.285367	-0.313595	0.055276
C181	C	-0.464768	-1.063540	-0.163341
C182	C	-0.214768	-0.813540	0.086659
C183	C	0.035232	-0.563540	0.336659
C184	C	0.285232	-0.313540	0.586659
C185	C	-0.464529	-1.063668	-0.081543
C186	C	-0.214529	-0.813668	0.168457
C187	C	0.035471	-0.563668	0.418457
C188	C	0.285471	-0.313668	0.668457
H189	H	-0.352973	-0.494235	-0.440088
H190	H	-0.102973	-0.244235	-0.190088
H191	H	0.147027	0.005765	0.059912
H192	H	0.397027	0.255765	0.309912
C193	C	-0.594134	-0.644564	-0.255539
C194	C	-0.344134	-0.394564	-0.005539
C195	C	-0.094134	-0.144564	0.244461
C196	C	0.155866	0.105436	0.494461
H197	H	-0.630841	-0.610659	-0.227466
H198	H	-0.380841	-0.360659	0.022534
H199	H	-0.130841	-0.110659	0.272534
H200	H	0.119159	0.139341	0.522534
H201	H	-0.557181	-0.674540	-0.223520
H202	H	-0.307181	-0.424540	0.026480
H203	H	-0.057181	-0.174540	0.276480
H204	H	0.192819	0.075460	0.526480
H205	H	-0.636204	-0.674549	-0.283640
H206	H	-0.386204	-0.424549	-0.033640
H207	H	-0.136204	-0.174549	0.216360
H208	H	0.113796	0.075451	0.466360
H209	H	-0.352672	-0.978256	-0.785224
H210	H	-0.102672	-0.728256	-0.535224
H211	H	0.147328	-0.478256	-0.285224
H212	H	0.397328	-0.228256	-0.035224
C213	C	-0.594149	-0.483162	-0.255551
C214	C	-0.344149	-0.233162	-0.005551
C215	C	-0.094149	0.016838	0.244449
C216	C	0.155851	0.266838	0.494449
H217	H	-0.585341	-0.431888	-0.262311
H218	H	-0.335341	-0.181888	-0.012311
H219	H	-0.085341	0.068112	0.237689
H220	H	0.164659	0.318112	0.487689
H221	H	-0.579957	-0.495742	-0.206121
H222	H	-0.329957	-0.245742	0.043879
H223	H	-0.079957	0.004258	0.293879
H224	H	0.170043	0.254258	0.543879
H225	H	-0.658977	-0.495758	-0.266243
H226	H	-0.408977	-0.245758	-0.016243
H227	H	-0.158977	0.004242	0.233757
H228	H	0.091023	0.254242	0.483757
C229	C	-0.335006	-0.964844	-0.935636
C230	C	-0.085006	-0.714844	-0.685636
C231	C	0.164994	-0.464844	-0.435636
C232	C	0.414994	-0.214844	-0.185636
H233	H	-0.298266	-0.936824	-0.901747
H234	H	-0.048266	-0.686824	-0.651747
H235	H	0.201734	-0.436824	-0.401747
H236	H	0.451734	-0.186824	-0.151747
H237	H	-0.371886	-0.932773	-0.965609
H238	H	-0.121886	-0.682773	-0.715609
H239	H	0.128114	-0.432773	-0.465609
H240	H	0.378114	-0.182773	-0.215609
H241	H	-0.292972	-0.993019	-0.965628
H242	H	-0.042972	-0.743019	-0.715628
H243	H	0.207028	-0.493019	-0.465628
H244	H	0.457028	-0.243019	-0.215628
H245	H	-0.576508	-1.148992	-0.924625
H246	H	-0.326508	-0.898992	-0.674625
H247	H	-0.076508	-0.648992	-0.424625
H248	H	0.173492	-0.398992	-0.174625
C249	C	-0.335356	-0.644650	-0.453553
C250	C	-0.085356	-0.394650	-0.203553
C251	C	0.164644	-0.144650	0.046447
C252	C	0.414644	0.105350	0.296447
H253	H	-0.298660	-0.610767	-0.481626
H254	H	-0.048660	-0.360767	-0.231626
H255	H	0.201340	-0.110767	0.018374
H256	H	0.451340	0.139233	0.268374
H257	H	-0.372297	-0.674640	-0.485569
H258	H	-0.122297	-0.424640	-0.235569
H259	H	0.127703	-0.174640	0.014431
H260	H	0.377703	0.075360	0.264431
H261	H	-0.293276	-0.674626	-0.425448
H262	H	-0.043276	-0.424626	-0.175448
H263	H	0.206724	-0.174626	0.074552
H264	H	0.456724	0.075374	0.324552
H265	H	-0.576556	-1.148971	-0.785183
H266	H	-0.326556	-0.898971	-0.535183
H267	H	-0.076556	-0.648971	-0.285183
H268	H	0.173444	-0.398971	-0.035183
