data_functionalizedCrystal
_audit_creation_method	'MofGen! by Chris Wilmer'
_symmetry_space_group_name_H-M	'P1'
_symmetry_Int_Tables_number	1
_symmetry_cell_setting	triclinic
loop_
_symmetry_equiv_pos_as_xyz
  x,y,z
_cell_length_a	13.897449
_cell_length_b	12.594516
_cell_length_c	13.897441
_cell_angle_alpha	90.026377
_cell_angle_beta	90.020733
_cell_angle_gamma	90.017332
loop_
_atom_site_label
_atom_site_type_symbol
_atom_site_fract_x
_atom_site_fract_y
_atom_site_fract_z
Zn1	Zn	1.474714	-0.423672	0.545409
Zn2	Zn	1.808047	-0.090338	0.878743
Zn3	Zn	2.141380	0.242995	1.212076
Zn4	Zn	1.474612	-0.601683	0.384123
Zn5	Zn	1.807946	-0.268349	0.717456
Zn6	Zn	2.141279	0.064984	1.050789
Zn7	Zn	1.313403	-0.423722	0.384128
Zn8	Zn	1.646736	-0.090389	0.717461
Zn9	Zn	1.980069	0.242944	1.050795
Zn10	Zn	1.313389	-0.601613	0.545375
Zn11	Zn	1.646722	-0.268279	0.878709
Zn12	Zn	1.980056	0.065054	1.212042
O13	O	1.394029	-0.512672	0.464759
O14	O	1.727363	-0.179339	0.798092
O15	O	2.060696	0.153994	1.131426
O16	O	1.609682	-0.447293	0.524027
O17	O	1.943015	-0.113960	0.857360
O18	O	2.276348	0.219373	1.190693
O19	O	1.453191	-0.578126	0.249142
O20	O	1.786524	-0.244793	0.582475
O21	O	2.119857	0.088540	0.915808
O22	O	1.334849	-0.274770	0.405539
O23	O	1.668182	0.058563	0.738872
O24	O	2.001516	0.391897	1.072205
O25	O	1.609607	-0.578077	0.405530
O26	O	1.942941	-0.244744	0.738863
O27	O	2.276274	0.088590	1.072197
O28	O	1.453364	-0.274733	0.524032
O29	O	1.786697	0.058601	0.857365
O30	O	2.120030	0.391934	1.190698
O31	O	1.334751	-0.447380	0.249145
O32	O	1.668084	-0.114046	0.582479
O33	O	2.001417	0.219287	0.915812
O34	O	1.178419	-0.447312	0.405506
O35	O	1.511753	-0.113979	0.738839
O36	O	1.845086	0.219355	1.072172
O37	O	1.334826	-0.577958	0.680362
O38	O	1.668159	-0.244625	1.013695
O39	O	2.001492	0.088709	1.347028
O40	O	1.178409	-0.578007	0.523973
O41	O	1.511743	-0.244674	0.857307
O42	O	1.845076	0.088660	1.190640
O43	O	1.453350	-0.447226	0.680387
O44	O	1.786684	-0.113892	1.013720
O45	O	2.120017	0.219441	1.347053
O46	O	1.453177	-0.750619	0.405497
O47	O	1.786511	-0.417286	0.738830
O48	O	2.119844	-0.083952	1.072164
O49	O	1.334728	-0.750568	0.523968
O50	O	1.668061	-0.417234	0.857302
O51	O	2.001394	-0.083901	1.190635
C52	C	1.143415	-0.512658	0.464737
C53	C	1.476748	-0.179325	0.798070
C54	C	1.810082	0.154008	1.131404
C55	C	1.036201	-0.512678	0.464750
C56	C	1.369534	-0.179344	0.798084
C57	C	1.702868	0.153989	1.131417
C58	C	0.839906	-0.512682	0.464776
C59	C	1.173239	-0.179348	0.798109
C60	C	1.506573	0.153985	1.131442
C61	C	0.949139	-0.512676	0.464759
C62	C	1.282472	-0.179343	0.798092
C63	C	1.615805	0.153990	1.131426
C64	C	1.393966	-0.789213	0.464749
C65	C	1.727300	-0.455880	0.798083
C66	C	2.060633	-0.122547	1.131416
C67	C	1.394027	-0.907519	0.464778
C68	C	1.727361	-0.574185	0.798111
C69	C	2.060694	-0.240852	1.131444
C70	C	1.329596	-0.976783	0.529169
C71	C	1.662930	-0.643449	0.862502
C72	C	1.996263	-0.310116	1.195836
C73	C	1.306093	-1.047649	0.441152
C74	C	1.639426	-0.714316	0.774485
C75	C	1.972759	-0.380982	1.107819
C76	C	1.417619	-1.047452	0.552810
C77	C	1.750952	-0.714118	0.886143
C78	C	2.084285	-0.380785	1.219476
C79	C	1.370477	-0.976827	0.376714
C80	C	1.703811	-0.643494	0.710047
C81	C	2.037144	-0.310160	1.043381
C82	C	1.482044	-0.976623	0.488431
C83	C	1.815378	-0.643290	0.821764
C84	C	2.148711	-0.309957	1.155098
C85	C	1.458574	-1.047457	0.400353
C86	C	1.791908	-0.714124	0.733687
C87	C	2.125241	-0.380791	1.067020
C88	C	1.645622	-0.512687	0.464781
C89	C	1.978956	-0.179354	0.798115
C90	C	2.312289	0.153979	1.131448
C91	C	1.752836	-0.512694	0.464791
C92	C	2.086170	-0.179360	0.798124
C93	C	2.419503	0.153973	1.131458
C94	C	1.394098	-0.512578	0.716352
C95	C	1.727431	-0.179245	1.049685
C96	C	2.060765	0.154088	1.383019
C97	C	1.394127	-0.512538	0.823566
C98	C	1.727460	-0.179205	1.156899
C99	C	2.060794	0.154128	1.490233
C100	C	1.394119	-0.235052	0.464789
C101	C	1.727452	0.098282	0.798123
C102	C	2.060786	0.431615	1.131456
C103	C	1.394157	-0.116746	0.464802
C104	C	1.727491	0.216587	0.798136
C105	C	2.060824	0.549921	1.131469
C106	C	1.394017	-0.512689	0.214145
C107	C	1.727350	-0.179356	0.547478
C108	C	2.060683	0.153977	0.880811
C109	C	1.394174	-0.512430	0.106931
C110	C	1.727508	-0.179096	0.440264
C111	C	2.060841	0.154237	0.773598
C112	C	1.394153	-0.512466	1.019861
C113	C	1.727487	-0.179133	1.353195
C114	C	2.060820	0.154200	1.686528
C115	C	1.394136	-0.512509	0.910629
C116	C	1.727469	-0.179176	1.243962
C117	C	2.060802	0.154157	1.577295
H118	H	1.275011	-0.945749	0.583543
H119	H	1.608345	-0.612416	0.916877
H120	H	1.941678	-0.279083	1.250210
H121	H	1.350490	-0.945932	0.302256
H122	H	1.683824	-0.612599	0.635589
H123	H	2.017157	-0.279265	0.968923
H124	H	1.513117	-1.078294	0.345847
H125	H	1.846451	-0.744961	0.679181
H126	H	2.179784	-0.411628	1.012514
H127	H	1.437520	-1.078475	0.627247
H128	H	1.770853	-0.745141	0.960581
H129	H	2.104186	-0.411808	1.293914
H130	H	1.231719	-1.078870	0.421166
H131	H	1.565052	-0.745537	0.754500
H132	H	1.898386	-0.412203	1.087833
H133	H	1.556401	-0.945405	0.508459
H134	H	1.889734	-0.612072	0.841792
H135	H	2.223068	-0.278738	1.175126
