data_functionalizedCrystal
_audit_creation_method	'MofGen! by Chris Wilmer'
_symmetry_space_group_name_H-M	'P1'
_symmetry_Int_Tables_number	1
_symmetry_cell_setting	triclinic
loop_
_symmetry_equiv_pos_as_xyz
  x,y,z
_cell_length_a	15.944551
_cell_length_b	19.288840
_cell_length_c	18.366186
_cell_angle_alpha	89.983729
_cell_angle_beta	90.001349
_cell_angle_gamma	96.687623
loop_
_atom_site_label
_atom_site_type_symbol
_atom_site_fract_x
_atom_site_fract_y
_atom_site_fract_z
O1	O	-0.104683	0.921640	-0.060664
O2	O	0.145317	1.171640	0.189336
O3	O	0.395317	1.421640	0.439336
O4	O	0.645317	1.671640	0.689336
O5	O	-0.118840	0.719414	-0.060637
O6	O	0.131160	0.969414	0.189363
O7	O	0.381160	1.219414	0.439363
O8	O	0.631160	1.469414	0.689363
O9	O	0.010535	0.826049	-0.060655
O10	O	0.260535	1.076049	0.189345
O11	O	0.510535	1.326049	0.439345
O12	O	0.760535	1.576049	0.689345
O13	O	-0.234059	0.815004	-0.060645
O14	O	0.015941	1.065004	0.189355
O15	O	0.265941	1.315004	0.439355
O16	O	0.515941	1.565004	0.689355
O17	O	0.010541	0.826031	0.060444
O18	O	0.260541	1.076031	0.310444
O19	O	0.510541	1.326031	0.560444
O20	O	0.760541	1.576031	0.810444
O21	O	-0.118834	0.719396	0.060462
O22	O	0.131166	0.969396	0.310462
O23	O	0.381166	1.219396	0.560462
O24	O	0.631166	1.469396	0.810462
O25	O	-0.104677	0.921621	0.060436
O26	O	0.145323	1.171621	0.310436
O27	O	0.395323	1.421621	0.560436
O28	O	0.645323	1.671621	0.810436
Zn29	Zn	-0.111755	0.820506	0.079676
Zn30	Zn	0.138245	1.070506	0.329676
Zn31	Zn	0.388245	1.320506	0.579676
Zn32	Zn	0.638245	1.570506	0.829676
Zn33	Zn	-0.111763	0.820530	-0.079878
Zn34	Zn	0.138237	1.070530	0.170122
Zn35	Zn	0.388237	1.320530	0.420122
Zn36	Zn	0.638237	1.570530	0.670122
O37	O	-0.234052	0.814986	0.060454
O38	O	0.015948	1.064986	0.310454
O39	O	0.265948	1.314986	0.560454
O40	O	0.515948	1.564986	0.810454
C41	C	-0.118385	0.693527	-0.000084
C42	C	0.131615	0.943527	0.249916
C43	C	0.381615	1.193527	0.499916
C44	C	0.631615	1.443527	0.749916
C45	C	-0.117028	0.616419	-0.000075
C46	C	0.132972	0.866419	0.249925
C47	C	0.382972	1.116419	0.499925
C48	C	0.632972	1.366419	0.749925
C49	C	-0.116380	0.580223	-0.066088
C50	C	0.133620	0.830223	0.183912
C51	C	0.383620	1.080223	0.433912
C52	C	0.633620	1.330223	0.683912
C53	C	-0.115096	0.507773	-0.066097
C54	C	0.134904	0.757773	0.183903
C55	C	0.384904	1.007773	0.433903
C56	C	0.634904	1.257773	0.683903
C57	C	-0.114443	0.471523	-0.000089
C58	C	0.135557	0.721523	0.249911
C59	C	0.385557	0.971523	0.499911
C60	C	0.635557	1.221523	0.749911
C61	C	-0.115096	0.507726	0.065933
C62	C	0.134904	0.757726	0.315933
C63	C	0.384904	1.007726	0.565933
C64	C	0.634904	1.257726	0.815933
C65	C	-0.116389	0.580174	0.065940
C66	C	0.133611	0.830174	0.315940
C67	C	0.383611	1.080174	0.565940
C68	C	0.633611	1.330174	0.815940
C69	C	-0.063193	0.362052	0.050470
C70	C	0.186807	0.612052	0.300470
C71	C	0.436807	0.862052	0.550470
C72	C	0.686807	1.112052	0.800470
C73	C	-0.061895	0.289606	0.050460
C74	C	0.188105	0.539606	0.300460
C75	C	0.438105	0.789606	0.550460
C76	C	0.688105	1.039606	0.800460
C77	C	-0.110459	0.248069	-0.000108
C78	C	0.139541	0.498069	0.249892
C79	C	0.389541	0.748069	0.499892
C80	C	0.639541	0.998069	0.749892
C81	C	-0.160311	0.278987	-0.050679
C82	C	0.089689	0.528987	0.199321
C83	C	0.339689	0.778987	0.449321
C84	C	0.589689	1.028987	0.699321
C85	C	-0.161603	0.351435	-0.050672
C86	C	0.088397	0.601435	0.199328
C87	C	0.338397	0.851435	0.449328
C88	C	0.588397	1.101435	0.699328
C89	C	-0.113042	0.392965	-0.000089
C90	C	0.136958	0.642965	0.249911
C91	C	0.386958	0.892965	0.499911
C92	C	0.636958	1.142965	0.749911
C93	C	-0.108420	0.133314	-0.066135
C94	C	0.141580	0.383314	0.183865
C95	C	0.391580	0.633314	0.433865
C96	C	0.641580	0.883314	0.683865
C97	C	-0.107140	0.060862	-0.066142
C98	C	0.142860	0.310862	0.183858
C99	C	0.392860	0.560862	0.433858
C100	C	0.642860	0.810862	0.683858
C101	C	-0.107132	0.060818	0.065890
C102	C	0.142868	0.310818	0.315890
C103	C	0.392868	0.560818	0.565890
C104	C	0.642868	0.810818	0.815890
C105	C	-0.108420	0.133267	0.065894
C106	C	0.141580	0.383267	0.315894
C107	C	0.391580	0.633267	0.565894
C108	C	0.641580	0.883267	0.815894
C109	C	-0.109059	0.169512	-0.000120
C110	C	0.140941	0.419512	0.249880
C111	C	0.390941	0.669512	0.499880
C112	C	0.640941	0.919512	0.749880
C113	C	-0.265348	0.815454	-0.000095
C114	C	-0.015348	1.065454	0.249905
C115	C	0.234652	1.315454	0.499905
C116	C	0.484652	1.565454	0.749905
C117	C	-0.358588	0.816828	-0.000092
C118	C	-0.108588	1.066828	0.249908
C119	C	0.141412	1.316828	0.499908
C120	C	0.391412	1.566828	0.749908
C121	C	-0.573170	0.886212	-0.000112
C122	C	-0.323170	1.136212	0.249888
C123	C	-0.073170	1.386212	0.499888
C124	C	0.176830	1.636212	0.749888
C125	C	-0.634311	0.853983	0.059601
C126	C	-0.384311	1.103983	0.309601
C127	C	-0.134311	1.353983	0.559601
C128	C	0.115689	1.603983	0.809601
C129	C	-0.529304	0.819315	-0.000099
C130	C	-0.279304	1.069315	0.249901
C131	C	-0.029304	1.319315	0.499901
C132	C	0.220696	1.569315	0.749901
C133	C	-0.634303	0.853985	-0.059793
C134	C	-0.384303	1.103985	0.190207
C135	C	-0.134303	1.353985	0.440207
C136	C	0.115697	1.603985	0.690207
C137	C	-0.694207	0.821722	-0.000108
C138	C	-0.444207	1.071722	0.249892
C139	C	-0.194207	1.321722	0.499892
C140	C	0.055793	1.571722	0.749892
C141	C	-0.589217	0.787069	0.059664
C142	C	-0.339217	1.037069	0.309664
C143	C	-0.089217	1.287069	0.559664
C144	C	0.160783	1.537069	0.809664
C145	C	-0.589202	0.787080	-0.059784
C146	C	-0.339202	1.037080	0.190216
C147	C	-0.089202	1.287080	0.440216
C148	C	0.160798	1.537080	0.690216
C149	C	-0.650325	0.754803	-0.000057
C150	C	-0.400325	1.004803	0.249943
C151	C	-0.150325	1.254803	0.499943
C152	C	0.099675	1.504803	0.749943
C153	C	-0.434307	0.817930	-0.000092
C154	C	-0.184307	1.067930	0.249908
C155	C	0.065693	1.317930	0.499908
C156	C	0.315693	1.567930	0.749908
C157	C	-0.789203	0.823102	-0.000109
C158	C	-0.539203	1.073102	0.249891
C159	C	-0.289203	1.323102	0.499891
C160	C	-0.039203	1.573102	0.749891
C161	C	0.041830	0.825581	-0.000108
C162	C	0.291830	1.075581	0.249892
C163	C	0.541830	1.325581	0.499892
C164	C	0.791830	1.575581	0.749892
C165	C	0.135071	0.824207	-0.000116
C166	C	0.385071	1.074207	0.249884
C167	C	0.635071	1.324207	0.499884
C168	C	0.885071	1.574207	0.749884
C169	C	-0.105132	0.947508	-0.000119
C170	C	0.144868	1.197508	0.249881
C171	C	0.394868	1.447508	0.499881
C172	C	0.644868	1.697508	0.749881
C173	C	-0.106489	1.024617	-0.000133
C174	C	0.143511	1.274617	0.249867
C175	C	0.393511	1.524617	0.499867
C176	C	0.643511	1.774617	0.749867
N177	N	-0.111748	0.820494	0.188567
N178	N	0.138252	1.070494	0.438567
N179	N	0.388252	1.320494	0.688567
N180	N	0.638252	1.570494	0.938567
N181	N	-0.111762	0.820546	-0.188769
N182	N	0.138238	1.070546	0.061231
N183	N	0.388238	1.320546	0.311231
N184	N	0.638238	1.570546	0.561231
C185	C	-0.054489	0.867728	0.226660
C186	C	0.195511	1.117728	0.476660
C187	C	0.445511	1.367728	0.726660
C188	C	0.695511	1.617728	0.976660
C189	C	-0.054485	0.867732	0.302887
C190	C	0.195515	1.117732	0.552887
C191	C	0.445515	1.367732	0.802887
C192	C	0.695515	1.617732	1.052887
C193	C	-0.111755	0.820510	0.341020
C194	C	0.138245	1.070510	0.591020
C195	C	0.388245	1.320510	0.841020
C196	C	0.638245	1.570510	1.091020
C197	C	-0.169019	0.773267	0.302918
C198	C	0.080981	1.023267	0.552918
C199	C	0.330981	1.273267	0.802918
C200	C	0.580981	1.523267	1.052918
C201	C	-0.169015	0.773260	0.226692
C202	C	0.080985	1.023260	0.476692
C203	C	0.330985	1.273260	0.726692
C204	C	0.580985	1.523260	0.976692
C205	C	-0.188290	0.811413	0.461784
C206	C	0.061710	1.061413	0.711784
C207	C	0.311710	1.311413	0.961784
C208	C	0.561710	1.561413	1.211784
C209	C	-0.188294	0.811426	0.538009
C210	C	0.061706	1.061426	0.788009
C211	C	0.311706	1.311426	1.038009
C212	C	0.561706	1.561426	1.288009
C213	C	-0.111766	0.820530	0.576127
C214	C	0.138234	1.070530	0.826127
C215	C	0.388234	1.320530	1.076127
C216	C	0.638234	1.570530	1.326127
C217	C	-0.035229	0.829636	0.538012
C218	C	0.214771	1.079636	0.788012
C219	C	0.464771	1.329636	1.038012
C220	C	0.714771	1.579636	1.288012
C221	C	-0.035226	0.829628	0.461785
C222	C	0.214774	1.079628	0.711785
C223	C	0.464774	1.329628	0.961785
C224	C	0.714774	1.579628	1.211785
C225	C	-0.111765	0.820513	0.423675
C226	C	0.138235	1.070513	0.673675
C227	C	0.388235	1.320513	0.923675
C228	C	0.638235	1.570513	1.173675
C229	C	-0.054498	0.867771	0.696875
C230	C	0.195502	1.117771	0.946875
C231	C	0.445502	1.367771	1.196875
C232	C	0.695502	1.617771	1.446875
C233	C	-0.054493	0.867770	0.773104
C234	C	0.195507	1.117770	1.023104
C235	C	0.445507	1.367770	1.273104
C236	C	0.695507	1.617770	1.523104
C237	C	-0.169034	0.773308	0.773134
C238	C	0.080966	1.023308	1.023134
C239	C	0.330966	1.273308	1.273134
C240	C	0.580966	1.523308	1.523134
C241	C	-0.169031	0.773306	0.696906
C242	C	0.080969	1.023306	0.946906
C243	C	0.330969	1.273306	1.196906
C244	C	0.580969	1.523306	1.446906
C245	C	-0.111764	0.820540	0.658781
C246	C	0.138236	1.070540	0.908781
C247	C	0.388236	1.320540	1.158781
C248	C	0.638236	1.570540	1.408781
H249	H	-0.202196	0.376605	-0.091847
H250	H	0.047804	0.626605	0.158153
H251	H	0.297804	0.876605	0.408153
H252	H	0.547804	1.126605	0.658153
F253	F	-0.660420	0.890994	-0.125774
F254	F	-0.410420	1.140994	0.124226
F255	F	-0.160420	1.390994	0.374226
F256	F	0.089580	1.640994	0.624226
F257	F	-0.106457	0.022340	-0.136406
F258	F	0.143543	0.272340	0.113594
F259	F	0.393543	0.522340	0.363594
F260	F	0.643543	0.772340	0.613594
H261	H	-0.215661	0.734856	0.804180
H262	H	0.034339	0.984856	1.054180
H263	H	0.284339	1.234856	1.304180
H264	H	0.534339	1.484856	1.554180
H265	H	-0.569335	0.758789	0.110201
H266	H	-0.319335	1.008789	0.360201
H267	H	-0.069335	1.258789	0.610201
H268	H	0.180665	1.508789	0.860201
H269	H	-0.215648	0.734817	0.333970
H270	H	0.034352	0.984817	0.583970
H271	H	0.284352	1.234817	0.833970
H272	H	0.534352	1.484817	1.083970
F273	F	-0.212003	0.234785	-0.104500
F274	F	0.037997	0.484785	0.145500
F275	F	0.287997	0.734785	0.395500
F276	F	0.537997	0.984785	0.645500
H277	H	-0.007856	0.906197	0.333908
H278	H	0.242144	1.156197	0.583908
H279	H	0.492144	1.406197	0.833908
H280	H	0.742144	1.656197	1.083908
F281	F	-0.563039	0.750138	-0.125763
F282	F	-0.313039	1.000138	0.124237
F283	F	-0.063039	1.250138	0.374237
F284	F	0.186961	1.500138	0.624237
F285	F	-0.011502	0.406254	0.104297
F286	F	0.238498	0.656254	0.354297
F287	F	0.488498	0.906254	0.604297
F288	F	0.738498	1.156254	0.854297
H289	H	-0.215644	0.734796	0.195677
H290	H	0.034356	0.984796	0.445677
H291	H	0.284356	1.234796	0.695677
H292	H	0.534356	1.484796	0.945677
F293	F	-0.106445	0.022241	0.136141
F294	F	0.143555	0.272241	0.386141
F295	F	0.393555	0.522241	0.636141
F296	F	0.643555	0.772241	0.886141
F297	F	0.006458	0.918041	0.813646
F298	F	0.256458	1.168041	1.063646
F299	F	0.506458	1.418041	1.313646
F300	F	0.756458	1.668041	1.563646
F301	F	-0.229978	0.723036	0.656362
F302	F	0.020022	0.973036	0.906362
F303	F	0.270022	1.223036	1.156362
F304	F	0.520022	1.473036	1.406362
F305	F	-0.109106	0.171890	-0.136393
F306	F	0.140894	0.421890	0.113607
F307	F	0.390894	0.671890	0.363607
F308	F	0.640894	0.921890	0.613607
H309	H	0.027093	0.837041	0.430754
H310	H	0.277093	1.087041	0.680754
H311	H	0.527093	1.337041	0.930754
H312	H	0.777093	1.587041	1.180754
F313	F	-0.660450	0.890957	0.125574
F314	F	-0.410450	1.140957	0.375574
F315	F	-0.160450	1.390957	0.625574
F316	F	0.089550	1.640957	0.875574
F317	F	-0.693949	0.682160	-0.000010
F318	F	-0.443949	0.932160	0.249990
F319	F	-0.193949	1.182160	0.499990
F320	F	0.056051	1.432160	0.749990
F321	F	-0.117063	0.618793	-0.136347
F322	F	0.132937	0.868793	0.113653
F323	F	0.382937	1.118793	0.363653
F324	F	0.632937	1.368793	0.613653
H325	H	-0.114567	0.478206	0.119677
H326	H	0.135433	0.728206	0.369677
H327	H	0.385433	0.978206	0.619677
H328	H	0.635433	1.228206	0.869677
F329	F	0.006462	0.917996	0.186086
F330	F	0.256462	1.167996	0.436086
F331	F	0.506462	1.417996	0.686086
F332	F	0.756462	1.667996	0.936086
H333	H	-0.116918	0.609644	0.119698
H334	H	0.133082	0.859644	0.369698
H335	H	0.383082	1.109644	0.619698
H336	H	0.633082	1.359644	0.869698
F337	F	-0.269750	0.801739	0.578568
F338	F	-0.019750	1.051739	0.828568
F339	F	0.230250	1.301739	1.078568
F340	F	0.480250	1.551739	1.328568
F341	F	0.046225	0.839330	0.578574
F342	F	0.296225	1.089330	0.828574
F343	F	0.546225	1.339330	1.078574
F344	F	0.796225	1.589330	1.328574
F345	F	-0.109106	0.171791	0.136156
F346	F	0.140894	0.421791	0.386156
F347	F	0.390894	0.671791	0.636156
F348	F	0.640894	0.921791	0.886156
F349	F	-0.114406	0.469243	-0.136360
F350	F	0.135594	0.719243	0.113640
F351	F	0.385594	0.969243	0.363640
F352	F	0.635594	1.219243	0.613640
F353	F	-0.008855	0.256706	0.104293
F354	F	0.241145	0.506706	0.354293
F355	F	0.491145	0.756706	0.604293
F356	F	0.741145	1.006706	0.854293
F357	F	0.006454	0.918039	0.656299
F358	F	0.256454	1.168039	0.906299
F359	F	0.506454	1.418039	1.156299
F360	F	0.756454	1.668039	1.406299
H361	H	-0.250613	0.803987	0.430754
H362	H	-0.000613	1.053987	0.680754
H363	H	0.249387	1.303987	0.930754
H364	H	0.499387	1.553987	1.180754
H365	H	-0.539644	0.941739	-0.000060
H366	H	-0.289644	1.191739	0.249940
H367	H	-0.039644	1.441739	0.499940
H368	H	0.210356	1.691739	0.749940
