data_functionalizedCrystal
_audit_creation_method	'MofGen! by Chris Wilmer'
_symmetry_space_group_name_H-M	'P1'
_symmetry_Int_Tables_number	1
_symmetry_cell_setting	triclinic
loop_
_symmetry_equiv_pos_as_xyz
  x,y,z
_cell_length_a	15.995350
_cell_length_b	23.532407
_cell_length_c	15.072220
_cell_angle_alpha	89.994175
_cell_angle_beta	89.991149
_cell_angle_gamma	83.170526
loop_
_atom_site_label
_atom_site_type_symbol
_atom_site_fract_x
_atom_site_fract_y
_atom_site_fract_z
O1	O	1.110385	0.073404	-0.073717
O2	O	0.866535	0.082469	-0.073736
O3	O	0.995813	-0.004967	-0.073710
O4	O	0.981107	0.160840	-0.073743
O5	O	0.995781	-0.004962	0.073856
O6	O	0.866503	0.082474	0.073829
O7	O	1.110354	0.073409	0.073848
Zn8	Zn	0.988423	0.077942	0.097268
Zn9	Zn	0.988465	0.077935	-0.097155
O10	O	0.981075	0.160845	0.073822
C11	C	0.835327	0.082096	0.000044
C12	C	0.742386	0.080973	0.000038
C13	C	0.995423	-0.026182	0.000075
C14	C	0.994297	-0.089404	0.000082
C15	C	0.404672	0.076938	0.000057
C16	C	0.452624	0.014668	0.000399
C17	C	0.549305	0.015792	0.000060
C18	C	0.572216	0.078939	0.000048
C19	C	0.530892	0.109650	-0.084222
C20	C	0.434269	0.108086	-0.084286
C21	C	0.433883	0.109378	0.083523
C22	C	0.530828	0.109363	0.084631
C23	C	0.666904	0.080074	0.000040
C24	C	0.309984	0.075805	0.000059
C25	C	1.063739	-0.488239	0.000039
C26	C	1.062693	-0.547644	0.000032
O27	O	1.127067	-0.584141	0.000004
N28	N	0.985837	-0.570566	0.000027
C29	C	0.910022	-0.534080	0.000019
O30	O	0.844554	-0.559031	0.000013
C31	C	0.911069	-0.474677	0.000019
C32	C	0.987930	-0.451758	0.000034
C33	C	1.140594	-0.465320	0.000052
C34	C	1.141640	-0.405920	0.000061
C35	C	1.065830	-0.369439	0.000056
C36	C	0.988975	-0.392358	0.000042
C37	C	0.835255	-0.438192	0.000005
C38	C	0.836308	-0.378785	0.000005
C39	C	0.913169	-0.355867	0.000020
C40	C	0.914212	-0.296477	0.000046
N41	N	0.991068	-0.273555	0.000051
C42	C	1.066877	-0.310036	0.000056
C43	C	0.907829	-0.658831	0.000016
C44	C	0.906781	-0.718233	0.000022
C45	C	1.059453	-0.731793	0.000034
C46	C	1.060500	-0.672389	0.000034
C47	C	0.984685	-0.635909	0.000022
C48	C	1.069067	-0.185291	0.000075
C49	C	1.070106	-0.125885	0.000087
C50	C	0.917435	-0.112330	0.000071
C51	C	0.916396	-0.171731	0.000063
C52	C	0.992219	-0.208210	0.000062
O53	O	0.849872	-0.259945	0.000070
O54	O	1.132335	-0.285076	0.000051
C55	C	1.141561	0.073781	0.000066
C56	C	1.234502	0.074905	0.000067
C57	C	0.981465	0.182060	0.000035
C58	C	0.982591	0.245281	0.000023
N59	N	0.988401	0.077946	0.229957
N60	N	0.988494	0.077927	-0.229844
C61	C	0.988463	0.077933	0.589158
C62	C	0.919059	0.124562	0.551537
C63	C	0.919216	0.124732	0.448711
C64	C	0.988431	0.077940	0.410954
C65	C	1.075688	0.090918	0.448249
C66	C	1.075299	0.091250	0.551107
C67	C	0.971391	0.018188	0.551269
C68	C	0.969383	0.018587	0.448405
C69	C	0.988419	0.077942	0.310241
C70	C	0.988482	0.077932	0.689872
H71	H	0.577922	-0.008349	0.060468
C72	C	0.831128	0.114290	0.584971
H73	H	0.790141	0.142878	0.561510
H74	H	0.829979	0.116015	0.647933
H75	H	0.819006	0.077636	0.566079
H76	H	1.128547	0.057860	0.423791
C77	C	0.933509	0.184120	0.586422
H78	H	0.981657	0.180693	0.623812
H79	H	0.885581	0.199976	0.619163
H80	H	0.942224	0.208431	0.537807
H81	H	1.090419	0.134821	0.575081
H82	H	1.091182	0.133993	0.422473
H83	H	1.128531	0.058627	0.575992
C84	C	0.831573	0.114297	0.414644
H85	H	0.795550	0.109918	0.463668
H86	H	0.836447	0.080552	0.379514
H87	H	0.808640	0.145994	0.379747
H88	H	0.844194	-0.736887	0.000026
H89	H	0.434296	-0.010221	0.060832
C90	C	0.406354	0.081882	0.169812
H91	H	0.376787	0.050356	0.155739
H92	H	0.370647	0.109363	0.202706
H93	H	0.454651	0.068949	0.204217
C94	C	0.933878	0.184623	0.415443
H95	H	0.939770	0.208943	0.464791
H96	H	0.887251	0.200096	0.380458
H97	H	0.983676	0.181781	0.380565
C98	C	0.887320	0.001340	0.586338
H99	H	0.861843	0.030590	0.624419
H100	H	0.897391	-0.033565	0.618380
H101	H	0.850847	-0.003382	0.537843
H102	H	1.123087	-0.653734	0.000045
H103	H	0.559457	0.088316	-0.146929
H104	H	0.855713	-0.082617	0.000070
H105	H	0.416160	0.085686	-0.147271
C106	C	0.752910	-0.338660	-0.000005
H107	H	0.706990	-0.360821	-0.000007
H108	H	0.750154	-0.315199	-0.051461
H109	H	0.750129	-0.315211	0.051464
H110	H	0.544631	0.156043	-0.087364
C111	C	0.426450	-0.018810	-0.080771
H112	H	0.386428	0.004998	-0.114869
H113	H	0.402176	-0.051591	-0.061386
H114	H	0.474602	-0.030480	-0.116146
C115	C	0.587234	-0.017039	-0.081680
H116	H	0.543545	-0.031111	-0.114813
H117	H	0.626462	-0.048204	-0.062888
H118	H	0.615084	0.007951	-0.117781
C119	C	0.882679	0.005274	0.415479
H120	H	0.871517	-0.030682	0.438360
H121	H	0.882599	0.003996	0.352486
H122	H	0.840426	0.034293	0.435291
C123	C	0.390187	0.169842	-0.089487
H124	H	0.431356	0.195775	-0.091558
H125	H	0.355595	0.177706	-0.038679
H126	H	0.356427	0.174147	-0.141456
H127	H	0.401740	0.155290	0.084084
C128	C	0.750708	-0.463392	-0.000021
H129	H	0.760929	-0.503996	-0.000018
H130	H	0.719538	-0.450861	-0.051487
H131	H	0.719500	-0.450872	0.051438
C132	C	1.154654	-0.100675	0.000104
H133	H	1.144425	-0.060072	0.000117
H134	H	1.185861	-0.113192	-0.051352
H135	H	1.185831	-0.113204	0.051573
C136	C	1.033292	-0.030486	0.413703
H137	H	1.072606	-0.015350	0.375755
H138	H	1.004459	-0.056925	0.381596
H139	H	1.062258	-0.049450	0.462360
C140	C	1.142843	-0.771929	0.000023
H141	H	1.131205	-0.810589	0.000008
H142	H	1.174379	-0.764991	0.051480
H143	H	1.174381	-0.764976	-0.051445
C144	C	0.567956	0.079078	0.168852
H145	H	0.608515	0.048023	0.152546
H146	H	0.524172	0.065090	0.201949
H147	H	0.594109	0.105438	0.204014
C148	C	1.039764	-0.028689	0.584141
H149	H	1.078531	-0.011964	0.620778
H150	H	1.068696	-0.046672	0.534680
H151	H	1.014242	-0.056345	0.617264
C152	C	1.152470	-0.225410	0.000081
H153	H	1.198386	-0.203245	0.000099
H154	H	1.155259	-0.248862	-0.051378
H155	H	1.155225	-0.248867	0.051547
C156	C	0.831851	-0.196943	0.000045
H157	H	0.786853	-0.166706	0.000038
H158	H	0.828250	-0.219844	0.051494
H159	H	0.828288	-0.219823	-0.051431
H160	H	0.545809	0.155413	0.089712
C161	C	1.226187	-0.380717	0.000060
H162	H	1.271180	-0.410959	0.000051
H163	H	1.229772	-0.357828	0.051517
H164	H	1.229778	-0.357827	-0.051408
C165	C	1.223992	-0.505441	0.000065
H166	H	1.269906	-0.483275	0.000080
H167	H	1.226783	-0.528898	-0.051390
H168	H	1.226746	-0.528895	0.051535
C169	C	0.824428	-0.618706	0.000020
H170	H	0.778511	-0.640870	0.000024
H171	H	0.821664	-0.595246	-0.051437
H172	H	0.821651	-0.595257	0.051488
