data_functionalizedCrystal
_audit_creation_method	'MofGen! by Chris Wilmer'
_symmetry_space_group_name_H-M	'P1'
_symmetry_Int_Tables_number	1
_symmetry_cell_setting	triclinic
loop_
_symmetry_equiv_pos_as_xyz
  x,y,z
_cell_length_a	17.699083
_cell_length_b	16.992695
_cell_length_c	16.776229
_cell_angle_alpha	89.993259
_cell_angle_beta	89.998886
_cell_angle_gamma	86.975619
loop_
_atom_site_label
_atom_site_type_symbol
_atom_site_fract_x
_atom_site_fract_y
_atom_site_fract_z
O1	O	1.010251	0.099146	-0.066177
O2	O	1.343585	0.432479	0.267157
O3	O	1.676918	0.765812	0.600490
O4	O	0.790676	0.112045	-0.066203
O5	O	1.124009	0.445378	0.267131
O6	O	1.457343	0.778711	0.600464
O7	O	0.899583	-0.008546	-0.066184
O8	O	1.232917	0.324787	0.267150
O9	O	1.566250	0.658121	0.600483
O10	O	0.901344	0.219736	-0.066196
O11	O	1.234677	0.553069	0.267137
O12	O	1.568011	0.886403	0.600471
O13	O	0.899568	-0.008553	0.066393
O14	O	1.232901	0.324780	0.399726
O15	O	1.566234	0.658113	0.733060
O16	O	0.790660	0.112037	0.066374
O17	O	1.123994	0.445371	0.399707
O18	O	1.457327	0.778704	0.733040
O19	O	1.010235	0.099138	0.066400
O20	O	1.343569	0.432472	0.399733
O21	O	1.676902	0.765805	0.733066
Zn22	Zn	0.900445	0.105587	0.087436
Zn23	Zn	1.233779	0.438920	0.420769
Zn24	Zn	1.567112	0.772253	0.754103
Zn25	Zn	0.900466	0.105596	-0.087239
Zn26	Zn	1.233800	0.438930	0.246094
Zn27	Zn	1.567133	0.772263	0.579428
O28	O	0.901328	0.219729	0.066381
O29	O	1.234661	0.553062	0.399714
O30	O	1.567995	0.886395	0.733047
C31	C	0.762442	0.111579	0.000082
C32	C	1.095776	0.444912	0.333415
C33	C	1.429109	0.778245	0.666749
C34	C	0.678338	0.110192	0.000072
C35	C	1.011671	0.443525	0.333406
C36	C	1.345005	0.776859	0.666739
C37	C	0.634124	0.180976	0.000069
C38	C	0.967457	0.514310	0.333402
C39	C	1.300791	0.847643	0.666735
C40	C	0.555099	0.179669	0.000079
C41	C	0.888433	0.513002	0.333412
C42	C	1.221766	0.846335	0.666746
C43	C	0.520290	0.107576	0.000087
C44	C	0.853623	0.440910	0.333421
C45	C	1.186957	0.774243	0.666754
C46	C	0.564510	0.036787	0.000093
C47	C	0.897843	0.370120	0.333427
C48	C	1.231176	0.703453	0.666760
C49	C	0.643533	0.038095	0.000089
C50	C	0.976866	0.371428	0.333422
C51	C	1.310200	0.704762	0.666755
C52	C	0.245818	0.031509	0.000113
C53	C	0.579151	0.364842	0.333447
C54	C	0.912485	0.698175	0.666780
C55	C	0.166789	0.030206	0.000116
C56	C	0.500122	0.363539	0.333449
C57	C	0.833456	0.696872	0.666782
C58	C	0.157384	0.173082	0.000104
C59	C	0.490718	0.506416	0.333437
C60	C	0.824051	0.839749	0.666770
C61	C	0.236408	0.174391	0.000099
C62	C	0.569741	0.507724	0.333432
C63	C	0.903074	0.841057	0.666766
C64	C	0.280621	0.103602	0.000109
C65	C	0.613954	0.436935	0.333443
C66	C	0.947287	0.770268	0.666776
C67	C	0.366308	0.105020	0.000099
C68	C	0.699641	0.438354	0.333433
C69	C	1.032975	0.771687	0.666766
C70	C	0.434604	0.106157	0.000091
C71	C	0.767937	0.439490	0.333425
C72	C	1.101271	0.772823	0.666758
C73	C	0.897311	-0.037758	0.000104
C74	C	1.230644	0.295576	0.333438
C75	C	1.563977	0.628909	0.666771
C76	C	0.890554	-0.124789	0.000103
C77	C	1.223887	0.208544	0.333437
C78	C	1.557220	0.541878	0.666770
C79	C	0.955751	-0.175154	0.000112
C80	C	1.289085	0.158180	0.333445
C81	C	1.622418	0.491513	0.666779
C82	C	0.949398	-0.256928	0.000104
C83	C	1.282731	0.076405	0.333437
C84	C	1.616064	0.409738	0.666770
C85	C	0.877846	-0.288336	0.000092
C86	C	1.211179	0.044997	0.333426
C87	C	1.544512	0.378330	0.666759
C88	C	0.812643	-0.237965	0.000081
C89	C	1.145977	0.095368	0.333415
C90	C	1.479310	0.428701	0.666748
C91	C	0.818998	-0.156192	0.000084
C92	C	1.152331	0.177141	0.333417
C93	C	1.485664	0.510474	0.666751
C94	C	0.851510	-0.531884	0.000078
C95	C	1.184843	-0.198551	0.333412
C96	C	1.518176	0.134783	0.666745
C97	C	0.845160	-0.613663	0.000078
C98	C	1.178494	-0.280330	0.333411
C99	C	1.511827	0.053003	0.666745
C100	C	0.981915	-0.632621	0.000099
C101	C	1.315249	-0.299287	0.333432
C102	C	1.648582	0.034046	0.666765
C103	C	0.988263	-0.550845	0.000106
C104	C	1.321597	-0.217512	0.333440
C105	C	1.654930	0.115821	0.666773
C106	C	0.923061	-0.500481	0.000091
C107	C	1.256394	-0.167148	0.333424
C108	C	1.589728	0.166185	0.666758
N109	N	0.871350	-0.371923	0.000086
N110	N	1.204683	-0.038590	0.333420
N111	N	1.538016	0.294744	0.666753
N112	N	0.929558	-0.416897	0.000091
N113	N	1.262891	-0.083563	0.333425
N114	N	1.596224	0.249770	0.666758
C115	C	1.038469	0.099604	0.000113
C116	C	1.371803	0.432937	0.333446
C117	C	1.705136	0.766271	0.666780
C118	C	1.122574	0.100991	0.000118
C119	C	1.455907	0.434324	0.333451
C120	C	1.789240	0.767657	0.666784
C121	C	0.903601	0.248941	0.000091
C122	C	1.236934	0.582274	0.333424
C123	C	1.570267	0.915607	0.666758
C124	C	0.910358	0.335972	0.000087
C125	C	1.243691	0.669305	0.333420
C126	C	1.577025	1.002639	0.666753
N127	N	0.900437	0.105579	0.206647
N128	N	1.233770	0.438913	0.539981
N129	N	1.567103	0.772246	0.873314
N130	N	0.900481	0.105597	-0.206450
N131	N	1.233814	0.438931	0.126883
N132	N	1.567147	0.772264	0.460216
C133	C	0.948678	0.052204	0.248373
C134	C	1.282011	0.385537	0.581706
C135	C	1.615344	0.718870	0.915040
C136	C	0.948682	0.052203	0.331825
C137	C	1.282015	0.385536	0.665159
C138	C	1.615349	0.718870	0.998492
C139	C	0.900448	0.105582	0.373550
C140	C	1.233781	0.438916	0.706884
C141	C	1.567115	0.772249	1.040217
C142	C	0.852202	0.158961	0.331819
C143	C	1.185535	0.492294	0.665152
C144	C	1.518868	0.825627	0.998485
C145	C	0.852194	0.158957	0.248368
C146	C	1.185527	0.492290	0.581701
C147	C	1.518861	0.825624	0.915035
C148	C	0.852230	0.158976	0.668366
C149	C	1.185563	0.492309	1.001699
C150	C	1.518897	0.825643	1.335033
C151	C	0.852243	0.158977	0.751822
C152	C	1.185576	0.492311	1.085156
C153	C	1.518909	0.825644	1.418489
C154	C	0.948718	0.052222	0.751823
C155	C	1.282051	0.385556	1.085156
C156	C	1.615384	0.718889	1.418490
C157	C	0.948710	0.052219	0.668372
C158	C	1.282044	0.385552	1.001706
C159	C	1.615377	0.718885	1.335039
C160	C	0.900461	0.105594	0.626648
C161	C	1.233795	0.438927	0.959982
C162	C	1.567128	0.772260	1.293315
C163	C	0.900456	0.105593	0.536160
C164	C	1.233790	0.438926	0.869493
C165	C	1.567123	0.772259	1.202827
C166	C	0.900456	0.105588	0.464037
C167	C	1.233790	0.438921	0.797370
C168	C	1.567123	0.772254	1.130704
H169	H	0.662460	0.239682	0.000061
H170	H	0.995793	0.573016	0.333395
H171	H	1.329126	0.906349	0.666728
H172	H	0.812962	0.202447	0.785794
H173	H	1.146296	0.535780	1.119127
H174	H	1.479629	0.869113	1.452460
Br175	Br	0.763020	-0.463543	0.000053
Br176	Br	1.096353	-0.130210	0.333386
Br177	Br	1.429686	0.203124	0.666719
H178	H	0.281807	-0.026132	0.000122
H179	H	0.615140	0.307201	0.333456
H180	H	0.948474	0.640534	0.666789
H181	H	0.987989	0.008755	0.634402
H182	H	1.321322	0.342088	0.967736
H183	H	1.654656	0.675421	1.301069
Br184	Br	0.283645	0.272234	0.000080
Br185	Br	0.616978	0.605567	0.333414
Br186	Br	0.950312	0.938900	0.666747
Br187	Br	0.097377	0.269156	0.000091
Br188	Br	0.430710	0.602489	0.333424
Br189	Br	0.764044	0.935822	0.666757
H190	H	0.519103	0.237308	0.000075
H191	H	0.852437	0.570642	0.333409
H192	H	1.185770	0.903975	0.666742
Br193	Br	0.786753	0.231413	0.611745
Br194	Br	1.120086	0.564746	0.945078
Br195	Br	1.453420	0.898079	1.278411
Br196	Br	1.037885	-0.325278	0.000115
Br197	Br	1.371218	0.008055	0.333448
Br198	Br	1.704551	0.341388	0.666782
Br199	Br	1.014148	-0.020238	0.191755
Br200	Br	1.347481	0.313095	0.525088
Br201	Br	1.680814	0.646428	0.858422
H202	H	1.014017	-0.149588	0.000126
H203	H	1.347350	0.183745	0.333459
H204	H	1.680683	0.517079	0.666793
H205	H	0.765906	-0.115186	0.000077
H206	H	1.099240	0.218148	0.333410
H207	H	1.432573	0.551481	0.666744
Br208	Br	0.119548	-0.067641	0.000125
Br209	Br	0.452881	0.265693	0.333458
Br210	Br	0.786215	0.599026	0.666791
H211	H	0.812925	0.202421	0.365796
H212	H	1.146258	0.535754	0.699129
H213	H	1.479591	0.869087	1.032463
H214	H	1.046528	-0.525279	0.000115
H215	H	1.379862	-0.191946	0.333449
H216	H	1.713195	0.141387	0.666782
H217	H	1.034999	-0.673635	0.000110
H218	H	1.368333	-0.340302	0.333443
H219	H	1.701666	-0.006969	0.666776
H220	H	0.754384	-0.263544	0.000067
H221	H	1.087717	0.069789	0.333401
H222	H	1.421051	0.403122	0.666734
H223	H	0.812910	0.202420	0.214396
H224	H	1.146244	0.535753	0.547729
H225	H	1.479577	0.869086	0.881063
H226	H	0.536162	-0.021912	0.000112
H227	H	0.869495	0.311421	0.333445
H228	H	1.202828	0.644754	0.666778
H229	H	0.786891	-0.639232	0.000082
H230	H	1.120225	-0.305899	0.333415
H231	H	1.453558	0.027435	0.666748
H232	H	0.987963	0.008740	0.365798
H233	H	1.321296	0.342074	0.699131
H234	H	1.654630	0.675407	1.032464
Br235	Br	1.014199	-0.020218	0.808452
Br236	Br	1.347533	0.313115	1.141786
Br237	Br	1.680866	0.646448	1.475119
H238	H	0.679531	-0.019545	0.000091
H239	H	1.012865	0.313789	0.333424
H240	H	1.346198	0.647122	0.666758
