data_functionalizedCrystal
_audit_creation_method	'MofGen! by Chris Wilmer'
_symmetry_space_group_name_H-M	'P1'
_symmetry_Int_Tables_number	1
_symmetry_cell_setting	triclinic
loop_
_symmetry_equiv_pos_as_xyz
  x,y,z
_cell_length_a	19.288865
_cell_length_b	19.288840
_cell_length_c	18.366186
_cell_angle_alpha	89.983729
_cell_angle_beta	89.988521
_cell_angle_gamma	83.131131
loop_
_atom_site_label
_atom_site_type_symbol
_atom_site_fract_x
_atom_site_fract_y
_atom_site_fract_z
O1	O	0.086566	0.921364	-0.060680
O2	O	0.098273	0.719101	-0.060655
O3	O	-0.008712	0.826077	-0.060654
O4	O	0.193550	0.814388	-0.060681
O5	O	-0.008717	0.826059	0.060446
O6	O	0.098268	0.719083	0.060444
O7	O	0.086561	0.921346	0.060420
Zn8	Zn	0.092413	0.820211	0.079659
Zn9	Zn	0.092420	0.820235	-0.079895
O10	O	0.193545	0.814370	0.060418
C11	C	0.097896	0.693215	-0.000102
C12	C	0.096774	0.616110	-0.000093
C13	C	-0.034591	0.825692	-0.000102
C14	C	-0.111694	0.824563	-0.000095
C15	C	0.096238	0.579917	-0.066106
C16	C	0.095176	0.507470	-0.066114
C17	C	0.094636	0.471221	-0.000106
C18	C	0.095176	0.507423	0.065915
C19	C	0.096245	0.579868	0.065922
C20	C	0.052256	0.361886	0.050461
C21	C	0.051183	0.289443	0.050451
C22	C	0.091342	0.247778	-0.000125
C23	C	0.132566	0.278565	-0.050703
C24	C	0.133635	0.351009	-0.050697
C25	C	0.093477	0.392667	-0.000107
C26	C	0.089655	0.133029	-0.066152
C27	C	0.088598	0.060580	-0.066158
C28	C	0.088591	0.060535	0.065874
C29	C	0.089656	0.132982	0.065878
C30	C	0.090185	0.169225	-0.000137
C31	C	-0.156396	0.887331	-0.000099
C32	C	-0.228843	0.886270	-0.000111
C33	C	-0.256585	0.822438	-0.000103
C34	C	-0.211873	0.759661	-0.000104
C35	C	-0.139428	0.760723	-0.000100
C36	C	-0.364870	0.772251	0.042321
C37	C	-0.437314	0.771191	0.042321
C38	C	-0.480030	0.819158	-0.000119
C39	C	-0.450295	0.868196	-0.042551
C40	C	-0.377849	0.869259	-0.042547
C41	C	-0.335139	0.821278	-0.000108
C42	C	-0.603288	0.880781	-0.000137
C43	C	-0.675736	0.879717	-0.000153
C44	C	-0.658764	0.753106	-0.000138
C45	C	-0.586318	0.754171	-0.000130
C46	C	-0.558584	0.818010	-0.000125
C47	C	0.219424	0.814755	-0.000135
C48	C	0.296527	0.815884	-0.000147
C49	C	0.086937	0.947232	-0.000135
C50	C	0.088059	1.024336	-0.000149
N51	N	0.092408	0.820200	0.188550
N52	N	0.092420	0.820252	-0.188786
C53	C	0.045059	0.867584	0.226651
C54	C	0.045055	0.867589	0.302879
C55	C	0.092414	0.820215	0.341003
C56	C	0.139767	0.772822	0.302893
C57	C	0.139764	0.772814	0.226666
C58	C	0.155702	0.810917	0.461755
C59	C	0.155706	0.810930	0.537980
C60	C	0.092422	0.820235	0.576110
C61	C	0.029132	0.829543	0.538006
C62	C	0.029129	0.829535	0.461780
C63	C	0.092422	0.820218	0.423658
C64	C	0.045066	0.867627	0.696866
C65	C	0.045062	0.867627	0.773096
C66	C	0.139779	0.772863	0.773108
C67	C	0.139777	0.772860	0.696880
C68	C	0.092421	0.820246	0.658764
H69	H	0.096669	0.609421	-0.119860
Br70	Br	-0.565645	0.967417	-0.000124
H71	H	-0.022404	0.837112	0.430759
Br72	Br	0.189580	0.392790	-0.119333
Br73	Br	-0.019205	0.931933	0.645136
H74	H	0.006500	0.906211	0.804118
Br75	Br	0.094450	0.458339	-0.155710
H76	H	-0.681351	0.701132	-0.000136
H77	H	-0.265246	0.937386	-0.000117
Br78	Br	-0.002248	0.418425	0.119108
H79	H	-0.353642	0.909186	-0.077098
Br80	Br	0.204044	0.708563	0.824841
Br81	Br	-0.118760	0.973970	-0.000114
H82	H	-0.712132	0.930833	-0.000160
H83	H	-0.549920	0.703058	-0.000122
Br84	Br	0.087879	0.011457	-0.155756
H85	H	-0.461518	0.731258	0.076868
Br86	Br	0.087869	0.011347	0.155458
Br87	Br	-0.306904	0.707148	0.099925
Br88	Br	0.187073	0.222027	-0.119346
Br89	Br	0.241599	0.798306	0.589685
H90	H	0.006496	0.906176	0.333907
H91	H	0.090088	0.162452	0.119633
Br92	Br	-0.056759	0.842181	0.589744
Br93	Br	-0.508258	0.933300	-0.100153
H94	H	0.207239	0.803327	0.430716
Br95	Br	-0.249520	0.673029	-0.000103
Br96	Br	0.204042	0.708552	0.645165
H97	H	-0.103030	0.709608	-0.000096
Br98	Br	0.204035	0.708524	0.354629
Br99	Br	0.204028	0.708502	0.174953
Br100	Br	0.094452	0.458230	0.155499
H101	H	0.006497	0.906167	0.195619
Br102	Br	0.090378	0.182219	-0.155741
H103	H	0.017613	0.264383	0.091632
Br104	Br	0.096975	0.628991	0.155519
