data_functionalizedCrystal
_audit_creation_method	'MofGen! by Chris Wilmer'
_symmetry_space_group_name_H-M	'P1'
_symmetry_Int_Tables_number	1
_symmetry_cell_setting	triclinic
loop_
_symmetry_equiv_pos_as_xyz
  x,y,z
_cell_length_a	19.288864
_cell_length_b	15.072220
_cell_length_c	19.288865
_cell_angle_alpha	90.006383
_cell_angle_beta	83.136245
_cell_angle_gamma	90.026328
loop_
_atom_site_label
_atom_site_type_symbol
_atom_site_fract_x
_atom_site_fract_y
_atom_site_fract_z
O1	O	0.921357	0.074077	0.086643
O2	O	0.719096	0.074018	0.098332
O3	O	0.826071	0.074032	-0.008643
O4	O	0.814382	0.074063	0.193618
O5	O	0.826045	-0.073534	-0.008637
O6	O	0.719070	-0.073547	0.098338
O7	O	0.921331	-0.073488	0.086649
Zn8	Zn	0.820196	-0.096947	0.092494
Zn9	Zn	0.820231	0.097477	0.092486
O10	O	0.814356	-0.073502	0.193624
C11	C	0.693207	0.000227	0.097959
C12	C	0.616103	0.000204	0.096830
N13	N	0.820177	-0.229636	0.092499
C14	C	0.571407	0.000228	0.159598
C15	C	0.498960	0.000237	0.158537
C16	C	0.471212	0.000241	0.094705
C17	C	0.515918	0.000212	0.031929
C18	C	0.588364	0.000194	0.032991
C19	C	0.362959	0.051962	0.044523
C20	C	0.290515	0.051986	0.043464
C21	C	0.247767	0.000294	0.091425
C22	C	0.277470	-0.051410	0.140458
C23	C	0.349915	-0.051428	0.141521
C24	C	0.392658	0.000261	0.093546
C25	C	0.124514	0.000327	0.153047
C26	C	0.052066	0.000331	0.151984
C27	C	0.069026	0.000315	0.025374
C28	C	0.141473	0.000302	0.026439
C29	C	0.169212	0.000312	0.090278
C30	C	0.820229	-0.588837	0.092484
C31	C	0.762798	-0.551238	0.149533
C32	C	0.762929	-0.448412	0.149740
C33	C	0.820203	-0.410633	0.092492
C34	C	0.892628	-0.447900	0.108094
C35	C	0.892306	-0.550758	0.108499
C36	C	0.805882	-0.550954	0.019661
C37	C	0.804218	-0.448091	0.020152
C38	C	0.820193	-0.309920	0.092494
C39	C	0.820245	-0.689550	0.092482
C40	C	0.947220	0.000304	0.087022
C41	C	1.024324	0.000334	0.088151
C42	C	0.825682	0.000246	-0.034516
C43	C	0.824553	0.000238	-0.111620
N44	N	0.820255	0.230165	0.092476
C45	C	0.887321	0.000252	-0.156316
C46	C	0.886260	0.000266	-0.228763
C47	C	0.822428	0.000248	-0.256511
C48	C	0.759652	0.000239	-0.211805
C49	C	0.760714	0.000234	-0.139359
C50	C	0.772239	-0.051456	-0.364796
C51	C	0.771179	-0.051456	-0.437241
C52	C	0.819148	0.000267	-0.479956
C53	C	0.868189	0.051979	-0.450220
C54	C	0.869251	0.051974	-0.377775
C55	C	0.821269	0.000254	-0.335065
C56	C	0.880770	0.000297	-0.603209
C57	C	0.879707	0.000316	-0.675657
C58	C	0.753097	0.000280	-0.658697
C59	C	0.754162	0.000270	-0.586250
C60	C	0.818001	0.000274	-0.558511
C61	C	0.814745	0.000285	0.219497
C62	C	0.815874	0.000299	0.296601
H63	H	0.593987	0.000238	0.211580
H64	H	0.397760	0.094060	0.005466
H65	H	0.733175	-0.093580	-0.330022
H66	H	0.374097	-0.093530	0.181443
H67	H	0.701123	0.000270	-0.681288
H68	H	0.936364	-0.575626	0.068573
O69	O	0.691607	-0.415033	0.137483
H70	H	0.652082	-0.439751	0.179607
O71	O	0.949621	0.000322	-0.573284
H72	H	0.979768	-0.059806	-0.591267
H73	H	0.709599	0.000222	-0.102967
O74	O	0.733645	-0.415850	0.004457
H75	H	0.710048	-0.373317	0.047989
O76	O	0.718292	-0.107234	-0.469312
H77	H	0.664824	-0.085958	-0.448223
H78	H	0.707679	0.000226	-0.234401
O79	O	0.861353	-0.583164	-0.036578
H80	H	0.898964	-0.625946	-0.012824
H81	H	0.907249	0.094097	-0.484999
O82	O	0.450737	0.000273	0.226238
H83	H	0.482198	0.000283	0.270807
H84	H	0.493322	0.000227	-0.020044
H85	H	0.242665	-0.093502	0.179513
O86	O	0.922137	0.107754	-0.345704
H87	H	0.914817	0.099054	-0.288153
H88	H	0.939303	0.000259	-0.133736
H89	H	0.708782	-0.576017	0.140426
O90	O	0.856058	-0.414058	-0.038698
H91	H	0.894198	-0.369719	-0.017211
H92	H	0.930822	0.000332	-0.712049
H93	H	0.771809	-0.577064	0.203274
H94	H	0.905614	-0.422117	0.160589
O95	O	0.636574	0.000173	-0.034714
H96	H	0.669952	-0.059984	-0.037256
H97	H	0.015674	0.000346	0.203099
H98	H	0.937375	0.000281	-0.265162
O99	O	0.686459	0.000232	-0.538039
H100	H	0.655904	0.060363	-0.547873
O101	O	0.154442	0.000320	0.221897
H102	H	0.111187	0.000321	0.265367
O103	O	0.775037	-0.415778	0.221325
H104	H	0.780829	-0.473464	0.255929
H105	H	0.046435	0.000373	-0.026600
H106	H	0.177866	0.000288	-0.024674
H107	H	0.754230	-0.576963	0.004602
H108	H	0.904983	-0.574726	0.161601
O109	O	0.258479	0.107737	-0.009426
H110	H	0.300375	0.143660	-0.042610
H111	H	0.936376	-0.423424	0.067638
