data_functionalizedCrystal
_audit_creation_method	'MofGen! by Chris Wilmer'
_symmetry_space_group_name_H-M	'P1'
_symmetry_Int_Tables_number	1
_symmetry_cell_setting	triclinic
loop_
_symmetry_equiv_pos_as_xyz
  x,y,z
_cell_length_a	15.297475
_cell_length_b	15.297327
_cell_length_c	12.759393
_cell_angle_alpha	99.642973
_cell_angle_beta	80.311482
_cell_angle_gamma	91.625546
loop_
_atom_site_label
_atom_site_type_symbol
_atom_site_fract_x
_atom_site_fract_y
_atom_site_fract_z
Zn1	Zn	1.278732	-0.580731	-0.968290
Zn2	Zn	1.253260	-0.727202	-0.816979
Zn3	Zn	1.132243	-0.555388	-0.758042
Zn4	Zn	1.106874	-0.701765	-0.958036
O5	O	1.192777	-0.641271	-0.875337
O6	O	1.397922	-0.621413	-0.977174
O7	O	1.237164	-0.704449	-0.662139
O8	O	1.172952	-0.436192	-0.765558
O9	O	1.379208	-0.729024	-0.866007
O10	O	1.280576	-0.454812	-0.920026
O11	O	1.148253	-0.578218	-0.618839
O12	O	1.006308	-0.553553	-0.755616
O13	O	1.129714	-0.685670	-1.106418
O14	O	0.987670	-0.661096	-0.902550
O15	O	1.255977	-0.596748	-1.113951
O16	O	1.212565	-0.846385	-0.856065
O17	O	1.105015	-0.827697	-0.959698
C18	C	0.965208	-0.601815	-0.821575
C19	C	0.867849	-0.584956	-0.798604
C20	C	0.554631	-0.761769	-1.039517
C21	C	0.646103	-0.777616	-1.061097
C22	C	0.701544	-0.729452	-0.995476
C23	C	0.665504	-0.665440	-0.908271
C24	C	0.574022	-0.649597	-0.886683
C25	C	0.720935	-0.617279	-0.842642
C26	C	0.684895	-0.553267	-0.755436
C27	C	0.593421	-0.537427	-0.733853
C28	C	0.537981	-0.585590	-0.799474
C29	C	0.812417	-0.633122	-0.864230
C30	C	0.831808	-0.520949	-0.711396
C31	C	0.740336	-0.505103	-0.689816
C32	C	1.153297	-0.868823	-0.913193
C33	C	1.136487	-0.966185	-0.929442
C34	C	1.313279	-1.279459	-0.759646
C35	C	1.329072	-1.187983	-0.744374
C36	C	1.280928	-1.132529	-0.790640
C37	C	1.216987	-1.168560	-0.852180
C38	C	1.201187	-1.260044	-0.867447
C39	C	1.168836	-1.113114	-0.898440
C40	C	1.104895	-1.149145	-0.959981
C41	C	1.089099	-1.240620	-0.975245
C42	C	1.137243	-1.296074	-0.928979
C43	C	1.184635	-1.021630	-0.883174
C44	C	1.072543	-1.002215	-0.990974
C45	C	1.056750	-1.093691	-1.006247
C46	C	1.421235	-0.680883	-0.929309
C47	C	1.518590	-0.697763	-0.952308
C48	C	1.192857	-0.641199	-1.149372
C49	C	1.192891	-0.641168	-1.266149
C50	C	1.232435	-0.412835	-0.837361
C51	C	1.249335	-0.315489	-0.821179
C52	C	1.258642	-0.594857	-1.324935
C53	C	1.258664	-0.594822	-1.434656
C54	C	1.127179	-0.687415	-1.426797
C55	C	1.127155	-0.687444	-1.317076
C56	C	1.192759	-0.641289	-0.602369
C57	C	1.192937	-0.641103	-0.485591
H58	H	0.841752	-0.685241	-0.935234
F59	F	0.684453	-0.845741	-1.153903
H60	H	1.312204	-0.557110	-1.482514
F61	F	1.057225	-0.736667	-1.481008
H62	H	1.293789	-1.058046	-0.778200
H63	H	0.876948	-0.481732	-0.657960
F64	F	1.397126	-1.149644	-0.678890
F65	F	0.701968	-0.436978	-0.597008
H66	H	0.564079	-0.485313	-0.662835
F67	F	1.057167	-0.736732	-1.254506
H68	H	0.776025	-0.742357	-1.013053
F69	F	0.495621	-0.813036	-1.109329
F70	F	1.364508	-1.338480	-0.710411
F71	F	0.440624	-0.568724	-0.776516
H72	H	1.124390	-1.370563	-0.941414
H73	H	1.037024	-1.269951	-1.025341
H74	H	1.004689	-1.123040	-1.056353
H75	H	1.236696	-0.992302	-0.833067
H76	H	1.033338	-0.957064	-1.028646
H77	H	1.312167	-0.557173	-1.283473
