data_functionalizedCrystal
_audit_creation_method	'MofGen! by Chris Wilmer'
_symmetry_space_group_name_H-M	'P1'
_symmetry_Int_Tables_number	1
_symmetry_cell_setting	triclinic
loop_
_symmetry_equiv_pos_as_xyz
  x,y,z
_cell_length_a	15.944499
_cell_length_b	11.792241
_cell_length_c	10.268362
_cell_angle_alpha	90.005428
_cell_angle_beta	90.007175
_cell_angle_gamma	83.835512
loop_
_atom_site_label
_atom_site_type_symbol
_atom_site_fract_x
_atom_site_fract_y
_atom_site_fract_z
O1	O	-1.115211	-0.146101	-0.108379
O2	O	-0.615211	0.353899	0.391621
O3	O	-0.870737	-0.164209	-0.108364
O4	O	-0.370737	0.335791	0.391636
O5	O	-0.998906	0.010066	-0.108363
O6	O	-0.498906	0.510066	0.391637
O7	O	-0.987041	-0.320376	-0.108380
O8	O	-0.487041	0.179624	0.391620
O9	O	-0.998895	0.010073	0.108238
O10	O	-0.498895	0.510073	0.608238
O11	O	-0.870725	-0.164202	0.108236
O12	O	-0.370725	0.335798	0.608236
O13	O	-1.115199	-0.146094	0.108222
O14	O	-0.615199	0.353906	0.608222
Cu15	Cu	-0.992961	-0.155147	0.128006
Cu16	Cu	-0.492961	0.344853	0.628006
Cu17	Cu	-0.992975	-0.155156	-0.128149
Cu18	Cu	-0.492975	0.344844	0.371851
O19	O	-0.987030	-0.320369	0.108220
O20	O	-0.487030	0.179631	0.608220
C21	C	-0.998155	0.052354	-0.000063
C22	C	-0.498155	0.552354	0.499937
C23	C	-0.995924	0.178349	-0.000064
C24	C	-0.495924	0.678349	0.499936
C25	C	-0.839433	-0.163464	-0.000062
C26	C	-0.339433	0.336536	0.499938
C27	C	-0.746175	-0.161242	-0.000056
C28	C	-0.246175	0.338758	0.499944
C29	C	-1.146503	-0.146839	-0.000083
C30	C	-0.646503	0.353161	0.499917
C31	C	-1.239761	-0.149062	-0.000098
C32	C	-0.739761	0.350938	0.499902
C33	C	-0.455096	-0.262491	-0.000081
C34	C	0.044904	0.237509	0.499919
C35	C	-0.515893	-0.209863	-0.106876
C36	C	-0.015893	0.290137	0.393124
C37	C	-0.410502	-0.153167	-0.000086
C38	C	0.089498	0.346833	0.499914
C39	C	-0.515867	-0.209826	0.106675
C40	C	-0.015867	0.290174	0.606675
C41	C	-0.575428	-0.157140	-0.000069
C42	C	-0.075428	0.342860	0.499931
C43	C	-0.470071	-0.100508	-0.106969
C44	C	0.029929	0.399492	0.393031
C45	C	-0.470039	-0.100487	0.106678
C46	C	0.029961	0.399513	0.606678
C47	C	-0.530818	-0.047779	-0.000143
C48	C	-0.030818	0.452221	0.499857
C49	C	-0.315491	-0.150881	-0.000097
C50	C	0.184509	0.349119	0.499903
C51	C	-0.670438	-0.159417	-0.000068
C52	C	-0.170438	0.340583	0.499932
C53	C	-0.987781	-0.362657	-0.000083
C54	C	-0.487781	0.137343	0.499917
C55	C	-0.990011	-0.488652	-0.000090
C56	C	-0.490011	0.011348	0.499910
N57	N	-0.992958	-0.155141	0.308172
N58	N	-0.492958	0.344859	0.808172
C59	C	-0.991822	0.409026	-0.000086
C60	C	-0.491822	0.909026	0.499914
C61	C	-0.994102	0.280660	-0.000074
C62	C	-0.494102	0.780660	0.499926
N63	N	-0.992984	-0.155153	-0.308315
N64	N	-0.492984	0.344847	0.191685
C65	C	-0.992970	-0.155154	0.573843
C66	C	-0.492970	0.344846	1.073843
C67	C	-0.992961	-0.155150	0.426005
C68	C	-0.492961	0.344850	0.926005
H69	H	-0.422175	-0.353219	-0.000189
H70	H	0.077825	0.146781	0.499811
C71	C	-0.543262	-0.272312	0.228647
C72	C	-0.043262	0.227688	0.728647
N73	N	-0.563890	-0.319384	0.320512
N74	N	-0.063890	0.180616	0.820512
H75	H	-0.536204	-0.256109	-0.197162
H76	H	-0.036204	0.243891	0.302838
H77	H	-0.563586	0.043031	-0.000195
H78	H	-0.063586	0.543031	0.499805
H79	H	-0.449888	-0.054314	-0.197357
H80	H	0.050112	0.445686	0.302643
C81	C	-0.442565	-0.038071	0.228663
C82	C	0.057435	0.461929	0.728663
N83	N	-0.421868	0.008930	0.320553
N84	N	0.078132	0.508930	0.820553
