data_functionalizedCrystal
_audit_creation_method	'MofGen! by Chris Wilmer'
_symmetry_space_group_name_H-M	'P1'
_symmetry_Int_Tables_number	1
_symmetry_cell_setting	triclinic
loop_
_symmetry_equiv_pos_as_xyz
  x,y,z
_cell_length_a	8.559649
_cell_length_b	16.109301
_cell_length_c	14.586319
_cell_angle_alpha	90.005679
_cell_angle_beta	90.004064
_cell_angle_gamma	76.620073
loop_
_atom_site_label
_atom_site_type_symbol
_atom_site_fract_x
_atom_site_fract_y
_atom_site_fract_z
O1	O	-2.120142	0.028207	-0.076224
O2	O	-1.654916	-0.014732	-0.076230
O3	O	-1.900310	0.128582	-0.076218
O4	O	-1.874749	-0.115108	-0.076237
O5	O	-1.900289	0.128584	0.076263
O6	O	-1.654895	-0.014731	0.076250
O7	O	-2.120122	0.028208	0.076257
Cu8	Cu	-1.887507	0.006739	0.090176
Cu9	Cu	-1.887531	0.006737	-0.090150
O10	O	-1.874728	-0.115107	0.076244
C11	C	-1.595374	-0.017985	0.000009
C12	C	-1.417989	-0.027671	0.000007
C13	C	-1.899264	0.159492	0.000023
C14	C	-1.896160	0.251590	0.000024
C15	C	-2.179664	0.031461	0.000015
C16	C	-2.357049	0.041147	0.000011
C17	C	-1.875774	-0.146016	0.000001
C18	C	-1.878878	-0.238114	-0.000006
N19	N	-1.887501	0.006741	0.217008
C20	C	-2.034553	0.482679	0.000012
C21	C	-2.031624	0.569213	0.000004
C22	C	-1.740473	0.530789	0.000004
C23	C	-1.743404	0.444257	0.000005
C24	C	-1.890449	0.420205	0.000013
C25	C	-1.884589	0.593271	0.000005
C26	C	-1.881412	0.687094	-0.000003
C27	C	-1.893627	0.326376	0.000020
C28	C	-1.996201	0.070184	0.548007
C29	C	-1.996198	0.070184	0.452026
C30	C	-1.778837	-0.056710	0.452026
C31	C	-1.778849	-0.056712	0.548005
C32	C	-1.887530	0.006740	0.595994
C33	C	-1.887514	0.006741	0.404033
C34	C	-1.887510	0.006741	0.299966
C35	C	-1.887536	0.006740	0.700067
N36	N	-1.887543	0.006740	0.783018
H37	H	-1.440580	0.107476	0.000012
H38	H	-2.084697	0.121849	0.587077
Br39	Br	-2.143694	0.156287	0.386904
Br40	Br	-1.278763	-0.138234	-0.000015
H41	H	-1.690350	-0.108370	0.412944
H42	H	-2.154287	0.463099	0.000017
H43	H	-1.620755	0.550384	-0.000002
Br44	Br	-2.227204	0.653997	-0.000003
Br45	Br	-1.547819	0.359464	-0.000005
H46	H	-1.690355	-0.108380	0.587078
