data_functionalizedCrystal
_audit_creation_method	'MofGen! by Chris Wilmer'
_symmetry_space_group_name_H-M	'P1'
_symmetry_Int_Tables_number	1
_symmetry_cell_setting	triclinic
loop_
_symmetry_equiv_pos_as_xyz
  x,y,z
_cell_length_a	18.050589
_cell_length_b	12.759401
_cell_length_c	12.759393
_cell_angle_alpha	89.981504
_cell_angle_beta	90.030621
_cell_angle_gamma	89.971618
loop_
_atom_site_label
_atom_site_type_symbol
_atom_site_fract_x
_atom_site_fract_y
_atom_site_fract_z
Zn1	Zn	-0.295612	-1.606157	0.593988
Zn2	Zn	-0.419823	-1.606010	0.418311
Zn3	Zn	-0.295651	-1.430459	0.418328
Zn4	Zn	-0.419766	-1.430406	0.593953
O5	O	-0.357713	-1.518258	0.506145
O6	O	-0.312097	-1.753158	0.570692
O7	O	-0.403391	-1.582683	0.271292
O8	O	-0.191722	-1.453849	0.441651
O9	O	-0.403354	-1.753050	0.441623
O10	O	-0.191693	-1.582934	0.570708
O11	O	-0.312163	-1.453706	0.271304
O12	O	-0.312108	-1.283431	0.441617
O13	O	-0.403256	-1.453759	0.740979
O14	O	-0.403294	-1.283392	0.570648
O15	O	-0.312041	-1.582882	0.741005
O16	O	-0.523740	-1.582632	0.441589
O17	O	-0.523698	-1.453616	0.570632
C18	C	-0.357699	-1.245290	0.506131
C19	C	-0.357711	-1.128514	0.506149
C20	C	-0.550665	-1.518131	0.506127
C21	C	-0.633211	-1.518173	0.506155
C22	C	-0.357638	-1.518331	0.780178
C23	C	-0.357606	-1.518363	0.896955
C24	C	-0.832666	-1.448083	0.576304
C25	C	-0.882114	-1.422469	0.480436
C26	C	-0.784341	-1.518276	0.506169
C27	C	-0.881974	-1.543942	0.602048
C28	C	-0.930326	-1.518374	0.506191
C29	C	-0.832703	-1.492611	0.410250
C30	C	-0.832558	-1.614129	0.531927
C31	C	-0.881985	-1.588551	0.435992
C32	C	-0.700243	-1.518217	0.506158
C33	C	-1.014423	-1.518433	0.506191
C34	C	-0.164007	-1.518414	0.506185
C35	C	-0.081462	-1.518480	0.506203
C36	C	-0.357727	-1.792291	0.506160
C37	C	-0.357733	-1.909068	0.506166
C38	C	-0.405268	-1.073659	0.573225
C39	C	-0.405277	-0.963935	0.573236
C40	C	-0.310171	-0.963930	0.439088
C41	C	-0.310159	-1.073652	0.439083
C42	C	-0.452820	-1.128521	0.640292
C43	C	-0.500382	-1.073666	0.707372
C44	C	-0.500391	-0.963942	0.707383
C45	C	-0.452839	-0.909072	0.640314
C46	C	-0.357734	-1.518245	0.233178
C47	C	-0.357557	-1.518417	0.116401
C48	C	-0.310106	-1.585606	0.951832
C49	C	-0.310079	-1.585631	1.061557
C50	C	-0.405059	-1.451166	1.061516
C51	C	-0.405081	-1.451136	0.951794
C52	C	-0.262631	-1.652833	0.896993
C53	C	-0.215128	-1.720083	0.951871
C54	C	-0.215101	-1.720108	1.061595
C55	C	-0.262577	-1.652883	1.116442
H56	H	-0.811010	-1.388636	0.635531
O57	O	-0.907920	-1.569742	0.698716
C58	C	-1.015304	-1.599723	0.806740
C59	C	-0.986025	-1.570481	0.697220
H60	H	-1.078454	-1.600352	0.805561
H61	H	-0.995098	-1.539744	0.866459
H62	H	-0.994028	-1.680803	0.829263
H63	H	-1.007289	-1.489425	0.674598
H64	H	-1.006225	-1.630526	0.637564
O65	O	-0.546544	-1.127123	0.772423
C66	C	-0.588647	-1.296157	0.831909
C67	C	-0.536343	-1.235752	0.758165
H68	H	-0.580406	-1.383994	0.820424
H69	H	-0.648533	-1.274623	0.813315
H70	H	-0.575686	-1.274562	0.916647
H71	H	-0.549237	-1.257314	0.673403
H72	H	-0.476472	-1.257291	0.776850
O73	O	-0.546656	-0.910817	0.772577
C74	C	-0.640957	-0.922408	0.905675
C75	C	-0.588608	-0.982699	0.831880
H76	H	-0.674878	-0.980499	0.953656
H77	H	-0.679802	-0.871028	0.857398
H78	H	-0.606902	-0.871051	0.960655
H79	H	-0.622603	-1.034114	0.776885
H80	H	-0.549760	-1.034013	0.880222
O81	O	-0.907577	-1.659546	0.365237
C82	C	-0.910352	-1.840522	0.311462
C83	C	-0.881300	-1.760235	0.391652
H84	H	-0.889132	-1.921950	0.332802
H85	H	-0.889981	-1.818580	0.229796
H86	H	-0.973505	-1.840476	0.312461
H87	H	-0.818149	-1.760239	0.390747
H88	H	-0.901728	-1.782205	0.473280
O89	O	-0.807032	-1.466818	0.313434
C90	C	-0.803658	-1.511061	0.129913
C91	C	-0.832768	-1.540409	0.239495
H92	H	-0.824466	-1.570530	0.070100
H93	H	-0.740502	-1.511245	0.130629
H94	H	-0.824498	-1.429621	0.107875
H95	H	-0.811982	-1.621853	0.261601
H96	H	-0.895923	-1.540152	0.238721
O97	O	-0.262619	-1.653073	1.223028
C98	C	-0.281629	-1.753836	1.380486
C99	C	-0.281621	-1.753754	1.259781
H100	H	-0.296975	-1.835233	1.410237
H101	H	-0.323748	-1.694306	1.410311
H102	H	-0.224111	-1.732036	1.410269
H103	H	-0.339108	-1.775580	1.229909
H104	H	-0.239463	-1.813262	1.230027
O105	O	-0.168874	-1.785274	1.114948
C106	C	-0.068603	-1.799526	1.238895
C107	C	-0.120897	-1.725601	1.178525
H108	H	-0.029810	-1.751311	1.290327
H109	H	-0.034623	-1.847543	1.180893
H110	H	-0.102703	-1.854468	1.290214
H111	H	-0.086854	-1.670595	1.127204
H112	H	-0.154879	-1.677657	1.236584
O113	O	-0.452941	-0.802486	0.640457
C114	C	-0.505054	-0.645032	0.714197
C115	C	-0.505037	-0.765737	0.714108
H116	H	-0.547158	-0.615284	0.773753
H117	H	-0.520434	-0.615098	0.632846
H118	H	-0.447535	-0.615355	0.736106
H119	H	-0.562539	-0.795503	0.692244
H120	H	-0.489616	-0.795600	0.795468
H121	H	-0.452820	-1.217863	0.640288
O122	O	-0.806600	-1.710722	0.558128
C123	C	-0.802245	-1.846966	0.688815
C124	C	-0.831679	-1.737555	0.659270
H125	H	-0.822522	-1.868703	0.770581
H126	H	-0.739094	-1.846199	0.687868
H127	H	-0.823373	-1.907029	0.629826
H128	H	-0.810606	-1.677430	0.718231
H129	H	-0.894829	-1.738409	0.660185
O130	O	-0.263947	-1.126782	0.373818
C131	C	-0.169597	-1.115208	0.240788
C132	C	-0.221907	-1.054908	0.314631
H133	H	-0.135583	-1.057124	0.192932
H134	H	-0.203613	-1.166508	0.185702
H135	H	-0.130830	-1.166647	0.289126
H136	H	-0.260683	-1.003412	0.266377
H137	H	-0.187844	-1.003674	0.369719
H138	H	-0.271458	-0.919247	0.384483
O139	O	-0.169077	-1.785341	0.898435
C140	C	-0.126984	-1.844844	0.729421
C141	C	-0.179189	-1.770905	0.789802
H142	H	-0.135130	-1.833182	0.641580
H143	H	-0.140023	-1.929579	0.750918
H144	H	-0.067103	-1.826456	0.751076
H145	H	-0.239087	-1.789198	0.768180
H146	H	-0.166086	-1.686192	0.768300
H147	H	-0.443712	-1.396434	1.106181
H148	H	-0.262649	-1.652822	0.807650
H149	H	-0.443749	-1.396364	0.907112
H150	H	-0.903898	-1.341455	0.458669
