data_functionalizedCrystal
_audit_creation_method	'MofGen! by Chris Wilmer'
_symmetry_space_group_name_H-M	'P1'
_symmetry_Int_Tables_number	1
_symmetry_cell_setting	triclinic
loop_
_symmetry_equiv_pos_as_xyz
  x,y,z
_cell_length_a	15.995292
_cell_length_b	15.995350
_cell_length_c	15.072220
_cell_angle_alpha	90.001101
_cell_angle_beta	89.986330
_cell_angle_gamma	83.480495
loop_
_atom_site_label
_atom_site_type_symbol
_atom_site_fract_x
_atom_site_fract_y
_atom_site_fract_z
O1	O	1.111026	0.107689	-0.073802
O2	O	0.867244	0.121068	-0.073798
O3	O	0.995799	-0.007511	-0.073799
O4	O	0.982471	0.236267	-0.073801
O5	O	0.995767	-0.007503	0.073766
O6	O	0.867213	0.121075	0.073767
O7	O	1.110994	0.107696	0.073763
Zn8	Zn	0.989098	0.114387	0.097194
Zn9	Zn	0.989140	0.114377	-0.097229
O10	O	0.982440	0.236275	0.073764
C11	C	0.836033	0.120527	-0.000015
C12	C	0.743080	0.118894	-0.000014
C13	C	0.405341	0.112893	-0.000024
C14	C	0.428654	0.205697	-0.000354
C15	C	0.525329	0.207461	-0.000017
C16	C	0.572897	0.115871	-0.000019
C17	C	0.543777	0.069477	0.084245
C18	C	0.446987	0.068360	0.084312
C19	C	0.447168	0.066457	-0.083497
C20	C	0.543660	0.069896	-0.084607
C21	C	0.667593	0.117549	-0.000014
C22	C	0.310646	0.111212	-0.000023
C23	C	0.995232	-0.038702	-0.000018
C24	C	0.993580	-0.131652	-0.000023
C25	C	1.142206	0.108237	-0.000022
C26	C	1.235159	0.109870	-0.000029
C27	C	0.987648	-0.469398	-0.000020
C28	C	0.896094	-0.421945	-0.000350
C29	C	0.897746	-0.325255	-0.000017
C30	C	0.990591	-0.301838	-0.000022
C31	C	1.035730	-0.342921	0.084242
C32	C	1.033430	-0.439556	0.084313
C33	C	1.035358	-0.439923	-0.083496
C34	C	1.035336	-0.342978	-0.084610
C35	C	0.992259	-0.207141	-0.000021
C36	C	0.985983	-0.564095	-0.000016
C37	C	0.983006	0.267466	-0.000018
C38	C	0.984658	0.360416	-0.000019
N39	N	0.989076	0.114393	0.229883
N40	N	0.989169	0.114365	-0.229918
C41	C	0.989139	0.114374	0.589085
C42	C	0.920120	0.182943	0.551478
C43	C	0.920279	0.183193	0.448653
C44	C	0.989107	0.114383	0.410880
C45	C	1.076474	0.133447	0.448170
C46	C	1.076087	0.133934	0.551028
C47	C	0.971569	0.026538	0.551186
C48	C	0.969564	0.027124	0.448322
C49	C	0.989094	0.114387	0.310167
C50	C	0.989157	0.114372	0.689798
H51	H	0.576631	0.003044	-0.089698
Br52	Br	0.399986	0.114806	-0.189949
H53	H	0.862262	-0.296828	-0.060421
H54	H	1.129060	0.084832	0.423701
H55	H	0.400671	0.241465	-0.060784
H56	H	1.000488	-0.457848	0.147305
Br57	Br	0.423853	-0.047400	-0.084446
H58	H	0.563823	0.101701	0.146956
Br59	Br	1.164173	0.053767	0.592493
Br60	Br	0.938939	0.291846	0.407618
Br61	Br	0.835118	-0.452819	-0.101069
H62	H	0.432436	0.000316	0.088138
H63	H	0.859650	-0.441528	0.059742
H64	H	1.021900	-0.024489	0.575504
Br65	Br	0.574673	0.126166	-0.188513
H66	H	1.102861	-0.471698	-0.084066
H67	H	0.855337	0.171838	0.423443
Br68	Br	1.101894	0.240700	0.591003
H69	H	1.103940	-0.328809	0.087372
H70	H	1.092327	0.196774	0.422400
H71	H	0.909244	0.008203	0.577177
Br72	Br	0.980791	-0.297016	-0.188527
Br73	Br	0.555990	0.268391	0.100835
H74	H	0.854969	0.171775	0.576241
Br75	Br	0.596878	-0.042863	0.089464
H76	H	0.861997	-0.297380	0.060491
Br77	Br	1.145459	-0.493333	0.090690
H78	H	0.905296	0.012657	0.423951
Br79	Br	0.557067	0.268016	-0.100695
Br80	Br	0.983435	-0.295605	0.188767
H81	H	1.016568	-0.026291	0.422614
Br82	Br	1.148187	-0.317392	-0.093106
Br83	Br	0.985482	-0.474139	-0.189948
Br84	Br	0.938570	0.290978	0.594522
H85	H	0.399622	0.241273	0.059736
H86	H	0.420156	0.100496	0.147302
