data_functionalizedCrystal
_audit_creation_method	'MofGen! by Chris Wilmer'
_symmetry_space_group_name_H-M	'P1'
_symmetry_Int_Tables_number	1
_symmetry_cell_setting	triclinic
loop_
_symmetry_equiv_pos_as_xyz
  x,y,z
_cell_length_a	12.594516
_cell_length_b	16.120542
_cell_length_c	12.594517
_cell_angle_alpha	87.101056
_cell_angle_beta	90.001327
_cell_angle_gamma	92.892305
loop_
_atom_site_label
_atom_site_type_symbol
_atom_site_fract_x
_atom_site_fract_y
_atom_site_fract_z
Zn1	Zn	-0.506735	-1.274435	0.684313
Zn2	Zn	-0.006735	-0.774435	1.184313
Zn3	Zn	-0.684666	-1.274397	0.506338
Zn4	Zn	-0.184666	-0.774397	1.006338
Zn5	Zn	-0.497653	-1.135063	0.497326
Zn6	Zn	0.002347	-0.635063	0.997326
Zn7	Zn	-0.675617	-1.135002	0.675251
Zn8	Zn	-0.175617	-0.635002	1.175251
O9	O	-0.591168	-1.204724	0.590807
O10	O	-0.091168	-0.704724	1.090807
O11	O	-0.537926	-1.391095	0.668268
O12	O	-0.037926	-0.891095	1.168268
O13	O	-0.659844	-1.255923	0.356197
O14	O	-0.159844	-0.755923	0.856197
O15	O	-0.349915	-1.153592	0.522151
O16	O	0.150085	-0.653592	1.022151
O17	O	-0.668651	-1.391067	0.537511
O18	O	-0.168651	-0.891067	1.037511
O19	O	-0.356588	-1.255989	0.659529
O20	O	0.143412	-0.755989	1.159529
O21	O	-0.522447	-1.153555	0.349576
O22	O	-0.022447	-0.653555	0.849576
O23	O	-0.513673	-1.018389	0.513364
O24	O	-0.013673	-0.518389	1.013364
O25	O	-0.653229	-1.153489	0.825398
O26	O	-0.153229	-0.653489	1.325398
O27	O	-0.644422	-1.018345	0.644085
O28	O	-0.144422	-0.518345	1.144085
O29	O	-0.529152	-1.255930	0.832056
O30	O	-0.029152	-0.755930	1.332056
O31	O	-0.832409	-1.255864	0.528724
O32	O	-0.332409	-0.755864	1.028724
O33	O	-0.825761	-1.153451	0.652824
O34	O	-0.325761	-0.653451	1.152824
C35	C	-0.577081	-0.988117	0.576764
C36	C	-0.077081	-0.488117	1.076764
C37	C	-0.571080	-0.895452	0.570782
C38	C	-0.071080	-0.395452	1.070782
C39	C	-0.622265	-0.684503	0.621781
C40	C	-0.122265	-0.184503	1.121781
C41	C	-0.560133	-0.725796	0.559858
C42	C	-0.060133	-0.225796	1.059858
C43	C	-0.566226	-0.820201	0.565938
C44	C	-0.066226	-0.320201	1.065938
C45	C	-0.616174	-0.590090	0.615702
C46	C	-0.116174	-0.090090	1.115702
C47	C	-0.867705	-1.204670	0.590793
C48	C	-0.367705	-0.704670	1.090793
C49	C	-0.986014	-1.204722	0.590828
C50	C	-0.486014	-0.704722	1.090828
C51	C	-1.051690	-1.149015	0.658275
C52	C	-0.551690	-0.649015	1.158275
C53	C	-1.121195	-1.128727	0.559840
C54	C	-0.621195	-0.628727	1.059840
C55	C	-1.127312	-1.225086	0.689284
C56	C	-0.627312	-0.725086	1.189284
C57	C	-1.053959	-1.184395	0.492338
C58	C	-0.553959	-0.684395	0.992338
C59	C	-1.060072	-1.280789	0.621851
C60	C	-0.560072	-0.780789	1.121851
C61	C	-1.129548	-1.260530	0.523350
C62	C	-0.629548	-0.760530	1.023350
C63	C	-0.313552	-1.204802	0.590846
C64	C	0.186448	-0.704802	1.090846
C65	C	-0.195249	-1.204835	0.590862
C66	C	0.304751	-0.704835	1.090862
C67	C	-0.591194	-1.204707	0.868427
C68	C	-0.091194	-0.704707	1.368427
C69	C	-0.591205	-1.204700	0.986732
C70	C	-0.091205	-0.704700	1.486732
C71	C	-0.605305	-0.422177	0.604890
C72	C	-0.105305	0.077823	1.104890
C73	C	-0.611315	-0.514842	0.610854
C74	C	-0.111315	-0.014842	1.110854
C75	C	-0.658680	-1.148981	1.052364
C76	C	-0.158680	-0.648981	1.552364
C77	C	-0.689656	-1.225034	1.128075
C78	C	-0.189656	-0.725034	1.628075
C79	C	-0.560257	-1.128650	1.121820
C80	C	-0.060257	-0.628650	1.621820
C81	C	-0.622234	-1.280793	1.060887
C82	C	-0.122234	-0.780793	1.560887
C83	C	-0.492786	-1.184357	1.054623
C84	C	0.007214	-0.684357	1.554623
C85	C	-0.523729	-1.260463	1.130305
C86	C	-0.023729	-0.760463	1.630305
C87	C	-0.591173	-1.204723	1.314266
C88	C	-0.091173	-0.704723	1.814266
C89	C	-0.591185	-1.204695	1.195959
C90	C	-0.091185	-0.704695	1.695959
H91	H	-0.680029	-0.720049	0.679355
H92	H	-0.180029	-0.220049	1.179355
H93	H	-0.409586	-1.167126	1.022377
H94	H	0.090414	-0.667126	1.522377
H95	H	-0.502365	-0.690248	0.502279
H96	H	-0.002365	-0.190248	1.002279
H97	H	-1.017616	-1.101820	0.715220
H98	H	-0.517616	-0.601820	1.215220
O99	O	-0.529153	-1.051866	1.153818
O100	O	-0.029153	-0.551866	1.653818
C101	C	-0.600546	-0.993332	1.114016
C102	C	-0.100546	-0.493332	1.614016
H103	H	-0.642701	-1.018022	1.041087
H104	H	-0.142701	-0.518022	1.541087
H105	H	-0.554846	-0.932228	1.090983
H106	H	-0.054846	-0.432228	1.590983
H107	H	-0.661820	-0.982412	1.177789
H108	H	-0.161820	-0.482412	1.677789
H109	H	-0.648496	-1.345124	1.034090
H110	H	-0.148496	-0.845124	1.534090
H111	H	-1.159487	-1.242264	0.772535
H112	H	-0.659487	-0.742264	1.272535
H113	H	-1.021907	-1.167143	0.409061
H114	H	-0.521907	-0.667143	0.909061
O115	O	-1.153372	-1.051994	0.528715
O116	O	-0.653372	-0.551994	1.028715
C117	C	-1.113574	-0.993386	0.600000
C118	C	-0.613574	-0.493386	1.100000
H119	H	-1.095807	-1.026475	0.679680
H120	H	-0.595807	-0.526475	1.179680
H121	H	-1.175277	-0.945283	0.611761
H122	H	-0.675277	-0.445283	1.111761
H123	H	-1.037457	-0.961006	0.566203
H124	H	-0.537457	-0.461006	1.066203
O125	O	-1.169914	-1.316696	0.455094
O126	O	-0.669914	-0.816696	0.955094
C127	C	-1.132258	-1.294988	0.351465
C128	C	-0.632258	-0.794988	0.851465
H129	H	-1.108088	-1.225810	0.344881
H130	H	-0.608088	-0.725810	0.844881
H131	H	-1.197752	-1.309058	0.291553
H132	H	-0.697752	-0.809058	0.791553
H133	H	-1.060485	-1.332543	0.334160
H134	H	-0.560485	-0.832543	0.834160
H135	H	-1.033039	-1.345049	0.648110
H136	H	-0.533039	-0.845049	1.148110
O137	O	-0.455512	-1.316617	1.170801
O138	O	0.044488	-0.816617	1.670801
C139	C	-0.375691	-1.275285	1.229735
C140	C	0.124309	-0.775285	1.729735
H141	H	-0.368062	-1.206956	1.201383
H142	H	0.131938	-0.706956	1.701383
H143	H	-0.296691	-1.305124	1.217786
H144	H	0.203309	-0.805124	1.717786
H145	H	-0.397771	-1.280351	1.317691
H146	H	0.102229	-0.780351	1.817691
O147	O	-0.726968	-1.092934	1.011730
O148	O	-0.226968	-0.592934	1.511730
C149	C	-0.830633	-1.114685	1.049249
C150	C	-0.330633	-0.614685	1.549249
H151	H	-0.837138	-1.183837	1.073581
H152	H	-0.337138	-0.683837	1.573581
H153	H	-0.890455	-1.100762	0.983614
H154	H	-0.390455	-0.600762	1.483614
H155	H	-0.848134	-1.077044	1.120887
H156	H	-0.348134	-0.577044	1.620887
H157	H	-0.772879	-1.242244	1.160295
H158	H	-0.272879	-0.742244	1.660295
