data_functionalizedCrystal
_audit_creation_method	'MofGen! by Chris Wilmer'
_symmetry_space_group_name_H-M	'P1'
_symmetry_Int_Tables_number	1
_symmetry_cell_setting	triclinic
loop_
_symmetry_equiv_pos_as_xyz
  x,y,z
_cell_length_a	19.851628
_cell_length_b	20.875641
_cell_length_c	20.875641
_cell_angle_alpha	60.089808
_cell_angle_beta	90.005247
_cell_angle_gamma	62.438296
loop_
_atom_site_label
_atom_site_type_symbol
_atom_site_fract_x
_atom_site_fract_y
_atom_site_fract_z
Zr1	Zr	0.679809	0.694277	-0.105692
O2	O	0.581086	0.820527	-0.208968
O3	O	0.706379	0.563019	-0.070758
O4	O	0.716300	0.687041	-0.204229
O5	O	0.567541	0.703959	0.026062
O6	O	0.827161	0.687030	-0.204216
O7	O	0.571165	0.696505	-0.075497
O8	O	0.809414	0.465176	0.034539
O9	O	0.585288	0.925812	-0.212693
O10	O	0.804908	0.618853	-0.059806
O11	O	0.719469	0.624424	0.015977
O12	O	0.731150	0.770445	-0.141168
O13	O	0.645711	0.776016	-0.065385
Zr14	Zr	0.850840	0.706146	0.056303
Zr15	Zr	0.856619	0.694258	-0.105672
Zr16	Zr	0.674029	0.706165	0.056282
Zr17	Zr	0.686510	0.862194	-0.111634
Zr18	Zr	0.844138	0.538229	0.062244
O19	O	0.824269	0.837404	0.021368
O20	O	0.832488	0.820501	-0.208939
O21	O	0.572868	0.837430	0.021339
O22	O	0.949562	0.579896	0.159578
O23	O	0.957781	0.562993	-0.070729
O24	O	0.698161	0.579922	0.159549
O25	O	0.963107	0.696464	-0.075452
O26	O	0.814349	0.713382	0.154839
O27	O	0.703488	0.713394	0.154826
O28	O	0.959483	0.703918	0.026107
O29	O	0.725829	0.925797	-0.212677
O30	O	0.804820	0.474626	0.163288
O31	O	0.945361	0.474611	0.163304
O32	O	0.949955	0.465162	0.034556
O33	O	0.580694	0.935261	-0.083945
O34	O	0.721234	0.935247	-0.083929
O35	O	0.799499	0.629979	0.091779
O36	O	0.884938	0.624407	0.015996
O37	O	0.811179	0.775999	-0.065366
O38	O	0.725741	0.781570	0.010416
C39	C	0.756942	0.490173	-0.017262
C40	C	0.754097	0.418888	-0.014740
C41	C	0.544162	0.700234	-0.024720
C42	C	0.469101	0.700242	-0.024729
C43	C	0.797356	0.382490	-0.053113
C44	C	0.794685	0.315506	-0.050735
C45	C	0.748749	0.284925	-0.009989
C46	C	0.705489	0.321326	0.028388
C47	C	0.708165	0.388305	0.026015
C48	C	0.735967	0.084915	0.001355
C49	C	0.733292	0.017933	0.003723
C50	C	0.822490	0.012116	-0.075399
C51	C	0.825159	0.079100	-0.077773
C52	C	0.781901	0.115492	-0.039392
N53	N	0.746016	0.216458	-0.007560
N54	N	0.784640	0.183953	-0.041817
C55	C	0.247538	0.782878	-0.069065
C56	C	0.224536	0.737848	-0.097497
C57	C	0.331693	0.700220	-0.024706
C58	C	0.220955	0.745255	0.003711
C59	C	0.198959	0.700206	-0.024685
C60	C	0.309681	0.655186	-0.053180
C61	C	0.306096	0.662609	0.048067
C62	C	0.283144	0.617518	0.019656
C63	C	0.408156	0.700231	-0.024720
C64	C	0.122501	0.700188	-0.024672
C65	C	0.986487	0.700189	-0.024669
C66	C	1.061548	0.700181	-0.024661
C67	C	0.772554	0.685342	-0.227300
C68	C	0.775008	0.680295	-0.296063
C69	C	0.773707	0.910250	-0.032127
C70	C	0.776552	0.981535	-0.034649
C71	C	0.737661	0.757051	-0.370837
C72	C	0.739977	0.752304	-0.435444
C73	C	0.779635	0.670800	-0.425274
C74	C	0.816987	0.594038	-0.350492
C75	C	0.814675	0.598786	-0.285887
C76	C	0.790681	0.648114	-0.613939
C77	C	0.792988	0.643372	-0.678552
C78	C	0.715979	0.801639	-0.763500
C79	C	0.713667	0.806380	-0.698890
C80	C	0.751022	0.729618	-0.624113
N81	N	0.782001	0.665945	-0.491312
N82	N	0.748660	0.734473	-0.558077
C83	C	0.758095	0.715082	0.177911
C84	C	0.755641	0.720128	0.246673
C85	C	0.978105	0.490150	-0.017237
C86	C	1.050320	0.418857	-0.014706
C87	C	0.749712	0.505043	0.185343
C88	C	0.744414	0.438805	0.256628
C89	C	0.970875	0.505020	0.185368
C90	C	1.040637	0.438774	0.256662
C91	C	0.559774	0.895403	-0.234758
C92	C	0.490012	0.961649	-0.306051
C93	C	0.552544	0.910273	-0.032152
C94	C	0.480328	0.981566	-0.034684
C95	C	0.780936	0.895380	-0.234732
C96	C	0.786235	0.961619	-0.306017
C97	C	1.042459	0.382478	-0.053092
C98	C	1.110308	0.315499	-0.050729
C99	C	1.186016	0.284896	-0.009975
C100	C	1.193876	0.321282	0.028411
C101	C	1.126029	0.388264	0.026044
C102	C	0.783700	0.410598	0.329678
C103	C	0.778718	0.348370	0.396664
C104	C	0.734455	0.314345	0.390597
C105	C	0.695164	0.342557	0.317539
C106	C	0.700141	0.404789	0.250555
C107	C	1.118004	0.404756	0.250584
C108	C	1.183560	0.342520	0.317566
C109	C	1.171747	0.314298	0.390624
C110	C	1.094373	0.348322	0.396700
C111	C	1.028819	0.410562	0.329719
C112	C	0.412646	0.995675	-0.299974
C113	C	0.347090	1.057933	-0.366956
C114	C	0.358903	1.086158	-0.440014
C115	C	0.436277	1.052129	-0.446090
C116	C	0.501831	0.989878	-0.379109
C117	C	0.488190	1.017952	0.003695
C118	C	0.420343	1.084948	0.001314
C119	C	0.344635	1.115553	-0.039442
C120	C	0.336775	1.079164	-0.077826
C121	C	0.404621	1.012173	-0.075448
C122	C	0.830505	0.995624	-0.299926
C123	C	0.835499	1.057854	-0.366899
C124	C	0.796218	1.086081	-0.439963
C125	C	0.751946	1.052069	-0.446053
C126	C	0.746957	0.989836	-0.379080
H127	H	0.829911	0.285870	-0.081981
O128	O	0.859774	0.506125	-0.339515
H129	H	0.832136	0.469087	-0.306744
H130	H	0.426758	1.114566	0.032574
O131	O	0.869143	-0.027137	-0.116793
H132	H	0.933486	-0.055977	-0.092849
O133	O	0.872886	0.965175	-0.221124
H134	H	0.904516	0.999274	-0.228152
H135	H	0.730408	0.263672	0.445146
H136	H	0.871548	1.085540	-0.361925
H137	H	0.659125	0.314845	0.312611
H138	H	0.705361	0.823421	-0.379127
H139	H	1.103892	0.285881	-0.081988
O140	O	0.821116	0.317936	0.475455
H141	H	0.798185	0.374650	0.480026
O142	O	0.689297	0.124176	0.042734
H143	H	0.730818	0.114525	0.086928
H144	H	0.403012	0.972698	-0.240492
H145	H	0.347837	0.617133	-0.077275
H146	H	0.709566	0.814807	-0.496327
H147	H	0.685567	0.864134	-0.824388
O148	O	0.801590	1.153216	-0.512197
H149	H	0.838967	1.172124	-0.495678
H150	H	0.825282	0.576998	-0.670263
O151	O	1.267014	0.305839	0.311017
H152	H	1.297306	0.233967	0.341191
O153	O	0.874701	0.112087	-0.121723
H154	H	0.904337	0.075520	-0.148004
H155	H	0.549829	0.993039	0.036888
O156	O	0.228591	0.875447	-0.118817
H157	H	0.191510	0.913091	-0.095789
H158	H	0.821099	0.585609	-0.553061
H159	H	0.695882	-0.006961	0.036903
H160	H	0.182696	0.783346	0.027736
O161	O	0.352745	0.620535	0.129558
H162	H	0.411766	0.562434	0.145944
H163	H	0.719965	1.075061	-0.505551
O164	O	0.177885	0.779955	-0.179002
H165	H	0.162458	0.848566	-0.215720
H166	H	0.845087	0.536283	-0.225001
O167	O	1.242455	0.247157	0.462866
H168	H	1.298235	0.228240	0.446359
O169	O	0.960807	0.415486	-0.097058
H170	H	0.966753	0.378936	-0.123359
H171	H	1.127636	0.427725	0.191103
H172	H	0.289396	1.170102	-0.041371
H173	H	1.084767	0.325335	0.456193
H174	H	0.297609	0.547568	0.057171
H175	H	0.710905	0.962155	-0.384051
H176	H	0.819744	0.438295	0.334633
H177	H	0.834758	0.407388	-0.086297
H178	H	0.668091	0.296418	0.061569
O179	O	0.449013	1.082569	-0.524890
H180	H	0.390427	1.131563	-0.570438
H181	H	0.284095	1.085629	-0.361994
O182	O	0.670887	0.894287	-0.709858
H183	H	0.645308	0.946865	-0.772709
H184	H	0.668152	0.427746	0.191076
H185	H	0.672936	0.417942	0.057260
H186	H	1.241255	0.230354	-0.008053
O187	O	0.945372	0.447233	0.336278
H188	H	0.948179	0.417137	0.398335
O189	O	0.255114	1.112175	-0.121777
H190	H	0.251314	1.138238	-0.183669
H191	H	1.255527	0.296356	0.061592
H192	H	0.305518	1.136847	-0.494549
O193	O	0.585276	0.953167	-0.385667
H194	H	0.582468	0.983249	-0.447724
H195	H	1.132440	0.417877	0.057307
H196	H	0.398209	0.982549	-0.106699
