data_functionalizedCrystal
_audit_creation_method	'MofGen! by Chris Wilmer'
_symmetry_space_group_name_H-M	'P1'
_symmetry_Int_Tables_number	1
_symmetry_cell_setting	triclinic
loop_
_symmetry_equiv_pos_as_xyz
  x,y,z
_cell_length_a	33.510554
_cell_length_b	33.509711
_cell_length_c	33.506470
_cell_angle_alpha	60.004186
_cell_angle_beta	60.008358
_cell_angle_gamma	59.994760
loop_
_atom_site_label
_atom_site_type_symbol
_atom_site_fract_x
_atom_site_fract_y
_atom_site_fract_z
O1	O	0.055430	-0.583081	0.487524
O2	O	0.020931	-0.453975	0.392819
O3	O	0.102693	-0.535652	0.392731
O4	O	-0.026332	-0.501404	0.487613
O5	O	0.129823	-0.508526	0.419767
O6	O	0.048062	-0.426850	0.419856
O7	O	0.082561	-0.555956	0.514561
Cu8	Cu	0.067789	-0.488926	0.469677
Cu9	Cu	0.035703	-0.521005	0.437703
O10	O	0.000799	-0.474279	0.514649
N11	N	0.090357	-0.466366	0.492168
N12	N	0.013139	-0.543569	0.415212
C13	C	0.143028	-0.279707	0.544737
C14	C	0.143165	-0.413746	0.678712
C15	C	0.143043	-0.413725	0.544739
C16	C	0.277090	-0.413694	0.544637
C17	C	0.157791	-0.323929	0.559462
C18	C	0.157869	-0.398994	0.634489
C19	C	0.232865	-0.398963	0.559407
C20	C	0.157801	-0.398982	0.559463
C21	C	0.124237	-0.223419	0.525994
C22	C	0.124262	-0.432490	0.525997
C23	C	0.176583	-0.380217	0.578205
C24	C	0.358938	-0.399566	0.501510
C25	C	0.410104	-0.416609	0.484423
C26	C	0.410135	-0.499402	0.515995
C27	C	0.358969	-0.482358	0.533084
C28	C	0.136554	-0.197822	0.475693
C29	C	0.119469	-0.146653	0.458657
C30	C	0.077755	-0.146680	0.542223
C31	C	0.094840	-0.197850	0.559260
C32	C	0.073954	-0.420144	0.538396
C33	C	0.056884	-0.437203	0.521352
C34	C	0.140427	-0.478952	0.479524
C35	C	0.157498	-0.461894	0.496561
C36	C	0.074158	-0.420182	0.760618
C37	C	0.057149	-0.437256	0.811786
C38	C	0.140732	-0.479014	0.811717
C39	C	0.157740	-0.461942	0.760547
C40	C	0.124452	-0.432525	0.734999
C41	C	0.333372	-0.432439	0.525839
C42	C	-0.020612	-0.577650	0.170305
C43	C	-0.020943	-0.788098	0.380897
C44	C	-0.020912	-0.577638	0.380991
C45	C	-0.231336	-0.577418	0.380585
C46	C	-0.129735	-0.611383	0.346870
C47	C	-0.054722	-0.611464	0.347017
C48	C	-0.073450	-0.630202	0.328195
C49	C	-0.087616	-0.712029	0.371239
C50	C	-0.070599	-0.763199	0.388315
C51	C	0.012191	-0.763282	0.356872
C52	C	-0.004828	-0.712113	0.339795
C53	C	-0.155381	-0.623711	0.397158
C54	C	-0.206547	-0.606601	0.414133
C55	C	-0.206417	-0.564839	0.330529
C56	C	-0.155251	-0.581949	0.313554
C57	C	-0.067051	-0.561160	0.334643
C58	C	-0.050026	-0.544131	0.351759
C59	C	-0.008343	-0.627704	0.393612
C60	C	-0.025368	-0.644736	0.376502
C61	C	-0.066922	-0.561168	0.246303
C62	C	-0.049794	-0.544141	0.195134
C63	C	-0.008048	-0.627719	0.195183
C64	C	-0.025175	-0.644745	0.246352
C65	C	-0.054614	-0.611468	0.271911
C66	C	-0.054732	-0.686488	0.346980
C67	C	-0.002117	-0.558258	0.114025
C68	C	-0.002879	-0.844379	0.399940
C69	C	-0.002504	-0.558243	0.399473
C70	C	-0.287615	-0.558285	0.398601
N71	N	0.434975	-0.466279	0.491900
O72	O	0.591199	-0.470749	0.375150
O73	O	0.591395	-0.565767	0.504116
O74	O	0.591311	-0.565550	0.422329
O75	O	0.591283	-0.470966	0.456937
O76	O	0.510024	-0.538522	0.449509
O77	O	0.510108	-0.538739	0.531297
O78	O	0.509913	-0.443721	0.402330
Cu79	Cu	0.502588	-0.488762	0.469295
Cu80	Cu	0.598719	-0.520726	0.437151
O81	O	0.509997	-0.443938	0.484117
N82	N	0.666332	-0.543209	0.414541
N83	N	0.090323	-0.121809	0.492157
O84	O	-0.026342	0.034503	0.487582
O85	O	0.102626	0.034543	0.392540
O86	O	0.020797	0.034507	0.392812
O87	O	0.055487	0.034539	0.487310
O88	O	0.047933	-0.046785	0.419900
O89	O	0.129763	-0.046749	0.419628
O90	O	0.000794	-0.046789	0.514670
Cu91	Cu	0.067756	-0.054192	0.469623
Cu92	Cu	0.035664	0.041946	0.437588
O93	O	0.082623	-0.046753	0.514399
N94	N	0.013091	0.109564	0.415054
N95	N	0.090671	-0.466416	0.836606
O96	O	0.086120	-0.583065	0.992910
O97	O	-0.008880	-0.454051	0.992954
O98	O	-0.008658	-0.535864	0.992931
O99	O	0.085897	-0.501252	0.992933
O100	O	0.018407	-0.508749	0.911642
O101	O	0.018185	-0.426936	0.911665
O102	O	0.113185	-0.555949	0.911621
Cu103	Cu	0.068156	-0.488967	0.904221
Cu104	Cu	0.036148	-0.521034	1.000355
O105	O	0.112963	-0.474136	0.911644
N106	N	0.013633	-0.543590	1.067970
C107	C	0.031262	-0.424144	0.393290
C108	C	0.132513	-0.525291	0.393180
C109	C	0.072229	-0.585787	0.514090
C110	C	-0.029022	-0.484640	0.514200
C111	C	0.550775	-0.565338	0.533954
C112	C	0.550672	-0.565070	0.432670
C113	C	0.550530	-0.444149	0.372492
C114	C	0.550635	-0.444418	0.473776
C115	C	0.132408	-0.005998	0.392963
C116	C	0.031106	-0.006142	0.393333
C117	C	-0.029021	-0.006147	0.514213
C118	C	0.072314	-0.006104	0.513878
C119	C	-0.008430	-0.424240	0.952316
C120	C	-0.008150	-0.525550	0.952271
C121	C	0.112735	-0.585760	0.952260
C122	C	0.112461	-0.484444	0.952286
H123	H	0.016194	-0.427197	0.832639
C124	C	0.021074	-0.006164	0.353227
N125	N	0.013519	-0.006185	0.323021
H126	H	0.198696	-0.471996	0.739692
C127	C	0.024328	-0.664328	0.167074
N128	N	0.048715	-0.691904	0.145903
H129	H	-0.097376	-0.783993	0.408060
H130	H	-0.066059	-0.006159	0.544050
C131	C	0.152999	-0.635845	0.952330
N132	N	0.183316	-0.673580	0.952415
H133	H	0.169370	-0.005761	0.363053
H134	H	0.023891	-0.387055	0.363546
H135	H	0.169570	-0.532590	0.363385
C136	C	0.152594	-0.474438	0.952279
N137	N	0.182822	-0.466901	0.952272
H138	H	0.079602	-0.622875	0.543835
H139	H	0.079744	-0.006095	0.543566
H140	H	-0.037843	-0.532946	0.952238
H141	H	-0.038255	-0.387188	0.952329
H142	H	-0.066081	-0.477343	0.543993
H143	H	0.047048	-0.396226	0.739820
C144	C	-0.234487	-0.532466	0.293880
N145	N	-0.255628	-0.508081	0.266276
C146	C	-0.011631	-0.700081	0.274518
N147	N	-0.001430	-0.741760	0.295731
H148	H	0.550826	-0.595166	0.570996
C149	C	0.550688	-0.605212	0.422666
N150	N	0.550700	-0.635447	0.415132
H151	H	0.550629	-0.414708	0.481180
C152	C	0.037390	-0.387792	0.570767
N153	N	0.009849	-0.363422	0.595147
C154	C	0.177352	-0.511367	0.839818
N155	N	0.204935	-0.535738	0.860984
C156	C	0.176994	-0.511300	0.447146
N157	N	0.204535	-0.535663	0.422757
C158	C	0.212840	-0.475477	0.482925
N159	N	0.254523	-0.485710	0.472656
C160	C	0.001543	-0.423623	0.534989
N161	N	-0.040139	-0.413394	0.545260
H162	H	0.338156	-0.509129	0.552896
C163	C	0.438290	-0.554315	0.523966
N164	N	0.459498	-0.595676	0.529971
H165	H	0.338097	-0.358917	0.495611
C166	C	0.168889	-0.225945	0.439097
N167	N	0.193245	-0.247129	0.411533
C168	C	0.438228	-0.380444	0.457657
N169	N	0.459412	-0.353205	0.437493
C170	C	0.133016	-0.118494	0.403322
N171	N	0.143219	-0.097287	0.361643
H172	H	0.053825	-0.125861	0.569312
C173	C	0.081292	-0.226003	0.614593
N174	N	0.071086	-0.247208	0.656272
H175	H	0.550467	-0.414317	0.335455
H176	H	-0.090896	-0.534066	0.267110
C177	C	-0.063347	-0.488804	0.166973
N178	N	-0.073555	-0.447125	0.145760
H179	H	-0.060067	-0.503170	0.341685
C180	C	-0.099342	-0.524558	0.302212
N181	N	-0.123664	-0.496987	0.277784
H182	H	0.015562	-0.654800	0.417614
H183	H	0.021953	-0.691318	0.320042
C184	C	0.067089	-0.791471	0.348970
N185	N	0.108438	-0.812702	0.343016
C186	C	-0.011805	-0.700072	0.390109
N187	N	-0.001586	-0.741751	0.400356
H188	H	-0.128252	-0.691169	0.377093
H189	H	-0.227429	-0.616637	0.455084
C190	C	-0.127038	-0.568388	0.258232
N191	N	-0.105789	-0.558173	0.216563
C192	C	-0.127314	-0.656087	0.433807
N193	N	-0.106174	-0.680473	0.461412
