data_functionalizedCrystal
_audit_creation_method	'MofGen! by Chris Wilmer'
_symmetry_space_group_name_H-M	'P1'
_symmetry_Int_Tables_number	1
_symmetry_cell_setting	triclinic
loop_
_symmetry_equiv_pos_as_xyz
  x,y,z
_cell_length_a	19.188930
_cell_length_b	19.188930
_cell_length_c	18.266242
_cell_angle_alpha	89.989745
_cell_angle_beta	89.977180
_cell_angle_gamma	83.144779
loop_
_atom_site_label
_atom_site_type_symbol
_atom_site_fract_x
_atom_site_fract_y
_atom_site_fract_z
O1	O	-0.926149	-0.087167	0.061124
O2	O	-0.426149	0.412833	0.561124
O3	O	-0.722838	-0.098902	0.061075
O4	O	-0.222838	0.401098	0.561075
O5	O	-0.830361	0.008621	0.061087
O6	O	-0.330361	0.508621	0.561087
O7	O	-0.818627	-0.194690	0.061113
O8	O	-0.318627	0.305310	0.561113
O9	O	-0.830343	0.008624	-0.060675
O10	O	-0.330343	0.508624	0.439325
O11	O	-0.722820	-0.098899	-0.060687
O12	O	-0.222820	0.401101	0.439313
O13	O	-0.926131	-0.087164	-0.060638
O14	O	-0.426131	0.412836	0.439362
Zn15	Zn	-0.824473	-0.093031	-0.079994
Zn16	Zn	-0.324473	0.406969	0.420006
Zn17	Zn	-0.824497	-0.093035	0.080432
Zn18	Zn	-0.324497	0.406965	0.580432
O19	O	-0.818608	-0.194687	-0.060649
O20	O	-0.318608	0.305313	0.439351
C21	C	-0.696818	-0.098520	0.000188
C22	C	-0.196818	0.401480	0.500188
C23	C	-0.619313	-0.097380	0.000169
C24	C	-0.119313	0.402620	0.500169
C25	C	-0.829972	0.034634	0.000204
C26	C	-0.329972	0.534634	0.500204
C27	C	-0.828831	0.112138	0.000197
C28	C	-0.328831	0.612138	0.500197
C29	C	-0.952151	-0.087546	0.000252
C30	C	-0.452151	0.412454	0.500252
C31	C	-1.029656	-0.088687	0.000276
C32	C	-0.529656	0.411313	0.500276
C33	C	-0.574389	-0.160470	0.000188
C34	C	-0.074389	0.339530	0.500188
C35	C	-0.501566	-0.159399	0.000196
C36	C	-0.001566	0.340601	0.500196
C37	C	-0.473669	-0.095233	0.000199
C38	C	0.026331	0.404767	0.500199
C39	C	-0.518603	-0.032133	0.000175
C40	C	-0.018603	0.467867	0.500175
C41	C	-0.591425	-0.033207	0.000160
C42	C	-0.091425	0.466793	0.500160
N43	N	-0.365695	-0.046187	0.041663
N44	N	0.134305	0.453813	0.541663
N45	N	-0.296517	-0.045171	0.041679
N46	N	0.203483	0.454829	0.541679
C47	C	-0.254260	-0.091994	0.000243
C48	C	0.245740	0.408006	0.500243
N49	N	-0.283795	-0.139882	-0.041200
N50	N	0.216205	0.360118	0.458800
N51	N	-0.352980	-0.140900	-0.041213
N52	N	0.147020	0.359100	0.458787
C53	C	-0.394707	-0.094062	0.000215
C54	C	0.105293	0.405938	0.500215
C55	C	-0.130372	-0.153928	0.000270
C56	C	0.369628	0.346072	0.500270
C57	C	-0.057547	-0.152853	0.000274
C58	C	0.442453	0.347147	0.500274
C59	C	-0.074586	-0.025586	0.000261
C60	C	0.425414	0.474414	0.500261
C61	C	-0.147409	-0.026662	0.000250
C62	C	0.352591	0.473338	0.500250
C63	C	-0.175298	-0.090835	0.000258
C64	C	0.324702	0.409165	0.500258
C65	C	-0.818997	-0.220700	0.000236
C66	C	-0.318997	0.279300	0.500236
C67	C	-0.820138	-0.298204	0.000247
C68	C	-0.320138	0.201796	0.500247
N69	N	-0.824461	-0.093028	-0.189481
N70	N	-0.324461	0.406972	0.310519
C71	C	-0.891922	0.157062	0.000209
C72	C	-0.391922	0.657062	0.500209
C73	C	-0.890850	0.229886	0.000220
C74	C	-0.390850	0.729886	0.500220
C75	C	-0.826684	0.257782	0.000206
C76	C	-0.326684	0.757782	0.500206
C77	C	-0.763585	0.212849	0.000198
C78	C	-0.263585	0.712849	0.500198
C79	C	-0.764658	0.140026	0.000194
C80	C	-0.264658	0.640026	0.500194
N81	N	-0.777631	0.365788	-0.041244
N82	N	-0.277631	0.865788	0.458756
N83	N	-0.776615	0.434967	-0.041242
N84	N	-0.276615	0.934967	0.458758
C85	C	-0.823446	0.477191	0.000220
C86	C	-0.323446	0.977191	0.500220
N87	N	-0.871341	0.447625	0.041669
N88	N	-0.371341	0.947625	0.541669
N89	N	-0.872359	0.378440	0.041664
N90	N	-0.372359	0.878440	0.541664
C91	C	-0.825513	0.336745	0.000210
C92	C	-0.325513	0.836745	0.500210
C93	C	-0.885379	0.601079	0.000245
C94	C	-0.385379	1.101079	0.500245
C95	C	-0.884305	0.673904	0.000261
C96	C	-0.384305	1.173904	0.500261
C97	C	-0.757038	0.656865	0.000231
C98	C	-0.257038	1.156865	0.500231
C99	C	-0.758114	0.584042	0.000222
C100	C	-0.258114	1.084042	0.500222
C101	C	-0.822287	0.556154	0.000226
C102	C	-0.322287	1.056154	0.500226
C103	C	-0.866670	-0.135273	-0.227768
C104	C	-0.366670	0.364727	0.272232
C105	C	-0.866682	-0.135271	-0.304413
C106	C	-0.366682	0.364729	0.195587
C107	C	-0.824471	-0.093032	-0.342768
C108	C	-0.324471	0.406968	0.157232
C109	C	-0.782260	-0.050778	-0.304473
C110	C	-0.282260	0.449222	0.195527
C111	C	-0.782254	-0.050776	-0.227829
C112	C	-0.282254	0.449224	0.272171
N113	N	-0.763324	-0.091312	-0.463136
N114	N	-0.263324	0.408688	0.036864
N115	N	-0.763330	-0.091318	-0.535944
N116	N	-0.263330	0.408682	-0.035944
C117	C	-0.824485	-0.093035	-0.573691
C118	C	-0.324485	0.406965	-0.073691
N119	N	-0.885634	-0.094759	-0.535878
N120	N	-0.385634	0.405241	-0.035878
N121	N	-0.885626	-0.094757	-0.463064
N122	N	-0.385626	0.405243	0.036936
C123	C	-0.824472	-0.093029	-0.425875
C124	C	-0.324472	0.406971	0.074125
C125	C	-0.866711	-0.135280	-0.695084
C126	C	-0.366711	0.364720	-0.195084
C127	C	-0.866724	-0.135273	-0.771730
C128	C	-0.366724	0.364727	-0.271730
C129	C	-0.782295	-0.050784	-0.771789
C130	C	-0.282295	0.449216	-0.271789
C131	C	-0.782288	-0.050787	-0.695144
C132	C	-0.282288	0.449213	-0.195144
C133	C	-0.824495	-0.093039	-0.656796
C134	C	-0.324495	0.406961	-0.156796
N135	N	-0.824513	-0.093033	0.189919
N136	N	-0.324513	0.406967	0.689919
H137	H	-0.597091	-0.212725	0.000196
H138	H	-0.097091	0.287275	0.500196
H139	H	-0.153080	-0.206181	0.000267
H140	H	0.346920	0.293819	0.500267
O141	O	-0.907604	-0.176297	-0.190404
O142	O	-0.407604	0.323703	0.309596
C143	C	-0.898562	-0.167227	-0.114546
C144	C	-0.398562	0.332773	0.385454
H145	H	-0.845748	-0.147444	-0.104107
H146	H	-0.345748	0.352556	0.395893
H147	H	-0.942478	-0.127348	-0.092781
H148	H	-0.442478	0.372652	0.407219
C149	C	-0.965574	-0.262210	-0.088003
C150	C	-0.465574	0.237790	0.411997
C151	C	-0.900703	-0.237919	-0.075182
C152	C	-0.400703	0.262081	0.424818
H153	H	-0.966897	-0.305815	-0.063721
H154	H	-0.466897	0.194185	0.436279
H155	H	-0.971668	-0.268319	-0.139111
H156	H	-0.471668	0.231681	0.360889
H157	H	-1.002163	-0.228971	-0.069866
H158	H	-0.502163	0.271029	0.430134
H159	H	-0.864116	-0.271153	-0.093328
H160	H	-0.364116	0.228847	0.406672
H161	H	-0.894603	-0.231816	-0.024077
H162	H	-0.394603	0.268184	0.475923
H163	H	-0.901054	-0.169675	-0.335591
H164	H	-0.401054	0.330325	0.164409
O165	O	-0.907747	-0.176378	-0.808811
O166	O	-0.407747	0.323622	-0.308811
C167	C	-0.945008	-0.213654	-0.758524
C168	C	-0.445008	0.286346	-0.258524
H169	H	-0.916087	-0.217798	-0.703905
H170	H	-0.416087	0.282202	-0.203905
H171	H	-0.999900	-0.184761	-0.750350
H172	H	-0.499900	0.315239	-0.250350
C173	C	-0.986145	-0.282718	-0.855505
C174	C	-0.486145	0.217282	-0.355505
C175	C	-0.950621	-0.287812	-0.788422
C176	C	-0.450621	0.212188	-0.288422
H177	H	-0.989611	-0.328460	-0.873947
H178	H	-0.489611	0.171540	-0.373947
H179	H	-0.961044	-0.257602	-0.889384
H180	H	-0.461044	0.242398	-0.389384
H181	H	-1.031885	-0.258637	-0.848683
H182	H	-0.531885	0.241363	-0.348683
H183	H	-0.904879	-0.311884	-0.795246
H184	H	-0.404879	0.188116	-0.295246
H185	H	-0.975715	-0.312933	-0.754544
H186	H	-0.475715	0.187067	-0.254544
O187	O	-0.741182	-0.009722	-0.190748
O188	O	-0.241182	0.490278	0.309252
C189	C	-0.703943	0.027579	-0.241032
C190	C	-0.203943	0.527579	0.258968
H191	H	-0.699783	-0.001333	-0.295664
H192	H	-0.199783	0.498667	0.204336
H193	H	-0.732877	0.082455	-0.249177
H194	H	-0.232877	0.582455	0.250823
C195	C	-0.634907	0.068759	-0.144060
C196	C	-0.134907	0.568759	0.355940
C197	C	-0.629793	0.033245	-0.211158
C198	C	-0.129793	0.533245	0.288842
H199	H	-0.589169	0.072258	-0.125631
H200	H	-0.089169	0.572258	0.374369
H201	H	-0.659998	0.043631	-0.110181
H202	H	-0.159998	0.543631	0.389819
H203	H	-0.659022	0.114486	-0.150856
H204	H	-0.159022	0.614486	0.349144
H205	H	-0.605687	-0.012483	-0.204359
H206	H	-0.105687	0.487517	0.295641
H207	H	-0.604697	0.058365	-0.245034
H208	H	-0.104697	0.558365	0.254966
H209	H	-0.944176	0.134360	0.000214
H210	H	-0.444176	0.634360	0.500214
H211	H	-0.020970	-0.204232	0.000285
H212	H	0.479030	0.295768	0.500285
H213	H	-0.713281	0.103448	0.000184
H214	H	-0.213281	0.603448	0.500184
O215	O	-0.047580	0.036790	0.000361
O216	O	0.452420	0.536790	0.500361
C217	C	-0.070578	0.075228	0.063424
C218	C	0.429422	0.575228	0.563424
H219	H	-0.121040	0.056354	0.084441
H220	H	0.378960	0.556354	0.584441
H221	H	-0.028435	0.067012	0.107590
H222	H	0.471565	0.567012	0.607590
C223	C	-0.022484	0.176995	0.018444
C224	C	0.477516	0.676995	0.518444
C225	C	-0.084465	0.153816	0.044254
C226	C	0.415535	0.653816	0.544254
H227	H	-0.031047	0.225472	0.006621
H228	H	0.468953	0.725472	0.506621
H229	H	-0.006987	0.151098	-0.024042
H230	H	0.493013	0.651098	0.475958
H231	H	0.012629	0.170142	0.055253
H232	H	0.512629	0.670142	0.555253
H233	H	-0.119574	0.160661	0.007442
H234	H	0.380426	0.660661	0.507442
H235	H	-0.099968	0.179717	0.086733
H236	H	0.400032	0.679717	0.586733
O237	O	-0.947774	0.574099	0.000294
O238	O	-0.447774	1.074099	0.500294
C239	C	-1.003232	0.629371	0.000299
C240	C	-0.503232	1.129371	0.500299
H241	H	-0.983814	0.678779	0.023347
H242	H	-0.483814	1.178779	0.523347
H243	H	-1.022681	0.639748	-0.058109
H244	H	-0.522681	1.139748	0.441891
C245	C	-1.087621	0.548303	0.019760
C246	C	-0.587621	1.048303	0.519760
C247	C	-1.063772	0.608985	0.048075
C248	C	-0.563772	1.108985	0.548075
H249	H	-1.124966	0.535728	0.049228
H250	H	-0.624966	1.035728	0.549228
H251	H	-1.050258	0.511065	0.019754
H252	H	-0.550258	1.011065	0.519754
H253	H	-1.103823	0.556959	-0.028913
H254	H	-0.603823	1.056959	0.471087
H255	H	-1.047562	0.600326	0.096743
H256	H	-0.547562	1.100326	0.596743
H257	H	-1.101133	0.646222	0.048090
H258	H	-0.601133	1.146222	0.548090
H259	H	-0.495885	0.020111	0.000188
H260	H	0.004115	0.520111	0.500188
O261	O	-0.191122	0.034580	0.000339
O262	O	0.308878	0.534580	0.500339
C263	C	-0.233777	0.037771	0.063402
C264	C	0.266223	0.537771	0.563402
H265	H	-0.237303	-0.017638	0.084428
H266	H	0.262697	0.482362	0.584428
H267	H	-0.209938	0.069582	0.107563
H268	H	0.290062	0.569582	0.607563
C269	C	-0.303480	0.141187	0.018407
C270	C	0.196520	0.641187	0.518407
C271	C	-0.307815	0.073133	0.044228
C272	C	0.192185	0.573133	0.544228
H273	H	-0.349149	0.163003	0.006581
H274	H	0.150851	0.663003	0.506581
H275	H	-0.274741	0.139039	-0.024079
H276	H	0.225259	0.639039	0.475921
H277	H	-0.283611	0.167688	0.055212
H278	H	0.216389	0.667688	0.555212
H279	H	-0.327675	0.046631	0.007420
H280	H	0.172325	0.546631	0.507420
H281	H	-0.336559	0.075277	0.086707
H282	H	0.163441	0.575277	0.586707
O283	O	-0.952120	0.273565	0.000356
O284	O	-0.452120	0.773565	0.500356
C285	C	-0.955314	0.316201	0.063409
C286	C	-0.455314	0.816201	0.563409
H287	H	-0.919544	0.289413	0.107483
H288	H	-0.419544	0.789413	0.607483
H289	H	-0.937396	0.369103	0.049150
H290	H	-0.437396	0.869103	0.549150
C291	C	-1.075261	0.360402	0.037876
C292	C	-0.575261	0.860402	0.537876
C293	C	-1.031332	0.327497	0.092011
C294	C	-0.531332	0.827497	0.592011
H295	H	-1.122152	0.367373	0.055517
H296	H	-0.622152	0.867373	0.555517
H297	H	-1.073109	0.331679	-0.004606
H298	H	-0.573109	0.831679	0.495394
H299	H	-1.060320	0.404483	0.025998
H300	H	-0.560320	0.904483	0.525998
H301	H	-1.046267	0.283414	0.103880
H302	H	-0.546267	0.783414	0.603880
H303	H	-1.033488	0.356213	0.134495
H304	H	-0.533488	0.856213	0.634495
H305	H	-0.901078	-0.169684	-0.663859
H306	H	-0.401078	0.330316	-0.163859
O307	O	-0.741310	-0.009816	-0.809152
O308	O	-0.241310	0.490184	-0.309152
C309	C	-0.750337	-0.018904	-0.885011
C310	C	-0.250337	0.481096	-0.385011
H311	H	-0.770047	-0.071755	-0.895441
H312	H	-0.270047	0.428245	-0.395441
H313	H	-0.790256	0.024960	-0.906791
H314	H	-0.290256	0.524960	-0.406791
C315	C	-0.655440	0.048223	-0.911552
C316	C	-0.155440	0.548223	-0.411552
C317	C	-0.679643	-0.016693	-0.924364
C318	C	-0.179643	0.483307	-0.424364
H319	H	-0.611834	0.049590	-0.935828
H320	H	-0.111834	0.549590	-0.435828
H321	H	-0.649360	0.054348	-0.860445
H322	H	-0.149360	0.554348	-0.360445
H323	H	-0.688713	0.084769	-0.929702
H324	H	-0.188713	0.584769	-0.429702
H325	H	-0.646375	-0.053237	-0.906205
H326	H	-0.146375	0.446763	-0.406205
H327	H	-0.685716	-0.022824	-0.975469
H328	H	-0.185716	0.477176	-0.475469
H329	H	-0.747892	-0.016386	-0.335707
H330	H	-0.247892	0.483614	0.164293
H331	H	-0.747914	-0.016389	-0.663971
H332	H	-0.247914	0.483611	-0.163971
O333	O	-0.701298	0.240027	0.000280
O334	O	-0.201298	0.740027	0.500280
C335	C	-0.696873	0.281616	0.063351
C336	C	-0.196873	0.781616	0.563351
H337	H	-0.751963	0.299917	0.084386
H338	H	-0.251963	0.799917	0.584386
H339	H	-0.665893	0.249340	0.107502
H340	H	-0.165893	0.749340	0.607502
C341	C	-0.591809	0.323446	0.018352
C342	C	-0.091809	0.823446	0.518352
C343	C	-0.659472	0.345928	0.044185
C344	C	-0.159472	0.845928	0.544185
H345	H	-0.568736	0.363116	0.006532
H346	H	-0.068736	0.863116	0.506532
H347	H	-0.594788	0.295425	-0.024139
H348	H	-0.094788	0.795425	0.475861
H349	H	-0.566002	0.296549	0.055150
H350	H	-0.066002	0.796549	0.555150
H351	H	-0.685281	0.372817	0.007385
H352	H	-0.185281	0.872817	0.507385
H353	H	-0.656497	0.373956	0.086670
H354	H	-0.156497	0.873956	0.586670
O355	O	-0.694663	0.683873	0.000120
O356	O	-0.194663	1.183873	0.500120
C357	C	-0.656211	0.660927	-0.062961
C358	C	-0.156211	1.160927	0.437039
H359	H	-0.675079	0.610480	-0.083987
H360	H	-0.175079	1.110480	0.416013
H361	H	-0.664421	0.703104	-0.107113
H362	H	-0.164421	1.203104	0.392887
C363	C	-0.554457	0.708992	-0.017997
C364	C	-0.054457	1.208992	0.482003
C365	C	-0.577626	0.647029	-0.043818
C366	C	-0.077626	1.147029	0.456182
H367	H	-0.505982	0.700422	-0.006191
H368	H	-0.005982	1.200422	0.493809
H369	H	-0.580363	0.724454	0.024501
H370	H	-0.080363	1.224454	0.524501
H371	H	-0.561304	0.744134	-0.054795
H372	H	-0.061304	1.244134	0.445205
H373	H	-0.570787	0.611892	-0.007017
H374	H	-0.070787	1.111892	0.492983
H375	H	-0.551717	0.631561	-0.086309
H376	H	-0.051717	1.131561	0.413691
H377	H	-0.935683	0.710481	0.000274
H378	H	-0.435683	1.210481	0.500274
H379	H	-0.464982	-0.210776	0.000210
H380	H	0.035018	0.289224	0.500210
H381	H	-0.628003	0.018171	0.000145
H382	H	-0.128003	0.518171	0.500145
H383	H	-0.706738	0.547464	0.000208
H384	H	-0.206738	1.047464	0.500208
