data_functionalizedCrystal
_audit_creation_method	'MofGen! by Chris Wilmer'
_symmetry_space_group_name_H-M	'P1'
_symmetry_Int_Tables_number	1
_symmetry_cell_setting	triclinic
loop_
_symmetry_equiv_pos_as_xyz
  x,y,z
_cell_length_a	23.096457
_cell_length_b	14.446369
_cell_length_c	14.446369
_cell_angle_alpha	60.000250
_cell_angle_beta	89.999875
_cell_angle_gamma	60.000829
loop_
_atom_site_label
_atom_site_type_symbol
_atom_site_fract_x
_atom_site_fract_y
_atom_site_fract_z
Zr1	Zr	0.557770	1.013250	-0.121553
O2	O	0.465323	1.206359	-0.269357
O3	O	0.586110	0.820134	-0.076236
O4	O	0.586111	1.013243	-0.269355
O5	O	0.465322	1.013258	0.076091
O6	O	0.681391	1.013245	-0.269361
O7	O	0.465322	1.013250	-0.076238
O8	O	0.681389	0.667809	0.076094
O9	O	0.465324	1.358694	-0.269364
O10	O	0.669304	0.899570	-0.056921
O11	O	0.598197	0.899574	0.056764
O12	O	0.598198	1.126935	-0.170609
O13	O	0.527092	1.126939	-0.056923
Zr14	Zr	0.709731	1.013267	0.121385
Zr15	Zr	0.709732	1.013254	-0.121561
Zr16	Zr	0.557770	1.013263	0.121394
Zr17	Zr	0.557772	1.256208	-0.121564
Zr18	Zr	0.709730	0.770310	0.121396
O19	O	0.681392	1.206383	0.076069
O20	O	0.681392	1.206364	-0.269370
O21	O	0.465323	1.206378	0.076082
O22	O	0.802179	0.820159	0.269190
O23	O	0.802179	0.820140	-0.076249
O24	O	0.586109	0.820153	0.269203
O25	O	0.802180	1.013259	-0.076258
O26	O	0.681391	1.013275	0.269188
O27	O	0.586110	1.013272	0.269194
O28	O	0.802180	1.013267	0.076071
O29	O	0.586113	1.358698	-0.269371
O30	O	0.681389	0.667820	0.269204
O31	O	0.802178	0.667823	0.269197
O32	O	0.802178	0.667813	0.076087
O33	O	0.465324	1.358705	-0.076254
O34	O	0.586113	1.358708	-0.076261
O35	O	0.669303	0.899583	0.170441
O36	O	0.740410	0.899578	0.056756
O37	O	0.669305	1.126943	-0.056932
O38	O	0.598198	1.126947	0.056754
C39	C	0.633749	0.709355	-0.000070
C40	C	0.633749	0.606213	-0.000065
C41	C	0.443671	1.013254	-0.000072
C42	C	0.379159	1.013252	-0.000069
C43	C	0.589116	0.459206	0.071965
C44	C	0.588874	0.566826	0.071674
C45	C	0.601033	0.655202	-0.123598
C46	C	0.600698	0.547969	-0.123224
C47	C	0.711128	0.372760	0.050375
C48	C	0.711014	0.478911	0.052896
C49	C	0.385970	0.894573	0.059264
C50	C	0.325354	0.894572	0.059269
C51	C	0.257929	1.013255	-0.000081
C52	C	0.251120	1.131949	-0.059417
C53	C	0.311736	1.131948	-0.059410
N54	N	0.135133	1.101595	-0.096665
N55	N	0.077554	1.101588	-0.096669
C56	C	0.075296	1.013267	-0.000101
N57	N	0.132799	0.924932	0.096469
N58	N	0.190385	0.924935	0.096471
C59	C	0.192197	1.013270	-0.000094
C60	C	0.016383	0.894578	0.059243
C61	C	-0.044235	0.894581	0.059251
C62	C	-0.118469	1.131962	-0.059446
C63	C	-0.057851	1.131956	-0.059443
C64	C	0.009572	1.013260	-0.000101
C65	C	0.823831	1.013264	-0.000095
C66	C	0.888343	1.013266	-0.000099
C67	C	0.633751	1.013242	-0.303973
C68	C	0.633751	1.013236	-0.407110
C69	C	0.633753	1.317162	-0.000098
C70	C	0.633753	1.420304	-0.000102
C71	C	0.678821	0.869853	-0.482089
C72	C	0.678625	0.869756	-0.374760
C73	C	0.556489	1.084462	-0.481669
C74	C	0.556736	1.083552	-0.588528
C75	C	0.665320	1.086508	-0.590108
C76	C	0.666883	1.083806	-0.481436
C77	C	0.633751	1.013275	0.303806
C78	C	0.633751	1.013281	0.406943
C79	C	0.823830	0.709361	-0.000081
C80	C	0.888340	0.606220	-0.000080
C81	C	0.633749	0.709372	0.303820
C82	C	0.633748	0.606236	0.406962
C83	C	0.823829	0.709377	0.303809
C84	C	0.888340	0.606243	0.406947
C85	C	0.443673	1.317140	-0.303976
C86	C	0.379162	1.420275	-0.407114
C87	C	0.443672	1.317157	-0.000086
C88	C	0.379161	1.420297	-0.000087
C89	C	0.633753	1.317145	-0.303987
C90	C	0.633754	1.420282	-0.407129
C91	C	0.881519	0.557780	-0.059428
C92	C	0.942128	0.460882	-0.059450
C93	C	1.009558	0.412420	-0.000116
C94	C	1.016378	0.460869	0.059234
C95	C	0.955770	0.557772	0.059248
C96	C	0.955758	0.557807	0.396039
C97	C	1.016379	0.460915	0.492939
C98	C	1.009580	0.412453	0.600746
C99	C	0.942154	0.460898	0.611651
C100	C	0.881535	0.557795	0.514752
C101	C	0.311743	1.468722	-0.396206
C102	C	0.251123	1.565645	-0.493106
C103	C	0.257922	1.614112	-0.600913
C104	C	0.325348	1.565660	-0.611819
C105	C	0.385967	1.468746	-0.514920
C106	C	0.385983	1.468747	0.059250
C107	C	0.325374	1.565672	0.059246
C108	C	0.257944	1.614138	-0.000091
C109	C	0.251123	1.565684	-0.059437
C110	C	0.311732	1.468768	-0.059438
C111	C	0.588684	0.459920	0.481954
C112	C	0.588875	0.566841	0.374620
C113	C	0.711012	0.479385	0.481517
C114	C	0.710769	0.372010	0.588380
C115	C	0.602186	0.546980	0.589965
C116	C	0.600619	0.655449	0.481288
H117	H	0.610819	0.530122	0.162639
H118	H	0.440860	1.429301	-0.523815
H119	H	0.747074	0.500412	0.005865
Br120	Br	1.091857	0.280948	0.732242
H121	H	0.208556	1.693025	-0.679805
H122	H	0.961334	0.597199	0.107583
Br123	Br	0.334563	1.631449	-0.758137
H124	H	0.208598	1.693053	-0.000081
Br125	Br	0.477488	1.402998	0.139785
Br126	Br	0.769788	0.322073	0.719353
H127	H	0.532379	0.494965	0.037263
H128	H	0.196214	1.605160	-0.107747
Br129	Br	0.334647	1.631407	0.139794
H130	H	0.735455	0.439316	0.143904
H131	H	0.306167	1.429322	-0.107754
Br132	Br	0.302492	1.293024	-0.139939
Br133	Br	0.302496	1.402963	-0.249909
H134	H	0.610774	0.529372	0.320835
H135	H	0.961308	0.597251	0.308266
H136	H	0.631983	0.683985	-0.179615
H137	H	0.196228	1.605077	-0.484205
Br138	Br	0.494047	0.715761	0.284161
Br139	Br	-0.067094	1.293029	-0.139975
Br140	Br	0.493609	0.521987	0.478058
H141	H	1.071274	0.421481	0.484039
H142	H	0.544641	0.747506	-0.164284
H143	H	0.610378	0.370255	0.480921
Br144	Br	0.505735	0.806239	0.395606
H145	H	0.531800	0.655624	0.036680
H146	H	0.936560	0.421447	-0.107779
Br147	Br	0.752891	0.220746	0.587932
H148	H	0.440865	0.797922	0.107578
H149	H	0.746051	0.501634	0.508744
Br150	Br	0.761758	0.997249	-0.395736
H151	H	0.736462	0.440825	0.429910
Br152	Br	0.773453	0.776601	-0.284289
Br153	Br	0.508792	0.612932	0.596834
H154	H	0.630035	0.687577	0.506807
H155	H	1.058903	0.333514	-0.000136
Br156	Br	1.107897	0.395081	0.139756
Br157	Br	0.505800	0.615789	-0.190575
Br158	Br	0.617854	1.258282	-0.523985
H159	H	0.631110	0.525998	-0.179836
Br160	Br	0.625512	0.311107	0.223974
Br161	Br	0.756671	0.216566	0.199684
H162	H	0.744542	0.346783	-0.001866
Br163	Br	0.790014	0.623533	-0.139965
Br164	Br	0.107888	0.733496	0.139779
Br165	Br	0.932939	0.395114	0.757970
H166	H	0.826642	0.597219	0.523650
H167	H	0.330900	0.797926	0.107586
Br168	Br	0.159616	1.293021	-0.139953
H169	H	-0.038684	0.797935	0.107575
Br170	Br	-0.209970	1.293036	-0.139981
Br171	Br	0.656634	0.505668	0.720333
H172	H	0.735862	0.813561	-0.479751
H173	H	0.657125	0.813838	-0.481051
H174	H	0.656731	0.813507	-0.320970
H175	H	0.521327	1.188783	-0.667110
Br176	Br	0.498083	1.260299	-0.527065
Br177	Br	0.514612	0.999184	-0.588079
H178	H	0.531037	1.034989	-0.430062
H179	H	0.721355	1.040611	-0.594225
H180	H	0.632637	1.192178	-0.668309
