data_functionalizedCrystal
_audit_creation_method	'MofGen! by Chris Wilmer'
_symmetry_space_group_name_H-M	'P1'
_symmetry_Int_Tables_number	1
_symmetry_cell_setting	triclinic
loop_
_symmetry_equiv_pos_as_xyz
  x,y,z
_cell_length_a	15.944499
_cell_length_b	15.944551
_cell_length_c	13.448316
_cell_angle_alpha	90.008226
_cell_angle_beta	90.003999
_cell_angle_gamma	83.488174
loop_
_atom_site_label
_atom_site_type_symbol
_atom_site_fract_x
_atom_site_fract_y
_atom_site_fract_z
O1	O	1.114547	0.108129	0.082754
O2	O	1.614547	0.608129	0.582754
O3	O	0.869991	0.121530	0.082743
O4	O	1.369991	0.621530	0.582743
O5	O	0.998948	-0.007446	0.082740
O6	O	1.498948	0.492554	0.582740
O7	O	0.985591	0.237106	0.082757
O8	O	1.485591	0.737106	0.582757
O9	O	0.998945	-0.007458	-0.082644
O10	O	1.498945	0.492542	0.417356
O11	O	0.869989	0.121519	-0.082641
O12	O	1.369989	0.621519	0.417359
O13	O	1.114544	0.108118	-0.082630
O14	O	1.614544	0.608118	0.417370
Cu15	Cu	0.992266	0.114817	-0.097736
Cu16	Cu	1.492266	0.614817	0.402264
Cu17	Cu	0.992270	0.114831	0.097849
Cu18	Cu	1.492270	0.614831	0.597849
O19	O	0.985588	0.237095	-0.082627
O20	O	1.485588	0.737095	0.417373
C21	C	0.838695	0.120976	0.000049
C22	C	1.338695	0.620976	0.500049
C23	C	0.745447	0.119331	0.000045
C24	C	1.245447	0.619331	0.500045
C25	C	0.453911	0.194263	0.000065
C26	C	0.953911	0.694263	0.500065
C27	C	0.514942	0.155317	0.081607
C28	C	1.014942	0.655317	0.581607
C29	C	0.409810	0.113355	0.000068
C30	C	0.909810	0.613355	0.500068
C31	C	0.514925	0.155285	-0.081448
C32	C	1.014925	0.655285	0.418552
C33	C	0.574719	0.116296	0.000055
C34	C	1.074719	0.616296	0.500055
C35	C	0.469613	0.074386	0.081677
C36	C	0.969613	0.574386	0.581677
C37	C	0.469590	0.074365	-0.081452
C38	C	0.969590	0.574365	0.418548
C39	C	0.530603	0.035360	0.000110
C40	C	1.030603	0.535360	0.500110
C41	C	0.314810	0.111663	0.000076
C42	C	0.814810	0.611663	0.500076
C43	C	0.669718	0.117981	0.000054
C44	C	1.169718	0.617981	0.500054
C45	C	0.998392	-0.038746	0.000047
C46	C	1.498392	0.461254	0.500047
C47	C	0.996729	-0.131992	0.000047
C48	C	1.496729	0.368008	0.500047
C49	C	0.912823	-0.346833	0.000057
C50	C	1.412823	0.153167	0.500057
C51	C	0.951785	-0.407863	-0.081486
C52	C	1.451785	0.092137	0.418514
C53	C	0.993722	-0.302717	0.000054
C54	C	1.493722	0.197283	0.500054
C55	C	0.951807	-0.407835	0.081570
C56	C	1.451807	0.092165	0.581570
C57	C	0.990811	-0.467629	0.000066
C58	C	1.490811	0.032371	0.500066
C59	C	1.032706	-0.362519	-0.081556
C60	C	1.532706	0.137481	0.418444
C61	C	1.032717	-0.362485	0.081573
C62	C	1.532717	0.137515	0.581573
C63	C	1.071737	-0.423497	0.000011
C64	C	1.571737	0.076503	0.500011
C65	C	0.995397	-0.207715	0.000047
C66	C	1.495397	0.292285	0.500047
C67	C	0.989143	-0.562630	0.000066
C68	C	1.489143	-0.062630	0.500066
C69	C	1.145840	0.108672	0.000065
C70	C	1.645840	0.608672	0.500065
C71	C	1.239089	0.110317	0.000076
C72	C	1.739089	0.610317	0.500076
C73	C	0.986144	0.268394	0.000067
C74	C	1.486144	0.768394	0.500067
C75	C	0.987806	0.361640	0.000074
C76	C	1.487806	0.861640	0.500074
N77	N	0.992272	0.114834	0.235413
N78	N	1.492272	0.614834	0.735413
N79	N	0.992270	0.114808	-0.235301
N80	N	1.492270	0.614808	0.264699
C81	C	1.049481	0.057835	0.287452
C82	C	1.549481	0.557835	0.787452
C83	C	1.049484	0.057833	0.391556
C84	C	1.549484	0.557833	0.891556
C85	C	0.992275	0.114826	0.443618
C86	C	1.492275	0.614826	0.943618
C87	C	0.935064	0.171830	0.391572
C88	C	1.435064	0.671830	0.891572
C89	C	0.935065	0.171836	0.287470
C90	C	1.435065	0.671836	0.787470
C91	C	0.935064	0.171813	0.608552
C92	C	1.435064	0.671813	1.108552
C93	C	0.935062	0.171806	0.712660
C94	C	1.435062	0.671806	1.212660
C95	C	1.049483	0.057810	0.712637
C96	C	1.549483	0.557810	1.212637
C97	C	1.049484	0.057815	0.608536
C98	C	1.549484	0.557815	1.108536
C99	C	0.992272	0.114819	0.556497
C100	C	1.492272	0.614819	1.056497
H101	H	0.563780	-0.031846	0.000148
H102	H	1.063780	0.468154	0.500148
H103	H	1.096067	0.011396	0.755013
H104	H	1.596067	0.511396	1.255013
Cl105	Cl	0.402448	0.297928	0.000190
Cl106	Cl	0.902448	0.797928	0.500190
Cl107	Cl	0.438524	0.021566	-0.187897
Cl108	Cl	0.938524	0.521566	0.312103
Cl109	Cl	0.545921	0.208132	-0.187876
Cl110	Cl	1.045921	0.708132	0.312124
Cl111	Cl	0.438776	0.021599	0.188226
Cl112	Cl	0.938776	0.521599	0.688226
Cl113	Cl	1.121400	-0.013838	0.543084
Cl114	Cl	1.621400	0.486162	1.043084
Cl115	Cl	0.898957	-0.438907	-0.187925
Cl116	Cl	1.398957	0.061093	0.312075
Cl117	Cl	0.863140	0.243460	0.778102
Cl118	Cl	1.363140	0.743460	1.278102
Cl119	Cl	0.863146	0.243498	0.222051
Cl120	Cl	1.363146	0.743498	0.722051
Cl121	Cl	1.085491	-0.331678	-0.188107
Cl122	Cl	1.585491	0.168322	0.311893
H123	H	0.535041	0.189546	0.150545
H124	H	1.035041	0.689546	0.650545
H125	H	0.888479	0.218234	0.566185
H126	H	1.388479	0.718234	1.066185
H127	H	1.066906	-0.342356	0.150517
H128	H	1.566906	0.157644	0.650517
H129	H	0.845673	-0.313513	-0.000028
H130	H	1.345673	0.186487	0.499972
H131	H	1.138946	-0.456668	-0.000032
H132	H	1.638946	0.043332	0.499968
Cl133	Cl	0.898958	-0.438837	0.187996
Cl134	Cl	1.398958	0.061163	0.687996
Cl135	Cl	1.121401	-0.013822	0.222013
Cl136	Cl	1.621401	0.486178	0.722013
H137	H	1.096068	0.011421	0.433925
H138	H	1.596068	0.511421	0.933925
H139	H	0.888486	0.218239	0.433967
H140	H	1.388486	0.718239	0.933967
