data_functionalizedCrystal
_audit_creation_method	'MofGen! by Chris Wilmer'
_symmetry_space_group_name_H-M	'P1'
_symmetry_Int_Tables_number	1
_symmetry_cell_setting	triclinic
loop_
_symmetry_equiv_pos_as_xyz
  x,y,z
_cell_length_a	18.050590
_cell_length_b	18.050590
_cell_length_c	18.050591
_cell_angle_alpha	90.005734
_cell_angle_beta	89.986577
_cell_angle_gamma	90.007719
loop_
_atom_site_label
_atom_site_type_symbol
_atom_site_fract_x
_atom_site_fract_y
_atom_site_fract_z
Zn1	Zn	1.135250	-0.296050	0.419597
Zn2	Zn	1.135209	-0.420195	0.295406
Zn3	Zn	1.011096	-0.296000	0.295456
Zn4	Zn	1.011038	-0.420180	0.419588
O5	O	1.073148	-0.358106	0.357512
O6	O	1.239169	-0.312546	0.403106
O7	O	1.118752	-0.403706	0.191488
O8	O	1.027607	-0.192082	0.311948
O9	O	1.239139	-0.403755	0.311863
O10	O	1.118822	-0.192119	0.403154
O11	O	1.027567	-0.312461	0.191524
O12	O	0.907164	-0.312445	0.311939
O13	O	1.027507	-0.403728	0.523514
O14	O	0.907121	-0.403679	0.403139
O15	O	1.118765	-0.312531	0.523521
O16	O	1.118696	-0.524118	0.311854
O17	O	1.027468	-0.524106	0.403091
C18	C	0.880196	-0.358056	0.357544
C19	C	0.797650	-0.358052	0.357575
C20	C	0.598198	-0.407807	0.407052
C21	C	0.548789	-0.340098	0.425328
C22	C	0.646520	-0.358093	0.357539
C23	C	0.548847	-0.425842	0.339262
C24	C	0.500535	-0.358139	0.357505
C25	C	0.598199	-0.290348	0.375850
C26	C	0.598260	-0.376138	0.289753
C27	C	0.548874	-0.308382	0.308003
C28	C	0.730618	-0.358068	0.357560
C29	C	0.416438	-0.358157	0.357484
C30	C	1.073091	-0.551059	0.357482
C31	C	1.073135	-0.633604	0.357494
C32	C	1.122847	-0.833034	0.307949
C33	C	1.140968	-0.882397	0.375724
C34	C	1.073177	-0.784735	0.357524
C35	C	1.055132	-0.882453	0.289779
C36	C	1.073219	-0.930720	0.357547
C37	C	1.091332	-0.833010	0.425335
C38	C	1.005464	-0.833062	0.339344
C39	C	1.023559	-0.882403	0.407166
C40	C	1.073154	-0.700636	0.357510
C41	C	1.073241	-1.014816	0.357568
C42	C	1.266854	-0.358158	0.357480
C43	C	1.349399	-0.358180	0.357467
C44	C	1.073134	-0.358133	0.551217
C45	C	1.073129	-0.358144	0.633763
C46	C	1.073226	-0.164401	0.357558
C47	C	1.073259	-0.081855	0.357577
C48	C	1.023496	-0.407731	0.833210
C49	C	1.091244	-0.425912	0.882583
C50	C	1.073132	-0.358134	0.784893
C51	C	1.005389	-0.339977	0.882603
C52	C	1.073129	-0.358126	0.930879
C53	C	1.140915	-0.376351	0.833179
C54	C	1.055015	-0.290384	0.833194
C55	C	1.122809	-0.308540	0.882545
C56	C	1.073132	-0.358141	0.700795
C57	C	1.073136	-0.358119	1.014975
C58	C	1.073149	-0.358104	1.164560
C59	C	1.073133	-0.358113	1.082014
H60	H	0.527060	-0.324850	0.482638
H61	H	1.106555	-0.811384	0.482684
H62	H	0.981572	-0.903943	0.449148
N63	N	1.034888	-0.911209	0.213876
H64	H	0.984093	-0.892487	0.199752
H65	H	1.034624	-0.967155	0.214606
H66	H	0.527164	-0.483115	0.323820
H67	H	0.981575	-0.449709	0.811549
H68	H	1.039667	-0.233109	0.811484
N69	N	0.929611	-0.804329	0.318936
H70	H	0.916007	-0.822283	0.267717
H71	H	0.930097	-0.748384	0.319601
N72	N	1.111554	-0.501797	0.911321
H73	H	1.074034	-0.539232	0.893380
H74	H	1.111887	-0.501043	0.967266
H75	H	0.619786	-0.233057	0.391359
N76	N	0.520366	-0.252663	0.252515
H77	H	0.538417	-0.201551	0.266402
H78	H	0.464418	-0.253350	0.252518
N79	N	0.627060	-0.396350	0.213855
H80	H	0.609138	-0.447544	0.200104
H81	H	0.683005	-0.395660	0.214363
N82	N	1.216823	-0.396775	0.804552
H83	H	1.216351	-0.396674	0.748601
H84	H	1.230574	-0.447769	0.823007
H85	H	0.619857	-0.449774	0.448970
H86	H	1.164866	-0.811357	0.266069
N87	N	1.216838	-0.911110	0.396117
H88	H	1.254310	-0.893158	0.358632
H89	H	1.216099	-0.967055	0.396457
H90	H	1.164831	-0.266594	0.904070
N91	N	0.929509	-0.319635	0.911364
H92	H	0.892061	-0.357139	0.893418
H93	H	0.915505	-0.268815	0.892621
