data_functionalizedCrystal
_audit_creation_method	'MofGen! by Chris Wilmer'
_symmetry_space_group_name_H-M	'P1'
_symmetry_Int_Tables_number	1
_symmetry_cell_setting	triclinic
loop_
_symmetry_equiv_pos_as_xyz
  x,y,z
_cell_length_a	13.339070
_cell_length_b	15.538191
_cell_length_c	12.376457
_cell_angle_alpha	96.760679
_cell_angle_beta	75.589755
_cell_angle_gamma	81.450694
loop_
_atom_site_label
_atom_site_type_symbol
_atom_site_fract_x
_atom_site_fract_y
_atom_site_fract_z
O1	O	1.207811	0.419051	-0.094003
O2	O	0.934051	0.362493	-0.094002
O3	O	1.124222	0.267570	-0.094008
O4	O	1.017640	0.513974	-0.093997
O5	O	1.076708	0.291259	0.094005
O6	O	0.886537	0.386182	0.094011
O7	O	1.160297	0.442740	0.094010
Zn8	Zn	1.015874	0.418223	0.123862
Zn9	Zn	1.078475	0.387011	-0.123854
O10	O	0.970126	0.537663	0.094016
C11	C	0.876113	0.364784	0.000004
C12	C	0.774268	0.336307	0.000004
C13	C	1.111617	0.247233	-0.000005
C14	C	1.144835	0.151340	-0.000017
C15	C	0.328171	0.557731	-0.000004
C16	C	0.423859	0.584490	-0.000007
C17	C	0.511466	0.522446	-0.000004
C18	C	0.503376	0.433640	0.000002
C19	C	0.407681	0.406878	-0.000004
C20	C	0.590975	0.371593	-0.000004
C21	C	0.582885	0.282786	0.000002
C22	C	0.487198	0.256029	-0.000003
C23	C	0.399592	0.318072	-0.000006
C24	C	0.686670	0.398355	0.000002
C25	C	0.766179	0.247501	0.000002
C26	C	0.670491	0.220743	0.000005
C27	C	0.814845	-0.222695	0.000009
C28	C	0.846079	-0.312797	0.000011
C29	C	1.021762	-0.289322	0.000010
C30	C	0.990545	-0.199217	0.000002
C31	C	0.887085	-0.165911	0.000003
C32	C	1.062785	-0.142432	-0.000004
C33	C	1.031568	-0.052334	-0.000006
C34	C	0.928112	-0.019021	-0.000002
C35	C	0.855868	-0.075813	0.000001
C36	C	1.166243	-0.175739	0.000003
C37	C	1.238482	-0.118955	-0.000003
C38	C	1.207268	-0.028856	-0.000013
C39	C	1.103812	0.004457	-0.000009
C40	C	1.279512	0.027936	-0.000015
C41	C	1.248295	0.118034	-0.000017
C42	C	1.072595	0.094555	-0.000011
C43	C	1.218236	0.440449	0.000001
C44	C	1.320083	0.468926	-0.000006
C45	C	0.982732	0.558000	0.000011
C46	C	0.949516	0.653893	0.000015
N47	N	0.973157	0.439525	0.292922
N48	N	1.121201	0.365704	-0.292914
C49	C	1.220367	0.316238	0.647899
C50	C	1.250259	0.301327	0.529558
C51	C	1.180986	0.335875	0.470393
C52	C	1.081816	0.385337	0.529581
C53	C	1.051923	0.400255	0.647933
C54	C	1.012543	0.419892	0.470427
C55	C	0.913372	0.469354	0.529615
C56	C	0.883485	0.484269	0.647955
C57	C	0.952758	0.449721	0.707120
C58	C	1.042435	0.404974	0.352075
C59	C	0.873991	0.488991	0.352109
C60	C	0.844099	0.503902	0.470450
H61	H	0.693245	0.470662	0.000002
C62	C	0.661585	0.123060	-0.000001
H63	H	0.592051	0.116011	-0.000013
H64	H	0.677030	0.104711	0.065562
H65	H	0.710173	0.088193	-0.065575
C66	C	0.616717	0.551881	0.000005
H67	H	0.608986	0.613657	0.000013
H68	H	0.669626	0.521815	-0.065552
H69	H	0.636462	0.538345	0.065585
C70	C	0.432752	0.682169	-0.000000
H71	H	0.366872	0.715289	0.000010
H72	H	0.485000	0.687487	-0.065560
H73	H	0.451853	0.704002	0.065577
C74	C	0.958793	0.131201	-0.000018
H75	H	0.950555	0.192992	-0.000026
H76	H	0.911238	0.119877	0.065544
H77	H	0.944390	0.103351	-0.065593
C78	C	1.296555	0.278244	0.712980
H79	H	1.264545	0.294210	0.791938
H80	H	1.359616	0.301266	0.693572
H81	H	1.312496	0.215805	0.693593
H82	H	1.123180	0.364702	0.303895
C83	C	0.231811	0.625967	-0.000008
H84	H	0.173664	0.597309	-0.000004
H85	H	0.247727	0.653084	-0.065570
H86	H	0.214580	0.669605	0.065567
H87	H	0.928419	0.461858	0.803483
C88	C	1.213862	0.319466	0.340222
H89	H	1.282840	0.285053	0.313445
H90	H	1.213072	0.374331	0.313439
H91	H	1.165961	0.288866	0.313470
C92	C	0.294333	0.288640	-0.000002
H93	H	0.243321	0.338311	-0.000006
H94	H	0.270800	0.262990	0.065560
H95	H	0.303938	0.246470	-0.065577
H96	H	1.331003	0.261057	0.481372
C97	C	1.393309	-0.008703	-0.000009
H98	H	1.431861	0.038021	-0.000005
H99	H	1.425709	-0.051631	-0.065567
H100	H	1.392560	-0.035091	0.065570
C101	C	0.478299	0.158344	-0.000017
H102	H	0.408767	0.151291	-0.000033
H103	H	0.493744	0.139992	0.065545
H104	H	0.526891	0.123483	-0.065593
H105	H	0.837512	0.196979	-0.000000
C106	C	0.742066	-0.039172	-0.000009
H107	H	0.703508	-0.085893	-0.000004
H108	H	0.742813	-0.012774	-0.065574
H109	H	0.709665	0.003751	0.065563
C110	C	0.701043	-0.186054	-0.000001
H111	H	0.662485	-0.232775	0.000004
H112	H	0.701790	-0.159656	-0.065566
H113	H	0.668641	-0.143131	0.065571
H114	H	1.307120	0.164270	-0.000021
C115	C	0.766612	-0.375260	0.000001
H116	H	0.700529	-0.342518	-0.000010
H117	H	0.758564	-0.402638	0.065562
H118	H	0.791714	-0.419154	-0.065575
H119	H	0.902696	0.054344	0.000003
C120	C	0.797782	0.526998	0.287045
H121	H	0.734446	0.558603	0.339244
H122	H	0.782383	0.480198	0.240886
H123	H	0.829506	0.565658	0.240873
C124	C	1.352282	-0.155598	-0.000009
H125	H	1.360531	-0.217391	-0.000014
H126	H	1.366700	-0.127744	0.065549
H127	H	1.399826	-0.144275	-0.065588
C128	C	0.774411	0.538692	0.713059
H129	H	0.737432	0.557129	0.660877
H130	H	0.782817	0.588984	0.759213
H131	H	0.735683	0.503530	0.759239
C132	C	0.735006	0.558287	0.535558
H133	H	0.698018	0.576716	0.483381
H134	H	0.743374	0.608584	0.581735
H135	H	0.696309	0.523095	0.581716
H136	H	1.105999	-0.316452	0.000014
H137	H	1.191658	-0.249105	-0.000005
