data_functionalizedCrystal
_audit_creation_method	'MofGen! by Chris Wilmer'
_symmetry_space_group_name_H-M	'P1'
_symmetry_Int_Tables_number	1
_symmetry_cell_setting	triclinic
loop_
_symmetry_equiv_pos_as_xyz
  x,y,z
_cell_length_a	13.033855
_cell_length_b	12.827893
_cell_length_c	12.827885
_cell_angle_alpha	90.021189
_cell_angle_beta	82.792119
_cell_angle_gamma	97.175334
loop_
_atom_site_label
_atom_site_type_symbol
_atom_site_fract_x
_atom_site_fract_y
_atom_site_fract_z
Zn1	Zn	-0.416026	-1.650547	-0.538103
Zn2	Zn	0.083974	-1.150547	-0.038103
Zn3	Zn	-0.590802	-1.672656	-0.341181
Zn4	Zn	-0.090802	-1.172656	0.158819
Zn5	Zn	-0.416072	-1.475795	-0.363365
Zn6	Zn	0.083928	-0.975795	0.136635
Zn7	Zn	-0.590718	-1.497978	-0.515886
Zn8	Zn	-0.090718	-0.997978	-0.015886
O9	O	-0.503404	-1.574244	-0.439634
O10	O	-0.003404	-1.074244	0.060366
O11	O	-0.439226	-1.799718	-0.511995
O12	O	0.060774	-1.299718	-0.011995
O13	O	-0.567678	-1.646510	-0.197881
O14	O	-0.067678	-1.146510	0.302119
O15	O	-0.269831	-1.480440	-0.405125
O16	O	0.230169	-0.980440	0.094875
O17	O	-0.567633	-1.815961	-0.367317
O18	O	-0.067633	-1.315961	0.132683
O19	O	-0.269797	-1.608830	-0.533505
O20	O	0.230203	-1.108830	-0.033505
O21	O	-0.439304	-1.501877	-0.214179
O22	O	0.060696	-1.001877	0.285821
O23	O	-0.439223	-1.332499	-0.383583
O24	O	0.060777	-0.832499	0.116417
O25	O	-0.567490	-1.518248	-0.665076
O26	O	-0.067490	-1.018248	-0.165076
O27	O	-0.567535	-1.348797	-0.495640
O28	O	-0.067535	-0.848797	0.004360
O29	O	-0.439145	-1.630340	-0.681399
O30	O	0.060855	-1.130340	-0.181399
O31	O	-0.737025	-1.668021	-0.345775
O32	O	-0.237025	-1.168021	0.154225
O33	O	-0.736963	-1.539685	-0.474130
O34	O	-0.236963	-1.039685	0.025870
C35	C	-0.503376	-1.302730	-0.439608
C36	C	-0.003376	-0.802730	0.060392
C37	C	-0.503389	-1.186579	-0.439619
C38	C	-0.003389	-0.686579	0.060381
C39	C	-0.439960	-1.126770	-0.511293
C40	C	0.060040	-0.626770	-0.011293
C41	C	-0.439972	-1.006722	-0.511306
C42	C	0.060028	-0.506722	-0.011306
C43	C	-0.774911	-1.608688	-0.405157
C44	C	-0.274911	-1.108688	0.094843
C45	C	-0.891063	-1.623518	-0.390443
C46	C	-0.391063	-1.123518	0.109557
C47	C	-0.942851	-1.566585	-0.447334
C48	C	-0.442851	-1.066585	0.052666
C49	C	-1.062900	-1.581912	-0.432128
C50	C	-0.562900	-1.081912	0.067872
C51	C	-0.230837	-1.539694	-0.474268
C52	C	0.269163	-1.039694	0.025732
C53	C	-0.114685	-1.524971	-0.489027
C54	C	0.385315	-1.024971	0.010973
C55	C	-0.503303	-1.574302	-0.712217
C56	C	-0.003303	-1.074302	-0.212217
C57	C	-0.503260	-1.574327	-0.828376
C58	C	-0.003260	-1.074327	-0.328376
C59	C	-0.503425	-0.846817	-0.439652
C60	C	-0.003425	-0.346817	0.060348
C61	C	-0.503412	-0.962968	-0.439642
C62	C	-0.003412	-0.462968	0.060358
C63	C	-0.566757	-1.645900	-0.872099
C64	C	-0.066757	-1.145900	-0.372099
C65	C	-0.566714	-1.645927	-0.992155
C66	C	-0.066714	-1.145927	-0.492155
C67	C	-0.503430	-1.574236	-0.168121
C68	C	-0.003430	-1.074236	0.331879
C69	C	-0.503178	-1.574377	-0.052000
C70	C	-0.003178	-1.074377	0.448000
H71	H	-0.557724	-1.014365	-0.378281
H72	H	-0.057724	-0.514365	0.121719
H73	H	-0.385671	-0.955319	-0.572672
H74	H	0.114329	-0.455319	-0.072672
H75	H	-0.448816	-1.513095	-1.014374
H76	H	0.051184	-1.013095	-0.514374
N77	N	-1.055706	-1.445371	-0.568466
N78	N	-0.555706	-0.945371	-0.068466
H79	H	-1.106762	-1.409483	-0.604341
H80	H	-0.606762	-0.909483	-0.104341
H81	H	-1.010494	-1.391302	-0.531568
H82	H	-0.510494	-0.891302	-0.031568
N83	N	-0.950056	-1.703114	-0.311014
N84	N	-0.450056	-1.203114	0.188986
H85	H	-0.931046	-1.775362	-0.329702
H86	H	-0.431046	-1.275362	0.170298
H87	H	-0.931165	-1.684443	-0.238736
H88	H	-0.431165	-1.184443	0.261264
N89	N	-0.431211	-1.493174	-0.896510
N90	N	0.068789	-0.993174	-0.396510
H91	H	-0.382812	-1.529554	-0.947956
H92	H	0.117188	-1.029554	-0.447956
H93	H	-0.473783	-1.450216	-0.936317
H94	H	0.026217	-0.950216	-0.436317
N95	N	-0.638807	-1.727051	-0.803965
N96	N	-0.138807	-1.227051	-0.303965
H97	H	-0.628652	-1.715505	-0.727855
H98	H	-0.128652	-1.215505	-0.227855
H99	H	-0.713447	-1.720299	-0.813531
H100	H	-0.213447	-1.220299	-0.313531
N101	N	-1.121887	-1.661505	-0.352685
N102	N	-0.621887	-1.161505	0.147315
H103	H	-1.167104	-1.715640	-0.389510
H104	H	-0.667104	-1.215640	0.110490
H105	H	-1.070772	-1.697317	-0.316826
H106	H	-0.570772	-1.197317	0.183174
H107	H	-0.621077	-1.707202	-1.029787
H108	H	-0.121077	-1.207202	-0.529787
H109	H	-0.385643	-1.164441	-0.572643
H110	H	0.114357	-0.664441	-0.072643
N111	N	-0.575327	-1.136683	-0.358342
N112	N	-0.075327	-0.636683	0.141658
H113	H	-0.623767	-1.097566	-0.394625
H114	H	-0.123767	-0.597566	0.105375
H115	H	-0.617586	-1.193143	-0.310529
H116	H	-0.117586	-0.693143	0.189471
H117	H	-0.898315	-1.506491	-0.507295
H118	H	-0.398315	-1.006491	-0.007295
