data_functionalizedCrystal
_audit_creation_method	'MofGen! by Chris Wilmer'
_symmetry_space_group_name_H-M	'P1'
_symmetry_Int_Tables_number	1
_symmetry_cell_setting	triclinic
loop_
_symmetry_equiv_pos_as_xyz
  x,y,z
_cell_length_a	10.654553
_cell_length_b	12.811415
_cell_length_c	9.130313
_cell_angle_alpha	84.567879
_cell_angle_beta	89.999282
_cell_angle_gamma	84.263719
loop_
_atom_site_label
_atom_site_type_symbol
_atom_site_fract_x
_atom_site_fract_y
_atom_site_fract_z
O1	O	1.667065	0.147437	-0.141396
O2	O	1.301514	0.161479	-0.143260
O3	O	1.493487	0.001733	-0.122036
O4	O	1.475093	0.307183	-0.162620
O5	O	1.493484	0.001737	0.121562
O6	O	1.301512	0.161483	0.100338
O7	O	1.667063	0.147441	0.102202
Cu8	Cu	1.484287	0.154463	0.123513
Cu9	Cu	1.484290	0.154457	-0.164570
O10	O	1.475090	0.307187	0.080978
C11	C	1.254720	0.160449	-0.021324
C12	C	1.115293	0.157363	-0.020913
C13	C	0.918775	0.153008	0.112441
C14	C	1.049780	0.155914	0.112063
C15	C	1.049793	0.155915	-0.153522
C16	C	0.918788	0.153016	-0.153144
C17	C	0.918769	0.153002	0.265775
C18	C	1.049775	0.155909	0.265397
C19	C	1.492455	-0.037376	0.004957
C20	C	1.489369	-0.153917	0.020432
C21	C	1.483550	-0.372901	-0.216091
C22	C	1.480651	-0.482401	-0.201558
C23	C	1.480661	-0.482417	0.064029
C24	C	1.483561	-0.372918	0.049496
C25	C	1.485007	-0.318164	-0.090568
C26	C	1.487916	-0.208663	-0.105100
C27	C	1.487917	-0.208680	0.160486
C28	C	1.485018	-0.318180	0.175019
C29	C	1.713857	0.148471	-0.019737
C30	C	1.853284	0.151557	-0.020157
C31	C	1.476122	0.346296	-0.046018
C32	C	1.479208	0.462837	-0.061502
N33	N	1.484294	0.154466	0.326135
N34	N	1.484293	0.154446	-0.367192
C35	C	1.569322	0.083754	0.412182
C36	C	1.569318	0.083742	0.565520
C37	C	1.399256	0.225161	0.546750
C38	C	1.399255	0.225168	0.393416
C39	C	1.667509	0.002110	0.423019
C40	C	1.667506	0.002097	0.576358
H41	H	0.872108	0.225538	0.315013
H42	H	1.637389	-0.074143	0.634034
H43	H	1.484739	-0.328321	-0.330137
H44	H	1.489109	-0.164101	0.262695
H45	H	1.483835	-0.362775	0.289055
C46	C	0.846744	0.151436	-0.298999
H47	H	0.759339	0.149511	-0.279732
H48	H	0.877469	0.090816	-0.345520
H49	H	0.858961	0.213026	-0.361724
C50	C	1.639099	-0.106870	0.381262
H51	H	1.627402	-0.151691	0.468142
H52	H	1.707749	-0.136695	0.327419
H53	H	1.564593	-0.099451	0.322479
H54	H	1.330008	0.282737	0.323358
C55	C	0.879344	0.049596	0.343789
H56	H	0.952440	0.005555	0.378275
H57	H	0.834456	0.014532	0.276568
H58	H	0.826826	0.064908	0.424677
C59	C	1.305728	0.302933	0.620764
H60	H	1.317909	0.292806	0.724408
H61	H	1.221857	0.290884	0.597233
H62	H	1.319736	0.373098	0.586323
H63	H	1.103142	0.157105	-0.261795
C64	C	1.479071	-0.542612	-0.339631
H65	H	1.480361	-0.494318	-0.425124
H66	H	1.404799	-0.577866	-0.340484
H67	H	1.551104	-0.592791	-0.338482
C68	C	1.489502	-0.148434	-0.259162
H69	H	1.488206	-0.196719	-0.331836
H70	H	1.563779	-0.113187	-0.269373
H71	H	1.417475	-0.098248	-0.271334
H72	H	1.479473	-0.527016	0.178063
H73	H	1.078941	0.232466	0.302806
H74	H	1.758560	0.027675	0.372064
H75	H	1.096436	0.083369	0.333901
H76	H	1.763924	0.020082	0.615584
