data_functionalizedCrystal
_audit_creation_method	'MofGen! by Chris Wilmer'
_symmetry_space_group_name_H-M	'P1'
_symmetry_Int_Tables_number	1
_symmetry_cell_setting	triclinic
loop_
_symmetry_equiv_pos_as_xyz
  x,y,z
_cell_length_a	13.033808
_cell_length_b	16.625545
_cell_length_c	13.033109
_cell_angle_alpha	97.153577
_cell_angle_beta	89.075520
_cell_angle_gamma	97.220097
loop_
_atom_site_label
_atom_site_type_symbol
_atom_site_fract_x
_atom_site_fract_y
_atom_site_fract_z
Zn1	Zn	1.646058	-0.196890	-0.382101
Zn2	Zn	1.624089	-0.317044	-0.210141
Zn3	Zn	1.452242	-0.201231	-0.231953
Zn4	Zn	1.474022	-0.350699	-0.403865
O5	O	1.549103	-0.266466	-0.307015
O6	O	1.787060	-0.196927	-0.341053
O7	O	1.582983	-0.289413	-0.069123
O8	O	1.478031	-0.087817	-0.251890
O9	O	1.770919	-0.285204	-0.214715
O10	O	1.620427	-0.084627	-0.362203
O11	O	1.456728	-0.204326	-0.085148
O12	O	1.311215	-0.236959	-0.272994
O13	O	1.515152	-0.342564	-0.544890
O14	O	1.327217	-0.346773	-0.399298
O15	O	1.641546	-0.229561	-0.528899
O16	O	1.604103	-0.434347	-0.235819
O17	O	1.493850	-0.459073	-0.378147
C18	C	1.281900	-0.295990	-0.340875
C19	C	1.167593	-0.308642	-0.355385
C20	C	0.990556	-0.272954	-0.314458
C21	C	1.108698	-0.259878	-0.299457
C22	C	1.548987	-0.475966	-0.306997
C23	C	1.549036	-0.565584	-0.307011
C24	C	1.549078	-0.638364	-0.307027
C25	C	1.549141	-0.729668	-0.307042
C26	C	1.549196	-0.802439	-0.307048
C27	C	1.549257	-0.893749	-0.307062
C28	C	1.817348	-0.236827	-0.273023
C29	C	1.931659	-0.224197	-0.258537
C30	C	1.583229	-0.289332	-0.575253
C31	C	1.597772	-0.299076	-0.689560
C32	C	1.549250	-0.056146	-0.307052
C33	C	1.549312	0.033480	-0.307068
C34	C	1.541787	-0.261321	-0.748450
C35	C	1.556817	-0.271391	-0.866593
C36	C	1.515168	-0.243624	-0.039813
C37	C	1.500824	-0.233631	0.074518
H38	H	1.130558	-0.360070	-0.414369
O39	O	1.430220	-0.186275	-0.881369
C40	C	1.251142	-0.163632	-0.870529
C41	C	1.330986	-0.217340	-0.920545
H42	H	1.170897	-0.188717	-0.902198
H43	H	1.251479	-0.163976	-0.783118
H44	H	1.271963	-0.098398	-0.889294
H45	H	1.310222	-0.282598	-0.901860
H46	H	1.330634	-0.216927	-1.007943
H47	H	0.968699	-0.172777	-0.199553
H48	H	1.145733	-0.208454	-0.240469
H49	H	1.482726	-0.221546	-0.711405
H50	H	0.953515	-0.324380	-0.373434
H51	H	1.615877	-0.311174	-0.903634
O52	O	1.668221	-0.346472	-0.733907
C53	C	1.747364	-0.399785	-0.892100
C54	C	1.667558	-0.346071	-0.842014
H55	H	1.746839	-0.399492	-0.979513
H56	H	1.827672	-0.374678	-0.860607
H57	H	1.726609	-0.465003	-0.873255
H58	H	1.688216	-0.280841	-0.860839
H59	H	1.587273	-0.371246	-0.873509
