data_functionalizedCrystal
_audit_creation_method	'MofGen! by Chris Wilmer'
_symmetry_space_group_name_H-M	'P1'
_symmetry_Int_Tables_number	1
_symmetry_cell_setting	triclinic
loop_
_symmetry_equiv_pos_as_xyz
  x,y,z
_cell_length_a	12.759401
_cell_length_b	11.169416
_cell_length_c	11.169406
_cell_angle_alpha	89.953196
_cell_angle_beta	89.967503
_cell_angle_gamma	90.011865
loop_
_atom_site_label
_atom_site_type_symbol
_atom_site_fract_x
_atom_site_fract_y
_atom_site_fract_z
Zn1	Zn	1.606418	-0.477472	-0.678605
Zn2	Zn	2.106418	0.022528	-0.178605
Zn3	Zn	1.606287	-0.678269	-0.477927
Zn4	Zn	2.106287	-0.178269	0.022073
Zn5	Zn	1.430681	-0.477604	-0.477934
Zn6	Zn	1.930681	0.022396	0.022066
Zn7	Zn	1.430722	-0.678117	-0.678566
Zn8	Zn	1.930722	-0.178117	-0.178566
O9	O	1.518527	-0.577866	-0.578258
O10	O	2.018527	-0.077866	-0.078258
O11	O	1.753422	-0.504117	-0.651998
O12	O	2.253422	-0.004117	-0.151998
O13	O	1.582921	-0.651768	-0.309978
O14	O	2.082921	-0.151768	0.190022
O15	O	1.454031	-0.309636	-0.504572
O16	O	1.954031	0.190364	-0.004572
O17	O	1.753325	-0.651641	-0.504560
O18	O	2.253325	-0.151641	-0.004560
O19	O	1.583144	-0.309540	-0.652004
O20	O	2.083144	0.190460	-0.152004
O21	O	1.453904	-0.504340	-0.309983
O22	O	1.953904	-0.004340	0.190017
O23	O	1.283666	-0.504194	-0.504535
O24	O	1.783666	-0.004194	-0.004535
O25	O	1.454100	-0.651383	-0.846521
O26	O	1.954100	-0.151383	-0.346521
O27	O	1.283696	-0.651511	-0.651939
O28	O	1.783696	-0.151511	-0.151939
O29	O	1.583183	-0.503970	-0.846550
O30	O	2.083183	-0.003970	-0.346550
O31	O	1.582960	-0.846198	-0.504523
O32	O	2.082960	-0.346198	-0.004523
O33	O	1.453973	-0.846087	-0.651932
O34	O	1.953973	-0.346087	-0.151932
C35	C	1.245560	-0.577851	-0.578234
C36	C	1.745560	-0.077851	-0.078234
C37	C	1.128783	-0.577874	-0.578252
C38	C	1.628783	-0.077874	-0.078252
C39	C	1.073964	-0.654698	-0.654885
C40	C	1.573964	-0.154698	-0.154885
C41	C	0.964240	-0.654703	-0.654908
C42	C	1.464240	-0.154703	-0.154908
C43	C	0.964164	-0.501055	-0.501657
C44	C	1.464164	-0.001055	-0.001657
C45	C	1.073886	-0.501045	-0.501640
C46	C	1.573886	-0.001045	-0.001640
C47	C	1.518486	-0.889690	-0.578249
C48	C	2.018486	-0.389690	-0.078249
C49	C	1.518564	-1.023090	-0.578285
C50	C	2.018564	-0.523090	-0.078285
C51	C	1.792560	-0.577881	-0.578282
C52	C	2.292560	-0.077881	-0.078282
C53	C	1.909337	-0.577888	-0.578293
C54	C	2.409337	-0.077888	-0.078293
C55	C	1.518661	-0.577645	-0.891301
C56	C	2.018661	-0.077645	-0.391301
C57	C	1.518718	-0.577551	-1.024701
C58	C	2.018718	-0.077551	-0.524701
C59	C	1.518598	-0.264823	-0.578293
C60	C	2.018598	0.235177	-0.078293
C61	C	1.518628	-0.131423	-0.578308
C62	C	2.018628	0.368577	-0.078308
C63	C	1.518454	-0.577998	-0.266433
C64	C	2.018454	-0.077998	0.233567
C65	C	1.518601	-0.577754	-0.133033
C66	C	2.018601	-0.077754	0.366967
H67	H	0.919612	-0.717259	-0.717312
H68	H	1.419612	-0.217259	-0.217312
C69	C	1.134353	-0.739197	-0.739164
C70	C	1.634353	-0.239197	-0.239164
C71	C	1.119242	-0.875628	-0.729151
C72	C	1.619242	-0.375628	-0.229151
C73	C	1.179628	-0.960126	-0.813436
C74	C	1.679628	-0.460126	-0.313436
C75	C	1.255125	-0.908194	-0.907735
C76	C	1.755125	-0.408194	-0.407735
C77	C	1.270239	-0.771756	-0.917753
C78	C	1.770239	-0.271756	-0.417753
C79	C	1.209854	-0.687258	-0.833468
C80	C	1.709854	-0.187258	-0.333468
H81	H	1.063352	-0.914078	-0.659341
H82	H	1.563352	-0.414078	-0.159341
H83	H	1.168439	-1.061127	-0.806020
H84	H	1.668439	-0.561127	-0.306020
H85	H	1.299826	-0.970745	-0.970128
H86	H	1.799826	-0.470745	-0.470128
H87	H	1.326130	-0.733306	-0.987562
H88	H	1.826130	-0.233306	-0.487562
H89	H	1.221043	-0.586257	-0.840884
H90	H	1.721043	-0.086257	-0.340884
C91	C	1.134192	-0.416536	-0.417333
C92	C	1.634192	0.083464	0.082667
C93	C	1.119129	-0.280107	-0.427352
C94	C	1.619129	0.219893	0.072648
C95	C	1.179435	-0.195600	-0.343051
C96	C	1.679435	0.304400	0.156949
C97	C	1.254805	-0.247522	-0.248730
C98	C	1.754805	0.252478	0.251270
C99	C	1.269871	-0.383957	-0.238707
C100	C	1.769871	0.116043	0.261293
C101	C	1.209565	-0.468465	-0.323008
C102	C	1.709565	0.031535	0.176992
H103	H	1.063333	-0.241665	-0.497177
H104	H	1.563333	0.258335	0.002823
H105	H	1.168282	-0.094601	-0.350471
H106	H	1.668282	0.405399	0.149529
H107	H	1.299447	-0.184964	-0.186325
H108	H	1.799447	0.315036	0.313675
H109	H	1.325667	-0.422399	-0.168881
H110	H	1.825667	0.077601	0.331119
H111	H	1.220719	-0.569464	-0.315588
H112	H	1.720719	-0.069464	0.184412
H113	H	0.919453	-0.438506	-0.439280
H114	H	1.419453	0.061494	0.060720
