data_functionalizedCrystal
_audit_creation_method	'MofGen! by Chris Wilmer'
_symmetry_space_group_name_H-M	'P1'
_symmetry_Int_Tables_number	1
_symmetry_cell_setting	triclinic
loop_
_symmetry_equiv_pos_as_xyz
  x,y,z
_cell_length_a	14.446369
_cell_length_b	14.809374
_cell_length_c	14.809374
_cell_angle_alpha	60.797835
_cell_angle_beta	90.000875
_cell_angle_gamma	67.424702
loop_
_atom_site_label
_atom_site_type_symbol
_atom_site_fract_x
_atom_site_fract_y
_atom_site_fract_z
Zr1	Zr	1.022484	0.955154	-0.203635
O2	O	0.909089	1.113080	-0.350799
O3	O	1.041192	0.777387	-0.145558
O4	O	1.079057	0.926533	-0.332096
O5	O	0.859616	0.993431	-0.031862
O6	O	1.231393	0.926526	-0.332090
O7	O	0.871223	0.963934	-0.164260
O8	O	1.163658	0.659731	0.001593
O9	O	0.927351	1.260225	-0.365546
O10	O	1.182252	0.857849	-0.136447
O11	O	1.059904	0.879866	-0.037644
O12	O	1.104485	1.055466	-0.257269
O13	O	0.982137	1.077484	-0.158467
Zr14	Zr	1.246929	1.002186	0.007533
Zr15	Zr	1.265442	0.955143	-0.203626
Zr16	Zr	1.003971	1.002197	0.007524
Zr17	Zr	1.051609	1.189834	-0.227155
Zr18	Zr	1.217804	0.767507	0.031053
O19	O	1.228221	1.179954	-0.050545
O20	O	1.254544	1.113064	-0.350786
O21	O	0.882767	1.179970	-0.050558
O22	O	1.360324	0.844260	0.154696
O23	O	1.386646	0.777371	-0.145545
O24	O	1.014869	0.844276	0.154683
O25	O	1.409797	0.963910	-0.164240
O26	O	1.190356	1.030808	0.135994
O27	O	1.038020	1.030815	0.135988
O28	O	1.398190	0.993406	-0.031842
O29	O	1.120470	1.260217	-0.365539
O30	O	1.148943	0.697124	0.169436
O31	O	1.342062	0.697115	0.169443
O32	O	1.356777	0.659722	0.001600
O33	O	0.912636	1.297618	-0.197703
O34	O	1.105755	1.297610	-0.197695
O35	O	1.164927	0.901874	0.061167
O36	O	1.287276	0.879856	-0.037636
O37	O	1.209509	1.077474	-0.158458
O38	O	1.087161	1.099492	-0.059656
C39	C	1.098275	0.685122	-0.068631
C40	C	1.085911	0.585494	-0.058646
C41	C	1.141092	0.530155	-0.103208
C42	C	1.128314	0.427184	-0.092889
C43	C	0.830803	0.978684	-0.098063
C44	C	0.727661	0.978689	-0.098066
C45	C	0.531918	1.103382	-0.173954
C46	C	0.639192	1.103398	-0.174312
C47	C	0.719784	0.899758	-0.136626
C48	C	0.612164	0.900535	-0.137169
C49	C	0.599720	0.931869	0.016567
C50	C	0.706028	0.934442	0.016136
C51	C	1.438610	0.978656	-0.098040
C52	C	1.541752	0.978652	-0.098036
C53	C	1.157863	0.919826	-0.362179
C54	C	1.165722	0.899855	-0.451821
C55	C	1.171138	1.272218	-0.127471
C56	C	1.183502	1.371846	-0.137456
C57	C	1.130648	0.988984	-0.551723
C58	C	1.138770	0.968345	-0.644374
C59	C	1.111550	1.037514	0.166076
C60	C	1.103691	1.057485	0.255719
C61	C	1.402178	0.685108	-0.068620
C62	C	1.492956	0.585476	-0.058631
C63	C	1.075119	0.743966	0.195496
C64	C	1.054895	0.664309	0.295124
C65	C	1.379022	0.743952	0.195508
C66	C	1.461941	0.664291	0.295139
C67	C	0.890391	1.213389	-0.391610
C68	C	0.807472	1.293050	-0.491241
C69	C	0.867235	1.272232	-0.127483
C70	C	0.776457	1.371865	-0.137471
C71	C	1.194294	1.213375	-0.391599
C72	C	1.214518	1.293031	-0.491226
C73	C	1.480765	0.527198	-0.105528
C74	C	1.566055	0.433591	-0.096163
C75	C	1.663532	0.398259	-0.039895
C76	C	1.675721	0.456547	0.007002
C77	C	1.590434	0.550157	-0.002370
C78	C	1.100219	0.638391	0.393497
C79	C	1.081213	0.563561	0.487114
C80	C	1.016890	0.514642	0.482357
C81	C	0.971561	0.540567	0.383973
C82	C	0.990561	0.615403	0.290357
C83	C	1.564755	0.615388	0.290353
C84	C	1.642677	0.540549	0.383958
C85	C	1.617782	0.514608	0.482348
C86	C	1.514958	0.563519	0.487131
C87	C	1.437038	0.638363	0.393527
C88	C	0.704659	1.341964	-0.486456
C89	C	0.626741	1.416832	-0.580064
C90	C	0.651636	1.442778	-0.678455
C91	C	0.754460	1.393860	-0.683238
C92	C	0.832377	1.319000	-0.589632
C93	C	0.788650	1.430151	-0.090585
C94	C	0.703366	1.523778	-0.099975
C95	C	0.605889	1.559112	-0.156246
C96	C	0.593699	1.500821	-0.203139
C97	C	0.678983	1.407201	-0.193754
C98	C	1.278846	1.341927	-0.486434
C99	C	1.297868	1.416762	-0.580035
C100	C	1.252555	1.442706	-0.678428
C101	C	1.188223	1.393802	-0.683218
C102	C	1.169208	1.318962	-0.589617
H103	H	1.071610	0.398333	-0.047093
C104	C	1.054999	1.181222	-0.767187
H105	H	1.034055	1.234462	-0.841880
H106	H	0.996766	1.192776	-0.736913
H107	H	1.104153	1.192767	-0.736913
H108	H	1.116822	1.279158	-0.593534
C109	C	1.138313	1.422422	-0.791458
H110	H	1.097259	1.382604	-0.780919
H111	H	1.096211	1.503015	-0.835257
H112	H	1.190664	1.399309	-0.824973
C113	C	1.217701	0.569114	-0.165061
H114	H	1.250670	0.521036	-0.191672
H115	H	1.181696	0.646633	-0.222697
H116	H	1.268017	0.563685	-0.118959
C117	C	0.803334	0.775030	-0.064743
H118	H	0.797163	0.728793	-0.089475
H119	H	0.869528	0.773775	-0.066580
H120	H	0.794842	0.745566	0.006179
C121	C	1.782947	0.417664	0.068902
H122	H	1.831984	0.353558	0.067772
H123	H	1.802041	0.479176	0.036715
H124	H	1.780968	0.396242	0.140427
H125	H	0.536453	1.635346	-0.163879
C126	C	0.940712	0.643897	0.182151
H127	H	0.961229	0.695477	0.127070
H128	H	0.962328	0.575037	0.181519
H129	H	0.867814	0.678778	0.171102
C130	C	1.260111	0.410804	-0.199319
H131	H	1.293078	0.362725	-0.225931
H132	H	1.224102	0.488322	-0.256955
H133	H	1.310430	0.405377	-0.153222
H134	H	1.094612	1.080569	-0.568660
C135	C	0.945466	1.265186	-0.594907
H136	H	0.949122	1.291356	-0.666912
H137	H	0.984972	1.287351	-0.565731
H138	H	0.972066	1.183645	-0.555347
H139	H	1.585045	0.636496	0.210248
C140	C	1.187459	0.844611	-0.621476
H141	H	1.186524	0.846971	-0.686752
H142	H	1.256631	0.805260	-0.581777
H143	H	1.149241	0.805275	-0.581787
H144	H	0.650440	1.140043	-0.259065
C145	C	1.009308	0.546526	0.003211
H146	H	1.010763	0.482435	0.002025
H147	H	1.028107	0.525085	0.074744
H148	H	0.941782	0.608022	-0.028991
H149	H	1.732970	0.322034	-0.032272
C150	C	0.642452	1.185503	-0.140443
H151	H	0.578074	1.219153	-0.126346
H152	H	0.695607	1.143595	-0.078090
H153	H	0.655664	1.244437	-0.196016
C154	C	1.214409	0.776129	-0.428931
H155	H	1.213473	0.778489	-0.494206
H156	H	1.283580	0.736777	-0.389231
H157	H	1.176191	0.736792	-0.389242
H158	H	0.490560	1.139932	-0.258208
C159	C	0.464538	1.185980	-0.140352
H160	H	0.441792	1.145144	-0.079727
H161	H	0.503724	1.216868	-0.123487
H162	H	0.406508	1.246883	-0.197112
H163	H	1.726396	0.500730	0.380044
H164	H	1.600374	0.597598	0.035827
H165	H	1.401404	0.555960	-0.151359
C166	C	0.561712	0.942790	-0.250666
H167	H	0.607049	0.959325	-0.296010
H168	H	0.547990	0.884605	-0.249804
H169	H	0.498975	1.010532	-0.276216
C170	C	0.626115	0.775937	-0.066325
H171	H	0.697470	0.725067	-0.037348
H172	H	0.591997	0.769791	-0.010214
H173	H	0.597501	0.756078	-0.107722
C174	C	0.486470	1.539691	-0.265023
H175	H	0.437430	1.603787	-0.263880
H176	H	0.488429	1.561098	-0.336543
H177	H	0.467388	1.478165	-0.232804
C178	C	1.170961	0.692205	0.398750
H179	H	1.195213	0.666056	0.470751
H180	H	1.227915	0.670025	0.369584
H181	H	1.133381	0.773747	0.359173
C182	C	1.131091	0.535046	0.595323
H183	H	1.172134	0.574885	0.584742
H184	H	1.078716	0.558197	0.628793
H185	H	1.173215	0.454458	0.639185
C186	C	0.996005	0.432318	0.585340
H187	H	1.032223	0.423885	0.644606
H188	H	0.924208	0.462995	0.582281
H189	H	1.018725	0.359270	0.592677
H190	H	0.868012	1.401391	-0.044757
H191	H	0.708759	0.992175	0.045066
C192	C	0.739950	0.940733	-0.248963
H193	H	0.753177	1.005897	-0.272524
H194	H	0.797935	0.880505	-0.247268
H195	H	0.681159	0.961103	-0.296411
H196	H	0.684368	1.320843	-0.406350
H197	H	1.350249	1.456574	-0.576115
C198	C	0.900822	0.486738	0.378754
H199	H	0.896016	0.438446	0.448603
H200	H	0.834149	0.546126	0.337023
H201	H	0.928680	0.442402	0.347434
H202	H	0.610421	0.840152	0.073234
C203	C	0.535093	1.003198	0.061856
H204	H	0.472146	1.062183	0.011288
H205	H	0.520841	0.954492	0.125540
H206	H	0.572418	1.036953	0.076654
H207	H	1.681239	0.453663	0.558559
C208	C	1.328703	1.313398	-0.378214
H209	H	1.369745	1.353234	-0.388780
H210	H	1.276322	1.336543	-0.344748
H211	H	1.370825	1.232809	-0.334356
H212	H	0.669040	1.359746	-0.231933
H213	H	1.268046	1.503648	-0.754636
C214	C	0.513645	1.470618	-0.574783
H215	H	0.509983	1.444423	-0.502775
H216	H	0.487024	1.552155	-0.614337
H217	H	0.474158	1.448433	-0.603962
H218	H	1.556110	0.386143	-0.134354
H219	H	1.494702	0.542387	0.567253
H220	H	0.768245	0.844488	0.076377
C221	C	0.565918	1.525107	-0.781411
H222	H	0.501121	1.550505	-0.764459
H223	H	0.578298	1.589664	-0.826848
H224	H	0.565437	1.485923	-0.816430
H225	H	1.353323	0.678171	0.397439
H226	H	0.774719	1.414995	-0.763359
H227	H	0.713310	1.571225	-0.061783
