data_functionalizedCrystal
_audit_creation_method	'MofGen! by Chris Wilmer'
_symmetry_space_group_name_H-M	'P1'
_symmetry_Int_Tables_number	1
_symmetry_cell_setting	triclinic
loop_
_symmetry_equiv_pos_as_xyz
  x,y,z
_cell_length_a	10.654541
_cell_length_b	10.654550
_cell_length_c	9.130313
_cell_angle_alpha	90.004369
_cell_angle_beta	89.996756
_cell_angle_gamma	95.515571
loop_
_atom_site_label
_atom_site_type_symbol
_atom_site_fract_x
_atom_site_fract_y
_atom_site_fract_z
O1	O	1.667842	-0.176384	-0.121790
O2	O	1.302363	-0.193193	-0.121795
O3	O	1.493506	-0.002049	-0.121784
O4	O	1.476700	-0.367528	-0.121802
O5	O	1.493492	-0.002044	0.121815
O6	O	1.302350	-0.193188	0.121804
O7	O	1.667829	-0.176379	0.121808
Cu8	Cu	1.485088	-0.184783	0.144049
Cu9	Cu	1.485104	-0.184789	-0.144035
O10	O	1.476686	-0.367522	0.121797
C11	C	1.492265	0.044751	0.000015
C12	C	1.488573	0.184195	0.000013
C13	C	1.255558	-0.191957	0.000004
C14	C	1.116115	-0.188266	0.000002
C15	C	1.714634	-0.177615	0.000006
C16	C	1.854077	-0.181306	-0.000002
C17	C	1.882048	0.047259	-0.000008
C18	C	1.961542	0.159802	-0.000019
C19	C	2.092560	0.156326	-0.000024
C20	C	2.144085	0.040295	-0.000014
C21	C	2.064591	-0.072248	-0.000003
C22	C	1.933572	-0.068760	-0.000002
C23	C	2.036621	-0.300809	0.000013
C24	C	1.905602	-0.297337	0.000008
C25	C	2.088146	-0.416840	0.000023
C26	C	2.008651	-0.529386	0.000023
C27	C	1.877626	-0.525906	0.000027
C28	C	1.826108	-0.409880	0.000019
C29	C	1.477927	-0.414323	-0.000005
C30	C	1.481619	-0.553766	-0.000012
N31	N	1.485086	-0.184777	0.346671
C32	C	1.601115	0.263681	0.000014
C33	C	1.597638	0.394702	-0.000004
C34	C	1.369069	0.366737	-0.000018
C35	C	1.372546	0.235718	-0.000010
N36	N	1.485116	-0.184785	-0.346658
C37	C	1.569753	-0.100175	0.423328
C38	C	1.569765	-0.100175	0.576665
C39	C	1.400440	-0.269391	0.576674
C40	C	1.400423	-0.269384	0.423340
H41	H	1.919576	0.254272	-0.000006
H42	H	1.812908	-0.617553	0.000046
O43	O	1.652030	-0.017863	0.349078
C44	C	1.726781	0.056789	0.449626
H45	H	1.675289	0.058679	0.558939
H46	H	1.820429	0.015142	0.465907
C47	C	1.814728	0.189719	0.255544
C48	C	1.751481	0.192049	0.389800
H49	H	1.829971	0.273153	0.218639
H50	H	1.764372	0.139423	0.187801
H51	H	1.892762	0.155008	0.269129
H52	H	1.673443	0.226745	0.376209
H53	H	1.801826	0.242354	0.457539
H54	H	1.274603	0.408704	-0.000034
O55	O	1.652067	-0.018167	0.651290
C56	C	1.730152	-0.086153	0.739935
H57	H	1.680981	-0.183964	0.762905
H58	H	1.823036	-0.095553	0.680821
C59	C	1.816791	0.104541	0.857375
C60	C	1.756394	-0.015589	0.885599
H61	H	1.832985	0.148069	0.947225
H62	H	1.764188	0.150346	0.797651
H63	H	1.894188	0.096690	0.808110
H64	H	1.678993	-0.007737	0.934846
H65	H	1.808986	-0.061391	0.945335
H66	H	2.157286	0.247969	-0.000029
H67	H	1.689282	0.459416	-0.000007
O68	O	1.318157	-0.351408	0.651319
C69	C	1.240091	-0.283428	0.740019
H70	H	1.289263	-0.185616	0.762992
H71	H	1.147191	-0.274030	0.680952
C72	C	1.153489	-0.474130	0.857451
C73	C	1.213888	-0.353999	0.885677
H74	H	1.137320	-0.517662	0.947297
H75	H	1.206079	-0.519930	0.797689
H76	H	1.076079	-0.466281	0.808225
H77	H	1.291303	-0.361850	0.934884
H78	H	1.161310	-0.308201	0.945451
O79	O	1.318127	-0.351694	0.349093
C80	C	1.243390	-0.426358	0.449639
H81	H	1.294900	-0.428269	0.558931
H82	H	1.149748	-0.384708	0.465975
C83	C	1.155400	-0.559252	0.255535
C84	C	1.218671	-0.561608	0.389765
H85	H	1.140146	-0.642679	0.218601
H86	H	1.205748	-0.508947	0.187794
H87	H	1.077372	-0.524538	0.269166
H88	H	1.296704	-0.596307	0.376129
H89	H	1.168336	-0.611922	0.457504
H90	H	1.775368	0.050100	-0.000019
H91	H	2.250769	0.037476	-0.000001
H92	H	2.194829	-0.419662	0.000027
H93	H	2.050615	-0.623850	0.000041
H94	H	1.695591	0.221735	0.000030
H95	H	1.719428	-0.407035	0.000016
H96	H	1.280896	0.170997	-0.000015
