data_functionalizedCrystal
_audit_creation_method	'MofGen! by Chris Wilmer'
_symmetry_space_group_name_H-M	'P1'
_symmetry_Int_Tables_number	1
_symmetry_cell_setting	triclinic
loop_
_symmetry_equiv_pos_as_xyz
  x,y,z
_cell_length_a	15.995350
_cell_length_b	15.944551
_cell_length_c	14.472310
_cell_angle_alpha	89.997979
_cell_angle_beta	89.990621
_cell_angle_gamma	83.495557
loop_
_atom_site_label
_atom_site_type_symbol
_atom_site_fract_x
_atom_site_fract_y
_atom_site_fract_z
O1	O	1.111003	0.108264	-0.076765
O2	O	0.867228	0.121634	-0.076784
O3	O	0.995772	-0.007326	-0.076765
O4	O	0.982458	0.237224	-0.076783
O5	O	0.995739	-0.007319	0.076917
O6	O	0.867195	0.121641	0.076898
O7	O	1.110969	0.108272	0.076917
Cu8	Cu	0.989079	0.114957	0.090940
Cu9	Cu	0.989118	0.114948	-0.090807
O10	O	0.982425	0.237232	0.076899
C11	C	0.836017	0.121085	0.000055
C12	C	0.743066	0.119428	0.000048
C13	C	0.405318	0.113477	0.000067
C14	C	0.452747	0.021634	0.000417
C15	C	0.549438	0.023291	0.000064
C16	C	0.572879	0.116429	0.000058
C17	C	0.531813	0.161724	-0.087701
C18	C	0.435178	0.159417	-0.087768
C19	C	0.434801	0.161323	0.086997
C20	C	0.531746	0.161302	0.088150
C21	C	0.667577	0.118102	0.000050
C22	C	0.310620	0.111806	0.000069
C23	C	0.995203	-0.038616	0.000076
C24	C	0.993546	-0.131862	0.000076
C25	C	0.909908	-0.346714	0.000057
C26	C	0.948730	-0.407730	0.075834
C27	C	0.990548	-0.302588	0.000069
C28	C	0.948782	-0.407721	-0.075684
C29	C	0.987647	-0.467501	0.000058
C30	C	1.029393	-0.362376	0.075909
C31	C	1.029433	-0.362360	-0.075678
C32	C	1.068315	-0.423358	0.000119
C33	C	0.992217	-0.207586	0.000076
C34	C	0.985984	-0.562502	0.000057
C35	C	1.142181	0.108821	0.000077
C36	C	1.235131	0.110478	0.000078
C37	C	0.982995	0.268522	0.000056
C38	C	0.984652	0.361768	0.000049
N39	N	0.989058	0.114963	0.218771
N40	N	0.989146	0.114936	-0.218638
C41	C	0.989117	0.114945	0.592862
C42	C	0.920105	0.183717	0.553686
C43	C	0.920264	0.183968	0.446598
C44	C	0.989087	0.114954	0.407271
C45	C	1.076453	0.134096	0.446114
C46	C	1.076065	0.134585	0.553235
C47	C	0.971543	0.026826	0.553396
C48	C	0.969539	0.027414	0.446269
C49	C	0.989075	0.114957	0.302383
C50	C	0.989135	0.114943	0.697750
H51	H	0.433165	-0.014912	-0.062167
H52	H	0.905272	0.012886	0.420882
H53	H	0.914608	-0.427833	0.139893
Cl54	Cl	0.592440	-0.031819	-0.097393
H55	H	0.842972	-0.313403	0.000127
H56	H	0.434210	-0.015075	0.063353
Cl57	Cl	0.403078	0.114968	0.189699
H58	H	0.416881	0.126379	-0.153367
Cl59	Cl	1.081990	-0.331516	0.174927
Cl60	Cl	0.937202	0.284114	0.595205
Cl61	Cl	1.171746	-0.474563	0.000189
H62	H	1.063526	-0.342235	-0.139740
Cl63	Cl	1.042112	-0.055305	0.404958
Cl64	Cl	1.157657	0.060110	0.593248
Cl65	Cl	1.157638	0.058818	0.406786
Cl66	Cl	0.896122	-0.438742	-0.174586
Cl67	Cl	0.937558	0.284937	0.407009
Cl68	Cl	1.100936	0.232185	0.404678
H69	H	0.909219	0.008419	0.580460
Cl70	Cl	0.573792	0.110167	0.188388
Cl71	Cl	1.049242	-0.052190	0.592510
H72	H	0.855324	0.172563	0.420338
H73	H	1.091551	0.198850	0.578207
Cl74	Cl	0.593310	-0.031683	0.097190
Cl75	Cl	0.385392	0.263520	-0.093926
H76	H	0.545943	0.230150	-0.090969
Cl77	Cl	0.819510	0.166388	0.593472
H78	H	0.560200	0.130258	-0.153010
Cl79	Cl	0.555464	0.266168	0.096327
Cl80	Cl	0.385771	0.265870	0.087908
