data_functionalizedCrystal
_audit_creation_method	'MofGen! by Chris Wilmer'
_symmetry_space_group_name_H-M	'P1'
_symmetry_Int_Tables_number	1
_symmetry_cell_setting	triclinic
loop_
_symmetry_equiv_pos_as_xyz
  x,y,z
_cell_length_a	14.044209
_cell_length_b	16.098538
_cell_length_c	17.038272
_cell_angle_alpha	87.079695
_cell_angle_beta	87.850245
_cell_angle_gamma	87.018092
loop_
_atom_site_label
_atom_site_type_symbol
_atom_site_fract_x
_atom_site_fract_y
_atom_site_fract_z
O1	O	-1.276973	0.069156	0.186341
O2	O	-0.776973	0.569156	0.686341
O3	O	-1.000453	0.069180	0.179501
O4	O	-0.500453	0.569180	0.679501
O5	O	-1.137069	0.069161	0.068991
O6	O	-0.637069	0.569161	0.568991
O7	O	-1.140357	0.069174	0.296851
O8	O	-0.640357	0.569174	0.796851
O9	O	-1.129086	-0.069350	0.075419
O10	O	-0.629086	0.430650	0.575419
O11	O	-0.992470	-0.069332	0.185929
O12	O	-0.492470	0.430668	0.685929
O13	O	-1.268990	-0.069356	0.192769
O14	O	-0.768990	0.430644	0.692769
Zn15	Zn	-1.129463	-0.091336	0.190370
Zn16	Zn	-0.629463	0.408664	0.690370
Zn17	Zn	-1.139980	0.091160	0.181901
Zn18	Zn	-0.639980	0.591160	0.681901
O19	O	-1.132374	-0.069338	0.303279
O20	O	-0.632374	0.430662	0.803279
C21	C	-0.960906	-0.000073	0.179721
C22	C	-0.460906	0.499927	0.679721
C23	C	-0.854960	-0.000064	0.170790
C24	C	-0.354960	0.499936	0.670790
N25	N	-1.122292	-0.215884	0.196149
N26	N	-0.622292	0.284116	0.696149
C27	C	-0.660981	-0.000080	0.154464
C28	C	-0.160981	0.499920	0.654464
C29	C	-0.608456	-0.000079	0.217809
C30	C	-0.108456	0.499921	0.717809
C31	C	-0.500520	-0.000088	0.208725
C32	C	-0.000520	0.499912	0.708725
C33	C	-0.768928	-0.000071	0.163547
C34	C	-0.268928	0.499929	0.663547
C35	C	-1.180301	-0.259477	0.149264
C36	C	-0.680301	0.240523	0.649264
C37	C	-1.175294	-0.346665	0.153315
C38	C	-0.675294	0.153335	0.653315
C39	C	-1.112282	-0.390259	0.204257
C40	C	-0.612282	0.109741	0.704257
C41	C	-1.054266	-0.346660	0.251144
C42	C	-0.554266	0.153340	0.751144
C43	C	-1.059269	-0.259473	0.247088
C44	C	-0.559269	0.240527	0.747088
C45	C	-1.094145	-0.653507	0.218946
C46	C	-0.594145	-0.153507	0.718946
C47	C	-1.089149	-0.740699	0.223000
C48	C	-0.589149	-0.240699	0.723000
C49	C	-1.210176	-0.740698	0.125171
C50	C	-0.710176	-0.240698	0.625171
C51	C	-1.215178	-0.653510	0.121123
C52	C	-0.715178	-0.153510	0.621123
C53	C	-1.157158	-0.609919	0.168007
C54	C	-0.657158	-0.109919	0.668007
C55	C	-1.107165	-0.479379	0.208401
C56	C	-0.607165	0.020621	0.708401
C57	C	-1.162271	-0.520800	0.163858
C58	C	-0.662271	-0.020800	0.663858
C59	C	-0.308537	-0.000099	0.192550
C60	C	0.191463	0.499901	0.692550
C61	C	-0.414483	-0.000095	0.201486
C62	C	0.085517	0.499905	0.701486
C63	C	-1.130088	-0.000094	0.042868
C64	C	-0.630088	0.499906	0.542868
C65	C	-1.121169	-0.000093	-0.044549
C66	C	-0.621169	0.499907	0.455451
N67	N	-1.147158	0.215708	0.176115
N68	N	-0.647158	0.715708	0.676115
C69	C	-1.203057	-0.000101	-0.088935
C70	C	-0.703057	0.499899	0.411065
C71	C	-1.194671	-0.000092	-0.171072
C72	C	-0.694671	0.499908	0.328928
C73	C	-1.104396	-0.000082	-0.208823
C74	C	-0.604396	0.499918	0.291177
C75	C	-1.022503	-0.000072	-0.164431
C76	C	-0.522503	0.499928	0.335569
C77	C	-1.030890	-0.000074	-0.082295
C78	C	-0.530890	0.499926	0.417705
C79	C	-1.074767	-0.000068	-0.456654
C80	C	-0.574767	0.499932	0.043346
C81	C	-1.066386	-0.000068	-0.538795
C82	C	-0.566386	0.499932	-0.038795
C83	C	-1.238556	-0.000087	-0.545431
C84	C	-0.738556	0.499913	-0.045431
C85	C	-1.246935	-0.000095	-0.463293
C86	C	-0.746935	0.499905	0.036707
C87	C	-1.165041	-0.000080	-0.418909
C88	C	-0.665041	0.499920	0.081091
C89	C	-1.095823	-0.000076	-0.292780
C90	C	-0.595823	0.499924	0.207220
C91	C	-1.173616	-0.000080	-0.334953
C92	C	-0.673616	0.499920	0.165047
C93	C	-1.139355	-0.000080	0.329402
C94	C	-0.639355	0.499920	0.829402
C95	C	-1.148274	-0.000076	0.416819
C96	C	-0.648274	0.499924	0.916819
H97	H	-0.624888	-0.000088	0.093414
H98	H	-0.124888	0.499912	0.593414
N99	N	-1.248259	-0.212474	0.094306
N100	N	-0.748259	0.287526	0.594306
H101	H	-1.211096	-0.176316	0.055253
H102	H	-0.711096	0.323684	0.555253
H103	H	-1.294958	-0.176334	0.125678
H104	H	-0.794958	0.323666	0.625678
H105	H	-0.644551	-0.000072	0.278863
H106	H	-0.144551	0.499928	0.778863
N107	N	-0.986443	-0.000055	-0.408788
N108	N	-0.486443	0.499945	0.091212
H109	H	-0.927984	-0.000053	-0.445168
H110	H	-0.427984	0.499947	0.054832
H111	H	-0.983212	-0.051403	-0.372185
H112	H	-0.483212	0.448597	0.127815
N113	N	-1.237896	-0.393684	0.102776
N114	N	-0.737896	0.106316	0.602776
H115	H	-1.278589	-0.352838	0.069904
H116	H	-0.778589	0.147162	0.569904
H117	H	-1.280372	-0.429832	0.137550
H118	H	-0.780372	0.070168	0.637550
N119	N	-1.283142	-0.606492	0.066180
N120	N	-0.783142	-0.106492	0.566180
H121	H	-1.319131	-0.647339	0.037092
H122	H	-0.819131	-0.147339	0.537092
H123	H	-1.245923	-0.570328	0.027175
H124	H	-0.745923	-0.070328	0.527175
H125	H	-1.257412	-0.776198	0.086999
H126	H	-0.757412	-0.276198	0.586999
N127	N	-1.021192	-0.787722	0.277955
N128	N	-0.521192	-0.287722	0.777955
H129	H	-0.985197	-0.746878	0.307042
H130	H	-0.485197	-0.246878	0.807042
H131	H	-0.974554	-0.823914	0.246581
H132	H	-0.474554	-0.323914	0.746581
N133	N	-1.039220	-0.526402	0.263356
N134	N	-0.539220	-0.026402	0.763356
H135	H	-1.003231	-0.485560	0.292450
H136	H	-0.503231	0.014440	0.792450
H137	H	-0.992575	-0.562589	0.231982
H138	H	-0.492575	-0.062589	0.731982
N139	N	-1.031565	-0.606496	0.269507
N140	N	-0.531565	-0.106496	0.769507
H141	H	-0.990891	-0.647345	0.302393
H142	H	-0.490891	-0.147345	0.802393
H143	H	-1.072925	-0.570306	0.305149
H144	H	-0.572925	-0.070306	0.805149
H145	H	-1.002955	-0.382159	0.292618
H146	H	-0.502955	0.117841	0.792618
N147	N	-0.998457	-0.000078	-0.333499
N148	N	-0.498457	0.499922	0.166501
H149	H	-0.947847	-0.000078	-0.292921
H150	H	-0.447847	0.499922	0.207079
H151	H	-0.994188	0.051272	-0.369812
H152	H	-0.494188	0.551272	0.130188
H153	H	-0.992869	-0.000073	-0.569528
H154	H	-0.492869	0.499927	-0.069528
N155	N	-0.996697	-0.212451	0.297652
N156	N	-0.496697	0.287549	0.797652
H157	H	-0.956020	-0.253296	0.330539
H158	H	-0.456020	0.246704	0.830539
H159	H	-1.038062	-0.176263	0.333292
H160	H	-0.538062	0.323737	0.833292
H161	H	-1.213572	-0.485303	0.122378
H162	H	-0.713572	0.014697	0.622378
H163	H	-1.276568	-0.000115	-0.058205
H164	H	-0.776568	0.499885	0.441795
H165	H	-1.261353	-0.000101	-0.207208
H166	H	-0.761353	0.499899	0.292792
N167	N	-1.344302	-0.000111	-0.422578
N168	N	-0.844302	0.499889	0.077422
H169	H	-1.394907	-0.000115	-0.463161
H170	H	-0.894907	0.499885	0.036839
H171	H	-1.354494	0.051234	-0.391021
H172	H	-0.854494	0.551234	0.108979
N173	N	-1.270979	-0.000098	-0.294238
N174	N	-0.770979	0.499902	0.205762
H175	H	-1.304187	-0.051451	-0.307603
H176	H	-0.804187	0.448549	0.192397
H177	H	-1.310048	0.051275	-0.312375
H178	H	-0.810048	0.551275	0.187625
N179	N	-0.925134	-0.000068	-0.205145
N180	N	-0.425134	0.499932	0.294855
H181	H	-0.874531	-0.000063	-0.164561
H182	H	-0.374531	0.499937	0.335439
H183	H	-0.920862	0.051279	-0.241461
H184	H	-0.420862	0.551279	0.258539
H185	H	-1.305229	-0.000098	-0.581577
H186	H	-0.805229	0.499902	-0.081577
N187	N	-0.942569	-0.000061	-0.034418
N188	N	-0.442569	0.499939	0.465582
H189	H	-0.884107	-0.000055	-0.070795
H190	H	-0.384107	0.499945	0.429205
H191	H	-0.939336	-0.051408	0.002187
H192	H	-0.439336	0.448592	0.502187
