data_functionalizedCrystal
_audit_creation_method	'MofGen! by Chris Wilmer'
_symmetry_space_group_name_H-M	'P1'
_symmetry_Int_Tables_number	1
_symmetry_cell_setting	triclinic
loop_
_symmetry_equiv_pos_as_xyz
  x,y,z
_cell_length_a	10.654562
_cell_length_b	14.519709
_cell_length_c	13.596369
_cell_angle_alpha	90.008809
_cell_angle_beta	89.991227
_cell_angle_gamma	95.914876
loop_
_atom_site_label
_atom_site_type_symbol
_atom_site_fract_x
_atom_site_fract_y
_atom_site_fract_z
O1	O	1.666589	-0.129582	-0.081876
O2	O	2.166589	0.370418	0.418124
O3	O	1.300994	-0.141911	-0.081866
O4	O	1.800994	0.358089	0.418134
O5	O	1.493485	-0.001558	-0.081844
O6	O	1.993485	0.498442	0.418156
O7	O	1.474099	-0.269934	-0.081899
O8	O	1.974099	0.230066	0.418101
O9	O	1.493461	-0.001566	0.081739
O10	O	1.993461	0.498434	0.581739
O11	O	1.300971	-0.141918	0.081717
O12	O	1.800971	0.358082	0.581717
O13	O	1.666566	-0.129590	0.081706
O14	O	2.166566	0.370410	0.581706
Zn15	Zn	1.483765	-0.135755	0.107684
Zn16	Zn	1.983765	0.364245	0.607684
Zn17	Zn	1.483796	-0.135745	-0.107844
Zn18	Zn	1.983796	0.364255	0.392156
O19	O	1.474075	-0.269942	0.081684
O20	O	1.974075	0.230058	0.581684
C21	C	1.254194	-0.141007	-0.000073
C22	C	1.754194	0.358993	0.499927
C23	C	1.114777	-0.138291	-0.000068
C24	C	1.614777	0.361709	0.499932
C25	C	1.049246	-0.137029	0.089094
C26	C	1.549246	0.362971	0.589094
C27	C	0.918248	-0.134484	0.089078
C28	C	1.418248	0.365516	0.589078
C29	C	0.918324	-0.134469	-0.089269
C30	C	1.418324	0.365531	0.410731
C31	C	1.049321	-0.137007	-0.089252
C32	C	1.549321	0.362993	0.410748
C33	C	1.049200	-0.137041	0.192061
C34	C	1.549200	0.362959	0.692061
C35	C	0.918202	-0.134497	0.192045
C36	C	1.418202	0.365503	0.692045
C37	C	1.492570	0.032802	-0.000048
C38	C	1.992570	0.532802	0.499952
C39	C	1.489862	0.135198	-0.000033
C40	C	1.989862	0.635198	0.499967
C41	C	1.479895	0.510145	-0.000006
C42	C	1.979895	1.010145	0.499994
C43	C	1.482663	0.405823	-0.000013
C44	C	1.982663	0.905823	0.499987
C45	C	1.484879	0.322675	-0.000018
C46	C	1.984879	0.822675	0.499982
C47	C	1.487647	0.218346	-0.000027
C48	C	1.987647	0.718346	0.499973
C49	C	1.713367	-0.130493	-0.000089
C50	C	2.213367	0.369507	0.499911
C51	C	1.852783	-0.133209	-0.000101
C52	C	2.352783	0.366791	0.499899
C53	C	1.474990	0.695698	-0.000079
C54	C	1.974990	1.195698	0.499921
C55	C	1.477698	0.593302	0.000004
C56	C	1.977698	1.093302	0.500004
N57	N	1.483752	-0.135762	0.254776
N58	N	1.983752	0.364238	0.754776
N59	N	1.483818	-0.135731	-0.254935
N60	N	1.983818	0.364269	0.245065
C61	C	1.483759	-0.135764	0.343774
C62	C	1.983759	0.364236	0.843774
C63	C	1.483771	-0.135757	0.455425
C64	C	1.983771	0.364243	0.955425
C65	C	1.483787	-0.135747	0.544415
C66	C	1.983787	0.364253	1.044415
C67	C	1.483801	-0.135742	0.656074
C68	C	1.983801	0.364258	1.156074
H69	H	0.871298	-0.198235	0.231562
H70	H	1.371298	0.301765	0.731562
H71	H	1.102674	-0.138020	-0.161856
H72	H	1.602674	0.361980	0.338144
H73	H	1.078123	-0.204303	0.223997
H74	H	1.578123	0.295697	0.723997
H75	H	0.865013	-0.133423	-0.161880
H76	H	1.365013	0.366577	0.338120
H77	H	0.889256	-0.067240	0.224010
H78	H	1.389256	0.432760	0.724010
H79	H	1.096067	-0.073309	0.231616
H80	H	1.596067	0.426691	0.731616
