data_functionalizedCrystal
_audit_creation_method	'MofGen! by Chris Wilmer'
_symmetry_space_group_name_H-M	'P1'
_symmetry_Int_Tables_number	1
_symmetry_cell_setting	triclinic
loop_
_symmetry_equiv_pos_as_xyz
  x,y,z
_cell_length_a	18.215407
_cell_length_b	19.121063
_cell_length_c	18.215399
_cell_angle_alpha	87.590157
_cell_angle_beta	90.019833
_cell_angle_gamma	92.469446
loop_
_atom_site_label
_atom_site_type_symbol
_atom_site_fract_x
_atom_site_fract_y
_atom_site_fract_z
Zn1	Zn	1.112559	-0.279613	0.428596
Zn2	Zn	1.612559	0.220387	0.928596
Zn3	Zn	1.107212	-0.397068	0.310772
Zn4	Zn	1.607212	0.102932	0.810772
Zn5	Zn	0.989491	-0.279636	0.305544
Zn6	Zn	1.489491	0.220364	0.805544
Zn7	Zn	0.984203	-0.397029	0.433795
Zn8	Zn	1.484203	0.102971	0.933795
O9	O	1.048366	-0.338336	0.369677
O10	O	1.548366	0.161664	0.869677
O11	O	1.214834	-0.295200	0.412978
O12	O	1.714834	0.204800	0.912978
O13	O	1.091570	-0.381516	0.207095
O14	O	1.591570	0.118484	0.707095
O15	O	1.010267	-0.181348	0.317504
O16	O	1.510267	0.318652	0.817504
O17	O	1.210905	-0.381494	0.326414
O18	O	1.710905	0.118506	0.826414
O19	O	1.100685	-0.181331	0.407909
O20	O	1.600685	0.318669	0.907909
O21	O	1.005081	-0.295240	0.203255
O22	O	1.505081	0.204760	0.703255
O23	O	0.885805	-0.295202	0.322545
O24	O	1.385805	0.204798	0.822545
O25	O	1.001255	-0.381427	0.536089
O26	O	1.501255	0.118573	1.036089
O27	O	0.881921	-0.381450	0.416771
O28	O	1.381921	0.118550	0.916771
O29	O	1.095558	-0.295162	0.532269
O30	O	1.595558	0.204838	1.032269
O31	O	1.086443	-0.495348	0.331455
O32	O	1.586443	0.004652	0.831455
O33	O	0.996070	-0.495319	0.421840
O34	O	1.496070	0.004681	0.921840
C35	C	0.857160	-0.338324	0.369655
C36	C	1.357160	0.161676	0.869655
C37	C	0.775361	-0.338336	0.369664
C38	C	1.275361	0.161664	0.869664
C39	C	0.585160	-0.383316	0.418671
C40	C	1.085160	0.116684	0.918671
C41	C	0.508302	-0.383318	0.418681
C42	C	1.008302	0.116682	0.918681
C43	C	0.512323	-0.293369	0.320699
C44	C	1.012323	0.206631	0.820699
C45	C	0.589181	-0.293364	0.320694
C46	C	1.089181	0.206636	0.820694
C47	C	0.625597	-0.338342	0.369679
C48	C	1.125597	0.161658	0.869679
C49	C	0.471881	-0.338349	0.369694
C50	C	0.971881	0.161651	0.869694
C51	C	0.388547	-0.338351	0.369703
C52	C	0.888547	0.161649	0.869703
C53	C	0.708936	-0.338339	0.369671
C54	C	1.208936	0.161661	0.869671
C55	C	1.040122	-0.520817	0.377795
C56	C	1.540122	-0.020817	0.877795
C57	C	1.036663	-0.598883	0.381293
C58	C	1.536663	-0.098883	0.881293
C59	C	1.082127	-0.635551	0.335916
C60	C	1.582127	-0.135551	0.835916
C61	C	1.078878	-0.708902	0.339210
C62	C	1.578878	-0.208902	0.839210
C63	C	1.030161	-0.745585	0.387877
C64	C	1.530161	-0.245585	0.887877
C65	C	0.984695	-0.708912	0.433258
C66	C	1.484695	-0.208912	0.933258
C67	C	0.987948	-0.635562	0.429968
C68	C	1.487948	-0.135562	0.929968
C69	C	1.017985	-0.967055	0.400168
C70	C	1.517985	-0.467055	0.900168
C71	C	1.014733	-1.040410	0.403454
C72	C	1.514733	-0.540410	0.903454
C73	C	1.108918	-1.040394	0.309406
C74	C	1.608918	-0.540394	0.809406
C75	C	1.112164	-0.967043	0.306117
C76	C	1.612164	-0.467043	0.806117
C77	C	1.066701	-0.930377	0.351501
C78	C	1.566701	-0.430377	0.851501
C79	C	1.026837	-0.820561	0.391243
C80	C	1.526837	-0.320561	0.891243
C81	C	1.070029	-0.855401	0.348138
C82	C	1.570029	-0.355401	0.848138
C83	C	1.240319	-0.338349	0.369699
C84	C	1.740319	0.161651	0.869699
C85	C	1.322117	-0.338354	0.369709
C86	C	1.822117	0.161646	0.869709
C87	C	1.048413	-0.338288	0.561628
C88	C	1.548413	0.161712	1.061628
C89	C	1.048433	-0.338267	0.643426
C90	C	1.548433	0.161733	1.143426
C91	C	1.056662	-0.155143	0.361543
C92	C	1.556662	0.344857	0.861543
C93	C	1.060197	-0.077077	0.358077
C94	C	1.560197	0.422923	0.858077
C95	C	1.048364	-0.338334	0.178471
C96	C	1.548364	0.161666	0.678471
C97	C	1.048495	-0.338157	0.096664
C98	C	1.548495	0.161843	0.596664
C99	C	1.097555	-0.293307	0.829630
C100	C	1.597555	0.206693	1.329630
C101	C	1.097565	-0.293287	0.906488
C102	C	1.597565	0.206713	1.406488
C103	C	0.999368	-0.383119	0.910455
C104	C	1.499368	0.116881	1.410455
C105	C	0.999355	-0.383135	0.833598
C106	C	1.499355	0.116865	1.333598
C107	C	1.048453	-0.338231	0.793188
C108	C	1.548453	0.161769	1.293188
C109	C	1.048476	-0.338194	0.946902
C110	C	1.548476	0.161806	1.446902
C111	C	1.048486	-0.338172	1.030235
C112	C	1.548486	0.161828	1.530235
C113	C	1.048442	-0.338251	0.709850
C114	C	1.548442	0.161749	1.209850
H115	H	0.475381	-0.419940	0.458576
H116	H	0.975381	0.080060	0.958576
H117	H	0.987169	-0.850437	0.430866
H118	H	1.487169	-0.350437	0.930866
H119	H	1.137532	-0.256741	0.796730
H120	H	1.637532	0.243259	1.296730
C121	C	0.625216	-0.432787	0.472562
C122	C	1.125216	0.067213	0.972562
N123	N	0.655384	-0.470048	0.513156
N124	N	1.155384	0.029952	1.013156
C125	C	1.151583	-0.243869	0.946571
C126	C	1.651583	0.256131	1.446571
N127	N	1.192272	-0.206646	0.976761
N128	N	1.692272	0.293354	1.476761
C129	C	0.945362	-0.432510	0.954913
C130	C	1.445362	0.067490	1.454913
N131	N	0.904683	-0.469713	0.988398
N132	N	1.404683	0.030287	1.488398
C133	C	0.945334	-0.432555	0.793509
C134	C	1.445334	0.067445	1.293509
N135	N	0.904645	-0.469774	0.763314
N136	N	1.404645	0.030226	1.263314
C137	C	0.633664	-0.243886	0.266795
C138	C	1.133664	0.256114	0.766795
N139	N	0.667169	-0.206620	0.226202
N140	N	1.167169	0.293380	0.726202
H141	H	0.980966	-0.937207	0.437120
H142	H	1.480966	-0.437207	0.937120
C143	C	0.472258	-0.243901	0.266814
C144	C	0.972258	0.256099	0.766814
N145	N	0.442081	-0.206642	0.226225
N146	N	0.942081	0.293358	0.726225
C147	C	1.165738	-0.926697	0.252560
C148	C	1.665738	-0.426697	0.752560
N149	N	1.206082	-0.896309	0.212212
N150	N	1.706082	-0.396309	0.712212
H151	H	1.121795	-0.605688	0.296283
H152	H	1.621795	-0.105688	0.796283
C153	C	0.931102	-0.749266	0.486790
C154	C	1.431102	-0.249266	0.986790
N155	N	0.890732	-0.779660	0.527108
N156	N	1.390732	-0.279660	1.027108
H157	H	1.115899	-0.738753	0.302259
H158	H	1.615899	-0.238753	0.802259
C159	C	1.158926	-1.080733	0.259489
C160	C	1.658926	-0.580733	0.759489
N161	N	1.196596	-1.111116	0.221892
N162	N	1.696596	-0.611116	0.721892
H163	H	0.975071	-1.070275	0.443097
H164	H	1.475071	-0.570275	0.943097
C165	C	1.123615	-0.815048	0.294604
C166	C	1.623615	-0.315048	0.794604
N167	N	1.163974	-0.784648	0.254279
N168	N	1.663974	-0.284648	0.754279
C169	C	0.937934	-0.595229	0.479886
C170	C	1.437934	-0.095229	0.979886
N171	N	0.900264	-0.564850	0.517487
N172	N	1.400264	-0.064850	1.017487
