data_functionalizedCrystal
_audit_creation_method	'MofGen! by Chris Wilmer'
_symmetry_space_group_name_H-M	'P1'
_symmetry_Int_Tables_number	1
_symmetry_cell_setting	triclinic
loop_
_symmetry_equiv_pos_as_xyz
  x,y,z
_cell_length_a	12.759401
_cell_length_b	19.805405
_cell_length_c	12.759401
_cell_angle_alpha	90.013971
_cell_angle_beta	90.006940
_cell_angle_gamma	90.027935
loop_
_atom_site_label
_atom_site_type_symbol
_atom_site_fract_x
_atom_site_fract_y
_atom_site_fract_z
Zn1	Zn	1.606036	-0.269554	0.593975
Zn2	Zn	1.605934	-0.382712	0.418277
Zn3	Zn	1.430377	-0.269545	0.418311
Zn4	Zn	1.430290	-0.382709	0.593914
O5	O	1.518159	-0.326130	0.506119
O6	O	1.753043	-0.284569	0.570680
O7	O	1.582640	-0.367698	0.271261
O8	O	1.453758	-0.174830	0.441653
O9	O	1.752968	-0.367706	0.441595
O10	O	1.582813	-0.174836	0.570713
O11	O	1.453659	-0.284554	0.271285
O12	O	1.283345	-0.284552	0.441593
O13	O	1.453610	-0.367701	0.740943
O14	O	1.283281	-0.367693	0.570608
O15	O	1.582729	-0.284567	0.740988
O16	O	1.582555	-0.477428	0.441536
O17	O	1.453511	-0.477426	0.570576
C18	C	1.245192	-0.326122	0.506098
C19	C	1.128415	-0.326134	0.506114
C20	C	1.073548	-0.369492	0.573187
C21	C	0.963824	-0.369494	0.573208
C22	C	0.963845	-0.282780	0.439075
C23	C	1.073567	-0.282775	0.439060
C24	C	1.518041	-0.501986	0.506068
C25	C	1.518087	-0.577218	0.506082
C26	C	1.585345	-0.612541	0.438961
C27	C	1.585390	-0.683229	0.438984
C28	C	1.518170	-0.718594	0.506124
C29	C	1.450908	-0.683266	0.573252
C30	C	1.450870	-0.612579	0.573233
C31	C	1.451063	-0.968339	0.573330
C32	C	1.451105	-1.039031	0.573341
C33	C	1.585583	-1.038990	0.439081
C34	C	1.585545	-0.968302	0.439062
C35	C	1.518288	-0.932981	0.506194
C36	C	1.518241	-0.856332	0.506169
C37	C	1.518210	-0.795241	0.506144
C38	C	1.792193	-0.326139	0.506141
C39	C	1.908969	-0.326143	0.506150
C40	C	1.518171	-0.326135	0.780153
C41	C	1.518176	-0.326137	0.896929
C42	C	1.518307	-0.149587	0.506193
C43	C	1.518369	-0.074355	0.506225
C44	C	1.585400	-0.282855	0.951816
C45	C	1.585391	-0.282854	1.061540
C46	C	1.450931	-0.369421	1.061481
C47	C	1.450935	-0.369418	0.951759
C48	C	1.518147	-0.326140	1.233152
C49	C	1.518162	-0.326138	1.116375
H50	H	1.118241	-0.247464	0.384441
H51	H	1.640079	-0.583752	0.384284
O52	O	1.650755	-0.717437	0.373681
C53	C	1.710089	-0.671066	0.314432
H54	H	1.667028	-0.620703	0.310745
H55	H	1.789851	-0.663492	0.352968
C56	C	1.778215	-0.760531	0.207162
C57	C	1.725322	-0.698676	0.202627
H58	H	1.787617	-0.777563	0.138197
H59	H	1.738244	-0.791773	0.247082
H60	H	1.844678	-0.754212	0.239281
H61	H	1.658857	-0.704998	0.170521
H62	H	1.765283	-0.667436	0.162699
H63	H	0.919173	-0.247480	0.384480
O64	O	1.650942	-0.934055	0.373810
C65	C	1.710301	-0.980390	0.314554
H66	H	1.713932	-1.030766	0.357601
H67	H	1.671896	-0.987949	0.234727
C68	C	1.817655	-0.890873	0.246638
C69	C	1.822123	-0.952744	0.299513
H70	H	1.886631	-0.873819	0.237355
H71	H	1.777662	-0.859655	0.286557
H72	H	1.785646	-0.897180	0.180121
H73	H	1.854119	-0.946435	0.366033
H74	H	1.862124	-0.983960	0.259605
O75	O	1.650911	-1.073407	0.373991
C76	C	1.636531	-1.143380	0.388392
H77	H	1.602046	-1.153030	0.469436
H78	H	1.580663	-1.163498	0.326019
C79	C	1.785227	-1.167752	0.279363
C80	C	1.742881	-1.179605	0.378907
H81	H	1.850828	-1.190099	0.273507
H82	H	1.794914	-1.120610	0.269657
H83	H	1.738661	-1.184517	0.227396
H84	H	1.789441	-1.162833	0.430871
H85	H	1.733205	-1.226746	0.388621
H86	H	1.640130	-0.247609	1.106224
O87	O	1.385775	-1.073281	0.638669
C88	C	1.326387	-1.026948	0.697902
H89	H	1.369387	-0.976535	0.701566
H90	H	1.246615	-1.019484	0.659366
C91	C	1.258375	-1.116440	0.805211
C92	C	1.311193	-1.054522	0.809719
H93	H	1.248998	-1.133449	0.874184
H94	H	1.298383	-1.147655	0.765303
H95	H	1.191904	-1.110211	0.773093
H96	H	1.377667	-1.060753	0.841825
H97	H	1.271196	-1.023308	0.849636
O98	O	0.910641	-0.411581	0.638505
C99	C	0.937475	-0.396887	0.743257
H100	H	1.017158	-0.370867	0.745496
H101	H	0.875755	-0.362128	0.778757
C102	C	0.844652	-0.494897	0.803952
C103	C	0.942525	-0.462944	0.806703
H104	H	0.847763	-0.535643	0.843091
H105	H	0.826570	-0.504796	0.733380
H106	H	0.793230	-0.465925	0.833534
H107	H	0.993943	-0.491912	0.777110
H108	H	0.960616	-0.453052	0.877272
H109	H	1.118202	-0.404796	0.627790
O110	O	1.385872	-0.934007	0.638644
C111	C	1.445600	-0.893057	0.706538
H112	H	1.528357	-0.914307	0.713108
H113	H	1.449207	-0.839488	0.674054
C114	C	1.292537	-0.865882	0.807639
C115	C	1.394178	-0.891985	0.815715
H116	H	1.260817	-0.865218	0.874983
H117	H	1.252296	-0.893469	0.761895
H118	H	1.295557	-0.821244	0.780565
H119	H	1.391156	-0.936625	0.842776
H120	H	1.434418	-0.864406	0.861466
H121	H	1.396188	-0.404661	1.106136
O122	O	1.650815	-0.240904	0.898505
C123	C	1.718629	-0.279435	0.835009
H124	H	1.725080	-0.332745	0.868051
H125	H	1.686144	-0.281764	0.751847
C126	C	1.819947	-0.180889	0.792771
C127	C	1.827878	-0.246364	0.833358
H128	H	1.887336	-0.160489	0.791748
H129	H	1.774258	-0.154929	0.835546
H130	H	1.792872	-0.182839	0.723473
H131	H	1.854939	-0.244412	0.902659
H132	H	1.873574	-0.272323	0.790595
O133	O	1.385438	-0.578369	0.638471
C134	C	1.326136	-0.624738	0.697755
H135	H	1.322549	-0.675138	0.654729
H136	H	1.364562	-0.632218	0.777579
C137	C	1.218703	-0.535301	0.765653
C138	C	1.214289	-0.597201	0.712803
H139	H	1.149712	-0.518314	0.774941
H140	H	1.258658	-0.504060	0.725716
H141	H	1.250729	-0.541542	0.832167
H142	H	1.182276	-0.590957	0.646286
H143	H	1.174326	-0.628440	0.752730
H144	H	1.396181	-0.712065	0.627922
H145	H	1.396186	-0.404663	0.907068
