data_functionalizedCrystal
_audit_creation_method	'MofGen! by Chris Wilmer'
_symmetry_space_group_name_H-M	'P1'
_symmetry_Int_Tables_number	1
_symmetry_cell_setting	triclinic
loop_
_symmetry_equiv_pos_as_xyz
  x,y,z
_cell_length_a	16.956984
_cell_length_b	16.974813
_cell_length_c	13.448316
_cell_angle_alpha	93.661167
_cell_angle_beta	90.007329
_cell_angle_gamma	79.731954
loop_
_atom_site_label
_atom_site_type_symbol
_atom_site_fract_x
_atom_site_fract_y
_atom_site_fract_z
O1	O	1.058006	0.032765	0.085333
O2	O	0.825818	0.060528	0.087567
O3	O	0.948384	-0.068881	0.077149
O4	O	0.935440	0.162173	0.095751
O5	O	0.948369	-0.068887	-0.088236
O6	O	0.825803	0.060521	-0.077817
O7	O	1.057991	0.032758	-0.080052
Cu8	Cu	0.941895	0.046639	-0.094035
Cu9	Cu	0.941913	0.046647	0.101551
O10	O	0.935424	0.162167	-0.069633
C11	C	0.796101	0.061946	0.004989
C12	C	0.707575	0.066173	0.005330
C13	C	0.675568	-0.004496	-0.000362
C14	C	0.592389	-0.000520	-0.000034
C15	C	0.541218	0.074126	0.005977
C16	C	0.573230	0.144800	0.011672
C17	C	0.656408	0.140823	0.011352
C18	C	0.291424	0.093811	0.007569
C19	C	0.208240	0.097782	0.007886
C20	C	0.227405	-0.047538	-0.003819
C21	C	0.310584	-0.051508	-0.004145
C22	C	0.342589	0.019166	0.001555
N23	N	0.456195	0.078192	0.006309
N24	N	0.427611	0.015099	0.001231
C25	C	0.947884	-0.098310	-0.007911
C26	C	0.946407	-0.185991	-0.014964
C27	C	0.945723	-0.227175	0.071873
C28	C	0.944330	-0.309559	0.065243
C29	C	0.943626	-0.350758	-0.028225
C30	C	0.944308	-0.309568	-0.115068
C31	C	0.945695	-0.227184	-0.108437
C32	C	0.939471	-0.597149	-0.057724
C33	C	0.938085	-0.679539	-0.064349
C34	C	0.938106	-0.679525	0.115963
C35	C	0.939498	-0.597140	0.122586
C36	C	0.940176	-0.555956	0.035743
N37	N	0.942205	-0.434969	-0.035004
N38	N	0.941591	-0.471746	0.042523
C39	C	1.087708	0.031340	0.002528
C40	C	1.176233	0.027113	0.002194
C41	C	0.935924	0.191596	0.015428
C42	C	0.937402	0.279277	0.022488
N43	N	0.941888	0.046633	-0.231600
C44	C	0.996177	-0.010648	-0.288252
C45	C	0.996182	-0.010649	-0.392356
C46	C	0.941901	0.046635	-0.439805
C47	C	0.887606	0.103919	-0.383145
C48	C	0.887598	0.103916	-0.279044
C49	C	0.887629	0.103923	-0.600125
C50	C	0.887637	0.103927	-0.704233
C51	C	0.996213	-0.010642	-0.713436
C52	C	0.996205	-0.010645	-0.609335
C53	C	0.941910	0.046640	-0.552683
N54	N	0.941927	0.046646	0.239115
H55	H	0.317471	0.151358	0.012217
H56	H	0.943777	-0.343089	0.135955
F57	F	0.690471	0.216038	0.017413
F58	F	0.937385	-0.723362	0.208381
H59	H	0.843414	0.150568	-0.554001
H60	H	1.040421	-0.057285	-0.759569
F61	F	0.937341	-0.723385	-0.163835
F62	F	0.153781	0.177234	0.014277
H63	H	1.040383	-0.057292	-0.249626
H64	H	0.940038	-0.563630	-0.128439
H65	H	0.843406	0.150559	-0.421784
H66	H	0.201337	-0.105077	-0.008449
F67	F	0.730022	-0.083945	-0.006767
H68	H	0.940072	-0.563602	0.198697
F69	F	0.829863	0.164896	-0.754724
H70	H	1.040388	-0.057292	-0.438482
H71	H	0.352243	-0.112293	-0.009044
F72	F	0.946477	-0.183336	0.171355
H73	H	0.531560	0.205578	0.016574
H74	H	0.843389	0.150559	-0.232918
H75	H	0.946241	-0.193650	-0.179149
F76	F	0.558329	-0.075736	-0.006069
F77	F	0.943550	-0.353415	-0.214544
H78	H	1.040408	-0.057286	-0.570703
