data_functionalizedCrystal
_audit_creation_method	'MofGen! by Chris Wilmer'
_symmetry_space_group_name_H-M	'P1'
_symmetry_Int_Tables_number	1
_symmetry_cell_setting	triclinic
loop_
_symmetry_equiv_pos_as_xyz
  x,y,z
_cell_length_a	27.731994
_cell_length_b	16.109301
_cell_length_c	15.186229
_cell_angle_alpha	90.005167
_cell_angle_beta	90.002739
_cell_angle_gamma	96.958992
loop_
_atom_site_label
_atom_site_type_symbol
_atom_site_fract_x
_atom_site_fract_y
_atom_site_fract_z
O1	O	0.641357	-0.098711	-0.073106
O2	O	1.141357	0.401289	0.426894
O3	O	0.500623	-0.113799	-0.073136
O4	O	1.000623	0.386201	0.426864
O5	O	0.574856	0.014825	-0.073111
O6	O	1.074856	0.514825	0.426889
O7	O	0.567124	-0.227335	-0.073131
O8	O	1.067124	0.272665	0.426869
O9	O	0.574851	0.014827	0.073346
O10	O	1.074851	0.514827	0.573346
O11	O	0.500618	-0.113798	0.073322
O12	O	1.000618	0.386202	0.573322
O13	O	0.641352	-0.098709	0.073351
O14	O	1.141352	0.401291	0.573351
Zn15	Zn	0.570984	-0.106253	0.096590
Zn16	Zn	1.070984	0.393747	0.596590
Zn17	Zn	0.570991	-0.106255	-0.096374
Zn18	Zn	1.070991	0.393745	0.403626
O19	O	0.567119	-0.227333	0.073327
O20	O	1.067119	0.272667	0.573327
C21	C	0.482612	-0.113489	0.000089
C22	C	0.982612	0.386511	0.500089
C23	C	0.428951	-0.112556	0.000078
C24	C	0.928951	0.387444	0.500078
C25	C	0.096206	-0.106680	0.079947
C26	C	0.596206	0.393320	0.579947
C27	C	-0.105467	-0.103134	0.079957
C28	C	0.394533	0.396866	0.579957
O29	O	-0.131544	-0.102639	0.147852
O30	O	0.368456	0.397361	0.647852
N31	N	-0.130681	-0.102695	0.000123
N32	N	0.369319	0.397305	0.500123
C33	C	-0.105474	-0.103137	-0.079719
C34	C	0.394526	0.396863	0.420281
O35	O	-0.131546	-0.102673	-0.147622
O36	O	0.368454	0.397327	0.352378
C37	C	0.096199	-0.106676	-0.079728
C38	C	0.596199	0.393324	0.420272
C39	C	0.121410	-0.107124	0.000111
C40	C	0.621410	0.392876	0.500111
C41	C	0.121416	-0.107127	0.159779
C42	C	0.621416	0.392873	0.659779
C43	C	0.171831	-0.108018	0.159776
C44	C	0.671831	0.391982	0.659776
C45	C	0.197035	-0.108462	0.079940
C46	C	0.697035	0.391538	0.579940
C47	C	0.171825	-0.108015	0.000107
C48	C	0.671825	0.391985	0.500107
C49	C	0.121406	-0.107112	-0.159569
C50	C	0.621406	0.392888	0.340431
C51	C	0.171828	-0.107995	-0.159565
C52	C	0.671828	0.392005	0.340435
C53	C	0.197038	-0.108443	-0.079726
C54	C	0.697038	0.391557	0.420274
C55	C	0.247443	-0.109350	-0.079732
C56	C	0.747443	0.390650	0.420268
N57	N	0.272657	-0.109790	0.000102
N58	N	0.772657	0.390210	0.500102
C59	C	0.247453	-0.109346	0.079938
C60	C	0.747453	0.390654	0.579938
C61	C	-0.211355	-0.101280	-0.079708
C62	C	0.288645	0.398720	0.420292
C63	C	-0.261773	-0.100396	-0.079706
C64	C	0.238227	0.399604	0.420294
C65	C	-0.261763	-0.100393	0.079970
C66	C	0.238237	0.399607	0.579970
C67	C	-0.211344	-0.101282	0.079967
C68	C	0.288656	0.398718	0.579967
C69	C	-0.186141	-0.101719	0.000125
C70	C	0.313859	0.398281	0.500125
C71	C	0.353328	-0.111218	0.079925
C72	C	0.853328	0.388782	0.579925
C73	C	0.403747	-0.112112	0.079914
C74	C	0.903747	0.387888	0.579914
C75	C	0.403733	-0.112111	-0.079761
C76	C	0.903733	0.387889	0.420239
C77	C	0.353318	-0.111221	-0.079751
C78	C	0.853318	0.388779	0.420249
C79	C	0.328117	-0.110772	0.000099
C80	C	0.828117	0.389228	0.500099
O81	O	0.273552	-0.109836	-0.147592
O82	O	0.773552	0.390164	0.352408
O83	O	0.273536	-0.109791	0.147831
O84	O	0.773536	0.390209	0.647831
C85	C	0.045791	-0.105789	0.079950
C86	C	0.545791	0.394211	0.579950
C87	C	0.020580	-0.105342	0.000118
C88	C	0.520580	0.394658	0.500118
C89	C	0.045784	-0.105786	-0.079718
C90	C	0.545784	0.394214	0.420282
C91	C	-0.029838	-0.104459	0.000120
C92	C	0.470162	0.395541	0.500120
C93	C	-0.055042	-0.104015	0.079956
C94	C	0.444958	0.395985	0.579956
C95	C	-0.029828	-0.104454	0.159789
C96	C	0.470172	0.395546	0.659789
C97	C	0.020587	-0.105345	0.159786
C98	C	0.520587	0.394655	0.659786
C99	C	0.020570	-0.105347	-0.159552
C100	C	0.520570	0.394653	0.340448
C101	C	-0.029845	-0.104457	-0.159542
C102	C	0.470155	0.395543	0.340458
C103	C	-0.055049	-0.104013	-0.079706
C104	C	0.444951	0.395987	0.420294
C105	C	0.574540	0.045797	0.000118
C106	C	1.074540	0.545797	0.500118
C107	C	0.573601	0.138080	0.000119
C108	C	1.073601	0.638080	0.500119
C109	C	0.659363	-0.099019	0.000124
C110	C	1.159363	0.400981	0.500124
C111	C	0.713023	-0.099952	0.000130
C112	C	1.213023	0.400048	0.500130
C113	C	0.567434	-0.258305	0.000096
C114	C	1.067434	0.241695	0.500096
C115	C	0.568373	-0.350589	0.000089
C116	C	1.068373	0.149411	0.500089
N117	N	0.570983	-0.106251	0.228282
N118	N	1.070983	0.393749	0.728282
C119	C	0.615466	0.360885	0.000114
C120	C	1.115466	0.860885	0.500114
C121	C	0.614580	0.447594	0.000107
C122	C	1.114580	0.947594	0.500107
C123	C	0.526505	0.426600	0.000091
C124	C	1.026505	0.926600	0.500091
C125	C	0.527392	0.339892	0.000093
C126	C	1.027392	0.839892	0.500093
C127	C	0.571874	0.307038	0.000108
C128	C	1.071874	0.807038	0.500108
C129	C	0.570101	0.480454	0.000100
C130	C	1.070101	0.980454	0.500100
C131	C	0.569140	0.574468	0.000092
C132	C	1.069140	1.074468	0.500092
C133	C	0.572835	0.213018	0.000115
C134	C	1.072835	0.713018	0.500115
N135	N	0.570995	-0.106251	-0.228067
N136	N	1.070995	0.393749	0.271933
C137	C	0.603865	-0.049315	0.454016
C138	C	1.103865	0.450685	0.954016
C139	C	0.603866	-0.049313	0.546206
C140	C	1.103866	0.450687	1.046206
C141	C	0.538110	-0.163190	0.546193
C142	C	1.038110	0.336810	1.046193
C143	C	0.538107	-0.163187	0.454005
C144	C	1.038107	0.336813	0.954005
C145	C	0.570987	-0.106250	0.407919
C146	C	1.070987	0.393750	0.907919
C147	C	0.570992	-0.106251	0.592297
C148	C	1.070992	0.393749	1.092297
C149	C	0.570993	-0.106249	0.692253
C150	C	1.070993	0.393751	1.192253
C151	C	0.570985	-0.106251	0.307957
C152	C	1.070985	0.393749	0.807957
H153	H	0.192354	-0.108378	0.224789
H154	H	0.692354	0.391622	0.724789
H155	H	0.100888	-0.106746	-0.224583
H156	H	0.600888	0.393254	0.275417
H157	H	0.630637	-0.002953	0.416495
H158	H	1.130637	0.497047	0.916495
H159	H	-0.282296	-0.100045	-0.144719
H160	H	0.217704	0.399955	0.355281
O161	O	0.663443	0.325453	0.000116
O162	O	1.163443	0.825453	0.500116
H163	H	0.665959	0.286463	0.059813
H164	H	1.165959	0.786463	0.559813
H165	H	-0.050368	-0.104099	-0.224562
H166	H	0.449632	0.395901	0.275438
O167	O	0.502639	-0.224600	0.404288
O168	O	1.002639	0.275400	0.904288
H169	H	0.479150	-0.189881	0.362304
H170	H	0.979150	0.310119	0.862304
O171	O	0.478531	0.462042	0.000082
O172	O	0.978531	0.962042	0.500082
H173	H	0.448367	0.410029	0.000070
H174	H	0.948367	0.910029	0.500070
H175	H	0.491891	0.296047	0.000085
H176	H	0.991891	0.796047	0.500085
H177	H	0.630638	-0.002950	0.583736
H178	H	1.130638	0.497050	1.083736
H179	H	0.511341	-0.209547	0.583726
H180	H	1.011341	0.290453	1.083726
O181	O	0.661598	0.505673	0.000114
O182	O	1.161598	1.005673	0.500114
H183	H	0.663296	0.545691	0.059803
H184	H	1.163296	1.045691	0.559803
O185	O	0.430939	-0.112609	0.166029
O186	O	0.930939	0.387391	0.666029
H187	H	0.404940	-0.112148	0.221542
H188	H	0.904940	0.387852	0.721542
H189	H	0.100901	-0.106764	0.224795
H190	H	0.600901	0.393236	0.724795
O191	O	0.326059	-0.110842	0.165958
O192	O	0.826059	0.389158	0.665958
H193	H	0.339979	-0.054367	0.204381
H194	H	0.839979	0.445633	0.704381
O195	O	-0.184156	-0.101771	0.166080
O196	O	0.315844	0.398229	0.666080
H197	H	-0.189511	-0.044914	0.204371
H198	H	0.310489	0.455086	0.704371
O199	O	-0.288968	-0.100134	0.166082
O200	O	0.211032	0.399866	0.666082
H201	H	-0.328267	-0.099520	0.152662
H202	H	0.171733	0.400480	0.652662
H203	H	0.041086	-0.105706	-0.224565
H204	H	0.541086	0.394294	0.275435
H205	H	-0.190838	-0.101635	-0.144728
H206	H	0.309162	0.398365	0.355272
H207	H	0.192346	-0.108351	-0.224583
H208	H	0.692346	0.391649	0.275417
H209	H	0.332790	-0.110870	-0.144763
H210	H	0.832790	0.389130	0.355237
O211	O	0.430923	-0.112571	-0.165869
O212	O	0.930923	0.387429	0.334131
H213	H	0.470217	-0.113249	-0.152450
H214	H	0.970217	0.386751	0.347550
H215	H	-0.050359	-0.104097	0.224795
H216	H	0.449641	0.395903	0.724795
O217	O	0.047775	-0.105840	0.245898
O218	O	0.547775	0.394160	0.745898
H219	H	0.021772	-0.105382	0.301405
H220	H	0.521772	0.394618	0.801405
