data_functionalizedCrystal
_audit_creation_method	'MofGen! by Chris Wilmer'
_symmetry_space_group_name_H-M	'P1'
_symmetry_Int_Tables_number	1
_symmetry_cell_setting	triclinic
loop_
_symmetry_equiv_pos_as_xyz
  x,y,z
_cell_length_a	19.188930
_cell_length_b	10.654550
_cell_length_c	9.730223
_cell_angle_alpha	90.000193
_cell_angle_beta	89.985926
_cell_angle_gamma	96.185158
loop_
_atom_site_label
_atom_site_type_symbol
_atom_site_fract_x
_atom_site_fract_y
_atom_site_fract_z
O1	O	0.927166	-0.156774	-0.114729
O2	O	0.723993	-0.177880	-0.114634
O3	O	0.830251	0.015511	-0.114679
O4	O	0.820908	-0.350165	-0.114684
O5	O	0.830250	0.015506	0.113901
O6	O	0.723992	-0.177885	0.113946
O7	O	0.927165	-0.156779	0.113851
Zn8	Zn	0.825578	-0.167333	0.150190
Zn9	Zn	0.825580	-0.167326	-0.150973
O10	O	0.820907	-0.350170	0.113896
C11	C	0.697977	-0.177199	-0.000332
C12	C	0.620459	-0.175147	-0.000296
C13	C	0.829564	0.062292	-0.000390
C14	C	0.827512	0.201692	-0.000394
N15	N	0.825582	-0.167336	0.355727
C16	C	0.576277	-0.288622	-0.000319
C17	C	0.503441	-0.286695	-0.000334
C18	C	0.474789	-0.171286	-0.000354
C19	C	0.518981	-0.057795	-0.000323
C20	C	0.591816	-0.059726	-0.000294
N21	N	0.366233	-0.083068	-0.078203
N22	N	0.297042	-0.081242	-0.078234
C23	C	0.255343	-0.165461	-0.000438
N24	N	0.285446	-0.251596	0.077373
N25	N	0.354643	-0.253426	0.077397
C26	C	0.395813	-0.169179	-0.000384
C27	C	0.132183	-0.276855	-0.000475
C28	C	0.059345	-0.274922	-0.000482
C29	C	0.074887	-0.046020	-0.000484
C30	C	0.147723	-0.047955	-0.000464
C31	C	0.176366	-0.163376	-0.000466
C32	C	0.953181	-0.157460	-0.000454
C33	C	1.030699	-0.159512	-0.000499
C34	C	0.821594	-0.396951	-0.000396
C35	C	0.823646	-0.536351	-0.000401
C36	C	0.890075	0.282501	-0.000419
C37	C	0.888142	0.413481	-0.000427
C38	C	0.761078	0.382829	-0.000380
C39	C	0.763011	0.251852	-0.000382
C40	C	0.963434	0.300199	-0.000440
C41	C	0.961502	0.431179	-0.000449
N42	N	0.825581	-0.167313	-0.356510
C43	C	0.872645	-0.081732	0.427633
C44	C	0.872643	-0.081716	0.571516
C45	C	0.778513	-0.252922	0.571574
C46	C	0.778512	-0.252930	0.427693
C47	C	0.926993	0.017109	0.427601
C48	C	0.926991	0.017124	0.571484
H49	H	0.599593	-0.382607	-0.000324
H50	H	0.980643	-0.003259	0.610509
H51	H	0.467461	-0.379103	-0.000350
H52	H	0.495648	0.036172	-0.000357
H53	H	0.983673	0.477293	-0.099153
H54	H	0.910029	0.107988	0.616110
H55	H	0.989142	0.473522	0.095197
Cl56	Cl	0.684358	0.150266	-0.000385
Cl57	Cl	0.168195	-0.421952	-0.000465
H58	H	0.992128	0.271450	-0.096107
Cl59	Cl	0.999488	0.245941	0.151929
Cl60	Cl	0.203269	0.094708	-0.000442
H61	H	0.708564	0.423686	-0.000372
Cl62	Cl	0.719336	-0.360533	0.337295
Cl63	Cl	0.719342	-0.360519	0.662054
Cl64	Cl	0.908588	0.165753	0.367306
H65	H	0.977683	-0.012407	0.382950
Cl66	Cl	0.003801	-0.417591	-0.000504
H67	H	0.627789	0.032682	-0.000276
H68	H	0.051560	0.047949	-0.000585
