data_functionalizedCrystal
_audit_creation_method	'MofGen! by Chris Wilmer'
_symmetry_space_group_name_H-M	'P1'
_symmetry_Int_Tables_number	1
_symmetry_cell_setting	triclinic
loop_
_symmetry_equiv_pos_as_xyz
  x,y,z
_cell_length_a	14.395555
_cell_length_b	14.628931
_cell_length_c	14.628931
_cell_angle_alpha	60.000000
_cell_angle_beta	90.001754
_cell_angle_gamma	59.999615
loop_
_atom_site_label
_atom_site_type_symbol
_atom_site_fract_x
_atom_site_fract_y
_atom_site_fract_z
Zr1	Zr	0.894916	1.000538	-0.119915
O2	O	0.746586	1.191250	-0.265884
O3	O	0.940387	0.809831	-0.075168
O4	O	0.940387	1.000536	-0.265873
O5	O	0.746585	1.000546	0.075253
O6	O	1.093261	1.000529	-0.265865
O7	O	0.746585	1.000545	-0.075178
O8	O	1.093260	0.659393	0.075272
O9	O	0.746586	1.341682	-0.265884
O10	O	1.073868	0.888265	-0.056078
O11	O	0.959780	0.888270	0.056182
O12	O	0.959780	1.112801	-0.168350
O13	O	0.845692	1.112806	-0.056090
Zr14	Zr	1.138732	1.000528	0.120019
Zr15	Zr	1.138732	1.000528	-0.119902
Zr16	Zr	0.894916	1.000539	0.120006
Zr17	Zr	0.894916	1.240460	-0.119916
Zr18	Zr	1.138732	0.760607	0.120019
O19	O	1.093261	1.191236	0.075271
O20	O	1.093262	1.191235	-0.265866
O21	O	0.746585	1.191251	0.075253
O22	O	1.287062	0.809816	0.265987
O23	O	1.287062	0.809815	-0.075150
O24	O	0.940386	0.809832	0.265969
O25	O	1.287063	1.000521	-0.075150
O26	O	1.093261	1.000531	0.265977
O27	O	0.940387	1.000537	0.265969
O28	O	1.287063	1.000522	0.075282
O29	O	0.940388	1.341673	-0.265874
O30	O	1.093260	0.659393	0.265977
O31	O	1.287062	0.659385	0.265988
O32	O	1.287062	0.659384	0.075282
O33	O	0.746586	1.341683	-0.075179
O34	O	0.940388	1.341674	-0.075169
O35	O	1.073868	0.888266	0.168453
O36	O	1.187956	0.888260	0.056194
O37	O	1.073868	1.112796	-0.056078
O38	O	0.959780	1.112802	0.056181
C39	C	1.016824	0.700428	0.000052
C40	C	1.016823	0.598575	0.000052
C41	C	1.073419	0.553163	-0.055636
C42	C	1.073420	0.447893	-0.055637
C43	C	0.711847	1.000547	0.000036
C44	C	0.608340	1.000551	0.000030
C45	C	0.485546	1.122978	-0.061175
C46	C	0.454710	1.061777	-0.105532
C47	C	0.454752	1.061748	0.044379
C48	C	0.578868	0.939349	-0.044388
C49	C	0.578907	0.939338	0.105581
C50	C	0.548145	0.878047	0.061251
C51	C	1.321801	1.000520	0.000068
C52	C	1.425308	1.000515	0.000073
C53	C	1.016824	1.000532	-0.300053
C54	C	1.016825	1.000532	-0.401906
C55	C	1.016824	1.300639	0.000051
C56	C	1.016825	1.402492	0.000051
C57	C	1.073419	0.889150	-0.496887
C58	C	1.073420	0.889147	-0.391616
C59	C	1.016824	1.000534	0.300157
C60	C	1.016823	1.000534	0.402009
C61	C	1.321801	0.700415	0.000068
C62	C	1.425307	0.598557	0.000074
C63	C	1.016823	0.700429	0.300157
C64	C	1.016823	0.598576	0.402010
C65	C	1.321800	0.700415	0.300173
C66	C	1.425307	0.598558	0.402031
C67	C	0.711848	1.300651	-0.300069
C68	C	0.608341	1.402508	-0.401928
C69	C	0.711847	1.300652	0.000035
C70	C	0.608341	1.402510	0.000030
C71	C	1.016825	1.300638	-0.300053
C72	C	1.016825	1.402490	-0.401906
C73	C	1.414858	0.553148	-0.055618
C74	C	1.521836	0.447873	-0.055614
C75	C	1.073418	0.553165	0.503113
C76	C	1.073419	0.447895	0.608385
C77	C	1.528048	0.553144	0.391755
C78	C	1.635029	0.447869	0.497029
H79	H	0.968374	0.559517	0.047731
H80	H	1.121877	0.592212	-0.103308
H81	H	1.416546	0.559505	0.488767
O82	O	1.530372	0.552143	0.056984
C83	C	1.519318	0.614778	0.108792
H84	H	1.432566	0.711817	0.062885
H85	H	1.527325	0.551982	0.199759
C86	C	1.720162	0.517753	0.160899
C87	C	1.613615	0.636944	0.104510
H88	H	1.778331	0.531422	0.158263
H89	H	1.727611	0.475551	0.125999
H90	H	1.726818	0.465435	0.236700
H91	H	1.606955	0.689253	0.028708
H92	H	1.606167	0.679156	0.139397
O93	O	1.131325	0.401416	0.711768
C94	C	1.183920	0.464102	0.700888
H95	H	1.195775	0.503567	0.615521
H96	H	1.128115	0.547190	0.708767
C97	C	1.286183	0.318557	0.898527
C98	C	1.300752	0.367019	0.793681
H99	H	1.358248	0.258675	0.955769
H100	H	1.250746	0.276327	0.905859
H101	H	1.239674	0.387808	0.905077
H102	H	1.347247	0.297771	0.787128
H103	H	1.336200	0.409236	0.786351
H104	H	1.121869	0.408846	-0.103319
H105	H	0.968363	0.441544	0.047725
H106	H	0.460102	1.226502	-0.113014
O107	O	0.390971	1.123591	-0.212071
C108	C	0.444029	1.167933	-0.286901
H109	H	0.502487	1.178439	-0.246587
H110	H	0.496099	1.095531	-0.307498
C111	C	0.280879	1.287079	-0.444791
C112	C	0.352671	1.299993	-0.395280
H113	H	0.224527	1.368537	-0.511646
H114	H	0.245134	1.257201	-0.394377
H115	H	0.324284	1.226739	-0.461944
H116	H	0.309269	1.360319	-0.378114
H117	H	0.388407	1.329884	-0.445694
O118	O	1.131207	0.599851	0.513213
C119	C	1.118324	0.694581	0.405856
H120	H	1.096380	0.678778	0.342499
H121	H	1.046998	0.794685	0.381444
C122	C	1.257199	0.703591	0.484961
C123	C	1.230256	0.684174	0.407147
H124	H	1.326241	0.697177	0.485757
H125	H	1.265876	0.639773	0.557290
H126	H	1.197752	0.787011	0.464609
H127	H	1.289696	0.600750	0.427508
H128	H	1.221591	0.747978	0.334821
O129	O	0.959180	0.449047	0.494572
C130	C	1.035692	0.425633	0.435768
H131	H	1.114091	0.413622	0.472421
H132	H	1.062300	0.333664	0.443648
C133	C	0.881130	0.555269	0.266357
C134	C	0.977417	0.540528	0.311369
H135	H	0.845184	0.626138	0.189621
H136	H	0.829582	0.571040	0.305974
H137	H	0.903318	0.478620	0.272934
H138	H	0.955227	0.617170	0.304804
H139	H	1.028960	0.524773	0.271747
H140	H	0.632227	0.887643	-0.081979
O141	O	0.958918	0.552032	0.391843
C142	C	0.875364	0.575462	0.443715
H143	H	0.900420	0.587453	0.508862
H144	H	0.789916	0.667447	0.377926
C145	C	0.834900	0.445873	0.421231
C146	C	0.865680	0.460589	0.501253
H147	H	0.828922	0.375018	0.456719
H148	H	0.891189	0.430091	0.386280
H149	H	0.763696	0.522535	0.366413
H150	H	0.936889	0.383935	0.556062
H151	H	0.809403	0.476355	0.536215
H152	H	1.536812	0.592205	0.305020
O153	O	1.740151	0.401163	0.486679
C154	C	1.752703	0.345769	0.427661
H155	H	1.691084	0.317106	0.435547
H156	H	1.733510	0.419055	0.335587
C157	C	1.951260	0.260187	0.467234
C158	C	1.875585	0.224972	0.476928
H159	H	2.027059	0.185677	0.497619
H160	H	1.942803	0.297511	0.506992
H161	H	1.935251	0.321261	0.390504
H162	H	1.891584	0.163913	0.553658
H163	H	1.884047	0.187635	0.437184
O164	O	1.309623	0.599842	-0.112410
C165	C	1.226238	0.694576	-0.099788
H166	H	1.264243	0.678770	-0.020625
H167	H	1.195840	0.794678	-0.175482
C168	C	1.078201	0.703600	-0.187911
C169	C	1.124877	0.684180	-0.090678
H170	H	1.015673	0.697193	-0.182297
H171	H	1.134377	0.639780	-0.196419
H172	H	1.052878	0.787018	-0.250981
H173	H	1.150212	0.600758	-0.027613
H174	H	1.068702	0.747986	-0.082159
O175	O	1.519519	0.448864	0.608631
C176	C	1.530579	0.386227	0.723076
H177	H	1.617332	0.289189	0.774211
H178	H	1.522569	0.449023	0.751247
C179	C	1.329736	0.483241	0.678153
C180	C	1.436285	0.364053	0.740958
H181	H	1.271569	0.469568	0.689185
H182	H	1.322284	0.525445	0.601050
H183	H	1.323078	0.535559	0.701636
H184	H	1.442947	0.311744	0.717465
H185	H	1.443736	0.321839	0.818058
H186	H	0.573802	0.774439	0.113017
H187	H	0.632421	0.887640	0.194808
O188	O	0.390769	1.123499	0.089042
C189	C	0.293818	1.121571	0.089406
H190	H	0.274824	1.108176	0.023040
H191	H	0.310336	1.038209	0.175271
C192	C	0.214584	1.266621	0.144977
C193	C	0.191251	1.250179	0.063458
H194	H	0.151317	1.345949	0.128976
H195	H	0.279904	1.267916	0.144737
H196	H	0.228351	1.197144	0.216524
H197	H	0.177499	1.319646	-0.008084
H198	H	0.125927	1.248898	0.063686
H199	H	1.121876	0.793791	-0.488264
H200	H	1.121867	0.793787	-0.304883
H201	H	0.968362	1.095898	-0.488635
H202	H	0.968375	1.095893	-0.606614
H203	H	1.633349	0.441501	0.047774
H204	H	1.513068	0.408818	-0.103289
