data_functionalizedCrystal
_audit_creation_method	'MofGen! by Chris Wilmer'
_symmetry_space_group_name_H-M	'P1'
_symmetry_Int_Tables_number	1
_symmetry_cell_setting	triclinic
loop_
_symmetry_equiv_pos_as_xyz
  x,y,z
_cell_length_a	27.781022
_cell_length_b	27.780936
_cell_length_c	27.780874
_cell_angle_alpha	90.001972
_cell_angle_beta	120.002376
_cell_angle_gamma	59.999811
loop_
_atom_site_label
_atom_site_type_symbol
_atom_site_fract_x
_atom_site_fract_y
_atom_site_fract_z
O1	O	-0.344533	0.330212	-0.754806
O2	O	-0.245963	0.260214	-0.586238
O3	O	-0.344532	0.260213	-0.684804
O4	O	-0.245965	0.330212	-0.656240
O5	O	-0.424591	0.340274	-0.684804
O6	O	-0.326022	0.340274	-0.586237
O7	O	-0.424592	0.410273	-0.754806
Cu8	Cu	-0.382617	0.382584	-0.670522
Cu9	Cu	-0.287938	0.287903	-0.670522
O10	O	-0.326024	0.410273	-0.656240
C11	C	-0.492839	0.462881	-0.955721
C12	C	-0.459046	0.433178	-0.892224
C13	C	-0.464145	0.433777	-0.984957
C14	C	-0.580008	0.550046	-1.042889
C15	C	-0.639416	0.613541	-1.072593
C16	C	-0.551182	0.520810	-1.071992
C17	C	-0.492843	0.462879	-1.042889
C18	C	-0.459053	0.433174	-1.072593
C19	C	-0.551178	0.520811	-0.984956
C20	C	-0.431754	0.409176	-1.096591
C21	C	-0.431743	0.409182	-0.840925
C22	C	-0.687410	0.664839	-1.096590
C23	C	-0.397506	0.379069	-1.126697
C24	C	-0.397491	0.379077	-0.776569
C25	C	-0.747622	0.729194	-1.126697
C26	C	-0.177727	0.550051	-0.640611
C27	C	-0.211518	0.613546	-0.644699
C28	C	-0.119388	0.520816	-0.640204
C29	C	-0.177726	0.462885	-0.640611
C30	C	-0.211517	0.433181	-0.644699
C31	C	-0.119388	0.433782	-0.640204
C32	C	-0.090560	0.462885	-0.640611
C33	C	-0.031153	0.433182	-0.644699
C34	C	-0.206422	0.520816	-0.640204
C35	C	0.016841	0.409185	-0.648003
C36	C	-0.238820	0.664844	-0.648003
C37	C	-0.238817	0.409183	-0.648003
C38	C	0.077052	0.379079	-0.652147
C39	C	-0.273070	0.729199	-0.652147
C40	C	-0.273067	0.379077	-0.652147
C41	C	-0.579997	0.207603	-0.700432
C42	C	-0.639404	0.237307	-0.696344
C43	C	-0.551169	0.149672	-0.700839
C44	C	-0.492831	0.207603	-0.700432
C45	C	-0.459040	0.237306	-0.696344
C46	C	-0.464136	0.149672	-0.700839
C47	C	-0.492831	0.120437	-0.700432
C48	C	-0.459040	0.056942	-0.696344
C49	C	-0.551169	0.236706	-0.700839
C50	C	-0.431739	0.005644	-0.693041
C51	C	-0.687398	0.261305	-0.693040
C52	C	-0.431739	0.261303	-0.693040
C53	C	-0.397489	-0.058711	-0.688897
C54	C	-0.747609	0.291411	-0.688897
C55	C	-0.397489	0.291409	-0.688897
O56	O	0.234722	0.260215	-0.684804
O57	O	0.094722	0.330214	-0.656240
O58	O	0.094718	0.330214	-0.754806
O59	O	0.234726	0.260215	-0.586237
O60	O	0.094717	0.410274	-0.754806
O61	O	0.094720	0.410275	-0.656240
O62	O	0.234721	0.340276	-0.684804
Cu63	Cu	0.164720	0.382585	-0.670522
Cu64	Cu	0.164723	0.287904	-0.670522
O65	O	0.234724	0.340276	-0.586237
O66	O	-0.905277	0.919525	-1.165495
O67	O	-0.765290	0.750957	-1.095501
O68	O	-0.765273	0.849513	-1.095493
O69	O	-0.905294	0.820969	-1.165502
O70	O	-0.765277	0.849511	-1.175555
O71	O	-0.765294	0.750955	-1.175562
O72	O	-0.905281	0.919523	-1.245557
Cu73	Cu	-0.835288	0.835239	-1.217870
Cu74	Cu	-0.835283	0.835241	-1.123188
O75	O	-0.905298	0.820967	-1.245564
O76	O	-0.344532	0.919526	-0.684804
O77	O	-0.245968	0.750961	-0.656240
O78	O	-0.344535	0.849524	-0.754806
O79	O	-0.245964	0.820963	-0.586238
O80	O	-0.424595	0.849525	-0.754806
O81	O	-0.326028	0.750962	-0.656240
O82	O	-0.424592	0.919527	-0.684804
Cu83	Cu	-0.382620	0.835245	-0.670522
Cu84	Cu	-0.287940	0.835244	-0.670522
O85	O	-0.326024	0.820964	-0.586238
O86	O	-0.326033	0.340269	-1.245554
O87	O	-0.424606	0.410266	-1.175561
O88	O	-0.326031	0.410262	-1.175543
O89	O	-0.424608	0.340273	-1.245571
O90	O	-0.245977	0.330198	-1.095487
O91	O	-0.344552	0.330202	-1.095504
O92	O	-0.245979	0.260205	-1.165498
Cu93	Cu	-0.287956	0.287893	-1.123191
Cu94	Cu	-0.382629	0.382578	-1.217867
O95	O	-0.344554	0.260209	-1.165515
C96	C	-0.090567	0.120429	-0.298164
C97	C	-0.031162	0.056933	-0.268461
C98	C	-0.119396	0.149664	-0.269061
C99	C	-0.177730	0.207597	-0.385329
C100	C	-0.211519	0.237303	-0.448823
C101	C	-0.206426	0.236700	-0.356094
C102	C	-0.177733	0.207596	-0.298164
C103	C	-0.211526	0.237299	-0.268461
C104	C	-0.119393	0.149665	-0.356094
C105	C	-0.238827	0.261296	-0.244465
C106	C	0.016831	0.005634	-0.244465
C107	C	-0.238818	0.261301	-0.500120
C108	C	-0.273078	0.291402	-0.214360
C109	C	0.077040	-0.058722	-0.214360
C110	C	-0.273065	0.291408	-0.564475
C111	C	-0.177749	0.550055	-1.042885
C112	C	-0.211527	0.613545	-1.072593
C113	C	-0.206464	0.520829	-1.071982
C114	C	-0.090589	0.462892	-0.955715
C115	C	-0.031174	0.433186	-0.892220
C116	C	-0.119436	0.433798	-0.984944
C117	C	-0.177780	0.462905	-1.042874
C118	C	-0.211592	0.433212	-1.072571
C119	C	-0.119404	0.520816	-0.984955
C120	C	-0.238908	0.409224	-1.096563
C121	C	-0.238817	0.664838	-1.096594
C122	C	0.016826	0.409187	-0.840923
C123	C	-0.273178	0.379130	-1.126662
C124	C	-0.273052	0.729188	-1.126705
C125	C	0.077045	0.379079	-0.776568
C126	C	0.507183	0.207616	-0.298156
C127	C	0.540973	0.237321	-0.268453
C128	C	0.535881	0.149685	-0.269051
C129	C	0.420015	0.207612	-0.385323
C130	C	0.360606	0.237313	-0.448819
C131	C	0.448846	0.149681	-0.356086
C132	C	0.507187	0.120447	-0.298154
C133	C	0.540981	0.056953	-0.268448
C134	C	0.448842	0.236716	-0.356088
C135	C	0.568285	0.005655	-0.244450
C136	C	0.568273	0.261320	-0.244456
C137	C	0.312610	0.261308	-0.500118
C138	C	0.602538	-0.058701	-0.214342
C139	C	0.602521	0.291428	-0.214351
C140	C	0.252396	0.291412	-0.564475
C141	C	-0.492777	0.865074	-1.042861
C142	C	-0.458985	0.860980	-1.072565
C143	C	-0.464072	0.865473	-0.984926
C144	C	-0.579955	0.865094	-1.042866
C145	C	-0.639374	0.861021	-1.072575
C146	C	-0.551118	0.865493	-0.984931
C147	C	-0.492770	0.865072	-0.955691
C148	C	-0.458970	0.860976	-0.892193
C149	C	-0.551125	0.865495	-1.071969
C150	C	-0.431662	0.857665	-0.840891
C151	C	-0.431683	0.857671	-1.096562
C152	C	-0.687378	0.857729	-1.096576
C153	C	-0.397404	0.853513	-0.776532
C154	C	-0.397433	0.853521	-1.126668
C155	C	-0.747601	0.853600	-1.126688
O156	O	-0.424541	0.919511	-1.245575
O157	O	-0.326017	0.750956	-1.175568
O158	O	-0.424555	0.849540	-1.175561
O159	O	-0.326004	0.820927	-1.245582
O160	O	-0.344470	0.849526	-1.095507
O161	O	-0.245933	0.750942	-1.095513
O162	O	-0.344457	0.919498	-1.165521
Cu163	Cu	-0.287882	0.835219	-1.123207
Cu164	Cu	-0.382591	0.835235	-1.217881
O165	O	-0.245919	0.820913	-1.165528
C166	C	-1.177799	0.805404	-1.385365
C167	C	-1.211595	0.809496	-1.448863
C168	C	-1.206499	0.805007	-1.356132
C169	C	-1.090616	0.805387	-1.298192
C170	C	-1.031197	0.809460	-1.268482
C171	C	-1.119449	0.804989	-1.269091
C172	C	-1.177798	0.805410	-1.298198
C173	C	-1.211593	0.809508	-1.268497
C174	C	-1.119450	0.804983	-1.356125
C175	C	-1.238897	0.812821	-1.244501
C176	C	-1.238901	0.812803	-1.500163
C177	C	-0.983193	0.812751	-1.244481
C178	C	-1.273151	0.816975	-1.214397
C179	C	-1.273155	0.816951	-1.564521
C180	C	-0.922970	0.816880	-1.214370
H181	H	-0.417200	0.386179	-0.961481
C182	C	0.396870	0.101743	-0.356502
C183	C	0.416276	0.117993	-0.387768
H184	H	0.376766	0.082178	-0.376059
H185	H	0.364871	0.135991	-0.354502
H186	H	0.435814	0.076030	-0.317742
H187	H	0.377330	0.143710	-0.426526
H188	H	0.448276	0.083740	-0.389774
H189	H	-0.417124	0.866122	-0.961455
C190	C	-0.086463	0.555480	-0.689427
C191	C	-0.086825	0.552512	-0.639304
H192	H	-0.066358	0.575047	-0.688864
H193	H	-0.131860	0.576680	-0.723800
H194	H	-0.060913	0.516721	-0.689603
H195	H	-0.112378	0.591271	-0.639131
H196	H	-0.041419	0.531313	-0.604923
H197	H	-0.417186	0.126199	-0.701486
H198	H	-0.095347	0.386220	-0.961451
H199	H	-1.095324	0.804323	-1.379599
H200	H	-0.575310	0.544284	-1.119590
C201	C	-0.134000	0.115031	-0.438263
C202	C	-0.086820	0.117979	-0.387777
H203	H	-0.113889	0.095467	-0.457819
H204	H	-0.172928	0.153788	-0.463974
H205	H	-0.147172	0.093830	-0.427233
H206	H	-0.073653	0.139184	-0.398808
H207	H	-0.047881	0.079215	-0.362061
C208	C	-0.029381	0.514551	-0.896160
C209	C	-0.086792	0.552479	-0.953282
H210	H	-0.009245	0.534096	-0.876609
H211	H	0.002584	0.480301	-0.898187
H212	H	-0.042549	0.503543	-0.874941
H213	H	-0.073623	0.563483	-0.974502
H214	H	-0.118763	0.586739	-0.951257
C215	C	-0.546115	0.514583	-0.896148
C216	C	-0.583760	0.552495	-0.953278
H217	H	-0.566236	0.534142	-0.876597
H218	H	-0.500721	0.503567	-0.874942
H219	H	-0.545868	0.480333	-0.898162
H220	H	-0.584003	0.586744	-0.951264
H221	H	-0.629166	0.563519	-0.974490
H222	H	-0.575247	0.866142	-1.119566
H223	H	-1.095319	0.804336	-1.221491
H224	H	0.424709	0.284318	-0.379556
C225	C	-1.289103	0.803871	-1.444952
C226	C	-1.269878	0.804133	-1.387819
H227	H	-1.328231	0.803333	-1.464512
H228	H	-1.252856	0.769864	-1.442945
H229	H	-1.299272	0.838245	-1.466150
H230	H	-1.259704	0.769756	-1.366619
H231	H	-1.306133	0.838143	-1.389824
H232	H	-0.253369	0.284299	-0.379568
C233	C	-0.289049	0.609640	-1.155725
C234	C	-0.269842	0.552515	-1.136237
H235	H	-0.328177	0.629200	-1.195391
H236	H	-0.252797	0.607619	-1.153486
H237	H	-0.299212	0.630845	-1.131521
H238	H	-0.259674	0.531309	-1.160438
H239	H	-0.306103	0.554533	-1.138481
H240	H	-0.095263	0.386184	-0.639550
C241	C	-0.133930	0.114981	-0.201456
C242	C	-0.086787	0.117958	-0.204800
H243	H	-0.113786	0.095405	-0.161782
H244	H	-0.147108	0.093785	-0.225656
H245	H	-0.172862	0.153737	-0.214655
H246	H	-0.047856	0.079202	-0.191605
H247	H	-0.073599	0.139153	-0.180591
H248	H	0.582818	0.126221	-0.221447
C249	C	-0.289012	0.609629	-0.639054
C250	C	-0.269791	0.552497	-0.639317
H251	H	-0.328129	0.629184	-0.638502
H252	H	-0.299191	0.630828	-0.673428
H253	H	-0.252753	0.607619	-0.605046
H254	H	-0.306048	0.554507	-0.673327
H255	H	-0.259614	0.531293	-0.604939
C256	C	-0.641089	0.866656	-0.991157
C257	C	-0.583686	0.866382	-0.953242
H258	H	-0.661194	0.867207	-0.971593
H259	H	-0.627925	0.832287	-1.002187
H260	H	-0.673085	0.900667	-1.025400
H261	H	-0.551687	0.832368	-0.919001
H262	H	-0.596849	0.900754	-0.942204
H263	H	-0.575287	0.284299	-0.701477
C264	C	-0.641128	0.155894	-0.701983
C265	C	-0.583736	0.117984	-0.701723
H266	H	-0.661228	0.136328	-0.702524
H267	H	-0.673127	0.190135	-0.735988
H268	H	-0.627949	0.166920	-0.667606
H269	H	-0.596916	0.106961	-0.736102
H270	H	-0.551731	0.083732	-0.667714
