data_functionalizedCrystal
_audit_creation_method	'MofGen! by Chris Wilmer'
_symmetry_space_group_name_H-M	'P1'
_symmetry_Int_Tables_number	1
_symmetry_cell_setting	triclinic
loop_
_symmetry_equiv_pos_as_xyz
  x,y,z
_cell_length_a	9.065215
_cell_length_b	16.109301
_cell_length_c	7.540329
_cell_angle_alpha	89.994987
_cell_angle_beta	89.997574
_cell_angle_gamma	84.238089
loop_
_atom_site_label
_atom_site_type_symbol
_atom_site_fract_x
_atom_site_fract_y
_atom_site_fract_z
O1	O	1.957452	0.121894	-0.147469
O2	O	1.527924	0.131895	-0.147477
O3	O	1.754487	0.005954	-0.147455
O4	O	1.730888	0.247835	-0.147491
O5	O	1.754474	0.005952	0.147511
O6	O	1.527911	0.131894	0.147488
O7	O	1.957438	0.121892	0.147497
Cu8	Cu	1.742673	0.126893	0.174425
Cu9	Cu	1.742689	0.126895	-0.174405
O10	O	1.730875	0.247833	0.147474
C11	C	1.472954	0.130934	0.000005
C12	C	1.309180	0.128061	0.000002
C13	C	1.753525	-0.025029	0.000029
C14	C	1.750659	-0.117346	0.000031
C15	C	1.878433	-0.338638	0.000006
C16	C	1.875729	-0.425379	-0.000009
C17	C	1.606919	-0.407568	-0.000007
C18	C	1.609625	-0.320829	-0.000005
C19	C	1.745386	-0.286366	0.000010
C20	C	1.739976	-0.459847	-0.000006
C21	C	1.737043	-0.553895	-0.000022
C22	C	1.748320	-0.192311	0.000023
C23	C	2.012408	0.122853	0.000011
C24	C	2.176182	0.125726	0.000002
C25	C	1.731838	0.278816	-0.000013
C26	C	1.734703	0.371134	-0.000028
N27	N	1.742673	0.126891	0.419773
N28	N	1.742701	0.126890	-0.419754
H29	H	1.984069	-0.467936	-0.000016
C30	C	2.025719	-0.301105	-0.000276
C31	C	2.035105	-0.251804	-0.152005
C32	C	2.170757	-0.217210	-0.152320
H33	H	2.104697	-0.344575	-0.000376
H34	H	2.032380	-0.267596	0.102533
H35	H	2.028458	-0.285311	-0.254787
H36	H	1.956158	-0.208321	-0.151937
H37	H	2.177418	-0.183701	-0.049512
H38	H	2.249724	-0.260685	-0.152415
H39	H	2.177137	-0.183749	-0.255257
H40	H	1.501276	-0.278267	-0.000007
H41	H	1.496387	-0.435639	-0.000016
