data_functionalizedCrystal
_audit_creation_method	'MofGen! by Chris Wilmer'
_symmetry_space_group_name_H-M	'P1'
_symmetry_Int_Tables_number	1
_symmetry_cell_setting	triclinic
loop_
_symmetry_equiv_pos_as_xyz
  x,y,z
_cell_length_a	16.109302
_cell_length_b	18.366186
_cell_length_c	19.288865
_cell_angle_alpha	89.988521
_cell_angle_beta	83.299014
_cell_angle_gamma	89.989012
loop_
_atom_site_label
_atom_site_type_symbol
_atom_site_fract_x
_atom_site_fract_y
_atom_site_fract_z
O1	O	1.102831	-0.060591	0.089284
O2	O	1.602831	0.439409	0.589284
O3	O	0.860732	-0.060586	0.100394
O4	O	1.360732	0.439414	0.600394
O5	O	0.988777	-0.060574	-0.006274
O6	O	1.488777	0.439426	0.493726
O7	O	0.974786	-0.060603	0.195953
O8	O	1.474786	0.439397	0.695953
O9	O	0.988755	0.060525	-0.006280
O10	O	1.488755	0.560525	0.493720
O11	O	0.860710	0.060513	0.100389
O12	O	1.360710	0.560513	0.600389
O13	O	1.102810	0.060509	0.089279
O14	O	1.602810	0.560509	0.589279
Zn15	Zn	0.981756	0.079738	0.094833
Zn16	Zn	1.481756	0.579738	0.594833
Zn17	Zn	0.981785	-0.079816	0.094840
Zn18	Zn	1.481785	0.420184	0.594840
O19	O	0.974764	0.060497	0.195947
O20	O	1.474764	0.560497	0.695947
C21	C	0.829747	-0.000036	0.099941
C22	C	1.329747	0.499964	0.599941
C23	C	0.737457	-0.000033	0.098592
C24	C	1.237457	0.499967	0.598592
C25	C	0.525115	0.065971	0.095469
C26	C	1.025115	0.565971	0.595469
C27	C	0.438399	0.065969	0.094193
C28	C	0.938399	0.565969	0.594193
C29	C	0.438433	-0.066060	0.094202
C30	C	0.938433	0.433940	0.594202
C31	C	0.525148	-0.066057	0.095473
C32	C	1.025148	0.433943	0.595473
C33	C	0.568486	-0.000039	0.096109
C34	C	1.068486	0.499961	0.596109
C35	C	0.395055	-0.000045	0.093564
C36	C	0.895055	0.499955	0.593564
C37	C	0.301034	-0.000048	0.092181
C38	C	0.801034	0.499952	0.592181
C39	C	0.662513	-0.000036	0.097491
C40	C	1.162513	0.499964	0.597491
C41	C	0.988316	-0.000022	-0.032155
C42	C	1.488316	0.499978	0.467845
C43	C	0.986965	-0.000016	-0.109261
C44	C	1.486965	0.499984	0.390739
C45	C	1.133794	-0.000044	0.089732
C46	C	1.633794	0.499956	0.589732
C47	C	1.226085	-0.000051	0.091081
C48	C	1.726085	0.499949	0.591081
N49	N	0.981743	0.188629	0.094828
N50	N	1.481743	0.688629	0.594828
N51	N	0.981805	-0.188707	0.094840
N52	N	1.481805	0.311293	0.594840
C53	C	1.038460	0.226735	0.047618
C54	C	1.538460	0.726735	0.547618
C55	C	1.038465	0.302963	0.047615
C56	C	1.538465	0.802963	0.547615
C57	C	0.981761	0.341082	0.094834
C58	C	1.481761	0.841082	0.594834
C59	C	0.925034	0.302967	0.142047
C60	C	1.425034	0.802967	0.642047
C61	C	0.925025	0.226741	0.142044
C62	C	1.425025	0.726741	0.642044
C63	C	0.970632	0.461833	0.158095
C64	C	1.470632	0.961833	0.658095
C65	C	0.970647	0.538058	0.158099
C66	C	1.470647	1.038058	0.658099
C67	C	0.981785	0.576189	0.094842
C68	C	1.481785	1.076189	0.594842
C69	C	0.992926	0.538086	0.031580
C70	C	1.492926	1.038086	0.531580
C71	C	0.992917	0.461860	0.031577
C72	C	1.492917	0.961860	0.531577
C73	C	0.981765	0.423737	0.094842
C74	C	1.481765	0.923737	0.594842
C75	C	1.038511	0.696950	0.047625
C76	C	1.538511	1.196950	0.547625
C77	C	1.038510	0.773179	0.047621
C78	C	1.538510	1.273179	0.547621
C79	C	0.925083	0.773182	0.142059
C80	C	1.425083	1.273182	0.642059
C81	C	0.925079	0.696954	0.142057
C82	C	1.425079	1.196954	0.642057
C83	C	0.981798	0.658843	0.094841
C84	C	1.481798	1.158843	0.594841
C85	C	1.062096	-0.000014	-0.153778
C86	C	1.562096	0.499986	0.346222
C87	C	1.060826	-0.000025	-0.226228
C88	C	1.560826	0.499975	0.273772
C89	C	0.984421	-0.000024	-0.254158
C90	C	1.484421	0.499976	0.245842
C91	C	0.909280	-0.000031	-0.209632
C92	C	1.409280	0.499969	0.290368
C93	C	0.910552	-0.000026	-0.137183
C94	C	1.410552	0.499974	0.362817
C95	C	0.924350	0.042395	-0.362591
C96	C	1.424350	0.542395	0.137409
C97	C	0.923082	0.042396	-0.435039
C98	C	1.423082	0.542396	0.064961
C99	C	0.980495	-0.000041	-0.477613
C100	C	1.480495	0.499959	0.022387
C101	C	1.039192	-0.042468	-0.447733
C102	C	1.539192	0.457532	0.052267
C103	C	1.040464	-0.042463	-0.375285
C104	C	1.540464	0.457537	0.124715
C105	C	0.983034	-0.000029	-0.332716
C106	C	1.483034	0.499971	0.167284
C107	C	1.054255	-0.000052	-0.600689
C108	C	1.554255	0.499948	-0.100689
C109	C	1.052983	-0.000068	-0.673141
C110	C	1.552983	0.499932	-0.173141
C111	C	0.901434	-0.000066	-0.656542
C112	C	1.401434	0.499934	-0.156542
C113	C	0.902709	-0.000057	-0.584093
C114	C	1.402709	0.499943	-0.084093
C115	C	0.979122	-0.000047	-0.556171
C116	C	1.479122	0.499953	-0.056171
C117	C	0.975225	-0.000057	0.221828
C118	C	1.475225	0.499943	0.721828
C119	C	0.976577	-0.000068	0.298934
C120	C	1.476577	0.499932	0.798934
H121	H	0.403137	-0.119810	0.093685
H122	H	0.903137	0.380190	0.593685
H123	H	1.001986	0.430839	-0.019934
H124	H	1.501986	0.930839	0.480066
F125	F	0.571236	0.136233	0.096143
F126	F	1.071236	0.636233	0.596143
F127	F	0.571310	-0.136318	0.096151
F128	F	1.071310	0.363682	0.596151
H129	H	1.084652	0.333994	0.009170
H130	H	1.584652	0.833994	0.509170
F131	F	0.392244	0.136226	0.093512
F132	F	0.892244	0.636226	0.593512
H133	H	1.001995	0.569131	-0.019930
H134	H	1.501995	1.069131	0.480070
F135	F	0.822743	-0.000056	-0.536713
F136	F	1.322743	0.499944	-0.036713
F137	F	0.864717	0.656396	0.192307
F138	F	1.364717	1.156396	0.692307
F139	F	1.098872	0.656388	-0.002629
F140	F	1.598872	1.156388	0.497371
H141	H	1.084641	0.195707	0.009170
H142	H	1.584641	0.695707	0.509170
H143	H	0.877595	0.076956	-0.327932
H144	H	1.377595	0.576956	0.172068
H145	H	1.084694	0.804205	0.009174
H146	H	1.584694	1.304205	0.509174
F147	F	1.140794	-0.000024	-0.273615
F148	F	1.640794	0.499976	0.226385
F149	F	0.958837	0.421259	0.225427
F150	F	1.458837	0.921259	0.725427
H151	H	0.878910	0.804218	0.180503
H152	H	1.378910	1.304218	0.680503
H153	H	0.839223	-0.000069	-0.679282
H154	H	1.339223	0.499931	-0.179282
F155	F	0.958795	0.578604	0.225428
F156	F	1.458795	1.078604	0.725428
F157	F	0.864656	0.186184	0.192293
F158	F	1.364656	0.686184	0.692293
F159	F	1.135579	-0.000037	-0.570970
F160	F	1.635579	0.499963	-0.070970
H161	H	0.878863	0.334007	0.180492
H162	H	1.378863	0.834007	0.680492
H163	H	1.124317	-0.000008	-0.131049
H164	H	1.624317	0.499992	0.368951
H165	H	1.088255	-0.077010	-0.350959
H166	H	1.588255	0.422990	0.149041
H167	H	1.085944	-0.077024	-0.482396
H168	H	1.585944	0.422976	0.017604
H169	H	1.114166	-0.000070	-0.709386
H170	H	1.614166	0.499930	-0.209386
H171	H	0.875284	0.076938	-0.459361
H172	H	1.375284	0.576938	0.040639
H173	H	0.847070	-0.000031	-0.232377
H174	H	1.347070	0.499969	0.267623
F175	F	0.830583	-0.000029	-0.089803
F176	F	1.330583	0.499971	0.410197
