data_functionalizedCrystal
_audit_creation_method	'MofGen! by Chris Wilmer'
_symmetry_space_group_name_H-M	'P1'
_symmetry_Int_Tables_number	1
_symmetry_cell_setting	triclinic
loop_
_symmetry_equiv_pos_as_xyz
  x,y,z
_cell_length_a	12.827893
_cell_length_b	12.759400
_cell_length_c	12.827885
_cell_angle_alpha	90.027857
_cell_angle_beta	90.019272
_cell_angle_gamma	90.014444
loop_
_atom_site_label
_atom_site_type_symbol
_atom_site_fract_x
_atom_site_fract_y
_atom_site_fract_z
Zn1	Zn	1.597678	-0.418211	0.590863
Zn2	Zn	2.097678	0.081789	1.090863
Zn3	Zn	1.597575	-0.593926	0.416129
Zn4	Zn	2.097575	-0.093926	0.916129
Zn5	Zn	1.422919	-0.418263	0.416136
Zn6	Zn	1.922919	0.081737	0.916136
Zn7	Zn	1.422908	-0.593849	0.590829
Zn8	Zn	1.922908	-0.093849	1.090829
O9	O	1.510270	-0.506062	0.503489
O10	O	2.010270	-0.006062	1.003489
O11	O	1.743900	-0.441531	0.567695
O12	O	2.243900	0.058469	1.067695
O13	O	1.574368	-0.570678	0.269894
O14	O	2.074368	-0.070678	0.769894
O15	O	1.446149	-0.271235	0.439331
O16	O	1.946149	0.228765	0.939331
O17	O	1.743825	-0.570628	0.439319
O18	O	2.243825	-0.070628	0.939319
O19	O	1.574543	-0.271197	0.567702
O20	O	2.074543	0.228803	1.067702
O21	O	1.446049	-0.441619	0.269899
O22	O	1.946049	0.058381	0.769899
O23	O	1.276682	-0.441544	0.439299
O24	O	1.776682	0.058456	0.939299
O25	O	1.446129	-0.570496	0.737069
O26	O	1.946129	-0.070496	1.237069
O27	O	1.276673	-0.570546	0.567644
O28	O	1.776673	-0.070546	1.067644
O29	O	1.574532	-0.441456	0.737094
O30	O	2.074532	0.058544	1.237094
O31	O	1.574357	-0.740937	0.439286
O32	O	2.074357	-0.240937	0.939286
O33	O	1.446030	-0.740880	0.567637
O34	O	1.946030	-0.240880	1.067637
C35	C	1.238760	-0.506043	0.503469
C36	C	1.738760	-0.006043	1.003469
C37	C	1.122607	-0.506060	0.503486
C38	C	1.622607	-0.006060	1.003486
C39	C	1.510210	-0.779030	0.503480
C40	C	2.010210	-0.279030	1.003480
C41	C	1.510280	-0.895806	0.503511
C42	C	2.010280	-0.395806	1.003511
C43	C	1.070859	-0.442292	0.567109
C44	C	1.570859	0.057708	1.067109
C45	C	0.950809	-0.442308	0.567127
C46	C	1.450809	0.057692	1.067127
C47	C	1.443445	-0.950677	0.570291
C48	C	1.943445	-0.450677	1.070291
C49	C	1.443501	-1.060401	0.570300
C50	C	1.943501	-0.560401	1.070300
C51	C	1.577234	-1.060374	0.436748
C52	C	2.077234	-0.560374	0.936748
C53	C	1.577172	-0.950652	0.436734
C54	C	2.077172	-0.450652	0.936734
C55	C	1.376553	-0.895831	0.637068
C56	C	1.876553	-0.395831	1.137068
C57	C	1.309713	-0.950702	0.703854
C58	C	1.809713	-0.450702	1.203854
C59	C	1.309769	-1.060426	0.703864
C60	C	1.809769	-0.560426	1.203864
C61	C	1.376663	-1.115279	0.637088
C62	C	1.876663	-0.615279	1.137088
C63	C	1.782840	-0.506082	0.503510
C64	C	2.282840	-0.006082	1.003510
C65	C	1.898993	-0.506091	0.503519
C66	C	2.398993	-0.006091	1.003519
C67	C	1.510341	-0.505961	0.776059
C68	C	2.010341	-0.005961	1.276059
C69	C	1.510371	-0.505918	0.892213
C70	C	2.010371	-0.005918	1.392213
C71	C	1.510359	-0.232029	0.503521
C72	C	2.010359	0.267971	1.003521
C73	C	1.510397	-0.115252	0.503535
C74	C	2.010397	0.384748	1.003535
C75	C	1.510259	-0.506087	0.231979
C76	C	2.010259	-0.006087	0.731979
C77	C	1.510431	-0.505834	0.115827
C78	C	2.010431	-0.005834	0.615827
C79	C	1.573916	-0.442053	0.944010
C80	C	2.073916	0.057947	1.444010
C81	C	1.573949	-0.442007	1.064060
C82	C	2.073949	0.057993	1.564060
H83	H	1.115433	-0.387682	0.621562
H84	H	1.615433	0.112318	1.121562
H85	H	1.628291	-0.387405	0.899478
H86	H	2.128291	0.112595	1.399478
H87	H	0.906307	-0.387717	0.621601
H88	H	1.406307	0.112283	1.121601
O89	O	1.645997	-0.369562	1.123064
O90	O	2.145997	0.130438	1.623064
H91	H	1.699113	-0.416605	1.172804
H92	H	2.199113	0.083395	1.672804
H93	H	1.255339	-1.105098	0.758238
H94	H	1.755339	-0.605098	1.258238
H95	H	1.376700	-1.204624	0.637098
H96	H	1.876700	-0.704624	1.137098
O97	O	1.438350	-0.578248	1.056827
O98	O	1.938350	-0.078248	1.556827
H99	H	1.356332	-0.560219	1.077721
H100	H	1.856332	-0.060219	1.577721
H101	H	1.631594	-0.905976	0.382354
H102	H	2.131594	-0.405976	0.882354
H103	H	1.455986	-0.560555	0.936744
H104	H	1.955986	-0.060555	1.436744
H105	H	1.078033	-0.560664	0.449026
H106	H	1.578033	-0.060664	0.949026
O107	O	0.957924	-0.578408	0.431350
O108	O	1.457924	-0.078408	0.931350
H109	H	1.007677	-0.631862	0.478065
H110	H	1.507677	-0.131862	0.978065
O111	O	1.649410	-1.119530	0.364757
O112	O	2.149410	-0.619530	0.864757
H113	H	1.638239	-1.205045	0.376001
H114	H	2.138239	-0.705045	0.876001
O115	O	1.376456	-0.777487	0.637045
O116	O	1.876456	-0.277487	1.137045
H117	H	1.397507	-0.748478	0.715878
H118	H	1.897507	-0.248478	1.215878
O119	O	1.237564	-0.891548	0.775874
O120	O	1.737564	-0.391548	1.275874
H121	H	1.248759	-0.806033	0.764657
H122	H	1.748759	-0.306033	1.264657
