data_functionalizedCrystal
_audit_creation_method	'MofGen! by Chris Wilmer'
_symmetry_space_group_name_H-M	'P1'
_symmetry_Int_Tables_number	1
_symmetry_cell_setting	triclinic
loop_
_symmetry_equiv_pos_as_xyz
  x,y,z
_cell_length_a	19.188930
_cell_length_b	8.559649
_cell_length_c	7.681481
_cell_angle_alpha	94.930900
_cell_angle_beta	84.309808
_cell_angle_gamma	76.461723
loop_
_atom_site_label
_atom_site_type_symbol
_atom_site_fract_x
_atom_site_fract_y
_atom_site_fract_z
O1	O	-0.908267	-0.214796	-0.146976
O2	O	-0.703558	-0.241647	-0.146853
O3	O	-0.823948	0.004506	-0.146923
O4	O	-0.787877	-0.460948	-0.146905
O5	O	-0.838769	0.034871	0.145926
O6	O	-0.718379	-0.211281	0.145996
O7	O	-0.923089	-0.184430	0.145873
Zn8	Zn	-0.823087	-0.193034	0.192431
Zn9	Zn	-0.803559	-0.233043	-0.193411
O10	O	-0.802699	-0.430583	0.145944
C11	C	-0.685004	-0.225593	-0.000413
C12	C	-0.607638	-0.222976	-0.000367
C13	C	-0.834092	0.079237	-0.000504
C14	C	-0.842228	0.256672	-0.000519
C15	C	-0.941643	-0.200485	-0.000571
C16	C	-1.019008	-0.203102	-0.000628
C17	C	-0.555161	-0.367417	-0.000389
C18	C	-0.482464	-0.364966	-0.000409
C19	C	-0.462247	-0.218069	-0.000441
C20	C	-0.514736	-0.073608	-0.000409
C21	C	-0.587431	-0.076062	-0.000372
N22	N	-0.355090	-0.116125	-0.100186
N23	N	-0.286031	-0.113804	-0.100225
C24	C	-0.243221	-0.210667	-0.000549
N25	N	-0.272075	-0.309965	0.099145
N26	N	-0.341139	-0.312291	0.099176
C27	C	-0.383423	-0.215392	-0.000480
C28	C	-0.111917	-0.352459	-0.000590
C29	C	-0.039220	-0.350001	-0.000598
C30	C	-0.071492	-0.058641	-0.000617
C31	C	-0.144188	-0.061102	-0.000591
C32	C	-0.164395	-0.208016	-0.000586
C33	C	-0.792555	-0.505314	-0.000480
C34	C	-0.784418	-0.682751	-0.000477
N35	N	-0.836420	-0.165729	0.455757
N36	N	-0.790233	-0.260335	-0.456737
H37	H	-0.571608	-0.487047	-0.000388
C38	C	-0.726534	-0.390785	0.441725
C39	C	-0.716486	-0.412016	0.238965
C40	C	-0.652787	-0.542469	0.137414
C41	C	-0.599135	-0.651690	0.238623
C42	C	-0.609181	-0.630462	0.441395
C43	C	-0.672881	-0.500010	0.542946
H44	H	-0.756204	-0.331161	0.164033
H45	H	-0.645350	-0.558182	-0.012691
H46	H	-0.551980	-0.748259	0.163449
H47	H	-0.569463	-0.711318	0.516326
H48	H	-0.680317	-0.484296	0.693051
C49	C	-0.424726	-0.523862	-0.000454
C50	C	-0.446952	-0.685459	-0.000454
C51	C	-0.389216	-0.844354	-0.000507
C52	C	-0.309254	-0.841652	-0.000560
C53	C	-0.287024	-0.680049	-0.000560
C54	C	-0.344760	-0.521153	-0.000507
H55	H	-0.506149	-0.687465	-0.000415
H56	H	-0.405673	-0.963984	-0.000507
H57	H	-0.266514	-0.959276	-0.000599
H58	H	-0.227827	-0.678043	-0.000599
H59	H	-0.328303	-0.401524	-0.000506
C60	C	-0.900122	-0.035272	0.557303
C61	C	-0.910318	-0.014416	0.760064
C62	C	-0.974019	0.116038	0.861609
C63	C	-1.027523	0.225636	0.760393
C64	C	-1.017329	0.204783	0.557621
C65	C	-0.953628	0.074329	0.456075
H66	H	-0.870709	-0.095550	0.835000
H67	H	-0.981565	0.131474	1.011715
H68	H	-1.074678	0.322206	0.835563
H69	H	-1.056937	0.285917	0.482684
H70	H	-0.946082	0.058893	0.305969
H71	H	-0.498269	0.045994	-0.000460
H72	H	-0.128371	-0.472083	-0.000560
H73	H	-0.630160	0.041563	-0.000355
H74	H	0.003508	-0.467626	-0.000606
H75	H	-0.728699	0.233367	-0.000438
H76	H	-0.897951	0.340566	-0.000538
H77	H	-0.055027	0.060954	-0.000753
H78	H	-0.186916	0.056517	-0.000582
