data_functionalizedCrystal
_audit_creation_method	'MofGen! by Chris Wilmer'
_symmetry_space_group_name_H-M	'P1'
_symmetry_Int_Tables_number	1
_symmetry_cell_setting	triclinic
loop_
_symmetry_equiv_pos_as_xyz
  x,y,z
_cell_length_a	16.109302
_cell_length_b	14.519731
_cell_length_c	14.586319
_cell_angle_alpha	89.995223
_cell_angle_beta	89.994552
_cell_angle_gamma	83.575317
loop_
_atom_site_label
_atom_site_type_symbol
_atom_site_fract_x
_atom_site_fract_y
_atom_site_fract_z
O1	O	1.103344	0.118542	-0.076284
O2	O	1.353344	0.368542	0.173716
O3	O	1.603344	0.618542	0.423716
O4	O	1.853344	0.868542	0.673716
O5	O	0.861308	0.133293	-0.076277
O6	O	1.111308	0.383293	0.173723
O7	O	1.361308	0.633293	0.423723
O8	O	1.611308	0.883293	0.673723
O9	O	0.988734	-0.008333	-0.076272
O10	O	1.238734	0.241667	0.173728
O11	O	1.488734	0.491667	0.423728
O12	O	1.738734	0.741667	0.673728
O13	O	0.975918	0.260168	-0.076288
O14	O	1.225918	0.510168	0.173712
O15	O	1.475918	0.760168	0.423712
O16	O	1.725918	1.010168	0.673712
O17	O	0.988725	-0.008335	0.076209
O18	O	1.238725	0.241665	0.326209
O19	O	1.488725	0.491665	0.576209
O20	O	1.738725	0.741665	0.826209
O21	O	0.861300	0.133291	0.076204
O22	O	1.111300	0.383291	0.326204
O23	O	1.361300	0.633291	0.576204
O24	O	1.611300	0.883291	0.826204
O25	O	1.103335	0.118540	0.076197
O26	O	1.353335	0.368540	0.326197
O27	O	1.603335	0.618540	0.576197
O28	O	1.853335	0.868540	0.826197
Cu29	Cu	0.982316	0.125915	0.090123
Cu30	Cu	1.232316	0.375915	0.340123
Cu31	Cu	1.482316	0.625915	0.590123
Cu32	Cu	1.732316	0.875915	0.840123
Cu33	Cu	0.982327	0.125918	-0.090203
Cu34	Cu	1.232327	0.375918	0.159797
Cu35	Cu	1.482327	0.625918	0.409797
Cu36	Cu	1.732327	0.875918	0.659797
O37	O	0.975909	0.260166	0.076193
O38	O	1.225909	0.510166	0.326193
O39	O	1.475909	0.760166	0.576193
O40	O	1.725909	1.010166	0.826193
C41	C	0.830328	0.132695	-0.000035
C42	C	1.080328	0.382695	0.249965
C43	C	1.330328	0.632695	0.499965
C44	C	1.580328	0.882695	0.749965
C45	C	0.738030	0.130903	-0.000032
C46	C	0.988030	0.380903	0.249968
C47	C	1.238030	0.630903	0.499968
C48	C	1.488030	0.880903	0.749968
C49	C	0.525676	0.126758	0.083076
C50	C	0.775676	0.376758	0.333076
C51	C	1.025676	0.626758	0.583076
C52	C	1.275676	0.876758	0.833076
C53	C	0.438953	0.125065	0.083073
C54	C	0.688953	0.375065	0.333073
C55	C	0.938953	0.625065	0.583073
C56	C	1.188953	0.875065	0.833073
C57	C	0.438973	0.125072	-0.083170
C58	C	0.688973	0.375072	0.166830
C59	C	0.938973	0.625072	0.416830
C60	C	1.188973	0.875072	0.666830
C61	C	0.525696	0.126759	-0.083166
C62	C	0.775696	0.376759	0.166834
C63	C	1.025696	0.626759	0.416834
C64	C	1.275696	0.876759	0.666834
C65	C	0.569044	0.127607	-0.000040
C66	C	0.819044	0.377607	0.249960
C67	C	1.069044	0.627607	0.499960
C68	C	1.319044	0.877607	0.749960
C69	C	0.395599	0.124226	-0.000047
C70	C	0.645599	0.374226	0.249953
C71	C	0.895599	0.624226	0.499953
C72	C	1.145599	0.874226	0.749953
C73	C	0.301570	0.122390	-0.000051
C74	C	0.551570	0.372390	0.249949
C75	C	0.801570	0.622390	0.499949
C76	C	1.051570	0.872390	0.749949
C77	C	0.663080	0.129441	-0.000036
C78	C	0.913080	0.379441	0.249964
C79	C	1.163080	0.629441	0.499964
C80	C	1.413080	0.879441	0.749964
C81	C	0.988129	-0.042692	-0.000031
C82	C	1.238129	0.207308	0.249969
C83	C	1.488129	0.457308	0.499969
C84	C	1.738129	0.707308	0.749969
C85	C	0.986330	-0.145069	-0.000031
C86	C	1.236330	0.104931	0.249969
C87	C	1.486330	0.354931	0.499969
C88	C	1.736330	0.604931	0.749969
C89	C	0.984868	-0.228210	-0.000033
C90	C	1.234868	0.021790	0.249967
C91	C	1.484868	0.271790	0.499967
C92	C	1.734868	0.521790	0.749967
C93	C	0.983041	-0.332515	-0.000040
C94	C	1.233041	-0.082515	0.249960
C95	C	1.483041	0.167485	0.499960
C96	C	1.733041	0.417485	0.749960
C97	C	0.981591	-0.415651	-0.000046
C98	C	1.231591	-0.165651	0.249954
C99	C	1.481591	0.084349	0.499954
C100	C	1.731591	0.334349	0.749954
C101	C	0.979764	-0.519962	-0.000051
C102	C	1.229764	-0.269962	0.249949
C103	C	1.479764	-0.019962	0.499949
C104	C	1.729764	0.230038	0.749949
C105	C	1.134315	0.119139	-0.000046
C106	C	1.384315	0.369139	0.249954
C107	C	1.634315	0.619139	0.499954
C108	C	1.884315	0.869139	0.749954
C109	C	1.226614	0.120930	-0.000055
C110	C	1.476614	0.370930	0.249945
C111	C	1.726614	0.620930	0.499945
C112	C	1.976614	0.870930	0.749945
C113	C	0.976514	0.294525	-0.000050
C114	C	1.226514	0.544525	0.249950
C115	C	1.476514	0.794525	0.499950
C116	C	1.726514	1.044525	0.749950
C117	C	0.978314	0.396902	-0.000057
C118	C	1.228314	0.646902	0.249943
C119	C	1.478314	0.896902	0.499943
C120	C	1.728314	1.146902	0.749943
N121	N	0.982315	0.125913	0.216955
N122	N	1.232315	0.375913	0.466955
N123	N	1.482315	0.625913	0.716955
N124	N	1.732315	0.875913	0.966955
N125	N	0.982335	0.125913	-0.217035
N126	N	1.232335	0.375913	0.032965
N127	N	1.482335	0.625913	0.282965
N128	N	1.732335	0.875913	0.532965
C129	C	1.038758	0.063222	0.451964
C130	C	1.288758	0.313222	0.701964
C131	C	1.538758	0.563222	0.951964
C132	C	1.788758	0.813222	1.201964
C133	C	1.038760	0.063220	0.547945
C134	C	1.288760	0.313220	0.797945
C135	C	1.538760	0.563220	1.047945
C136	C	1.788760	0.813220	1.297945
C137	C	0.925886	0.188607	0.547950
C138	C	1.175886	0.438607	0.797950
C139	C	1.425886	0.688607	1.047950
C140	C	1.675886	0.938607	1.297950
C141	C	0.925880	0.188604	0.451971
C142	C	1.175880	0.438604	0.701971
C143	C	1.425880	0.688604	0.951971
C144	C	1.675880	0.938604	1.201971
C145	C	0.982321	0.125913	0.403980
C146	C	1.232321	0.375913	0.653980
C147	C	1.482321	0.625913	0.903980
C148	C	1.732321	0.875913	1.153980
C149	C	0.982329	0.125913	0.595941
C150	C	1.232329	0.375913	0.845941
C151	C	1.482329	0.625913	1.095941
C152	C	1.732329	0.875913	1.345941
C153	C	0.982331	0.125911	0.700008
C154	C	1.232331	0.375911	0.950008
C155	C	1.482331	0.625911	1.200008
C156	C	1.732331	0.875911	1.450008
C157	C	0.982318	0.125913	0.299906
C158	C	1.232318	0.375913	0.549906
C159	C	1.482318	0.625913	0.799906
C160	C	1.732318	0.875913	1.049906
H161	H	0.403668	0.124383	-0.150848
H162	H	0.653668	0.374383	0.099152
H163	H	0.903668	0.624383	0.349152
H164	H	1.153668	0.874383	0.599152
H165	H	0.403647	0.124374	0.150755
H166	H	0.653647	0.374374	0.400755
H167	H	0.903647	0.624374	0.650755
H168	H	1.153647	0.874374	0.900755
H169	H	0.879934	0.239650	0.587034
H170	H	1.129934	0.489650	0.837034
H171	H	1.379934	0.739650	1.087034
H172	H	1.629934	0.989650	1.337034
H173	H	0.560968	0.127449	0.150762
H174	H	0.810968	0.377449	0.400762
H175	H	1.060968	0.627449	0.650762
H176	H	1.310968	0.877449	0.900762
C177	C	0.573404	0.127687	-0.174605
C178	C	0.823404	0.377687	0.075395
C179	C	1.073404	0.627687	0.325395
C180	C	1.323404	0.877687	0.575395
N181	N	0.609338	0.128381	-0.243474
N182	N	0.859338	0.378381	0.006526
N183	N	1.109338	0.628381	0.256526
N184	N	1.359338	0.878381	0.506526
C185	C	1.100838	-0.005748	0.399177
C186	C	1.350838	0.244252	0.649177
C187	C	1.600838	0.494252	0.899177
C188	C	1.850838	0.744252	1.149177
N189	N	1.147595	-0.057701	0.359421
N190	N	1.397595	0.192299	0.609421
N191	N	1.647595	0.442299	0.859421
N192	N	1.897595	0.692299	1.109421
H193	H	1.084715	0.012170	0.587011
H194	H	1.334715	0.262170	0.837011
H195	H	1.584715	0.512170	1.087011
H196	H	1.834715	0.762170	1.337011
H197	H	0.879918	0.239655	0.412900
H198	H	1.129918	0.489655	0.662900
H199	H	1.379918	0.739655	0.912900
H200	H	1.629918	0.989655	1.162900
