data_functionalizedCrystal
_audit_creation_method	'MofGen! by Chris Wilmer'
_symmetry_space_group_name_H-M	'P1'
_symmetry_Int_Tables_number	1
_symmetry_cell_setting	triclinic
loop_
_symmetry_equiv_pos_as_xyz
  x,y,z
_cell_length_a	12.970454
_cell_length_b	14.560438
_cell_length_c	14.560438
_cell_angle_alpha	59.999496
_cell_angle_beta	89.999747
_cell_angle_gamma	59.996599
loop_
_atom_site_label
_atom_site_type_symbol
_atom_site_fract_x
_atom_site_fract_y
_atom_site_fract_z
Zr1	Zr	0.993140	1.005341	-0.120592
O2	O	0.828500	1.196954	-0.267246
O3	O	1.043622	0.813727	-0.075628
O4	O	1.043606	1.005339	-0.267239
O5	O	0.828517	1.005345	0.075503
O6	O	1.213273	1.005338	-0.267241
O7	O	0.828516	1.005343	-0.075635
O8	O	1.213302	0.662580	0.075517
O9	O	0.828488	1.348103	-0.267255
O10	O	1.191760	0.892541	-0.056461
O11	O	1.065140	0.892543	0.056333
O12	O	1.065121	1.118141	-0.169264
O13	O	0.938500	1.118144	-0.056470
Zr14	Zr	1.263742	1.005344	0.120452
Zr15	Zr	1.263740	1.005340	-0.120596
Zr16	Zr	0.993142	1.005345	0.120456
Zr17	Zr	0.993121	1.246407	-0.120605
Zr18	Zr	1.263761	0.764279	0.120465
O19	O	1.213260	1.196958	0.075488
O20	O	1.213258	1.196953	-0.267252
O21	O	0.828502	1.196960	0.075493
O22	O	1.428382	0.813731	0.267106
O23	O	1.428380	0.813725	-0.075633
O24	O	1.043624	0.813733	0.267112
O25	O	1.428365	1.005340	-0.075643
O26	O	1.213276	1.005347	0.267099
O27	O	1.043609	1.005348	0.267101
O28	O	1.428366	1.005343	0.075495
O29	O	1.043578	1.348102	-0.267258
O30	O	1.213304	0.662583	0.267118
O31	O	1.428395	0.662582	0.267115
O32	O	1.428393	0.662579	0.075514
O33	O	0.828489	1.348107	-0.075654
O34	O	1.043580	1.348106	-0.075657
O35	O	1.191761	0.892545	0.169124
O36	O	1.318382	0.892542	0.056330
O37	O	1.191742	1.118142	-0.056473
O38	O	1.065122	1.118145	0.056321
C39	C	0.789962	1.005344	-0.000065
C40	C	0.675085	1.005345	-0.000064
C41	C	1.128443	1.005348	0.301444
C42	C	1.128443	1.005350	0.403776
C43	C	1.128417	1.306879	-0.000086
C44	C	1.128409	1.409217	-0.000092
C45	C	1.466920	1.005341	-0.000075
C46	C	1.581797	1.005341	-0.000076
C47	C	1.128465	0.703807	-0.000054
C48	C	1.128473	0.601469	-0.000048
C49	C	1.062326	1.457286	0.058794
C50	C	1.062362	1.553410	0.058819
C51	C	1.194564	1.553390	-0.058936
C52	C	1.194535	1.457262	-0.058954
C53	C	1.128439	1.005338	-0.301584
C54	C	1.128439	1.005336	-0.403916
C55	C	1.062341	1.123108	0.392972
C56	C	1.062334	1.123102	0.489127
C57	C	1.194543	0.887568	0.606886
C58	C	1.194542	0.887576	0.510732
C59	C	1.466944	0.703805	-0.000058
C60	C	1.581829	0.601466	-0.000054
C61	C	1.128467	0.703812	0.301461
C62	C	1.128476	0.601475	0.403798
C63	C	1.466946	0.703810	0.301456
C64	C	1.581832	0.601473	0.403791
C65	C	0.789936	1.306875	-0.301596
C66	C	0.675050	1.409212	-0.403931
C67	C	0.789938	1.306880	-0.000082
C68	C	0.675053	1.409219	-0.000086
C69	C	1.128415	1.306874	-0.301601
C70	C	1.128406	1.409210	-0.403937
C71	C	1.635789	0.470126	0.083220
C72	C	1.743724	0.373954	0.083227
C73	C	1.797704	0.409125	-0.000036
C74	C	1.743735	0.540479	-0.083318
C75	C	1.635796	0.636648	-0.083329
C76	C	1.635798	0.470133	0.451853
C77	C	1.743758	0.373961	0.547997
C78	C	1.797743	0.409133	0.596082
C79	C	1.743771	0.540486	0.548012
C80	C	1.635819	0.636655	0.451865
C81	C	0.621093	1.540553	-0.452001
C82	C	0.513157	1.636724	-0.548167
C83	C	0.459177	1.601552	-0.596256
C84	C	0.513144	1.470199	-0.548181
C85	C	0.621082	1.374030	-0.452022
C86	C	0.621107	1.374008	0.083192
C87	C	0.513172	1.470153	0.083211
C88	C	0.459178	1.601509	-0.000053
C89	C	0.513133	1.636720	-0.083335
C90	C	0.621072	1.540576	-0.083349
C91	C	1.194574	0.553396	0.510751
C92	C	1.194567	0.457249	0.606904
C93	C	1.062363	0.457265	0.489135
C94	C	1.062363	0.553417	0.392985
H95	H	1.008483	1.418170	0.106724
C96	C	1.803076	0.229473	0.174854
N97	N	1.847778	0.120653	0.243868
C98	C	0.989682	1.606266	0.123614
N99	N	0.934944	1.646071	0.172426
H100	H	0.371286	1.679872	-0.674554
H101	H	1.248401	1.592519	-0.106862
C102	C	1.803097	0.229480	0.600863
N103	N	1.847786	0.120660	0.640681
C104	C	1.916446	0.303320	-0.000003
N105	N	2.005886	0.223622	0.000030
H106	H	1.248354	1.418118	-0.106905
C107	C	0.453833	1.431392	0.174825
N108	N	0.409141	1.402194	0.243826
H109	H	0.371286	1.679782	-0.000029
C110	C	0.989613	1.252663	0.275322
N111	N	0.934826	1.350248	0.186708
H112	H	1.008505	1.218993	0.480320
H113	H	1.591883	0.743597	0.412745
H114	H	1.248361	0.791681	0.693980
H115	H	1.787701	0.569098	-0.151109
H116	H	1.248370	0.791676	0.519537
C117	C	1.576426	0.431406	0.174818
N118	N	1.531715	0.402232	0.243809
H119	H	1.008539	0.418122	0.480345
H120	H	1.591874	0.743590	-0.151140
H121	H	0.469156	1.743682	-0.151125
C122	C	1.576440	0.431413	0.398972
N123	N	1.531744	0.402238	0.359143
C124	C	1.916489	0.303327	0.701853
N125	N	2.005925	0.223629	0.781522
C126	C	0.680413	1.229554	-0.399145
N127	N	0.725094	1.120734	-0.359323
C128	C	1.803167	0.579154	0.600925
N129	N	1.847903	0.608275	0.640787
C130	C	0.680457	1.579273	-0.399126
N131	N	0.725169	1.608449	-0.359312
C132	C	0.453808	1.781205	-0.601026
N133	N	0.409108	1.890026	-0.640835
C134	C	0.453737	1.431530	-0.601084
N135	N	0.408982	1.402409	-0.640927
C136	C	0.680486	1.229520	0.174801
N137	N	0.725209	1.120694	0.243811
H138	H	0.664983	1.569265	-0.151169
C139	C	1.267289	0.606266	0.522650
N140	N	1.322056	0.646089	0.531617
C141	C	1.267288	0.404360	0.724553
N142	N	1.322066	0.364523	0.813169
H143	H	1.008532	0.592567	0.305892
