data_functionalizedCrystal
_audit_creation_method	'MofGen! by Chris Wilmer'
_symmetry_space_group_name_H-M	'P1'
_symmetry_Int_Tables_number	1
_symmetry_cell_setting	triclinic
loop_
_symmetry_equiv_pos_as_xyz
  x,y,z
_cell_length_a	12.594517
_cell_length_b	12.594516
_cell_length_c	11.169409
_cell_angle_alpha	89.966970
_cell_angle_beta	89.976516
_cell_angle_gamma	90.011616
loop_
_atom_site_label
_atom_site_type_symbol
_atom_site_fract_x
_atom_site_fract_y
_atom_site_fract_z
Zn1	Zn	1.627321	-0.423662	-0.678654
Zn2	Zn	2.127321	0.076338	-0.178654
Zn3	Zn	1.627218	-0.601688	-0.477969
Zn4	Zn	2.127218	-0.101688	0.022031
Zn5	Zn	1.449318	-0.423723	-0.477976
Zn6	Zn	1.949318	0.076277	0.022024
Zn7	Zn	1.449320	-0.601598	-0.678601
Zn8	Zn	1.949320	-0.101598	-0.178601
O9	O	1.538294	-0.512668	-0.578300
O10	O	2.038294	-0.012668	-0.078300
O11	O	1.776253	-0.447289	-0.652052
O12	O	2.276253	0.052711	-0.152052
O13	O	1.603576	-0.578144	-0.310020
O14	O	2.103576	-0.078144	0.189980
O15	O	1.472973	-0.274769	-0.504621
O16	O	1.972973	0.225231	-0.004621
O17	O	1.776178	-0.578084	-0.504609
O18	O	2.276178	-0.078084	-0.004609
O19	O	1.603751	-0.274724	-0.652059
O20	O	2.103751	0.225276	-0.152059
O21	O	1.472873	-0.447394	-0.310025
O22	O	1.972873	0.052606	0.189975
O23	O	1.300373	-0.447307	-0.504570
O24	O	1.800373	0.052693	-0.004570
O25	O	1.472976	-0.577931	-0.846558
O26	O	1.972976	-0.077931	-0.346558
O27	O	1.300374	-0.577990	-0.651968
O28	O	1.800374	-0.077990	-0.151968
O29	O	1.603753	-0.447202	-0.846597
O30	O	2.103753	0.052798	-0.346597
O31	O	1.603578	-0.750622	-0.504558
O32	O	2.103578	-0.250622	-0.004558
O33	O	1.472877	-0.750556	-0.651961
O34	O	1.972877	-0.250556	-0.151961
C35	C	1.261753	-0.512646	-0.578264
C36	C	1.761753	-0.012646	-0.078264
C37	C	1.143448	-0.512663	-0.578278
C38	C	1.643448	-0.012663	-0.078278
C39	C	1.074163	-0.441487	-0.498261
C40	C	1.574163	0.058513	0.001739
C41	C	1.003358	-0.538578	-0.468741
C42	C	1.503358	-0.038578	0.031259
C43	C	1.003454	-0.415619	-0.607818
C44	C	1.503454	0.084381	-0.107818
C45	C	1.074201	-0.609805	-0.548701
C46	C	1.574201	-0.109805	-0.048701
C47	C	1.074303	-0.486781	-0.687829
C48	C	1.574303	0.013219	-0.187829
C49	C	1.003530	-0.583939	-0.658351
C50	C	1.503530	-0.083939	-0.158351
C51	C	1.538245	-0.789209	-0.578279
C52	C	2.038245	-0.289209	-0.078279
C53	C	1.538321	-0.907514	-0.578310
C54	C	2.038321	-0.407514	-0.078310
C55	C	1.609492	-0.976764	-0.498223
C56	C	2.109492	-0.476764	0.001777
C57	C	1.635506	-1.047452	-0.607768
C58	C	2.135506	-0.547452	-0.107768
C59	C	1.512440	-1.047625	-0.468835
C60	C	2.012440	-0.547625	0.031165
C61	C	1.564385	-0.976643	-0.687912
C62	C	2.064385	-0.476643	-0.187912
C63	C	1.441274	-0.976810	-0.548906
C64	C	1.941274	-0.476810	-0.048906
C65	C	1.467251	-1.047466	-0.658526
C66	C	1.967251	-0.547466	-0.158526
C67	C	1.815915	-0.512690	-0.578336
C68	C	2.315915	-0.012690	-0.078336
C69	C	1.934221	-0.512699	-0.578351
C70	C	2.434221	-0.012699	-0.078351
C71	C	1.538376	-0.512549	-0.891342
C72	C	2.038376	-0.012549	-0.391342
C73	C	1.538411	-0.512499	-1.024742
C74	C	2.038411	-0.012499	-0.524742
C75	C	1.538373	-0.235047	-0.578347
C76	C	2.038373	0.264953	-0.078347
C77	C	1.538406	-0.116741	-0.578367
C78	C	2.038406	0.383259	-0.078367
C79	C	1.538274	-0.512708	-0.266475
C80	C	2.038274	-0.012708	0.233525
C81	C	1.538446	-0.512459	-0.133076
C82	C	2.038446	-0.012459	0.366924
H83	H	1.105489	-0.464837	-0.780414
H84	H	1.605489	0.035163	-0.280414
H85	H	1.586229	-0.945598	-0.780597
H86	H	2.086229	-0.445598	-0.280597
F87	F	1.333980	-0.936222	-0.516319
F88	F	1.833980	-0.436222	-0.016319
H89	H	0.972322	-0.333546	-0.632731
H90	H	1.472322	0.166454	-0.132731
H91	H	1.490515	-1.078802	-0.376230
H92	H	1.990515	-0.578802	0.123770
H93	H	1.105177	-0.381354	-0.430510
H94	H	1.605177	0.118646	0.069490
F95	F	0.962627	-0.567222	-0.347691
F96	F	1.462627	-0.067222	0.152309
H97	H	1.669689	-0.945719	-0.430557
H98	H	2.169689	-0.445719	0.069443
H99	H	1.105148	-0.691913	-0.523644
H100	H	1.605148	-0.191913	-0.023644
F101	F	1.742829	-1.087995	-0.640335
F102	F	2.242829	-0.587995	-0.140335
H103	H	1.407101	-1.078314	-0.726356
H104	H	1.907101	-0.578314	-0.226356
H105	H	0.972711	-0.644215	-0.726050
H106	H	1.472711	-0.144215	-0.226050
