data_functionalizedCrystal
_audit_creation_method	'MofGen! by Chris Wilmer'
_symmetry_space_group_name_H-M	'P1'
_symmetry_Int_Tables_number	1
_symmetry_cell_setting	triclinic
loop_
_symmetry_equiv_pos_as_xyz
  x,y,z
_cell_length_a	11.169417
_cell_length_b	11.169416
_cell_length_c	18.215399
_cell_angle_alpha	90.021626
_cell_angle_beta	90.018200
_cell_angle_gamma	90.009278
loop_
_atom_site_label
_atom_site_type_symbol
_atom_site_fract_x
_atom_site_fract_y
_atom_site_fract_z
Zn1	Zn	-1.834921	0.477853	-0.416116
Zn2	Zn	-1.334921	0.977853	0.083884
Zn3	Zn	-1.834823	0.678562	-0.293063
Zn4	Zn	-1.334823	1.178562	0.206937
Zn5	Zn	-1.634219	0.477887	-0.293067
Zn6	Zn	-1.134219	0.977887	0.206933
Zn7	Zn	-1.634214	0.678489	-0.416092
Zn8	Zn	-1.134214	1.178489	0.083908
O9	O	-1.734544	0.578198	-0.354585
O10	O	-1.234544	1.078198	0.145415
O11	O	-2.002858	0.504494	-0.399802
O12	O	-1.502858	1.004494	0.100198
O13	O	-1.808173	0.651986	-0.190080
O14	O	-1.308173	1.151986	0.309920
O15	O	-1.660886	0.309933	-0.309401
O16	O	-1.160886	0.809933	0.190599
O17	O	-2.002785	0.651953	-0.309395
O18	O	-1.502785	1.151953	0.190605
O19	O	-1.808341	0.309908	-0.399805
O20	O	-1.308341	0.809908	0.100195
O21	O	-1.660790	0.504552	-0.190082
O22	O	-1.160790	1.004552	0.309918
O23	O	-1.466269	0.504482	-0.309378
O24	O	-0.966269	1.004482	0.190622
O25	O	-1.660878	0.651830	-0.519079
O26	O	-1.160878	1.151830	-0.019079
O27	O	-1.466265	0.651863	-0.399764
O28	O	-0.966265	1.151863	0.100236
O29	O	-1.808336	0.504424	-0.519097
O30	O	-1.308336	1.004424	-0.019097
O31	O	-1.808168	0.846502	-0.309372
O32	O	-1.308168	1.346502	0.190628
O33	O	-1.660782	0.846449	-0.399760
O34	O	-1.160782	1.346449	0.100240
C35	C	-1.422720	0.578169	-0.354569
C36	C	-0.922720	1.078169	0.145431
C37	C	-1.289320	0.578186	-0.354580
C38	C	-0.789320	1.078186	0.145420
C39	C	-1.734497	0.890023	-0.354579
C40	C	-1.234497	1.390023	0.145421
C41	C	-1.734586	1.023423	-0.354601
C42	C	-1.234586	1.523423	0.145399
C43	C	-1.047587	0.578218	-0.354595
C44	C	-0.547587	1.078218	0.145405
C45	C	-1.180987	0.578200	-0.354584
C46	C	-0.680987	1.078200	0.145416
C47	C	-1.734617	0.578115	-0.546538
C48	C	-1.234617	1.078115	-0.046538
C49	C	-1.734649	0.578080	-0.628337
C50	C	-1.234649	1.078080	-0.128337
C51	C	-1.734625	0.265156	-0.354606
C52	C	-1.234625	0.765156	0.145394
C53	C	-1.734659	0.131756	-0.354616
C54	C	-1.234659	0.631756	0.145384
C55	C	-1.811458	0.501254	-0.816541
C56	C	-1.311458	1.001254	-0.316541
C57	C	-1.811472	0.501219	-0.893400
C58	C	-1.311472	1.001219	-0.393400
C59	C	-1.657924	0.654721	-0.893370
C60	C	-1.157924	1.154721	-0.393370
C61	C	-1.657905	0.654749	-0.816513
C62	C	-1.157905	1.154749	-0.316513
C63	C	-1.734678	0.578017	-0.778100
C64	C	-1.234678	1.078017	-0.278100
C65	C	-1.734712	0.577954	-0.931816
C66	C	-1.234712	1.077954	-0.431816
C67	C	-1.734727	0.577917	-1.015150
C68	C	-1.234727	1.077917	-0.515150
C69	C	-1.734662	0.578052	-0.694761
C70	C	-1.234662	1.078052	-0.194761
C71	C	-1.734541	0.578194	-0.163378
C72	C	-1.234541	1.078194	0.336622
C73	C	-1.734742	0.577891	-0.081580
C74	C	-1.234742	1.077891	0.418420
H75	H	-1.873968	0.438770	-0.785268
H76	H	-1.373968	0.938770	-0.285268
H77	H	-1.595421	0.717196	-0.924655
H78	H	-1.095421	1.217196	-0.424655
H79	H	-1.595373	0.717258	-0.785213
H80	H	-1.095373	1.217258	-0.285213
H81	H	-1.873992	0.438708	-0.924695
H82	H	-1.373992	0.938708	-0.424695
