data_functionalizedCrystal
_audit_creation_method	'MofGen! by Chris Wilmer'
_symmetry_space_group_name_H-M	'P1'
_symmetry_Int_Tables_number	1
_symmetry_cell_setting	triclinic
loop_
_symmetry_equiv_pos_as_xyz
  x,y,z
_cell_length_a	23.532361
_cell_length_b	23.532407
_cell_length_c	16.053802
_cell_angle_alpha	92.544672
_cell_angle_beta	87.439726
_cell_angle_gamma	82.839173
loop_
_atom_site_label
_atom_site_type_symbol
_atom_site_fract_x
_atom_site_fract_y
_atom_site_fract_z
O1	O	0.757690	0.066599	-0.069353
O2	O	0.591824	0.076630	-0.069375
O3	O	0.679758	-0.011318	-0.069348
O4	O	0.669756	0.154546	-0.069380
O5	O	0.674918	-0.006497	0.069509
O6	O	0.586984	0.081451	0.069483
O7	O	0.752850	0.071420	0.069504
Zn8	Zn	0.669149	0.077201	0.091540
Zn9	Zn	0.675526	0.070849	-0.091411
O10	O	0.664916	0.159367	0.069478
C11	C	0.568187	0.078789	0.000052
C12	C	0.504969	0.078033	0.000044
C13	C	0.234364	0.072102	-0.075641
C14	C	0.293763	0.072817	-0.075644
O15	O	0.326733	0.070932	-0.140015
N16	N	0.320831	0.075806	0.000048
C17	C	0.288496	0.078075	0.075747
O18	O	0.316973	0.080682	0.140128
C19	C	0.229098	0.077356	0.075748
C20	C	0.202033	0.074372	0.000051
C21	C	0.207299	0.069118	-0.151332
C22	C	0.147903	0.068404	-0.151329
C23	C	0.115572	0.070675	-0.075636
C24	C	0.142637	0.073658	0.000054
C25	C	0.196764	0.079620	0.151446
C26	C	0.137363	0.078900	0.151440
C27	C	0.110298	0.075917	0.075744
C28	C	0.050910	0.075215	0.075749
N29	N	0.023843	0.072226	0.000058
C30	C	0.056174	0.069956	-0.075635
C31	C	0.413236	0.079583	0.075738
C32	C	0.472633	0.080306	0.075738
C33	C	0.477896	0.075048	-0.075653
C34	C	0.418498	0.074329	-0.075652
C35	C	0.386169	0.076594	0.000047
C36	C	-0.068562	0.068457	-0.075624
C37	C	-0.127964	0.067746	-0.075615
C38	C	-0.133222	0.073002	0.075775
C39	C	-0.073826	0.073716	0.075766
C40	C	-0.041497	0.071442	0.000060
O41	O	0.017904	0.077096	0.140087
O42	O	0.027690	0.067341	-0.140005
C43	C	0.677083	-0.030123	0.000083
C44	C	0.676317	-0.093340	0.000089
C45	C	0.723553	-0.492452	0.000049
C46	C	0.722842	-0.551852	0.000043
O47	O	0.766630	-0.588605	0.000018
N48	N	0.670565	-0.574470	0.000037
C49	C	0.618996	-0.537684	0.000029
O50	O	0.574464	-0.562376	0.000022
C51	C	0.619708	-0.478285	0.000029
C52	C	0.671988	-0.455671	0.000044
C53	C	0.775829	-0.469837	0.000063
C54	C	0.776540	-0.410441	0.000071
C55	C	0.724975	-0.373659	0.000065
C56	C	0.672699	-0.396274	0.000052
C57	C	0.568139	-0.441501	0.000015
C58	C	0.568856	-0.382098	0.000015
C59	C	0.621136	-0.359484	0.000029
C60	C	0.621845	-0.300097	0.000054
N61	N	0.674122	-0.277479	0.000060
C62	C	0.725687	-0.314260	0.000066
C63	C	0.617504	-0.662426	0.000026
C64	C	0.616791	-0.721824	0.000032
C65	C	0.720638	-0.735988	0.000044
C66	C	0.721350	-0.676589	0.000045
C67	C	0.669782	-0.639809	0.000032
C68	C	0.727176	-0.189523	0.000083
C69	C	0.727883	-0.130121	0.000095
C70	C	0.624036	-0.115962	0.000078
C71	C	0.623330	-0.175359	0.000071
C72	C	0.674904	-0.212139	0.000071
O73	O	0.578080	-0.263309	0.000076
O74	O	0.770212	-0.289560	0.000061
C75	C	0.776487	0.069261	0.000076
C76	C	0.839705	0.070016	0.000078
C77	C	0.667591	0.178173	0.000045
C78	C	0.668357	0.241389	0.000033
N79	N	0.664801	0.081535	0.216399
N80	N	0.679878	0.066510	-0.216270
C81	C	0.702230	0.044127	0.260104
C82	C	0.699194	0.047165	0.347510
C83	C	0.658731	0.087614	0.391209
C84	C	0.621297	0.125024	0.347498
C85	C	0.624331	0.121983	0.260094
C86	C	0.645478	0.100879	0.652615
C87	C	0.642448	0.103918	0.740025
C88	C	0.720345	0.026058	0.740031
C89	C	0.723378	0.023023	0.652626
C90	C	0.685942	0.060431	0.608922
N91	N	0.655627	0.090721	0.480552
N92	N	0.689043	0.057321	0.519581
H93	H	0.386916	0.081436	0.137384
O94	O	0.566944	-0.199756	0.000058
H95	H	0.531207	-0.164198	0.000051
H96	H	0.575508	-0.632482	0.000023
H97	H	0.770457	-0.111712	0.000109
O98	O	0.782801	-0.229189	0.000096
H99	H	0.819266	-0.203475	0.000116
O100	O	0.605106	0.141232	0.605488
H101	H	0.614006	0.132322	0.537368
H102	H	0.504231	0.073199	-0.137286
O103	O	0.767027	-0.020605	0.605507
H104	H	0.795955	0.001844	0.565684
H105	H	-0.159557	0.074853	0.137402
O106	O	0.777740	-0.652203	0.000044
H107	H	0.800531	-0.665045	0.056638
H108	H	0.218790	0.082048	0.213086
H109	H	-0.149997	0.065318	-0.137259
O110	O	0.831452	-0.509502	0.000083
H111	H	0.858465	-0.503452	-0.056501
O112	O	0.501820	0.083543	0.157380
H113	H	0.469353	0.085002	0.210010
H114	H	0.593851	0.152444	0.224510
H115	H	0.111042	0.080750	0.213084
H116	H	0.233617	0.067268	-0.212973
O117	O	-0.044629	0.076936	0.157407
H118	H	-0.077092	0.078392	0.210040
O119	O	0.598798	0.147547	0.787152
H120	H	0.621230	0.176493	0.826949
O121	O	0.568420	-0.076286	0.000071
H122	H	0.577703	-0.031185	0.000069
O123	O	0.577656	0.168653	0.394631
H124	H	0.585243	0.212427	0.377828
H125	H	0.762625	-0.765947	0.000046
O126	O	-0.033698	0.066010	-0.157276
H127	H	-0.062506	0.063822	-0.209901
H128	H	0.735182	0.011191	0.224530
H129	H	0.729672	0.016703	0.383095
H130	H	0.819113	-0.392034	0.000079
H131	H	0.750823	-0.004399	0.775623
H132	H	0.574219	-0.740230	0.000034
H133	H	0.525567	-0.459902	-0.000002
O134	O	0.513233	-0.342428	0.000013
H135	H	0.490169	-0.352393	-0.056584
O136	O	0.118729	0.065159	-0.232982
H137	H	0.126099	0.102847	-0.269308
O138	O	0.389310	0.071093	-0.157294
H139	H	0.421777	0.069628	-0.209923
