data_functionalizedCrystal
_audit_creation_method	'MofGen! by Chris Wilmer'
_symmetry_space_group_name_H-M	'P1'
_symmetry_Int_Tables_number	1
_symmetry_cell_setting	triclinic
loop_
_symmetry_equiv_pos_as_xyz
  x,y,z
_cell_length_a	15.995350
_cell_length_b	16.109301
_cell_length_c	14.586319
_cell_angle_alpha	90.000787
_cell_angle_beta	89.998440
_cell_angle_gamma	96.523072
loop_
_atom_site_label
_atom_site_type_symbol
_atom_site_fract_x
_atom_site_fract_y
_atom_site_fract_z
O1	O	0.107624	-1.103160	-0.076178
O2	O	0.121018	-0.861101	-0.076192
O3	O	-0.007569	-0.988747	-0.076184
O4	O	0.236210	-0.975514	-0.076186
O5	O	-0.007570	-0.988739	0.076297
O6	O	0.121016	-0.861093	0.076289
O7	O	0.107622	-1.103151	0.076303
Cu8	Cu	0.114319	-0.982121	0.090219
Cu9	Cu	0.114321	-0.982131	-0.090107
O10	O	0.236208	-0.975505	0.076295
C11	C	0.120474	-0.830122	0.000047
C12	C	0.118848	-0.737826	0.000041
C13	C	-0.038764	-0.988196	0.000055
C14	C	-0.131714	-0.986556	0.000050
N15	N	0.114317	-0.982120	0.217050
C16	C	-0.469460	-0.980665	0.000053
C17	C	-0.422001	-0.889758	-0.000295
C18	C	-0.325311	-0.891399	0.000049
C19	C	-0.301900	-0.983587	0.000051
C20	C	-0.342991	-1.028421	0.087126
C21	C	-0.439626	-1.026137	0.087198
C22	C	-0.439983	-1.028025	-0.086201
C23	C	-0.343037	-1.028003	-0.087351
C24	C	-0.207203	-0.985243	0.000053
C25	C	-0.564157	-0.979012	0.000057
C26	C	0.267404	-0.976056	0.000054
C27	C	0.360354	-0.977697	0.000053
C28	C	0.108166	-1.134130	0.000062
C29	C	0.109792	-1.226426	0.000062
C30	C	0.191366	-0.515573	0.000051
C31	C	0.189831	-0.428853	0.000057
C32	C	0.037268	-0.448686	0.000055
C33	C	0.038804	-0.535405	0.000055
C34	C	0.115855	-0.568846	0.000049
C35	C	0.112785	-0.395406	0.000054
C36	C	0.111120	-0.301380	0.000061
C37	C	0.117520	-0.662879	0.000044
N38	N	0.114317	-0.982139	-0.216939
C39	C	0.057398	-1.038660	0.452061
C40	C	0.057396	-1.038662	0.548042
C41	C	0.171238	-0.925593	0.548044
C42	C	0.171236	-0.925587	0.452064
C43	C	0.114316	-0.982125	0.404075
C44	C	0.114317	-0.982134	0.596036
C45	C	0.114315	-0.982136	0.700103
C46	C	0.114317	-0.982122	0.300001
H47	H	-0.440522	-0.853427	-0.062738
O48	O	0.274467	-0.551647	0.000063
H49	H	0.326716	-0.500030	0.000078
H50	H	-0.460513	-0.998307	-0.152198
H51	H	-0.471762	-1.095050	-0.086785
H52	H	-0.471892	-1.092879	0.091150
O53	O	0.232638	-0.864623	0.599802
H54	H	0.223086	-0.874131	0.674605
O55	O	-0.045832	-0.412611	0.000058
H56	H	-0.098082	-0.464227	0.000067
O57	O	-0.463868	-0.982814	0.173407
H58	H	-0.406595	-0.963685	0.214650
O59	O	0.271276	-0.371394	0.000065
H60	H	0.274228	-0.331401	-0.062076
H61	H	0.011047	-1.084697	0.587109
O62	O	-0.042644	-0.592873	0.000060
H63	H	-0.079516	-0.580997	-0.062092
O64	O	-0.004013	-1.099625	0.400310
H65	H	-0.044712	-1.064614	0.356593
H66	H	0.217586	-0.879546	0.412992
O67	O	-0.306865	-0.984652	-0.172687
H68	H	-0.259780	-0.931694	-0.152945
O69	O	-0.322723	-1.117059	-0.094314
H70	H	-0.288434	-1.125231	-0.159261
O71	O	-0.287645	-0.844700	-0.082620
H72	H	-0.314669	-0.875010	-0.146000
O73	O	-0.447928	-0.841838	0.081960
H74	H	-0.516789	-0.838301	0.079522
O75	O	-0.288379	-0.844412	0.082875
H76	H	-0.339592	-0.820434	0.122844
H77	H	-0.314602	-0.997274	0.151923
O78	O	-0.324301	-1.118132	0.091436
H79	H	-0.285431	-1.131748	0.031419
