data_functionalizedCrystal
_audit_creation_method	'MofGen! by Chris Wilmer'
_symmetry_space_group_name_H-M	'P1'
_symmetry_Int_Tables_number	1
_symmetry_cell_setting	triclinic
loop_
_symmetry_equiv_pos_as_xyz
  x,y,z
_cell_length_a	16.992694
_cell_length_b	11.804365
_cell_length_c	16.992695
_cell_angle_alpha	77.349196
_cell_angle_beta	90.668223
_cell_angle_gamma	102.662526
loop_
_atom_site_label
_atom_site_type_symbol
_atom_site_fract_x
_atom_site_fract_y
_atom_site_fract_z
O1	O	1.065735	0.098876	0.152042
O2	O	0.837340	0.098911	0.150205
O3	O	0.950621	0.098884	0.036925
O4	O	0.952455	0.098903	0.265322
O5	O	0.920796	-0.099164	0.066715
O6	O	0.807516	-0.099138	0.179995
O7	O	1.035911	-0.099173	0.181832
Cu8	Cu	0.918990	-0.117239	0.183634
Cu9	Cu	0.954261	0.116977	0.148403
O10	O	0.922630	-0.099146	0.295112
C11	C	0.793069	-0.000109	0.162744
C12	C	0.705586	-0.000096	0.155713
N13	N	0.894188	-0.281973	0.208413
C14	C	0.659596	-0.000091	0.223530
C15	C	0.577393	-0.000108	0.216924
C16	C	0.541182	-0.000121	0.142498
C17	C	0.587178	-0.000129	0.074676
C18	C	0.669379	-0.000121	0.081285
C19	C	0.295863	-0.000155	0.115109
C20	C	0.213657	-0.000160	0.108505
C21	C	0.203877	-0.000141	0.250754
C22	C	0.286080	-0.000125	0.257354
C23	C	0.332068	-0.000140	0.189533
N24	N	0.457158	-0.000135	0.135743
N25	N	0.416089	-0.000135	0.196291
C26	C	1.038626	-0.655956	0.064099
C27	C	1.057388	-0.531299	0.045351
C28	C	1.016589	-0.468961	0.086114
C29	C	0.957026	-0.531293	0.145630
C30	C	0.938268	-0.655963	0.164386
C31	C	0.916231	-0.468968	0.186401
C32	C	0.856668	-0.531300	0.245917
C33	C	0.837912	-0.655957	0.264668
C34	C	0.878710	-0.718295	0.223904
C35	C	0.934989	-0.344299	0.167645
C36	C	0.834631	-0.344305	0.267932
C37	C	0.815869	-0.468962	0.286681
C38	C	1.080183	-0.000150	0.169293
C39	C	1.167667	-0.000155	0.176322
C40	C	0.933353	-0.000139	0.022460
C41	C	0.926324	-0.000138	-0.065025
N42	N	0.979069	0.281712	0.123618
C43	C	0.994141	-0.000150	-0.111014
C44	C	0.987533	-0.000137	-0.193217
C45	C	0.913108	-0.000122	-0.229428
C46	C	0.845287	-0.000107	-0.183433
C47	C	0.851897	-0.000111	-0.101233
C48	C	0.885717	-0.000101	-0.474745
C49	C	0.879112	-0.000101	-0.556950
C50	C	1.021359	-0.000130	-0.566729
C51	C	1.027961	-0.000141	-0.484526
C52	C	0.960141	-0.000119	-0.438540
N53	N	0.906352	-0.000113	-0.313451
N54	N	0.966899	-0.000119	-0.354519
C55	C	0.939899	-0.000119	0.309577
C56	C	0.946928	-0.000113	0.397061
H57	H	0.689072	-0.000079	0.284136
H58	H	0.863433	-0.819801	0.239167
Cl59	Cl	1.106613	-0.000153	-0.624545
Cl60	Cl	0.766639	-0.000091	-0.043418
Cl61	Cl	0.541655	-0.000153	-0.018887
Cl62	Cl	0.519581	-0.000095	0.302183
Cl63	Cl	1.009864	-0.265954	0.092828
Cl64	Cl	1.040173	-0.312247	0.062541
Cl65	Cl	0.353665	-0.000172	0.029847
H66	H	1.088566	-0.000153	-0.455050
H67	H	0.706823	-0.000124	0.026060
H68	H	0.784690	-0.000087	-0.212923
H69	H	0.315559	-0.000101	0.317957
H70	H	1.105883	-0.480553	-0.003106
H71	H	1.054744	-0.000170	-0.081537
Cl72	Cl	1.089917	-0.734324	0.012866
Cl73	Cl	0.168133	-0.000203	0.014938
H74	H	0.830493	-0.000084	-0.437312
Cl75	Cl	0.785541	-0.000089	-0.602470
Cl76	Cl	0.763043	-0.734319	0.339497
H77	H	0.801410	-0.293551	0.301127
Cl78	Cl	1.072792	-0.000156	-0.251028
Cl79	Cl	0.740993	-0.547335	0.361500
H80	H	0.166425	-0.000132	0.305970
