data_functionalizedCrystal
_audit_creation_method	'MofGen! by Chris Wilmer'
_symmetry_space_group_name_H-M	'P1'
_symmetry_Int_Tables_number	1
_symmetry_cell_setting	triclinic
loop_
_symmetry_equiv_pos_as_xyz
  x,y,z
_cell_length_a	29.839131
_cell_length_b	18.215407
_cell_length_c	29.839125
_cell_angle_alpha	90.014050
_cell_angle_beta	89.988394
_cell_angle_gamma	89.958132
loop_
_atom_site_label
_atom_site_type_symbol
_atom_site_fract_x
_atom_site_fract_y
_atom_site_fract_z
Zn1	Zn	-0.178938	-1.124945	-0.254010
Zn2	Zn	-0.254042	-1.124831	-0.178880
Zn3	Zn	-0.178927	-1.001890	-0.178892
Zn4	Zn	-0.254042	-1.001808	-0.253981
O5	O	-0.216487	-1.063369	-0.216441
O6	O	-0.188905	-1.227914	-0.244051
O7	O	-0.244073	-1.108509	-0.116015
O8	O	-0.116062	-1.018296	-0.188874
O9	O	-0.244084	-1.227830	-0.188853
O10	O	-0.116069	-1.108704	-0.244063
O11	O	-0.188887	-1.018185	-0.116024
O12	O	-0.188887	-0.898895	-0.188846
O13	O	-0.244084	-1.018156	-0.316852
O14	O	-0.244074	-0.898835	-0.244013
O15	O	-0.188905	-1.108625	-0.316873
O16	O	-0.316909	-1.108429	-0.188825
O17	O	-0.316909	-1.018045	-0.244002
C18	C	-0.216480	-0.872162	-0.216428
C19	C	-0.216487	-0.790363	-0.216433
C20	C	-0.333210	-1.063236	-0.216419
C21	C	-0.383144	-1.063246	-0.216424
C22	C	-0.216496	-1.063394	-0.333619
C23	C	-0.216499	-1.063405	-0.383554
C24	C	-0.692775	-1.110517	-0.187753
C25	C	-0.880448	-1.110608	-0.187770
O26	O	-0.904702	-1.150694	-0.163375
N27	N	-0.903929	-1.063521	-0.216475
C28	C	-0.880490	-1.016412	-0.245179
O29	O	-0.904768	-0.976369	-0.269598
C30	C	-0.692818	-1.016325	-0.245164
C31	C	-0.669339	-1.063410	-0.216454
C32	C	-0.669296	-1.157598	-0.159045
C33	C	-0.622381	-1.157572	-0.159040
C34	C	-0.598944	-1.110465	-0.187741
C35	C	-0.622423	-1.063384	-0.216448
C36	C	-0.669379	-0.969220	-0.273870
C37	C	-0.622458	-0.969204	-0.273865
C38	C	-0.598979	-1.016288	-0.245155
C39	C	-0.552071	-1.016250	-0.245144
N40	N	-0.528590	-1.063337	-0.216439
C41	C	-0.552026	-1.110445	-0.187738
C42	C	-0.979020	-1.016460	-0.245185
C43	C	-1.025938	-1.016480	-0.245188
C44	C	-1.025893	-1.110677	-0.187779
C45	C	-0.978975	-1.110653	-0.187774
C46	C	-0.955539	-1.063546	-0.216480
C47	C	-0.453501	-1.110386	-0.187727
C48	C	-0.406581	-1.110354	-0.187723
C49	C	-0.406630	-1.016159	-0.245133
C50	C	-0.453545	-1.016189	-0.245136
C51	C	-0.476980	-1.063308	-0.216432
O52	O	-0.527788	-0.976191	-0.269529
O53	O	-0.527740	-1.150493	-0.163329
C54	C	-0.739691	-1.110543	-0.187758
C55	C	-0.763170	-1.063462	-0.216466
C56	C	-0.739733	-1.016354	-0.245167
C57	C	-0.810087	-1.063482	-0.216469
C58	C	-0.833524	-1.110590	-0.187768
C59	C	-0.810042	-1.157677	-0.159063
C60	C	-0.763127	-1.157650	-0.159057
C61	C	-0.763214	-0.969268	-0.273872
C62	C	-0.810130	-0.969297	-0.273875
C63	C	-0.833566	-1.016404	-0.245173
C64	C	-0.099309	-1.063522	-0.216473
C65	C	-0.049375	-1.063587	-0.216487
C66	C	-0.216495	-1.255322	-0.216454
C67	C	-0.216499	-1.337120	-0.216460
C68	C	-0.245268	-0.602157	-0.245123
C69	C	-0.245269	-0.525299	-0.245128
C70	C	-0.187715	-0.525332	-0.187769
C71	C	-0.187712	-0.602189	-0.187766
C72	C	-0.216491	-0.640600	-0.216442
C73	C	-0.216495	-0.486884	-0.216451
C74	C	-0.216497	-0.403550	-0.216457
C75	C	-0.216489	-0.723939	-0.216437
C76	C	-0.245128	-1.016349	-0.740130
C77	C	-0.245180	-1.016323	-0.552457
O78	O	-0.269605	-0.976242	-0.528183
N79	N	-0.216458	-1.063421	-0.528999
C80	C	-0.187719	-1.110526	-0.552462
O81	O	-0.163287	-1.150581	-0.528204
C82	C	-0.187665	-1.110548	-0.740135
C83	C	-0.216392	-1.063452	-0.763590
C84	C	-0.273852	-0.969256	-0.763585
C85	C	-0.273841	-0.969266	-0.810501
C86	C	-0.245105	-1.016369	-0.833961
C87	C	-0.216381	-1.063462	-0.810505
C88	C	-0.158924	-1.157649	-0.763597
C89	C	-0.158913	-1.157649	-0.810518
C90	C	-0.187640	-1.110553	-0.833973
C91	C	-0.187633	-1.110575	-0.880881
N92	N	-0.216355	-1.063476	-0.904339
C93	C	-0.245091	-1.016373	-0.880879
C94	C	-0.187750	-1.110512	-0.453932
C95	C	-0.187764	-1.110508	-0.407014
C96	C	-0.245224	-1.016303	-0.407012
C97	C	-0.245212	-1.016312	-0.453930
C98	C	-0.216472	-1.063414	-0.477389
C99	C	-0.245065	-1.016398	-0.979405
C100	C	-0.245052	-1.016414	-1.026324
C101	C	-0.187590	-1.110616	-1.026322
C102	C	-0.187605	-1.110603	-0.979407
C103	C	-0.216343	-1.063488	-0.955949
O104	O	-0.163217	-1.150629	-0.905184
O105	O	-0.269512	-0.976314	-0.905145
C106	C	-0.245140	-1.016339	-0.693214
C107	C	-0.216415	-1.063432	-0.669759
C108	C	-0.187679	-1.110535	-0.693219
C109	C	-0.216429	-1.063428	-0.622841
C110	C	-0.245165	-1.016325	-0.599381
C111	C	-0.273887	-0.969226	-0.622839
C112	C	-0.273875	-0.969236	-0.669754
C113	C	-0.158957	-1.157634	-0.669761
C114	C	-0.158972	-1.157621	-0.622846
C115	C	-0.187707	-1.110518	-0.599386
C116	C	-0.216447	-1.063386	-0.099718
C117	C	-0.216316	-1.063517	-0.049784
H118	H	-0.387466	-1.148695	-0.164342
Br119	Br	-0.284324	-0.473129	-0.284056
Br120	Br	-0.148660	-0.473198	-0.148853
H121	H	-1.045051	-0.978132	-0.268563
H122	H	-0.268623	-0.977951	-0.387902
H123	H	-0.164275	-0.633490	-0.164411
Br124	Br	-0.284044	-0.952498	-1.058154
H125	H	-0.164376	-1.148866	-0.387920
H126	H	-0.268701	-0.633429	-0.268474
H127	H	-0.164345	-1.148872	-0.473028
Br128	Br	-0.312830	-0.905346	-0.842326
Br129	Br	-0.284068	-0.952456	-0.947576
Br130	Br	-0.312855	-0.905320	-0.731756
Br131	Br	-0.284200	-0.952393	-0.485758
H132	H	-0.297286	-0.930876	-0.603730
Br133	Br	-0.119935	-1.221569	-0.731777
H134	H	-0.603267	-1.195915	-0.135663
H135	H	-0.135506	-1.196003	-0.829616
H136	H	-0.164216	-1.148958	-0.960308
Br137	Br	-0.947222	-0.952523	-0.284147
Br138	Br	-0.485297	-1.174334	-0.148771
Br139	Br	-0.148595	-1.174541	-1.058170
Br140	Br	-0.119984	-1.221548	-0.591019
H141	H	-0.688373	-1.195963	-0.135673
Br142	Br	-0.947115	-1.174555	-0.148809
H143	H	-1.044983	-1.149034	-0.164410
H144	H	-0.688487	-0.930875	-0.297247
H145	H	-0.297268	-0.930885	-0.688848
H146	H	-0.603379	-0.930845	-0.297242
H147	H	-0.472663	-0.977851	-0.268516
H148	H	-0.829133	-1.196031	-0.135692
H149	H	-0.135557	-1.195991	-0.688858
H150	H	-0.387541	-0.977803	-0.268500
H151	H	-0.744014	-1.195991	-0.135679
H152	H	-0.744136	-0.930908	-0.297245
Br153	Br	-0.841988	-0.905388	-0.312841
