data_functionalizedCrystal
_audit_creation_method	'MofGen! by Chris Wilmer'
_symmetry_space_group_name_H-M	'P1'
_symmetry_Int_Tables_number	1
_symmetry_cell_setting	triclinic
loop_
_symmetry_equiv_pos_as_xyz
  x,y,z
_cell_length_a	8.597226
_cell_length_b	8.559649
_cell_length_c	7.088667
_cell_angle_alpha	82.323931
_cell_angle_beta	104.510557
_cell_angle_gamma	102.373960
loop_
_atom_site_label
_atom_site_type_symbol
_atom_site_fract_x
_atom_site_fract_y
_atom_site_fract_z
O1	O	-2.093549	0.285254	-0.503930
O2	O	-1.628358	0.296331	-0.427286
O3	O	-1.901937	0.059455	-0.472359
O4	O	-1.819970	0.522130	-0.458858
O5	O	-1.876488	0.029295	-0.150176
O6	O	-1.602909	0.266171	-0.105103
O7	O	-2.068100	0.255094	-0.181748
Cu8	Cu	-1.833181	0.257879	-0.114008
Cu9	Cu	-1.863277	0.293546	-0.495026
O10	O	-1.794521	0.491970	-0.136675
C11	C	-1.556631	0.278378	-0.256473
C12	C	-1.380822	0.269801	-0.227507
C13	C	-1.895425	-0.014963	-0.312294
C14	C	-1.913915	-0.191771	-0.315351
C15	C	-1.139828	0.273042	-0.352555
C16	C	-1.315639	0.281607	-0.381507
C17	C	-1.801034	0.566388	-0.296743
C18	C	-1.782544	0.743198	-0.293699
N19	N	-1.884447	0.318621	-0.763014
N20	N	-1.812025	0.232791	0.153978
H21	H	-1.394339	0.298278	-0.535511
H22	H	-2.040540	-0.271370	-0.336199
H23	H	-1.736980	0.143877	-0.751966
H24	H	-1.959508	0.407533	-0.857082
H25	H	-1.655926	-0.177214	-0.272831
Br26	Br	-1.249660	0.242050	0.029172
