data_functionalizedCrystal
_audit_creation_method	'MofGen! by Chris Wilmer'
_symmetry_space_group_name_H-M	'P1'
_symmetry_Int_Tables_number	1
_symmetry_cell_setting	triclinic
loop_
_symmetry_equiv_pos_as_xyz
  x,y,z
_cell_length_a	12.759401
_cell_length_b	19.121063
_cell_length_c	12.759401
_cell_angle_alpha	87.573089
_cell_angle_beta	90.003070
_cell_angle_gamma	92.469017
loop_
_atom_site_label
_atom_site_type_symbol
_atom_site_fract_x
_atom_site_fract_y
_atom_site_fract_z
Zn1	Zn	1.588145	-0.279744	0.611782
Zn2	Zn	1.580552	-0.397165	0.443574
Zn3	Zn	1.412495	-0.279731	0.436121
Zn4	Zn	1.404902	-0.397161	0.619215
O5	O	1.496524	-0.338450	0.527673
O6	O	1.734159	-0.295328	0.589477
O7	O	1.558260	-0.381583	0.295564
O8	O	1.442151	-0.181447	0.453192
O9	O	1.728580	-0.381596	0.465896
O10	O	1.571200	-0.181457	0.582250
O11	O	1.434789	-0.295304	0.290088
O12	O	1.264467	-0.295301	0.460400
O13	O	1.429209	-0.381590	0.765251
O14	O	1.258888	-0.381577	0.594919
O15	O	1.563837	-0.295324	0.759789
O16	O	1.550896	-0.495450	0.473104
O17	O	1.421846	-0.495448	0.602146
C18	C	1.223557	-0.338437	0.527658
C19	C	1.106780	-0.338449	0.527678
C20	C	1.049036	-0.383444	0.597615
C21	C	0.939311	-0.383453	0.597627
C22	C	0.945084	-0.293469	0.457755
C23	C	1.054807	-0.293457	0.457749
C24	C	1.101008	-0.428436	0.667544
C25	C	1.043264	-0.473436	0.737486
C26	C	0.933539	-0.473445	0.737498
C27	C	0.881559	-0.428454	0.667568
C28	C	1.484752	-0.520933	0.539263
C29	C	1.479812	-0.599000	0.544257
C30	C	1.544733	-0.635655	0.479473
C31	C	1.540093	-0.709007	0.484175
C32	C	1.470527	-0.745704	0.553657
C33	C	1.405603	-0.709044	0.618448
C34	C	1.410249	-0.635693	0.613750
C35	C	1.453140	-0.967177	0.571205
C36	C	1.448497	-1.040533	0.575896
C37	C	1.582989	-1.040491	0.441624
C38	C	1.587624	-0.967138	0.436928
C39	C	1.522705	-0.930485	0.501723
C40	C	1.465780	-0.820682	0.558463
C41	C	1.527457	-0.855509	0.496921
C42	C	1.770556	-0.338464	0.527689
C43	C	1.887332	-0.338470	0.527696
C44	C	1.496523	-0.338458	0.801707
C45	C	1.496523	-0.338462	0.918484
C46	C	1.508370	-0.155255	0.516061
C47	C	1.513418	-0.077187	0.511112
C48	C	1.560809	-0.383381	1.085926
C49	C	1.560806	-0.383382	0.976202
C50	C	1.432229	-0.293541	0.970496
C51	C	1.432227	-0.293544	1.080218
C52	C	1.625105	-0.428299	1.143638
C53	C	1.689397	-0.473221	1.091633
C54	C	1.689395	-0.473223	0.981909
C55	C	1.625100	-0.428303	0.924190
C56	C	1.496517	-0.338460	1.254706
C57	C	1.496523	-0.338462	1.137930
H58	H	1.190351	-0.428435	0.667540
H59	H	0.792214	-0.428459	0.667592
H60	H	0.886526	-0.510081	0.794455
H61	H	1.391860	-1.070410	0.632495
H62	H	1.348965	-0.738929	0.675027
H63	H	1.085593	-0.510061	0.794427
H64	H	0.902753	-0.256840	0.400820
H65	H	1.101824	-0.256812	0.400807
H66	H	1.601377	-0.605781	0.422889
H67	H	1.357385	-0.605850	0.666506
H68	H	1.584103	-0.825628	0.440353
H69	H	1.625117	-0.428302	1.232981
H70	H	1.592958	-0.738847	0.431420
H71	H	1.741739	-0.509796	1.138636
H72	H	1.644271	-0.937261	0.380350
H73	H	1.635844	-1.070341	0.388873
H74	H	1.400278	-0.937340	0.623962
H75	H	1.409137	-0.850568	0.615034
H76	H	1.741738	-0.509804	0.939571
H77	H	1.625090	-0.428316	0.834846
H78	H	1.379885	-0.256969	0.923492
H79	H	1.379883	-0.256965	1.122560
