data_functionalizedCrystal
_audit_creation_method	'MofGen! by Chris Wilmer'
_symmetry_space_group_name_H-M	'P1'
_symmetry_Int_Tables_number	1
_symmetry_cell_setting	triclinic
loop_
_symmetry_equiv_pos_as_xyz
  x,y,z
_cell_length_a	6.817900
_cell_length_b	15.300992
_cell_length_c	13.561464
_cell_angle_alpha	109.502194
_cell_angle_beta	104.692446
_cell_angle_gamma	104.175078
loop_
_atom_site_label
_atom_site_type_symbol
_atom_site_fract_x
_atom_site_fract_y
_atom_site_fract_z
V1	V	-4.105284	-0.211109	-0.346812
O2	O	-4.087668	-0.078626	-0.339865
O3	O	-4.059760	-0.333217	-0.344771
O4	O	-4.089535	-0.246813	-0.497917
O5	O	-4.057687	-0.165628	-0.185659
V6	V	-4.584309	-0.190660	-0.327496
O7	O	-4.376410	-0.255965	-0.389182
O8	O	-4.763380	-0.145804	-0.285126
O9	O	-4.406627	-0.068552	-0.329537
O10	O	-4.719322	-0.323143	-0.334443
O11	O	-4.749303	-0.236140	-0.488649
O12	O	-4.376851	-0.154956	-0.176391
C13	C	-3.904404	-0.361767	-0.339385
C14	C	-3.948686	-0.461843	-0.338724
C15	C	-3.906853	-0.470635	-0.236615
C16	C	-3.948482	-0.564669	-0.235997
C17	C	-4.031930	-0.649908	-0.337490
C18	C	-4.073772	-0.641113	-0.439607
C19	C	-4.032157	-0.547081	-0.440224
C20	C	-4.160501	-0.837102	-0.438314
C21	C	-4.202115	-0.931140	-0.437697
C22	C	-4.076825	-0.854690	-0.234087
C23	C	-4.035211	-0.760658	-0.234704
C24	C	-4.077052	-0.751869	-0.336822
C25	C	-3.942384	-0.251548	-0.534737
C26	C	-4.010810	-0.281548	-0.658269
C27	C	-4.019958	-0.019550	-0.941850
C28	C	-3.955585	0.008584	-0.825793
C29	C	-3.969387	-0.063947	-0.783906
C30	C	-4.047571	-0.164616	-0.858088
C31	C	-4.111966	-0.192753	-0.974157
C32	C	-4.061395	-0.237150	-0.816213
C33	C	-4.139579	-0.337819	-0.890395
C34	C	-4.203966	-0.365951	-1.006452
C35	C	-4.190164	-0.293420	-1.048339
C36	C	-3.996999	-0.209013	-0.700144
C37	C	-4.089007	-0.382216	-0.732451
C38	C	-4.153380	-0.410349	-0.848508
C39	C	-4.225324	-0.040006	-0.334920
C40	C	-4.160281	0.060067	-0.335588
C41	C	-4.187343	-0.150222	-0.139565
C42	C	-4.098156	-0.120217	-0.016032
H43	H	-3.967251	-0.691255	-0.152060
C44	C	-4.293050	-1.023787	-0.547811
C45	C	-4.493695	-1.085647	-0.558613
C46	C	-4.577517	-1.171009	-0.660026
H47	H	-4.312237	-1.005235	-0.608818
H48	H	-4.194621	-1.058293	-0.548259
H49	H	-4.592102	-1.051147	-0.558175
H50	H	-4.474567	-1.104225	-0.497630
H51	H	-4.479088	-1.205515	-0.660474
H52	H	-4.596691	-1.152448	-0.721025
H53	H	-4.713653	-1.212996	-0.667364
H54	H	-4.217046	-0.492316	-0.908923
C55	C	-4.288702	-0.475296	-1.086810
C56	C	-4.286955	-0.532793	-1.025290
C57	C	-4.364968	-0.633524	-1.099274
H58	H	-4.433125	-0.493783	-1.136376
H59	H	-4.198348	-0.486138	-1.129151
H60	H	-4.377309	-0.521957	-0.982968
H61	H	-4.142556	-0.514337	-0.975728
H62	H	-4.274614	-0.644366	-1.141615
H63	H	-4.509387	-0.652001	-1.148836
H64	H	-4.363775	-0.672547	-1.057544
C65	C	-4.077615	-0.537735	-0.551200
C66	C	-4.159548	-0.632507	-0.639950
C67	C	-4.201435	-0.623938	-0.742200
H68	H	-4.181407	-0.506520	-0.559384
H69	H	-3.946632	-0.498860	-0.552179
H70	H	-4.290513	-0.671366	-0.638973
H71	H	-4.055788	-0.663738	-0.631804
H72	H	-4.070452	-0.585063	-0.743179
H73	H	-4.305222	-0.592720	-0.750372
H74	H	-4.257011	-0.688237	-0.802428
H75	H	-3.933345	-0.127047	-0.639756
C76	C	-4.164689	-0.733752	-0.549726
C77	C	-4.365346	-0.795621	-0.560549
C78	C	-4.449143	-0.880974	-0.661970
H79	H	-4.183856	-0.715191	-0.610726
H80	H	-4.066257	-0.768257	-0.550172
H81	H	-4.463756	-0.761123	-0.560114
H82	H	-4.346238	-0.814209	-0.499574
H83	H	-4.350711	-0.915478	-0.662416
H84	H	-4.468296	-0.862403	-0.722962
H85	H	-4.585287	-0.922966	-0.669323
H86	H	-4.008746	0.039493	-0.975967
H87	H	-3.838887	-0.401235	-0.153967
C88	C	-4.031624	-0.864078	-0.123135
C89	C	-4.156800	-0.823747	-0.067106
C90	C	-4.115193	-0.832365	0.035112
H91	H	-4.068376	-0.932241	-0.137130
H92	H	-3.881725	-0.829100	-0.077795
H93	H	-4.306666	-0.858726	-0.112436
H94	H	-4.120070	-0.755582	-0.053082
H95	H	-3.965294	-0.797387	0.080452
H96	H	-4.151945	-0.900530	0.021106
H97	H	-4.200102	-0.804994	0.073145
H98	H	-3.914419	-0.571820	-0.152850
C99	C	-3.870777	0.117819	-0.745080
C100	C	-3.817415	0.126934	-0.634475
C101	C	-3.739323	0.227550	-0.560091
H102	H	-3.744999	0.152682	-0.753717
H103	H	-3.979809	0.145022	-0.761002
H104	H	-3.708392	0.099743	-0.618558
H105	H	-3.943159	0.092093	-0.625802
H106	H	-3.848354	0.254753	-0.576013
H107	H	-3.613551	0.262404	-0.568739
H108	H	-3.703126	0.233747	-0.485039
H109	H	-3.916967	-0.041034	-0.689406
H110	H	-4.194608	-0.829954	-0.521470
H111	H	-4.242570	-0.316321	-1.142841
H112	H	-4.100250	-0.441276	-0.698348
