data_functionalizedCrystal
_audit_creation_method	'MofGen! by Chris Wilmer'
_symmetry_space_group_name_H-M	'P1'
_symmetry_Int_Tables_number	1
_symmetry_cell_setting	triclinic
loop_
_symmetry_equiv_pos_as_xyz
  x,y,z
_cell_length_a	19.188930
_cell_length_b	9.065218
_cell_length_c	8.140239
_cell_angle_alpha	90.001686
_cell_angle_beta	90.016597
_cell_angle_gamma	84.080333
loop_
_atom_site_label
_atom_site_type_symbol
_atom_site_fract_x
_atom_site_fract_y
_atom_site_fract_z
O1	O	-0.927574	-0.184174	-0.137136
O2	O	-0.427574	0.315826	0.362864
O3	O	-0.724455	-0.208967	-0.137023
O4	O	-0.224455	0.291033	0.362977
O5	O	-0.830213	0.018217	-0.137078
O6	O	-0.330213	0.518217	0.362922
O7	O	-0.821816	-0.411359	-0.137080
O8	O	-0.321816	0.088641	0.362920
O9	O	-0.830207	0.018220	0.136149
O10	O	-0.330207	0.518220	0.636149
O11	O	-0.724449	-0.208965	0.136205
O12	O	-0.224449	0.291035	0.636205
O13	O	-0.927568	-0.184172	0.136091
O14	O	-0.427568	0.315828	0.636091
Zn15	Zn	-0.826008	-0.196568	0.179529
Zn16	Zn	-0.326008	0.303432	0.679529
Zn17	Zn	-0.826016	-0.196571	-0.180460
Zn18	Zn	-0.326016	0.303429	0.319540
O19	O	-0.821810	-0.411356	0.136147
O20	O	-0.321810	0.088644	0.636147
C21	C	-0.698435	-0.208163	-0.000395
C22	C	-0.198435	0.291837	0.499605
C23	C	-0.620912	-0.205753	-0.000351
C24	C	-0.120912	0.294247	0.499649
C25	C	-0.953588	-0.184976	-0.000540
C26	C	-0.453588	0.315024	0.499460
C27	C	-1.031112	-0.187386	-0.000594
C28	C	-0.531112	0.312614	0.499406
C29	C	-0.577024	-0.339058	-0.000378
C30	C	-0.077024	0.160942	0.499622
C31	C	-0.504182	-0.336793	-0.000396
C32	C	-0.004182	0.163207	0.499604
C33	C	-0.475232	-0.201217	-0.000421
C34	C	0.024768	0.298783	0.499579
C35	C	-0.519130	-0.067895	-0.000385
C36	C	-0.019130	0.432105	0.499615
C37	C	-0.591970	-0.070163	-0.000350
C38	C	-0.091970	0.429837	0.499650
N39	N	-0.366449	-0.097586	-0.093477
N40	N	0.133551	0.402414	0.406523
N41	N	-0.297254	-0.095441	-0.093514
N42	N	0.202746	0.404559	0.406486
C43	C	-0.255771	-0.194375	-0.000521
C44	C	0.244229	0.305625	0.499479
N45	N	-0.286095	-0.295558	0.092489
N46	N	0.213905	0.204442	0.592489
N47	N	-0.355297	-0.297708	0.092518
N48	N	0.144703	0.202292	0.592518
C49	C	-0.396251	-0.198742	-0.000457
C50	C	0.103749	0.301258	0.499543
C51	C	-0.132899	-0.325234	-0.000565
C52	C	0.367101	0.174766	0.499435
C53	C	-0.060056	-0.322964	-0.000572
C54	C	0.439944	0.177036	0.499428
C55	C	-0.075006	-0.054061	-0.000578
C56	C	0.424994	0.445939	0.499422
C57	C	-0.147847	-0.056335	-0.000554
C58	C	0.352153	0.443665	0.499446
C59	C	-0.176789	-0.191925	-0.000555
C60	C	0.323211	0.308075	0.499445
C61	C	-0.829403	0.073177	-0.000467
C62	C	-0.329403	0.573177	0.499533
C63	C	-0.826990	0.236936	-0.000473
C64	C	-0.326990	0.736936	0.499527
C65	C	-0.822620	-0.466316	-0.000468
C66	C	-0.322620	0.033684	0.499532
C67	C	-0.825033	-0.630075	-0.000472
C68	C	-0.325033	-0.130075	0.499528
N69	N	-0.826008	-0.196565	0.425211
N70	N	-0.326008	0.303435	0.925211
N71	N	-0.826021	-0.196563	-0.426143
N72	N	-0.326021	0.303437	0.073857
H73	H	-0.600583	-0.449466	-0.000382
H74	H	-0.100583	0.050534	0.499618
Br75	Br	-0.035725	0.129939	-0.000584
Br76	Br	0.464275	0.629939	0.499416
Br77	Br	-0.207414	0.124589	-0.000522
Br78	Br	0.292586	0.624589	0.499478
Br79	Br	-0.172182	-0.509243	-0.000554
Br80	Br	0.327818	-0.009243	0.499446
Br81	Br	-0.000491	-0.503894	-0.000594
Br82	Br	0.499509	-0.003894	0.499406
H83	H	-0.468442	-0.445349	-0.000413
H84	H	0.031558	0.054651	0.499587
H85	H	-0.627705	0.038393	-0.000330
H86	H	-0.127705	0.538393	0.499670
Br87	Br	-0.479843	0.116104	-0.000401
Br88	Br	0.020157	0.616104	0.499599
