data_functionalizedCrystal
_audit_creation_method	'MofGen! by Chris Wilmer'
_symmetry_space_group_name_H-M	'P1'
_symmetry_Int_Tables_number	1
_symmetry_cell_setting	triclinic
loop_
_symmetry_equiv_pos_as_xyz
  x,y,z
_cell_length_a	19.288864
_cell_length_b	19.288857
_cell_length_c	14.048226
_cell_angle_alpha	89.991412
_cell_angle_beta	89.979690
_cell_angle_gamma	83.134677
loop_
_atom_site_label
_atom_site_type_symbol
_atom_site_fract_x
_atom_site_fract_y
_atom_site_fract_z
O1	O	0.921348	0.086649	-0.079470
O2	O	1.421348	0.586649	0.420530
O3	O	0.719087	0.098338	-0.079406
O4	O	1.219087	0.598338	0.420594
O5	O	0.826064	-0.008637	-0.079429
O6	O	1.326064	0.491363	0.420571
O7	O	0.814370	0.193625	-0.079448
O8	O	1.314370	0.693625	0.420552
O9	O	0.826052	-0.008643	0.078893
O10	O	1.326052	0.491357	0.578893
O11	O	0.719074	0.098332	0.078916
O12	O	1.219074	0.598332	0.578916
O13	O	0.921335	0.086643	0.078851
O14	O	1.421335	0.586643	0.578851
Zn15	Zn	0.820202	0.092487	0.104020
Zn16	Zn	1.320202	0.592487	0.604020
Zn17	Zn	0.820219	0.092495	-0.104575
Zn18	Zn	1.320219	0.592495	0.395425
O19	O	0.814357	0.193618	0.078874
O20	O	1.314357	0.693618	0.578874
C21	C	0.693204	0.097959	-0.000237
C22	C	1.193204	0.597959	0.499763
C23	C	0.616100	0.096830	-0.000212
C24	C	1.116100	0.596830	0.499788
C25	C	0.571402	0.159598	-0.000233
C26	C	1.071402	0.659598	0.499767
C27	C	0.498955	0.158537	-0.000243
C28	C	0.998955	0.658537	0.499757
C29	C	0.471209	0.094705	-0.000252
C30	C	0.971209	0.594705	0.499748
C31	C	0.515917	0.031929	-0.000225
C32	C	1.015917	0.531929	0.499775
C33	C	0.588363	0.032991	-0.000205
C34	C	1.088363	0.532991	0.499795
C35	C	0.362953	0.044528	-0.055746
C36	C	0.862953	0.544528	0.444254
C37	C	0.290509	0.043468	-0.055772
C38	C	0.790509	0.543468	0.444228
C39	C	0.247764	0.091425	-0.000309
C40	C	0.747764	0.591425	0.499691
C41	C	0.277471	0.140454	0.055167
C42	C	0.777471	0.640454	0.555167
C43	C	0.349916	0.141517	0.055187
C44	C	0.849916	0.641517	0.555187
C45	C	0.392656	0.093546	-0.000273
C46	C	0.892656	0.593546	0.499727
C47	C	0.124510	0.153048	-0.000340
C48	C	0.624510	0.653048	0.499660
C49	C	0.052062	0.151984	-0.000344
C50	C	0.552062	0.651984	0.499656
C51	C	0.069026	0.025374	-0.000336
C52	C	0.569026	0.525374	0.499664
C53	C	0.141472	0.026439	-0.000322
C54	C	0.641472	0.526439	0.499678
C55	C	0.169210	0.090278	-0.000328
C56	C	0.669210	0.590278	0.499672
C57	C	0.825683	-0.034516	-0.000267
C58	C	1.325683	0.465484	0.499733
C59	C	0.824556	-0.111620	-0.000264
C60	C	1.324556	0.388380	0.499736
C61	C	0.824037	-0.147828	-0.086565
C62	C	1.324037	0.352172	0.413435
C63	C	0.822968	-0.220274	-0.086571
C64	C	1.322968	0.279726	0.413429
C65	C	0.822432	-0.256511	-0.000272
C66	C	1.322432	0.243489	0.499728
C67	C	0.822947	-0.220295	0.086040
C68	C	1.322947	0.279705	0.586040
C69	C	0.824009	-0.147849	0.086044
C70	C	1.324009	0.352151	0.586044
C71	C	0.861429	-0.376746	0.065825
C72	C	1.361429	0.123254	0.565825
C73	C	0.860371	-0.449190	0.065818
C74	C	1.360371	0.050810	0.565818
C75	C	0.819155	-0.479957	-0.000282
C76	C	1.319155	0.020043	0.499718
C77	C	0.779004	-0.438272	-0.066390
C78	C	1.279004	0.061728	0.433610
C79	C	0.780066	-0.365826	-0.066385
C80	C	1.280066	0.134174	0.433615
C81	C	0.821281	-0.335066	-0.000267
C82	C	1.321281	0.164934	0.499733
C83	C	0.817476	-0.594719	-0.086596
C84	C	1.317476	-0.094719	0.413404
C85	C	0.816403	-0.667165	-0.086599
C86	C	1.316403	-0.167165	0.413401
C87	C	0.816389	-0.667186	0.086015
C88	C	1.316389	-0.167186	0.586015
C89	C	0.817455	-0.594740	0.086015
C90	C	1.317455	-0.094740	0.586015
C91	C	0.818002	-0.558511	-0.000293
C92	C	1.318002	-0.058511	0.499707
C93	C	0.947218	0.087022	-0.000320
C94	C	1.447218	0.587022	0.499680
C95	C	1.024321	0.088151	-0.000351
C96	C	1.524321	0.588151	0.499649
C97	C	0.814739	0.219498	-0.000290
C98	C	1.314739	0.719498	0.499710
C99	C	0.815866	0.296602	-0.000299
C100	C	1.315866	0.796602	0.499701
N101	N	0.820196	0.092481	0.246381
N102	N	1.320196	0.592481	0.746381
N103	N	0.820231	0.092495	-0.246936
N104	N	1.320231	0.592495	0.253064
C105	C	0.867580	0.045131	0.296189
C106	C	1.367580	0.545131	0.796189
C107	C	0.867585	0.045131	0.395847
C108	C	1.367585	0.545131	0.895847
C109	C	0.820208	0.092484	0.445694
C110	C	1.320208	0.592484	0.945694
C111	C	0.772819	0.139835	0.395879
C112	C	1.272819	0.639835	0.895879
C113	C	0.772811	0.139832	0.296224
C114	C	1.272811	0.639832	0.796224
C115	C	0.772839	0.139840	0.603594
C116	C	1.272839	0.639840	1.103594
C117	C	0.772847	0.139845	0.703256
C118	C	1.272847	0.639845	1.203256
C119	C	0.867613	0.045139	0.703217
C120	C	1.367613	0.545139	1.203217
C121	C	0.867605	0.045136	0.603561
C122	C	1.367605	0.545136	1.103561
C123	C	0.820216	0.092488	0.553753
C124	C	1.320216	0.592488	1.053753
H125	H	0.462555	0.209652	-0.000257
H126	H	0.962555	0.709652	0.499743
H127	H	0.745442	-0.463320	-0.120215
H128	H	1.245442	0.036680	0.379785
O129	O	0.918702	-0.005938	0.449556
O130	O	1.418702	0.494062	0.949556
H131	H	0.889585	-0.039634	0.494979
H132	H	1.389585	0.460366	0.994979
H133	H	0.822509	-0.249804	0.156305
H134	H	1.322509	0.250196	0.656305
O135	O	0.824609	-0.108748	-0.179649
O136	O	1.324609	0.391252	0.320351
H137	H	0.824059	-0.146100	-0.239662
H138	H	1.324059	0.353900	0.260338
H139	H	0.734247	0.178397	0.563043
H140	H	1.234247	0.678397	1.063043
O141	O	0.822410	-0.259340	-0.179656
O142	O	1.322410	0.240660	0.320344
H143	H	0.822971	-0.221977	-0.239669
H144	H	1.322971	0.278023	0.260331
H145	H	0.906198	0.006584	0.743776
H146	H	1.406198	0.506584	1.243776
O147	O	0.736761	-0.320863	-0.137675
O148	O	1.236761	0.179137	0.362325
H149	H	0.699043	-0.282743	-0.099337
H150	H	1.199043	0.217257	0.400663
H151	H	0.177867	-0.024674	-0.000310
H152	H	0.677867	0.475326	0.499690
O153	O	0.903671	-0.494150	0.137116
O154	O	1.403671	0.005850	0.637116
H155	H	0.932498	-0.460585	0.183094
H156	H	1.432498	0.039415	0.683094
H157	H	0.906186	0.006581	0.562975
H158	H	1.406186	0.506581	1.062975
H159	H	0.824429	-0.118370	0.156323
H160	H	1.324429	0.381630	0.656323
O161	O	0.485998	-0.036922	-0.000235
O162	O	0.985998	0.463078	0.499765
H163	H	0.428113	-0.027116	-0.000262
H164	H	0.928113	0.472884	0.499738
H165	H	0.906163	0.006574	0.255609
H166	H	1.406163	0.506574	0.755609
H167	H	0.015669	0.203100	-0.000356
H168	H	0.515669	0.703100	0.499644
O169	O	0.721735	0.190902	0.757027
O170	O	1.221735	0.690902	1.257027
H171	H	0.688770	0.223817	0.705653
H172	H	1.188770	0.723817	1.205653
O173	O	0.721722	0.190916	0.449637
O174	O	1.221722	0.690916	0.949637
H175	H	0.688064	0.161769	0.495081
H176	H	1.188064	0.661769	0.995081
H177	H	0.397751	0.005474	-0.100916
H178	H	0.897751	0.505474	0.399084
H179	H	0.624757	-0.018124	-0.000189
H180	H	1.124757	0.481876	0.499811
H181	H	0.817917	-0.565219	-0.156873
H182	H	1.317917	-0.065219	0.343127
O183	O	0.815816	-0.706220	-0.179685
O184	O	1.315816	-0.206220	0.320315
H185	H	0.816371	-0.668853	-0.239695
H186	H	1.316371	-0.168853	0.260305
H187	H	0.815948	-0.696690	0.156281
H188	H	1.315948	-0.196690	0.656281
H189	H	0.817884	-0.565261	0.156291
H190	H	1.317884	-0.065261	0.656291
H191	H	0.374101	0.181436	0.100361
H192	H	0.874101	0.681436	0.600361
O193	O	0.905890	-0.343563	0.137118
O194	O	1.405890	0.156437	0.637118
H195	H	0.933639	-0.384719	0.183073
H196	H	1.433639	0.115281	0.683073
O197	O	0.721708	0.190904	0.242494
O198	O	1.221708	0.690904	0.742494
H199	H	0.688769	0.223837	0.293897
H200	H	1.188769	0.723837	0.793897
O201	O	0.039106	-0.043474	-0.000334
O202	O	0.539106	0.456526	0.499666
H203	H	0.082363	-0.086944	-0.000311
H204	H	0.582363	0.413056	0.499689
H205	H	0.593981	0.211581	-0.000240
H206	H	1.093981	0.711581	0.499760
H207	H	0.266327	0.003549	-0.100948
H208	H	0.766327	0.503549	0.399052
O209	O	0.231381	0.192183	0.115001
O210	O	0.731381	0.692183	0.615001
H211	H	0.176015	0.183203	0.105681
H212	H	0.676015	0.683203	0.605681
H213	H	0.147095	0.205029	-0.000331
H214	H	0.647095	0.705029	0.499669
