data_functionalizedCrystal
_audit_creation_method	'MofGen! by Chris Wilmer'
_symmetry_space_group_name_H-M	'P1'
_symmetry_Int_Tables_number	1
_symmetry_cell_setting	triclinic
loop_
_symmetry_equiv_pos_as_xyz
  x,y,z
_cell_length_a	15.297475
_cell_length_b	21.295417
_cell_length_c	15.296720
_cell_angle_alpha	99.639335
_cell_angle_beta	91.617114
_cell_angle_gamma	80.331503
loop_
_atom_site_label
_atom_site_type_symbol
_atom_site_fract_x
_atom_site_fract_y
_atom_site_fract_z
Zn1	Zn	1.253322	-0.489899	-0.726527
Zn2	Zn	1.753322	0.010101	-0.226527
Zn3	Zn	1.278570	-0.580539	-0.580029
Zn4	Zn	1.778570	-0.080539	-0.080029
Zn5	Zn	1.132206	-0.454537	-0.554773
Zn6	Zn	1.632206	0.045463	-0.054773
Zn7	Zn	1.106797	-0.574351	-0.701159
Zn8	Zn	1.606797	-0.074351	-0.201159
O9	O	1.192724	-0.524831	-0.640622
O10	O	1.692724	-0.024831	-0.140622
O11	O	1.379247	-0.519311	-0.728280
O12	O	1.879247	-0.019311	-0.228280
O13	O	1.280354	-0.551615	-0.454106
O14	O	1.780354	-0.051615	0.045894
O15	O	1.148339	-0.371152	-0.577603
O16	O	1.648339	0.128848	-0.077603
O17	O	1.397796	-0.585904	-0.620649
O18	O	1.897796	-0.085904	-0.120649
O19	O	1.237323	-0.397133	-0.703790
O20	O	1.737323	0.102867	-0.203790
O21	O	1.172821	-0.459042	-0.435550
O22	O	1.672821	0.040958	0.064450
O23	O	1.006260	-0.453042	-0.553004
O24	O	1.506260	0.046958	-0.053004
O25	O	1.105034	-0.575358	-0.827097
O26	O	1.605034	-0.075358	-0.327097
O27	O	0.987593	-0.541069	-0.660554
O28	O	1.487593	-0.041069	-0.160554
O29	O	1.212686	-0.513312	-0.845734
O30	O	1.712686	-0.013312	-0.345734
O31	O	1.255717	-0.667793	-0.596050
O32	O	1.755717	-0.167793	-0.096050
O33	O	1.129516	-0.663248	-0.685044
O34	O	1.629516	-0.163248	-0.185044
C35	C	0.965144	-0.492547	-0.601286
C36	C	1.465144	0.007453	-0.101286
C37	C	0.867781	-0.478753	-0.584479
C38	C	1.367781	0.021247	-0.084479
C39	C	1.192620	-0.688363	-0.640558
C40	C	1.692620	-0.188363	-0.140558
C41	C	1.192651	-0.758337	-0.640574
C42	C	1.692651	-0.258337	-0.140574
C43	C	0.554611	-0.623425	-0.760748
C44	C	1.054611	-0.123425	-0.260748
C45	C	0.646089	-0.636390	-0.776537
C46	C	1.146089	-0.136390	-0.276537
C47	C	0.701516	-0.596982	-0.728524
C48	C	1.201516	-0.096982	-0.228524
C49	C	0.665457	-0.544607	-0.664719
C50	C	1.165457	-0.044607	-0.164719
C51	C	0.573971	-0.531644	-0.648924
C52	C	1.073971	-0.031644	-0.148924
C53	C	0.720876	-0.505200	-0.616700
C54	C	1.220876	-0.005200	-0.116700
C55	C	0.684816	-0.452825	-0.552895
C56	C	1.184816	0.047175	-0.052895
C57	C	0.593339	-0.439865	-0.537103
C58	C	1.093339	0.060135	-0.037103
C59	C	0.537912	-0.479273	-0.585116
C60	C	1.037912	0.020727	-0.085116
C61	C	0.812362	-0.518163	-0.632495
C62	C	1.312362	-0.018163	-0.132495
C63	C	0.831721	-0.426382	-0.520671
C64	C	1.331721	0.073618	-0.020671
C65	C	0.740243	-0.413417	-0.504882
C66	C	1.240243	0.086583	-0.004882
C67	C	1.238945	-0.804673	-0.706314
C68	C	1.738945	-0.304673	-0.206314
C69	C	1.238973	-0.870423	-0.706341
C70	C	1.738973	-0.370423	-0.206341
C71	C	1.192717	-0.889832	-0.640614
C72	C	1.692717	-0.389832	-0.140614
C73	C	1.146412	-0.843485	-0.574868
C74	C	1.646412	-0.343485	-0.074868
C75	C	1.146379	-0.777737	-0.574848
C76	C	1.646379	-0.277737	-0.074848
N77	N	1.199377	-0.984508	-0.562817
N78	N	1.699377	-0.484508	-0.062817
N79	N	1.199413	-1.046967	-0.562840
N80	N	1.699413	-0.546967	-0.062840
C81	C	1.192812	-1.087925	-0.640671
C82	C	1.692812	-0.587925	-0.140671
N83	N	1.186191	-1.064068	-0.718484
N84	N	1.686191	-0.564068	-0.218484
N85	N	1.186159	-1.001604	-0.718462
N86	N	1.686159	-0.501604	-0.218462
C87	C	1.192747	-0.961123	-0.640629
C88	C	1.692747	-0.461123	-0.140629
C89	C	1.239139	-1.205555	-0.706446
C90	C	1.739139	-0.705555	-0.206446
C91	C	1.239159	-1.271305	-0.706473
C92	C	1.739159	-0.771305	-0.206473
C93	C	1.146605	-1.244366	-0.574993
C94	C	1.646605	-0.744366	-0.074993
C95	C	1.146578	-1.178618	-0.574973
C96	C	1.646578	-0.678618	-0.074973
C97	C	1.192850	-1.159217	-0.640699
C98	C	1.692850	-0.659217	-0.140699
C99	C	1.421192	-0.557242	-0.680112
C100	C	1.921192	-0.057242	-0.180112
C101	C	1.518552	-0.571054	-0.696940
C102	C	2.018552	-0.071054	-0.196940
C103	C	1.153209	-0.547589	-0.869086
C104	C	1.653209	-0.047589	-0.369086
C105	C	1.136371	-0.557287	-0.966444
C106	C	1.636371	-0.057287	-0.466444
C107	C	1.192849	-0.360667	-0.640709
C108	C	1.692849	0.139333	-0.140709
C109	C	1.192902	-0.290710	-0.640746
C110	C	1.692902	0.209290	-0.140746
C111	C	1.313105	-0.455413	-1.279696
C112	C	1.813105	0.044587	-0.779696
C113	C	1.328932	-0.446303	-1.188224
C114	C	1.828932	0.053697	-0.688224
C115	C	1.280793	-0.474048	-1.132775
C116	C	1.780793	0.025952	-0.632775
C117	C	1.216825	-0.510905	-1.168805
C118	C	1.716825	-0.010905	-0.668805
C119	C	1.201002	-0.520020	-1.260287
C120	C	1.701002	-0.020020	-0.760287
C121	C	1.168689	-0.538655	-1.113366
C122	C	1.668689	-0.038655	-0.613366
C123	C	1.104721	-0.575512	-1.149396
C124	C	1.604721	-0.075512	-0.649396
C125	C	1.088901	-0.584625	-1.240869
C126	C	1.588901	-0.084625	-0.740869
C127	C	1.137040	-0.556880	-1.296318
C128	C	1.637040	-0.056880	-0.796318
C129	C	1.184512	-0.529540	-1.021884
C130	C	1.684512	-0.029540	-0.521884
C131	C	1.072409	-0.594147	-1.002475
C132	C	1.572409	-0.094147	-0.502475
C133	C	1.056583	-0.603257	-1.093947
C134	C	1.556583	-0.103257	-0.593947
C135	C	1.232135	-0.502124	-0.413055
C136	C	1.732135	-0.002124	0.086945
C137	C	1.249143	-0.492273	-0.315727
C138	C	1.749143	0.007727	0.184273
H139	H	0.776001	-0.607540	-0.741383
H140	H	1.276001	-0.107540	-0.241383
H141	H	1.276620	-0.788880	-0.759834
H142	H	1.776620	-0.288880	-0.259834
H143	H	0.675443	-0.679034	-0.828485
H144	H	1.175443	-0.179034	-0.328485
H145	H	0.876851	-0.394293	-0.481574
H146	H	1.376851	0.105707	0.018426
O147	O	0.994333	-0.638974	-1.128892
O148	O	1.494333	-0.138974	-0.628892
C149	C	0.910911	-0.610617	-1.091444
C150	C	1.410911	-0.110617	-0.591444
H151	H	0.910876	-0.557204	-1.065557
H152	H	1.410876	-0.057204	-0.565557
H153	H	0.857229	-0.615891	-1.144123
H154	H	1.357229	-0.115891	-0.644123
H155	H	0.897169	-0.635825	-1.034373
H156	H	1.397169	-0.135825	-0.534373
H157	H	1.352298	-0.432831	-1.324851
H158	H	1.852298	0.067169	-0.824851
H159	H	1.276662	-0.908157	-0.759884
H160	H	1.776662	-0.408157	-0.259884
O161	O	1.246737	-0.493833	-0.986862
O162	O	1.746737	0.006167	-0.486862
C163	C	1.312427	-0.532410	-0.943683
C164	C	1.812427	-0.032410	-0.443683
H165	H	1.313039	-0.585496	-0.972154
H166	H	1.813039	-0.085496	-0.472154
H167	H	1.380032	-0.519102	-0.954309
H168	H	1.880032	-0.019102	-0.454309
H169	H	1.297331	-0.523827	-0.869673
H170	H	1.797331	-0.023827	-0.369673
O171	O	1.101593	-1.263100	-0.511103
O172	O	1.601593	-0.763100	-0.011103
C173	C	1.060747	-1.208099	-0.453055
C174	C	1.560747	-0.708099	0.046945
H175	H	1.051459	-1.164362	-0.488386
H176	H	1.551459	-0.664362	0.011614
H177	H	0.993375	-1.216420	-0.431734
H178	H	1.493375	-0.716420	0.068266
H179	H	1.104375	-1.199040	-0.392109
H180	H	1.604375	-0.699040	0.107891
O181	O	0.500641	-0.661621	-0.807327
O182	O	1.000641	-0.161621	-0.307327
C183	C	0.412171	-0.638959	-0.779683
C184	C	0.912171	-0.138959	-0.279683
H185	H	0.404640	-0.585734	-0.748971
H186	H	0.904640	-0.085734	-0.248971
H187	H	0.366062	-0.644913	-0.839276
H188	H	0.866062	-0.144913	-0.339276
H189	H	0.394269	-0.667904	-0.728450
H190	H	0.894269	-0.167904	-0.228450
H191	H	1.033212	-0.616741	-0.957328
H192	H	1.533212	-0.116741	-0.457328
O193	O	0.449033	-0.466595	-0.569858
O194	O	0.949033	0.033405	-0.069858
C195	C	0.414579	-0.404216	-0.587214
C196	C	0.914579	0.095784	-0.087214
H197	H	0.460701	-0.389508	-0.634564
H198	H	0.960701	0.110492	-0.134564
H199	H	0.346126	-0.404291	-0.618646
H200	H	0.846126	0.095709	-0.118646
H201	H	0.409048	-0.368407	-0.522468
H202	H	0.909048	0.131593	-0.022468
H203	H	0.563984	-0.397223	-0.485140
H204	H	1.063984	0.102777	0.014860
O205	O	1.101416	-0.862411	-0.511134
O206	O	1.601416	-0.362411	-0.011134
C207	C	1.036190	-0.897387	-0.551182
C208	C	1.536190	-0.397387	-0.051182
H209	H	1.055552	-0.918185	-0.622919
H210	H	1.555552	-0.418185	-0.122919
H211	H	1.030677	-0.938423	-0.513483
H212	H	1.530677	-0.438423	-0.013483
H213	H	0.969601	-0.863836	-0.549527
H214	H	1.469601	-0.363836	-0.049527
O215	O	0.705189	-0.362620	-0.442799
O216	O	1.205189	0.137380	0.057201
C217	C	0.662022	-0.385249	-0.377007
C218	C	1.162022	0.114751	0.122993
H219	H	0.690523	-0.438172	-0.376223
H220	H	1.190523	0.061828	0.123777
H221	H	0.672627	-0.355550	-0.309477
H222	H	1.172627	0.144450	0.190523
H223	H	0.588012	-0.380325	-0.392119
H224	H	1.088012	0.119675	0.107881
H225	H	0.841712	-0.560807	-0.684446
H226	H	1.341712	-0.060807	-0.184446
O227	O	1.026718	-0.620353	-1.275968
O228	O	1.526718	-0.120353	-0.775968
C229	C	0.961008	-0.581767	-1.319113
C230	C	1.461008	-0.081767	-0.819113
H231	H	0.989561	-0.539813	-1.338177
H232	H	1.489561	-0.039813	-0.838177
H233	H	0.938139	-0.612150	-1.381401
H234	H	1.438139	-0.112150	-0.881401
H235	H	0.902189	-0.562138	-1.272652
H236	H	1.402189	-0.062138	-0.772652
O237	O	1.101396	-0.732807	-0.510895
O238	O	1.601396	-0.232807	-0.010895
C239	C	1.060550	-0.764032	-0.452902
C240	C	1.560550	-0.264032	0.047098
H241	H	1.096969	-0.815667	-0.456113
H242	H	1.596969	-0.315667	0.043887
H243	H	1.063190	-0.736871	-0.382270
H244	H	1.563190	-0.236871	0.117730
H245	H	0.988464	-0.764807	-0.473424
H246	H	1.488464	-0.264807	0.026576
H247	H	1.276813	-1.189759	-0.759966
H248	H	1.776813	-0.689759	-0.259966
H249	H	1.124158	-0.564295	-1.370803
H250	H	1.624158	-0.064295	-0.870803
O251	O	1.101500	-1.133575	-0.511214
O252	O	1.601500	-0.633575	-0.011214
C253	C	1.036263	-1.092488	-0.551239
C254	C	1.536263	-0.592488	-0.051239
H255	H	1.018873	-1.118379	-0.619282
H256	H	1.518873	-0.618379	-0.119282
H257	H	0.974368	-1.079080	-0.507856
H258	H	1.474368	-0.579080	-0.007856
H259	H	1.062793	-1.046784	-0.558943
H260	H	1.562793	-0.546784	-0.058943
O261	O	1.284214	-1.316237	-0.770377
O262	O	1.784214	-0.816237	-0.270377
C263	C	1.325029	-1.285009	-0.828390
C264	C	1.825029	-0.785009	-0.328390
H265	H	1.334267	-1.235011	-0.793028
H266	H	1.834267	-0.735011	-0.293028
H267	H	1.392422	-1.314680	-0.849712
H268	H	1.892422	-0.814680	-0.349712
H269	H	1.281404	-1.280086	-0.889339
H270	H	1.781404	-0.780086	-0.389339
H271	H	1.293682	-0.466628	-1.058295
H272	H	1.793682	0.033372	-0.558295
O273	O	1.391066	-0.410459	-1.153366
O274	O	1.891066	0.089541	-0.653366
C275	C	1.430177	-0.387937	-1.221921
C276	C	1.930177	0.112063	-0.721921
H277	H	1.383022	-0.387163	-1.280928
H278	H	1.883022	0.112837	-0.780928
H279	H	1.444133	-0.337041	-1.197134
H280	H	1.944133	0.162959	-0.697134
H281	H	1.495000	-0.421394	-1.243137
H282	H	1.995000	0.078606	-0.743137
