data_functionalizedCrystal
_audit_creation_method	'MofGen! by Chris Wilmer'
_symmetry_space_group_name_H-M	'P1'
_symmetry_Int_Tables_number	1
_symmetry_cell_setting	triclinic
loop_
_symmetry_equiv_pos_as_xyz
  x,y,z
_cell_length_a	19.121063
_cell_length_b	12.759395
_cell_length_c	12.759387
_cell_angle_alpha	90.020509
_cell_angle_beta	92.403602
_cell_angle_gamma	87.529574
loop_
_atom_site_label
_atom_site_type_symbol
_atom_site_fract_x
_atom_site_fract_y
_atom_site_fract_z
Zn1	Zn	-0.279547	-1.588336	-0.611793
Zn2	Zn	-0.397015	-1.580692	-0.443587
Zn3	Zn	-0.279586	-1.412632	-0.436132
Zn4	Zn	-0.396965	-1.405095	-0.619223
O5	O	-0.338278	-1.496689	-0.527684
O6	O	-0.295134	-1.734343	-0.589490
O7	O	-0.381475	-1.558353	-0.295580
O8	O	-0.181296	-1.442293	-0.453204
O9	O	-0.381437	-1.728726	-0.465911
O10	O	-0.181268	-1.571382	-0.582261
O11	O	-0.295200	-1.434881	-0.290102
O12	O	-0.295151	-1.264611	-0.460409
O13	O	-0.381352	-1.429447	-0.765256
O14	O	-0.381389	-1.259074	-0.594925
O15	O	-0.295086	-1.564074	-0.759797
O16	O	-0.495293	-1.551045	-0.473116
O17	O	-0.495256	-1.422034	-0.602155
C18	C	-0.338270	-1.223722	-0.527665
C19	C	-0.338283	-1.106944	-0.527683
C20	C	-0.520758	-1.484921	-0.539274
C21	C	-0.598824	-1.479982	-0.544267
C22	C	-0.338209	-1.496772	-0.801713
C23	C	-0.338180	-1.496808	-0.918488
C24	C	-0.635495	-1.544883	-0.479485
C25	C	-0.708846	-1.540245	-0.484187
C26	C	-0.745525	-1.470700	-0.553667
C27	C	-0.708848	-1.405796	-0.618456
C28	C	-0.635499	-1.410440	-0.613759
C29	C	-0.966994	-1.453319	-0.571215
C30	C	-1.040349	-1.448677	-0.575905
C31	C	-1.040341	-1.583128	-0.441637
C32	C	-0.966990	-1.587762	-0.436941
C33	C	-0.930320	-1.522862	-0.501734
C34	C	-0.820501	-1.465955	-0.558473
C35	C	-0.855345	-1.527613	-0.496933
C36	C	-0.155086	-1.508531	-0.516072
C37	C	-0.077020	-1.513578	-0.511123
C38	C	-0.338287	-1.770721	-0.527703
C39	C	-0.338291	-1.887498	-0.527711
C40	C	-0.428228	-1.101207	-0.667547
C41	C	-0.473206	-1.043477	-0.737482
C42	C	-0.473214	-0.933755	-0.737496
C43	C	-0.428239	-0.881761	-0.667569
C44	C	-0.383261	-0.939490	-0.597633
C45	C	-0.383258	-1.049215	-0.597625
C46	C	-0.293313	-0.945228	-0.457776
C47	C	-0.293307	-1.054950	-0.457756
C48	C	-0.248337	-0.893233	-0.387849
C49	C	-0.203362	-0.950963	-0.317907
C50	C	-0.203356	-1.060691	-0.317895
C51	C	-0.248329	-1.112679	-0.387821
C52	C	-0.248357	-1.637004	-0.912823
C53	C	-0.203435	-1.707117	-0.964851
C54	C	-0.203409	-1.707144	-1.074571
C55	C	-0.248309	-1.637048	-1.132266
C56	C	-0.293231	-1.566935	-1.080238
C57	C	-0.293253	-1.566918	-0.970516
C58	C	-0.383050	-1.426736	-1.085903
C59	C	-0.383080	-1.426712	-0.976183
C60	C	-0.427949	-1.356641	-1.143598
C61	C	-0.472876	-1.286531	-1.091570
C62	C	-0.472900	-1.286507	-0.981843
C63	C	-0.428002	-1.356599	-0.924155
C64	C	-0.338296	-1.496669	-0.254717
C65	C	-0.338128	-1.496849	-0.137931
H66	H	-0.605636	-1.601510	-0.422902
C67	C	-0.153892	-0.893762	-0.240998
N68	N	-0.116632	-0.850674	-0.183068
H69	H	-0.427923	-1.356664	-1.232937
C70	C	-0.248279	-1.637083	-1.252961
N71	N	-0.248259	-1.637112	-1.343870
C72	C	-0.749197	-1.329292	-0.694882
N73	N	-0.779588	-1.271663	-0.752443
C74	C	-0.926649	-1.664240	-0.360481
N75	N	-0.896265	-1.721832	-0.302877
H76	H	-0.248344	-0.803891	-0.387869
H77	H	-1.070206	-1.635967	-0.388888
C78	C	-1.080693	-1.372175	-0.652349
N79	N	-1.111081	-1.314558	-0.709924
H80	H	-0.248330	-1.202020	-0.387815
C81	C	-0.153875	-1.124185	-0.240960
N82	N	-0.116606	-1.172005	-0.183008
H83	H	-0.166825	-1.764230	-1.116932
C84	C	-0.522680	-1.100679	-0.814395
N85	N	-0.559944	-1.143761	-0.872324
H86	H	-0.605642	-1.357593	-0.666512
H87	H	-0.509426	-1.229460	-1.138554
H88	H	-0.825479	-1.584241	-0.440366
C89	C	-0.248386	-1.636987	-0.792128
N90	N	-0.248406	-1.636976	-0.701219
C91	C	-0.154046	-1.784217	-0.901379
N92	N	-0.116846	-1.842288	-0.853574
C93	C	-0.926666	-1.381980	-0.642543
N94	N	-0.896289	-1.328264	-0.696292
C95	C	-0.522693	-0.870251	-0.814427
N96	N	-0.559961	-0.822419	-0.872370
H97	H	-0.428244	-0.792419	-0.667594
C98	C	-0.428223	-1.221904	-0.667538
N99	N	-0.428219	-1.312815	-0.667535
H100	H	-0.738701	-1.593093	-0.431434
H101	H	-0.428020	-1.356591	-0.834815
H102	H	-0.850373	-1.409329	-0.615042
H103	H	-0.509474	-1.229402	-0.939489
