data_functionalizedCrystal
_audit_creation_method	'MofGen! by Chris Wilmer'
_symmetry_space_group_name_H-M	'P1'
_symmetry_Int_Tables_number	1
_symmetry_cell_setting	triclinic
loop_
_symmetry_equiv_pos_as_xyz
  x,y,z
_cell_length_a	16.109301
_cell_length_b	9.198806
_cell_length_c	16.109301
_cell_angle_alpha	90.004871
_cell_angle_beta	83.461532
_cell_angle_gamma	90.001596
loop_
_atom_site_label
_atom_site_type_symbol
_atom_site_fract_x
_atom_site_fract_y
_atom_site_fract_z
O1	O	1.103131	0.120817	0.106867
O2	O	1.603131	0.620817	0.606867
O3	O	0.861069	0.120838	0.120166
O4	O	1.361069	0.620838	0.620166
O5	O	0.988750	0.120812	-0.007515
O6	O	1.488750	0.620812	0.492485
O7	O	0.975451	0.120843	0.234547
O8	O	1.475451	0.620843	0.734547
O9	O	0.988740	-0.120973	-0.007516
O10	O	1.488740	0.379027	0.492484
O11	O	0.861059	-0.120947	0.120165
O12	O	1.361059	0.379053	0.620165
O13	O	1.103121	-0.120968	0.106866
O14	O	1.603121	0.379032	0.606866
Cu15	Cu	0.982089	-0.143034	0.113515
Cu16	Cu	1.482089	0.356966	0.613515
Cu17	Cu	0.982101	0.142905	0.113516
Cu18	Cu	1.482101	0.642905	0.613516
O19	O	0.975441	-0.120942	0.234546
O20	O	1.475441	0.379058	0.734546
C21	C	0.830089	-0.000052	0.119627
C22	C	1.330089	0.499948	0.619627
C23	C	0.737794	-0.000044	0.118011
C24	C	1.237794	0.499956	0.618011
N25	N	0.982087	-0.344148	0.113514
N26	N	1.482087	0.155852	0.613514
C27	C	0.428796	-0.000061	0.188494
C28	C	0.928796	0.499939	0.688494
C29	C	0.515516	-0.000052	0.190020
C30	C	1.015516	0.499948	0.690020
C31	C	0.535389	-0.000052	0.038531
C32	C	1.035389	0.499948	0.538531
C33	C	0.448671	-0.000050	0.037007
C34	C	0.948671	0.499950	0.537007
C35	C	0.395376	-0.000062	0.111991
C36	C	0.895376	0.499938	0.611991
C37	C	0.568815	-0.000055	0.115041
C38	C	1.068815	0.499945	0.615041
C39	C	0.662841	-0.000046	0.116694
C40	C	1.162841	0.499954	0.616694
C41	C	0.301344	-0.000068	0.110338
C42	C	0.801344	0.499932	0.610338
C43	C	1.030143	-0.416344	0.161299
C44	C	1.530143	0.083656	0.661299
C45	C	1.030156	-0.583756	0.161298
C46	C	1.530156	-0.083756	0.661298
C47	C	1.134101	-0.000075	0.107405
C48	C	1.634101	0.499925	0.607405
C49	C	1.226396	-0.000073	0.109020
C50	C	1.726396	0.499927	0.609020
C51	C	0.988206	-0.000081	-0.038490
C52	C	1.488206	0.499919	0.461510
C53	C	0.986591	-0.000083	-0.130785
C54	C	1.486591	0.499917	0.369215
N55	N	0.982110	0.344019	0.113511
N56	N	1.482110	0.844019	0.613511
C57	C	1.058599	-0.000066	-0.353058
C58	C	1.558599	0.499934	0.146942
C59	C	1.057075	-0.000054	-0.439778
C60	C	1.557075	0.499946	0.060222
C61	C	0.905586	-0.000046	-0.419904
C62	C	1.405586	0.499954	0.080096
C63	C	0.907111	-0.000048	-0.333185
C64	C	1.407111	0.499952	0.166815
C65	C	0.983620	-0.000065	-0.299765
C66	C	1.483620	0.499935	0.200235
C67	C	0.980571	-0.000052	-0.473204
C68	C	1.480571	0.499948	0.026796
C69	C	0.978918	-0.000038	-0.567230
C70	C	1.478918	0.499962	-0.067230
C71	C	0.985273	-0.000076	-0.205733
C72	C	1.485273	0.499924	0.294267
C73	C	0.975984	-0.000046	0.265522
C74	C	1.475984	0.499954	0.765522
C75	C	0.977599	-0.000034	0.357817
C76	C	1.477599	0.499966	0.857817
H77	H	0.385405	-0.000069	0.249551
H78	H	0.885405	0.499931	0.749551
H79	H	1.120897	-0.000077	-0.325850
H80	H	1.620897	0.499923	0.174150
H81	H	1.118130	-0.000051	-0.483167
H82	H	1.618130	0.499949	0.016833
N83	N	0.823069	-0.000034	-0.455951
N84	N	1.323069	0.499966	0.044049
H85	H	0.833479	-0.000039	-0.518974
H86	H	1.333479	0.499961	-0.018974
H87	H	0.790259	-0.089667	-0.436456
H88	H	1.290259	0.410333	0.063544
N89	N	1.084640	-0.334064	0.215487
N90	N	1.584640	0.165936	0.715487
H91	H	1.076909	-0.226133	0.207805
H92	H	1.576909	0.273867	0.707805
H93	H	1.068376	-0.360584	0.275991
H94	H	1.568376	0.139416	0.775991
N95	N	0.826232	-0.000059	-0.275705
N96	N	1.326232	0.499941	0.224295
H97	H	0.823489	-0.089689	-0.239287
H98	H	1.323489	0.410311	0.260713
H99	H	0.823535	0.089630	-0.239332
H100	H	1.323535	0.589630	0.260668
N101	N	0.551563	-0.000035	0.272534
N102	N	1.051563	0.499965	0.772534
H103	H	0.504640	-0.000037	0.319801
H104	H	1.004640	0.499963	0.819801
H105	H	0.587114	-0.089661	0.276466
H106	H	1.087114	0.410339	0.776466
N107	N	0.592868	-0.000056	-0.042344
N108	N	1.092868	0.499944	0.457656
H109	H	0.629296	0.089568	-0.045086
H110	H	1.129296	0.589568	0.454914
H111	H	0.629231	-0.089751	-0.045042
H112	H	1.129231	0.410249	0.454958
N113	N	0.412617	-0.000044	-0.045512
N114	N	0.912617	0.499956	0.454488
H115	H	0.459537	-0.000047	-0.092783
H116	H	0.959537	0.499953	0.407217
H117	H	0.377067	-0.089674	-0.049446
H118	H	0.877067	0.410326	0.450554
H119	H	1.071294	-0.645843	0.202213
H120	H	1.571294	-0.145843	0.702213
N121	N	0.927605	-0.426433	0.059313
N122	N	1.427605	0.073567	0.559313
H123	H	0.887024	-0.489594	0.095628
H124	H	1.387024	0.010406	0.595628
H125	H	0.895589	-0.355160	0.027431
H126	H	1.395589	0.144840	0.527431
N127	N	0.927611	-0.573756	0.059313
N128	N	1.427611	-0.073756	0.559313
H129	H	0.943858	-0.600176	-0.001213
H130	H	1.443858	-0.100176	0.498787
H131	H	0.867152	-0.600214	0.075913
H132	H	1.367152	-0.100214	0.575913
