data_functionalizedCrystal
_audit_creation_method	'MofGen! by Chris Wilmer'
_symmetry_space_group_name_H-M	'P1'
_symmetry_Int_Tables_number	1
_symmetry_cell_setting	triclinic
loop_
_symmetry_equiv_pos_as_xyz
  x,y,z
_cell_length_a	29.839134
_cell_length_b	11.169416
_cell_length_c	11.169409
_cell_angle_alpha	90.030874
_cell_angle_beta	90.034607
_cell_angle_gamma	90.005689
loop_
_atom_site_label
_atom_site_type_symbol
_atom_site_fract_x
_atom_site_fract_y
_atom_site_fract_z
Zn1	Zn	-0.686865	0.477859	-0.679028
Zn2	Zn	-0.686824	0.678599	-0.478350
Zn3	Zn	-0.611734	0.477912	-0.478311
Zn4	Zn	-0.611736	0.678482	-0.678943
O5	O	-0.649290	0.578213	-0.578658
O6	O	-0.749727	0.504514	-0.652460
O7	O	-0.676844	0.652049	-0.310395
O8	O	-0.621716	0.309956	-0.504956
O9	O	-0.749696	0.651997	-0.505023
O10	O	-0.676915	0.309916	-0.652422
O11	O	-0.621676	0.504605	-0.310366
O12	O	-0.548867	0.504492	-0.504873
O13	O	-0.621721	0.651798	-0.846905
O14	O	-0.548869	0.651850	-0.652277
O15	O	-0.676918	0.504400	-0.846967
O16	O	-0.676847	0.846533	-0.504940
O17	O	-0.621681	0.846447	-0.652315
C18	C	-0.532567	0.578165	-0.578562
C19	C	-0.482633	0.578173	-0.578550
C20	C	-0.173000	0.655067	-0.655279
C21	C	0.014673	0.655105	-0.655318
O22	O	0.038929	0.720420	-0.720524
N23	N	0.038152	0.578273	-0.578694
C24	C	0.014710	0.501420	-0.502060
O25	O	0.038987	0.436062	-0.436897
C26	C	-0.172962	0.501377	-0.502029
C27	C	-0.196439	0.578223	-0.578649
C28	C	-0.196477	0.731905	-0.731895
C29	C	-0.243392	0.731899	-0.731880
C30	C	-0.266831	0.655055	-0.655249
C31	C	-0.243354	0.578217	-0.578634
C32	C	-0.196403	0.424519	-0.425402
C33	C	-0.243324	0.424513	-0.425403
C34	C	-0.266801	0.501359	-0.502024
C35	C	-0.313708	0.501367	-0.501989
N36	N	-0.337187	0.578199	-0.578613
C37	C	-0.313749	0.655043	-0.655243
C38	C	0.113241	0.501450	-0.502081
C39	C	0.160159	0.501462	-0.502087
C40	C	0.160118	0.655145	-0.655346
C41	C	0.113200	0.655138	-0.655333
C42	C	0.089762	0.578282	-0.578705
C43	C	-0.412274	0.655026	-0.655205
C44	C	-0.459194	0.655017	-0.655180
C45	C	-0.459149	0.501330	-0.501926
C46	C	-0.412234	0.501343	-0.501946
C47	C	-0.388798	0.578195	-0.578595
O48	O	-0.337993	0.436076	-0.436827
O49	O	-0.338033	0.720373	-0.720416
C50	C	-0.126084	0.655072	-0.655294
C51	C	-0.102608	0.578234	-0.578679
C52	C	-0.126046	0.501390	-0.502049
C53	C	-0.055690	0.578246	-0.578685
C54	C	-0.032251	0.655090	-0.655316
C55	C	-0.055730	0.731922	-0.731940
C56	C	-0.102646	0.731916	-0.731925
C57	C	-0.102567	0.424558	-0.425425
C58	C	-0.055652	0.424571	-0.425445
C59	C	-0.032213	0.501415	-0.502076
C60	C	-0.649272	0.890038	-0.578649
C61	C	-0.649305	1.023438	-0.578685
C62	C	-0.649324	0.578080	-0.891701
C63	C	-0.649339	0.578023	-1.025101
C64	C	0.233532	0.578268	-0.578735
C65	C	0.183598	0.578306	-0.578717
C66	C	-0.649320	0.265171	-0.578694
C67	C	-0.649333	0.131771	-0.578709
C68	C	-0.649281	0.578259	-0.266833
C69	C	-0.649354	0.577978	-0.133434
H70	H	-0.393198	0.717604	-0.717623
H71	H	-0.393118	0.438772	-0.439553
Br72	Br	0.081343	0.759432	-0.759321
Br73	Br	-0.275246	0.836190	-0.835876
H74	H	-0.177296	0.361947	-0.363006
H75	H	-0.036638	0.794495	-0.794331
H76	H	0.179210	0.717715	-0.717742
H77	H	-0.478242	0.438769	-0.439531
Br78	Br	0.192014	0.397187	-0.398078
Br79	Br	-0.023796	0.320276	-0.321445
H80	H	0.094162	0.438863	-0.439675
H81	H	-0.478307	0.717599	-0.717574
Br82	Br	-0.275130	0.320198	-0.321405
H83	H	-0.177398	0.794481	-0.794303
H84	H	-0.121756	0.794491	-0.794317
Br85	Br	-0.134369	0.320254	-0.321421
