data_functionalizedCrystal
_audit_creation_method	'MofGen! by Chris Wilmer'
_symmetry_space_group_name_H-M	'P1'
_symmetry_Int_Tables_number	1
_symmetry_cell_setting	triclinic
loop_
_symmetry_equiv_pos_as_xyz
  x,y,z
_cell_length_a	16.625546
_cell_length_b	12.827893
_cell_length_c	12.827885
_cell_angle_alpha	89.978811
_cell_angle_beta	90.035124
_cell_angle_gamma	89.979513
loop_
_atom_site_label
_atom_site_type_symbol
_atom_site_fract_x
_atom_site_fract_y
_atom_site_fract_z
Zn1	Zn	-0.321005	-1.597618	0.590863
Zn2	Zn	0.178995	-1.097618	1.090863
Zn3	Zn	-0.455859	-1.597491	0.416107
Zn4	Zn	0.044141	-1.097491	0.916107
Zn5	Zn	-0.321040	-1.422860	0.416131
Zn6	Zn	0.178960	-0.922860	0.916131
Zn7	Zn	-0.455795	-1.422823	0.590801
Zn8	Zn	0.044205	-0.922823	1.090801
O9	O	-0.388425	-1.510198	0.503476
O10	O	0.111575	-1.010198	1.003476
O11	O	-0.338906	-1.743837	0.567697
O12	O	0.161094	-1.243837	1.067697
O13	O	-0.438017	-1.574287	0.269874
O14	O	0.061983	-1.074287	0.769874
O15	O	-0.208203	-1.446110	0.439346
O16	O	0.291797	-0.946110	0.939346
O17	O	-0.437983	-1.743744	0.439305
O18	O	0.062017	-1.243744	0.939305
O19	O	-0.208177	-1.574505	0.567721
O20	O	0.291823	-1.074505	1.067721
O21	O	-0.338965	-1.445987	0.269892
O22	O	0.161035	-0.945987	0.769892
O23	O	-0.338903	-1.276619	0.439286
O24	O	0.161097	-0.776619	0.939286
O25	O	-0.437873	-1.446048	0.737046
O26	O	0.062127	-0.946048	1.237046
O27	O	-0.437907	-1.276592	0.567615
O28	O	0.062093	-0.776592	1.067615
O29	O	-0.338844	-1.574469	0.737091
O30	O	0.161156	-1.074469	1.237091
O31	O	-0.568683	-1.574252	0.439245
O32	O	-0.068683	-1.074252	0.939245
O33	O	-0.568636	-1.445925	0.567592
O34	O	-0.068636	-0.945925	1.067592
C35	C	-0.388402	-1.238688	0.503447
C36	C	0.111598	-0.738688	1.003447
C37	C	-0.388412	-1.122535	0.503459
C38	C	0.111588	-0.622535	1.003459
C39	C	-0.597916	-1.510099	0.503432
C40	C	-0.097916	-1.010099	1.003432
C41	C	-0.687537	-1.510152	0.503448
C42	C	-0.187537	-1.010152	1.003448
C43	C	-0.437477	-1.070765	0.566861
C44	C	0.062523	-0.570765	1.066861
C45	C	-0.437488	-0.950714	0.566875
C46	C	0.062512	-0.450714	1.066875
C47	C	-1.015712	-1.510335	0.503557
C48	C	-0.515712	-1.010335	1.003557
C49	C	-0.924404	-1.510281	0.503530
C50	C	-0.424404	-1.010281	1.003530
C51	C	-0.851627	-1.510243	0.503502
C52	C	-0.351627	-1.010243	1.003502
C53	C	-0.760313	-1.510190	0.503476
C54	C	-0.260313	-1.010190	1.003476
C55	C	-0.178116	-1.510326	0.503543
C56	C	0.321884	-1.010326	1.003543
C57	C	-0.088495	-1.510380	0.503571
C58	C	0.411505	-1.010380	1.003571
C59	C	-0.388347	-1.510269	0.776046
C60	C	0.111653	-1.010269	1.276046
C61	C	-0.388314	-1.510299	0.892199
C62	C	0.111686	-1.010299	1.392199
C63	C	-0.388442	-0.782768	0.503497
C64	C	0.111558	-0.282768	1.003497
C65	C	-0.388432	-0.898921	0.503485
C66	C	0.111568	-0.398921	1.003485
C67	C	-0.388444	-1.510187	0.231966
C68	C	0.111556	-1.010187	0.731966
C69	C	-0.388250	-1.510359	0.115813
C70	C	0.111750	-1.010359	0.615813
C71	C	-0.339302	-1.573853	0.944007
C72	C	0.160698	-1.073853	1.444007
C73	C	-0.339267	-1.573886	1.064057
C74	C	0.160733	-1.073886	1.564057
H75	H	-0.479473	-1.115319	0.621135
H76	H	0.020527	-0.615319	1.121135
H77	H	-0.297308	-1.628300	1.108610
H78	H	0.202692	-1.128300	1.608610
H79	H	-0.346410	-1.077981	0.449193
H80	H	0.153590	-0.577981	0.949193
H81	H	-0.430216	-1.455950	1.071267
H82	H	0.069784	-0.955950	1.571267
F83	F	-0.492401	-0.892526	0.637822
F84	F	0.007599	-0.392526	1.137822
H85	H	-0.346426	-0.943436	0.449198
H86	H	0.153574	-0.443436	0.949198
F87	F	-0.284471	-1.644921	0.885818
F88	F	0.215529	-1.144921	1.385818
H89	H	-0.430244	-1.455906	0.936722
H90	H	0.069756	-0.955906	1.436722
