data_functionalizedCrystal
_audit_creation_method	'MofGen! by Chris Wilmer'
_symmetry_space_group_name_H-M	'P1'
_symmetry_Int_Tables_number	1
_symmetry_cell_setting	triclinic
loop_
_symmetry_equiv_pos_as_xyz
  x,y,z
_cell_length_a	15.995343
_cell_length_b	14.421503
_cell_length_c	15.995292
_cell_angle_alpha	89.992517
_cell_angle_beta	83.478900
_cell_angle_gamma	90.003311
loop_
_atom_site_label
_atom_site_type_symbol
_atom_site_fract_x
_atom_site_fract_y
_atom_site_fract_z
O1	O	1.110972	0.077012	0.107887
O2	O	1.610972	0.577012	0.607887
O3	O	0.867193	0.077033	0.121222
O4	O	1.367193	0.577033	0.621222
O5	O	0.995772	0.077024	-0.007337
O6	O	1.495772	0.577024	0.492663
O7	O	0.982394	0.077022	0.236445
O8	O	1.482394	0.577022	0.736445
O9	O	0.995751	-0.077200	-0.007318
O10	O	1.495751	0.422800	0.492682
O11	O	0.867172	-0.077190	0.121241
O12	O	1.367172	0.422810	0.621241
O13	O	1.110951	-0.077211	0.107906
O14	O	1.610951	0.422789	0.607906
Cu15	Cu	0.989059	-0.091283	0.114575
Cu16	Cu	1.489059	0.408717	0.614575
Cu17	Cu	0.989085	0.091105	0.114552
Cu18	Cu	1.489085	0.591105	0.614552
O19	O	0.982372	-0.077202	0.236464
O20	O	1.482372	0.422798	0.736464
C21	C	0.835988	-0.000075	0.120681
C22	C	1.335988	0.499925	0.620681
C23	C	0.743037	-0.000067	0.119032
C24	C	1.243037	0.499933	0.619032
C25	C	0.572852	-0.000079	0.116038
C26	C	1.072852	0.499921	0.616038
C27	C	0.549525	-0.000079	0.023238
C28	C	1.049525	0.499921	0.523238
C29	C	0.452848	-0.000434	0.021493
C30	C	0.952848	0.499566	0.521493
C31	C	0.405292	-0.000091	0.113089
C32	C	0.905292	0.499909	0.613089
C33	C	0.434362	-0.087985	0.159761
C34	C	0.934362	0.412015	0.659761
C35	C	0.531154	-0.088053	0.160862
C36	C	1.031154	0.411947	0.660862
C37	C	0.531089	0.087334	0.162199
C38	C	1.031089	0.587334	0.662199
C39	C	0.434595	0.088484	0.158773
C40	C	0.934595	0.588484	0.658773
C41	C	0.310595	-0.000100	0.111428
C42	C	0.810595	0.499900	0.611428
C43	C	0.667549	-0.000076	0.117702
C44	C	1.167549	0.499924	0.617702
N45	N	0.989048	-0.219564	0.114590
N46	N	1.489048	0.280436	0.614590
C47	C	0.929583	-0.469213	0.174009
C48	C	1.429583	0.030787	0.674009
C49	C	1.005238	-0.531023	0.190259
C50	C	1.505238	-0.031023	0.690259
C51	C	0.989068	-0.408725	0.114570
C52	C	1.489068	0.091275	0.614570
C53	C	0.913432	-0.531009	0.098340
C54	C	1.413432	-0.031009	0.598340
C55	C	0.989081	-0.591447	0.114553
C56	C	1.489081	-0.091447	0.614553
C57	C	1.064762	-0.469174	0.130858
C58	C	1.564762	0.030826	0.630858
C59	C	0.972906	-0.469156	0.038906
C60	C	1.472906	0.030844	0.538906
C61	C	1.048616	-0.530937	0.055124
C62	C	1.548616	-0.030937	0.555124
C63	C	0.989060	-0.303464	0.114583
C64	C	1.489060	0.196536	0.614583
C65	C	0.989098	-0.696706	0.114540
C66	C	1.489098	-0.196706	0.614540
C67	C	1.142156	-0.000101	0.108447
C68	C	1.642156	0.499899	0.608447
C69	C	1.235107	-0.000103	0.110096
C70	C	1.735107	0.499897	0.610096
N71	N	0.989103	0.219386	0.114530
N72	N	1.489103	0.719386	0.614530
C73	C	0.995217	-0.000086	-0.038523
C74	C	1.495217	0.499914	0.461477
C75	C	0.993584	-0.000079	-0.131476
C76	C	1.493584	0.499921	0.368524
C77	C	0.987583	-0.000087	-0.469214
C78	C	1.487583	0.499913	0.030786
C79	C	1.080388	-0.000439	-0.445904
C80	C	1.580388	0.499561	0.054096
C81	C	1.082152	-0.000089	-0.349229
C82	C	1.582152	0.499911	0.150771
C83	C	0.990561	-0.000083	-0.301658
C84	C	1.490561	0.499917	0.198342
C85	C	0.944175	0.087987	-0.330769
C86	C	1.444175	0.587987	0.169231
C87	C	0.943058	0.088058	-0.427559
C88	C	1.443058	0.588058	0.072441
C89	C	0.941139	-0.087323	-0.427395
C90	C	1.441139	0.412677	0.072605
C91	C	0.944578	-0.088484	-0.330902
C92	C	1.444578	0.411516	0.169098
C93	C	0.992239	-0.000078	-0.206962
C94	C	1.492239	0.499922	0.293038
C95	C	0.985902	-0.000085	-0.563910
C96	C	1.485902	0.499915	-0.063910
C97	C	0.982927	-0.000090	0.267650
C98	C	1.482927	0.499910	0.767650
C99	C	0.984560	-0.000091	0.360603
C100	C	1.484560	0.499909	0.860603
H101	H	0.577549	0.062942	-0.012739
H102	H	1.077549	0.562942	0.487261
Br103	Br	0.403726	0.196867	0.102104
Br104	Br	0.903726	0.696867	0.602104
H105	H	1.118712	0.063148	-0.330833
H106	H	1.618712	0.563148	0.169167
H107	H	0.401625	0.094063	0.225607
H108	H	0.901625	0.594063	0.725607
Br109	Br	0.806815	-0.576287	0.075472
Br110	Br	1.306815	-0.076287	0.575472
H111	H	0.559374	0.153976	0.132913
H112	H	1.059374	0.653976	0.632913
Br113	Br	0.597829	-0.104974	-0.035730
Br114	Br	1.097829	0.395026	0.464270
Br115	Br	1.139698	0.104227	-0.494282
Br116	Br	1.639698	0.604227	0.005718
H117	H	0.545088	0.088181	0.230505
H118	H	1.045088	0.588181	0.730505
H119	H	0.976404	0.153524	-0.310717
H120	H	1.476404	0.653524	0.189283
Br121	Br	0.400874	-0.197425	0.106417
Br122	Br	0.900874	0.302575	0.606417
Br123	Br	0.845822	-0.424036	0.257850
Br124	Br	1.345822	0.075964	0.757850
H125	H	1.018920	-0.558197	0.254239
H126	H	1.518920	-0.058197	0.754239
H127	H	1.128745	-0.442126	0.144654
H128	H	1.628745	0.057874	0.644654
Br129	Br	0.827283	-0.088307	-0.450709
Br130	Br	1.327283	0.411693	0.049291
Br131	Br	0.831840	0.093460	-0.277651
Br132	Br	1.331840	0.593460	0.222349
H133	H	1.098982	-0.557869	0.004848
H134	H	1.598982	-0.057869	0.504848
Br135	Br	0.950064	-0.423824	-0.067699
Br136	Br	1.450064	0.076176	0.432301
H137	H	0.970356	-0.154080	-0.455476
H138	H	1.470356	0.345920	0.044524
Br139	Br	1.142677	-0.105329	-0.317499
Br140	Br	1.642677	0.394671	0.182501
H141	H	0.978354	-0.153638	-0.312330
H142	H	1.478354	0.346362	0.187670
Br143	Br	0.422106	-0.106075	-0.039070
Br144	Br	0.922106	0.393925	0.460930
H145	H	0.975200	0.153888	-0.454385
H146	H	1.475200	0.653888	0.045615
H147	H	0.877725	-0.093799	-0.297930
H148	H	1.377725	0.406201	0.202070
Br149	Br	0.555426	-0.094306	0.274285
Br150	Br	1.055426	0.405694	0.774285
H151	H	1.116150	-0.063599	-0.473895
H152	H	1.616150	0.436401	0.026105
H153	H	0.875013	0.092052	-0.442108
H154	H	1.375013	0.592052	0.057892
H155	H	0.557938	-0.154005	0.128933
H156	H	1.057938	0.345995	0.628933
Br157	Br	0.381264	-0.093027	0.272123
Br158	Br	0.881264	0.406973	0.772123
Br159	Br	0.421169	0.104561	-0.039397
Br160	Br	0.921169	0.604561	0.460603
