data_functionalizedCrystal
_audit_creation_method	'MofGen! by Chris Wilmer'
_symmetry_space_group_name_H-M	'P1'
_symmetry_Int_Tables_number	1
_symmetry_cell_setting	triclinic
loop_
_symmetry_equiv_pos_as_xyz
  x,y,z
_cell_length_a	13.330367
_cell_length_b	16.992694
_cell_length_c	16.992695
_cell_angle_alpha	89.331777
_cell_angle_beta	89.995081
_cell_angle_gamma	89.998159
loop_
_atom_site_label
_atom_site_type_symbol
_atom_site_fract_x
_atom_site_fract_y
_atom_site_fract_z
O1	O	0.083299	-1.050854	0.166905
O2	O	0.416632	-0.717521	0.500239
O3	O	0.749965	-0.384187	0.833572
O4	O	0.083328	-0.822454	0.165074
O5	O	0.416662	-0.489121	0.498407
O6	O	0.749995	-0.155787	0.831741
O7	O	0.083306	-0.935738	0.051790
O8	O	0.416639	-0.602405	0.385123
O9	O	0.749972	-0.269072	0.718456
O10	O	0.083321	-0.937570	0.280190
O11	O	0.416655	-0.604236	0.613523
O12	O	0.749988	-0.270903	0.946856
O13	O	-0.083541	-0.935721	0.051808
O14	O	0.249792	-0.602388	0.385141
O15	O	0.583125	-0.269054	0.718475
O16	O	-0.083519	-0.822437	0.165092
O17	O	0.249814	-0.489103	0.498426
O18	O	0.583148	-0.155770	0.831759
O19	O	-0.083548	-1.050837	0.166924
O20	O	0.249785	-0.717503	0.500257
O21	O	0.583118	-0.384170	0.833590
Cu22	Cu	-0.098768	-0.936635	0.166010
Cu23	Cu	0.234565	-0.603302	0.499343
Cu24	Cu	0.567899	-0.269968	0.832676
Cu25	Cu	0.098548	-0.936655	0.165988
Cu26	Cu	0.431881	-0.603322	0.499321
Cu27	Cu	0.765215	-0.269989	0.832655
O28	O	-0.083526	-0.937552	0.280208
O29	O	0.249808	-0.604219	0.613541
O30	O	0.583141	-0.270886	0.946875
C31	C	-0.000092	-0.793085	0.162727
C32	C	0.333242	-0.459752	0.496061
C33	C	0.666575	-0.126418	0.829394
C34	C	-0.000081	-0.705600	0.155699
C35	C	0.333253	-0.372267	0.489032
C36	C	0.666586	-0.038934	0.822365
C37	C	-0.000118	-0.933374	0.022439
C38	C	0.333216	-0.600041	0.355772
C39	C	0.666549	-0.266707	0.689105
C40	C	-0.000116	-0.926345	-0.065046
C41	C	0.333217	-0.593012	0.268287
C42	C	0.666550	-0.259678	0.601621
N43	N	-0.237550	-0.936626	0.166025
N44	N	0.095784	-0.603293	0.499358
N45	N	0.429117	-0.269960	0.832691
C46	C	-0.710165	-0.987399	0.216738
C47	C	-0.376832	-0.654065	0.550071
C48	C	-0.043498	-0.320732	0.883404
C49	C	-0.710148	-0.885934	0.115208
C50	C	-0.376815	-0.552601	0.448542
C51	C	-0.043481	-0.219267	0.781875
C52	C	-0.605130	-0.885923	0.115220
C53	C	-0.271796	-0.552590	0.448553
C54	C	0.061537	-0.219257	0.781887
C55	C	-0.552624	-0.936652	0.165990
C56	C	-0.219291	-0.603319	0.499323
C57	C	0.114043	-0.269985	0.832657
C58	C	-0.605137	-0.987391	0.216749
C59	C	-0.271804	-0.654058	0.550082
C60	C	0.061530	-0.320724	0.883416
C61	C	-0.552609	-0.835191	0.064456
C62	C	-0.219276	-0.501857	0.397790
C63	C	0.114058	-0.168524	0.731123
C64	C	-0.447584	-0.835179	0.064465
C65	C	-0.114251	-0.501845	0.397799
C66	C	0.219082	-0.168512	0.731132
C67	C	-0.395077	-0.885904	0.115240
C68	C	-0.061743	-0.552571	0.448573
C69	C	0.271590	-0.219237	0.781907
C70	C	-0.447596	-0.936644	0.166002
C71	C	-0.114263	-0.603311	0.499335
C72	C	0.219071	-0.269978	0.832668
C73	C	-0.395091	-0.987373	0.216772
C74	C	-0.061757	-0.654040	0.550105
C75	C	0.271576	-0.320706	0.883439
C76	C	-0.447608	-1.038110	0.267538
C77	C	-0.114275	-0.704777	0.600871
C78	C	0.219059	-0.371444	0.934205
C79	C	-0.552630	-1.038116	0.267524
C80	C	-0.219296	-0.704783	0.600857
C81	C	0.114037	-0.371450	0.934191
C82	C	-0.290055	-0.885898	0.115254
C83	C	0.043278	-0.552564	0.448588
C84	C	0.376612	-0.219231	0.781921
C85	C	-0.290062	-0.987365	0.216783
C86	C	0.043271	-0.654032	0.550117
C87	C	0.376604	-0.320699	0.883450
N88	N	0.237329	-0.936670	0.165967
N89	N	0.570663	-0.603337	0.499301
N90	N	0.903996	-0.270003	0.832634
C91	C	-0.000126	-1.080205	0.169270
C92	C	0.333207	-0.746872	0.502603
C93	C	0.666540	-0.413539	0.835937
C94	C	-0.000131	-1.167690	0.176299
C95	C	0.333202	-0.834357	0.509632
C96	C	0.666536	-0.501023	0.842966
C97	C	-0.000077	-0.659610	0.223517
C98	C	0.333257	-0.326276	0.556850
C99	C	0.666590	0.007057	0.890183
C100	C	-0.000091	-0.577409	0.216908
C101	C	0.333242	-0.244075	0.550241
C102	C	0.666576	0.089258	0.883574
C103	C	-0.000102	-0.541201	0.142480
C104	C	0.333231	-0.207867	0.475813
C105	C	0.666565	0.125466	0.809147
C106	C	-0.000109	-0.587198	0.074657
C107	C	0.333225	-0.253864	0.407990
C108	C	0.666558	0.079469	0.741324
C109	C	-0.000102	-0.669397	0.081267
C110	C	0.333232	-0.336063	0.414600
C111	C	0.666565	-0.002730	0.747933
C112	C	-0.000131	-0.295886	0.115086
C113	C	0.333203	0.037447	0.448419
C114	C	0.666536	0.370780	0.781752
C115	C	-0.000135	-0.213681	0.108481
C116	C	0.333199	0.119652	0.441814
C117	C	0.666532	0.452986	0.775148
C118	C	-0.000119	-0.203898	0.250732
C119	C	0.333215	0.129435	0.584066
C120	C	0.666548	0.462769	0.917399
C121	C	-0.000106	-0.286099	0.257336
C122	C	0.333228	0.047234	0.590669
C123	C	0.666561	0.380568	0.924002
C124	C	-0.000118	-0.332089	0.189512
C125	C	0.333216	0.001244	0.522846
C126	C	0.666549	0.334578	0.856179
N127	N	-0.000113	-0.457178	0.135723
N128	N	0.333220	-0.123845	0.469056
N129	N	0.666553	0.209488	0.802390
N130	N	-0.000113	-0.416110	0.196270
N131	N	0.333220	-0.082776	0.529604
N132	N	0.666553	0.250557	0.862937
C133	C	-0.000126	-0.994163	-0.111037
C134	C	0.333207	-0.660830	0.222296
C135	C	0.666541	-0.327496	0.555630
C136	C	-0.000116	-0.987554	-0.193238
C137	C	0.333218	-0.654221	0.140096
C138	C	0.666551	-0.320887	0.473429
C139	C	-0.000103	-0.913127	-0.229446
C140	C	0.333231	-0.579793	0.103887
C141	C	0.666564	-0.246460	0.437221
C142	C	-0.000090	-0.845303	-0.183449
C143	C	0.333243	-0.511970	0.149884
C144	C	0.666577	-0.178637	0.483218
C145	C	-0.000093	-0.851913	-0.101250
C146	C	0.333240	-0.518580	0.232084
C147	C	0.666574	-0.185246	0.565417
C148	C	-0.000085	-0.885732	-0.474760
C149	C	0.333248	-0.552399	-0.141427
C150	C	0.666581	-0.219065	0.191906
C151	C	-0.000085	-0.879127	-0.556966
C152	C	0.333248	-0.545794	-0.223632
C153	C	0.666581	-0.212461	0.109701
C154	C	-0.000109	-1.021379	-0.566749
C155	C	0.333224	-0.688045	-0.233415
C156	C	0.666557	-0.354712	0.099918
C157	C	-0.000118	-1.027982	-0.484547
C158	C	0.333215	-0.694649	-0.151214
C159	C	0.666548	-0.361315	0.182119
C160	C	-0.000100	-0.960159	-0.438558
C161	C	0.333233	-0.626826	-0.105224
C162	C	0.666566	-0.293492	0.228109
N163	N	-0.000095	-0.906369	-0.313468
N164	N	0.333238	-0.573036	0.019865
N165	N	0.666571	-0.239703	0.353199
N166	N	-0.000101	-0.966917	-0.354537
N167	N	0.333233	-0.633583	-0.021204
N168	N	0.666566	-0.300250	0.312130
C169	C	-0.000100	-0.939917	0.309559
C170	C	0.333233	-0.606583	0.642892
C171	C	0.666566	-0.273250	0.976226
C172	C	-0.000095	-0.946945	0.397044
C173	C	0.333238	-0.613612	0.730377
C174	C	0.666572	-0.280279	1.063710
H175	H	-0.247320	-1.028672	0.258131
H176	H	0.086014	-0.695338	0.591464
H177	H	0.419347	-0.362005	0.924798
F178	F	-0.766057	-1.041389	0.270768
F179	F	-0.432723	-0.708056	0.604102
F180	F	-0.099390	-0.374723	0.937435
F181	F	-0.000150	-1.073380	-0.072509
F182	F	0.333184	-0.740046	0.260824
F183	F	0.666517	-0.406713	0.594158
F184	F	-0.391716	-1.092102	0.321565
F185	F	-0.058382	-0.758769	0.654898
F186	F	0.274951	-0.425435	0.988232
F187	F	-0.000127	-0.548660	-0.004555
F188	F	0.333206	-0.215326	0.328778
F189	F	0.666540	0.118007	0.662112
H190	H	-0.752904	-0.844638	0.073869
H191	H	-0.419571	-0.511305	0.407202
H192	H	-0.086238	-0.177972	0.740535
F193	F	-0.000089	-0.324628	0.336551
F194	F	0.333245	0.008705	0.669885
F195	F	0.666578	0.342038	1.003218
F196	F	-0.000109	-0.718344	0.009085
F197	F	0.333224	-0.385010	0.342419
F198	F	0.666557	-0.051677	0.675752
F199	F	-0.000128	-1.059736	-0.242181
F200	F	0.333205	-0.726403	0.091152
F201	F	0.666539	-0.393069	0.424485
F202	F	-0.608494	-0.781206	0.010427
F203	F	-0.275160	-0.447872	0.343761
F204	F	0.058173	-0.114539	0.677094
H205	H	-0.595398	-1.079425	0.308853
H206	H	-0.262065	-0.746092	0.642187
H207	H	0.071268	-0.412759	0.975520
H208	H	-0.000129	-1.088589	-0.455073
H209	H	0.333204	-0.755255	-0.121739
H210	H	0.666537	-0.421922	0.211594
H211	H	-0.000122	-1.076596	-0.604202
H212	H	0.333211	-0.743263	-0.270869
H213	H	0.666545	-0.409930	0.062465
H214	H	-0.404833	-0.793865	0.023129
H215	H	-0.071500	-0.460532	0.356462
H216	H	0.261833	-0.127198	0.689796
H217	H	-0.000091	-0.818516	-0.586443
H218	H	0.333242	-0.485183	-0.253110
H219	H	0.666576	-0.151850	0.080223
F220	F	-0.000058	-0.698138	0.302733
F221	F	0.333275	-0.364804	0.636067
F222	F	0.666608	-0.031471	0.969400
F223	F	-0.000108	-0.154947	0.322909
F224	F	0.333225	0.178387	0.656242
F225	F	0.666559	0.511720	0.989576
F226	F	-0.000064	-0.813548	-0.425825
F227	F	0.333270	-0.480214	-0.092491
F228	F	0.666603	-0.146881	0.240842
F229	F	-0.234167	-0.831915	0.061218
F230	F	0.099166	-0.498582	0.394551
F231	F	0.432500	-0.165248	0.727885
F232	F	-0.000065	-0.766091	-0.221987
F233	F	0.333269	-0.432758	0.111347
F234	F	0.666602	-0.099425	0.444680
F235	F	-0.000082	-0.528465	0.289090
F236	F	0.333251	-0.195132	0.622423
F237	F	0.666584	0.138201	0.955756
H238	H	-0.000085	-0.796688	-0.063804
H239	H	0.333248	-0.463355	0.269529
H240	H	0.666582	-0.130022	0.602862
H241	H	-0.000143	-0.184203	0.047870
H242	H	0.333191	0.149130	0.381203
H243	H	0.666524	0.482464	0.714537
H244	H	-0.000141	-0.333322	0.059859
H245	H	0.333192	0.000012	0.393192
H246	H	0.666525	0.333345	0.726526
