data_functionalizedCrystal
_audit_creation_method	'MofGen! by Chris Wilmer'
_symmetry_space_group_name_H-M	'P1'
_symmetry_Int_Tables_number	1
_symmetry_cell_setting	triclinic
loop_
_symmetry_equiv_pos_as_xyz
  x,y,z
_cell_length_a	6.817900
_cell_length_b	17.296643
_cell_length_c	17.110486
_cell_angle_alpha	100.228577
_cell_angle_beta	99.060439
_cell_angle_gamma	102.619114
loop_
_atom_site_label
_atom_site_type_symbol
_atom_site_fract_x
_atom_site_fract_y
_atom_site_fract_z
V1	V	-3.976383	-0.110854	-0.254664
O2	O	-3.965399	0.005573	-0.241624
O3	O	-3.927722	-0.220041	-0.260802
O4	O	-3.906249	-0.109041	-0.362138
O5	O	-3.987020	-0.106196	-0.139587
V6	V	-4.462861	-0.096941	-0.239943
O7	O	-4.231160	-0.141374	-0.286957
O8	O	-4.658282	-0.066421	-0.207650
O9	O	-4.288316	0.012247	-0.233806
O10	O	-4.591242	-0.213367	-0.252983
O11	O	-4.569621	-0.101599	-0.355020
O12	O	-4.309789	-0.098754	-0.132470
C13	C	-3.773362	-0.246662	-0.258817
C14	C	-3.814718	-0.335923	-0.264552
C15	C	-4.050018	-0.841340	-0.300648
C16	C	-4.011151	-0.757470	-0.295260
C17	C	-3.966150	-0.704136	-0.219283
C18	C	-3.960039	-0.734677	-0.148689
C19	C	-3.998920	-0.818546	-0.154078
C20	C	-3.847488	-0.450334	-0.199347
C21	C	-3.808599	-0.366459	-0.193963
C22	C	-3.859718	-0.389258	-0.340535
C23	C	-3.898586	-0.473128	-0.345916
C24	C	-3.892481	-0.503662	-0.275323
C25	C	-3.926414	-0.618406	-0.213774
C26	C	-3.932231	-0.589390	-0.280833
C27	C	-3.745971	-0.105069	-0.388080
C28	C	-3.769911	-0.104309	-0.475992
C29	C	-3.962435	-0.107959	-0.521611
C30	C	-3.984917	-0.107245	-0.604213
C31	C	-3.814875	-0.102886	-0.641196
C32	C	-3.622334	-0.099233	-0.595570
C33	C	-3.599852	-0.099941	-0.512968
C34	C	-3.873685	-0.100540	-0.890382
C35	C	-3.896184	-0.099834	-0.972991
C36	C	-4.258766	-0.107844	-0.981629
C37	C	-4.236269	-0.108558	-0.899026
C38	C	-4.043729	-0.104900	-0.853406
C39	C	-3.837852	-0.102158	-0.725629
C40	C	-4.020751	-0.105623	-0.768973
C41	C	-4.106018	0.038863	-0.235788
C42	C	-4.043900	0.128124	-0.230059
C43	C	-4.133410	-0.102728	-0.106523
C44	C	-4.088709	-0.103484	-0.018610
H45	H	-3.993936	-0.843406	-0.096597
H46	H	-3.716925	-0.097590	-0.853255
C47	C	-3.948140	-0.531815	-0.429482
C48	C	-4.154612	-0.596487	-0.457337
C49	C	-4.204180	-0.655185	-0.540898
C50	C	-4.047275	-0.649211	-0.596604
C51	C	-3.840789	-0.584536	-0.568750
C52	C	-3.791222	-0.525838	-0.485189
H53	H	-4.270775	-0.600912	-0.416100
H54	H	-4.357035	-0.703061	-0.561518
H55	H	-4.083968	-0.692663	-0.658461
H56	H	-3.724627	-0.580112	-0.609988
H57	H	-3.638367	-0.477962	-0.464570
H58	H	-4.086644	-0.884760	-0.362516
H59	H	-4.159196	-0.109169	-0.738858
H60	H	-3.968880	-0.632818	-0.342694
H61	H	-3.771940	-0.323035	-0.132090
H62	H	-3.757704	-0.096281	-1.003098
H63	H	-4.141685	-0.110213	-0.641352
H64	H	-4.016117	-0.732612	-0.352740
C65	C	-3.866455	-0.355669	-0.418184
C66	C	-3.674063	-0.297261	-0.430604
C67	C	-3.680812	-0.263673	-0.508257
C68	C	-3.879952	-0.288492	-0.573490
C69	C	-4.072358	-0.346903	-0.561072
C70	C	-4.065610	-0.380492	-0.483419
H71	H	-3.526634	-0.278885	-0.382312
H72	H	-3.538379	-0.220433	-0.517449
H73	H	-3.884948	-0.263628	-0.630973
H74	H	-4.219787	-0.365279	-0.609363
H75	H	-4.208043	-0.423732	-0.474227
H76	H	-3.842510	-0.475184	-0.141864
H77	H	-3.483882	-0.095678	-0.625686
H78	H	-3.923409	-0.691246	-0.086827
H79	H	-3.889767	-0.574972	-0.151913
H80	H	-4.100909	-0.111514	-0.491508
H81	H	-4.374739	-0.112107	-0.868921
H82	H	-3.443070	-0.096949	-0.475821
H83	H	-4.415525	-0.110821	-1.018781
H84	H	-3.699409	-0.098612	-0.755750
