data_functionalizedCrystal
_audit_creation_method	'MofGen! by Chris Wilmer'
_symmetry_space_group_name_H-M	'P1'
_symmetry_Int_Tables_number	1
_symmetry_cell_setting	triclinic
loop_
_symmetry_equiv_pos_as_xyz
  x,y,z
_cell_length_a	6.817900
_cell_length_b	13.167930
_cell_length_c	23.752930
_cell_angle_alpha	100.930141
_cell_angle_beta	100.066047
_cell_angle_gamma	105.754568
loop_
_atom_site_label
_atom_site_type_symbol
_atom_site_fract_x
_atom_site_fract_y
_atom_site_fract_z
V1	V	-4.006645	-0.150376	-0.186377
O2	O	-3.976347	0.005766	-0.174691
O3	O	-3.975799	-0.296766	-0.192929
O4	O	-3.941488	-0.148704	-0.264091
O5	O	-4.010896	-0.143322	-0.103036
V6	V	-4.490170	-0.131624	-0.175458
O7	O	-4.267900	-0.191511	-0.210328
O8	O	-4.679113	-0.090490	-0.151506
O9	O	-4.297810	0.014766	-0.168906
O10	O	-4.637866	-0.287766	-0.187143
O11	O	-4.603317	-0.138679	-0.258799
O12	O	-4.332121	-0.133297	-0.097743
C13	C	-3.825612	-0.332433	-0.192008
C14	C	-3.881567	-0.452113	-0.197883
C15	C	-3.924804	-0.645422	-0.102442
C16	C	-3.977377	-0.757871	-0.107960
C17	C	-4.039301	-0.789463	-0.214435
C18	C	-3.986728	-0.677014	-0.208917
C19	C	-3.929477	-0.604996	-0.152919
C20	C	-3.876889	-0.492545	-0.147402
C21	C	-3.938828	-0.524139	-0.253877
C22	C	-3.991401	-0.636588	-0.259394
C23	C	-3.781844	-0.143564	-0.282782
C24	C	-3.809970	-0.143165	-0.346366
C25	C	-4.166684	-0.145991	-0.743840
C26	C	-4.193132	-0.145602	-0.803582
O27	O	-4.361684	-0.149954	-0.837197
N28	N	-4.024226	-0.140018	-0.830262
C29	C	-3.828853	-0.134810	-0.797195
O30	O	-3.687614	-0.130023	-0.825374
C31	C	-3.802403	-0.135191	-0.737453
C32	C	-3.971328	-0.140787	-0.710778
C33	C	-4.335593	-0.151586	-0.717165
C34	C	-4.309146	-0.151976	-0.657427
C35	C	-4.113791	-0.146772	-0.624365
C36	C	-3.944882	-0.141178	-0.651041
C37	C	-3.607029	-0.129976	-0.704386
C38	C	-3.580593	-0.130357	-0.644641
C39	C	-3.749517	-0.135953	-0.617966
C40	C	-3.723080	-0.136365	-0.558241
N41	N	-3.891985	-0.141950	-0.531561
C42	C	-4.087341	-0.147153	-0.564623
C43	C	-3.884413	-0.134009	-0.922657
C44	C	-3.910864	-0.133636	-0.982399
C45	C	-4.275140	-0.144426	-0.988781
C46	C	-4.248691	-0.144807	-0.929039
C47	C	-4.053318	-0.139594	-0.895977
C48	C	-4.031788	-0.147974	-0.439170
C49	C	-4.005326	-0.148369	-0.379428
C50	C	-3.641050	-0.137573	-0.373049
C51	C	-3.667512	-0.137184	-0.432787
C52	C	-3.862895	-0.142381	-0.465846
O53	O	-3.554588	-0.132012	-0.524589
O54	O	-4.228544	-0.151925	-0.536435
C55	C	-4.111340	0.050427	-0.169825
C56	C	-4.034623	0.170106	-0.163954
C57	C	-4.155108	-0.138441	-0.079049
C58	C	-4.106220	-0.138834	-0.015465
H59	H	-4.038029	-0.695239	-0.304986
H60	H	-3.878160	-0.586783	-0.056846
H61	H	-4.142895	-0.152929	-0.357713
Br62	Br	-4.477956	-0.152401	-0.892844
H63	H	-4.434214	-0.148662	-1.015711
Br64	Br	-4.600749	-0.158651	-0.762024
H65	H	-4.190884	-0.152208	-0.466080
H66	H	-4.085951	-0.848118	-0.260026
Br67	Br	-3.681610	-0.126068	-1.018596
Br68	Br	-3.799179	-0.394807	-0.071406
H69	H	-3.973569	-0.790779	-0.066856
Br70	Br	-3.945157	-0.469272	-0.322386
Br71	Br	-3.619249	-0.126946	-0.877794
Br72	Br	-3.315426	-0.123270	-0.599772
H73	H	-4.446704	-0.156528	-0.635713
Br74	Br	-3.438266	-0.129608	-0.468993
H75	H	-3.469466	-0.125420	-0.726095
Br76	Br	-3.375934	-0.130517	-0.328169
