data_functionalizedCrystal
_audit_creation_method	'MofGen! by Chris Wilmer'
_symmetry_space_group_name_H-M	'P1'
_symmetry_Int_Tables_number	1
_symmetry_cell_setting	triclinic
loop_
_symmetry_equiv_pos_as_xyz
  x,y,z
_cell_length_a	12.759401
_cell_length_b	12.827892
_cell_length_c	12.759393
_cell_angle_alpha	89.970218
_cell_angle_beta	89.979062
_cell_angle_gamma	90.016917
loop_
_atom_site_label
_atom_site_type_symbol
_atom_site_fract_x
_atom_site_fract_y
_atom_site_fract_z
Zn1	Zn	1.606261	-0.415940	-0.594025
Zn2	Zn	1.606150	-0.590717	-0.418348
Zn3	Zn	1.430560	-0.415996	-0.418361
Zn4	Zn	1.430550	-0.590644	-0.593985
O5	O	1.518380	-0.503324	-0.506180
O6	O	1.753268	-0.439132	-0.570733
O7	O	1.582816	-0.567594	-0.271328
O8	O	1.453918	-0.269752	-0.441685
O9	O	1.753186	-0.567540	-0.441663
O10	O	1.583005	-0.269711	-0.570745
O11	O	1.453810	-0.439227	-0.271338
O12	O	1.283538	-0.439156	-0.441646
O13	O	1.453900	-0.567416	-0.741011
O14	O	1.283530	-0.567469	-0.570676
O15	O	1.582995	-0.439061	-0.741041
O16	O	1.582806	-0.736944	-0.441624
O17	O	1.453793	-0.736890	-0.570664
C18	C	1.245413	-0.503312	-0.506159
C19	C	1.128636	-0.503331	-0.506175
C20	C	1.073798	-0.570246	-0.573255
C21	C	0.964074	-0.570250	-0.573276
C22	C	0.964036	-0.436422	-0.439127
C23	C	1.073758	-0.436413	-0.439112
C24	C	1.518315	-0.774834	-0.506161
C25	C	1.518383	-0.890987	-0.506188
C26	C	1.582298	-0.942764	-0.442406
C27	C	1.582370	-1.062814	-0.442433
C28	C	1.792414	-0.503338	-0.506201
C29	C	1.909190	-0.503344	-0.506210
C30	C	1.518459	-0.503224	-0.780213
C31	C	1.518492	-0.503181	-0.896990
C32	C	1.518475	-0.230754	-0.506221
C33	C	1.518515	-0.114601	-0.506239
C34	C	1.585717	-0.436336	-0.951869
C35	C	1.585735	-0.436291	-1.061593
C36	C	1.451301	-0.569945	-1.061549
C37	C	1.451278	-0.569984	-0.951827
C38	C	1.518363	-0.503349	-0.233212
C39	C	1.518533	-0.503097	-0.116436
H40	H	1.118409	-0.381917	-0.384487
H41	H	1.636970	-0.898218	-0.387783
H42	H	1.637087	-1.107341	-0.387824
H43	H	1.640444	-0.381938	-0.907224
H44	H	1.396529	-0.624416	-0.907143
O45	O	1.453308	-0.944238	-0.571413
C46	C	1.513186	-1.007249	-0.639299
H47	H	1.592850	-1.023449	-0.602305
H48	H	1.524624	-0.965179	-0.717196
C49	C	1.357684	-1.091127	-0.703638
C50	C	1.455526	-1.111032	-0.658197
H51	H	1.322116	-1.155143	-0.715300
H52	H	1.317342	-1.048673	-0.657905
H53	H	1.367230	-1.056066	-0.768547
H54	H	1.445978	-1.146080	-0.593284
H55	H	1.495864	-1.153494	-0.703920
H56	H	1.118476	-0.624732	-0.627864
O57	O	0.910967	-0.635351	-0.638469
C58	C	0.982937	-0.694388	-0.697673
H59	H	1.061126	-0.697949	-0.654619
H60	H	0.994659	-0.656218	-0.777531
C61	C	0.844063	-0.801257	-0.765507
C62	C	0.940094	-0.805637	-0.712623
H63	H	0.817636	-0.869879	-0.774734
H64	H	0.795575	-0.761480	-0.725624
H65	H	0.853845	-0.769443	-0.832050
H66	H	0.930309	-0.837438	-0.646077
H67	H	0.988580	-0.845422	-0.752495
O68	O	1.453079	-1.061545	-0.571281
C69	C	1.348371	-1.088270	-0.548280
H70	H	1.343097	-1.118407	-0.464377
H71	H	1.320863	-1.151527	-0.604655
C72	C	1.284755	-0.954286	-0.663390
C73	C	1.278276	-0.991293	-0.560336
H74	H	1.241515	-0.894468	-0.670832
H75	H	1.355298	-0.936283	-0.678891
H76	H	1.261833	-1.007010	-0.710358
H77	H	1.301209	-0.938574	-0.513372
H78	H	1.207734	-1.009285	-0.544828
O79	O	0.910563	-0.371521	-0.374018
C80	C	0.801960	-0.385856	-0.388432
H81	H	0.786972	-0.466548	-0.422697
H82	H	0.770866	-0.323944	-0.444497
C83	C	0.763983	-0.277041	-0.240071
C84	C	0.745574	-0.376152	-0.282148
H85	H	0.729200	-0.271050	-0.174511
H86	H	0.837151	-0.267380	-0.230361
H87	H	0.738071	-0.225459	-0.286802
H88	H	0.771497	-0.427731	-0.235423
H89	H	0.672409	-0.385822	-0.291847
O90	O	1.386116	-0.634805	-1.114983
C91	C	1.400532	-0.620422	-1.223595
H92	H	1.481628	-0.586199	-1.238600
H93	H	1.338242	-0.564756	-1.254732
C94	C	1.291272	-0.768170	-1.261479
C95	C	1.390879	-0.726144	-1.279908
H96	H	1.285313	-0.833382	-1.296217
H97	H	1.281556	-0.777858	-1.188305
H98	H	1.239374	-0.721771	-1.287426
H99	H	1.442773	-0.772536	-1.253949
H100	H	1.400603	-0.716466	-1.353080
H101	H	1.640474	-0.381858	-1.106271
