data_functionalizedCrystal
_audit_creation_method	'MofGen! by Chris Wilmer'
_symmetry_space_group_name_H-M	'P1'
_symmetry_Int_Tables_number	1
_symmetry_cell_setting	triclinic
loop_
_symmetry_equiv_pos_as_xyz
  x,y,z
_cell_length_a	17.917603
_cell_length_b	12.970454
_cell_length_c	12.970454
_cell_angle_alpha	59.999776
_cell_angle_beta	89.999951
_cell_angle_gamma	57.011542
loop_
_atom_site_label
_atom_site_type_symbol
_atom_site_fract_x
_atom_site_fract_y
_atom_site_fract_z
Zr1	Zr	0.754907	1.033601	-0.087842
O2	O	0.629783	1.264424	-0.260333
O3	O	0.793264	0.813688	-0.034963
O4	O	0.793265	1.028777	-0.250054
O5	O	0.629781	1.049335	0.124424
O6	O	0.922222	1.012563	-0.241946
O7	O	0.629782	1.049334	-0.045243
O8	O	0.922220	0.627807	0.142812
O9	O	0.629784	1.434091	-0.260334
O10	O	0.905862	0.888000	-0.006361
O11	O	0.809622	0.900102	0.114208
O12	O	0.809623	1.153342	-0.139033
O13	O	0.713384	1.165443	-0.018464
Zr14	Zr	0.960577	1.007742	0.195688
Zr15	Zr	0.960579	1.007741	-0.074911
Zr16	Zr	0.754905	1.033603	0.182757
Zr17	Zr	0.754907	1.304201	-0.087843
Zr18	Zr	0.960577	0.737142	0.195689
O19	O	0.922220	1.227656	0.142809
O20	O	0.922222	1.227654	-0.241947
O21	O	0.629781	1.264426	0.124423
O22	O	1.085701	0.776920	0.368180
O23	O	1.085703	0.776918	-0.016577
O24	O	0.793262	0.813690	0.349793
O25	O	1.085703	0.992008	-0.016578
O26	O	0.922219	1.012566	0.357900
O27	O	0.793262	1.028781	0.349792
O28	O	1.085702	0.992009	0.153089
O29	O	0.793265	1.413535	-0.250056
O30	O	0.922219	0.627808	0.357902
O31	O	1.085701	0.607252	0.368180
O32	O	1.085702	0.607251	0.153091
O33	O	0.629782	1.434092	-0.045245
O34	O	0.793264	1.413537	-0.034966
O35	O	0.905861	0.888002	0.246879
O36	O	1.002101	0.875900	0.126310
O37	O	0.905862	1.141242	-0.006362
O38	O	0.809622	1.153343	0.114207
C39	C	0.857742	0.682193	0.053925
C40	C	0.857742	0.567316	0.053925
C41	C	0.600478	1.053019	0.037748
C42	C	0.513165	1.063998	0.032258
C43	C	0.353321	1.084051	0.022233
C44	C	0.362156	0.957299	0.085610
C45	C	0.273214	0.968457	0.080032
C46	C	0.442270	1.072896	0.027810
C47	C	1.115006	0.988324	0.070098
C48	C	1.202319	0.977346	0.075588
C49	C	0.857744	1.020670	-0.284554
C50	C	0.857744	1.020669	-0.399430
C51	C	0.857742	1.359151	0.053921
C52	C	0.857742	1.474028	0.053921
C53	C	0.857740	1.020674	0.392400
C54	C	0.857740	1.020674	0.507277
C55	C	1.115006	0.649845	0.070100
C56	C	1.202319	0.523990	0.075590
C57	C	0.857740	0.682195	0.392402
C58	C	0.857740	0.567318	0.507279
C59	C	1.115004	0.649847	0.408577
C60	C	1.202317	0.523993	0.528943
C61	C	0.600480	1.391496	-0.300731
C62	C	0.513167	1.517351	-0.421097
C63	C	0.600478	1.391498	0.037746
C64	C	0.513165	1.517354	0.032256
C65	C	0.857744	1.359149	-0.284556
C66	C	0.857745	1.474025	-0.399433
C67	C	1.193087	0.471203	0.008904
C68	C	1.275119	0.352965	0.014037
C69	C	1.366382	0.287508	0.085864
C70	C	1.375613	0.340306	0.152552
C71	C	1.293582	0.458549	0.147411
C72	C	1.293564	0.458572	0.522533
C73	C	1.375612	0.340333	0.635621
C74	C	1.366409	0.287508	0.755116
C75	C	1.275152	0.352941	0.761523
C76	C	1.193106	0.471185	0.648438
C77	C	0.421920	1.582784	-0.414687
C78	C	0.339873	1.701058	-0.527774
C79	C	0.349075	1.753887	-0.647270
C80	C	0.440333	1.688448	-0.653677
C81	C	0.522378	1.570185	-0.540592
C82	C	0.522397	1.570152	0.098931
C83	C	0.440365	1.688420	0.093768
C84	C	0.349102	1.753880	0.021937
C85	C	0.339871	1.701078	-0.044745
C86	C	0.421902	1.582819	-0.039589
H87	H	0.278964	1.200937	-0.036211
H88	H	0.447900	1.731391	0.148075
H89	H	0.596673	1.516909	-0.545826
H90	H	0.436518	0.840403	0.144058
C91	C	0.622781	1.498169	0.177943
C92	C	0.632916	1.556282	0.251263
C93	C	0.733296	1.484316	0.330271
C94	C	0.823541	1.354238	0.335959
C95	C	0.813409	1.296118	0.262636
C96	C	0.713029	1.368083	0.183628
H97	H	0.566109	1.652581	0.247055
H98	H	0.740796	1.527341	0.384550
H99	H	0.897849	1.300964	0.394446
H100	H	0.880217	1.199819	0.266845
H101	H	0.705529	1.325058	0.129350
H102	H	0.414408	1.539779	-0.317399
C103	C	0.258872	1.883957	0.016283
C104	C	0.186117	2.041529	-0.113672
C105	C	0.095892	2.171600	-0.119316
C106	C	0.078423	2.144099	0.004995
C107	C	0.151180	1.986519	0.134960
C108	C	0.241405	1.856448	0.140604
H109	H	0.199047	2.061894	-0.205703
H110	H	0.042032	2.288251	-0.215525
H111	H	0.011633	2.240385	0.000817
H112	H	0.138251	1.966155	0.226991
H113	H	0.295265	1.739798	0.236813
H114	H	1.449930	0.286994	0.211031
C115	C	1.092702	0.543196	-0.070116
C116	C	1.022487	0.715275	-0.181745
C117	C	0.922106	0.787266	-0.260775
C118	C	0.891940	0.687178	-0.228175
C119	C	0.962156	0.515088	-0.116540
C120	C	1.062538	0.443098	-0.037511
H121	H	1.044816	0.789376	-0.205882
H122	H	0.870127	0.914659	-0.343414
H123	H	0.817631	0.740470	-0.286677
H124	H	0.939827	0.440988	-0.092403
H125	H	1.114517	0.315705	0.045129
C126	C	0.239477	1.773076	-0.123739
C127	C	0.149254	1.903137	-0.129380
C128	C	0.048858	1.975128	-0.208361
C129	C	0.038684	1.917057	-0.281700
C130	C	0.128909	1.786990	-0.276061
C131	C	0.229306	1.714999	-0.197080
H132	H	0.156783	1.946131	-0.075088
H133	H	-0.017933	2.071413	-0.212535
H134	H	-0.035636	1.970349	-0.340166
H135	H	0.121381	1.743996	-0.330353
H136	H	0.296097	1.618714	-0.192906
H137	H	1.267584	0.309992	-0.040269
H138	H	1.433169	0.191226	0.090040
H139	H	0.414372	1.539835	-0.093881
H140	H	1.301112	0.501513	0.201723
C141	C	1.475986	0.268365	0.628553
C142	C	1.486099	0.326462	0.497106
C143	C	1.586471	0.254499	0.490034
C144	C	1.676728	0.124441	0.614410
C145	C	1.666618	0.066337	0.745867
C146	C	1.566247	0.138300	0.752938
H147	H	1.419283	0.422746	0.405027
H148	H	1.593954	0.297512	0.392721
H149	H	1.751029	0.071170	0.609176
H150	H	1.733435	-0.029947	0.837946
H151	H	1.558763	0.095287	0.850252
H152	H	1.301076	0.501563	0.425245
H153	H	1.433223	0.191225	0.847188
H154	H	0.447814	1.731478	-0.750984
H155	H	1.118811	0.524437	0.653675
C156	C	0.239498	1.773011	-0.520706
C157	C	0.209350	1.850957	-0.453191
C158	C	0.108980	1.922903	-0.446118
C159	C	0.038757	1.916904	-0.506560
C160	C	0.068904	1.838954	-0.574079
C161	C	0.169274	1.767008	-0.581152
H162	H	0.261334	1.855402	-0.408444
H163	H	0.086664	1.980607	-0.396136
H164	H	-0.035543	1.970162	-0.501324
H165	H	0.016920	1.834510	-0.618826
H166	H	0.191591	1.709305	-0.631135
H167	H	1.267673	0.309914	0.858832
H168	H	0.282261	1.850186	-0.739342
