data_functionalizedCrystal
_audit_creation_method	'MofGen! by Chris Wilmer'
_symmetry_space_group_name_H-M	'P1'
_symmetry_Int_Tables_number	1
_symmetry_cell_setting	triclinic
loop_
_symmetry_equiv_pos_as_xyz
  x,y,z
_cell_length_a	15.995350
_cell_length_b	10.540539
_cell_length_c	9.016244
_cell_angle_alpha	89.994699
_cell_angle_beta	89.998117
_cell_angle_gamma	95.991067
loop_
_atom_site_label
_atom_site_type_symbol
_atom_site_fract_x
_atom_site_fract_y
_atom_site_fract_z
O1	O	-0.117994	1.684271	-0.123255
O2	O	-0.129112	1.314706	-0.123272
O3	O	-0.001726	1.509591	-0.123269
O4	O	-0.245380	1.489386	-0.123259
O5	O	-0.001729	1.509562	0.123412
O6	O	-0.129115	1.314677	0.123408
O7	O	-0.117997	1.684243	0.123425
Cu8	Cu	-0.123556	1.499457	0.145941
Cu9	Cu	-0.123553	1.499491	-0.145788
O10	O	-0.245383	1.489358	0.123422
C11	C	-0.128280	1.267400	0.000066
C12	C	-0.125785	1.126486	0.000059
C13	C	-0.030202	0.944373	0.000630
C14	C	-0.032730	1.090956	0.000059
C15	C	-0.170565	1.064214	-0.140801
C16	C	-0.167389	0.917713	-0.140904
C17	C	-0.169286	0.917166	0.139619
C18	C	-0.170143	1.064137	0.141465
C19	C	-0.276581	1.490207	0.000083
C20	C	-0.369547	1.492711	0.000087
C21	C	-0.707348	1.501705	0.000065
C22	C	-0.660744	1.640498	-0.000479
C23	C	-0.564039	1.637994	0.000084
C24	C	-0.539761	1.497244	0.000075
C25	C	-0.580436	1.428770	0.140933
C26	C	-0.677093	1.432256	0.141044
C27	C	-0.677420	1.429421	-0.139479
C28	C	-0.580475	1.429454	-0.141332
C29	C	-0.445048	1.494715	0.000086
C30	C	-0.802061	1.504229	0.000064
C31	C	0.029472	1.508741	0.000067
C32	C	0.122438	1.506237	0.000053
C33	C	-0.118829	1.731549	0.000084
C34	C	-0.121324	1.872462	0.000081
N35	N	-0.123558	1.499443	0.351127
N36	N	-0.123544	1.499516	-0.350974
C37	C	-0.191473	1.394878	0.586158
C38	C	-0.191727	1.395104	0.414267
C39	C	-0.143433	1.631893	0.413473
C40	C	-0.143914	1.631320	0.585417
C41	C	-0.035546	1.472879	0.585665
C42	C	-0.036116	1.469826	0.413711
H43	H	-0.139172	0.886022	0.246389
H44	H	-0.698229	1.474808	-0.246245
H45	H	-0.016630	1.378402	0.629107
C46	C	-0.079695	1.739695	0.641600
N47	N	-0.031336	1.821336	0.683910
C48	C	-0.558900	1.290786	-0.152827
N49	N	-0.542653	1.186334	-0.161470
C50	C	0.019261	0.904242	-0.135067
N51	N	0.056516	0.874009	-0.237274
C52	C	-0.542486	1.492985	0.282563
N53	N	-0.513901	1.541357	0.389236
H54	H	-0.208115	1.654792	0.625511
C55	C	-0.526065	1.710743	-0.136300
N56	N	-0.497466	1.765556	-0.239019
C57	C	0.019462	0.906409	0.137098
N58	N	0.056870	0.877804	0.239888
C59	C	-0.687658	1.715093	0.135238
N60	N	-0.707930	1.771272	0.237466
C61	C	-0.128534	1.122332	-0.282429
N62	N	-0.096870	1.166104	-0.389101
C63	C	-0.125923	1.120018	0.282247
N64	N	-0.092609	1.162105	0.388281
H65	H	-0.179768	1.296652	0.372117
H66	H	-0.095309	1.711609	0.372570
C67	C	0.032759	1.575958	0.640597
N68	N	0.084200	1.653599	0.681981
H69	H	-0.553469	1.479454	-0.245538
C70	C	-0.279175	1.417537	0.644512
N71	N	-0.345231	1.434608	0.688467
C72	C	0.015205	1.148032	-0.136598
N73	N	0.051312	1.191020	-0.239536
C74	C	-0.015765	1.338195	0.358674
N75	N	-0.000439	1.239049	0.317213
C76	C	-0.260086	0.852113	0.140913
N77	N	-0.328473	0.803106	0.141878
H78	H	-0.206909	1.655918	0.370399
C79	C	-0.279926	1.418081	0.358678
N80	N	-0.346361	1.435395	0.316811
C81	C	0.035454	1.566108	0.355685
N82	N	0.089358	1.638647	0.311993
C83	C	-0.719505	1.291179	-0.140779
N84	N	-0.751209	1.187060	-0.141749
H85	H	-0.679592	1.695978	-0.101508
H86	H	-0.536503	1.692152	0.101241
H87	H	0.002504	1.134043	0.101033
H88	H	-0.695697	1.482166	0.246345
H89	H	-0.134290	0.889970	-0.246200
H90	H	-0.234313	0.868825	-0.147294
H91	H	-0.238902	1.085628	-0.146039
H92	H	-0.237986	1.087429	0.149973
H93	H	-0.708732	1.330356	0.147441
H94	H	-0.179697	1.296115	0.627546
H95	H	-0.565692	1.325364	0.146165
