data_functionalizedCrystal
_audit_creation_method	'MofGen! by Chris Wilmer'
_symmetry_space_group_name_H-M	'P1'
_symmetry_Int_Tables_number	1
_symmetry_cell_setting	triclinic
loop_
_symmetry_equiv_pos_as_xyz
  x,y,z
_cell_length_a	12.645331
_cell_length_b	12.594516
_cell_length_c	12.645323
_cell_angle_alpha	89.974378
_cell_angle_beta	89.984262
_cell_angle_gamma	90.011050
loop_
_atom_site_label
_atom_site_type_symbol
_atom_site_fract_x
_atom_site_fract_y
_atom_site_fract_z
Zn1	Zn	1.620774	-0.423755	-0.599245
Zn2	Zn	2.120774	0.076245	-0.099245
Zn3	Zn	1.620674	-0.601759	-0.421982
Zn4	Zn	2.120674	-0.101759	0.078018
Zn5	Zn	1.443489	-0.423792	-0.422010
Zn6	Zn	1.943489	0.076208	0.077990
Zn7	Zn	1.443489	-0.601690	-0.599219
Zn8	Zn	1.943489	-0.101690	-0.099219
O9	O	1.532107	-0.512749	-0.510614
O10	O	2.032107	-0.012749	-0.010614
O11	O	1.769108	-0.447381	-0.575729
O12	O	2.269108	0.052619	-0.075729
O13	O	1.597128	-0.578195	-0.273639
O14	O	2.097128	-0.078195	0.226361
O15	O	1.467048	-0.274842	-0.445543
O16	O	1.967048	0.225158	0.054457
O17	O	1.769035	-0.578160	-0.445495
O18	O	2.269035	-0.078160	0.054505
O19	O	1.597299	-0.274815	-0.575756
O20	O	2.097299	0.225185	-0.075756
O21	O	1.466951	-0.447444	-0.273659
O22	O	1.966951	0.052556	0.226341
O23	O	1.295142	-0.447377	-0.445519
O24	O	1.795142	0.052623	0.054481
O25	O	1.467048	-0.578042	-0.747570
O26	O	1.967048	-0.078042	-0.247570
O27	O	1.295142	-0.578078	-0.575713
O28	O	1.795142	-0.078078	-0.075713
O29	O	1.597299	-0.447315	-0.747588
O30	O	2.097299	0.052685	-0.247588
O31	O	1.597128	-0.750695	-0.445471
O32	O	2.097128	-0.250695	0.054529
O33	O	1.466951	-0.750645	-0.575686
O34	O	1.966951	-0.250645	-0.075686
C35	C	1.256677	-0.512725	-0.510617
C36	C	1.756677	-0.012725	-0.010617
C37	C	1.138847	-0.512740	-0.510643
C38	C	1.638847	-0.012740	-0.010643
C39	C	0.971318	-0.595415	-0.592121
C40	C	1.471318	-0.095415	-0.092121
C41	C	1.093878	-0.595148	-0.592462
C42	C	1.593878	-0.095148	-0.092462
C43	C	1.094357	-0.400635	-0.541166
C44	C	1.594357	0.099365	-0.041166
C45	C	0.971759	-0.401139	-0.541740
C46	C	1.471759	0.098861	-0.041740
C47	C	0.971604	-0.541268	-0.398383
C48	C	1.471604	-0.041268	0.101617
C49	C	1.094210	-0.543720	-0.398989
C50	C	1.594210	-0.043720	0.101011
C51	C	1.532058	-0.789290	-0.510596
C52	C	2.032058	-0.289290	-0.010596
C53	C	1.532134	-0.907595	-0.510623
C54	C	2.032134	-0.407595	-0.010623
C55	C	1.603019	-0.976837	-0.439875
C56	C	2.103019	-0.476837	0.060125
C57	C	1.628928	-1.047538	-0.536631
C58	C	2.128928	-0.547538	-0.036631
C59	C	1.506358	-1.047694	-0.413929
C60	C	2.006358	-0.547694	0.086071
C61	C	1.558092	-0.976738	-0.607430
C62	C	2.058092	-0.476738	-0.107430
C63	C	1.435476	-0.976887	-0.484663
C64	C	1.935476	-0.476887	0.015337
C65	C	1.461348	-1.047556	-0.581485
C66	C	1.961348	-0.547556	-0.081485
C67	C	1.808612	-0.512774	-0.510612
C68	C	2.308612	-0.012774	-0.010612
C69	C	1.926442	-0.512785	-0.510611
C70	C	2.426442	-0.012785	-0.010611
C71	C	1.532185	-0.512667	-0.787119
C72	C	2.032185	-0.012667	-0.287119
C73	C	1.532218	-0.512632	-0.904950
C74	C	2.032218	-0.012632	-0.404950
C75	C	1.532185	-0.235128	-0.510656
C76	C	2.032185	0.264872	-0.010656
C77	C	1.532218	-0.116823	-0.510674
C78	C	2.032218	0.383177	-0.010674
C79	C	1.450024	-0.594485	-1.072502
C80	C	1.950024	-0.094485	-0.572502
C81	C	1.450240	-0.594890	-0.949942
C82	C	1.950240	-0.094890	-0.449942
C83	C	1.643921	-0.543074	-0.949456
C84	C	2.143921	-0.043074	-0.449456
C85	C	1.643470	-0.543587	-1.072054
C86	C	2.143470	-0.043587	-0.572054
C87	C	1.503765	-0.399879	-1.072152
C88	C	2.003765	0.100121	-0.572152
C89	C	1.501273	-0.400554	-0.949546
C90	C	2.001273	0.099446	-0.449546
C91	C	1.532090	-0.512754	-0.235184
C92	C	2.032090	-0.012754	0.264816
C93	C	1.532262	-0.512490	-0.117355
C94	C	2.032262	-0.012490	0.382645
H95	H	1.125080	-0.376035	-0.622320
H96	H	1.625080	0.123965	-0.122320
H97	H	0.941835	-0.678823	-0.573203
H98	H	1.441835	-0.178823	-0.073203
F99	F	1.132242	-0.570509	-0.701154
F100	F	1.632242	-0.070509	-0.201154
H101	H	1.123959	-0.678281	-0.573333
H102	H	1.623959	-0.178281	-0.073333
H103	H	0.940525	-0.576809	-0.674794
H104	H	1.440525	-0.076809	-0.174794
H105	H	1.484521	-1.078860	-0.332135
H106	H	1.984521	-0.578860	0.167865
F107	F	1.676035	-0.649546	-0.909340
F108	F	2.176035	-0.149546	-0.409340
F109	F	0.931183	-0.646287	-0.362112
F110	F	1.431183	-0.146287	0.137888
F111	F	1.474879	-0.703998	-0.911617
F112	F	1.974879	-0.203998	-0.411617
F113	F	1.383042	-1.087891	-0.659803
F114	F	1.883042	-0.587891	-0.159803
H115	H	1.419070	-0.377596	-0.920457
H116	H	1.919070	0.122404	-0.420457
F117	F	1.328614	-0.936294	-0.455892
F118	F	1.828614	-0.436294	0.044108
F119	F	1.341432	-0.569821	-1.111029
F120	F	1.841432	-0.069821	-0.611029
H121	H	1.367409	-0.575840	-0.919850
H122	H	1.867409	-0.075840	-0.419850
H123	H	1.468654	-0.677447	-1.103318
H124	H	1.968654	-0.177447	-0.603318
F125	F	1.132218	-0.651553	-0.368904
F126	F	1.632218	-0.151553	0.131096
H127	H	1.667623	-0.625908	-1.100661
H128	H	2.167623	-0.125908	-0.600661
F129	F	1.726230	-0.468869	-1.110840
F130	F	2.226230	0.031131	-0.610840
F131	F	1.399151	-0.363609	-1.112555
F132	F	1.899151	0.136391	-0.612555
H133	H	1.706837	-0.485241	-0.920313
H134	H	2.206837	0.014759	-0.420313
H135	H	1.556794	-0.336233	-0.918919
H136	H	2.056794	0.163767	-0.418919
H137	H	1.579847	-0.945703	-0.689294
H138	H	2.079847	-0.445703	-0.189294
F139	F	1.582055	-0.320029	-1.110065
F140	F	2.082055	0.179971	-0.610065
H141	H	0.943182	-0.376980	-0.623783
H142	H	1.443182	0.123020	-0.123783
F143	F	1.681381	-0.936247	-0.361742
F144	F	2.181381	-0.436247	0.138258
F145	F	0.932952	-0.317942	-0.467528
F146	F	1.432952	0.182058	0.032472
F147	F	1.735819	-1.088086	-0.565383
F148	F	2.235819	-0.588086	-0.065383
H149	H	1.123484	-0.337396	-0.483652
H150	H	1.623484	0.162604	0.016348
H151	H	0.942581	-0.481080	-0.337651
H152	H	1.442581	0.018920	0.162349
F153	F	1.134214	-0.470758	-0.315348
F154	F	1.634214	0.029242	0.184652
