data_functionalizedCrystal
_audit_creation_method	'MofGen! by Chris Wilmer'
_symmetry_space_group_name_H-M	'P1'
_symmetry_Int_Tables_number	1
_symmetry_cell_setting	triclinic
loop_
_symmetry_equiv_pos_as_xyz
  x,y,z
_cell_length_a	18.101398
_cell_length_b	18.101397
_cell_length_c	18.101389
_cell_angle_alpha	89.978953
_cell_angle_beta	89.975673
_cell_angle_gamma	90.015732
loop_
_atom_site_label
_atom_site_type_symbol
_atom_site_fract_x
_atom_site_fract_y
_atom_site_fract_z
Zn1	Zn	1.132176	-0.295001	-0.418825
Zn2	Zn	1.132095	-0.418826	-0.294978
Zn3	Zn	1.008335	-0.294993	-0.294986
Zn4	Zn	1.008308	-0.418795	-0.418767
O5	O	1.070228	-0.356904	-0.356889
O6	O	1.235798	-0.311443	-0.402418
O7	O	1.115655	-0.402410	-0.191346
O8	O	1.024807	-0.191361	-0.311442
O9	O	1.235738	-0.402417	-0.311428
O10	O	1.115793	-0.191367	-0.402426
O11	O	1.024729	-0.311430	-0.191352
O12	O	0.904698	-0.311399	-0.311385
O13	O	1.024763	-0.402363	-0.522407
O14	O	0.904679	-0.402356	-0.402326
O15	O	1.115767	-0.311412	-0.522450
O16	O	1.115629	-0.522455	-0.311371
O17	O	1.024684	-0.522432	-0.402318
C18	C	0.877818	-0.356874	-0.356850
C19	C	0.795504	-0.356879	-0.356851
C20	C	0.496413	-0.356925	-0.356914
C21	C	0.527725	-0.299411	-0.299975
C22	C	0.613344	-0.299566	-0.299732
C23	C	0.644795	-0.356901	-0.356883
C24	C	0.613692	-0.434909	-0.335555
C25	C	0.528046	-0.434590	-0.335159
C26	C	0.528024	-0.337109	-0.435314
C27	C	0.613674	-0.335371	-0.434886
C28	C	0.728655	-0.356893	-0.356867
C29	C	0.412553	-0.356939	-0.356928
C30	C	1.070165	-0.549314	-0.356853
C31	C	1.070206	-0.631628	-0.356863
C32	C	1.070300	-0.930719	-0.356930
C33	C	1.127361	-0.899378	-0.299555
C34	C	1.127559	-0.813759	-0.299704
C35	C	1.070253	-0.782337	-0.356896
C36	C	1.091409	-0.813359	-0.434959
C37	C	1.091851	-0.899004	-0.434646
C38	C	0.991931	-0.899218	-0.336918
C39	C	0.992318	-0.813569	-0.335175
C40	C	1.070226	-0.698477	-0.356881
C41	C	1.070330	-1.014579	-0.356950
C42	C	1.263390	-0.356934	-0.356928
C43	C	1.345704	-0.356948	-0.356945
C44	C	1.070271	-0.356885	-0.550051
C45	C	1.070289	-0.356877	-0.632365
C46	C	1.070312	-0.163742	-0.356941
C47	C	1.070348	-0.081428	-0.356964
C48	C	1.070333	-0.356738	-0.931456
C49	C	1.012878	-0.413780	-0.900104
C50	C	1.013033	-0.414045	-0.814486
C51	C	1.070310	-0.356807	-0.783074
C52	C	1.148340	-0.377998	-0.814178
C53	C	1.148020	-0.378372	-0.899823
C54	C	1.050437	-0.278379	-0.899884
C55	C	1.048701	-0.278832	-0.814233
C56	C	1.070303	-0.356845	-0.699214
C57	C	1.070345	-0.356702	-1.015316
C58	C	1.070228	-0.356869	-0.164479
C59	C	1.070354	-0.356668	-0.082165
H60	H	0.634064	-0.478909	-0.375728
H61	H	1.052111	-0.919734	-0.478868
H62	H	1.149135	-0.918930	-0.451597
C63	C	1.098731	-0.845627	-0.174193
C64	C	1.109705	-0.785442	-0.221564
H65	H	1.087718	-0.828146	-0.125949
H66	H	1.058753	-0.874694	-0.191797
H67	H	1.142285	-0.874852	-0.172699
H68	H	1.066148	-0.756219	-0.223062
H69	H	1.149686	-0.756362	-0.203955
H70	H	0.991278	-0.262852	-0.793902
H71	H	0.635110	-0.452008	-0.278859
C72	C	0.459607	-0.270677	-0.527500
C73	C	0.498892	-0.261656	-0.461495
H74	H	0.441619	-0.224093	-0.543653
H75	H	0.491335	-0.290818	-0.564121
H76	H	0.419216	-0.303228	-0.519485
H77	H	0.539286	-0.229108	-0.469511
H78	H	0.467162	-0.241503	-0.424866
C79	C	0.459854	-0.193631	-0.257631
C80	C	0.499940	-0.221082	-0.317827
H81	H	0.442701	-0.145272	-0.268656
H82	H	0.418871	-0.225006	-0.248114
H83	H	0.490810	-0.191988	-0.215300
H84	H	0.468981	-0.222730	-0.360157
H85	H	0.540928	-0.189698	-0.327354
H86	H	1.087493	-0.234076	-0.792851
C87	C	1.142399	-0.188783	-0.866559
C88	C	1.106926	-0.221005	-0.927259
H89	H	1.177278	-0.153371	-0.883464
H90	H	1.106845	-0.165162	-0.836044
H91	H	1.167145	-0.225964	-0.839010
H92	H	1.082176	-0.183824	-0.954805
H93	H	1.142486	-0.244626	-0.957787
H94	H	0.955171	-0.400783	-0.793454
H95	H	0.506178	-0.312363	-0.242220
H96	H	0.634373	-0.241719	-0.313102
H97	H	0.976366	-0.793299	-0.277727
C98	C	0.963622	-0.738096	-0.440415
C99	C	0.931833	-0.784706	-0.387454
H100	H	0.926281	-0.720282	-0.472696
H101	H	0.986785	-0.697590	-0.416428
H102	H	0.999350	-0.764812	-0.468049
H103	H	0.896109	-0.757989	-0.359817
H104	H	0.908658	-0.825218	-0.411444
H105	H	1.051120	-0.793003	-0.478857
H106	H	1.114285	-0.920010	-0.241500
C107	C	0.580364	-0.327758	-0.174363
C108	C	0.640966	-0.317254	-0.221310
H109	H	0.597418	-0.338683	-0.125948
H110	H	0.551346	-0.284062	-0.173249
H111	H	0.551234	-0.367663	-0.192050
H112	H	0.670093	-0.277345	-0.203627
H113	H	0.669995	-0.360956	-0.222422
C114	C	0.561993	-0.471019	-0.212223
C115	C	0.501029	-0.457270	-0.257786
H116	H	0.545314	-0.485015	-0.164454
H117	H	0.590781	-0.509777	-0.232756
H118	H	0.591220	-0.427581	-0.208551
H119	H	0.471805	-0.500710	-0.261463
H120	H	0.472229	-0.418508	-0.237248
C121	C	1.252408	-0.868671	-0.331515
C122	C	1.205301	-0.928365	-0.317226
H123	H	1.300524	-0.886570	-0.342422
H124	H	1.234194	-0.841415	-0.372486
H125	H	1.254462	-0.837551	-0.289321
H126	H	1.203243	-0.959483	-0.359423
H127	H	1.223520	-0.955633	-0.276251
H128	H	0.972685	-0.920868	-0.280981
C129	C	0.560474	-0.530354	-0.420989
C130	C	0.500077	-0.494393	-0.388700
H131	H	0.543207	-0.567275	-0.454039
H132	H	0.589564	-0.495497	-0.447333
H133	H	0.589603	-0.552688	-0.383491
H134	H	0.470951	-0.472054	-0.426198
H135	H	0.470975	-0.529255	-0.362356
H136	H	0.634008	-0.277966	-0.450968
C137	C	1.259184	-0.363496	-0.970704
C138	C	1.207777	-0.324734	-0.927830
H139	H	1.296075	-0.330383	-0.987993
H140	H	1.281545	-0.400954	-0.941548
H141	H	1.234795	-0.385430	-1.011654
H142	H	1.232165	-0.302804	-0.886876
H143	H	1.185414	-0.287263	-0.956986
H144	H	1.185610	-0.793223	-0.312946
C145	C	0.969990	-0.518473	-0.969309
C146	C	1.030434	-0.491712	-0.929157
H147	H	0.980834	-0.566582	-0.987249
H148	H	0.927808	-0.520524	-0.938148
H149	H	0.960344	-0.486467	-1.009770
H150	H	1.040077	-0.523715	-0.888693
H151	H	1.072628	-0.489665	-0.960320
H152	H	0.954842	-0.400655	-0.920690
H153	H	1.148052	-0.791859	-0.452196
H154	H	0.635087	-0.374209	-0.479583
C155	C	0.977195	-0.541755	-0.812834
C156	C	1.030820	-0.492444	-0.786834
H157	H	0.988187	-0.590157	-0.795769
H158	H	0.930002	-0.527254	-0.795056
H159	H	0.977038	-0.541304	-0.865311
H160	H	1.030972	-0.492891	-0.734357
H161	H	1.078025	-0.506949	-0.804608
H162	H	0.949417	-0.919488	-0.378706
C163	C	1.184574	-0.501256	-0.865817
C164	C	1.170779	-0.455701	-0.926803
H165	H	1.198619	-0.548997	-0.882472
H166	H	1.223312	-0.480666	-0.837046
H167	H	1.141141	-0.505008	-0.836581
H168	H	1.214214	-0.451944	-0.956036
H169	H	1.132037	-0.476295	-0.955586
C170	C	0.561409	-0.429159	-0.524771
C171	C	0.500687	-0.393653	-0.492590
H172	H	0.544528	-0.464071	-0.560123
H173	H	0.591933	-0.393627	-0.548456
H174	H	0.588942	-0.453869	-0.487557
H175	H	0.473158	-0.368938	-0.529803
H176	H	0.470152	-0.429190	-0.468905
C177	C	1.174789	-0.270351	-0.741372
C178	C	1.207689	-0.323682	-0.786712
H179	H	1.211429	-0.236822	-0.724412
H180	H	1.138447	-0.244180	-0.768701
H181	H	1.152187	-0.293883	-0.700247
H182	H	1.230286	-0.300150	-0.827840
H183	H	1.244043	-0.349856	-0.759382
C184	C	0.945332	-0.306347	-0.975760
C185	C	0.974961	-0.252312	-0.929026
H186	H	0.898735	-0.290259	-0.993749
H187	H	0.977894	-0.314286	-1.016142
H188	H	0.939262	-0.351139	-0.949075
H189	H	0.981037	-0.207522	-0.955712
H190	H	0.942392	-0.244364	-0.888637
H191	H	1.165496	-0.434671	-0.792734
