data_functionalizedCrystal
_audit_creation_method	'MofGen! by Chris Wilmer'
_symmetry_space_group_name_H-M	'P1'
_symmetry_Int_Tables_number	1
_symmetry_cell_setting	triclinic
loop_
_symmetry_equiv_pos_as_xyz
  x,y,z
_cell_length_a	12.759401
_cell_length_b	11.169416
_cell_length_c	12.759393
_cell_angle_alpha	90.025475
_cell_angle_beta	89.980596
_cell_angle_gamma	89.987996
loop_
_atom_site_label
_atom_site_type_symbol
_atom_site_fract_x
_atom_site_fract_y
_atom_site_fract_z
Zn1	Zn	1.606275	0.477739	-0.594051
Zn2	Zn	1.606177	0.678472	-0.418390
Zn3	Zn	1.430576	0.477801	-0.418388
Zn4	Zn	1.430573	0.678378	-0.594029
O5	O	1.518400	0.578097	-0.506214
O6	O	1.753283	0.504380	-0.570760
O7	O	1.582844	0.651917	-0.271369
O8	O	1.453925	0.309843	-0.441699
O9	O	1.753211	0.651857	-0.441702
O10	O	1.583010	0.309797	-0.570758
O11	O	1.453831	0.504485	-0.271367
O12	O	1.283555	0.504395	-0.441677
O13	O	1.453920	0.651698	-0.741053
O14	O	1.283553	0.651758	-0.570719
O15	O	1.583007	0.504289	-0.741069
O16	O	1.582840	0.846409	-0.441680
O17	O	1.453825	0.846340	-0.570721
C18	C	1.245433	0.578074	-0.506196
C19	C	1.128656	0.578093	-0.506213
C20	C	0.964040	0.501283	-0.439152
C21	C	1.073764	0.501259	-0.439140
C22	C	1.073819	0.654946	-0.573310
C23	C	0.964097	0.654962	-0.573327
C24	C	0.964009	0.412557	-0.361686
C25	C	1.073733	0.412533	-0.361674
C26	C	1.518350	0.889922	-0.506222
C27	C	1.518425	1.023322	-0.506260
C28	C	1.792434	0.578122	-0.506234
C29	C	1.909210	0.578132	-0.506242
C30	C	1.518474	0.577976	-0.780248
C31	C	1.518505	0.577925	-0.897025
C32	C	1.518472	1.265055	-0.506244
C33	C	1.518483	1.131655	-0.506293
C34	C	1.585730	0.501162	-0.951897
C35	C	1.585755	0.501118	-1.061621
C36	C	1.451327	0.654611	-1.061591
C37	C	1.451298	0.654648	-0.951869
C38	C	1.663344	0.412547	-0.951915
C39	C	1.663369	0.412504	-1.061640
C40	C	1.518387	0.578131	-0.233247
C41	C	1.518560	0.577845	-0.116471
H42	H	0.929936	0.445756	-0.284352
H43	H	0.919459	0.717530	-0.627967
H44	H	1.118521	0.717496	-0.627930
H45	H	1.744741	0.437399	-1.091421
O46	O	1.113131	0.445365	-0.253842
H47	H	1.200121	0.445311	-0.253898
O48	O	1.378755	0.737426	-0.892709
H49	H	1.425712	0.798530	-0.842700
O50	O	1.378844	0.737357	-1.120751
H51	H	1.332087	0.790735	-1.064158
H52	H	1.740617	0.445868	-0.917884
O53	O	0.924574	0.289483	-0.390736
H54	H	0.992285	0.229218	-0.404956
H55	H	1.107783	0.324266	-0.390939
O56	O	1.634507	0.289436	-0.912472
H57	H	1.620400	0.229136	-0.980179
O58	O	1.624823	0.295517	-1.106736
H59	H	1.543396	0.278842	-1.079820
