data_functionalizedCrystal
_audit_creation_method	'MofGen! by Chris Wilmer'
_symmetry_space_group_name_H-M	'P1'
_symmetry_Int_Tables_number	1
_symmetry_cell_setting	triclinic
loop_
_symmetry_equiv_pos_as_xyz
  x,y,z
_cell_length_a	23.532407
_cell_length_b	13.339070
_cell_length_c	12.376457
_cell_angle_alpha	104.398083
_cell_angle_beta	78.784102
_cell_angle_gamma	99.238986
loop_
_atom_site_label
_atom_site_type_symbol
_atom_site_fract_x
_atom_site_fract_y
_atom_site_fract_z
O1	O	-0.782857	-0.103169	0.093856
O2	O	-0.619856	-0.120903	0.093888
O3	O	-0.682649	0.035039	0.093872
O4	O	-0.720064	-0.259112	0.093872
O5	O	-0.666950	-0.003893	-0.094136
O6	O	-0.604157	-0.159836	-0.094120
O7	O	-0.767158	-0.142102	-0.094152
Zn8	Zn	-0.683165	-0.157150	-0.123987
Zn9	Zn	-0.703849	-0.105855	0.123722
O10	O	-0.704365	-0.298044	-0.094137
C11	C	-0.590718	-0.139917	-0.000112
C12	C	-0.527283	-0.138556	-0.000099
C13	C	-0.668480	0.053199	-0.000129
C14	C	-0.649642	0.165314	-0.000121
C15	C	-0.796297	-0.123088	-0.000150
C16	C	-0.859732	-0.124447	-0.000155
C17	C	-0.141680	-0.222333	-0.000151
C18	C	-0.082075	-0.221073	-0.000158
O19	O	-0.057845	-0.298733	-0.000199
N20	N	-0.044504	-0.128362	-0.000155
C21	C	-0.066539	-0.036909	-0.000158
O22	O	-0.029108	0.042064	-0.000158
C23	C	-0.126141	-0.038172	-0.000159
C24	C	-0.163711	-0.130886	-0.000150
C25	C	-0.179248	-0.315039	-0.000142
C26	C	-0.238849	-0.316299	-0.000133
C27	C	-0.260880	-0.224852	-0.000133
C28	C	-0.223311	-0.132145	-0.000141
C29	C	-0.148174	0.053278	-0.000170
C30	C	-0.207782	0.052007	-0.000172
C31	C	-0.245351	-0.040706	-0.000162
C32	C	-0.304943	-0.041958	-0.000131
N33	N	-0.342514	-0.134668	-0.000133
C34	C	-0.320483	-0.226115	-0.000134
C35	C	0.058630	-0.034264	-0.000157
C36	C	0.118231	-0.032998	-0.000148
C37	C	0.102690	-0.217163	-0.000150
C38	C	0.043088	-0.218426	-0.000151
C39	C	0.021059	-0.126974	-0.000160
C40	C	-0.445647	-0.228753	-0.000114
C41	C	-0.505252	-0.230003	-0.000100
C42	C	-0.489706	-0.045840	-0.000104
C43	C	-0.430106	-0.044588	-0.000112
C44	C	-0.408079	-0.136053	-0.000121
O45	O	-0.329214	0.035661	-0.000094
O46	O	-0.357918	-0.305078	-0.000149
C47	C	-0.718535	-0.316204	-0.000133
C48	C	-0.737374	-0.428317	-0.000134
N49	N	-0.669053	-0.192157	-0.293041
C50	C	-0.796120	0.531572	-0.000150
C51	C	-0.813821	0.426235	-0.000164
C52	C	-0.772778	0.360999	-0.000153
C53	C	-0.714031	0.401112	-0.000128
C54	C	-0.696327	0.506458	-0.000123
C55	C	-0.672985	0.335885	-0.000126
C56	C	-0.614238	0.375998	-0.000101
C57	C	-0.596538	0.481334	-0.000095
C58	C	-0.637581	0.546569	-0.000107
C59	C	-0.690688	0.230539	-0.000131
C60	C	-0.590895	0.205425	-0.000104
C61	C	-0.573195	0.310762	-0.000090
C62	C	-0.750720	0.010443	-0.648047
C63	C	-0.760594	0.034945	-0.529709
C64	C	-0.737710	-0.021828	-0.470537
C65	C	-0.704950	-0.103108	-0.529713
C66	C	-0.695079	-0.127617	-0.648062
C67	C	-0.682068	-0.159889	-0.470551
C68	C	-0.649308	-0.241169	-0.529728
C69	C	-0.639439	-0.265673	-0.648065
C70	C	-0.662323	-0.208900	-0.707238
C71	C	-0.691939	-0.135380	-0.352203
C72	C	-0.636298	-0.273440	-0.352217
C73	C	-0.626424	-0.297942	-0.470555
N74	N	-0.717965	-0.070840	0.292777
H75	H	-0.427719	-0.303233	-0.000124
O76	O	-0.840380	0.601933	-0.000173
H77	H	-0.884204	0.556346	-0.000197
H78	H	0.148814	0.042502	-0.000138
H79	H	-0.269433	-0.391796	-0.000125
O80	O	-0.611605	-0.334665	-0.288402
H81	H	-0.647792	-0.372364	-0.234465
H82	H	-0.654282	-0.228846	-0.803598
O83	O	-0.604137	-0.353381	-0.711897
H84	H	-0.589888	-0.388751	-0.650874
O85	O	-0.754049	0.187292	-0.000143
H86	H	-0.758107	0.124039	-0.076778
H87	H	-0.861652	0.393582	-0.000186
H88	H	-0.161318	-0.389512	-0.000147
O89	O	-0.546620	0.135080	-0.000088
H90	H	-0.568800	0.055094	-0.000083
O91	O	-0.791865	0.247386	-0.000158
H92	H	-0.839611	0.230454	-0.000166
H93	H	-0.623172	0.632346	-0.000091
O94	O	-0.591100	-0.385621	-0.534380
H95	H	-0.552249	-0.354527	-0.588313
H96	H	0.012503	-0.293923	-0.000150
O97	O	-0.795923	0.122610	-0.465896
H98	H	-0.834779	0.091503	-0.411984
H99	H	-0.769354	0.056656	-0.696233
H100	H	-0.548702	0.513988	-0.000084
O101	O	-0.509831	0.354025	-0.000083
H102	H	-0.504419	0.438230	-0.000092
H103	H	-0.535840	-0.305505	-0.000092
H104	H	-0.718612	-0.069202	-0.304032
O105	O	-0.513479	0.052782	-0.000114
H106	H	-0.504717	0.113056	0.076513
O107	O	-0.107659	0.153272	-0.000203
H108	H	-0.133001	0.216634	-0.000224
H109	H	0.120639	-0.291625	-0.000156
H110	H	0.040698	0.040214	-0.000154
H111	H	-0.745750	-0.001875	-0.374181
O112	O	-0.231543	0.150647	-0.000176
H113	H	-0.195402	0.215322	-0.000175
H114	H	-0.399517	0.030910	-0.000103
