data_functionalizedCrystal
_audit_creation_method	'MofGen! by Chris Wilmer'
_symmetry_space_group_name_H-M	'P1'
_symmetry_Int_Tables_number	1
_symmetry_cell_setting	triclinic
loop_
_symmetry_equiv_pos_as_xyz
  x,y,z
_cell_length_a	19.077068
_cell_length_b	18.215407
_cell_length_c	18.215399
_cell_angle_alpha	90.020595
_cell_angle_beta	92.268164
_cell_angle_gamma	87.672995
loop_
_atom_site_label
_atom_site_type_symbol
_atom_site_fract_x
_atom_site_fract_y
_atom_site_fract_z
Zn1	Zn	-0.280210	-1.113288	-0.427884
Zn2	Zn	0.219790	-0.613288	0.072116
Zn3	Zn	-0.397912	-1.108246	-0.309754
Zn4	Zn	0.102088	-0.608246	0.190246
Zn5	Zn	-0.280232	-0.990219	-0.304831
Zn6	Zn	0.219768	-0.490219	0.195169
Zn7	Zn	-0.397872	-0.985238	-0.432776
Zn8	Zn	0.102128	-0.485238	0.067224
O9	O	-0.339056	-1.049248	-0.368811
O10	O	0.160944	-0.549248	0.131189
O11	O	-0.295831	-1.215603	-0.412227
O12	O	0.204169	-0.715603	0.087773
O13	O	-0.382327	-1.092564	-0.206118
O14	O	0.117673	-0.592564	0.293882
O15	O	-0.181738	-1.010739	-0.317046
O16	O	0.318262	-0.510739	0.182954
O17	O	-0.382306	-1.211899	-0.325438
O18	O	0.117694	-0.711899	0.174562
O19	O	-0.181722	-1.101157	-0.407453
O20	O	0.318278	-0.601157	0.092547
O21	O	-0.295869	-1.005851	-0.202500
O22	O	0.204131	-0.505851	0.297500
O23	O	-0.295830	-0.886574	-0.321789
O24	O	0.204170	-0.386574	0.178211
O25	O	-0.382238	-1.002249	-0.535110
O26	O	0.117762	-0.502249	-0.035110
O27	O	-0.382259	-0.882915	-0.415790
O28	O	0.117741	-0.382915	0.084210
O29	O	-0.295792	-1.096327	-0.531516
O30	O	0.204208	-0.596327	-0.031516
O31	O	-0.496398	-1.087734	-0.330182
O32	O	0.003602	-0.587734	0.169818
O33	O	-0.496368	-0.997360	-0.420565
O34	O	0.003632	-0.497360	0.079435
C35	C	-0.339043	-0.858042	-0.368787
C36	C	0.160957	-0.358042	0.131213
C37	C	-0.339054	-0.776243	-0.368795
C38	C	0.160946	-0.276243	0.131205
C39	C	-0.384127	-0.586159	-0.417682
C40	C	0.115873	-0.086159	0.082318
C41	C	-0.384128	-0.509300	-0.417691
C42	C	0.115872	-0.009300	0.082309
C43	C	-0.293990	-0.513088	-0.319943
C44	C	0.206010	-0.013088	0.180057
C45	C	-0.293986	-0.589945	-0.319939
C46	C	0.206014	-0.089945	0.180061
C47	C	-0.339058	-0.626479	-0.368808
C48	C	0.160942	-0.126479	0.131192
C49	C	-0.339064	-0.472763	-0.368820
C50	C	0.160936	0.027237	0.131180
C51	C	-0.339065	-0.389429	-0.368829
C52	C	0.160935	0.110571	0.131171
C53	C	-0.339056	-0.709818	-0.368800
C54	C	0.160944	-0.209818	0.131200
C55	C	-0.521920	-1.041479	-0.376454
C56	C	-0.021920	-0.541479	0.123546
C57	C	-0.600150	-1.038223	-0.379749
C58	C	-0.100150	-0.538223	0.120251
C59	C	-0.636895	-1.083783	-0.334278
C60	C	-0.136895	-0.583783	0.165722
C61	C	-0.710401	-1.080725	-0.337381
C62	C	-0.210401	-0.580725	0.162619
C63	C	-0.747160	-1.032103	-0.385952
C64	C	-0.247160	-0.532103	0.114048
C65	C	-0.710410	-0.986542	-0.431428
C66	C	-0.210410	-0.486542	0.068572
C67	C	-0.636906	-0.989604	-0.428328
C68	C	-0.136906	-0.489604	0.071672
C69	C	-0.966994	-1.017899	-0.400268
C70	C	-0.466994	-0.517899	0.099732
C71	C	-1.040504	-1.014838	-0.403362
C72	C	-0.540504	-0.514838	0.096638
C73	C	-1.040489	-1.109023	-0.309316
C74	C	-0.540489	-0.609023	0.190684
C75	C	-0.966983	-1.112078	-0.306218
C76	C	-0.466983	-0.612078	0.193782
C77	C	-0.930240	-1.066519	-0.351696
C78	C	-0.430240	-0.566519	0.148304
N79	N	-0.822294	-1.028975	-0.389123
N80	N	-0.322294	-0.528975	0.110877
N81	N	-0.855107	-1.069652	-0.348528
N82	N	-0.355107	-0.569652	0.151472
C83	C	-0.155478	-1.057066	-0.361154
C84	C	0.344522	-0.557066	0.138846
C85	C	-0.077248	-1.060398	-0.357891
C86	C	0.422752	-0.560398	0.142109
C87	C	-0.339008	-1.049294	-0.560762
C88	C	0.160992	-0.549294	-0.060762
C89	C	-0.338987	-1.049314	-0.642560
C90	C	0.161013	-0.549314	-0.142560
C91	C	-0.339068	-0.241200	-0.368833
C92	C	0.160932	0.258800	0.131167
C93	C	-0.339068	-0.322999	-0.368833
C94	C	0.160932	0.177001	0.131167
C95	C	-0.293933	-1.098319	-0.828882
C96	C	0.206067	-0.598319	-0.328882
C97	C	-0.293913	-1.098329	-0.905740
C98	C	0.206087	-0.598329	-0.405740
C99	C	-0.383933	-1.000366	-0.909472
C100	C	0.116067	-0.500366	-0.409472
C101	C	-0.383949	-1.000353	-0.832615
C102	C	0.116051	-0.500353	-0.332615
C103	C	-0.338950	-1.049334	-0.792322
C104	C	0.161050	-0.549334	-0.292322
C105	C	-0.338913	-1.049357	-0.946037
C106	C	0.161087	-0.549357	-0.446037
C107	C	-0.338891	-1.049367	-1.029370
C108	C	0.161109	-0.549367	-0.529370
C109	C	-0.338971	-1.049323	-0.708984
C110	C	0.161029	-0.549323	-0.208984
C111	C	-0.339054	-1.049245	-0.177605
C112	C	0.160946	-0.549245	0.322395
C113	C	-0.338876	-1.049376	-0.095799
C114	C	0.161124	-0.549376	0.404201
H115	H	-0.420825	-0.615903	-0.457476
H116	H	0.079175	-0.115903	0.042524
H117	H	-0.257290	-1.138201	-0.796078
H118	H	0.242710	-0.638201	-0.296078
H119	H	-0.257254	-1.138217	-0.935504
H120	H	0.242746	-0.638217	-0.435504
H121	H	-0.740345	-0.946956	-0.470978
H122	H	-0.240345	-0.446956	0.029022
H123	H	-0.420607	-0.960459	-0.802847
H124	H	0.079393	-0.460459	-0.302847
F125	F	-0.246011	-0.632859	-0.267921
F126	F	0.253989	-0.132859	0.232079
F127	F	-0.432095	-0.466393	-0.469711
F128	F	0.067905	0.033607	0.030289
H129	H	-0.606970	-1.123373	-0.294723
H130	H	-0.106970	-0.623373	0.205277
H131	H	-0.257295	-0.483333	-0.280155
H132	H	0.242705	0.016667	0.219845
H133	H	-0.420570	-0.960489	-0.942287
H134	H	0.079430	-0.460489	-0.442287
F135	F	-0.927899	-0.969410	-0.448670
F136	F	-0.427899	-0.469410	0.051330
F137	F	-0.927867	-1.163836	-0.254530
F138	F	-0.427867	-0.663836	0.245470
F139	F	-0.749504	-1.129218	-0.288986
F140	F	-0.249504	-0.629218	0.211014
H141	H	-1.070431	-0.975253	-0.442927
H142	H	-0.570431	-0.475253	0.057073
F143	F	-1.079599	-1.157510	-0.260921
F144	F	-0.579599	-0.657510	0.239079
F145	F	-0.597800	-0.941115	-0.476726
F146	F	-0.097800	-0.441115	0.023274
