data_functionalizedCrystal
_audit_creation_method	'MofGen! by Chris Wilmer'
_symmetry_space_group_name_H-M	'P1'
_symmetry_Int_Tables_number	1
_symmetry_cell_setting	triclinic
loop_
_symmetry_equiv_pos_as_xyz
  x,y,z
_cell_length_a	19.188930
_cell_length_b	12.376457
_cell_length_c	13.339070
_cell_angle_alpha	104.398083
_cell_angle_beta	99.387037
_cell_angle_gamma	78.732154
loop_
_atom_site_label
_atom_site_type_symbol
_atom_site_fract_x
_atom_site_fract_y
_atom_site_fract_z
O1	O	0.960520	-0.094379	0.106678
O2	O	0.760527	-0.094302	0.123681
O3	O	0.837571	-0.094328	-0.031980
O4	O	0.883477	-0.094352	0.262339
O5	O	0.818309	0.093691	0.006883
O6	O	0.741266	0.093717	0.162544
O7	O	0.941258	0.093640	0.145541
Zn8	Zn	0.838204	0.123530	0.160213
Zn9	Zn	0.863582	-0.124192	0.109010
O10	O	0.864215	0.093666	0.301202
C11	C	0.724777	-0.000283	0.142565
C12	C	0.646946	-0.000253	0.140919
N13	N	0.820889	0.292595	0.195156
N14	N	0.880901	-0.293257	0.074058
C15	C	0.619911	-0.000278	0.232248
C16	C	0.546784	-0.000290	0.230694
C17	C	0.500698	-0.000300	0.137802
C18	C	0.527740	-0.000268	0.046463
C19	C	0.600864	-0.000245	0.048021
N20	N	0.385373	-0.064331	0.053564
N21	N	0.315909	-0.064356	0.052089
C22	C	0.280378	-0.000369	0.133100
N23	N	0.316939	0.063629	0.215654
N24	N	0.386410	0.063649	0.217131
C25	C	0.421406	-0.000325	0.136101
C26	C	0.174051	-0.000406	0.222750
C27	C	0.100923	-0.000411	0.221193
C28	C	0.081881	-0.000401	0.036957
C29	C	0.155007	-0.000384	0.038519
C30	C	0.201089	-0.000392	0.131416
C31	C	0.977009	-0.000382	0.126657
C32	C	1.054841	-0.000419	0.128301
C33	C	0.820186	-0.000317	-0.050203
C34	C	0.797072	-0.000313	-0.162402
C35	C	0.921090	0.647546	-0.007078
C36	C	0.933205	0.529202	-0.031536
C37	C	0.905126	0.470044	0.025135
C38	C	0.864932	0.529242	0.106268
C39	C	0.852821	0.647598	0.130733
C40	C	0.836858	0.470096	0.162946
C41	C	0.796663	0.529294	0.244079
C42	C	0.784554	0.647638	0.268540
C43	C	0.812632	0.706796	0.211869
C44	C	0.848969	0.351740	0.138481
C45	C	0.780700	0.351793	0.276292
C46	C	0.768585	0.470136	0.300750
C47	C	0.976793	-0.000381	-0.528004
C48	C	0.998510	-0.000379	-0.422587
C49	C	0.948153	-0.000363	-0.357535
C50	C	0.876074	-0.000348	-0.397911
C51	C	0.854353	-0.000342	-0.503337
C52	C	0.825713	-0.000323	-0.332869
C53	C	0.753634	-0.000309	-0.373244
C54	C	0.731917	-0.000303	-0.478660
C55	C	0.782275	-0.000319	-0.543711
C56	C	0.847434	-0.000330	-0.227443
C57	C	0.724994	-0.000290	-0.202776
C58	C	0.703276	-0.000293	-0.308193
C59	C	0.881600	-0.000347	0.319425
C60	C	0.904714	-0.000359	0.431622
H61	H	0.657427	-0.000287	0.307892
H62	H	0.751832	0.695837	0.334610
H63	H	0.673225	-0.000283	-0.511528
N64	N	0.976555	0.465359	-0.119035
H65	H	0.946253	0.416274	-0.173841
H66	H	1.019948	0.416301	-0.090578
N67	N	0.071785	-0.000421	0.319728
H68	H	0.049024	-0.070120	0.308807
H69	H	0.034750	0.069323	0.337561
N70	N	0.925172	-0.000353	-0.183906
H71	H	0.931293	-0.000351	-0.107252
H72	H	0.940961	0.069343	-0.193318
N73	N	0.032182	-0.000398	-0.063234
H74	H	-0.018245	-0.000413	-0.050364
H75	H	0.047963	-0.070091	-0.117595
H76	H	0.524767	-0.000308	0.305067
N77	N	0.725233	0.533990	0.388253
H78	H	0.721822	0.617938	0.395147
H79	H	0.749295	0.513294	0.455655
N80	N	0.184172	-0.000356	-0.059986
H81	H	0.143882	-0.000363	-0.119070
H82	H	0.221258	-0.070045	-0.077762
N83	N	0.478036	-0.000266	-0.053727
H84	H	0.427609	-0.000285	-0.040857
H85	H	0.493818	-0.069955	-0.108092
N86	N	0.799569	0.834442	0.238248
H87	H	0.820103	0.862937	0.312776
H88	H	0.746391	0.862891	0.229550
H89	H	0.622875	-0.000225	-0.026352
N90	N	0.750415	0.288003	0.337428
H91	H	0.764184	0.204047	0.309617
H92	H	0.696540	0.308725	0.330212
N93	N	0.670670	-0.000281	-0.132634
H94	H	0.632986	0.069430	-0.131182
H95	H	0.695420	-0.000335	-0.059763
H96	H	1.017785	-0.000385	-0.580975
H97	H	0.211572	-0.000396	0.298396
H98	H	0.914992	0.373683	0.005218
N99	N	0.951373	0.711359	-0.068182
H100	H	0.911018	0.760490	-0.102683
H101	H	0.978681	0.655838	-0.123241
H102	H	0.965840	-0.000361	-0.271701
N103	N	0.892312	0.287885	0.050977
H104	H	0.941980	0.308442	0.066688
H105	H	0.868216	0.308520	-0.016435
H106	H	1.057197	-0.000389	-0.389720
H107	H	0.764596	-0.000325	-0.629553
H108	H	0.644588	-0.000280	-0.341082
