data_functionalizedCrystal
_audit_creation_method	'MofGen! by Chris Wilmer'
_symmetry_space_group_name_H-M	'P1'
_symmetry_Int_Tables_number	1
_symmetry_cell_setting	triclinic
loop_
_symmetry_equiv_pos_as_xyz
  x,y,z
_cell_length_a	25.639233
_cell_length_b	18.050591
_cell_length_c	18.050589
_cell_angle_alpha	90.024227
_cell_angle_beta	90.012314
_cell_angle_gamma	90.019409
loop_
_atom_site_label
_atom_site_type_symbol
_atom_site_fract_x
_atom_site_fract_y
_atom_site_fract_z
Zn1	Zn	-0.295727	-1.135281	0.295829
Zn2	Zn	-0.208301	-1.135195	0.419999
Zn3	Zn	-0.208295	-1.011104	0.295819
Zn4	Zn	-0.295695	-1.011049	0.419973
O5	O	-0.252005	-1.073157	0.357905
O6	O	-0.284146	-1.239195	0.312316
O7	O	-0.135135	-1.118722	0.403534
O8	O	-0.219904	-1.027635	0.191896
O9	O	-0.219914	-1.239131	0.403543
O10	O	-0.284140	-1.118868	0.191903
O11	O	-0.135131	-1.027552	0.312299
O12	O	-0.219874	-0.907172	0.312273
O13	O	-0.368865	-1.027541	0.403498
O14	O	-0.284086	-0.907131	0.403489
O15	O	-0.368888	-1.118815	0.312290
O16	O	-0.219884	-1.118668	0.523921
O17	O	-0.284092	-1.027458	0.523901
C18	C	-0.251976	-0.880205	0.357877
C19	C	-0.251976	-0.797659	0.357884
C20	C	-0.251996	-1.073068	0.550857
C21	C	-0.252010	-1.073097	0.633403
C22	C	-0.388378	-1.073181	0.357892
C23	C	-0.446492	-1.073192	0.357887
C24	C	-0.806873	-1.120778	0.310253
C25	C	-0.861477	-1.120787	0.310233
O26	O	-0.889729	-1.161186	0.269821
N27	N	-0.888775	-1.073273	0.357712
C28	C	-0.861465	-1.025742	0.405210
O29	O	-0.889697	-0.985329	0.445593
C30	C	-0.806861	-1.025730	0.405227
C31	C	-0.779567	-1.073252	0.357749
C32	C	-0.779578	-1.168295	0.262779
C33	C	-0.724978	-1.168287	0.262801
C34	C	-0.697672	-1.120761	0.310297
C35	C	-0.724966	-1.073243	0.357771
C36	C	-0.779553	-0.978195	0.452720
C37	C	-0.724946	-0.978187	0.452732
C38	C	-0.697651	-1.025709	0.405255
C39	C	-0.643060	-1.025709	0.405288
N40	N	-0.615762	-1.073223	0.357809
C41	C	-0.643068	-1.120749	0.310313
C42	C	-0.976136	-1.025771	0.405172
C43	C	-1.030738	-1.025786	0.405160
C44	C	-1.030747	-1.120830	0.310181
C45	C	-0.976143	-1.120818	0.310197
C46	C	-0.948838	-1.073284	0.357692
C47	C	-0.528403	-1.120728	0.310363
C48	C	-0.473798	-1.120717	0.310391
C49	C	-0.473794	-1.025671	0.405366
C50	C	-0.528395	-1.025684	0.405341
C51	C	-0.555698	-1.073215	0.357833
O52	O	-0.614773	-0.985328	0.445678
O53	O	-0.614829	-1.161149	0.269930
C54	C	-0.116162	-1.073176	0.357865
C55	C	-0.058049	-1.073310	0.357661
C56	C	-0.252034	-1.266863	0.357933
C57	C	-0.252047	-1.349409	0.357945
C58	C	-0.217138	-0.598209	0.308223
C59	C	-0.204275	-0.548790	0.375957
C60	C	-0.252000	-0.646529	0.357906
C61	C	-0.264861	-0.548867	0.290196
C62	C	-0.252021	-0.500544	0.357922
C63	C	-0.239112	-0.598197	0.425676
C64	C	-0.299721	-0.598278	0.339868
C65	C	-0.286876	-0.548881	0.407649
C66	C	-0.251986	-0.730627	0.357896
C67	C	-0.252035	-0.416447	0.357940
C68	C	-0.252025	-1.073268	0.164200
C69	C	-0.252034	-1.073315	0.081654
C70	C	-0.286914	-1.023546	0.832870
C71	C	-0.239203	-1.005450	0.882296
C72	C	-0.252017	-1.073170	0.784533
C73	C	-0.299733	-1.091303	0.882189
C74	C	-0.252028	-1.073239	0.930518
C75	C	-0.204280	-1.055039	0.832872
C76	C	-0.264843	-1.140923	0.832761
C77	C	-0.217099	-1.122853	0.882165
C78	C	-0.252011	-1.073129	0.700435
C79	C	-0.252028	-1.073281	1.014615
H80	H	-0.451577	-1.159418	0.271728
H81	H	-0.953907	-0.987062	0.443852
Br82	Br	-0.336034	-0.953503	0.796791
H83	H	-0.163927	-0.527054	0.391225
H84	H	-0.340082	-1.106612	0.903852
H85	H	-0.228197	-0.619776	0.482961
Br86	Br	-0.565449	-1.185229	0.245882
H87	H	-0.340056	-0.620032	0.324579
H88	H	-0.702759	-1.206983	0.224139
Br89	Br	-0.336031	-0.513006	0.477765
H90	H	-0.275713	-0.527158	0.232935
H91	H	-1.052989	-1.159527	0.271506
H92	H	-0.275704	-1.198174	0.810989
Br93	Br	-0.221121	-0.910002	0.918558
H94	H	-0.702717	-0.939470	0.491401
H95	H	-0.163920	-1.039663	0.811299
H96	H	-0.187558	-1.164848	0.903673
H97	H	-0.187624	-0.619868	0.266253
H98	H	-0.801805	-1.206997	0.224098
Br99	Br	-0.939106	-1.185314	0.245762
H100	H	-1.052956	-0.987097	0.443829
Br101	Br	-0.436725	-0.961174	0.469821
Br102	Br	-0.565439	-0.961195	0.469781
Br103	Br	-0.816581	-0.913701	0.517163
