data_functionalizedCrystal
_audit_creation_method	'MofGen! by Chris Wilmer'
_symmetry_space_group_name_H-M	'P1'
_symmetry_Int_Tables_number	1
_symmetry_cell_setting	triclinic
loop_
_symmetry_equiv_pos_as_xyz
  x,y,z
_cell_length_a	17.917603
_cell_length_b	19.377372
_cell_length_c	19.377574
_cell_angle_alpha	55.725413
_cell_angle_beta	104.460100
_cell_angle_gamma	69.478848
loop_
_atom_site_label
_atom_site_type_symbol
_atom_site_fract_x
_atom_site_fract_y
_atom_site_fract_z
Zr1	Zr	0.844087	0.706825	-0.186021
O2	O	0.708867	0.867282	-0.335034
O3	O	0.870182	0.555854	-0.122407
O4	O	0.850103	0.706303	-0.299476
O5	O	0.762254	0.713937	-0.038689
O6	O	0.978983	0.695099	-0.291827
O7	O	0.728946	0.716833	-0.157965
O8	O	1.014900	0.425974	0.024918
O9	O	0.726337	0.983062	-0.355434
O10	O	0.996047	0.606076	-0.111234
O11	O	0.924724	0.612275	-0.027928
O12	O	0.901083	0.789409	-0.236405
O13	O	0.829760	0.795609	-0.153099
Zr14	Zr	1.102758	0.684338	0.016411
Zr15	Zr	1.049635	0.688957	-0.173821
Zr16	Zr	0.897211	0.702205	0.004211
Zr17	Zr	0.871950	0.891481	-0.218555
Zr18	Zr	1.074896	0.499681	0.048946
O19	O	1.076664	0.835308	-0.047203
O20	O	1.001129	0.841876	-0.317688
O21	O	0.784401	0.860714	-0.064549
O22	O	1.237979	0.523880	0.165425
O23	O	1.162444	0.530448	-0.105060
O24	O	0.945716	0.549286	0.148078
O25	O	1.184591	0.677225	-0.130921
O26	O	1.096743	0.684860	0.129867
O27	O	0.967863	0.696063	0.122218
O28	O	1.217900	0.674329	-0.011645
O29	O	0.889720	0.968860	-0.345736
O30	O	1.057126	0.422302	0.176127
O31	O	1.220509	0.408100	0.185824
O32	O	1.178283	0.411772	0.034615
O33	O	0.768563	0.979391	-0.204225
O34	O	0.931946	0.965188	-0.194527
O35	O	1.045762	0.601753	0.066795
O36	O	1.117086	0.595554	-0.016511
O37	O	1.022122	0.778887	-0.141681
O38	O	0.950799	0.785086	-0.058376
C39	C	0.938571	0.464604	-0.044109
C40	C	0.926743	0.386213	-0.030297
C41	C	1.074004	0.112199	-0.202274
C42	C	1.062881	0.038538	-0.189283
C43	C	0.988425	0.045019	-0.102318
C44	C	0.999537	0.118686	-0.115306
C45	C	1.042328	0.152269	-0.165284
C46	C	0.967862	0.158756	-0.078316
C47	C	0.978978	0.232413	-0.091299
C48	C	1.021769	0.265999	-0.141272
C49	C	1.053444	0.225926	-0.178267
C50	C	0.925077	0.125166	-0.028332
C51	C	0.893401	0.165236	0.008658
C52	C	0.904511	0.238900	-0.004331
C53	C	0.947303	0.272486	-0.054304
C54	C	0.872836	0.278973	0.032664
C55	C	0.883952	0.352630	0.019681
C56	C	0.958419	0.346143	-0.067287
C57	C	0.716314	0.717931	-0.100065
C58	C	0.629054	0.725516	-0.105244
C59	C	0.469306	0.739372	-0.114703
C60	C	0.477532	0.651795	-0.054910
C61	C	0.388644	0.659504	-0.060173
C62	C	0.558201	0.731665	-0.109441
C63	C	1.230532	0.673231	-0.069545
C64	C	1.317792	0.665646	-0.064365
C65	C	0.906974	0.701359	-0.322756
C66	C	0.884422	0.703320	-0.403514
C67	C	1.008274	0.926558	-0.125501
C68	C	1.020103	1.004949	-0.139312
C69	C	1.165227	0.678905	-0.648067
C70	C	1.144011	0.680752	-0.723954
C71	C	1.002018	0.693095	-0.732364
C72	C	1.023220	0.691255	-0.656479
C73	C	1.104826	0.684158	-0.614336
C74	C	0.962819	0.696508	-0.622748
C75	C	0.984022	0.694662	-0.546866
C76	C	1.065627	0.687563	-0.504715
C77	C	1.126030	0.682313	-0.538454
C78	C	0.881217	0.703596	-0.664887
C79	C	0.820816	0.708850	-0.631156
C80	C	0.842015	0.707011	-0.555278
C81	C	0.923619	0.699912	-0.513127
C82	C	0.781612	0.712262	-0.521539
C83	C	0.802815	0.710416	-0.445657
C84	C	0.944823	0.698067	-0.437245
C85	C	1.039872	0.689803	0.153146
C86	C	1.062424	0.687842	0.233905
C87	C	1.195680	0.442255	-0.028849
C88	C	1.271112	0.356278	-0.009858
C89	C	1.005020	0.458827	0.193842
C90	C	1.015744	0.378474	0.288412
C91	C	1.262129	0.436477	0.209102
C92	C	1.360113	0.348539	0.308851
C93	C	0.684717	0.954686	-0.378712
C94	C	0.586732	1.042623	-0.478461
C95	C	0.751166	0.948908	-0.140761
C96	C	0.675734	1.034885	-0.159752
C97	C	0.941826	0.932336	-0.363451
C98	C	0.931102	1.012688	-0.458022
C99	C	1.243353	0.321395	-0.050392
C100	C	1.314218	0.240622	-0.032568
C101	C	1.412843	0.194728	0.025796
C102	C	1.440602	0.229618	0.066330
C103	C	1.369737	0.310395	0.048500
C104	C	1.083963	0.335247	0.382276
C105	C	1.094039	0.259758	0.471140
C106	C	1.035900	0.227492	0.466139
C107	C	0.967673	0.270727	0.372265
C108	C	0.957593	0.346220	0.283402
C109	C	1.443366	0.304006	0.312210
C110	C	1.535440	0.221389	0.405927
C111	C	1.544258	0.183301	0.496284
C112	C	1.460996	0.227843	0.492921
C113	C	1.368925	0.310463	0.399205
C114	C	0.503481	1.087166	-0.481821
C115	C	0.411410	1.169806	-0.575542
C116	C	0.402593	1.207897	-0.665900
C117	C	0.485854	1.163351	-0.662536
C118	C	0.577923	1.080717	-0.568818
C119	C	0.703492	1.069775	-0.119227
C120	C	0.632624	1.150569	-0.137075
C121	C	0.533999	1.196466	-0.195443
C122	C	0.506240	1.161572	-0.235973
C123	C	0.577107	1.080785	-0.218130
C124	C	0.989255	1.044929	-0.452988
C125	C	0.979198	1.120417	-0.541836
C126	C	0.910983	1.163668	-0.635719
C127	C	0.852827	1.131420	-0.640750
C128	C	0.862889	1.055928	-0.551901
H129	H	1.088680	0.005915	-0.219407
Cl130	Cl	0.667542	1.194414	-0.086109
Cl131	Cl	1.119372	0.379078	-0.123774
H132	H	0.783794	1.032412	-0.071694
H133	H	1.470536	0.128955	0.040308
H134	H	1.108840	0.139552	-0.242981
Cl135	Cl	0.767065	1.185813	-0.758785
Cl136	Cl	1.472098	0.179948	0.606523
H137	H	1.520911	0.192240	0.113851
H138	H	0.554492	1.052380	-0.251130
Cl139	Cl	1.012204	0.388377	-0.130128
Cl140	Cl	1.267813	0.670000	-0.595095
H141	H	0.478663	1.194375	-0.736117
Cl142	Cl	0.854569	0.705909	-0.760278
Cl143	Cl	0.789763	1.015416	-0.558249
Cl144	Cl	1.264269	0.366432	0.395001
Cl145	Cl	0.682576	1.024724	-0.564609
Cl146	Cl	1.404653	0.354230	0.099474
Cl147	Cl	0.444920	1.298025	-0.217862
Cl148	Cl	0.898342	1.258577	-0.747407
Cl149	Cl	1.075021	0.990570	-0.334975
H150	H	0.343626	1.206062	-0.578260
Cl151	Cl	0.718230	0.717767	-0.684139
Cl152	Cl	0.355369	0.864063	-0.199838
Cl153	Cl	0.382250	1.219277	-0.309342
Cl154	Cl	1.052311	1.160949	-0.535490
H155	H	0.715173	0.718029	-0.555855
H156	H	1.131310	0.361509	0.386366
H157	H	1.044118	0.166020	0.538505
H158	H	0.551333	0.571028	0.000233
H159	H	1.011269	0.692299	-0.402938
H160	H	1.088280	0.253279	-0.218974
Cl161	Cl	1.035750	0.358592	-0.157588
Cl162	Cl	0.726882	0.717016	-0.403248
H163	H	0.953588	0.017662	-0.061622
Cl164	Cl	0.871830	0.400548	0.165407
Cl165	Cl	1.432308	0.351876	0.198631
H166	H	0.916028	0.065190	-0.017764
H167	H	1.149599	0.224564	0.547567
H168	H	1.082891	0.686056	-0.442924
H169	H	1.192476	0.676546	-0.504146
H170	H	1.619234	0.116026	0.572587
Cl171	Cl	0.839622	0.122998	0.071498
H172	H	1.193204	0.676472	-0.751413
H173	H	0.838004	0.251611	0.073364
Cl174	Cl	0.844130	0.403008	0.066182
H175	H	0.935576	0.698869	-0.766683
H176	H	1.291597	0.212225	-0.065579
H177	H	0.920340	0.244444	0.368208
H178	H	0.510641	1.056157	-0.408257
Cl179	Cl	1.640097	0.165406	0.410131
Cl180	Cl	0.286840	1.311779	-0.783710
