data_functionalizedCrystal
_audit_creation_method	'MofGen! by Chris Wilmer'
_symmetry_space_group_name_H-M	'P1'
_symmetry_Int_Tables_number	1
_symmetry_cell_setting	triclinic
loop_
_symmetry_equiv_pos_as_xyz
  x,y,z
_cell_length_a	15.944551
_cell_length_b	14.421503
_cell_length_c	9.065215
_cell_angle_alpha	90.006234
_cell_angle_beta	84.256718
_cell_angle_gamma	89.996059
loop_
_atom_site_label
_atom_site_type_symbol
_atom_site_fract_x
_atom_site_fract_y
_atom_site_fract_z
O1	O	1.115971	-0.077013	0.190250
O2	O	0.871598	-0.077036	0.213708
O3	O	0.998837	-0.077020	-0.012782
O4	O	0.988732	-0.077029	0.416740
O5	O	0.998814	0.077204	-0.012744
O6	O	0.871575	0.077188	0.213746
O7	O	1.115947	0.077211	0.190288
Cu8	Cu	0.993759	0.091281	0.202020
Cu9	Cu	0.993787	-0.091106	0.201975
O10	O	0.988709	0.077195	0.416778
C11	C	0.840286	0.000073	0.212753
C12	C	0.747017	0.000064	0.209834
N13	N	0.993746	0.219562	0.202051
C14	C	0.997855	0.000091	-0.067727
C15	C	0.994953	0.000088	-0.231502
C16	C	0.531045	0.000085	0.062466
C17	C	0.470555	-0.075956	0.130880
C18	C	0.576252	0.000075	0.204552
C19	C	0.470554	0.076096	0.130951
C20	C	0.411300	0.000090	0.199439
C21	C	0.516989	-0.076029	0.273005
C22	C	0.516995	0.076091	0.273056
C23	C	0.456523	0.000031	0.341573
C24	C	0.671276	0.000066	0.207493
C25	C	0.316277	0.000093	0.196509
C26	C	1.147260	0.000100	0.191242
C27	C	1.240528	0.000102	0.194162
C28	C	0.934896	0.469208	0.306740
C29	C	1.011012	0.531018	0.335384
C30	C	0.993763	0.408724	0.202021
C31	C	0.917665	0.531008	0.173417
C32	C	0.993773	0.591445	0.201996
C33	C	1.069918	0.469172	0.230731
C34	C	0.976520	0.469157	0.068707
C35	C	1.052690	0.530938	0.097294
C36	C	0.993756	0.303462	0.202040
C37	C	0.993789	0.696704	0.201976
N38	N	0.993792	0.780613	0.201961
C39	C	0.989691	0.000082	0.471723
C40	C	0.992593	0.000079	0.635498
H41	H	0.563485	-0.000006	-0.055454
O42	O	0.832417	0.566995	0.141377
H43	H	0.817681	0.541160	0.031551
H44	H	0.537441	-0.140387	0.333040
H45	H	0.424258	-0.000014	0.459614
H46	H	0.449999	-0.140242	0.070767
H47	H	0.961901	0.441964	-0.043987
O48	O	0.544270	0.161248	0.352599
H49	H	0.488148	0.204047	0.389136
O50	O	0.443336	0.161258	0.051355
H51	H	0.473463	0.161094	-0.064454
O52	O	1.030306	0.567046	0.484706
H53	H	1.039318	0.507707	0.559476
H54	H	1.134293	0.442124	0.255048
O55	O	0.869025	0.433291	0.424120
H56	H	0.883551	0.458067	0.534668
O57	O	1.118703	0.566636	-0.020027
H58	H	1.181777	0.541738	0.004067
