data_functionalizedCrystal
_audit_creation_method	'MofGen! by Chris Wilmer'
_symmetry_space_group_name_H-M	'P1'
_symmetry_Int_Tables_number	1
_symmetry_cell_setting	triclinic
loop_
_symmetry_equiv_pos_as_xyz
  x,y,z
_cell_length_a	12.837943
_cell_length_b	10.489741
_cell_length_c	11.892095
_cell_angle_alpha	93.929268
_cell_angle_beta	85.689438
_cell_angle_gamma	89.684057
loop_
_atom_site_label
_atom_site_type_symbol
_atom_site_fract_x
_atom_site_fract_y
_atom_site_fract_z
O1	O	1.384503	0.324530	-0.093982
O2	O	1.082575	0.308135	-0.093989
O3	O	1.240409	0.131493	-0.093979
O4	O	1.226669	0.501172	-0.093992
O5	O	1.227249	0.146196	0.094028
O6	O	1.069415	0.322838	0.094018
O7	O	1.371343	0.339233	0.094024
Zn8	Zn	1.218290	0.333370	0.123871
Zn9	Zn	1.235629	0.313998	-0.123836
O10	O	1.213509	0.515875	0.094014
C11	C	1.037334	0.309948	0.000014
C12	C	0.922133	0.293430	0.000011
C13	C	0.682657	0.492006	0.000020
C14	C	0.574415	0.476492	0.000019
C15	C	0.597406	0.246889	0.000015
C16	C	0.705648	0.262403	0.000016
C17	C	0.748269	0.384966	0.000017
C18	C	0.856513	0.400478	0.000011
C19	C	0.879501	0.170877	0.000015
C20	C	0.771260	0.155363	0.000014
C21	C	1.232791	0.091198	0.000024
C22	C	1.229687	-0.050774	0.000022
C23	C	1.129262	-0.129987	0.000011
C24	C	1.170213	-0.209630	0.092709
C25	C	1.183212	-0.224098	-0.092650
C26	C	1.270674	-0.128541	0.092796
C27	C	1.283664	-0.143007	-0.092647
C28	C	1.324687	-0.222613	0.000074
C29	C	1.416585	0.337420	0.000019
C30	C	1.531786	0.353937	0.000014
C31	C	1.221127	0.556170	0.000009
C32	C	1.224233	0.698141	0.000004
N33	N	1.206464	0.346591	0.292925
N34	N	1.247463	0.300768	-0.292889
C35	C	1.329751	0.208698	0.529580
C36	C	1.321493	0.217950	0.647922
C37	C	1.181684	0.374338	0.647951
C38	C	1.189943	0.365086	0.529609
C39	C	1.263980	0.282265	0.470428
C40	C	1.272243	0.273021	0.352085
C41	C	1.132429	0.429402	0.352116
C42	C	1.124171	0.438653	0.470457
H43	H	0.891213	0.500275	0.000013
H44	H	0.932936	0.083716	0.000005
O45	O	0.729685	0.036399	-0.000038
C46	C	0.573118	-0.089256	0.000027
C47	C	0.620061	0.045543	0.000063
H48	H	0.484480	-0.081906	0.000133
H49	H	0.605499	-0.148991	-0.078676
H50	H	0.594629	-0.136665	0.078685
H51	H	0.598568	0.093063	-0.078542
H52	H	0.587681	0.105186	0.078818
H53	H	0.520997	0.563656	0.000024
O54	O	1.314878	-0.078727	0.186281
C55	C	1.454784	0.046402	0.259274
C56	C	1.404824	-0.009915	0.153310
H57	H	1.527526	0.102026	0.232655
H58	H	1.396449	0.113211	0.311282
H59	H	1.477399	-0.034429	0.312341
H60	H	1.382209	0.070831	0.100155
H61	H	1.463190	-0.076758	0.101387
H62	H	1.331606	-0.113411	-0.171018
O63	O	0.724177	0.611003	0.000167
C64	C	0.826172	0.769417	0.097597
C65	C	0.779233	0.634616	0.097559
H66	H	0.870677	0.788560	0.176343
H67	H	0.881845	0.776298	0.018971
H68	H	0.760668	0.843229	0.097538
H69	H	0.844667	0.560724	0.097658
H70	H	0.723534	0.627842	0.176179
H71	H	1.407327	-0.262921	0.000127
O72	O	1.138909	-0.273798	-0.186114
C73	C	0.985774	-0.282979	-0.291673
C74	C	1.035836	-0.226585	-0.185801
H75	H	0.902425	-0.244851	-0.291443
H76	H	1.033237	-0.254318	-0.370707
H77	H	0.984583	-0.391604	-0.291209
H78	H	1.037036	-0.117956	-0.186156
H79	H	0.988357	-0.255346	-0.106814
H80	H	1.046687	-0.089432	0.000103
O81	O	1.401696	0.128152	0.472260
C82	C	1.539551	-0.025915	0.484716
C83	C	1.458101	0.065230	0.549769
H84	H	1.585191	-0.076792	0.547354
H85	H	1.498201	-0.099580	0.429354
H86	H	1.595610	0.031230	0.429268
H87	H	1.402019	0.008192	0.605278
H88	H	1.499520	0.138896	0.605060
H89	H	1.122235	-0.239197	0.171077
O90	O	0.555953	0.127855	-0.000177
C91	C	0.453822	-0.030480	-0.097523
C92	C	0.500731	0.104337	-0.097463
H93	H	0.409146	-0.049527	-0.176158
H94	H	0.519267	-0.104396	-0.097596
H95	H	0.398261	-0.037291	-0.018801
H96	H	0.556281	0.111273	-0.176171
H97	H	0.435232	0.178189	-0.097330
O98	O	1.052115	0.518950	0.527903
C99	C	0.869744	0.574596	0.564101
C100	C	0.951235	0.483549	0.498997
H101	H	0.788166	0.546024	0.540737
H102	H	0.875047	0.568559	0.658857
H103	H	0.885705	0.676681	0.540848
H104	H	0.935327	0.381425	0.522155
H105	H	0.945913	0.489697	0.404257
H106	H	1.332530	0.205588	0.303901
H107	H	1.375049	0.158043	0.696080
O108	O	1.068633	0.501066	0.294709
C109	C	1.011983	0.712802	0.258582
C110	C	1.084297	0.631793	0.323642
H111	H	1.024607	0.818510	0.281968
H112	H	1.030600	0.692085	0.163819
H113	H	0.927143	0.687768	0.281854
H114	H	1.169161	0.656780	0.300465
H115	H	1.065591	0.652521	0.418389
H116	H	1.121398	0.441759	0.696151
