data_functionalizedCrystal
_audit_creation_method	'MofGen! by Chris Wilmer'
_symmetry_space_group_name_H-M	'P1'
_symmetry_Int_Tables_number	1
_symmetry_cell_setting	triclinic
loop_
_symmetry_equiv_pos_as_xyz
  x,y,z
_cell_length_a	10.723023
_cell_length_b	10.723023
_cell_length_c	14.048226
_cell_angle_alpha	89.994918
_cell_angle_beta	89.994021
_cell_angle_gamma	84.467548
loop_
_atom_site_label
_atom_site_type_symbol
_atom_site_fract_x
_atom_site_fract_y
_atom_site_fract_z
O1	O	1.657192	0.175025	-0.079148
O2	O	2.157192	0.675025	0.420852
O3	O	1.294039	0.191780	-0.079152
O4	O	1.794039	0.691780	0.420848
O5	O	1.483993	0.001826	-0.079147
O6	O	1.983993	0.501826	0.420853
O7	O	1.467238	0.364979	-0.079153
O8	O	1.967238	0.864979	0.420847
O9	O	1.483970	0.001815	0.079175
O10	O	1.983970	0.501815	0.579175
O11	O	1.294016	0.191768	0.079170
O12	O	1.794016	0.691768	0.579170
O13	O	1.657169	0.175014	0.079173
O14	O	2.157169	0.675014	0.579173
Zn15	Zn	1.475589	0.183389	0.104308
Zn16	Zn	1.975589	0.683389	0.604308
Zn17	Zn	1.475619	0.183404	-0.104287
Zn18	Zn	1.975619	0.683404	0.395713
O19	O	1.467215	0.364967	0.079168
O20	O	1.967215	0.864967	0.579168
C21	C	1.247528	0.190555	0.000009
C22	C	1.747528	0.690555	0.500009
C23	C	1.108974	0.186908	0.000007
C24	C	1.608974	0.686908	0.500007
C25	C	1.482762	-0.044679	0.000013
C26	C	1.982762	0.455321	0.500013
C27	C	1.479115	-0.183233	0.000009
C28	C	1.979115	0.316767	0.500009
C29	C	1.473731	-0.388189	-0.082009
C30	C	1.973731	0.111811	0.417991
C31	C	1.477501	-0.244986	-0.082007
C32	C	1.977501	0.255014	0.417993
C33	C	1.047190	0.185276	0.082022
C34	C	1.547190	0.685276	0.582022
C35	C	0.903987	0.181506	0.082022
C36	C	1.403987	0.681506	0.582022
C37	C	1.703680	0.176239	0.000011
C38	C	2.203680	0.676239	0.500011
C39	C	1.842234	0.179886	0.000006
C40	C	2.342234	0.679886	0.500006
C41	C	1.468446	0.411473	0.000007
C42	C	1.968446	0.911473	0.500007
C43	C	1.472093	0.550027	0.000004
C44	C	1.972093	1.050027	0.500004
N45	N	1.475577	0.183378	0.246669
N46	N	1.975577	0.683378	0.746669
N47	N	1.475641	0.183406	-0.246647
N48	N	1.975641	0.683406	0.253353
C49	C	1.559715	0.099302	0.296489
C50	C	2.059715	0.599302	0.796489
C51	C	1.559724	0.099301	0.396147
C52	C	2.059724	0.599301	0.896147
C53	C	1.475599	0.183384	0.445983
C54	C	1.975599	0.683384	0.945983
C55	C	1.391452	0.267464	0.396155
C56	C	1.891452	0.767464	0.896155
C57	C	1.391438	0.267458	0.296500
C58	C	1.891438	0.767458	0.796500
C59	C	1.391488	0.267473	0.603870
C60	C	1.891488	0.767473	1.103870
C61	C	1.391502	0.267482	0.703532
C62	C	1.891502	0.767482	1.203532
C63	C	1.559773	0.099317	0.703517
C64	C	2.059773	0.599317	1.203517
C65	C	1.559760	0.099311	0.603861
C66	C	2.059760	0.599311	1.103861
C67	C	1.475614	0.183393	0.554041
C68	C	1.975614	0.683393	1.054041
H69	H	1.472350	-0.441312	-0.152225
H70	H	1.972350	0.058688	0.347775
H71	H	1.628225	0.030838	0.255920
H72	H	2.128225	0.530838	0.755920
Br73	Br	1.476752	-0.271772	0.117050
Br74	Br	1.976752	0.228228	0.617050
Br75	Br	1.135717	0.187590	0.199059
Br76	Br	1.635717	0.687590	0.699059
H77	H	0.895358	0.181297	-0.070213
H78	H	1.395358	0.681297	0.429787
H79	H	1.322949	0.335921	0.436737
H80	H	1.822949	0.835921	0.936737
Br81	Br	1.479834	-0.156435	-0.199044
Br82	Br	1.979834	0.343565	0.300956
Br83	Br	1.673909	-0.014808	0.463764
Br84	Br	2.173909	0.485192	0.963764
H85	H	1.628266	0.030851	0.563285
H86	H	2.128266	0.530851	1.063285
Br87	Br	1.277237	0.381558	0.228886
Br88	Br	1.777237	0.881558	0.728886
H89	H	0.850853	0.180109	0.152237
H90	H	1.350853	0.680109	0.652237
H91	H	1.628287	0.030855	0.744087
H92	H	2.128287	0.530855	1.244087
Br93	Br	1.277328	0.381599	0.771159
Br94	Br	1.777328	0.881599	1.271159
H95	H	1.473488	-0.396852	0.070220
H96	H	1.973488	0.103148	0.570220
Br97	Br	1.020449	0.184570	-0.117031
Br98	Br	1.520449	0.684570	0.382969
Br99	Br	1.277281	0.381581	0.536259
Br100	Br	1.777281	0.881581	1.036259
