data_functionalizedCrystal
_audit_creation_method	'MofGen! by Chris Wilmer'
_symmetry_space_group_name_H-M	'P1'
_symmetry_Int_Tables_number	1
_symmetry_cell_setting	triclinic
loop_
_symmetry_equiv_pos_as_xyz
  x,y,z
_cell_length_a	6.817900
_cell_length_b	17.110477
_cell_length_c	17.110486
_cell_angle_alpha	96.939211
_cell_angle_beta	99.060439
_cell_angle_gamma	99.060298
loop_
_atom_site_label
_atom_site_type_symbol
_atom_site_fract_x
_atom_site_fract_y
_atom_site_fract_z
V1	V	-3.954938	-0.109247	-0.246618
O2	O	-3.966477	0.005492	-0.242029
O3	O	-3.885154	-0.216852	-0.244831
O4	O	-3.885155	-0.107460	-0.354223
O5	O	-3.966476	-0.104657	-0.131879
V6	V	-4.444108	-0.095536	-0.232907
O7	O	-4.203810	-0.139325	-0.276696
O8	O	-4.645433	-0.065458	-0.202830
O9	O	-4.290685	0.012069	-0.234695
O10	O	-4.549965	-0.210275	-0.237496
O11	O	-4.549966	-0.100126	-0.347646
O12	O	-4.290684	-0.097322	-0.125302
C13	C	-3.725645	-0.243087	-0.240914
C14	C	-3.749732	-0.331054	-0.240170
C15	C	-3.941549	-0.376408	-0.243763
C16	C	-3.964171	-0.459064	-0.243069
C17	C	-3.794973	-0.496363	-0.238775
C18	C	-3.603142	-0.451003	-0.235183
C19	C	-3.580524	-0.368350	-0.235884
C20	C	-3.854236	-0.745721	-0.236467
C21	C	-3.876869	-0.828379	-0.235765
C22	C	-4.237899	-0.836434	-0.243652
C23	C	-4.215261	-0.753779	-0.244347
C24	C	-4.023435	-0.708427	-0.240760
C25	C	-3.818092	-0.580849	-0.238062
C26	C	-4.000321	-0.623943	-0.241478
C27	C	-3.725645	-0.103546	-0.380454
C28	C	-3.749732	-0.102797	-0.468421
C29	C	-3.941550	-0.106395	-0.513775
C30	C	-3.964170	-0.105690	-0.596429
C31	C	-3.794972	-0.101394	-0.633728
C32	C	-3.603137	-0.097794	-0.588367
C33	C	-3.580518	-0.098493	-0.505714
C34	C	-3.854235	-0.099083	-0.883085
C35	C	-3.876871	-0.098387	-0.965745
C36	C	-4.237903	-0.106281	-0.973801
C37	C	-4.215268	-0.106984	-0.891147
C38	C	-4.023435	-0.103380	-0.845792
C39	C	-3.818089	-0.100677	-0.718214
C40	C	-4.000318	-0.104092	-0.761307
C41	C	-4.113536	0.038300	-0.238609
C42	C	-4.068686	0.126267	-0.239358
C43	C	-4.113536	-0.101239	-0.099067
C44	C	-4.068689	-0.101984	-0.011099
H45	H	-3.739083	-0.858748	-0.232287
F46	F	-4.121642	-0.110972	-0.474088
F47	F	-4.442043	-0.884707	-0.247470
F48	F	-4.168330	-0.109527	-0.644697
F49	F	-3.376358	-0.094658	-0.457444
F50	F	-3.638025	-0.620552	-0.233489
F51	F	-3.650079	-0.697464	-0.232645
F52	F	-4.168327	-0.507329	-0.246893
F53	F	-3.638027	-0.096115	-0.757919
F54	F	-3.423070	-0.490702	-0.230618
F55	F	-3.650079	-0.095263	-0.834829
H56	H	-3.465373	-0.094292	-0.618742
F57	F	-4.395357	-0.111559	-0.851457
H58	H	-4.353047	-0.723417	-0.247849
F59	F	-4.442053	-0.110115	-1.022076
H60	H	-3.739078	-0.094886	-0.996110
H61	H	-4.138081	-0.593571	-0.244979
F62	F	-4.121638	-0.336719	-0.248330
F63	F	-3.376368	-0.320082	-0.232063
H64	H	-4.138076	-0.107587	-0.730935
