data_functionalizedCrystal
_audit_creation_method	'MofGen! by Chris Wilmer'
_symmetry_space_group_name_H-M	'P1'
_symmetry_Int_Tables_number	1
_symmetry_cell_setting	triclinic
loop_
_symmetry_equiv_pos_as_xyz
  x,y,z
_cell_length_a	17.038272
_cell_length_b	10.540539
_cell_length_c	9.016244
_cell_angle_alpha	90.000067
_cell_angle_beta	90.001827
_cell_angle_gamma	87.818524
loop_
_atom_site_label
_atom_site_type_symbol
_atom_site_fract_x
_atom_site_fract_y
_atom_site_fract_z
O1	O	-1.038955	-0.275808	-0.123143
O2	O	-0.538955	0.224192	0.376857
O3	O	-0.811299	-0.271428	-0.123187
O4	O	-0.311299	0.228572	0.376813
O5	O	-0.930321	-0.089396	-0.123162
O6	O	-0.430321	0.410604	0.376838
O7	O	-0.919933	-0.457840	-0.123168
O8	O	-0.419933	0.042160	0.376832
O9	O	-0.930303	-0.089398	0.123519
O10	O	-0.430303	0.410602	0.623519
O11	O	-0.811282	-0.271431	0.123494
O12	O	-0.311282	0.228569	0.623494
O13	O	-1.038937	-0.275810	0.123538
O14	O	-0.538937	0.224190	0.623538
Cu15	Cu	-0.925108	-0.273621	0.146040
Cu16	Cu	-0.425108	0.226379	0.646040
Cu17	Cu	-0.925129	-0.273618	-0.145689
Cu18	Cu	-0.425129	0.226382	0.354311
O19	O	-0.919916	-0.457842	0.123513
O20	O	-0.419916	0.042158	0.623513
C21	C	-0.782139	-0.267446	0.000148
C22	C	-0.282139	0.232554	0.500148
C23	C	-0.695278	-0.255562	0.000131
C24	C	-0.195278	0.244438	0.500131
C25	C	-0.929533	-0.042021	0.000175
C26	C	-0.429533	0.457979	0.500175
C27	C	-0.927202	0.099144	0.000167
C28	C	-0.427202	0.599144	0.500167
C29	C	-1.068097	-0.279792	0.000200
C30	C	-0.568097	0.220208	0.500200
C31	C	-1.154958	-0.291676	0.000207
C32	C	-0.654958	0.208324	0.500207
C33	C	-0.645791	-0.364672	0.000130
C34	C	-0.145791	0.135328	0.500130
C35	C	-0.564176	-0.353498	0.000151
C36	C	-0.064176	0.146502	0.500151
C37	C	-0.532050	-0.233213	0.000162
C38	C	-0.032050	0.266787	0.500162
C39	C	-0.581544	-0.124094	0.000167
C40	C	-0.081544	0.375906	0.500167
C41	C	-0.663157	-0.135270	0.000156
C42	C	-0.163157	0.364730	0.500156
C43	C	-0.286065	-0.193733	0.000202
C44	C	0.213935	0.306267	0.500202
C45	C	-0.204446	-0.182566	0.000207
C46	C	0.295554	0.317434	0.500207
C47	C	-0.187084	-0.411971	0.000195
C48	C	0.312916	0.088029	0.500195
C49	C	-0.268699	-0.423136	0.000176
C50	C	0.231301	0.076864	0.500176
C51	C	-0.318186	-0.314017	0.000188
C52	C	0.181814	0.185983	0.500188
C53	C	-0.448627	-0.221788	0.000178
C54	C	0.051373	0.278212	0.500178
C55	C	-0.401607	-0.325443	0.000183
C56	C	0.098393	0.174557	0.500183
C57	C	-0.920703	-0.505217	0.000172
C58	C	-0.420703	-0.005217	0.500172
C59	C	-0.923034	-0.646382	0.000171
C60	C	-0.423034	-0.146382	0.500171
N61	N	-0.925099	-0.273623	0.351226
N62	N	-0.425099	0.226377	0.851226
C63	C	-0.837895	0.290901	-0.000404
C64	C	-0.337895	0.790901	0.499596
C65	C	-0.840258	0.144063	0.000152
C66	C	-0.340258	0.644063	0.500152
C67	C	-0.969034	0.156897	0.141042
C68	C	-0.469034	0.656897	0.641042
C69	C	-0.966067	0.303719	0.141160
C70	C	-0.466067	0.803719	0.641160
C71	C	-0.967855	0.304075	-0.139362
C72	C	-0.467855	0.804075	0.360638
C73	C	-0.968656	0.157018	-0.141224
C74	C	-0.468656	0.657018	0.358776
N75	N	-0.925144	-0.273606	-0.350875
N76	N	-0.425144	0.226394	0.149125
C77	C	-0.861235	-0.370633	0.586245
C78	C	-0.361235	0.129367	1.086245
C79	C	-0.861376	-0.371032	0.414354
C80	C	-0.361376	0.128968	0.914354
C81	C	-1.006891	-0.311386	0.413580
C82	C	-0.506891	0.188614	0.913580
C83	C	-1.006543	-0.312082	0.585524
C84	C	-0.506543	0.187918	1.085524
C85	C	-0.907983	-0.138588	0.585767
C86	C	-0.407983	0.361412	1.085767
C87	C	-0.906106	-0.139277	0.413813
C88	C	-0.406106	0.360723	0.913813
H89	H	-0.671941	-0.462621	0.000121
H90	H	-0.171941	0.037379	0.500121
F91	F	-0.875769	-0.501765	0.360567
F92	F	-0.375769	-0.001765	0.860567
H93	H	-1.030655	0.345443	-0.140297
H94	H	-0.530655	0.845443	0.359703
F95	F	-1.052490	0.119897	0.147909
F96	F	-0.552490	0.619897	0.647909
F97	F	-0.134411	-0.528094	0.000184
F98	F	0.365589	-0.028094	0.500184
H99	H	-0.949570	-0.063011	0.370846
H100	H	-0.449570	0.436989	0.870846
H101	H	-0.555381	-0.026155	0.000196
H102	H	-0.055381	0.473845	0.500196
F103	F	-0.968887	-0.044075	0.638915
F104	F	-0.468887	0.455925	1.138915
F105	F	-1.047794	0.358797	0.149544
F106	F	-0.547794	0.858797	0.649544
F107	F	-0.925636	0.344350	0.278784
F108	F	-0.425636	0.844350	0.778784
H109	H	-1.022235	-0.409055	0.370504
H110	H	-0.522235	0.090945	0.870504
F111	F	-1.070562	-0.223720	0.639894
F112	F	-0.570562	0.276280	1.139894
H113	H	-1.032046	0.126884	-0.149718
H114	H	-0.532046	0.626884	0.350282
H115	H	-0.800271	-0.347094	0.627627
H116	H	-0.300271	0.152906	1.127627
F117	F	-0.170258	-0.054536	0.000244
F118	F	0.329742	0.445464	0.500244
F119	F	-0.715825	-0.019139	0.000162
F120	F	-0.215825	0.480861	0.500162
H121	H	-0.845935	-0.110824	0.373060
H122	H	-0.345935	0.389176	0.873060
F123	F	-0.414429	-0.093775	0.000184
F124	F	0.085571	0.406225	0.500184
H125	H	-0.939723	0.338254	-0.246135
H126	H	-0.439723	0.838254	0.253865
F127	F	-0.511511	-0.469629	0.000144
F128	F	-0.011511	0.030371	0.500144
F129	F	-0.931035	0.104763	0.278056
F130	F	-0.431035	0.604763	0.778056
H131	H	-0.938048	0.119017	-0.245439
H132	H	-0.438048	0.619017	0.254561
F133	F	-0.302883	-0.551160	0.000157
F134	F	0.197117	-0.051160	0.500157
H135	H	-0.800602	-0.347232	0.372198
H136	H	-0.300602	0.152768	0.872198
F137	F	-1.070572	-0.221957	0.360135
F138	F	-0.570572	0.278043	0.860135
H139	H	-0.872122	-0.470072	0.629439
H140	H	-0.372122	0.029928	1.129439
H141	H	-0.326348	-0.104880	0.000213
H142	H	0.173652	0.395120	0.500213
F143	F	-0.797234	0.092389	-0.131843
F144	F	-0.297234	0.592389	0.368157
H145	H	-0.849600	-0.104462	0.629204
H146	H	-0.349600	0.395538	1.129204
H147	H	-1.021551	-0.410820	0.625615
H148	H	-0.521551	0.089180	1.125615
H149	H	-0.427768	-0.423379	0.000182
H150	H	0.072232	0.076621	0.500182
H151	H	-0.803557	0.322706	-0.101428
H152	H	-0.303557	0.822706	0.398572
H153	H	-0.803683	0.324298	0.100042
H154	H	-0.303683	0.824298	0.600042
F155	F	-0.796911	0.093519	0.132347
F156	F	-0.296911	0.593519	0.632347
