data_functionalizedCrystal
_audit_creation_method	'MofGen! by Chris Wilmer'
_symmetry_space_group_name_H-M	'P1'
_symmetry_Int_Tables_number	1
_symmetry_cell_setting	triclinic
loop_
_symmetry_equiv_pos_as_xyz
  x,y,z
_cell_length_a	12.811445
_cell_length_b	12.837942
_cell_length_c	9.798715
_cell_angle_alpha	90.002852
_cell_angle_beta	95.434874
_cell_angle_gamma	89.412982
loop_
_atom_site_label
_atom_site_type_symbol
_atom_site_fract_x
_atom_site_fract_y
_atom_site_fract_z
O1	O	1.406644	0.139713	0.287572
O2	O	1.906644	0.639713	0.787572
O3	O	1.102579	0.154895	0.249945
O4	O	1.602579	0.654895	0.749945
O5	O	1.247869	-0.003628	0.267916
O6	O	1.747869	0.496372	0.767916
O7	O	1.261354	0.298236	0.269601
O8	O	1.761354	0.798236	0.769601
O9	O	1.247858	-0.003629	0.040932
O10	O	1.747858	0.496371	0.540932
O11	O	1.102568	0.154894	0.022961
O12	O	1.602568	0.654894	0.522961
O13	O	1.406633	0.139712	0.060589
O14	O	1.906633	0.639712	0.560589
Zn15	Zn	1.254599	0.147303	0.005737
Zn16	Zn	1.754599	0.647303	0.505737
Zn17	Zn	1.254614	0.147304	0.304797
Zn18	Zn	1.754614	0.647304	0.804797
O19	O	1.261343	0.298235	0.042618
O20	O	1.761343	0.798235	0.542618
C21	C	1.063384	0.154043	0.131604
C22	C	1.563384	0.654043	0.631604
C23	C	0.946611	0.151492	0.117153
C24	C	1.446611	0.651492	0.617153
C25	C	1.243308	-0.042269	0.153861
C26	C	1.743308	0.457731	0.653861
C27	C	1.229722	-0.157405	0.152182
C28	C	1.729722	0.342595	0.652182
C29	C	0.727192	0.146719	0.337482
C30	C	1.227192	0.646719	0.837482
C31	C	0.617474	0.144322	0.323910
C32	C	1.117474	0.644322	0.823910
C33	C	0.617454	0.144309	0.076439
C34	C	1.117454	0.644309	0.576439
C35	C	0.727172	0.146706	0.090011
C36	C	1.227172	0.646706	0.590011
C37	C	0.782038	0.147909	0.220536
C38	C	1.282038	0.647909	0.720536
C39	C	0.891758	0.150298	0.234107
C40	C	1.391758	0.650298	0.734107
C41	C	0.891736	0.150293	-0.013363
C42	C	1.391736	0.650293	0.486637
C43	C	0.782018	0.147896	-0.026935
C44	C	1.282018	0.647896	0.473065
C45	C	1.393052	-0.397655	0.172422
C46	C	1.893052	0.102345	0.672422
C47	C	1.380292	-0.505836	0.170846
C48	C	1.880292	-0.005836	0.670846
C49	C	1.191442	-0.481950	0.147462
C50	C	1.691442	0.018050	0.647462
C51	C	1.204202	-0.373769	0.149038
C52	C	1.704202	0.126231	0.649038
C53	C	1.305011	-0.331626	0.161517
C54	C	1.805011	0.168374	0.661517
C55	C	1.317770	-0.223442	0.163084
C56	C	1.817770	0.276558	0.663084
C57	C	1.128921	-0.199559	0.139710
C58	C	1.628921	0.300441	0.639710
C59	C	1.116161	-0.307740	0.138133
C60	C	1.616161	0.192260	0.638133
C61	C	1.445828	0.140565	0.178933
C62	C	1.945828	0.640565	0.678933
C63	C	1.562601	0.143116	0.193393
C64	C	2.062601	0.643116	0.693393
C65	C	1.265904	0.336876	0.156676
C66	C	1.765904	0.836876	0.656676
C67	C	1.279490	0.452012	0.158364
C68	C	1.779490	0.952012	0.658364
N69	N	1.254596	0.147301	-0.198363
N70	N	1.754596	0.647301	0.301637
C71	C	1.315752	0.080597	-0.415731
C72	C	1.815752	0.580597	0.084269
C73	C	1.315738	0.080599	-0.258570
C74	C	1.815738	0.580599	0.241430
N75	N	1.254624	0.147298	0.508898
N76	N	1.754624	0.647298	1.008898
H77	H	0.936428	0.151277	0.340387
H78	H	1.436428	0.651277	0.840387
H79	H	0.936403	0.151260	-0.108589
H80	H	1.436403	0.651260	0.391411
H81	H	1.399853	-0.189132	0.173240
H82	H	1.899853	0.310868	0.673240
H83	H	1.202254	0.204406	-0.263142
H84	H	1.702254	0.704406	0.236858
H85	H	0.771865	0.147693	0.443761
H86	H	1.271865	0.647693	0.943761
H87	H	0.572823	0.143355	0.419139
H88	H	1.072823	0.643355	0.919139
C89	C	0.557094	0.142995	-0.067126
C90	C	1.057094	0.642995	0.432874
H91	H	0.605470	0.144055	-0.134837
H92	H	1.105470	0.644055	0.365163
H93	H	0.516246	0.081662	-0.077323
H94	H	1.016246	0.581662	0.422677
H95	H	0.512339	0.202477	-0.077795
H96	H	1.012339	0.702477	0.422205
C97	C	1.503933	-0.351293	0.186137
C98	C	2.003933	0.148707	0.686137
H99	H	1.554541	-0.406113	0.192409
H100	H	2.054541	0.093887	0.692409
H101	H	1.512829	-0.309591	0.108084
H102	H	2.012829	0.190409	0.608084
H103	H	1.512840	-0.309586	0.266403
H104	H	2.012840	0.190414	0.766403
H105	H	0.737331	0.146920	-0.133205
H106	H	1.237331	0.646920	0.366795
C107	C	1.477137	-0.578465	0.182834
C108	C	1.977137	-0.078465	0.682834
H109	H	1.538998	-0.537868	0.190481
H110	H	2.038998	-0.037868	0.690481
H111	H	1.476087	-0.621162	0.261856
H112	H	1.976087	-0.121162	0.761856
H113	H	1.476082	-0.621164	0.103538
H114	H	1.976082	-0.121164	0.603538
H115	H	1.368103	0.023495	-0.467550
H116	H	1.868103	0.523495	0.032450
C117	C	1.080565	-0.528321	0.133737
C118	C	1.580565	-0.028321	0.633737
H119	H	1.085580	-0.602207	0.134355
H120	H	1.585580	-0.102207	0.634355
H121	H	1.043856	-0.505680	0.208341
H122	H	1.543856	-0.005680	0.708341
H123	H	1.043861	-0.505696	0.050025
H124	H	1.543861	-0.005696	0.550025
C125	C	1.005281	-0.354104	0.124399
C126	C	1.505281	0.145896	0.624399
H127	H	1.010289	-0.427990	0.125013
H128	H	1.510289	0.072010	0.625013
H129	H	0.968569	-0.331462	0.199000
H130	H	1.468569	0.168538	0.699000
H131	H	0.968583	-0.331473	0.040685
H132	H	1.468583	0.168527	0.540685
C133	C	1.386454	0.003464	-0.171055
C134	C	1.886454	0.503464	0.328945
H135	H	1.377178	0.013593	-0.076905
H136	H	1.877178	0.513593	0.423095
H137	H	1.368142	-0.065824	-0.196672
H138	H	1.868142	0.434176	0.303328
H139	H	1.457682	0.015053	-0.185580
H140	H	1.957682	0.515053	0.314420
H141	H	1.057232	-0.145785	0.130819
H142	H	1.557232	0.354215	0.630819
C143	C	1.183907	0.224450	-0.421114
C144	C	1.683907	0.724450	0.078886
H145	H	1.145563	0.266302	-0.488780
H146	H	1.645563	0.766302	0.011220
H147	H	1.136489	0.186906	-0.371248
H148	H	1.636489	0.686906	0.128752
H149	H	1.226051	0.267758	-0.360150
H150	H	1.726051	0.767758	0.139850
