data_functionalizedCrystal
_audit_creation_method	'MofGen! by Chris Wilmer'
_symmetry_space_group_name_H-M	'P1'
_symmetry_Int_Tables_number	1
_symmetry_cell_setting	triclinic
loop_
_symmetry_equiv_pos_as_xyz
  x,y,z
_cell_length_a	27.732048
_cell_length_b	27.732064
_cell_length_c	26.809956
_cell_angle_alpha	89.999459
_cell_angle_beta	89.989448
_cell_angle_gamma	82.646039
loop_
_atom_site_label
_atom_site_type_symbol
_atom_site_fract_x
_atom_site_fract_y
_atom_site_fract_z
O1	O	0.640939	0.057515	-0.041411
O2	O	0.500146	0.066261	-0.041426
O3	O	0.574911	-0.008508	-0.041420
O4	O	0.566174	0.132284	-0.041417
O5	O	0.574888	-0.008508	0.041539
O6	O	0.500123	0.066261	0.041534
O7	O	0.640916	0.057515	0.041548
Zn8	Zn	0.570516	0.061888	0.054712
Zn9	Zn	0.570546	0.061888	-0.054590
O10	O	0.566151	0.132284	0.041542
C11	C	0.482127	0.066077	0.000052
C12	C	0.428473	0.065524	0.000046
C13	C	0.574715	-0.026515	0.000058
C14	C	0.574159	-0.080169	0.000053
C15	C	0.526192	-0.457242	0.000047
C16	C	0.528238	-0.255582	0.000046
O17	O	0.491017	-0.224329	0.000022
N18	N	0.572572	-0.236454	0.000051
C19	C	0.616398	-0.267745	0.000052
O20	O	0.654154	-0.246849	0.000051
C21	C	0.614351	-0.469405	0.000049
C22	C	0.570014	-0.488529	0.000049
C23	C	0.481858	-0.476367	0.000047
C24	C	0.481347	-0.526779	0.000049
C25	C	0.525169	-0.558066	0.000052
C26	C	0.569503	-0.538941	0.000052
C27	C	0.658177	-0.500695	0.000047
C28	C	0.657661	-0.551112	0.000044
C29	C	0.613324	-0.570237	0.000045
C30	C	0.612814	-0.620640	0.000058
N31	N	0.568480	-0.639768	0.000053
C32	C	0.524658	-0.608481	0.000050
C33	C	0.617469	-0.161871	0.000055
C34	C	0.617981	-0.111456	0.000056
C35	C	0.529821	-0.099296	0.000049
C36	C	0.529310	-0.149712	0.000051
C37	C	0.573135	-0.180998	0.000050
C38	C	0.523588	-0.714350	0.000057
C39	C	0.523080	-0.764767	0.000062
C40	C	0.611241	-0.776923	0.000066
C41	C	0.611748	-0.726511	0.000064
C42	C	0.567918	-0.695225	0.000057
O43	O	0.650016	-0.651921	0.000076
O44	O	0.486907	-0.629387	0.000041
C45	C	0.526703	-0.406830	0.000044
C46	C	0.571036	-0.387705	0.000044
C47	C	0.614859	-0.418992	0.000046
C48	C	0.571548	-0.337290	0.000045
C49	C	0.527726	-0.306003	0.000043
C50	C	0.483391	-0.325131	0.000038
C51	C	0.482880	-0.375543	0.000041
C52	C	0.659193	-0.399865	0.000051
C53	C	0.659701	-0.349452	0.000049
C54	C	0.615878	-0.318165	0.000046
C55	C	0.089660	0.106228	0.000069
C56	C	-0.112000	0.104177	0.000073
O57	O	-0.143253	0.141397	0.000096
N58	N	-0.131126	0.059842	0.000071
C59	C	-0.099834	0.016017	0.000072
O60	O	-0.120730	-0.021740	0.000075
C61	C	0.101825	0.018068	0.000071
C62	C	0.120948	0.062406	0.000068
C63	C	0.108784	0.150562	0.000066
C64	C	0.159196	0.151074	0.000062
C65	C	0.190484	0.107252	0.000061
C66	C	0.171360	0.062918	0.000064
C67	C	0.133116	-0.025756	0.000075
C68	C	0.183533	-0.025240	0.000076
C69	C	0.202656	0.019098	0.000073
C70	C	0.253060	0.019609	0.000059
N71	N	0.272186	0.063944	0.000061
C72	C	0.240898	0.107765	0.000062
C73	C	-0.205708	0.014943	0.000071
C74	C	-0.256123	0.014430	0.000070
C75	C	-0.268285	0.102590	0.000073
C76	C	-0.217870	0.103103	0.000070
C77	C	-0.186582	0.059278	0.000073
C78	C	0.346768	0.108838	0.000053
C79	C	0.397185	0.109346	0.000047
C80	C	0.409342	0.021186	0.000048
C81	C	0.358930	0.020678	0.000051
C82	C	0.327643	0.064507	0.000055
O83	O	0.284342	-0.017592	0.000042
O84	O	0.261803	0.145516	0.000069
C85	C	0.039248	0.105716	0.000073
C86	C	0.020124	0.061381	0.000075
C87	C	0.051412	0.017560	0.000074
C88	C	-0.030290	0.060868	0.000075
C89	C	-0.061578	0.104690	0.000076
C90	C	-0.042452	0.149025	0.000078
C91	C	0.007960	0.149537	0.000074
C92	C	0.032286	-0.026775	0.000072
C93	C	-0.018127	-0.027284	0.000076
C94	C	-0.049415	0.016538	0.000077
C95	C	0.658934	0.057699	0.000069
C96	C	0.712589	0.058252	0.000072
C97	C	0.566347	0.150291	0.000063
C98	C	0.566903	0.203945	0.000065
N99	N	0.570499	0.061888	0.129308
N100	N	0.570567	0.061885	-0.129186
C101	C	0.599638	0.090999	0.473938
C102	C	0.599654	0.090998	0.682816
O103	O	0.624416	0.115744	0.709823
N104	N	0.570558	0.061883	0.708935
C105	C	0.541458	0.032764	0.682832
O106	O	0.516714	0.007996	0.709841
C107	C	0.541445	0.032762	0.473955
C108	C	0.570539	0.061883	0.447839
C109	C	0.628731	0.120116	0.447822
C110	C	0.628725	0.120118	0.395605
C111	C	0.599626	0.091002	0.369506
C112	C	0.570533	0.061884	0.395622
C113	C	0.512348	0.003640	0.447853
C114	C	0.512348	0.003641	0.395631
C115	C	0.541443	0.032762	0.369514
C116	C	0.541428	0.032770	0.317307
N117	N	0.570525	0.061885	0.291187
C118	C	0.599623	0.091001	0.317287
C119	C	0.541466	0.032767	0.792496
C120	C	0.541468	0.032768	0.844714
C121	C	0.599665	0.091002	0.844695
C122	C	0.599660	0.091004	0.792475
C123	C	0.570562	0.061882	0.766376
C124	C	0.599608	0.091003	0.207629
C125	C	0.599598	0.091004	0.155408
C126	C	0.541403	0.032768	0.155432
C127	C	0.541411	0.032769	0.207649
C128	C	0.570517	0.061888	0.233746
O129	O	0.516683	0.008033	0.290267
O130	O	0.624372	0.115757	0.290269
C131	C	0.599644	0.090997	0.526155
C132	C	0.570552	0.061879	0.552271
C133	C	0.541453	0.032763	0.526172
C134	C	0.570554	0.061880	0.604490
C135	C	0.599653	0.090996	0.630590
C136	C	0.628749	0.120111	0.604470
C137	C	0.628743	0.120113	0.552254
C138	C	0.512357	0.003648	0.552291
C139	C	0.512365	0.003649	0.604508
C140	C	0.541464	0.032765	0.630607
H141	H	0.486974	-0.780335	0.000065
Cl142	Cl	0.713918	-0.476665	0.000034
H143	H	0.693350	-0.576584	0.000041
Cl144	Cl	0.665317	0.156725	0.480623
Cl145	Cl	0.468486	-0.675027	0.000051
H146	H	0.434826	-0.014492	0.000045
Cl147	Cl	0.425606	-0.550813	0.000044
Cl148	Cl	0.222863	-0.080337	0.000080
H149	H	0.083313	0.186249	0.000069
H150	H	-0.033692	-0.063392	0.000074
H151	H	0.653160	-0.187341	0.000054
H152	H	0.057756	-0.062461	0.000073
Cl153	Cl	0.427139	-0.399577	0.000040
Cl154	Cl	0.636173	0.127619	0.122579
Cl155	Cl	-0.166382	-0.040157	0.000074
Cl156	Cl	0.426759	-0.437043	0.000042
H157	H	0.517713	0.009063	0.228914
Cl158	Cl	0.636239	0.127611	0.759648
Cl159	Cl	0.504872	-0.003836	0.759693
H160	H	0.647851	-0.710939	0.000070
H161	H	0.488653	-0.020073	0.374384
Cl162	Cl	0.504823	-0.003832	0.122612
H163	H	0.652440	0.143821	0.625730
Cl164	Cl	0.665318	0.156727	0.519429
H165	H	0.343359	-0.015426	0.000046
Cl166	Cl	0.475782	-0.032961	0.637334
Cl167	Cl	-0.307628	0.157680	0.000076
H168	H	0.646920	-0.802406	0.000071
H169	H	0.447710	-0.299648	0.000039
H170	H	0.493206	-0.165279	0.000054
Cl171	Cl	-0.193834	0.158843	0.000068
Cl172	Cl	0.715445	-0.325417	0.000047
Cl173	Cl	-0.280157	-0.041311	0.000062
Cl174	Cl	0.714290	-0.439190	0.000056
H175	H	0.412752	0.145453	0.000045
H176	H	0.623309	0.114714	0.228871
H177	H	0.321299	0.144528	0.000059
Cl178	Cl	-0.081795	0.204115	0.000077
H179	H	0.494139	-0.073813	0.000049
Cl180	Cl	0.109088	-0.081499	0.000070
Cl181	Cl	0.031993	0.205279	0.000070
H182	H	0.652418	0.143829	0.374346
H183	H	0.174761	0.187179	0.000059
Cl184	Cl	0.636248	0.127603	0.877515
H185	H	0.517771	0.009061	0.865974
H186	H	0.654085	-0.095890	0.000064
Cl187	Cl	0.475770	-0.032971	0.480673
Cl188	Cl	0.475763	-0.032951	0.519488
