data_functionalizedCrystal
_audit_creation_method	'MofGen! by Chris Wilmer'
_symmetry_space_group_name_H-M	'P1'
_symmetry_Int_Tables_number	1
_symmetry_cell_setting	triclinic
loop_
_symmetry_equiv_pos_as_xyz
  x,y,z
_cell_length_a	9.065215
_cell_length_b	10.868271
_cell_length_c	9.065218
_cell_angle_alpha	90.000440
_cell_angle_beta	94.984709
_cell_angle_gamma	90.003841
loop_
_atom_site_label
_atom_site_type_symbol
_atom_site_fract_x
_atom_site_fract_y
_atom_site_fract_z
O1	O	1.960404	0.102302	-0.216329
O2	O	2.293738	0.435636	0.117004
O3	O	2.627071	0.768969	0.450337
O4	O	1.531119	0.102308	-0.234080
O5	O	1.864452	0.435641	0.099253
O6	O	2.197786	0.768974	0.432586
O7	O	1.754635	0.102302	-0.010562
O8	O	2.087968	0.435636	0.322771
O9	O	2.421302	0.768969	0.656104
O10	O	1.736888	0.102308	-0.439847
O11	O	2.070222	0.435641	-0.106514
O12	O	2.403555	0.768974	0.226819
O13	O	1.754614	-0.102342	-0.010569
O14	O	2.087948	0.230991	0.322764
O15	O	2.421281	0.564324	0.656097
O16	O	1.531099	-0.102337	-0.234087
O17	O	1.864432	0.230996	0.099246
O18	O	2.197765	0.564330	0.432579
O19	O	1.960384	-0.102342	-0.216336
O20	O	2.293717	0.230991	0.116997
O21	O	2.627051	0.564324	0.450330
Zn22	Zn	1.745738	-0.134831	-0.225213
Zn23	Zn	2.079071	0.198502	0.108120
Zn24	Zn	2.412405	0.531835	0.441454
Zn25	Zn	1.745765	0.134797	-0.225204
Zn26	Zn	2.079098	0.468130	0.108130
Zn27	Zn	2.412432	0.801463	0.441463
O28	O	1.736868	-0.102337	-0.439854
O29	O	2.070201	0.230996	-0.106521
O30	O	2.403535	0.564330	0.226812
C31	C	1.476122	-0.000014	-0.232379
C32	C	1.809455	0.333319	0.100955
C33	C	2.142789	0.666653	0.434288
C34	C	1.312279	-0.000012	-0.227281
C35	C	1.645612	0.333321	0.106053
C36	C	1.978946	0.666655	0.439386
N37	N	1.745730	-0.318845	-0.225219
N38	N	2.079064	0.014488	0.108115
N39	N	2.412397	0.347821	0.441448
C40	C	1.745742	-0.430183	-0.225219
C41	C	2.079075	-0.096850	0.108114
C42	C	2.412408	0.236484	0.441447
C43	C	1.745761	-0.569861	-0.225206
C44	C	2.079094	-0.236527	0.108128
C45	C	2.412428	0.096806	0.441461
C46	C	2.015381	-0.000018	-0.218038
C47	C	2.348714	0.333315	0.115296
C48	C	2.682047	0.666649	0.448629
C49	C	2.179224	-0.000012	-0.223136
C50	C	2.512557	0.333321	0.110198
C51	C	2.845891	0.666655	0.443531
C52	C	1.752919	-0.000018	0.044421
C53	C	2.086252	0.333315	0.377754
C54	C	2.419586	0.666649	0.711087
C55	C	1.747819	-0.000012	0.208264
C56	C	2.081153	0.333321	0.541597
C57	C	2.414486	0.666655	0.874930
N58	N	1.745784	0.318811	-0.225186
N59	N	2.079117	0.652144	0.108147
N60	N	2.412451	0.985478	0.441480
C61	C	1.738584	-0.000014	-0.494837
C62	C	2.071917	0.333319	-0.161504
C63	C	2.405250	0.666653	0.171829
C64	C	1.743683	-0.000012	-0.658680
C65	C	2.077017	0.333321	-0.325347
C66	C	2.410350	0.666655	0.007986
