data_functionalizedCrystal
_audit_creation_method	'MofGen! by Chris Wilmer'
_symmetry_space_group_name_H-M	'P1'
_symmetry_Int_Tables_number	1
_symmetry_cell_setting	triclinic
loop_
_symmetry_equiv_pos_as_xyz
  x,y,z
_cell_length_a	14.853567
_cell_length_b	9.616153
_cell_length_c	14.853567
_cell_angle_alpha	89.998462
_cell_angle_beta	83.634930
_cell_angle_gamma	90.003896
loop_
_atom_site_label
_atom_site_type_symbol
_atom_site_fract_x
_atom_site_fract_y
_atom_site_fract_z
O1	O	1.196368	0.115538	0.117701
O2	O	0.933909	0.115560	0.131722
O3	O	1.072149	0.115553	-0.006519
O4	O	1.058128	0.115545	0.255941
O5	O	1.072130	-0.115739	-0.006516
O6	O	0.933890	-0.115731	0.131725
O7	O	1.196349	-0.115754	0.117704
Zn8	Zn	1.065117	-0.152465	0.124715
Zn9	Zn	1.065142	0.152271	0.124711
O10	O	1.058109	-0.115746	0.255944
C11	C	0.900311	-0.000083	0.131088
C12	C	0.800227	-0.000073	0.129184
N13	N	1.065106	-0.360440	0.124717
C14	C	0.387693	-0.000102	0.039019
C15	C	0.366412	-0.000105	0.203251
C16	C	0.460446	-0.000101	0.205042
C17	C	0.518108	-0.000095	0.123819
C18	C	0.481736	-0.000093	0.040806
C19	C	0.496825	-0.000088	0.288053
C20	C	0.590864	-0.000082	0.289846
C21	C	0.648528	-0.000086	0.208623
C22	C	0.612150	-0.000086	0.125607
C23	C	0.669812	-0.000081	0.044384
C24	C	0.633437	-0.000091	-0.038633
C25	C	0.539399	-0.000098	-0.040417
C26	C	0.742565	-0.000079	0.210407
C27	C	0.763855	-0.000072	0.046172
C28	C	0.990934	-0.580805	0.198422
C29	C	0.991094	-0.419638	0.198695
C30	C	1.159202	-0.418898	0.145382
C31	C	1.158797	-0.580116	0.145903
C32	C	1.046122	-0.580346	0.030100
C33	C	1.043954	-0.419119	0.030731
C34	C	1.229947	-0.000108	0.118337
C35	C	1.330031	-0.000108	0.120241
C36	C	1.071504	-0.000089	-0.040106
C37	C	1.069601	-0.000077	-0.140189
N38	N	1.065159	0.360246	0.124701
C39	C	0.979435	-0.000096	-0.552723
C40	C	1.143668	-0.000110	-0.574004
C41	C	1.145458	-0.000101	-0.479971
C42	C	1.064235	-0.000093	-0.422309
C43	C	0.981223	-0.000092	-0.458680
C44	C	1.228469	-0.000116	-0.443591
C45	C	1.230262	-0.000110	-0.349552
C46	C	1.149039	-0.000091	-0.291889
C47	C	1.066023	-0.000089	-0.328266
C48	C	0.984800	-0.000080	-0.270604
C49	C	0.901783	-0.000068	-0.306979
C50	C	0.899999	-0.000073	-0.401017
C51	C	1.150823	-0.000086	-0.197851
C52	C	0.986588	-0.000076	-0.176561
C53	C	1.058754	-0.000101	0.289531
C54	C	1.060657	-0.000105	0.389615
H55	H	0.810798	-0.000073	-0.019971
Br56	Br	1.263479	-0.000136	-0.148487
H57	H	0.835652	-0.000070	-0.260019
Br58	Br	0.876351	-0.000047	-0.098312
H59	H	0.911844	-0.000080	-0.582344
H60	H	1.209795	-0.000128	-0.620958
H61	H	1.175554	-0.617707	0.214899
Br62	Br	0.791930	-0.000050	0.323063
Br63	Br	0.288157	-0.000088	0.313477
Br64	Br	0.934223	-0.648183	-0.002957
Br65	Br	0.787343	-0.000047	-0.450389
H66	H	1.294596	-0.000137	-0.490546
H67	H	0.680397	-0.000076	-0.104764
Br68	Br	0.490027	-0.000106	-0.153073
H69	H	1.100249	-0.618465	-0.024762
H70	H	0.921155	-0.380116	0.186365
H71	H	1.003258	-0.381062	0.268896
H72	H	1.094489	-0.378827	-0.026706
Br73	Br	1.187791	-0.351587	0.259072
Br74	Br	1.342925	-0.000105	-0.300193
H75	H	0.358072	-0.000116	-0.028572
H76	H	0.920775	-0.619610	0.186291
H77	H	1.002936	-0.621307	0.268226
H78	H	1.215754	-0.380549	0.093123
Br79	Br	0.418568	-0.000066	0.398276
H80	H	1.215761	-0.619107	0.094332
H81	H	0.620472	-0.000074	0.357443
H82	H	0.974735	-0.380913	0.015051
