data_functionalizedCrystal
_audit_creation_method	'MofGen! by Chris Wilmer'
_symmetry_space_group_name_H-M	'P1'
_symmetry_Int_Tables_number	1
_symmetry_cell_setting	triclinic
loop_
_symmetry_equiv_pos_as_xyz
  x,y,z
_cell_length_a	14.971506
_cell_length_b	17.699097
_cell_length_c	13.448316
_cell_angle_alpha	89.989643
_cell_angle_beta	89.994977
_cell_angle_gamma	83.455409
loop_
_atom_site_label
_atom_site_type_symbol
_atom_site_fract_x
_atom_site_fract_y
_atom_site_fract_z
O1	O	0.113168	1.004357	-0.082771
O2	O	0.613168	1.504357	0.417229
O3	O	0.127872	0.784017	-0.082754
O4	O	0.627872	1.284017	0.417246
O5	O	-0.009699	0.900085	-0.082761
O6	O	0.490301	1.400085	0.417239
O7	O	0.250739	0.888290	-0.082765
O8	O	0.750739	1.388290	0.417235
O9	O	-0.009707	0.900070	0.082623
O10	O	0.490293	1.400070	0.582623
O11	O	0.127863	0.784003	0.082629
O12	O	0.627863	1.284003	0.582629
O13	O	0.113160	1.004343	0.082613
O14	O	0.613160	1.504343	0.582613
Cu15	Cu	0.120511	0.894171	0.097722
Cu16	Cu	0.620511	1.394171	0.597722
Cu17	Cu	0.120521	0.894189	-0.097864
Cu18	Cu	0.620521	1.394189	0.402136
O19	O	0.250730	0.888275	0.082619
O20	O	0.750730	1.388275	0.582619
C21	C	0.127338	0.755812	-0.000060
C22	C	0.627338	1.255812	0.499940
C23	C	0.125752	0.671790	-0.000054
C24	C	0.625752	1.171790	0.499946
C25	C	0.116031	0.156055	-0.090245
C26	C	0.616031	0.656055	0.409755
C27	C	0.117516	0.235003	-0.090240
C28	C	0.617516	0.735003	0.409760
C29	C	0.118255	0.274463	-0.000085
C30	C	0.618255	0.774463	0.499915
C31	C	0.117500	0.234972	0.090071
C32	C	0.617500	0.734972	0.590071
C33	C	0.116009	0.156026	0.090065
C34	C	0.616009	0.656026	0.590065
C35	C	0.123513	0.553351	0.090097
C36	C	0.623513	1.053351	0.590097
C37	C	0.125006	0.632302	0.090096
C38	C	0.625006	1.132302	0.590096
C39	C	0.125019	0.632328	-0.090208
C40	C	0.625019	1.132328	0.409792
C41	C	0.123528	0.553383	-0.090214
C42	C	0.623528	1.053383	0.409786
C43	C	0.122769	0.513899	-0.000059
C44	C	0.622769	1.013899	0.499941
C45	C	0.121157	0.428295	-0.000065
C46	C	0.621157	0.928295	0.499935
C47	C	0.119873	0.360065	-0.000078
C48	C	0.619873	0.860065	0.499922
C49	C	-0.043026	0.899547	-0.000070
C50	C	0.456974	1.399547	0.499930
C51	C	-0.142317	0.897958	-0.000074
C52	C	0.357683	1.397958	0.499926
C53	C	-0.580809	0.960082	-0.000078
C54	C	-0.080809	1.460082	0.499922
C55	C	-0.487514	0.961569	-0.000072
C56	C	0.012486	1.461569	0.499928
C57	C	-0.430064	0.893375	-0.000071
C58	C	0.069936	1.393375	0.499929
C59	C	-0.465912	0.823689	-0.000065
C60	C	0.034088	1.323689	0.499935
C61	C	-0.559206	0.822203	-0.000064
C62	C	-0.059206	1.322203	0.499936
C63	C	-0.271460	0.826792	-0.000069
C64	C	0.228540	1.326792	0.499931
C65	C	-0.178160	0.828278	-0.000072
C66	C	0.321840	1.328278	0.499928
C67	C	-0.199768	0.966158	-0.000077
C68	C	0.300232	1.466158	0.499923
C69	C	-0.293061	0.964672	-0.000076
C70	C	0.206939	1.464672	0.499924
C71	C	-0.328904	0.894986	-0.000073
C72	C	0.171096	1.394986	0.499927
C73	C	0.284057	0.888812	-0.000074
C74	C	0.784057	1.388812	0.499926
C75	C	0.383348	0.890402	-0.000076
C76	C	0.883348	1.390402	0.499924
C77	C	0.113693	1.032548	-0.000083
C78	C	0.613693	1.532548	0.499917
C79	C	0.115279	1.116570	-0.000096
C80	C	0.615279	1.616570	0.499904
N81	N	0.120503	0.894165	0.235286
N82	N	0.620503	1.394165	0.735286
N83	N	0.120521	0.894201	-0.235428
N84	N	0.620521	1.394201	0.264572
C85	C	0.059612	0.945575	0.287324
C86	C	0.559612	1.445575	0.787324
C87	C	0.059611	0.945580	0.391427
C88	C	0.559611	1.445580	0.891427
C89	C	0.120506	0.894177	0.443491
C90	C	0.620506	1.394177	0.943491
C91	C	0.181401	0.842761	0.391446
C92	C	0.681401	1.342761	0.891446
C93	C	0.181396	0.842753	0.287345
C94	C	0.681396	1.342753	0.787345
C95	C	0.181407	0.842782	0.608426
C96	C	0.681407	1.342782	1.108426
C97	C	0.181412	0.842790	0.712534
C98	C	0.681412	1.342790	1.212534
C99	C	0.059621	0.945609	0.712509
C100	C	0.559621	1.445609	1.212509
C101	C	0.059617	0.945601	0.608407
C102	C	0.559617	1.445601	1.108407
C103	C	0.120513	0.894186	0.556369
C104	C	0.620513	1.394186	1.056369
H105	H	0.115436	0.123932	-0.163660
H106	H	0.615436	0.623932	0.336340
H107	H	-0.458336	1.018310	-0.000073
H108	H	0.041664	1.518310	0.499927
H109	H	-0.300639	0.770046	-0.000053
H110	H	0.199361	1.270046	0.499947
O111	O	-0.006055	1.001063	0.768640
O112	O	0.493945	1.501063	1.268640
H113	H	0.005275	1.060068	0.748645
H114	H	0.505275	1.560068	1.248645
H115	H	-0.339836	1.020202	-0.000084
H116	H	0.160164	1.520202	0.499916
O117	O	0.118331	0.277594	-0.187471
O118	O	0.618331	0.777594	0.312529
H119	H	0.117580	0.236891	-0.250161
H120	H	0.617580	0.736891	0.249839
O121	O	0.247085	0.787349	0.768700
O122	O	0.747085	1.287349	1.268700
H123	H	0.209473	0.750551	0.816156
H124	H	0.709473	1.250551	1.316156
H125	H	0.230979	0.800888	0.244976
H126	H	0.730979	1.300888	0.744976
O127	O	-0.006054	1.001046	0.447545
O128	O	0.493946	1.501046	0.947545
H129	H	-0.075773	0.991354	0.427570
H130	H	0.424227	1.491354	0.927570
H131	H	0.230992	0.800911	0.566060
H132	H	0.730992	1.300911	1.066060
H133	H	0.122931	0.521258	-0.163627
H134	H	0.622931	1.021258	0.336373
H135	H	-0.419129	0.768164	-0.000058
H136	H	0.080871	1.268164	0.499942
O137	O	0.125814	0.674915	-0.187453
O138	O	0.625814	1.174915	0.312547
H139	H	0.126960	0.736442	-0.172309
H140	H	0.626960	1.236442	0.327691
H141	H	0.125608	0.664428	0.163515
H142	H	0.625608	1.164428	0.663515
O143	O	0.122709	0.510767	0.187330
O144	O	0.622709	1.010767	0.687330
H145	H	0.123486	0.551470	0.250018
H146	H	0.623486	1.051470	0.750018
H147	H	0.118097	0.267107	0.163476
H148	H	0.618097	0.767107	0.663476
H149	H	0.010036	0.987461	0.566017
H150	H	0.510036	1.487461	1.066017
O151	O	0.115205	0.113431	0.187295
O152	O	0.615205	0.613431	0.687295
H153	H	0.115980	0.154130	0.249988
H154	H	0.615980	0.654130	0.749988
O155	O	-0.642773	1.033635	-0.000073
O156	O	-0.142773	1.533635	0.499927
H157	H	-0.602171	1.082337	-0.000061
H158	H	-0.102171	1.582337	0.499939
O159	O	-0.161118	1.041323	-0.000071
O160	O	0.338882	1.541323	0.499929
H161	H	-0.086594	1.030903	-0.000057
H162	H	0.413406	1.530903	0.499943
O163	O	0.247091	0.787322	0.447593
O164	O	0.747091	1.287322	0.947593
H165	H	0.209500	0.750510	0.495053
H166	H	0.709500	1.250510	0.995053
O167	O	-0.116190	0.754729	-0.000057
O168	O	0.383810	1.254729	0.499943
H169	H	-0.156785	0.706021	-0.000038
H170	H	0.343215	1.206021	0.499962
H171	H	0.010027	0.987437	0.244940
H172	H	0.510027	1.487437	0.744940
O173	O	-0.597873	0.747048	-0.000066
O174	O	-0.097873	1.247048	0.499934
H175	H	-0.542252	0.699877	-0.000074
H176	H	-0.042252	1.199877	0.499926
