data_functionalizedCrystal
_audit_creation_method	'MofGen! by Chris Wilmer'
_symmetry_space_group_name_H-M	'P1'
_symmetry_Int_Tables_number	1
_symmetry_cell_setting	triclinic
loop_
_symmetry_equiv_pos_as_xyz
  x,y,z
_cell_length_a	9.065215
_cell_length_b	10.489763
_cell_length_c	8.140239
_cell_angle_alpha	89.992086
_cell_angle_beta	90.000939
_cell_angle_gamma	95.218471
loop_
_atom_site_label
_atom_site_type_symbol
_atom_site_fract_x
_atom_site_fract_y
_atom_site_fract_z
O1	O	1.959511	-0.187023	0.136615
O2	O	1.530153	-0.202369	0.136624
O3	O	1.754585	-0.009135	0.136588
O4	O	1.735080	-0.380257	0.136650
O5	O	1.754578	-0.009134	-0.136639
O6	O	1.530146	-0.202367	-0.136603
O7	O	1.959504	-0.187021	-0.136612
Zn8	Zn	1.744824	-0.194694	-0.179989
Zn9	Zn	1.744834	-0.194696	0.180000
O10	O	1.735073	-0.380255	-0.136577
C11	C	1.475170	-0.200894	0.000011
C12	C	1.311348	-0.196487	0.000013
C13	C	1.753101	0.038402	-0.000030
C14	C	1.748673	0.180046	-0.000043
C15	C	1.605855	0.248700	-0.000036
C16	C	1.673306	0.340580	-0.134763
C17	C	1.673347	0.340553	0.134618
C18	C	1.816182	0.270060	-0.134880
C19	C	1.816203	0.270024	0.134621
C20	C	1.883757	0.361875	-0.000138
C21	C	2.014488	-0.188496	0.000004
C22	C	2.178310	-0.192903	0.000013
C23	C	1.736533	0.572205	0.000016
C24	C	1.740892	0.430554	-0.000045
N25	N	1.744828	-0.194692	-0.425671
N26	N	1.744841	-0.194688	0.425683
H27	H	1.488442	0.199473	-0.000164
F28	F	1.895100	0.229483	-0.283906
H29	H	1.612873	0.371809	-0.248657
H30	H	2.001276	0.410875	-0.000221
H31	H	1.876584	0.238761	0.248522
H32	H	1.612902	0.371733	0.248517
