data_functionalizedCrystal
_audit_creation_method	'MofGen! by Chris Wilmer'
_symmetry_space_group_name_H-M	'P1'
_symmetry_Int_Tables_number	1
_symmetry_cell_setting	triclinic
loop_
_symmetry_equiv_pos_as_xyz
  x,y,z
_cell_length_a	12.759401
_cell_length_b	12.759394
_cell_length_c	12.759393
_cell_angle_alpha	90.030600
_cell_angle_beta	90.018496
_cell_angle_gamma	90.014017
loop_
_atom_site_label
_atom_site_type_symbol
_atom_site_fract_x
_atom_site_fract_y
_atom_site_fract_z
Zn1	Zn	1.606262	-0.418200	0.593988
Zn2	Zn	1.606158	-0.593919	0.418311
Zn3	Zn	1.430564	-0.418255	0.418328
Zn4	Zn	1.430555	-0.593838	0.593953
O5	O	1.518385	-0.506053	0.506145
O6	O	1.753269	-0.441520	0.570692
O7	O	1.582826	-0.570674	0.271293
O8	O	1.453917	-0.271227	0.441651
O9	O	1.753193	-0.570620	0.441623
O10	O	1.583002	-0.271186	0.570708
O11	O	1.453817	-0.441614	0.271305
O12	O	1.283541	-0.441536	0.441617
O13	O	1.453902	-0.570482	0.740979
O14	O	1.283535	-0.570536	0.570648
O15	O	1.582993	-0.441442	0.741005
O16	O	1.582817	-0.740929	0.441589
O17	O	1.453802	-0.740870	0.570632
C18	C	1.245417	-0.506034	0.506131
C19	C	1.128641	-0.506051	0.506150
C20	C	1.518326	-0.779021	0.506128
C21	C	1.518397	-0.895797	0.506156
C22	C	1.073803	-0.573329	0.573225
C23	C	0.964079	-0.573342	0.573236
C24	C	0.964040	-0.438796	0.439088
C25	C	1.073762	-0.438779	0.439083
C26	C	1.128681	-0.640601	0.640292
C27	C	1.073843	-0.707885	0.707372
C28	C	0.964119	-0.707898	0.707383
C29	C	0.909233	-0.640627	0.640315
C30	C	1.652713	-0.895597	0.640643
C31	C	1.719903	-0.950358	0.707895
C32	C	1.719966	-1.060079	0.707918
C33	C	1.652828	-1.115043	0.640684
C34	C	1.585637	-1.060282	0.573432
C35	C	1.585584	-0.950558	0.573414
C36	C	1.451318	-1.060482	0.438951
C37	C	1.451260	-0.950761	0.438921
C38	C	1.384181	-1.115446	0.371717
C39	C	1.316994	-1.060685	0.304458
C40	C	1.316935	-0.950957	0.304437
C41	C	1.384069	-0.896000	0.371669
C42	C	1.792418	-0.506073	0.506160
C43	C	1.909194	-0.506082	0.506166
C44	C	1.518458	-0.505947	0.780179
C45	C	1.518489	-0.505902	0.896955
C46	C	1.518472	-0.232020	0.506186
C47	C	1.518509	-0.115243	0.506203
C48	C	1.518372	-0.506083	0.233178
C49	C	1.518544	-0.505832	0.116402
C50	C	1.585716	-0.438704	0.951833
C51	C	1.585741	-0.438666	1.061557
C52	C	1.451310	-0.573033	1.061517
C53	C	1.451280	-0.573065	0.951795
C54	C	1.652926	-0.371541	0.896993
C55	C	1.720159	-0.304339	0.951871
C56	C	1.720184	-0.304301	1.061595
C57	C	1.652976	-0.371465	1.116442
H58	H	1.218024	-0.640599	0.640288
H59	H	1.262330	-1.105445	0.249726
C60	C	1.377335	-0.646979	0.891421
H61	H	1.386937	-0.637369	0.818220
H62	H	1.392686	-0.717568	0.909382
H63	H	1.306751	-0.631582	0.909402
C64	C	1.652995	-0.371421	1.237136
H65	H	1.603339	-0.421042	1.261938
H66	H	1.720791	-0.389583	1.261965
H67	H	1.634846	-0.303608	1.261964
C68	C	1.794075	-0.230454	0.891550
H69	H	1.834108	-0.190419	0.939950
H70	H	1.839830	-0.270657	0.848740
H71	H	1.753881	-0.184685	0.848757
C72	C	0.788539	-0.640619	0.640352
H73	H	0.763738	-0.690319	0.689910
H74	H	0.763753	-0.572840	0.658642
H75	H	0.763667	-0.658713	0.572527
C76	C	1.377399	-0.646917	1.121845
H77	H	1.387054	-0.637282	1.195052
H78	H	1.306807	-0.631547	1.103868
H79	H	1.392759	-0.717517	1.103845
H80	H	1.774921	-0.249574	1.106273
H81	H	1.118539	-0.762648	0.761983
H82	H	1.774564	-0.905597	0.762639
H83	H	0.919473	-0.762677	0.762010
H84	H	0.919343	-0.384029	0.384483
H85	H	1.774667	-1.104665	0.762691
H86	H	1.118412	-0.383987	0.384472
C87	C	1.243023	-0.890728	0.230459
H88	H	1.203056	-0.939180	0.190421
H89	H	1.197207	-0.847929	0.270603
H90	H	1.283214	-0.847932	0.184696
C91	C	1.652652	-0.774907	0.640609
H92	H	1.603027	-0.750165	0.590921
H93	H	1.634447	-0.750042	0.708386
H94	H	1.720450	-0.750054	0.622475
C95	C	1.652894	-1.235733	0.640713
H96	H	1.702527	-1.260474	0.690393
H97	H	1.585100	-1.260595	0.658830
H98	H	1.671115	-1.260589	0.572931
C99	C	1.384242	-1.236136	0.371738
H100	H	1.334631	-1.261025	0.322072
H101	H	1.452060	-1.260920	0.353626
H102	H	1.366052	-1.260923	0.439532
H103	H	1.384032	-0.806659	0.371655
H104	H	1.652915	-0.371567	0.807651
