data_functionalizedCrystal
_audit_creation_method	'MofGen! by Chris Wilmer'
_symmetry_space_group_name_H-M	'P1'
_symmetry_Int_Tables_number	1
_symmetry_cell_setting	triclinic
loop_
_symmetry_equiv_pos_as_xyz
  x,y,z
_cell_length_a	14.044220
_cell_length_b	14.853568
_cell_length_c	13.930277
_cell_angle_alpha	89.999968
_cell_angle_beta	89.997723
_cell_angle_gamma	91.587968
loop_
_atom_site_label
_atom_site_type_symbol
_atom_site_fract_x
_atom_site_fract_y
_atom_site_fract_z
O1	O	1.257997	-0.217372	-0.079710
O2	O	0.982018	-0.209528	-0.079735
O3	O	1.127379	-0.082805	-0.079727
O4	O	1.112636	-0.344096	-0.079719
O5	O	1.127359	-0.082800	0.079935
O6	O	0.981997	-0.209524	0.079926
O7	O	1.257977	-0.217368	0.079951
Zn8	Zn	1.119984	-0.213445	0.105289
Zn9	Zn	1.120011	-0.213451	-0.105073
O10	O	1.112616	-0.344091	0.079943
C11	C	0.946689	-0.206092	0.000092
C12	C	0.841449	-0.195851	0.000082
C13	C	1.126701	-0.049161	0.000100
C14	C	1.124699	0.051082	0.000090
N15	N	1.119973	-0.213441	0.248855
C16	C	0.648763	-0.177127	0.000101
C17	C	0.591226	-0.249765	0.000107
C18	C	0.484009	-0.239347	0.000117
C19	C	0.755990	-0.187544	0.000090
C20	C	1.293306	-0.220803	0.000122
C21	C	1.398545	-0.231045	0.000125
C22	C	1.029887	0.471127	0.000094
C23	C	1.202580	0.478726	0.000109
C24	C	1.204463	0.384543	0.000105
C25	C	1.119056	0.333648	0.000097
C26	C	1.031767	0.376935	0.000093
C27	C	1.291750	0.341248	0.000119
C28	C	1.293636	0.247060	0.000116
C29	C	1.208229	0.196163	0.000101
C30	C	1.120936	0.239456	0.000096
C31	C	1.035530	0.188561	0.000088
C32	C	0.948236	0.231852	0.000075
C33	C	0.946360	0.326038	0.000078
C34	C	1.210105	0.101977	0.000099
C35	C	1.037410	0.094369	0.000086
C36	C	1.113293	0.622265	0.000110
C37	C	1.115294	0.522022	0.000102
N38	N	1.120029	-0.213449	-0.248639
C39	C	1.055642	-0.269540	0.701120
C40	C	1.184405	-0.157357	0.701097
C41	C	1.184394	-0.157353	0.600601
C42	C	1.120007	-0.213445	0.550360
C43	C	1.055631	-0.269540	0.600615
C44	C	1.248775	-0.101266	0.550339
C45	C	1.248767	-0.101260	0.449837
C46	C	1.184375	-0.157348	0.399594
C47	C	1.119995	-0.213445	0.449855
C48	C	1.055608	-0.269536	0.399615
C49	C	0.991224	-0.325629	0.449874
C50	C	0.991238	-0.325627	0.550373
C51	C	1.184360	-0.157349	0.299096
C52	C	1.055597	-0.269536	0.299110
H53	H	0.622489	-0.319778	0.000105
H54	H	0.617502	-0.107120	0.000104
H55	H	0.967860	0.052936	0.000075
H56	H	1.301191	-0.055586	0.408922
H57	H	0.878698	0.190401	0.000075
H58	H	0.958815	0.506379	0.000080
H59	H	0.875290	0.361295	0.000069
H60	H	1.272114	0.520170	0.000124
H61	H	1.361283	0.382694	0.000135
H62	H	1.364716	0.211820	0.000125
H63	H	1.281178	0.066733	0.000115
H64	H	1.003161	-0.315209	0.258209
H65	H	0.938803	-0.371303	0.408956
H66	H	0.938819	-0.371297	0.591300
H67	H	1.236785	-0.111684	0.258179
H68	H	1.301202	-0.055602	0.591248
H69	H	1.003218	-0.315207	0.742044
H70	H	1.236832	-0.111694	0.742006
