data_functionalizedCrystal
_audit_creation_method	'MofGen! by Chris Wilmer'
_symmetry_space_group_name_H-M	'P1'
_symmetry_Int_Tables_number	1
_symmetry_cell_setting	triclinic
loop_
_symmetry_equiv_pos_as_xyz
  x,y,z
_cell_length_a	16.625545
_cell_length_b	16.625548
_cell_length_c	16.625539
_cell_angle_alpha	89.979432
_cell_angle_beta	90.028107
_cell_angle_gamma	89.973374
loop_
_atom_site_label
_atom_site_type_symbol
_atom_site_fract_x
_atom_site_fract_y
_atom_site_fract_z
Zn1	Zn	-0.320977	-1.232663	0.455910
Zn2	Zn	0.179023	-0.732663	0.955910
Zn3	Zn	-0.455820	-1.232559	0.321078
Zn4	Zn	0.044180	-0.732559	0.821078
Zn5	Zn	-0.321008	-1.097825	0.321091
Zn6	Zn	0.178992	-0.597825	0.821091
Zn7	Zn	-0.455774	-1.097788	0.455868
Zn8	Zn	0.044226	-0.597788	0.955868
O9	O	-0.388395	-1.165209	0.388487
O10	O	0.111605	-0.665209	0.888487
O11	O	-0.338871	-1.345482	0.438037
O12	O	0.161129	-0.845482	0.938037
O13	O	-0.437969	-1.214658	0.208247
O14	O	0.062031	-0.714658	0.708247
O15	O	-0.208171	-1.115771	0.338998
O16	O	0.291829	-0.615771	0.838998
O17	O	-0.437940	-1.345405	0.338976
O18	O	0.062060	-0.845405	0.838976
O19	O	-0.208149	-1.214836	0.438050
O20	O	0.291851	-0.714836	0.938050
O21	O	-0.338923	-1.115670	0.208257
O22	O	0.161077	-0.615670	0.708257
O23	O	-0.338878	-0.984988	0.338957
O24	O	0.161122	-0.484988	0.838957
O25	O	-0.437861	-1.115708	0.568706
O26	O	0.062139	-0.615708	1.068706
O27	O	-0.437891	-0.984961	0.437977
O28	O	0.062109	-0.484961	0.937977
O29	O	-0.338826	-1.214800	0.568737
O30	O	0.161174	-0.714800	1.068737
O31	O	-0.568647	-1.214622	0.338935
O32	O	-0.068647	-0.714622	0.838935
O33	O	-0.568613	-1.115607	0.437965
O34	O	-0.068613	-0.615607	0.937965
C35	C	-0.597886	-1.165121	0.388462
C36	C	-0.097886	-0.665121	0.888462
C37	C	-0.687507	-1.165158	0.388478
C38	C	-0.187507	-0.665158	0.888478
C39	C	-0.388383	-0.955718	0.388464
C40	C	0.111617	-0.455718	0.888464
C41	C	-0.388398	-0.866097	0.388474
C42	C	0.111602	-0.366097	0.888474
C43	C	-0.388335	-1.165261	0.598796
C44	C	0.111665	-0.665261	1.098796
C45	C	-0.388309	-1.165284	0.688417
C46	C	0.111691	-0.665284	1.188417
C47	C	-0.760289	-1.165189	0.388494
C48	C	-0.260289	-0.665189	0.888494
C49	C	-0.851598	-1.165236	0.388511
C50	C	-0.351598	-0.665236	0.888511
C51	C	-0.924374	-1.165278	0.388522
C52	C	-0.424374	-0.665278	0.888522
C53	C	-1.015688	-1.165324	0.388538
C54	C	-0.515688	-0.665324	0.888538
C55	C	-0.178086	-1.165319	0.388530
C56	C	0.321914	-0.665319	0.888530
C57	C	-0.088465	-1.165366	0.388548
C58	C	0.411535	-0.665366	0.888548
C59	C	-0.388407	-1.375518	0.388510
C60	C	0.111593	-0.875518	0.888510
C61	C	-0.388412	-1.465139	0.388520
C62	C	0.111588	-0.965139	0.888520
C63	C	-0.388403	-0.537921	0.388508
C64	C	0.111597	-0.037921	0.888508
C65	C	-0.388399	-0.629230	0.388496
C66	C	0.111601	-0.129230	0.888496
C67	C	-0.388401	-0.702006	0.388490
C68	C	0.111599	-0.202006	0.888490
C69	C	-0.388396	-0.793320	0.388480
C70	C	0.111604	-0.293320	0.888480
C71	C	-0.388397	-1.165203	0.178996
C72	C	0.111603	-0.665203	0.678996
C73	C	-0.388195	-1.165337	0.089375
C74	C	0.111805	-0.665337	0.589375
C75	C	-0.388219	-1.165321	1.016593
C76	C	0.111781	-0.665321	1.516593
C77	C	-0.388247	-1.165308	0.925284
C78	C	0.111753	-0.665308	1.425284
C79	C	-0.388265	-1.165303	0.852508
C80	C	0.111735	-0.665303	1.352508
C81	C	-0.388291	-1.165289	0.761194
C82	C	0.111709	-0.665289	1.261194
