data_functionalizedCrystal
_audit_creation_method	'MofGen! by Chris Wilmer'
_symmetry_space_group_name_H-M	'P1'
_symmetry_Int_Tables_number	1
_symmetry_cell_setting	triclinic
loop_
_symmetry_equiv_pos_as_xyz
  x,y,z
_cell_length_a	13.897449
_cell_length_b	18.101397
_cell_length_c	13.897441
_cell_angle_alpha	89.966068
_cell_angle_beta	89.978743
_cell_angle_gamma	90.021292
loop_
_atom_site_label
_atom_site_type_symbol
_atom_site_fract_x
_atom_site_fract_y
_atom_site_fract_z
Zn1	Zn	1.474664	-0.294797	-0.545421
Zn2	Zn	1.807997	0.038537	-0.212087
Zn3	Zn	2.141330	0.371870	0.121246
Zn4	Zn	1.474556	-0.418650	-0.384110
Zn5	Zn	1.807889	-0.085317	-0.050777
Zn6	Zn	2.141223	0.248016	0.282557
Zn7	Zn	1.313359	-0.294829	-0.384132
Zn8	Zn	1.646692	0.038504	-0.050798
Zn9	Zn	1.980026	0.371838	0.282535
Zn10	Zn	1.313327	-0.418603	-0.545355
Zn11	Zn	1.646660	-0.085269	-0.212022
Zn12	Zn	1.979993	0.248064	0.121311
O13	O	1.393976	-0.356720	-0.464754
O14	O	1.727310	-0.023386	-0.131421
O15	O	2.060643	0.309947	0.201912
O16	O	1.609631	-0.311233	-0.524041
O17	O	1.942964	0.022101	-0.190708
O18	O	2.276298	0.355434	0.142626
O19	O	1.453141	-0.402258	-0.249131
O20	O	1.786474	-0.068925	0.084202
O21	O	2.119808	0.264408	0.417535
O22	O	1.334815	-0.191192	-0.405564
O23	O	1.668148	0.142142	-0.072230
O24	O	2.001481	0.475475	0.261103
O25	O	1.609552	-0.402227	-0.405527
O26	O	1.942885	-0.068894	-0.072193
O27	O	2.276218	0.264439	0.261140
O28	O	1.453325	-0.191168	-0.524062
O29	O	1.786658	0.142165	-0.190729
O30	O	2.119991	0.475499	0.142605
O31	O	1.334710	-0.311287	-0.249147
O32	O	1.668044	0.022046	0.084186
O33	O	2.001377	0.355379	0.417520
O34	O	1.178373	-0.311241	-0.405500
O35	O	1.511706	0.022092	-0.072167
O36	O	1.845040	0.355425	0.261167
O37	O	1.334760	-0.402146	-0.680346
O38	O	1.668093	-0.068813	-0.347012
O39	O	2.001427	0.264520	-0.013679
O40	O	1.178349	-0.402177	-0.523950
O41	O	1.511683	-0.068844	-0.190617
O42	O	1.845016	0.264489	0.142717
O43	O	1.453294	-0.311186	-0.680394
O44	O	1.786627	0.022147	-0.347060
O45	O	2.119960	0.355480	-0.013727
O46	O	1.453110	-0.522277	-0.405463
O47	O	1.786443	-0.188944	-0.072130
O48	O	2.119777	0.144390	0.261204
O49	O	1.334656	-0.522242	-0.523929
O50	O	1.667989	-0.188909	-0.190596
O51	O	2.001322	0.144425	0.142738
C52	C	1.143362	-0.356708	-0.464721
C53	C	1.476695	-0.023375	-0.131387
C54	C	1.810029	0.309958	0.201946
C55	C	1.036148	-0.356721	-0.464729
C56	C	1.369481	-0.023388	-0.131396
C57	C	1.702815	0.309945	0.201937
C58	C	0.949078	-0.356724	-0.464745
C59	C	1.282412	-0.023390	-0.131412
C60	C	1.615745	0.309943	0.201921
C61	C	0.839846	-0.356729	-0.464775
C62	C	1.173179	-0.023396	-0.131441
C63	C	1.506512	0.309938	0.201892
C64	C	1.393894	-0.549130	-0.464708
C65	C	1.727227	-0.215797	-0.131374
C66	C	2.060560	0.117536	0.201959
C67	C	1.393947	-0.631444	-0.464720
C68	C	1.727280	-0.298111	-0.131387
C69	C	2.060613	0.035222	0.201947
C70	C	1.394070	-0.930535	-0.464808
C71	C	1.727403	-0.597202	-0.131475
C72	C	2.060737	-0.263869	0.201859
C73	C	1.468390	-0.899201	-0.390073
C74	C	1.801724	-0.565868	-0.056739
C75	C	2.135057	-0.232535	0.276594
C76	C	1.468648	-0.813583	-0.390266
C77	C	1.801981	-0.480249	-0.056933
C78	C	2.135314	-0.146916	0.276400
C79	C	1.394009	-0.782153	-0.464763
C80	C	1.727342	-0.448819	-0.131430
C81	C	2.060675	-0.115486	0.201903
C82	C	1.421566	-0.813155	-0.566438
C83	C	1.754899	-0.479822	-0.233105
C84	C	2.088232	-0.146488	0.100229
C85	C	1.422141	-0.898800	-0.566031
C86	C	1.755474	-0.565467	-0.232698
C87	C	2.088807	-0.232133	0.100636
C88	C	1.291994	-0.899046	-0.438749
C89	C	1.625328	-0.565713	-0.105415
C90	C	1.958661	-0.232380	0.227918
C91	C	1.292498	-0.813397	-0.436479
C92	C	1.625832	-0.480064	-0.103146
C93	C	1.959165	-0.146730	0.230188
C94	C	1.393973	-0.698293	-0.464745
C95	C	1.727306	-0.364960	-0.131411
C96	C	2.060639	-0.031627	0.201922
C97	C	1.394108	-1.014395	-0.464834
C98	C	1.727442	-0.681061	-0.131500
C99	C	2.060775	-0.347728	0.201833
C100	C	1.645569	-0.356732	-0.464789
C101	C	1.978903	-0.023398	-0.131455
C102	C	2.312236	0.309935	0.201878
C103	C	1.752783	-0.356737	-0.464803
C104	C	2.086116	-0.023403	-0.131470
C105	C	2.419450	0.309930	0.201863
C106	C	1.394035	-0.356657	-0.716348
C107	C	1.727369	-0.023324	-0.383014
C108	C	2.060702	0.310009	-0.049681
C109	C	1.394061	-0.356631	-0.823562
C110	C	1.727394	-0.023298	-0.490228
C111	C	2.060727	0.310036	-0.156895
C112	C	1.394085	-0.163558	-0.464822
C113	C	1.727419	0.169776	-0.131489
C114	C	2.060752	0.503109	0.201844
C115	C	1.394132	-0.081244	-0.464851
C116	C	1.727465	0.252090	-0.131518
C117	C	2.060799	0.585423	0.201815
C118	C	1.394080	-0.356610	-0.910631
C119	C	1.727414	-0.023277	-0.577298
C120	C	2.060747	0.310057	-0.243965
C121	C	1.394108	-0.356577	-1.019864
C122	C	1.727441	-0.023243	-0.686531
C123	C	2.060775	0.310090	-0.353197
C124	C	1.393973	-0.356728	-0.214140
C125	C	1.727306	-0.023395	0.119193
C126	C	2.060640	0.309939	0.452527
C127	C	1.394135	-0.356546	-0.106927
C128	C	1.727468	-0.023213	0.226407
C129	C	2.060801	0.310121	0.559740
H130	H	1.451407	-0.792625	-0.314876
H131	H	1.784741	-0.459291	0.018457
H132	H	2.118074	-0.125958	0.351791
H133	H	1.271720	-0.793142	-0.361655
H134	H	1.605053	-0.459809	-0.028321
H135	H	1.938386	-0.126476	0.305012
H136	H	1.266925	-0.920711	-0.365893
H137	H	1.600258	-0.587377	-0.032560
H138	H	1.933592	-0.254044	0.300774
H139	H	1.370380	-0.919525	-0.623634
H140	H	1.703714	-0.586191	-0.290300
H141	H	2.037047	-0.252858	0.043033
H142	H	1.236620	-0.919310	-0.493182
H143	H	1.569953	-0.585977	-0.159848
H144	H	1.903287	-0.252644	0.173485
H145	H	1.369089	-0.792794	-0.623619
H146	H	1.702423	-0.459460	-0.290286
H147	H	2.035756	-0.126127	0.043047
H148	H	1.544260	-0.793038	-0.407508
H149	H	1.877593	-0.459704	-0.074175
H150	H	2.210926	-0.126371	0.259158
H151	H	1.495343	-0.791646	-0.588885
H152	H	1.828676	-0.458312	-0.255552
H153	H	2.162010	-0.124979	0.077782
H154	H	1.234145	-0.792010	-0.486926
H155	H	1.567479	-0.458677	-0.153593
H156	H	1.900812	-0.125343	0.179741
H157	H	1.451358	-0.919848	-0.314457
H158	H	1.784691	-0.586515	0.018877
H159	H	2.118025	-0.253181	0.352210
H160	H	1.496753	-0.918717	-0.588105
H161	H	1.830087	-0.585384	-0.254772
H162	H	2.163420	-0.252051	0.078562
H163	H	1.543589	-0.920668	-0.407117
H164	H	1.876922	-0.587334	-0.073783
H165	H	2.210256	-0.254001	0.259550
