data_functionalizedCrystal
_audit_creation_method	'MofGen! by Chris Wilmer'
_symmetry_space_group_name_H-M	'P1'
_symmetry_Int_Tables_number	1
_symmetry_cell_setting	triclinic
loop_
_symmetry_equiv_pos_as_xyz
  x,y,z
_cell_length_a	12.594517
_cell_length_b	21.295417
_cell_length_c	12.594509
_cell_angle_alpha	90.035198
_cell_angle_beta	90.021327
_cell_angle_gamma	90.029502
loop_
_atom_site_label
_atom_site_type_symbol
_atom_site_fract_x
_atom_site_fract_y
_atom_site_fract_z
Zn1	Zn	1.627166	-0.250594	0.601809
Zn2	Zn	1.627014	-0.355872	0.423808
Zn3	Zn	1.449170	-0.250621	0.423837
Zn4	Zn	1.449110	-0.355829	0.601738
O5	O	1.538115	-0.303229	0.512798
O6	O	1.776092	-0.264566	0.578214
O7	O	1.603385	-0.341940	0.274866
O8	O	1.472870	-0.162528	0.447487
O9	O	1.775980	-0.341914	0.447438
O10	O	1.603643	-0.162508	0.578242
O11	O	1.472723	-0.264612	0.274888
O12	O	1.300216	-0.264570	0.447419
O13	O	1.472767	-0.341839	0.750694
O14	O	1.300172	-0.341865	0.578122
O15	O	1.603585	-0.264524	0.750745
O16	O	1.603326	-0.443956	0.447370
O17	O	1.472621	-0.443924	0.578094
C18	C	1.261574	-0.303216	0.512767
C19	C	1.143269	-0.303226	0.512779
C20	C	1.074009	-0.261127	0.441825
C21	C	1.003175	-0.318547	0.415633
C22	C	1.003304	-0.245834	0.538989
C23	C	1.073993	-0.360676	0.486536
C24	C	1.074128	-0.287924	0.609937
C25	C	1.003326	-0.345384	0.583782
C26	C	1.537979	-0.466780	0.512744
C27	C	1.538019	-0.536748	0.512757
C28	C	1.606073	-0.569548	0.580889
C29	C	1.606111	-0.635290	0.580916
C30	C	1.538105	-0.668231	0.512790
C31	C	1.470037	-0.635424	0.444653
C32	C	1.469994	-0.569683	0.444636
N33	N	1.530063	-0.771497	0.419640
N34	N	1.530110	-0.833949	0.419659
C35	C	1.538229	-0.866306	0.512838
N36	N	1.546320	-0.833852	0.606001
N37	N	1.546278	-0.771395	0.605980
C38	C	1.538144	-0.739516	0.512801
C39	C	1.606328	-0.970390	0.581005
C40	C	1.606358	-1.036134	0.581033
C41	C	1.470290	-1.036266	0.444761
C42	C	1.470255	-0.970524	0.444742
C43	C	1.538279	-0.937590	0.512863
C44	C	1.815736	-0.303242	0.512830
C45	C	1.934041	-0.303247	0.512844
C46	C	1.538186	-0.303174	0.790419
C47	C	1.538217	-0.303150	0.908725
C48	C	1.538280	-0.139038	0.512876
C49	C	1.538351	-0.069070	0.512908
C50	C	1.538105	-0.303238	0.236257
C51	C	1.538281	-0.303084	0.117952
C52	C	1.467088	-0.345178	0.977950
C53	C	1.564202	-0.360559	1.048737
C54	C	1.441178	-0.287731	1.048737
C55	C	1.635382	-0.318561	0.977954
C56	C	1.512292	-0.245707	0.977947
C57	C	1.609474	-0.261066	1.048702
H58	H	0.972196	-0.197296	0.561093
H59	H	1.669722	-0.225496	1.079572
H60	H	1.490302	-0.197170	0.946829
H61	H	1.359087	-0.274717	1.079829
C62	C	1.593869	-0.426143	1.090755
H63	H	1.543240	-0.455980	1.066536
H64	H	1.662338	-0.437363	1.065479
H65	H	1.594306	-0.425547	1.166177
C66	C	1.680886	-0.533321	0.655826
H67	H	1.671121	-0.489469	0.646055
H68	H	1.665279	-0.544073	0.727328
H69	H	1.752420	-0.544063	0.640309
H70	H	1.105318	-0.274950	0.692049
H71	H	1.661520	-0.662000	0.636410
H72	H	1.105044	-0.225561	0.381748
C73	C	1.395235	-0.671656	0.369715
H74	H	1.405015	-0.715507	0.379475
H75	H	1.323704	-0.660915	0.385223
H76	H	1.410851	-0.660904	0.298209
H77	H	1.414575	-0.542977	0.389153
H78	H	0.972010	-0.331503	0.333496
C79	C	1.681118	-0.934160	0.655965
H80	H	1.721637	-0.963113	0.696567
H81	H	1.727510	-0.908502	0.615309
H82	H	1.640330	-0.908522	0.702291
C83	C	1.395402	-0.934440	0.369792
H84	H	1.405109	-0.890570	0.379545
H85	H	1.411020	-0.945237	0.298293
H86	H	1.323882	-0.945246	0.385316
H87	H	1.661776	-1.062838	0.636520
C88	C	1.115757	-0.426274	0.456492
H89	H	1.191186	-0.425860	0.456616
H90	H	1.090990	-0.456208	0.506600
H91	H	1.090873	-0.437216	0.387706
C92	C	1.395479	-1.072493	0.369830
H93	H	1.405252	-1.116345	0.379595
H94	H	1.323951	-1.061748	0.385341
H95	H	1.411092	-1.061746	0.298321
H96	H	0.972486	-0.381035	0.643813
C97	C	1.385895	-0.393263	0.935974
H98	H	1.404515	-0.434035	0.960214
H99	H	1.317113	-0.382733	0.961250
H100	H	1.385986	-0.392693	0.860551
C101	C	1.746325	-0.336188	0.936136
H102	H	1.745620	-0.336116	0.860707
H103	H	1.796878	-0.306482	0.960942
H104	H	1.764916	-0.376843	0.960947
