data_functionalizedCrystal
_audit_creation_method	'MofGen! by Chris Wilmer'
_symmetry_space_group_name_H-M	'P1'
_symmetry_Int_Tables_number	1
_symmetry_cell_setting	triclinic
loop_
_symmetry_equiv_pos_as_xyz
  x,y,z
_cell_length_a	23.532407
_cell_length_b	12.837942
_cell_length_c	22.610064
_cell_angle_alpha	89.981502
_cell_angle_beta	90.003992
_cell_angle_gamma	88.838809
loop_
_atom_site_label
_atom_site_type_symbol
_atom_site_fract_x
_atom_site_fract_y
_atom_site_fract_z
O1	O	-0.762473	-0.125788	0.049110
O2	O	-0.597654	-0.143986	0.049127
O3	O	-0.676409	0.015978	0.049115
O4	O	-0.683718	-0.285752	0.049122
O5	O	-0.676406	0.016027	-0.049254
O6	O	-0.597651	-0.143937	-0.049242
O7	O	-0.762471	-0.125740	-0.049259
Zn8	Zn	-0.680061	-0.134831	-0.064869
Zn9	Zn	-0.680064	-0.134895	0.064737
O10	O	-0.683716	-0.285704	-0.049247
C11	C	-0.576410	-0.143498	-0.000055
C12	C	-0.513113	-0.142105	-0.000049
C13	C	-0.673938	0.054598	-0.000069
C14	C	-0.666574	0.169599	-0.000067
C15	C	-0.783714	-0.126227	-0.000076
C16	C	-0.847011	-0.127621	-0.000078
C17	C	-0.118940	-0.228030	-0.000074
C18	C	-0.059466	-0.226735	-0.000077
O19	O	-0.027291	-0.306388	-0.000097
N20	N	-0.031383	-0.131637	-0.000078
C21	C	-0.062778	-0.037827	-0.000082
O22	O	-0.033430	0.043181	-0.000084
C23	C	-0.122251	-0.039122	-0.000082
C24	C	-0.150331	-0.134226	-0.000075
C25	C	-0.147020	-0.323126	-0.000067
C26	C	-0.206490	-0.324420	-0.000062
C27	C	-0.237881	-0.230617	-0.000064
C28	C	-0.209801	-0.135520	-0.000071
C29	C	-0.153645	0.054687	-0.000090
C30	C	-0.213122	0.053384	-0.000091
C31	C	-0.241202	-0.041721	-0.000084
C32	C	-0.300662	-0.043011	-0.000067
N33	N	-0.328745	-0.138109	-0.000066
C34	C	-0.297354	-0.231913	-0.000065
C35	C	0.062120	-0.035113	-0.000082
C36	C	0.121593	-0.033817	-0.000077
C37	C	0.124901	-0.222726	-0.000073
C38	C	0.065428	-0.224022	-0.000074
C39	C	0.034038	-0.130212	-0.000081
C40	C	-0.422246	-0.234622	-0.000054
C41	C	-0.481722	-0.235908	-0.000047
C42	C	-0.485025	-0.046999	-0.000054
C43	C	-0.425555	-0.045713	-0.000058
C44	C	-0.394167	-0.139533	-0.000060
O45	O	-0.332873	0.036600	-0.000050
O46	O	-0.326709	-0.312907	-0.000071
C47	C	-0.686186	-0.324323	-0.000062
C48	C	-0.693550	-0.439324	-0.000060
N49	N	-0.680063	-0.134786	-0.153321
C50	C	-0.755107	0.411469	-0.000064
C51	C	-0.748190	0.519523	-0.000062
C52	C	-0.645824	0.493765	-0.000058
C53	C	-0.652741	0.385710	-0.000059
C54	C	-0.707384	0.344566	-0.000063
C55	C	-0.714300	0.236510	-0.000069
C56	C	-0.611934	0.210753	-0.000061
C57	C	-0.605018	0.318808	-0.000059
N58	N	-0.680065	-0.134931	0.153189
C59	C	-0.642203	-0.072175	0.561833
C60	C	-0.642204	-0.072161	0.623753
O61	O	-0.610018	-0.018848	0.655773
N62	N	-0.680066	-0.134811	0.654726
C63	C	-0.717934	-0.197470	0.623777
O64	O	-0.750139	-0.250756	0.655808
C65	C	-0.717935	-0.197477	0.561858
C66	C	-0.680067	-0.134832	0.530888
C67	C	-0.604338	-0.009534	0.530862
C68	C	-0.604337	-0.009549	0.468947
C69	C	-0.642201	-0.072205	0.438002
C70	C	-0.680065	-0.134847	0.468972
C71	C	-0.755805	-0.260130	0.530910
C72	C	-0.755804	-0.260131	0.468987
C73	C	-0.717935	-0.197486	0.438016
C74	C	-0.717928	-0.197519	0.376111
N75	N	-0.680066	-0.134869	0.345138
C76	C	-0.642202	-0.072213	0.376083
C77	C	-0.717929	-0.197449	0.753811
C78	C	-0.717925	-0.197448	0.815728
C79	C	-0.642196	-0.072137	0.815700
C80	C	-0.642197	-0.072145	0.753781
C81	C	-0.680066	-0.134799	0.722837
C82	C	-0.642202	-0.072250	0.246055
C83	C	-0.642202	-0.072274	0.184134
C84	C	-0.717933	-0.197580	0.184168
C85	C	-0.717931	-0.197560	0.246084
C86	C	-0.680063	-0.134887	0.277026
O87	O	-0.750099	-0.250802	0.344051
O88	O	-0.610007	-0.018925	0.344044
H89	H	-0.504582	-0.313357	-0.000041
N90	N	-0.758774	-0.265133	0.279485
H91	H	-0.784235	-0.219845	0.305157
H92	H	-0.736658	-0.315987	0.305160
H93	H	-0.611366	-0.021216	0.271241
H94	H	-0.748755	-0.248473	0.840939
H95	H	-0.396697	-0.311020	-0.000058
H96	H	-0.748765	-0.248479	0.728620
N97	N	-0.601361	-0.004692	0.150733
H98	H	-0.607103	-0.014204	0.106811
H99	H	-0.561055	-0.025401	0.161566
H100	H	-0.787052	0.573993	-0.000061
H101	H	-0.510594	0.029373	-0.000053
H102	H	-0.748759	-0.248596	0.158962
H103	H	-0.130793	0.132132	-0.000096
N104	N	-0.236772	-0.426997	-0.000052
H105	H	-0.207854	-0.486216	-0.000051
H106	H	-0.261380	-0.431643	-0.036517
N107	N	-0.796654	-0.327689	0.564304
H108	H	-0.820641	-0.367368	0.535296
H109	H	-0.822074	-0.282330	0.589977
N110	N	-0.563507	0.058048	0.435547
H111	H	-0.539529	0.097747	0.464554
H112	H	-0.585641	0.108843	0.409852
H113	H	-0.121467	-0.399517	-0.000068
N114	N	0.035144	-0.326597	-0.000064
H115	H	0.064060	-0.385819	-0.000061
H116	H	0.010538	-0.331240	-0.036531
N117	N	-0.560457	0.138594	-0.000063
H118	H	-0.573128	0.063898	-0.000066
H119	H	-0.536896	0.151832	0.036405
N120	N	-0.601356	-0.004553	0.849082
H121	H	-0.607106	-0.014057	0.893006
H122	H	-0.608594	0.070879	0.838243
H123	H	0.150470	-0.299106	-0.000075
N124	N	-0.546083	0.363183	-0.000061
H125	H	-0.524907	0.338725	0.036404
H126	H	-0.548988	0.441781	-0.000082
H127	H	-0.758794	0.203013	-0.000075
H128	H	0.144450	0.043627	-0.000073
N129	N	0.028266	0.066073	-0.000086
H130	H	0.055085	0.126507	-0.000086
H131	H	0.003520	0.069639	0.036381
H132	H	-0.573505	0.041494	0.556051
H133	H	-0.611361	-0.021133	0.728569
H134	H	-0.238677	0.129777	-0.000097
H135	H	-0.799600	0.377969	-0.000073
N136	N	-0.796655	-0.327698	0.435612
H137	H	-0.820643	-0.367375	0.464631
H138	H	-0.774541	-0.378514	0.409933
H139	H	-0.402691	0.031729	-0.000055
H140	H	-0.601336	0.527283	-0.000048
