data_functionalizedCrystal
_audit_creation_method	'MofGen! by Chris Wilmer'
_symmetry_space_group_name_H-M	'P1'
_symmetry_Int_Tables_number	1
_symmetry_cell_setting	triclinic
loop_
_symmetry_equiv_pos_as_xyz
  x,y,z
_cell_length_a	17.019372
_cell_length_b	17.038274
_cell_length_c	14.421503
_cell_angle_alpha	89.983208
_cell_angle_beta	86.128815
_cell_angle_gamma	92.756493
loop_
_atom_site_label
_atom_site_type_symbol
_atom_site_fract_x
_atom_site_fract_y
_atom_site_fract_z
O1	O	1.053349	-0.099573	-0.006911
O2	O	1.386682	0.233761	0.326423
O3	O	1.720015	0.567094	0.659756
O4	O	0.824539	-0.112281	0.011348
O5	O	1.157873	0.221053	0.344682
O6	O	1.491206	0.554386	0.678015
O7	O	0.937584	0.007887	0.002302
O8	O	1.270917	0.341221	0.335635
O9	O	1.604250	0.674554	0.668968
O10	O	0.940304	-0.219741	0.002136
O11	O	1.273637	0.113592	0.335469
O12	O	1.606971	0.446926	0.668803
O13	O	0.937572	0.007900	-0.151921
O14	O	1.270905	0.341234	0.181413
O15	O	1.604238	0.674567	0.514746
O16	O	0.824527	-0.112268	-0.142874
O17	O	1.157861	0.221065	0.190459
O18	O	1.491194	0.554399	0.523793
O19	O	1.053337	-0.099560	-0.161133
O20	O	1.386670	0.233773	0.172200
O21	O	1.720003	0.567107	0.505533
Cu22	Cu	0.938931	-0.105913	-0.166085
Cu23	Cu	1.272264	0.227421	0.167248
Cu24	Cu	1.605598	0.560754	0.500581
Cu25	Cu	0.938945	-0.105928	0.016301
Cu26	Cu	1.272278	0.227405	0.349634
Cu27	Cu	1.605612	0.560739	0.682967
O28	O	0.940292	-0.219728	-0.152087
O29	O	1.273625	0.113605	0.181247
O30	O	1.606959	0.446939	0.514580
C31	C	0.795112	-0.111794	-0.063415
C32	C	1.128446	0.221540	0.269918
C33	C	1.461779	0.554873	0.603251
C34	C	0.707446	-0.110352	-0.056421
C35	C	1.040780	0.222981	0.276913
C36	C	1.374113	0.556315	0.610246
C37	C	0.935104	0.037020	-0.074617
C38	C	1.268437	0.370353	0.258717
C39	C	1.601771	0.703686	0.592050
C40	C	0.927724	0.123806	-0.074041
C41	C	1.261057	0.457139	0.259292
C42	C	1.594390	0.790473	0.592625
C43	C	0.211628	-0.102173	-0.012582
C44	C	0.544961	0.231161	0.320752
C45	C	0.878295	0.564494	0.654085
C46	C	0.293999	-0.103527	-0.019166
C47	C	0.627333	0.229806	0.314167
C48	C	0.960666	0.563139	0.647500
C49	C	0.335170	-0.104204	-0.106526
C50	C	0.668504	0.229130	0.226807
C51	C	1.001837	0.562463	0.560141
C52	C	0.293966	-0.103517	-0.187306
C53	C	0.627299	0.229816	0.146027
C54	C	0.960633	0.563150	0.479360
C55	C	0.211596	-0.102157	-0.180721
C56	C	0.544930	0.231177	0.152612
C57	C	0.878263	0.564510	0.485946
C58	C	0.583873	-0.108305	-0.130616
C59	C	0.917206	0.225028	0.202718
C60	C	1.250539	0.558361	0.536051
C61	C	0.666248	-0.109668	-0.137195
C62	C	0.999581	0.223665	0.196138
C63	C	1.332914	0.556999	0.529472
C64	C	0.666276	-0.109677	0.030946
C65	C	0.999609	0.223657	0.364279
C66	C	1.332942	0.556990	0.697613
C67	C	0.583904	-0.108321	0.037524
C68	C	0.917238	0.225012	0.370857
C69	C	1.250571	0.558345	0.704190
C70	C	0.542707	-0.107631	-0.043257
C71	C	0.876041	0.225703	0.290077
C72	C	1.209374	0.559036	0.623410
C73	C	0.419367	-0.105591	-0.113259
C74	C	0.752700	0.227743	0.220075
C75	C	1.086034	0.561076	0.553408
C76	C	0.458513	-0.106238	-0.036523
C77	C	0.791846	0.227095	0.296810
C78	C	1.125179	0.560429	0.630143
C79	C	0.995483	0.173981	-0.079457
C80	C	1.328816	0.507314	0.253876
C81	C	1.662149	0.840647	0.587210
C82	C	0.988543	0.255525	-0.078908
C83	C	1.321877	0.588858	0.254426
C84	C	1.655210	0.922192	0.587759
C85	C	0.913844	0.286893	-0.072949
C86	C	1.247178	0.620227	0.260384
C87	C	1.580511	0.953560	0.593717
C88	C	0.846080	0.236712	-0.067530
C89	C	1.179414	0.570046	0.265803
C90	C	1.512747	0.903379	0.599136
C91	C	0.853020	0.155170	-0.068073
C92	C	1.186354	0.488503	0.265260
C93	C	1.519687	0.821836	0.598593
C94	C	0.889326	0.532629	-0.071020
C95	C	1.222660	0.865963	0.262314
C96	C	1.555993	1.199296	0.595647
C97	C	0.882391	0.614179	-0.070480
C98	C	1.215724	0.947512	0.262853
C99	C	1.549058	1.280845	0.596187
C100	C	1.024855	0.632985	-0.081856
C101	C	1.358188	0.966319	0.251478
C102	C	1.691522	1.299652	0.584811
C103	C	1.031789	0.551440	-0.082404
C104	C	1.365122	0.884774	0.250930
C105	C	1.698455	1.218107	0.584263
C106	C	0.964024	0.501267	-0.076980
C107	C	1.297358	0.834600	0.256353
C108	C	1.630691	1.167933	0.589687
C109	C	0.906749	0.370244	-0.072390
C110	C	1.240083	0.703578	0.260943
C111	C	1.573416	1.036911	0.594276
C112	C	0.971120	0.417917	-0.077532
C113	C	1.304453	0.751250	0.255801
C114	C	1.637787	1.084584	0.589135
C115	C	1.082764	-0.100047	-0.086367
C116	C	1.416097	0.233286	0.246966
C117	C	1.749430	0.566620	0.580299
C118	C	1.170429	-0.101489	-0.093356
C119	C	1.503763	0.231845	0.239977
C120	C	1.837096	0.565178	0.573311
C121	C	0.942771	0.751139	-0.075206
C122	C	1.276105	1.084473	0.258127
C123	C	1.609438	1.417806	0.591460
C124	C	0.950150	0.664353	-0.075896
C125	C	1.283483	0.997686	0.257438
C126	C	1.616817	1.331020	0.590771
N127	N	0.938927	-0.105902	-0.294366
N128	N	1.272260	0.227432	0.038967
N129	N	1.605593	0.560765	0.372300
C130	C	0.990749	-0.049895	-0.609942
C131	C	1.324082	0.283439	-0.276609
C132	C	1.657415	0.616772	0.056724
C133	C	1.011423	-0.120305	-0.549740
C134	C	1.344756	0.213028	-0.216406
C135	C	1.678090	0.546361	0.116927
C136	C	0.938946	-0.105924	-0.666257
C137	C	1.272279	0.227409	-0.332923
C138	C	1.605612	0.560743	0.000410
C139	C	0.918299	-0.035504	-0.542368
C140	C	1.251633	0.297829	-0.209034
C141	C	1.584966	0.631163	0.124299
C142	C	0.938938	-0.105909	-0.483535
C143	C	1.272272	0.227424	-0.150201
C144	C	1.605605	0.560758	0.183132
C145	C	0.959658	-0.176370	-0.607418
C146	C	1.292992	0.156963	-0.274085
C147	C	1.626325	0.490296	0.059249
C148	C	0.866500	-0.091523	-0.600049
C149	C	1.199833	0.241811	-0.266715
C150	C	1.533167	0.575144	0.066618
C151	C	0.887148	-0.161985	-0.539872
C152	C	1.220481	0.171349	-0.206538
C153	C	1.553815	0.504682	0.126795
C154	C	0.938952	-0.105931	-0.771518
C155	C	1.272285	0.227402	-0.438185
C156	C	1.605619	0.560735	-0.104852
C157	C	0.938932	-0.105910	-0.378275
C158	C	1.272265	0.227424	-0.044942
C159	C	1.605599	0.560757	0.288391
N160	N	0.938955	-0.105933	0.144581
N161	N	1.272288	0.227400	0.477914
N162	N	1.605622	0.560734	0.811248
H163	H	0.178112	-0.101628	0.058556
H164	H	0.511446	0.231706	0.391890
H165	H	0.844779	0.565039	0.725223
H166	H	0.805255	-0.079320	-0.622359
H167	H	1.138588	0.254013	-0.289026
H168	H	1.471921	0.587346	0.044307
H169	H	1.031940	0.392373	-0.082363
H170	H	1.365273	0.725707	0.250970
H171	H	1.698606	1.059040	0.584304
Cl172	Cl	0.718071	-0.110538	0.132491
Cl173	Cl	1.051404	0.222795	0.465825
Cl174	Cl	1.384738	0.556129	0.799158
H175	H	0.699766	-0.110224	-0.208338
H176	H	1.033100	0.223110	0.124996
H177	H	1.366433	0.556443	0.458329
Cl178	Cl	0.532092	-0.107458	-0.232169
Cl179	Cl	0.865425	0.225875	0.101164
Cl180	Cl	1.198758	0.559208	0.434497
H181	H	0.900840	0.024043	-0.513848
H182	H	1.234173	0.357376	-0.180515
H183	H	1.567507	0.690709	0.152818
H184	H	0.327540	-0.104080	0.046609
H185	H	0.660873	0.229254	0.379942
H186	H	0.994207	0.562587	0.713276
H187	H	1.043720	0.296374	-0.083320
H188	H	1.377053	0.629708	0.250014
H189	H	1.710387	0.963041	0.583347
H190	H	0.550389	-0.107770	0.108661
H191	H	0.883722	0.225564	0.441995
H192	H	1.217055	0.558897	0.775328
Cl193	Cl	0.752172	0.276147	-0.060028
Cl194	Cl	1.085505	0.609480	0.273305
Cl195	Cl	1.418839	0.942814	0.606638
Cl196	Cl	0.345724	-0.104365	-0.297131
Cl197	Cl	0.679057	0.228968	0.036202
Cl198	Cl	1.012391	0.562301	0.369536
H199	H	0.797843	0.114318	-0.063663
H200	H	1.131177	0.447651	0.269670
H201	H	1.464510	0.780984	0.603004
Cl202	Cl	0.986730	-0.268325	-0.651276
Cl203	Cl	1.320063	0.065008	-0.317943
Cl204	Cl	1.653396	0.398342	0.015391
H205	H	1.092616	0.525907	-0.087256
H206	H	1.425950	0.859240	0.246078
H207	H	1.759283	1.192573	0.579411
H208	H	0.178053	-0.101608	-0.246496
H209	H	0.511386	0.231725	0.086837
H210	H	0.844720	0.565059	0.420171
Cl211	Cl	0.812844	0.409686	-0.064895
Cl212	Cl	1.146178	0.743019	0.268438
Cl213	Cl	1.479511	1.076353	0.601771
H214	H	0.821559	0.639715	-0.065643
H215	H	1.154893	0.973048	0.267691
H216	H	1.488226	1.306381	0.601024
Cl217	Cl	0.406755	-0.105376	0.073297
Cl218	Cl	0.740088	0.227957	0.406630
Cl219	Cl	1.073421	0.561291	0.739963
H220	H	1.034595	-0.002571	-0.640576
H221	H	1.367928	0.330762	-0.307243
H222	H	1.701262	0.664095	0.026090
Cl223	Cl	1.110038	0.696065	-0.088671
Cl224	Cl	1.443372	1.029398	0.244662
Cl225	Cl	1.776705	1.362731	0.577996
H226	H	0.452897	-0.106143	-0.184387
H227	H	0.786231	0.227191	0.148946
H228	H	1.119564	0.560524	0.482279
Cl229	Cl	1.089395	0.134555	-0.086958
Cl230	Cl	1.422728	0.467888	0.246376
Cl231	Cl	1.756062	0.801222	0.579709
H232	H	0.834147	0.491787	-0.066604
H233	H	1.167481	0.825120	0.266730
H234	H	1.500814	1.158454	0.600063
Cl235	Cl	1.106002	-0.139098	-0.515300
Cl236	Cl	1.439335	0.194235	-0.181967
Cl237	Cl	1.772669	0.527568	0.151367
H238	H	0.843338	-0.209412	-0.509411
H239	H	1.176671	0.123921	-0.176077
H240	H	1.510004	0.457255	0.157256
