data_functionalizedCrystal
_audit_creation_method	'MofGen! by Chris Wilmer'
_symmetry_space_group_name_H-M	'P1'
_symmetry_Int_Tables_number	1
_symmetry_cell_setting	triclinic
loop_
_symmetry_equiv_pos_as_xyz
  x,y,z
_cell_length_a	20.016444
_cell_length_b	21.606444
_cell_length_c	20.016444
_cell_angle_alpha	60.001162
_cell_angle_beta	90.002955
_cell_angle_gamma	60.001269
loop_
_atom_site_label
_atom_site_type_symbol
_atom_site_fract_x
_atom_site_fract_y
_atom_site_fract_z
Zr1	Zr	0.643568	0.677480	-0.087652
O2	O	0.536889	0.806598	-0.194325
O3	O	0.676272	0.548362	-0.054954
O4	O	0.676263	0.677486	-0.194329
O5	O	0.536903	0.677469	0.054996
O6	O	0.786203	0.677491	-0.194330
O7	O	0.536897	0.677474	-0.054950
O8	O	0.786219	0.446511	0.054987
O9	O	0.536887	0.908449	-0.194321
O10	O	0.772265	0.601473	-0.041005
O11	O	0.690223	0.601466	0.041046
O12	O	0.690212	0.753494	-0.123051
O13	O	0.608170	0.753486	-0.041000
Zr14	Zr	0.818919	0.677480	0.087698
Zr15	Zr	0.818909	0.677488	-0.087652
Zr16	Zr	0.643577	0.677472	0.087698
Zr17	Zr	0.643566	0.839920	-0.087646
Zr18	Zr	0.818920	0.515040	0.087692
O19	O	0.786215	0.806598	0.055000
O20	O	0.786201	0.806609	-0.194325
O21	O	0.536902	0.806587	0.055000
O22	O	0.925598	0.548362	0.194370
O23	O	0.925585	0.548373	-0.054955
O24	O	0.676285	0.548351	0.194371
O25	O	0.925583	0.677491	-0.054950
O26	O	0.786223	0.677474	0.194375
O27	O	0.676284	0.677469	0.194375
O28	O	0.925589	0.677486	0.054995
O29	O	0.676260	0.908455	-0.194321
O30	O	0.786226	0.446505	0.194367
O31	O	0.925599	0.446511	0.194367
O32	O	0.925592	0.446517	0.054987
O33	O	0.536895	0.908443	-0.054941
O34	O	0.676268	0.908449	-0.054942
O35	O	0.772274	0.601466	0.123096
O36	O	0.854317	0.601473	0.041045
O37	O	0.772264	0.753494	-0.041000
O38	O	0.690221	0.753486	0.041051
C39	C	0.511918	0.677470	0.000023
C40	C	0.437481	0.677467	0.000023
C41	C	0.731246	0.474292	0.000016
C42	C	0.731246	0.405332	0.000013
C43	C	0.309044	0.598124	0.042852
C44	C	0.239099	0.598128	0.042854
C45	C	0.153444	0.756842	-0.042808
C46	C	0.223388	0.756837	-0.042804
C47	C	0.301188	0.677476	0.000023
C48	C	0.161298	0.677484	0.000022
C49	C	0.085461	0.677489	0.000024
C50	C	0.377031	0.677471	0.000023
C51	C	0.774070	0.372938	-0.042818
C52	C	0.774073	0.308138	-0.042812
C53	C	0.731247	0.275737	0.000020
C54	C	0.688422	0.308134	0.042856
C55	C	0.688424	0.372928	0.042855
C56	C	0.688412	0.046825	0.042863
C57	C	0.688411	-0.017973	0.042859
C58	C	0.774061	-0.017966	-0.042804
C59	C	0.774063	0.046829	-0.042805
C60	C	0.731242	0.079216	0.000034
C61	C	0.731241	0.149479	0.000029
C62	C	0.731243	0.205481	0.000021
C63	C	0.950569	0.677490	0.000022
C64	C	1.025006	0.677493	0.000022
C65	C	0.731232	0.677490	-0.219313
C66	C	0.731228	0.677493	-0.293754
C67	C	0.731241	0.880668	0.000030
C68	C	0.731240	0.949628	0.000032
C69	C	0.688411	0.756836	-0.507837
C70	C	0.688418	0.756832	-0.577778
C71	C	0.774081	0.598118	-0.492110
C72	C	0.774078	0.598123	-0.422170
C73	C	0.731239	0.677484	-0.430037
C74	C	0.731248	0.677476	-0.569918
C75	C	0.731255	0.677471	-0.645751
C76	C	0.731232	0.677489	-0.354199
C77	C	0.731255	0.677470	0.219359
C78	C	0.731259	0.677467	0.293799
C79	C	0.950571	0.474302	0.000015
C80	C	1.025009	0.405345	0.000013
C81	C	0.731257	0.474282	0.219351
C82	C	0.731262	0.405319	0.293790
C83	C	0.950582	0.474292	0.219351
C84	C	1.025024	0.405332	0.293789
C85	C	0.511904	0.880668	-0.219306
C86	C	0.437462	0.949628	-0.293744
C87	C	0.511916	0.880658	0.000030
C88	C	0.437478	0.949615	0.000033
C89	C	0.731229	0.880678	-0.219306
C90	C	0.731225	0.949641	-0.293744
C91	C	1.017136	0.372962	-0.042825
C92	C	1.087071	0.308179	-0.042844
C93	C	1.164879	0.275775	-0.000019
C94	C	1.172750	0.308164	0.042820
C95	C	1.102816	0.372951	0.042834
C96	C	0.774094	0.372933	0.371584
C97	C	0.774095	0.308143	0.441533
C98	C	0.731269	0.275737	0.433686
C99	C	0.688431	0.308129	0.355884
C100	C	0.688426	0.372922	0.285937
C101	C	1.102816	0.372951	0.285916
C102	C	1.172768	0.308165	0.355852
C103	C	1.164928	0.275756	0.433660
C104	C	1.087128	0.308143	0.441531
C105	C	1.017177	0.372932	0.371596
C106	C	0.359671	0.982017	-0.285871
C107	C	0.289718	1.046823	-0.355807
C108	C	0.297559	1.079235	-0.433614
C109	C	0.375358	1.046844	-0.441486
C110	C	0.445309	0.982043	-0.371551
C111	C	0.445351	0.982005	0.042864
C112	C	0.375415	1.046806	0.042863
C113	C	0.297608	1.079212	0.000036
C114	C	0.289736	1.046820	-0.042800
C115	C	0.359671	0.982024	-0.042804
C116	C	0.774059	0.982027	-0.285871
C117	C	0.774071	1.046817	-0.355807
C118	C	0.731242	1.079224	-0.433615
C119	C	0.688406	1.046832	-0.441486
C120	C	0.688400	0.982038	-0.371551
H121	H	0.372390	0.533503	0.077734
Br122	Br	0.184133	1.090806	-0.100917
Br123	Br	0.832206	0.490423	-0.316576
H124	H	0.653529	0.821457	-0.514247
H125	H	0.808935	0.955652	-0.222523
Br126	Br	0.832178	-0.061925	-0.100943
H127	H	0.245504	0.533512	0.077730
H128	H	0.953839	0.399288	0.378018
H129	H	0.353249	0.955654	-0.077680
Br130	Br	0.731284	0.187803	0.528625
Br131	Br	0.832206	1.090768	-0.345106
Br132	Br	0.550939	0.938042	0.100990
H133	H	0.381733	1.073243	-0.504845
H134	H	0.653544	0.821448	-0.641124
H135	H	0.808969	0.399311	0.377988
H136	H	0.808958	0.533505	-0.485714
H137	H	0.508648	0.955673	-0.377971
Br138	Br	0.047857	0.864542	-0.100929
Br139	Br	0.184144	1.090767	-0.345105
H140	H	1.221893	0.223000	0.490599
H141	H	0.353271	0.955630	-0.222522
Br142	Br	0.202616	1.167181	-0.528520
Br143	Br	0.386117	1.090751	0.101004
H144	H	0.653557	0.281744	0.077735
H145	H	0.240669	1.131973	0.000046
Br146	Br	0.731258	1.167160	-0.528520
H147	H	1.109215	0.399329	0.222568
H148	H	1.221818	0.223021	-0.000036
H149	H	0.653563	0.281734	0.349508
Br150	Br	0.630278	1.090829	-0.547089
Br151	Br	1.278342	0.264223	0.345151
Br152	Br	0.911548	0.416926	-0.100954
Br153	Br	0.630254	0.938101	-0.382250
H154	H	1.236111	0.281772	0.077686
Br155	Br	0.630304	0.090765	0.101008
H156	H	0.808943	0.281763	-0.077688
H157	H	0.216985	0.821459	-0.077679
H158	H	0.808939	0.399318	-0.077701
H159	H	1.080756	0.281746	0.504892
H160	H	0.808933	0.073210	-0.077686
H161	H	0.653549	0.399282	0.222596
H162	H	0.653551	0.399305	0.077730
Br163	Br	0.630286	-0.061944	0.100991
H164	H	1.080646	0.281815	-0.077729
H165	H	0.808981	0.281777	0.504876
Br166	Br	1.113516	0.416887	0.100982
