data_functionalizedCrystal
_audit_creation_method	'MofGen! by Chris Wilmer'
_symmetry_space_group_name_H-M	'P1'
_symmetry_Int_Tables_number	1
_symmetry_cell_setting	triclinic
loop_
_symmetry_equiv_pos_as_xyz
  x,y,z
_cell_length_a	18.101398
_cell_length_b	21.295417
_cell_length_c	18.101390
_cell_angle_alpha	90.037061
_cell_angle_beta	90.014699
_cell_angle_gamma	90.028659
loop_
_atom_site_label
_atom_site_type_symbol
_atom_site_fract_x
_atom_site_fract_y
_atom_site_fract_z
Zn1	Zn	1.132127	-0.250616	0.418620
Zn2	Zn	1.465460	0.082717	0.751954
Zn3	Zn	1.798793	0.416050	1.085287
Zn4	Zn	1.132023	-0.355896	0.294770
Zn5	Zn	1.465356	-0.022563	0.628103
Zn6	Zn	1.798690	0.310770	0.961436
Zn7	Zn	1.008285	-0.250642	0.294803
Zn8	Zn	1.341618	0.082692	0.628136
Zn9	Zn	1.674951	0.416025	0.961470
Zn10	Zn	1.008238	-0.355848	0.418580
Zn11	Zn	1.341571	-0.022515	0.751913
Zn12	Zn	1.674904	0.310819	1.085247
O13	O	1.070168	-0.303251	0.356693
O14	O	1.403501	0.030083	0.690026
O15	O	1.736835	0.363416	1.023360
O16	O	1.235746	-0.264591	0.402194
O17	O	1.569079	0.068742	0.735527
O18	O	1.902412	0.402075	1.068861
O19	O	1.115585	-0.341965	0.191141
O20	O	1.448919	-0.008632	0.524474
O21	O	1.782252	0.324702	0.857808
O22	O	1.024776	-0.162549	0.311258
O23	O	1.358109	0.170784	0.644592
O24	O	1.691442	0.504118	0.977925
O25	O	1.235670	-0.341940	0.311202
O26	O	1.569003	-0.008607	0.644535
O27	O	1.902336	0.324726	0.977868
O28	O	1.115762	-0.162530	0.402226
O29	O	1.449095	0.170803	0.735560
O30	O	1.782429	0.504136	1.068893
O31	O	1.024675	-0.264635	0.191166
O32	O	1.358009	0.068699	0.524499
O33	O	1.691342	0.402032	0.857832
O34	O	0.904646	-0.264588	0.311219
O35	O	1.237979	0.068745	0.644553
O36	O	1.571312	0.402079	0.977886
O37	O	1.024695	-0.341858	0.522218
O38	O	1.358029	-0.008525	0.855551
O39	O	1.691362	0.324809	1.188885
O40	O	0.904611	-0.341883	0.402158
O41	O	1.237944	-0.008549	0.735491
O42	O	1.571278	0.324784	1.068824
O43	O	1.115716	-0.264545	0.522248
O44	O	1.449049	0.068789	0.855581
O45	O	1.782383	0.402122	1.188914
O46	O	1.115539	-0.443979	0.311163
O47	O	1.448873	-0.110646	0.644496
O48	O	1.782206	0.222687	0.977829
O49	O	1.024595	-0.443944	0.402125
O50	O	1.357928	-0.110611	0.735459
O51	O	1.691262	0.222723	1.068792
C52	C	0.877757	-0.303233	0.356688
C53	C	1.211091	0.030100	0.690021
C54	C	1.544424	0.363433	1.023355
C55	C	0.795443	-0.303241	0.356703
C56	C	1.128777	0.030092	0.690037
C57	C	1.462110	0.363426	1.023370
C58	C	0.644735	-0.303253	0.356702
C59	C	0.978068	0.030081	0.690036
C60	C	1.311402	0.363414	1.023369
C61	C	0.613384	-0.351959	0.413830
C62	C	0.946718	-0.018626	0.747163
C63	C	1.280051	0.314707	1.080496
C64	C	0.527766	-0.352157	0.413660
C65	C	0.861099	-0.018823	0.746994
C66	C	1.194432	0.314510	1.080327
C67	C	0.496352	-0.303264	0.356702
C68	C	0.829686	0.030069	0.690036
C69	C	1.163019	0.363402	1.023369
C70	C	0.527405	-0.320973	0.278559
C71	C	0.860738	0.012361	0.611892
C72	C	1.194072	0.345694	0.945226
C73	C	0.613050	-0.321319	0.278889
C74	C	0.946383	0.012014	0.612223
C75	C	1.279716	0.345347	0.945556
C76	C	0.613213	-0.236717	0.377036
C77	C	0.946546	0.096616	0.710369
C78	C	1.279880	0.429950	1.043703
C79	C	0.527563	-0.237082	0.378757
C80	C	0.860896	0.096252	0.712090
C81	C	1.194229	0.429585	1.045424
C82	C	0.412493	-0.303270	0.356698
C83	C	0.745826	0.030064	0.690031
C84	C	1.079160	0.363397	1.023364
C85	C	0.728594	-0.303249	0.356702
C86	C	1.061928	0.030085	0.690035
C87	C	1.395261	0.363418	1.023368
C88	C	1.070071	-0.466802	0.356652
C89	C	1.403404	-0.133469	0.689986
C90	C	1.736738	0.199864	1.023319
C91	C	1.070097	-0.536770	0.356659
C92	C	1.403430	-0.203437	0.689993
C93	C	1.736764	0.129896	1.023326
C94	C	1.117494	-0.569635	0.309344
C95	C	1.450827	-0.236301	0.642677
C96	C	1.784161	0.097032	0.976010
C97	C	1.117529	-0.635377	0.309360
C98	C	1.450862	-0.302044	0.642694
C99	C	1.784195	0.031290	0.976027
C100	C	1.070153	-0.668253	0.356685
C101	C	1.403487	-0.334920	0.690018
C102	C	1.736820	-0.001586	1.023352
C103	C	1.022753	-0.635381	0.404010
C104	C	1.356086	-0.302047	0.737343
C105	C	1.689420	0.031286	1.070677
C106	C	1.022725	-0.569639	0.403997
C107	C	1.356058	-0.236306	0.737330
C108	C	1.689392	0.097027	1.070664
N109	N	1.005369	-0.771516	0.362329
N110	N	1.338702	-0.438183	0.695662
N111	N	1.672036	-0.104850	1.028996
N112	N	1.005398	-0.833968	0.362337
N113	N	1.338731	-0.500634	0.695670
N114	N	1.672065	-0.167301	1.029003
C115	C	1.070236	-0.866328	0.356727
C116	C	1.403570	-0.532994	0.690061
C117	C	1.736903	-0.199661	1.023394
N118	N	1.135046	-0.833877	0.351095
N119	N	1.468380	-0.500543	0.684429
N120	N	1.801713	-0.167210	1.017762
N121	N	1.135017	-0.771419	0.351084
N122	N	1.468350	-0.438086	0.684417
N123	N	1.801683	-0.104753	1.017750
C124	C	1.070179	-0.739538	0.356704
C125	C	1.403512	-0.406205	0.690038
C126	C	1.736846	-0.072872	1.023371
C127	C	1.117675	-0.970477	0.309427
C128	C	1.451008	-0.637144	0.642760
C129	C	1.784342	-0.303811	0.976094
C130	C	1.117711	-1.036221	0.309449
C131	C	1.451044	-0.702888	0.642782
C132	C	1.784377	-0.369554	0.976116
C133	C	1.022929	-1.036223	0.404095
C134	C	1.356262	-0.702890	0.737428
C135	C	1.689595	-0.369557	1.070761
C136	C	1.022899	-0.970481	0.404077
C137	C	1.356232	-0.637148	0.737410
C138	C	1.689566	-0.303814	1.070743
C139	C	1.070271	-0.937612	0.356739
C140	C	1.403605	-0.604278	0.690072
C141	C	1.736938	-0.270945	1.023406
C142	C	1.263330	-0.303268	0.356699
C143	C	1.596663	0.030065	0.690032
C144	C	1.929997	0.363398	1.023365
C145	C	1.345644	-0.303276	0.356701
C146	C	1.678977	0.030057	0.690034
C147	C	2.012311	0.363391	1.023368
C148	C	1.070212	-0.303193	0.549855
C149	C	1.403545	0.030140	0.883188
C150	C	1.736879	0.363474	1.216522
C151	C	1.070231	-0.303169	0.632169
C152	C	1.403564	0.030165	0.965503
C153	C	1.736897	0.363498	1.298836
C154	C	1.070286	-0.139060	0.356751
C155	C	1.403619	0.194273	0.690084
C156	C	1.736952	0.527606	1.023417
C157	C	1.070336	-0.069092	0.356775
C158	C	1.403669	0.264241	0.690108
C159	C	1.737002	0.597574	1.023442
C160	C	1.070167	-0.303262	0.164283
C161	C	1.403500	0.030071	0.497616
C162	C	1.736833	0.363404	0.830949
C163	C	1.070292	-0.303110	0.081969
C164	C	1.403625	0.030224	0.415302
C165	C	1.736958	0.363557	0.748636
C166	C	1.070271	-0.303129	0.931260
C167	C	1.403604	0.030204	1.264594
C168	C	1.736937	0.363537	1.597927
C169	C	1.127727	-0.254657	0.899954
C170	C	1.461060	0.078676	1.233287
C171	C	1.794394	0.412010	1.566621
C172	C	1.127548	-0.254477	0.814336
C173	C	1.460881	0.078856	1.147669
C174	C	1.794215	0.412190	1.481002
C175	C	1.070252	-0.303149	0.782878
C176	C	1.403585	0.030184	1.116211
C177	C	1.736918	0.363518	1.449544
C178	C	0.992235	-0.285124	0.813959
C179	C	1.325568	0.048210	1.147293
C180	C	1.658901	0.381543	1.480626
C181	C	0.992579	-0.284760	0.899605
C182	C	1.325912	0.048573	1.232938
C183	C	1.659245	0.381906	1.566271
C184	C	1.090144	-0.369752	0.899665
C185	C	1.423478	-0.036418	1.232999
C186	C	1.756811	0.296915	1.566332
C187	C	1.091856	-0.369412	0.814015
C188	C	1.425190	-0.036079	1.147348
C189	C	1.758523	0.297255	1.480682
C190	C	1.070236	-0.303161	0.699018
C191	C	1.403569	0.030172	1.032352
C192	C	1.736903	0.363506	1.365685
C193	C	1.070281	-0.303116	1.015120
C194	C	1.403615	0.030218	1.348453
C195	C	1.736948	0.363551	1.681787
H196	H	0.506771	-0.341109	0.471593
H197	H	0.840105	-0.007776	0.804926
H198	H	1.173438	0.325557	1.138259
F199	F	1.203166	-0.269224	0.786867
F200	F	1.536499	0.064110	1.120200
F201	F	1.869832	0.397443	1.453533
F202	F	0.501041	-0.219619	0.453926
F203	F	0.834374	0.113714	0.787259
F204	F	1.167707	0.447047	1.120593
F205	F	1.110353	-0.189967	0.787580
F206	F	1.443687	0.143367	1.120913
F207	F	1.777020	0.476700	1.454246
F208	F	0.639712	-0.189289	0.322655
F209	F	0.973046	0.144045	0.655988
F210	F	1.306379	0.477378	0.989322
F211	F	1.168165	-1.071197	0.259091
F212	F	1.501498	-0.737864	0.592424
F213	F	1.834832	-0.404531	0.925758
F214	F	0.972512	-1.071208	0.454466
F215	F	1.305845	-0.737874	0.787799
F216	F	1.639178	-0.404541	1.121133
H217	H	1.156069	-0.542874	0.270800
H218	H	1.489402	-0.209541	0.604134
H219	H	1.822736	0.123792	0.937467
F220	F	1.041132	-0.419155	0.786028
F221	F	1.374465	-0.085822	1.119361
F222	F	1.707798	0.247511	1.452694
H223	H	1.048300	-0.405869	0.919916
H224	H	1.381633	-0.072535	1.253249
H225	H	1.714966	0.260798	1.586583
H226	H	0.975731	-0.236060	0.919601
H227	H	1.309064	0.097273	1.252935
H228	H	1.642398	0.430607	1.586268
F229	F	0.934714	-0.328891	0.926675
F230	F	1.268047	0.004443	1.260008
F231	F	1.601381	0.337776	1.593341
H232	H	0.948263	-0.319341	0.793581
H233	H	1.281597	0.013992	1.126915
H234	H	1.614930	0.347325	1.460248
F235	F	0.972449	-0.935503	0.454435
F236	F	1.305783	-0.602170	0.787768
F237	F	1.639116	-0.268836	1.121101
F238	F	0.640354	-0.337701	0.489786
F239	F	0.973687	-0.004367	0.823119
F240	F	1.307021	0.328966	1.156452
F241	F	1.168091	-0.935493	0.259047
F242	F	1.501425	-0.602160	0.592380
F243	F	1.834758	-0.268827	0.925713
H244	H	1.156128	-0.662140	0.270830
H245	H	1.489461	-0.328807	0.604164
H246	H	1.822794	0.004526	0.937497
H247	H	0.975080	-0.236964	0.792527
H248	H	1.308414	0.096369	1.125860
H249	H	1.641747	0.429702	1.459193
H250	H	0.634873	-0.400982	0.400502
H251	H	0.968206	-0.067649	0.733835
H252	H	1.301539	0.265684	1.067169
H253	H	0.507058	-0.286585	0.234825
H254	H	0.840391	0.046749	0.568159
H255	H	1.173724	0.380082	0.901492
H256	H	1.146037	-0.386164	0.921303
H257	H	1.479370	-0.052831	1.254637
H258	H	1.812703	0.280502	1.587970
H259	H	1.149270	-0.383004	0.793699
H260	H	1.482603	-0.049671	1.127032
H261	H	1.815936	0.283663	1.460366
H262	H	0.507244	-0.401463	0.400169
H263	H	0.840578	-0.068129	0.733503
H264	H	1.173911	0.265204	1.066836
H265	H	0.634839	-0.220539	0.433058
H266	H	0.968173	0.112794	0.766392
H267	H	1.301506	0.446127	1.099725
H268	H	0.984181	-0.662152	0.442543
H269	H	1.317514	-0.328819	0.775877
H270	H	1.650848	0.004514	1.109210
H271	H	1.185768	-0.265806	0.920550
H272	H	1.519101	0.067528	1.253883
H273	H	1.852434	0.400861	1.587217
H274	H	1.114739	-0.205577	0.921497
H275	H	1.448072	0.127756	1.254830
H276	H	1.781405	0.461089	1.588164
H277	H	0.984128	-0.542881	0.442528
H278	H	1.317461	-0.209547	0.775862
H279	H	1.650795	0.123786	1.109195
H280	H	0.633789	-0.287360	0.234864
H281	H	0.967122	0.045973	0.568198
H282	H	1.300455	0.379307	0.901531
H283	H	0.632993	-0.369948	0.261704
H284	H	0.966326	-0.036614	0.595037
H285	H	1.299659	0.296719	0.928371
H286	H	0.506181	-0.198876	0.340215
H287	H	0.839515	0.134457	0.673549
H288	H	1.172848	0.467791	1.006882
F289	F	0.499327	-0.383838	0.255710
F290	F	0.832661	-0.050505	0.589043
F291	F	1.165994	0.282828	0.922377
