data_functionalizedCrystal
_audit_creation_method	'MofGen! by Chris Wilmer'
_symmetry_space_group_name_H-M	'P1'
_symmetry_Int_Tables_number	1
_symmetry_cell_setting	triclinic
loop_
_symmetry_equiv_pos_as_xyz
  x,y,z
_cell_length_a	6.817900
_cell_length_b	11.102188
_cell_length_c	15.185107
_cell_angle_alpha	93.570661
_cell_angle_beta	104.257894
_cell_angle_gamma	108.603875
loop_
_atom_site_label
_atom_site_type_symbol
_atom_site_fract_x
_atom_site_fract_y
_atom_site_fract_z
V1	V	-4.061558	-0.176722	-0.283396
O2	O	-4.021552	0.007583	-0.278002
O3	O	-4.038667	-0.349536	-0.281458
O4	O	-4.016549	-0.174403	-0.406995
O5	O	-4.043823	-0.168763	-0.151595
V6	V	-4.541441	-0.154630	-0.267632
O7	O	-4.330801	-0.225183	-0.317977
O8	O	-4.722396	-0.106169	-0.233051
O9	O	-4.341125	0.018184	-0.269570
O10	O	-4.698844	-0.338935	-0.273027
O11	O	-4.676573	-0.162590	-0.399433
O12	O	-4.363244	-0.156950	-0.144033
C13	C	-3.889764	-0.391652	-0.276987
C14	C	-3.952358	-0.532932	-0.276227
C15	C	-3.936270	-0.580897	-0.192633
C16	C	-3.995107	-0.713646	-0.191922
C17	C	-4.086109	-0.750455	-0.358405
C18	C	-4.027287	-0.617709	-0.359116
C19	C	-3.861548	-0.168250	-0.437121
C20	C	-3.906201	-0.167497	-0.538164
C21	C	-4.153061	-0.280648	-0.978387
C22	C	-4.037291	-0.047788	-0.952388
C23	C	-3.995294	-0.048514	-0.857454
C24	C	-4.032183	-0.165310	-0.822982
C25	C	-4.111068	-0.281378	-0.883445
C26	C	-3.916427	0.067552	-0.796986
C27	C	-3.874428	0.066829	-0.702045
C28	C	-3.911302	-0.049967	-0.667572
C29	C	-3.990190	-0.166040	-0.728040
C30	C	-4.027079	-0.282836	-0.693568
C31	C	-4.105952	-0.398910	-0.754035
C32	C	-4.147942	-0.398175	-0.848971
C33	C	-3.869312	-0.050702	-0.572636
C34	C	-3.985086	-0.283566	-0.598626
C35	C	-4.153371	0.060293	-0.274038
C36	C	-4.070016	0.201572	-0.274805
C37	C	-4.181587	-0.163106	-0.113902
C38	C	-4.116172	-0.163853	-0.012859
H39	H	-4.015118	-0.378676	-0.570567
H40	H	-4.040403	-0.578658	-0.427192
O41	O	-4.001805	0.065677	-0.985840
C42	C	-4.130343	0.130299	-0.959092
H43	H	-4.274302	0.057752	-0.943649
H44	H	-4.190152	0.181552	-1.017104
H45	H	-4.030520	0.203849	-0.894897
H46	H	-4.217272	-0.375152	-1.027622
H47	H	-3.810207	0.161344	-0.652821
O48	O	-3.880953	0.181013	-0.830442
C49	C	-4.009518	0.245624	-0.803706
H50	H	-4.153472	0.173071	-0.788264
H51	H	-4.069333	0.296866	-0.861724
H52	H	-3.909714	0.319182	-0.739513
H53	H	-3.805107	0.043804	-0.523409
H54	H	-4.135993	-0.494005	-0.725956
O55	O	-4.159176	-0.832947	-0.438865
C56	C	-4.370012	-0.916975	-0.447754
H57	H	-4.397356	-0.922934	-0.376812
H58	H	-4.391475	-1.016726	-0.481513
H59	H	-4.491690	-0.879214	-0.492125
O60	O	-4.224845	-0.511010	-0.907625
C61	C	-4.423875	-0.588040	-0.896726
H62	H	-4.434937	-0.557484	-0.825555
H63	H	-4.436268	-0.693222	-0.904393
H64	H	-4.561359	-0.575703	-0.951415
O65	O	-3.863649	-0.498728	-0.112038
C66	C	-3.862030	-0.569535	-0.038104
H67	H	-3.980919	-0.671810	-0.063580
H68	H	-3.910817	-0.521767	0.017489
H69	H	-3.693050	-0.572284	-0.008434
H70	H	-3.982005	-0.752692	-0.123852
