data_functionalizedCrystal
_audit_creation_method	'MofGen! by Chris Wilmer'
_symmetry_space_group_name_H-M	'P1'
_symmetry_Int_Tables_number	1
_symmetry_cell_setting	triclinic
loop_
_symmetry_equiv_pos_as_xyz
  x,y,z
_cell_length_a	16.959454
_cell_length_b	12.759401
_cell_length_c	12.759393
_cell_angle_alpha	90.018496
_cell_angle_beta	89.969286
_cell_angle_gamma	89.979764
loop_
_atom_site_label
_atom_site_type_symbol
_atom_site_fract_x
_atom_site_fract_y
_atom_site_fract_z
Zn1	Zn	-0.314632	-1.606216	-0.593988
Zn2	Zn	-0.446833	-1.606094	-0.418310
Zn3	Zn	-0.314673	-1.430518	-0.418327
Zn4	Zn	-0.446772	-1.430490	-0.593952
O5	O	-0.380727	-1.518330	-0.506144
O6	O	-0.332177	-1.753221	-0.570692
O7	O	-0.429345	-1.582764	-0.271291
O8	O	-0.204057	-1.453888	-0.441651
O9	O	-0.429304	-1.753131	-0.441622
O10	O	-0.204026	-1.582972	-0.570708
O11	O	-0.332247	-1.453769	-0.271304
O12	O	-0.332188	-1.283493	-0.441616
O13	O	-0.429201	-1.453840	-0.740978
O14	O	-0.429241	-1.283473	-0.570647
O15	O	-0.332118	-1.582945	-0.741004
O16	O	-0.557436	-1.582737	-0.441588
O17	O	-0.557391	-1.453722	-0.570631
C18	C	-0.380713	-1.245362	-0.506130
C19	C	-0.380726	-1.128586	-0.506149
C20	C	-0.586094	-1.518242	-0.506126
C21	C	-0.673950	-1.518300	-0.506154
C22	C	-0.380648	-1.518403	-0.780178
C23	C	-0.380614	-1.518435	-0.896954
C24	C	-1.045433	-1.451249	-0.573330
C25	C	-1.045419	-1.585703	-0.439066
C26	C	-0.962873	-1.585666	-0.439056
C27	C	-0.921603	-1.518419	-0.506183
C28	C	-0.962879	-1.451208	-0.573320
C29	C	-0.921591	-1.652869	-0.371913
C30	C	-0.839040	-1.652834	-0.371900
C31	C	-0.797769	-1.585591	-0.439033
C32	C	-0.839050	-1.518378	-0.506173
C33	C	-0.797780	-1.451130	-0.573300
C34	C	-0.839059	-1.383922	-0.640447
C35	C	-0.921607	-1.383965	-0.640453
C36	C	-0.715220	-1.585548	-0.439027
C37	C	-0.715226	-1.451089	-0.573291
C38	C	-0.174559	-1.518447	-0.506185
C39	C	-0.086703	-1.518496	-0.506203
C40	C	-0.380743	-1.792363	-0.506159
C41	C	-0.380749	-1.909140	-0.506165
C42	C	-0.431342	-1.073740	-0.573224
C43	C	-0.431352	-0.964016	-0.573235
C44	C	-0.330127	-0.963992	-0.439087
C45	C	-0.330114	-1.073714	-0.439082
C46	C	-0.489786	-1.073753	-0.650670
C47	C	-0.489796	-0.964029	-0.650681
C48	C	-0.330058	-1.585669	-0.951832
C49	C	-0.330029	-1.585694	-1.061556
C50	C	-0.431119	-1.451247	-1.061516
C51	C	-0.431143	-1.451218	-0.951793
C52	C	-0.271696	-1.663294	-0.951856
C53	C	-0.271668	-1.663319	-1.061580
C54	C	-0.380750	-1.518317	-0.233177
C55	C	-0.380561	-1.518489	-0.116401
H56	H	-0.805447	-1.329164	-0.695097
H57	H	-0.955225	-1.329246	-0.695119
O58	O	-0.480290	-1.386112	-1.114834
C59	C	-0.586947	-1.371941	-1.238728
C60	C	-0.531320	-1.445826	-1.178395
H61	H	-0.628207	-1.420189	-1.290148
H62	H	-0.623144	-1.323902	-1.180700
H63	H	-0.550625	-1.317018	-1.290056
H64	H	-0.567581	-1.500813	-1.127065
H65	H	-0.495120	-1.493792	-1.236479
O66	O	-0.198696	-1.637142	-0.916397
C67	C	-0.095737	-1.507086	-0.913137
C68	C	-0.178419	-1.536561	-0.953345
H69	H	-0.079311	-1.425774	-0.943011
H70	H	-0.095723	-1.506983	-0.823788
H71	H	-0.050940	-1.566726	-0.942907
H72	H	-0.223263	-1.476950	-0.923653
H73	H	-0.178368	-1.536697	-1.042693
H74	H	-0.547906	-1.107760	-0.621387
H75	H	-0.293641	-1.740563	-0.917820
O76	O	-0.291317	-1.760305	-1.097248
C77	C	-0.382454	-1.863523	-1.198850
C78	C	-0.360287	-1.753631	-1.158544
H79	H	-0.438226	-1.858167	-1.248397
H80	H	-0.332200	-1.896022	-1.248565
H81	H	-0.393372	-1.917752	-1.129354
H82	H	-0.349381	-1.699323	-1.227976
H83	H	-0.410552	-1.721218	-1.108797
H84	H	-0.550999	-0.934226	-0.628750
H85	H	-0.955199	-1.707610	-0.317254
H86	H	-0.213504	-1.634212	-1.095627
H87	H	-0.805436	-1.707559	-0.317227
H88	H	-1.079046	-1.396533	-0.628001
H89	H	-0.472308	-1.396466	-0.907116
O90	O	-0.470449	-1.109375	-0.747814
C91	C	-0.510675	-1.211109	-0.897664
C92	C	-0.532679	-1.170821	-0.787672
H93	H	-0.560968	-1.260815	-0.929913
H94	H	-0.499837	-1.141681	-0.952007
H95	H	-0.454895	-1.260718	-0.892467
H96	H	-0.588469	-1.121229	-0.792769
H97	H	-0.543465	-1.240296	-0.733372
O98	O	-0.463740	-0.923637	-0.743038
C99	C	-0.414655	-0.960132	-0.916519
C100	C	-0.444170	-1.006018	-0.811996
H101	H	-0.398809	-1.026715	-0.972292
H102	H	-0.462986	-0.909879	-0.952985
H103	H	-0.360264	-0.909820	-0.901627
H104	H	-0.498547	-1.056378	-0.826799
H105	H	-0.395792	-1.056212	-0.775563
O106	O	-0.675208	-1.650769	-0.373661
C107	C	-0.649964	-1.701789	-0.194982
C108	C	-0.695341	-1.627874	-0.268894
H109	H	-0.666213	-1.683290	-0.110262
H110	H	-0.666155	-1.786523	-0.213409
H111	H	-0.583880	-1.690227	-0.206562
H112	H	-0.761436	-1.639342	-0.257355
H113	H	-0.679085	-1.543167	-0.250449
O114	O	-0.675262	-1.385667	-0.638536
C115	C	-0.683987	-1.252366	-0.771768
C116	C	-0.729344	-1.326383	-0.697912
H117	H	-0.727693	-1.204431	-0.819808
H118	H	-0.645415	-1.197362	-0.723535
H119	H	-0.645264	-1.300573	-0.826690
H120	H	-0.768109	-1.278260	-0.642975
H121	H	-0.767866	-1.381390	-0.746210
H122	H	-1.079026	-1.640447	-0.384408
O123	O	-0.280912	-1.126829	-0.373837
C124	C	-0.180463	-1.115222	-0.240848
C125	C	-0.236161	-1.054940	-0.314666
H126	H	-0.144255	-1.057126	-0.193005
H127	H	-0.216649	-1.166536	-0.185749
H128	H	-0.139208	-1.166644	-0.289204
H129	H	-0.277427	-1.003460	-0.266394
H130	H	-0.199925	-1.003692	-0.369768
O131	O	-0.281047	-0.910526	-0.373967
C132	C	-0.236175	-0.741483	-0.314560
C133	C	-0.291810	-0.801899	-0.388350
H134	H	-0.244846	-0.653648	-0.326179
H135	H	-0.249984	-0.762943	-0.229789
H136	H	-0.172461	-0.763143	-0.333136
H137	H	-0.355543	-0.780272	-0.369868
H138	H	-0.277933	-0.780434	-0.473099
