data_functionalizedCrystal
_audit_creation_method	'MofGen! by Chris Wilmer'
_symmetry_space_group_name_H-M	'P1'
_symmetry_Int_Tables_number	1
_symmetry_cell_setting	triclinic
loop_
_symmetry_equiv_pos_as_xyz
  x,y,z
_cell_length_a	10.723023
_cell_length_b	13.596369
_cell_length_c	10.723024
_cell_angle_alpha	89.995193
_cell_angle_beta	95.532291
_cell_angle_gamma	90.004847
loop_
_atom_site_label
_atom_site_type_symbol
_atom_site_fract_x
_atom_site_fract_y
_atom_site_fract_z
O1	O	1.657190	0.081779	-0.175025
O2	O	1.294038	0.081783	-0.191779
O3	O	1.483991	0.081777	-0.001826
O4	O	1.467237	0.081784	-0.364978
O5	O	1.483972	-0.081806	-0.001815
O6	O	1.294019	-0.081800	-0.191769
O7	O	1.657171	-0.081804	-0.175014
Zn8	Zn	1.475592	-0.107775	-0.183390
Zn9	Zn	1.475617	0.107753	-0.183403
O10	O	1.467218	-0.081799	-0.364968
C11	C	1.247529	-0.000008	-0.190555
C12	C	1.108974	-0.000007	-0.186908
C13	C	1.047192	-0.084747	-0.185276
C14	C	0.903989	-0.084747	-0.181506
N15	N	1.475584	-0.254866	-0.183380
C16	C	1.475615	-0.656157	-0.183405
C17	C	1.475603	-0.544506	-0.183402
C18	C	1.475600	-0.455515	-0.183393
C19	C	1.475587	-0.343857	-0.183389
C20	C	1.703680	-0.000011	-0.176239
C21	C	1.842235	-0.000006	-0.179886
C22	C	1.482762	-0.000013	0.044679
C23	C	1.479114	-0.000010	0.183233
N24	N	1.475635	0.254845	-0.183404
C25	C	1.468447	-0.000006	-0.411473
C26	C	1.472095	-0.000003	-0.550027
C27	C	1.585402	-0.000010	0.258216
C28	C	1.581634	-0.000006	0.401420
H29	H	0.850857	-0.157296	-0.180110
H30	H	1.055851	0.072542	-0.185510
H31	H	0.895357	0.072547	-0.181296
O32	O	1.367299	0.000125	0.233261
C33	C	1.358616	0.084862	0.307714
H34	H	1.456729	0.113107	0.339157
H35	H	1.308261	0.065813	0.393456
H36	H	1.303837	0.144185	0.250735
H37	H	1.100317	-0.157296	-0.186663
O38	O	1.363498	-0.000176	0.373175
C39	C	1.293511	-0.084881	0.396471
H40	H	1.358955	-0.144098	0.440478
H41	H	1.244361	-0.113319	0.304503
H42	H	1.220625	-0.065721	0.463265
H43	H	1.679188	-0.000017	0.216394
O44	O	1.690075	0.000039	0.478456
C45	C	1.662172	0.000016	0.604287
H46	H	1.564095	0.030985	0.609990
H47	H	1.733331	0.047510	0.662719
H48	H	1.666529	-0.078462	0.641900
