data_functionalizedCrystal
_audit_creation_method	'MofGen! by Chris Wilmer'
_symmetry_space_group_name_H-M	'P1'
_symmetry_Int_Tables_number	1
_symmetry_cell_setting	triclinic
loop_
_symmetry_equiv_pos_as_xyz
  x,y,z
_cell_length_a	19.121063
_cell_length_b	18.215407
_cell_length_c	18.215399
_cell_angle_alpha	90.018561
_cell_angle_beta	92.409843
_cell_angle_gamma	87.539312
loop_
_atom_site_label
_atom_site_type_symbol
_atom_site_fract_x
_atom_site_fract_y
_atom_site_fract_z
Zn1	Zn	-0.279774	-1.112552	-0.428578
Zn2	Zn	-0.397229	-1.107204	-0.310755
Zn3	Zn	-0.279780	-0.989484	-0.305529
Zn4	Zn	-0.397172	-0.984197	-0.433780
O5	O	-0.338489	-1.048359	-0.369660
O6	O	-0.295377	-1.214826	-0.412959
O7	O	-0.381675	-1.091563	-0.207078
O8	O	-0.181495	-1.010260	-0.317488
O9	O	-0.381670	-1.210897	-0.326394
O10	O	-0.181491	-1.100678	-0.407892
O11	O	-0.295385	-1.005075	-0.203239
O12	O	-0.295330	-0.885800	-0.322531
O13	O	-0.381573	-1.001249	-0.536073
O14	O	-0.381578	-0.881915	-0.416757
O15	O	-0.295321	-1.095551	-0.532252
O16	O	-0.495505	-1.086436	-0.331438
O17	O	-0.495463	-0.996063	-0.421824
C18	C	-0.338449	-0.857155	-0.369642
C19	C	-0.338449	-0.775356	-0.369652
C20	C	-0.293617	-0.512334	-0.414805
C21	C	-0.293610	-0.589193	-0.414804
C22	C	-0.383336	-0.585127	-0.324517
C23	C	-0.383347	-0.508269	-0.324523
C24	C	-0.338484	-0.471875	-0.369666
C25	C	-0.338465	-0.625592	-0.369658
C26	C	-0.338457	-0.708926	-0.369656
C27	C	-0.338493	-0.388535	-0.369670
C28	C	-0.520968	-1.040116	-0.377779
C29	C	-0.599034	-1.036656	-0.381276
C30	C	-0.635708	-1.082120	-0.335899
C31	C	-0.709058	-1.078871	-0.339193
C32	C	-0.745734	-1.030154	-0.387861
C33	C	-0.709055	-0.984688	-0.433242
C34	C	-0.635706	-0.987942	-0.429952
C35	C	-0.967202	-1.017978	-0.400152
C36	C	-1.040557	-1.014727	-0.403437
C37	C	-1.040555	-1.108911	-0.309388
C38	C	-0.967204	-1.112157	-0.306099
C39	C	-0.930532	-1.066694	-0.351484
C40	C	-0.820711	-1.026830	-0.391227
C41	C	-0.855557	-1.070022	-0.348121
C42	C	-0.155296	-1.056655	-0.361527
C43	C	-0.077231	-1.060191	-0.358060
C44	C	-0.338440	-1.048406	-0.561611
C45	C	-0.338420	-1.048426	-0.643409
C46	C	-0.338517	-0.240311	-0.369676
C47	C	-0.338500	-0.322111	-0.369673
C48	C	-0.293467	-1.097548	-0.829613
C49	C	-0.293446	-1.097558	-0.906471
C50	C	-0.383264	-0.999361	-0.910439
C51	C	-0.383280	-0.999349	-0.833582
C52	C	-0.338383	-1.048446	-0.793171
C53	C	-0.338346	-1.048469	-0.946886
C54	C	-0.338324	-1.048479	-1.030218
C55	C	-0.338403	-1.048435	-0.709833
C56	C	-0.338486	-1.048357	-0.178454
C57	C	-0.338309	-1.048489	-0.096648
H58	H	-0.419887	-0.475326	-0.287765
H59	H	-0.605851	-1.121787	-0.296266
Br60	Br	-1.090331	-0.948594	-0.469478
H61	H	-0.738915	-1.115892	-0.302242
H62	H	-0.738922	-0.945025	-0.472872
H63	H	-0.256870	-1.137540	-0.936138
H64	H	-0.937349	-0.980959	-0.437104
H65	H	-0.257087	-0.482704	-0.451563
H66	H	-0.257076	-0.622132	-0.451561
Br67	Br	-0.585933	-0.926243	-0.491542
Br68	Br	-0.444218	-0.634524	-0.263253
H69	H	-0.825693	-1.109691	-0.308498
H70	H	-0.419820	-0.959390	-0.943351
H71	H	-1.070422	-1.145925	-0.272440
Br72	Br	-0.917435	-1.178285	-0.240057
Br73	Br	-0.870491	-0.960717	-0.457275
Br74	Br	-0.444236	-0.932699	-0.784121
Br75	Br	-0.232533	-1.164179	-0.774771
