data_functionalizedCrystal
_audit_creation_method	'MofGen! by Chris Wilmer'
_symmetry_space_group_name_H-M	'P1'
_symmetry_Int_Tables_number	1
_symmetry_cell_setting	triclinic
loop_
_symmetry_equiv_pos_as_xyz
  x,y,z
_cell_length_a	10.654556
_cell_length_b	15.995350
_cell_length_c	9.730223
_cell_angle_alpha	89.997832
_cell_angle_beta	89.998368
_cell_angle_gamma	83.989956
loop_
_atom_site_label
_atom_site_type_symbol
_atom_site_fract_x
_atom_site_fract_y
_atom_site_fract_z
O1	O	1.666298	0.117628	-0.114230
O2	O	1.300674	0.128827	-0.114244
O3	O	1.493480	0.001398	-0.114236
O4	O	1.473491	0.245057	-0.114239
O5	O	1.493468	0.001394	0.114344
O6	O	1.300662	0.128823	0.114336
O7	O	1.666285	0.117624	0.114349
Zn8	Zn	1.483472	0.123223	0.150635
Zn9	Zn	1.483488	0.123228	-0.150529
O10	O	1.473479	0.245053	0.114341
C11	C	1.253881	0.128001	0.000044
C12	C	1.114470	0.125538	0.000039
C13	C	0.917977	0.122071	-0.124549
C14	C	1.048969	0.124381	-0.124558
C15	C	1.048974	0.124377	0.124652
C16	C	0.917985	0.122061	0.124660
C17	C	1.492648	-0.029804	0.000052
C18	C	1.490170	-0.122768	0.000044
C19	C	1.481273	-0.460568	0.000048
C20	C	1.343960	-0.413933	-0.000470
C21	C	1.346438	-0.317228	0.000046
C22	C	1.485686	-0.292981	0.000045
C23	C	1.553407	-0.333667	0.130576
C24	C	1.549958	-0.430322	0.130685
C25	C	1.552808	-0.430660	-0.129253
C26	C	1.552776	-0.333715	-0.130978
C27	C	1.488188	-0.198269	0.000048
C28	C	1.478776	-0.555280	0.000054
C29	C	1.713079	0.118449	0.000058
C30	C	1.852489	0.120913	0.000055
C31	C	1.474311	0.276254	0.000051
C32	C	1.476789	0.369219	0.000050
N33	N	1.483470	0.123219	0.356171
N34	N	1.483500	0.123225	-0.356066
C35	C	1.568873	0.066818	0.428101
C36	C	1.568886	0.066818	0.571984
C37	C	1.398087	0.179629	0.571995
C38	C	1.398070	0.179624	0.428114
H39	H	0.864664	0.121117	0.226133
H40	H	1.293204	-0.289115	-0.093524
H41	H	1.289082	-0.432783	-0.094075
H42	H	1.328558	0.225553	0.630585
H43	H	1.654322	-0.317762	-0.138860
C44	C	1.492166	-0.458750	-0.262906
H45	H	1.422644	-0.488984	-0.241095
H46	H	1.552758	-0.493871	-0.313874
H47	H	1.463650	-0.410717	-0.316189
C48	C	1.304132	0.241673	0.348980
H49	H	1.316348	0.233586	0.252987
H50	H	1.317769	0.297640	0.372547
H51	H	1.220320	0.232057	0.372571
C52	C	0.845935	0.120806	-0.261608
H53	H	0.903704	0.121821	-0.335818
H54	H	0.785262	0.168644	-0.266786
H55	H	0.804413	0.071157	-0.266788
H56	H	1.102283	0.125323	-0.226023
H57	H	1.638427	0.020890	0.630545
H58	H	1.102317	0.125314	0.226101
C59	C	1.486003	-0.297215	-0.261438
H60	H	1.527023	-0.322101	-0.340348
H61	H	1.489383	-0.238123	-0.263835
H62	H	1.400408	-0.308913	-0.260624
C63	C	1.689572	-0.472768	-0.130454
H64	H	1.732321	-0.454446	-0.208812
H65	H	1.689098	-0.532087	-0.133806
H66	H	1.731677	-0.457735	-0.049478
C67	C	1.270125	-0.440833	0.125261
H68	H	1.187266	-0.412373	0.124151
H69	H	1.312035	-0.426936	0.207011
H70	H	1.265504	-0.499794	0.122167
C71	C	1.274047	-0.280004	0.126669
H72	H	1.243018	-0.323995	0.178001
H73	H	1.205323	-0.241433	0.097570
H74	H	1.329156	-0.251632	0.182578
C75	C	1.662797	0.004769	0.348967
H76	H	1.713653	-0.028827	0.412419
H77	H	1.715064	0.035209	0.292822
H78	H	1.617611	-0.030372	0.292858
C79	C	1.483218	-0.455440	0.262484
H80	H	1.458460	-0.406593	0.315453
H81	H	1.539319	-0.493085	0.314675
H82	H	1.410678	-0.482124	0.238630
H83	H	1.650771	-0.461984	0.136607
C84	C	1.691604	-0.313777	0.137149
H85	H	1.709269	-0.280400	0.060164
H86	H	1.746057	-0.364747	0.135940
H87	H	1.704736	-0.283895	0.219394
H88	H	1.506361	-0.305561	0.227712
