data_functionalizedCrystal
_audit_creation_method	'MofGen! by Chris Wilmer'
_symmetry_space_group_name_H-M	'P1'
_symmetry_Int_Tables_number	1
_symmetry_cell_setting	triclinic
loop_
_symmetry_equiv_pos_as_xyz
  x,y,z
_cell_length_a	16.625546
_cell_length_b	19.805407
_cell_length_c	19.805399
_cell_angle_alpha	90.026078
_cell_angle_beta	89.972133
_cell_angle_gamma	89.978916
loop_
_atom_site_label
_atom_site_type_symbol
_atom_site_fract_x
_atom_site_fract_y
_atom_site_fract_z
Zn1	Zn	-0.321050	-1.034754	-0.382836
Zn2	Zn	-0.455887	-1.034677	-0.269647
Zn3	Zn	-0.321069	-0.921569	-0.269648
Zn4	Zn	-0.455841	-0.921540	-0.382781
O5	O	-0.388462	-0.978135	-0.326228
O6	O	-0.338948	-1.129461	-0.367844
O7	O	-0.438031	-1.019653	-0.174930
O8	O	-0.208234	-0.936628	-0.284685
O9	O	-0.438012	-1.129404	-0.284684
O10	O	-0.208220	-1.019784	-0.367844
O11	O	-0.338980	-0.936553	-0.174931
O12	O	-0.338935	-0.826849	-0.284632
O13	O	-0.437934	-0.936579	-0.477505
O14	O	-0.437952	-0.826827	-0.367751
O15	O	-0.338903	-1.019757	-0.477545
O16	O	-0.568713	-1.019625	-0.284631
O17	O	-0.568680	-0.936504	-0.367750
C18	C	-0.388441	-0.802279	-0.326186
C19	C	-0.388452	-0.727047	-0.326184
C20	C	-0.440107	-0.265263	-0.369460
C21	C	-0.440107	-0.335951	-0.369448
C22	C	-0.388473	-0.371285	-0.326234
C23	C	-0.336843	-0.335927	-0.283025
C24	C	-0.336848	-0.265240	-0.283035
C25	C	-0.336822	-0.621001	-0.282987
C26	C	-0.336819	-0.691693	-0.282983
C27	C	-0.440081	-0.691712	-0.369400
C28	C	-0.440086	-0.621025	-0.369409
C29	C	-0.388459	-0.585673	-0.326198
C30	C	-0.388461	-0.509024	-0.326211
C31	C	-0.388467	-0.447932	-0.326225
C32	C	-0.597953	-0.978071	-0.326199
C33	C	-0.687574	-0.978106	-0.326210
C34	C	-1.015749	-0.978224	-0.326280
C35	C	-0.924441	-0.978189	-0.326263
C36	C	-0.851664	-0.978164	-0.326245
C37	C	-0.760350	-0.978130	-0.326228
C38	C	-0.178153	-0.978218	-0.326271
C39	C	-0.088532	-0.978253	-0.326289
C40	C	-0.388411	-0.978173	-0.502771
C41	C	-0.388389	-0.978189	-0.578003
C42	C	-0.388480	-0.154678	-0.326262
C43	C	-0.388479	-0.229910	-0.326255
C44	C	-0.336822	-1.021501	-0.613369
C45	C	-0.336798	-1.021508	-0.684057
C46	C	-0.388347	-0.978206	-0.719378
C47	C	-0.439917	-0.934890	-0.684007
C48	C	-0.439936	-0.934880	-0.613320
C49	C	-0.439842	-0.934928	-0.969081
C50	C	-0.439821	-0.934942	-1.039773
C51	C	-0.336704	-1.021556	-1.039818
C52	C	-0.336723	-1.021546	-0.969131
C53	C	-0.388290	-0.978227	-0.933766
C54	C	-0.388313	-0.978219	-0.857117
C55	C	-0.388328	-0.978217	-0.796025
C56	C	-0.388454	-0.978136	-0.150372
C57	C	-0.388249	-0.978251	-0.075140
H58	H	-0.294769	-0.720460	-0.247792
H59	H	-0.294809	-1.056778	-0.712849
F60	F	-0.495033	-0.729341	-0.415386
H61	H	-0.294749	-1.056809	-0.940376
F62	F	-0.495059	-0.373573	-0.415430
F63	F	-0.494724	-0.888824	-0.931451
F64	F	-0.494819	-0.888780	-0.575681
F65	F	-0.281893	-0.373534	-0.237032
H66	H	-0.481886	-0.899630	-0.712771
H67	H	-0.294804	-0.236457	-0.247855
F68	F	-0.495060	-0.227664	-0.415457
F69	F	-0.281869	-0.583386	-0.237003
H70	H	-0.482128	-0.592259	-0.404600
F71	F	-0.281959	-1.067593	-0.575784
F72	F	-0.281819	-1.067658	-1.077462
H73	H	-0.481800	-0.899678	-1.068529
