data_functionalizedCrystal
_audit_creation_method	'MofGen! by Chris Wilmer'
_symmetry_space_group_name_H-M	'P1'
_symmetry_Int_Tables_number	1
_symmetry_cell_setting	triclinic
loop_
_symmetry_equiv_pos_as_xyz
  x,y,z
_cell_length_a	6.817900
_cell_length_b	14.125469
_cell_length_c	10.943950
_cell_angle_alpha	94.572812
_cell_angle_beta	108.844601
_cell_angle_gamma	100.398878
loop_
_atom_site_label
_atom_site_type_symbol
_atom_site_fract_x
_atom_site_fract_y
_atom_site_fract_z
V1	V	-4.072514	-0.133068	-0.402050
O2	O	-4.075339	0.006442	-0.394910
O3	O	-4.008154	-0.263897	-0.398807
O4	O	-4.051168	-0.131000	-0.577623
O5	O	-4.032027	-0.127375	-0.214856
V6	V	-4.554704	-0.116383	-0.379720
O7	O	-4.336695	-0.169666	-0.451033
O8	O	-4.740720	-0.079784	-0.330738
O9	O	-4.395857	0.014446	-0.382963
O10	O	-4.669276	-0.255893	-0.386860
O11	O	-4.712588	-0.122076	-0.566915
O12	O	-4.352844	-0.118451	-0.204147
C13	C	-3.848397	-0.295791	-0.392337
C14	C	-3.877243	-0.402745	-0.390856
C15	C	-3.930126	-0.598571	-0.388162
C16	C	-4.116460	-0.650892	-0.393613
C17	C	-4.145886	-0.759856	-0.392114
C18	C	-3.900691	-0.489596	-0.389661
C19	C	-3.903264	-0.126266	-0.620434
C20	C	-3.966989	-0.125441	-0.763962
C21	C	-4.233050	-0.129494	-0.940681
C22	C	-4.129135	-0.207171	-0.867735
C23	C	-4.070122	-0.047815	-0.835012
C24	C	-3.976548	-0.201739	-0.946757
C25	C	-3.917539	-0.042312	-0.914028
C26	C	-3.813509	-0.120004	-0.841120
C27	C	-4.218955	0.046335	-0.389430
C28	C	-4.169349	0.153288	-0.390920
C29	C	-4.164088	-0.123188	-0.161330
C30	C	-4.079602	-0.124008	-0.017800
H31	H	-4.253883	-0.613851	-0.399401
H32	H	-3.792712	-0.635609	-0.382370
H33	H	-3.635543	-0.116019	-0.797868
C34	C	-4.473499	-0.135048	-0.999495
N35	N	-4.654604	-0.139239	-1.043806
C36	C	-4.249092	-0.301341	-0.839372
N37	N	-4.339456	-0.372267	-0.818011
H38	H	-3.937623	-0.266853	-0.995270
C39	C	-3.797694	0.051864	-0.942430
N40	N	-3.707439	0.122806	-0.963823
C41	C	-4.122768	0.040049	-0.769291
N42	N	-4.162437	0.106226	-0.719797
