data_functionalizedCrystal
_audit_creation_method	'MofGen! by Chris Wilmer'
_symmetry_space_group_name_H-M	'P1'
_symmetry_Int_Tables_number	1
_symmetry_cell_setting	triclinic
loop_
_symmetry_equiv_pos_as_xyz
  x,y,z
_cell_length_a	14.519731
_cell_length_b	12.996460
_cell_length_c	10.723024
_cell_angle_alpha	89.995205
_cell_angle_beta	84.078361
_cell_angle_gamma	89.993791
loop_
_atom_site_label
_atom_site_type_symbol
_atom_site_fract_x
_atom_site_fract_y
_atom_site_fract_z
O1	O	1.224694	-0.085566	0.163703
O2	O	0.956318	-0.085568	0.182938
O3	O	1.096696	-0.085563	-0.008313
O4	O	1.084315	-0.085571	0.354954
O5	O	1.096680	0.085571	-0.008323
O6	O	0.956301	0.085566	0.182928
O7	O	1.224677	0.085567	0.163693
Cu8	Cu	1.090488	0.101193	0.173310
Cu9	Cu	1.090507	-0.101193	0.173321
O10	O	1.084299	0.085563	0.354944
C11	C	0.921945	-0.000001	0.182032
C12	C	0.819551	-0.000001	0.179331
C13	C	0.736396	-0.000006	0.177137
C14	C	0.632073	-0.000006	0.174395
C15	C	0.548923	-0.000006	0.172218
C16	C	0.444594	-0.000008	0.169476
N17	N	1.090481	0.243540	0.173301
C18	C	1.090499	0.663354	0.173326
C19	C	1.090491	0.546549	0.173324
C20	C	1.090490	0.453451	0.173315
C21	C	1.090482	0.336638	0.173310
C22	C	1.259049	-0.000002	0.164599
C23	C	1.361443	-0.000008	0.167300
C24	C	1.095787	0.000003	-0.054809
C25	C	1.093091	-0.000001	-0.193338
N26	N	1.090512	0.756460	0.173325
C27	C	1.171640	-0.000002	-0.269047
C28	C	1.168855	-0.000006	-0.412225
C29	C	1.085208	-0.000005	0.401440
C30	C	1.087904	-0.000008	0.539970
H31	H	1.240949	0.000004	-0.227866
H32	H	1.236099	-0.000002	-0.477280
O33	O	0.998818	-0.000000	-0.373882
H34	H	0.996013	-0.069753	-0.313877
O35	O	1.001280	0.000003	-0.247880
H36	H	0.961505	-0.069750	-0.215927
