data_functionalizedCrystal
_audit_creation_method	'MofGen! by Chris Wilmer'
_symmetry_space_group_name_H-M	'P1'
_symmetry_Int_Tables_number	1
_symmetry_cell_setting	triclinic
loop_
_symmetry_equiv_pos_as_xyz
  x,y,z
_cell_length_a	13.635800
_cell_length_b	23.752966
_cell_length_c	9.109049
_cell_angle_alpha	78.644584
_cell_angle_beta	111.764134
_cell_angle_gamma	79.933465
loop_
_atom_site_label
_atom_site_type_symbol
_atom_site_fract_x
_atom_site_fract_y
_atom_site_fract_z
V1	V	2.064953	-0.104155	0.509060
O2	O	2.066249	-0.020669	0.498428
O3	O	2.032164	-0.181830	0.506484
O4	O	2.066984	-0.113819	0.730665
O5	O	2.031188	-0.089151	0.272694
V6	V	2.304481	-0.092838	0.480679
O7	O	2.200482	-0.128980	0.571316
O8	O	2.394051	-0.068014	0.418422
O9	O	2.225668	-0.015164	0.483255
O10	O	2.361884	-0.176324	0.491311
O11	O	2.396945	-0.107842	0.717044
O12	O	2.190847	-0.083175	0.259073
V13	V	2.564953	-0.104155	0.509060
O14	O	2.566249	-0.020669	0.498428
O15	O	2.532164	-0.181830	0.506484
O16	O	2.566984	-0.113819	0.730665
O17	O	2.531188	-0.089151	0.272694
V18	V	2.804481	-0.092838	0.480679
O19	O	2.700482	-0.128980	0.571316
O20	O	2.894051	-0.068014	0.418422
O21	O	2.725668	-0.015164	0.483255
O22	O	2.861884	-0.176324	0.491311
O23	O	2.896945	-0.107842	0.717044
O24	O	2.690847	-0.083175	0.259073
C25	C	1.951726	-0.200413	0.498687
C26	C	1.965735	-0.263985	0.498058
C27	C	2.144467	-0.661537	0.502499
C28	C	2.157651	-0.721273	0.501933
O29	O	2.242475	-0.754993	0.508641
N30	N	2.072531	-0.747834	0.493474
C31	C	1.974225	-0.714657	0.485597
O32	O	1.903034	-0.742734	0.478352
C33	C	1.961046	-0.654923	0.486175
C34	C	2.046168	-0.628364	0.494618
C35	C	2.229583	-0.634978	0.510943
C36	C	2.216400	-0.575246	0.511506
C37	C	2.118101	-0.542073	0.503625
C38	C	2.032985	-0.568632	0.495181
C39	C	1.862744	-0.621748	0.478310
C40	C	1.849573	-0.562011	0.478890
C41	C	1.934695	-0.535452	0.487333
C42	C	1.921503	-0.475727	0.487863
N43	N	2.006623	-0.449166	0.496322
C44	C	2.104922	-0.482339	0.504203
C45	C	2.001909	-0.840102	0.484387
C46	C	2.015084	-0.899833	0.483797
C47	C	2.198510	-0.906446	0.500136
C48	C	2.185331	-0.846712	0.500714
C49	C	2.087029	-0.813541	0.492846
C50	C	2.077228	-0.356897	0.505383
C51	C	2.064034	-0.297158	0.505939
C52	C	1.880612	-0.290552	0.489608
C53	C	1.893802	-0.350284	0.489044
C54	C	1.992120	-0.383456	0.496938
O55	O	1.836711	-0.441971	0.481165
O56	O	2.176103	-0.454256	0.511469
C57	C	1.996142	-0.113657	0.784651
C58	C	2.038388	-0.122072	0.965820
C59	C	2.137776	0.003417	0.491047
C60	C	2.113387	0.066988	0.491687
C61	C	2.093359	-0.083338	0.205079
C62	C	2.040733	-0.074920	0.023908
C63	C	2.496142	-0.113657	0.784651
C64	C	2.538388	-0.122072	0.965820
C65	C	2.451726	-0.200413	0.498687
C66	C	2.465735	-0.263985	0.498058
C67	C	2.637776	0.003417	0.491047
C68	C	2.613387	0.066988	0.491687
C69	C	2.593359	-0.083338	0.205079
C70	C	2.540733	-0.074920	0.023908
C71	C	2.649971	-0.129286	1.059239
C72	C	2.689677	-0.137185	1.229465
C73	C	2.617799	-0.137874	1.306270
C74	C	2.506206	-0.130658	1.212838
C75	C	2.466500	-0.122755	1.042613
C76	C	2.564034	-0.297158	0.505939
C77	C	2.577217	-0.356894	0.505373
C78	C	2.492097	-0.383455	0.496913
C79	C	2.393791	-0.350278	0.489037
C80	C	2.380612	-0.290544	0.489615
C81	C	2.687582	0.100160	0.483810
C82	C	2.664672	0.159895	0.484385
C83	C	2.567569	0.186456	0.492847
C84	C	2.493367	0.153279	0.500720
C85	C	2.516275	0.093547	0.500134
C86	C	2.430385	-0.074226	-0.052855
C87	C	2.380920	-0.066310	-0.223087
C88	C	2.441807	-0.059091	-0.316550
C89	C	2.552163	-0.059784	-0.239776
C90	C	2.601624	-0.067696	-0.069550
H91	H	2.133354	-0.275537	0.512808
F92	F	2.078017	-0.183263	1.081979
H93	H	2.601725	-0.053904	-0.315901
F94	F	2.808447	-0.144868	1.328875
F95	F	2.365565	-0.081907	0.046586
H96	H	2.725104	0.186899	0.477976
H97	H	2.010397	-0.028103	0.935026
H98	H	2.650145	-0.144310	1.444879
F99	F	2.181867	-0.392193	0.513785
H100	H	2.324491	-0.371913	0.482150
F101	F	2.543203	0.250030	0.493469
F102	F	1.924474	-0.928089	0.474776
F103	F	2.719073	-0.068440	0.012132
F104	F	2.429722	-0.131399	1.294606
H105	H	2.291063	-0.065747	-0.285571
F106	F	2.347740	-0.115084	0.943209
F107	F	2.726489	-0.128554	0.977529
F108	F	2.654643	-0.268903	0.514952
H109	H	2.300563	-0.263538	0.483188
H110	H	2.414305	0.174914	0.507608
F111	F	1.897274	-0.804802	0.475996
H112	H	2.285720	-0.553628	0.518393
H113	H	2.309633	-0.661982	0.517367
H114	H	2.657268	-0.383899	0.511782
H115	H	2.401522	-0.052657	-0.455155
F116	F	2.275932	-0.818452	0.509706
F117	F	2.790935	0.071904	0.474804
H118	H	2.278549	-0.933465	0.506541
F119	F	1.772136	-0.650000	0.469309
F120	F	2.506139	-0.447030	0.496298
H121	H	2.455855	0.066540	0.506562
H122	H	1.769525	-0.535007	0.472492
H123	H	1.824491	-0.371911	0.482180
H124	H	1.800575	-0.263531	0.483184
