data_functionalizedCrystal
_audit_creation_method	'MofGen! by Chris Wilmer'
_symmetry_space_group_name_H-M	'P1'
_symmetry_Int_Tables_number	1
_symmetry_cell_setting	triclinic
loop_
_symmetry_equiv_pos_as_xyz
  x,y,z
_cell_length_a	13.635800
_cell_length_b	17.329528
_cell_length_c	19.551833
_cell_angle_alpha	87.708827
_cell_angle_beta	101.663477
_cell_angle_gamma	76.972308
loop_
_atom_site_label
_atom_site_type_symbol
_atom_site_fract_x
_atom_site_fract_y
_atom_site_fract_z
V1	V	1.999831	-0.109532	0.211481
O2	O	1.997257	0.004416	0.213968
O3	O	1.972401	-0.216369	0.203771
O4	O	1.971218	-0.108219	0.306573
O5	O	1.998449	-0.104482	0.110454
V6	V	2.242635	-0.095859	0.200158
O7	O	2.128173	-0.139526	0.236318
O8	O	2.339392	-0.065865	0.175321
O9	O	2.158461	0.010978	0.207868
O10	O	2.303908	-0.209807	0.197671
O11	O	2.302716	-0.100909	0.301185
O12	O	2.159645	-0.097172	0.105066
V13	V	2.499831	-0.109532	0.211481
O14	O	2.497257	0.004416	0.213968
O15	O	2.472401	-0.216369	0.203771
O16	O	2.471218	-0.108219	0.306573
O17	O	2.498449	-0.104482	0.110454
V18	V	2.742635	-0.095859	0.200158
O19	O	2.628173	-0.139526	0.236318
O20	O	2.839392	-0.065865	0.175321
O21	O	2.658461	0.010978	0.207868
O22	O	2.803908	-0.209807	0.197671
O23	O	2.802716	-0.100909	0.301185
O24	O	2.659645	-0.097172	0.105066
C25	C	1.894259	-0.242402	0.198818
C26	C	1.912446	-0.329744	0.193148
C27	C	2.014389	-0.823149	0.157842
C28	C	1.997308	-0.741083	0.163182
C29	C	2.005553	-0.711523	0.229172
C30	C	2.030870	-0.764032	0.289828
C31	C	2.047943	-0.846096	0.284487
C32	C	1.954836	-0.464317	0.248464
C33	C	1.937764	-0.382247	0.253799
C34	C	1.904202	-0.359304	0.127152
C35	C	1.921283	-0.441370	0.121818
C36	C	1.946593	-0.493872	0.182473
C37	C	1.988097	-0.627639	0.234632
C38	C	1.964041	-0.577754	0.177013
C39	C	1.892749	-0.104445	0.329952
C40	C	1.909975	-0.104079	0.407649
C41	C	2.068275	0.037007	0.212819
C42	C	2.039707	0.124348	0.218493
C43	C	2.069785	-0.100948	0.081684
C44	C	2.042179	-0.101311	0.003986
C45	C	2.394259	-0.242402	0.198818
C46	C	2.412446	-0.329744	0.193148
C47	C	2.392749	-0.104445	0.329952
C48	C	2.409975	-0.104079	0.407649
C49	C	2.008835	-0.107850	0.447476
C50	C	2.025021	-0.107506	0.520481
C51	C	1.942344	-0.103406	0.553656
C52	C	1.843469	-0.099629	0.513819
C53	C	1.827284	-0.099966	0.440815
C54	C	1.909652	-0.146127	0.670481
C55	C	1.925841	-0.145796	0.743483
C56	C	1.992259	-0.102364	0.778823
C57	C	2.042505	-0.059275	0.741153
C58	C	2.026320	-0.059612	0.668149
C59	C	1.959884	-0.103040	0.632816
C60	C	2.108676	-0.105762	0.897811
C61	C	2.124858	-0.105413	0.970817
C62	C	1.943305	-0.097543	0.964153
C63	C	1.927125	-0.097885	0.891149
C64	C	2.009815	-0.101998	0.857983
C65	C	2.568275	0.037007	0.212819
C66	C	2.539707	0.124348	0.218493
C67	C	2.569785	-0.100948	0.081684
C68	C	2.542179	-0.101311	0.003986
C69	C	2.511767	-0.374781	0.193743
C70	C	2.528873	-0.456851	0.188426
C71	C	2.446655	-0.493882	0.182510
C72	C	2.347326	-0.448840	0.181917
C73	C	2.330223	-0.366772	0.187239
C74	C	2.508841	-0.107837	0.447469
C75	C	2.525039	-0.107483	0.520473
C76	C	2.442369	-0.103375	0.553656
C77	C	2.343494	-0.099614	0.513830
C78	C	2.327296	-0.099963	0.440827
C79	C	2.612879	0.169384	0.217901
C80	C	2.586045	0.251454	0.223221
C81	C	2.486040	0.288485	0.229139
C82	C	2.412862	0.243443	0.229729
C83	C	2.439694	0.161376	0.224404
C84	C	2.442617	-0.105410	-0.029178
C85	C	2.416661	-0.105741	-0.102183
C86	C	2.490269	-0.101979	-0.142022
C87	C	2.589838	-0.097878	-0.108853
C88	C	2.615791	-0.097541	-0.035849
H89	H	2.007678	-0.847210	0.104106
H90	H	1.944500	-0.358184	0.307540
C91	C	2.075796	-0.903849	0.351208
N92	N	2.096773	-0.947349	0.401465
C93	C	2.633811	-0.111626	0.564268
N94	N	2.715738	-0.114747	0.597252
H95	H	2.460595	-0.560708	0.178177
C96	C	1.969453	-0.683332	0.096460
N97	N	1.948469	-0.639834	0.046202
C98	C	2.638140	-0.506381	0.189071
N99	N	2.720440	-0.543684	0.189555
H100	H	2.205362	-0.108478	1.003243
C101	C	2.218535	-0.095842	0.397034
N102	N	2.136612	-0.092741	0.364052
C103	C	2.256892	-0.489585	0.175397
N104	N	2.188776	-0.520276	0.170477
H105	H	1.957323	-0.601826	0.123284
C106	C	2.602226	-0.334064	0.200255
N107	N	2.670368	-0.303401	0.205165
H108	H	2.331436	0.273607	0.234547
H109	H	1.884933	-0.180886	0.774150
C110	C	2.460204	-0.102992	0.633963
N111	N	2.473643	-0.102706	0.694451
H112	H	2.096591	-0.023912	0.769925
H113	H	2.694314	0.139245	0.213083
C114	C	2.252545	-0.095008	0.550336
N115	N	2.184036	-0.091511	0.577833
H116	H	1.914570	-0.465432	0.068082
H117	H	1.975447	-0.507056	0.297854
H118	H	2.469127	-0.102264	-0.201465
H119	H	1.875986	-0.094198	0.991163
H120	H	2.105529	-0.110582	0.552915
C121	C	2.666569	0.300980	0.222599
N122	N	2.727225	0.338278	0.222141
H123	H	1.883592	-0.316549	0.077771
C124	C	1.818373	-0.093751	0.847338
N125	N	1.736457	-0.090639	0.814339
C126	C	2.039936	-0.731513	0.362418
N127	N	2.046769	-0.707020	0.417096
C128	C	2.081578	-0.012205	0.626713
N129	N	2.123194	0.023506	0.595503
H130	H	2.464205	0.355310	0.233474
C131	C	2.359192	0.111843	0.225066
N132	N	2.298552	0.074539	0.225567
C133	C	2.199634	-0.110276	0.861325
N134	N	2.268144	-0.113674	0.833845
H135	H	2.382668	-0.108473	0.003249
C136	C	2.725321	-0.093038	0.000624
N137	N	2.807823	-0.089647	0.028092
H138	H	2.076169	-0.111196	0.420477
H139	H	2.335582	-0.109081	-0.129179
C140	C	2.599794	-0.112351	0.410981
N141	N	2.668305	-0.115744	0.383502
H142	H	2.249343	-0.330109	0.186751
H143	H	2.649763	-0.094812	-0.141301
H144	H	1.994810	-0.603562	0.288362
C145	C	1.836592	-0.193914	0.631615
N146	N	1.781568	-0.229909	0.602342
H147	H	1.746777	-0.096888	0.408386
H148	H	1.776154	-0.096288	0.540834
