data_functionalizedCrystal
_audit_creation_method	'MofGen! by Chris Wilmer'
_symmetry_space_group_name_H-M	'P1'
_symmetry_Int_Tables_number	1
_symmetry_cell_setting	triclinic
loop_
_symmetry_equiv_pos_as_xyz
  x,y,z
_cell_length_a	15.995300
_cell_length_b	15.944493
_cell_length_c	15.072220
_cell_angle_alpha	90.004743
_cell_angle_beta	89.985917
_cell_angle_gamma	83.473426
loop_
_atom_site_label
_atom_site_type_symbol
_atom_site_fract_x
_atom_site_fract_y
_atom_site_fract_z
O1	O	1.111006	0.108066	-0.073803
O2	O	0.867223	0.121480	-0.073796
O3	O	0.995797	-0.007507	-0.073807
O4	O	0.982432	0.237053	-0.073792
O5	O	0.995765	-0.007500	0.073758
O6	O	0.867191	0.121487	0.073769
O7	O	1.110974	0.108073	0.073762
Zn8	Zn	0.989077	0.114781	0.097194
Zn9	Zn	0.989119	0.114772	-0.097229
O10	O	0.982400	0.237060	0.073773
C11	C	0.836011	0.120937	-0.000013
C12	C	0.743059	0.119296	-0.000011
C13	C	0.572876	0.116267	-0.000018
C14	C	0.525397	0.208109	-0.000011
C15	C	0.428709	0.206433	-0.000348
C16	C	0.405320	0.113286	-0.000024
C17	C	0.446478	0.067716	-0.084128
C18	C	0.543111	0.070040	-0.084196
C19	C	0.543354	0.068688	0.083619
C20	C	0.446410	0.068697	0.084722
C21	C	0.310625	0.111596	-0.000030
C22	C	0.667572	0.117954	-0.000018
C23	C	0.995235	-0.038798	-0.000029
C24	C	0.993597	-0.132046	-0.000040
C25	C	1.069278	-0.367824	-0.000025
C26	C	1.028482	-0.418386	-0.072781
C27	C	0.990562	-0.302766	-0.000029
C28	C	1.028432	-0.418355	0.072707
C29	C	0.987637	-0.467675	-0.000014
C30	C	0.949787	-0.352100	-0.072845
C31	C	0.949749	-0.352066	0.072708
C32	C	0.908895	-0.402595	-0.000065
C33	C	0.992250	-0.207767	-0.000038
C34	C	0.985943	-0.562672	-0.000012
C35	C	1.142185	0.108616	-0.000023
C36	C	1.235138	0.110257	-0.000031
C37	C	0.982962	0.268351	-0.000008
C38	C	0.984600	0.361599	-0.000003
N39	N	0.989055	0.114787	0.229883
N40	N	0.989148	0.114759	-0.229918
C41	C	0.989118	0.114769	0.589085
C42	C	0.920089	0.183556	0.551484
C43	C	0.920247	0.183807	0.448658
C44	C	0.989086	0.114778	0.410881
C45	C	1.076450	0.133905	0.448171
C46	C	1.076063	0.134394	0.551029
C47	C	0.971561	0.026651	0.551180
C48	C	0.969556	0.027239	0.448317
C49	C	0.989073	0.114781	0.310167
C50	C	0.989136	0.114767	0.689798
H51	H	0.400869	0.242080	-0.060984
C52	C	1.147505	0.068032	0.415111
H53	H	1.199763	0.080788	0.438447
H54	H	1.149505	0.069218	0.352139
H55	H	1.137087	0.013446	0.434370
H56	H	1.016568	-0.026346	0.422604
H57	H	0.855308	0.172413	0.423448
C58	C	0.586304	-0.022783	0.084719
H59	H	0.568212	-0.051213	0.135403
H60	H	0.645617	-0.022447	0.086889
H61	H	0.571566	-0.051123	0.032541
C62	C	0.550354	0.257981	0.081445
H63	H	0.589958	0.223244	0.116178
H64	H	0.501746	0.274977	0.116082
H65	H	0.574778	0.306487	0.062325
H66	H	0.545013	0.244464	-0.060227
C67	C	0.817231	-0.423475	-0.000114
H68	H	0.789413	-0.400568	-0.051844
H69	H	0.789067	-0.399761	0.051080
H70	H	0.816667	-0.482988	0.000370
H71	H	1.091536	0.198657	0.575014
C72	C	1.147537	0.069294	0.584637
H73	H	1.147782	0.069149	0.647668
H74	H	1.199948	0.083794	0.563428
H75	H	1.138966	0.014774	0.563556
C76	C	0.904938	-0.313169	-0.156037
H77	H	0.906297	-0.253758	-0.155551
H78	H	0.848144	-0.325273	-0.156250
H79	H	0.932722	-0.336453	-0.207639
H80	H	0.916521	-0.323094	0.134223
C81	C	1.073337	-0.457436	0.155801
H82	H	1.130280	-0.445786	0.155702
H83	H	1.071513	-0.516777	0.155496
H84	H	1.045929	-0.433837	0.207469
C85	C	1.160870	-0.346725	-0.000118
H86	H	1.170681	-0.315220	0.051603
H87	H	1.170327	-0.314368	-0.051321
H88	H	1.198111	-0.397577	-0.000680
H89	H	1.061738	-0.447342	-0.134293
C90	C	0.832077	0.168430	0.584943
H91	H	0.836637	0.120033	0.622150
H92	H	0.796990	0.159658	0.535748
H93	H	0.808309	0.216269	0.617598
H94	H	1.092293	0.197436	0.422405
C95	C	0.887351	0.001816	0.586252
H96	H	0.862111	0.044962	0.624344
H97	H	0.897141	-0.049670	0.618283
H98	H	0.850840	-0.005143	0.537760
H99	H	0.931144	0.248579	0.577326
C100	C	0.935395	0.272141	0.415405
H101	H	0.941483	0.308010	0.464760
H102	H	0.888891	0.294971	0.380429
H103	H	0.985171	0.267939	0.380522
H104	H	0.905290	0.012723	0.423945
C105	C	0.567874	0.114404	-0.169435
H106	H	0.518898	0.130843	-0.203694
H107	H	0.605886	0.076773	-0.202993
H108	H	0.594101	0.162982	-0.154203
C109	C	0.408187	0.109942	-0.168996
H110	H	0.367129	0.155336	-0.153356
H111	H	0.382493	0.069708	-0.202952
H112	H	0.451321	0.130854	-0.203032
C113	C	1.039552	-0.042507	0.584032
H114	H	1.028610	-0.095605	0.560906
H115	H	1.038732	-0.044420	0.647016
H116	H	1.093265	-0.030162	0.564429
C117	C	0.390228	0.254807	0.081074
H118	H	0.433682	0.275665	0.114654
H119	H	0.361932	0.217903	0.116854
H120	H	0.351339	0.300715	0.061941
H121	H	0.575395	0.002600	-0.087793
C122	C	0.427442	-0.024741	-0.088050
H123	H	0.394142	-0.036399	-0.038313
H124	H	0.478746	-0.061153	-0.087137
H125	H	0.397677	-0.033706	-0.141118
H126	H	0.419051	0.101975	0.146943
C127	C	0.571012	0.109543	0.169762
H128	H	0.600825	0.156006	0.155522
H129	H	0.606483	0.069129	0.202813
H130	H	0.522780	0.128723	0.204087
C131	C	0.425677	-0.023035	0.091936
H132	H	0.391547	-0.035399	0.043134
H133	H	0.396296	-0.029951	0.145744
H134	H	0.476398	-0.060349	0.091364
