data_functionalizedCrystal
_audit_creation_method	'MofGen! by Chris Wilmer'
_symmetry_space_group_name_H-M	'P1'
_symmetry_Int_Tables_number	1
_symmetry_cell_setting	triclinic
loop_
_symmetry_equiv_pos_as_xyz
  x,y,z
_cell_length_a	12.827893
_cell_length_b	12.827892
_cell_length_c	11.169409
_cell_angle_alpha	89.966914
_cell_angle_beta	89.978812
_cell_angle_gamma	90.015553
loop_
_atom_site_label
_atom_site_type_symbol
_atom_site_fract_x
_atom_site_fract_y
_atom_site_fract_z
Zn1	Zn	1.597689	-0.415944	-0.678580
Zn2	Zn	1.597578	-0.590731	-0.477894
Zn3	Zn	1.422925	-0.416005	-0.477910
Zn4	Zn	1.422916	-0.590644	-0.678535
O5	O	1.510277	-0.503331	-0.578230
O6	O	1.743911	-0.439141	-0.651971
O7	O	1.574367	-0.567616	-0.309947
O8	O	1.446158	-0.269761	-0.504555
O9	O	1.743828	-0.567556	-0.504529
O10	O	1.574557	-0.269716	-0.651986
O11	O	1.446050	-0.439245	-0.309958
O12	O	1.276688	-0.439161	-0.504510
O13	O	1.446143	-0.567407	-0.846490
O14	O	1.276681	-0.567467	-0.651909
O15	O	1.574548	-0.439056	-0.846524
O16	O	1.574358	-0.736956	-0.504484
O17	O	1.446035	-0.736892	-0.651894
C18	C	1.238767	-0.503312	-0.578207
C19	C	1.122614	-0.503329	-0.578226
C20	C	1.070870	-0.439897	-0.651299
C21	C	0.950819	-0.439913	-0.651320
C22	C	1.510212	-0.774841	-0.578209
C23	C	1.510279	-0.890994	-0.578240
C24	C	1.573853	-0.942776	-0.505378
C25	C	1.573924	-1.062826	-0.505408
C26	C	1.782847	-0.503351	-0.578253
C27	C	1.899000	-0.503360	-0.578263
C28	C	1.510357	-0.503215	-0.891272
C29	C	1.510391	-0.503166	-1.024672
C30	C	1.510371	-0.230761	-0.578277
C31	C	1.510411	-0.114608	-0.578298
C32	C	1.510257	-0.503371	-0.266405
C33	C	1.510425	-0.503126	-0.133006
H34	H	0.943493	-0.557674	-0.515706
H35	H	1.115446	-0.385576	-0.713839
O36	O	0.897580	-0.375158	-0.725847
C37	C	0.729382	-0.316209	-0.793909
C38	C	0.789547	-0.389582	-0.709423
H39	H	0.642027	-0.327861	-0.780678
H40	H	0.750702	-0.231878	-0.773015
H41	H	0.750887	-0.334621	-0.890653
H42	H	0.768075	-0.371263	-0.612650
H43	H	0.768222	-0.473890	-0.730420
O44	O	1.445553	-0.944240	-0.652749
C45	C	1.431612	-1.067447	-0.814728
C46	C	1.505033	-1.007234	-0.730400
H47	H	1.479673	-1.118375	-0.877546
H48	H	1.377089	-1.118706	-0.759598
H49	H	1.383711	-1.009768	-0.869527
H50	H	1.553002	-1.064837	-0.675583
H51	H	1.559487	-0.955959	-0.785599
O52	O	1.069398	-0.568246	-0.503778
C53	C	0.945965	-0.709182	-0.487507
C54	C	1.006180	-0.635742	-0.571957
H55	H	0.894822	-0.763756	-0.542594
H56	H	1.003549	-0.757016	-0.432507
H57	H	0.894889	-0.661082	-0.424881
H58	H	1.057258	-0.683761	-0.634655
H59	H	0.948540	-0.587904	-0.626872
O60	O	1.638628	-0.889484	-0.430967
C61	C	1.697693	-0.721242	-0.363180
C62	C	1.624263	-0.781461	-0.447492
H63	H	1.686121	-0.633896	-0.376529
H64	H	1.679416	-0.742644	-0.266341
H65	H	1.781968	-0.742618	-0.384312
H66	H	1.539964	-0.760118	-0.426469
H67	H	1.642630	-0.760055	-0.544306
H68	H	1.455976	-1.070084	-0.640676
O69	O	1.638858	-1.116104	-0.431134
C70	C	1.698102	-1.284337	-0.363407
C71	C	1.624507	-1.224128	-0.447581
H72	H	1.686510	-1.371685	-0.376657
H73	H	1.782371	-1.262906	-0.384594
H74	H	1.679858	-1.262981	-0.266580
H75	H	1.642657	-1.245452	-0.544436
H76	H	1.540260	-1.245564	-0.426291
