data_functionalizedCrystal
_audit_creation_method	'MofGen! by Chris Wilmer'
_symmetry_space_group_name_H-M	'P1'
_symmetry_Int_Tables_number	1
_symmetry_cell_setting	triclinic
loop_
_symmetry_equiv_pos_as_xyz
  x,y,z
_cell_length_a	8.597366
_cell_length_b	10.654550
_cell_length_c	9.130313
_cell_angle_alpha	90.000110
_cell_angle_beta	97.701693
_cell_angle_gamma	95.090114
loop_
_atom_site_label
_atom_site_type_symbol
_atom_site_fract_x
_atom_site_fract_y
_atom_site_fract_z
O1	O	2.084445	-0.187455	0.141255
O2	O	1.627673	-0.201837	0.083609
O3	O	1.866561	-0.011963	0.113763
O4	O	1.845557	-0.377330	0.111101
O5	O	1.866558	-0.011968	0.357361
O6	O	1.627670	-0.201843	0.327207
O7	O	2.084442	-0.187461	0.384853
Cu8	Cu	1.856056	-0.194652	0.378273
Cu9	Cu	1.856060	-0.194646	0.090189
O10	O	1.845554	-0.377335	0.354699
C11	C	1.569184	-0.200296	0.198027
C12	C	1.394909	-0.195679	0.176033
C13	C	1.865018	0.034841	0.235365
C14	C	1.860404	0.174308	0.234778
C15	C	2.142932	-0.189002	0.270432
C16	C	2.317207	-0.193619	0.292416
C17	C	1.847098	-0.424139	0.233093
C18	C	1.851712	-0.563606	0.233671
N19	N	1.856065	-0.194656	0.580897
C20	C	2.001057	0.253048	0.252533
C21	C	1.996712	0.384091	0.251975
C22	C	1.711048	0.357644	0.215910
C23	C	1.715394	0.226603	0.216459
C24	C	2.165983	0.268318	0.273361
C25	C	2.161638	0.399362	0.272802
N26	N	1.856063	-0.194633	-0.112433
C27	C	1.961872	-0.110608	0.670904
C28	C	1.961868	-0.110593	0.824240
C29	C	1.750244	-0.278684	0.797547
C30	C	1.750242	-0.278692	0.644213
C31	C	2.084056	-0.013566	0.686317
C32	C	2.084052	-0.013551	0.839653
H33	H	1.328109	-0.193900	0.059558
H34	H	2.211482	0.444742	0.173914
H35	H	2.223779	0.440790	0.382588
H36	H	2.045917	0.077874	0.882390
H37	H	1.384016	-0.195389	0.408899
H38	H	1.600860	0.162497	0.201980
H39	H	2.218500	0.232410	0.385170
H40	H	1.592986	0.400239	0.200994
H41	H	2.230493	0.238620	0.179564
H42	H	1.664073	-0.347119	0.570928
H43	H	2.198017	-0.044759	0.653139
H44	H	1.664085	-0.347103	0.849117
H45	H	2.204671	-0.035710	0.896491
H46	H	2.057257	0.083108	0.641317
