data_functionalizedCrystal
_audit_creation_method	'MofGen! by Chris Wilmer'
_symmetry_space_group_name_H-M	'P1'
_symmetry_Int_Tables_number	1
_symmetry_cell_setting	triclinic
loop_
_symmetry_equiv_pos_as_xyz
  x,y,z
_cell_length_a	6.817900
_cell_length_b	23.752963
_cell_length_c	23.753277
_cell_angle_alpha	97.120674
_cell_angle_beta	100.072504
_cell_angle_gamma	100.066732
loop_
_atom_site_label
_atom_site_type_symbol
_atom_site_fract_x
_atom_site_fract_y
_atom_site_fract_z
V1	V	-3.971869	-0.079914	-0.178732
O2	O	-3.977750	0.003068	-0.174984
O3	O	-3.907100	-0.157713	-0.177842
O4	O	-3.907128	-0.079023	-0.256532
O5	O	-3.977722	-0.076166	-0.095750
V6	V	-4.459735	-0.069948	-0.168766
O7	O	-4.223600	-0.101774	-0.200593
O8	O	-4.658201	-0.048088	-0.146906
O9	O	-4.301296	0.007851	-0.169657
O10	O	-4.571250	-0.152930	-0.172514
O11	O	-4.571278	-0.073695	-0.251749
O12	O	-4.301269	-0.070839	-0.090967
C13	C	-3.748648	-0.176668	-0.175108
C14	C	-3.776870	-0.240272	-0.174899
C15	C	-3.924721	-0.626288	-0.121108
C16	C	-3.951264	-0.686050	-0.120904
O17	O	-3.941817	-0.709824	-0.076209
N18	N	-3.991859	-0.724330	-0.173234
C19	C	-4.005932	-0.702846	-0.225773
O20	O	-4.042900	-0.740894	-0.270266
C21	C	-3.979403	-0.643085	-0.225977
C22	C	-3.938787	-0.604807	-0.173643
C23	C	-3.884110	-0.588011	-0.068778
C24	C	-3.857565	-0.528253	-0.068983
C25	C	-3.871631	-0.506772	-0.121517
C26	C	-3.912243	-0.545049	-0.173847
C27	C	-3.993490	-0.621602	-0.278516
C28	C	-3.966959	-0.561836	-0.278715
C29	C	-3.926343	-0.523559	-0.226381
C30	C	-3.899764	-0.463811	-0.226587
N31	N	-3.859169	-0.425530	-0.174256
C32	C	-3.845103	-0.447011	-0.121721
C33	C	-4.061645	-0.828347	-0.225340
C34	C	-4.088159	-0.888107	-0.225137
C35	C	-4.033493	-0.871307	-0.120267
C36	C	-4.006965	-0.811546	-0.120471
C37	C	-4.021050	-0.790067	-0.173010
C38	C	-3.789357	-0.321516	-0.122155
C39	C	-3.762804	-0.261753	-0.122364
C40	C	-3.817483	-0.278559	-0.227234
C41	C	-3.844023	-0.338316	-0.227025
C42	C	-3.829964	-0.359792	-0.174481
O43	O	-3.909191	-0.439995	-0.271259
O44	O	-3.808161	-0.408958	-0.077237
C45	C	-3.748683	-0.076291	-0.275484
C46	C	-3.776926	-0.076077	-0.339088
C47	C	-3.926248	-0.127572	-0.622392
C48	C	-3.899715	-0.127776	-0.562630
O49	O	-3.909151	-0.172470	-0.538855
N50	N	-3.859142	-0.075446	-0.524350
C51	C	-3.845082	-0.022907	-0.545835
O52	O	-3.808134	0.021585	-0.507788
C53	C	-3.871601	-0.022703	-0.605596
C54	C	-3.912194	-0.075038	-0.643873
C55	C	-3.966837	-0.179902	-0.660668
C56	C	-3.993372	-0.179698	-0.720426
C57	C	-3.979318	-0.127163	-0.741907
C58	C	-3.938730	-0.074833	-0.703631
C59	C	-3.857527	0.029835	-0.627079
C60	C	-3.884049	0.030034	-0.686845
C61	C	-3.924642	-0.022300	-0.725122
C62	C	-3.951211	-0.022095	-0.784870
N63	N	-3.991784	-0.074425	-0.823149
C64	C	-4.005837	-0.126960	-0.801668
C65	C	-3.789389	-0.023339	-0.420334
C66	C	-3.762885	-0.023543	-0.360575
C67	C	-3.817515	-0.128412	-0.377373
C68	C	-3.844034	-0.128208	-0.437134
C69	C	-3.829962	-0.075670	-0.458614
C70	C	-4.061563	-0.126527	-0.927163
C71	C	-4.088106	-0.126318	-0.986926
C72	C	-4.033463	-0.021449	-0.970122
C73	C	-4.006932	-0.021657	-0.910365
C74	C	-4.020979	-0.074201	-0.888887
O75	O	-3.941795	0.022577	-0.808686
O76	O	-4.042759	-0.171444	-0.839721
C77	C	-4.123090	0.026804	-0.172389
C78	C	-4.074105	0.090407	-0.172602
C79	C	-4.123056	-0.073573	-0.072012
C80	C	-4.074053	-0.073783	-0.008407
H81	H	-4.022042	-0.888807	-0.077490
H82	H	-3.777905	-0.338994	-0.079369
Cl83	Cl	-3.955913	-0.763431	-0.054677
H84	H	-3.877080	-0.170823	-0.468296
H85	H	-3.828945	-0.171188	-0.359873
H86	H	-3.877062	-0.369483	-0.269639
H87	H	-3.872656	-0.605493	-0.025996
Cl88	Cl	-3.711739	-0.213635	-0.056568
Cl89	Cl	-3.956044	0.044132	-0.862246
Cl90	Cl	-3.711867	0.042252	-0.312462
Cl91	Cl	-3.806528	-0.480141	-0.003187
Cl92	Cl	-3.771715	0.042715	-0.447330
H93	H	-4.121164	-0.168936	-1.018090
Cl94	Cl	-3.984521	-0.245954	-0.633675
H95	H	-4.022035	0.021323	-0.987623
H96	H	-3.824478	0.072451	-0.595924
Cl97	Cl	-3.866350	0.096086	-0.713843
Cl98	Cl	-4.044424	-0.669707	-0.344310
H99	H	-4.073110	-0.810864	-0.268126
Cl100	Cl	-4.139145	-0.936219	-0.290930
H101	H	-3.828921	-0.261058	-0.270006
Cl102	Cl	-3.984677	-0.534839	-0.344768
H103	H	-4.072998	-0.169312	-0.909684
H104	H	-4.026419	-0.222314	-0.751587
