data_functionalizedCrystal
_audit_creation_method	'MofGen! by Chris Wilmer'
_symmetry_space_group_name_H-M	'P1'
_symmetry_Int_Tables_number	1
_symmetry_cell_setting	triclinic
loop_
_symmetry_equiv_pos_as_xyz
  x,y,z
_cell_length_a	17.019383
_cell_length_b	16.098538
_cell_length_c	16.109301
_cell_angle_alpha	87.279371
_cell_angle_beta	83.430593
_cell_angle_gamma	96.605849
loop_
_atom_site_label
_atom_site_type_symbol
_atom_site_fract_x
_atom_site_fract_y
_atom_site_fract_z
O1	O	1.054025	0.144776	0.098207
O2	O	1.387358	0.478110	0.431541
O3	O	1.720691	0.811443	0.764874
O4	O	0.823517	0.128263	0.112587
O5	O	1.156850	0.461597	0.445921
O6	O	1.490183	0.794930	0.779254
O7	O	0.945102	0.136965	-0.015663
O8	O	1.278436	0.470298	0.317670
O9	O	1.611769	0.803632	0.651004
O10	O	0.932439	0.136075	0.226458
O11	O	1.265772	0.469408	0.559791
O12	O	1.599105	0.802741	0.893124
O13	O	0.938000	-0.002056	-0.008200
O14	O	1.271333	0.331277	0.325133
O15	O	1.604667	0.664610	0.658466
O16	O	0.816414	-0.010758	0.120050
O17	O	1.149747	0.322575	0.453383
O18	O	1.483081	0.655909	0.786717
O19	O	1.046922	0.005755	0.105670
O20	O	1.380255	0.339088	0.439003
O21	O	1.713589	0.672422	0.772336
Zn22	Zn	0.930540	-0.024574	0.114045
Zn23	Zn	1.263874	0.308759	0.447378
Zn24	Zn	1.597207	0.642093	0.780711
Zn25	Zn	0.939898	0.158592	0.104213
Zn26	Zn	1.273232	0.491926	0.437546
Zn27	Zn	1.606565	0.825259	0.770879
O28	O	0.925336	-0.002947	0.233920
O29	O	1.258670	0.330387	0.567253
O30	O	1.592003	0.663720	0.900587
C31	C	0.790469	0.056639	0.115918
C32	C	1.123802	0.389973	0.449252
C33	C	1.457136	0.723306	0.782585
C34	C	0.702579	0.050343	0.114715
C35	C	1.035912	0.383676	0.448049
C36	C	1.369246	0.717009	0.781382
N37	N	0.924160	-0.149580	0.120754
N38	N	1.257493	0.183753	0.454088
N39	N	1.590826	0.517087	0.787421
C40	C	0.665152	0.123159	0.110085
C41	C	0.998485	0.456492	0.443418
C42	C	1.331819	0.789826	0.776751
C43	C	0.582568	0.117230	0.108968
C44	C	0.915901	0.450564	0.442302
C45	C	1.249234	0.783897	0.775635
C46	C	0.537413	0.038485	0.112477
C47	C	0.870746	0.371818	0.445810
C48	C	1.204079	0.705151	0.779143
C49	C	0.574845	-0.034337	0.117110
C50	C	0.908178	0.298997	0.450444
C51	C	1.241511	0.632330	0.783777
C52	C	0.657427	-0.028407	0.118233
C53	C	0.990760	0.304926	0.451566
C54	C	1.324094	0.638259	0.784899
C55	C	0.287874	0.016791	0.109297
C56	C	0.621208	0.350124	0.442631
C57	C	0.954541	0.683457	0.775964
C58	C	0.205287	0.010867	0.108172
C59	C	0.538620	0.344200	0.441505
C60	C	0.871954	0.677533	0.774839
C61	C	0.213016	0.162434	0.100032
C62	C	0.546349	0.495768	0.433365
C63	C	0.879682	0.829101	0.766698
C64	C	0.295599	0.168357	0.101149
C65	C	0.628933	0.501690	0.434483
C66	C	0.962266	0.835024	0.767816
C67	C	0.333024	0.095535	0.105787
C68	C	0.666357	0.428869	0.439121
C69	C	0.999690	0.762202	0.772454
C70	C	0.452999	0.032423	0.111333
C71	C	0.786332	0.365756	0.444666
C72	C	1.119665	0.699090	0.778000
C73	C	0.417436	0.101598	0.106937
C74	C	0.750769	0.434931	0.440270
C75	C	1.084102	0.768265	0.773603
C76	C	0.975785	-0.189470	0.066339
C77	C	1.309118	0.143863	0.399672
C78	C	1.642451	0.477196	0.733006
C79	C	0.971328	-0.276978	0.071040
C80	C	1.304662	0.056355	0.404374
C81	C	1.637995	0.389688	0.737707
C82	C	0.915251	-0.324594	0.130162
C83	C	1.248584	0.008739	0.463495
C84	C	1.581917	0.342073	0.796829
C85	C	0.863620	-0.284698	0.184580
C86	C	1.196954	0.048635	0.517913
C87	C	1.530287	0.381969	0.851247
C88	C	0.868073	-0.197192	0.179874
C89	C	1.201407	0.136142	0.513207
C90	C	1.534740	0.469475	0.846541
C91	C	0.899108	-0.588999	0.147208
C92	C	1.232441	-0.255666	0.480541
C93	C	1.565775	0.077667	0.813875
C94	C	0.894660	-0.676511	0.151912
C95	C	1.227994	-0.343178	0.485245
C96	C	1.561327	-0.009844	0.818578
C97	C	1.002368	-0.668785	0.038371
C98	C	1.335701	-0.335452	0.371704
C99	C	1.669035	-0.002119	0.705037
C100	C	1.006819	-0.581278	0.033673
C101	C	1.340153	-0.247944	0.367006
C102	C	1.673486	0.085389	0.700340
C103	C	0.955186	-0.541389	0.088088
C104	C	1.288520	-0.208056	0.421421
C105	C	1.621853	0.125277	0.754755
C106	C	0.910696	-0.414041	0.134971
C107	C	1.244029	-0.080708	0.468304
C108	C	1.577363	0.252626	0.801638
C109	C	0.959738	-0.451944	0.083275
C110	C	1.293071	-0.118611	0.416608
C111	C	1.626404	0.214722	0.749941
C112	C	1.079970	0.077381	0.102339
C113	C	1.413303	0.410714	0.435672
C114	C	1.746637	0.744047	0.769005
C115	C	1.167860	0.083683	0.103541
C116	C	1.501193	0.417016	0.436875
C117	C	1.834527	0.750349	0.770208
C118	C	0.941038	0.067417	-0.042904
C119	C	1.274372	0.400750	0.290429
C120	C	1.607705	0.734084	0.623763
C121	C	0.939500	0.067306	-0.135192
C122	C	1.272833	0.400639	0.198141
C123	C	1.606167	0.733972	0.531475
N124	N	0.946285	0.283599	0.097496
N125	N	1.279619	0.616932	0.430830
N126	N	1.612952	0.950265	0.764163
C127	C	1.008071	0.072231	-0.357787
C128	C	1.341405	0.405565	-0.024453
C129	C	1.674738	0.738898	0.308880
C130	C	1.006620	0.072134	-0.444501
C131	C	1.339954	0.405467	-0.111167
C132	C	1.673287	0.738801	0.222166
C133	C	0.862362	0.061796	-0.423950
C134	C	1.195696	0.395130	-0.090616
C135	C	1.529029	0.728463	0.242717
C136	C	0.863814	0.061900	-0.337238
C137	C	1.197148	0.395233	-0.003904
C138	C	1.530481	0.728566	0.329429
C139	C	0.936671	0.067113	-0.304159
C140	C	1.270004	0.400446	0.029175
C141	C	1.603338	0.733780	0.362508
C142	C	0.933768	0.066913	-0.477585
C143	C	1.267101	0.400246	-0.144251
C144	C	1.600435	0.733579	0.189082
C145	C	0.932194	0.066807	-0.571604
C146	C	1.265528	0.400141	-0.238270
C147	C	1.598861	0.733474	0.095063
C148	C	0.938245	0.067220	-0.210134
C149	C	1.271579	0.400553	0.123200
C150	C	1.604912	0.733887	0.456533
C151	C	0.929401	0.066603	0.261161
C152	C	1.262734	0.399936	0.594495
C153	C	1.596067	0.733270	0.927828
C154	C	0.930939	0.066720	0.353449
C155	C	1.264272	0.400053	0.686782
C156	C	1.597606	0.733387	1.020116
H157	H	0.701912	0.187282	0.107225
H158	H	1.035245	0.520615	0.440559
H159	H	1.368579	0.853949	0.773892
H160	H	0.552099	0.176525	0.105198
H161	H	0.885432	0.509858	0.438531
H162	H	1.218765	0.843192	0.771864
H163	H	0.857068	-0.556529	0.191516
H164	H	1.190401	-0.223196	0.524850
H165	H	1.523734	0.110138	0.858183
H166	H	0.803045	0.057550	-0.450894
H167	H	1.136378	0.390884	-0.117560
H168	H	1.469711	0.724217	0.215773
H169	H	0.332360	0.232480	0.098287
H170	H	0.665694	0.565813	0.431620
H171	H	0.999027	0.899147	0.764953
C172	C	0.171841	0.242533	0.094938
C173	C	0.505174	0.575866	0.428271
C174	C	0.838508	0.909199	0.761605
N175	N	0.140828	0.302866	0.091105
N176	N	0.474161	0.636199	0.424438
N177	N	0.807494	0.969532	0.757771
H178	H	1.013365	-0.309456	0.026731
H179	H	1.346698	0.023877	0.360064
H180	H	1.680031	0.357210	0.693397
H181	H	0.805668	0.057734	-0.293571
H182	H	1.139001	0.391067	0.039762
H183	H	1.472335	0.724401	0.373096
H184	H	0.318336	-0.042506	0.113068
H185	H	0.651669	0.290827	0.446402
H186	H	0.985002	0.624161	0.779735
C187	C	0.525171	-0.120958	0.120970
C188	C	0.858504	0.212375	0.454304
C189	C	1.191838	0.545709	0.787637
N190	N	0.487758	-0.186203	0.123875
N191	N	0.821091	0.147130	0.457208
N192	N	1.154425	0.480464	0.790541
C193	C	0.832966	-0.728887	0.216950
C194	C	1.166299	-0.395554	0.550284
C195	C	1.499632	-0.062221	0.883617
N196	N	0.786500	-0.768337	0.265935
N197	N	1.119833	-0.435003	0.599269
N198	N	1.453166	-0.101670	0.932602
H199	H	0.168521	-0.053261	0.111053
H200	H	0.501854	0.280072	0.444386
H201	H	0.835187	0.613406	0.777719
H202	H	0.687898	-0.087702	0.122007
H203	H	1.021231	0.245631	0.455340
H204	H	1.354565	0.578964	0.788674
C205	C	0.467109	0.188216	0.103075
C206	C	0.800442	0.521549	0.436408
C207	C	1.133776	0.854882	0.769742
N208	N	0.504531	0.253457	0.100162
N209	N	0.837864	0.586790	0.433495
N210	N	1.171197	0.920123	0.766828
H211	H	0.416224	-0.031692	0.114187
H212	H	0.749558	0.301641	0.447521
H213	H	1.082891	0.634975	0.780854
H214	H	0.865038	-0.452817	0.183110
H215	H	1.198371	-0.119484	0.516444
H216	H	1.531704	0.213850	0.849777
H217	H	1.052482	-0.542510	-0.014468
H218	H	1.385815	-0.209177	0.318865
H219	H	1.719149	0.124156	0.652198
C220	C	1.037475	-0.137101	0.001300
C221	C	1.370808	0.196233	0.334633
C222	C	1.704141	0.529566	0.667966
N223	N	1.083939	-0.097658	-0.047693
N224	N	1.417272	0.235675	0.285641
N225	N	1.750606	0.569008	0.618974
C226	C	1.059154	-0.712670	-0.021488
C227	C	1.392487	-0.379337	0.311845
C228	C	1.725821	-0.046003	0.645178
N229	N	1.101925	-0.745725	-0.066580
N230	N	1.435258	-0.412391	0.266754
N231	N	1.768591	-0.079058	0.600087
H232	H	0.817957	-0.323472	0.232715
H233	H	1.151290	0.009861	0.566049
H234	H	1.484623	0.343195	0.899382
C235	C	0.811288	-0.153313	0.239742
C236	C	1.144621	0.180021	0.573075
C237	C	1.477955	0.513354	0.906409
N238	N	0.768516	-0.120264	0.284837
N239	N	1.101849	0.213069	0.618170
N240	N	1.435183	0.546402	0.951504
C241	C	1.085166	0.077757	-0.503488
C242	C	1.418500	0.411091	-0.170155
C243	C	1.751833	0.744424	0.163179
N244	N	1.144331	0.081991	-0.547917
N245	N	1.477664	0.415325	-0.214584
N246	N	1.810997	0.748658	0.118749
H247	H	1.005393	-0.413173	0.035135
H248	H	1.338727	-0.079840	0.368468
H249	H	1.672060	0.253493	0.701801
C250	C	1.088216	0.077975	-0.321404
C251	C	1.421549	0.411309	0.011930
C252	C	1.754883	0.744642	0.345263
N253	N	1.148584	0.082306	-0.294003
N254	N	1.481917	0.415639	0.039331
N255	N	1.815250	0.748972	0.372664
