data_functionalizedCrystal
_audit_creation_method	'MofGen! by Chris Wilmer'
_symmetry_space_group_name_H-M	'P1'
_symmetry_Int_Tables_number	1
_symmetry_cell_setting	triclinic
loop_
_symmetry_equiv_pos_as_xyz
  x,y,z
_cell_length_a	18.215407
_cell_length_b	12.594516
_cell_length_c	18.215407
_cell_angle_alpha	90.006371
_cell_angle_beta	90.010236
_cell_angle_gamma	90.016501
loop_
_atom_site_label
_atom_site_type_symbol
_atom_site_fract_x
_atom_site_fract_y
_atom_site_fract_z
Zn1	Zn	1.125047	-0.423906	0.416146
Zn2	Zn	1.625047	0.076094	0.916146
Zn3	Zn	1.124995	-0.601854	0.293092
Zn4	Zn	1.624995	-0.101854	0.793092
Zn5	Zn	1.002001	-0.423892	0.293093
Zn6	Zn	1.502001	0.076108	0.793093
Zn7	Zn	1.001965	-0.601844	0.416117
Zn8	Zn	1.501965	-0.101844	0.916117
O9	O	1.063502	-0.512874	0.354612
O10	O	1.563502	-0.012874	0.854612
O11	O	1.228025	-0.447521	0.399834
O12	O	1.728025	0.052479	0.899834
O13	O	1.108673	-0.578246	0.190108
O14	O	1.608673	-0.078246	0.690108
O15	O	1.018360	-0.274948	0.309429
O16	O	1.518360	0.225052	0.809429
O17	O	1.227987	-0.578259	0.309427
O18	O	1.727987	-0.078259	0.809427
O19	O	1.108762	-0.274958	0.399835
O20	O	1.608762	0.225042	0.899835
O21	O	1.018309	-0.447497	0.190109
O22	O	1.518309	0.052503	0.690109
O23	O	0.899012	-0.447487	0.309401
O24	O	1.399012	0.052513	0.809401
O25	O	1.018299	-0.578242	0.519105
O26	O	1.518299	-0.078242	1.019105
O27	O	0.898985	-0.578228	0.399786
O28	O	1.398985	-0.078228	0.899786
O29	O	1.108727	-0.447511	0.519126
O30	O	1.608727	0.052489	1.019126
O31	O	1.108638	-0.750799	0.309399
O32	O	1.608638	-0.250799	0.809399
O33	O	1.018248	-0.750791	0.399785
O34	O	1.518248	-0.250791	0.899785
C35	C	0.872296	-0.512856	0.354591
C36	C	1.372296	-0.012856	0.854591
C37	C	0.790497	-0.512873	0.354599
C38	C	1.290497	-0.012873	0.854599
C39	C	0.602309	-0.581057	0.401603
C40	C	1.102309	-0.081057	0.901603
C41	C	0.525450	-0.581061	0.401613
C42	C	1.025450	-0.081061	0.901613
C43	C	0.525448	-0.444710	0.307636
C44	C	1.025448	0.055290	0.807636
C45	C	0.602305	-0.444702	0.307631
C46	C	1.102305	0.055298	0.807631
C47	C	0.640733	-0.512882	0.354614
C48	C	1.140733	-0.012882	0.854614
C49	C	0.487017	-0.512893	0.354628
C50	C	0.987017	-0.012893	0.854628
C51	C	0.403684	-0.512896	0.354637
C52	C	0.903684	-0.012896	0.854637
C53	C	0.724072	-0.512877	0.354605
C54	C	1.224072	-0.012877	0.854605
C55	C	1.063454	-0.789415	0.354605
C56	C	1.563454	-0.289415	0.854605
C57	C	1.063501	-0.907720	0.354626
C58	C	1.563501	-0.407720	0.854626
C59	C	1.014333	-0.977008	0.403752
C60	C	1.514333	-0.477008	0.903752
C61	C	0.996415	-1.047840	0.336599
C62	C	1.496415	-0.547840	0.836599
C63	C	1.081486	-1.047687	0.421790
C64	C	1.581486	-0.547687	0.921790
C65	C	1.045547	-0.976994	0.287438
C66	C	1.545547	-0.476994	0.787438
C67	C	1.130649	-0.976835	0.372674
C68	C	1.630649	-0.476835	0.872674
C69	C	1.112757	-1.047635	0.305475
C70	C	1.612757	-0.547635	0.805475
C71	C	1.255455	-0.512893	0.354633
C72	C	1.755455	-0.012893	0.854633
C73	C	1.337254	-0.512901	0.354643
C74	C	1.837254	-0.012901	0.854643
C75	C	1.063515	-0.512877	0.546565
C76	C	1.563515	-0.012877	1.046565
C77	C	1.063520	-0.512878	0.628364
C78	C	1.563520	-0.012878	1.128364
C79	C	1.063571	-0.235253	0.354635
C80	C	1.563571	0.264747	0.854635
C81	C	1.063600	-0.116948	0.354645
C82	C	1.563600	0.383052	0.854645
C83	C	1.110591	-0.444818	0.816570
C84	C	1.610591	0.055182	1.316570
C85	C	1.110587	-0.444817	0.893428
C86	C	1.610587	0.055183	1.393428
C87	C	1.016425	-0.580954	0.893395
C88	C	1.516425	-0.080954	1.393395
C89	C	1.016426	-0.580948	0.816538
C90	C	1.516426	-0.080948	1.316538
C91	C	1.063513	-0.512882	0.778127
C92	C	1.563513	-0.012882	1.278127
C93	C	1.063508	-0.512887	0.931843
C94	C	1.563508	-0.012887	1.431843
C95	C	1.063503	-0.512887	1.015177
C96	C	1.563503	-0.012887	1.515177
C97	C	1.063517	-0.512880	0.694788
C98	C	1.563517	-0.012880	1.194788
C99	C	1.063490	-0.512894	1.163405
C100	C	1.563490	-0.012894	1.663405
C101	C	1.063501	-0.512890	1.081607
C102	C	1.563501	-0.012890	1.581607
H103	H	0.494150	-0.389202	0.269383
H104	H	0.994150	0.110798	0.769383
H105	H	1.096657	-1.078739	0.478583
H106	H	1.596657	-0.578739	0.978583
H107	H	0.978084	-0.636373	0.785237
H108	H	1.478084	-0.136373	1.285237
H109	H	0.633595	-0.636571	0.439862
H110	H	1.133595	-0.136571	0.939862
H111	H	0.978089	-0.636373	0.924678
H112	H	1.478089	-0.136373	1.424678
F113	F	0.643202	-0.372131	0.257619
F114	F	1.143202	0.127869	0.757619
H115	H	1.030310	-0.946070	0.230630
H116	H	1.530310	-0.446070	0.730630
F117	F	0.959890	-0.936469	0.457976
F118	F	1.459890	-0.436469	0.957976
H119	H	1.148931	-0.389391	0.785298
H120	H	1.648931	0.110609	1.285298
H121	H	0.494168	-0.636574	0.439877
H122	H	0.994168	-0.136574	0.939877
F123	F	0.922247	-1.088603	0.316650
F124	F	1.422247	-0.588603	0.816650
H125	H	1.187377	-0.945626	0.387956
H126	H	1.687377	-0.445626	0.887956
H127	H	1.148922	-0.389391	0.924725
H128	H	1.648922	0.110609	1.424725
F129	F	1.167162	-1.087915	0.251123
F130	F	1.667162	-0.587915	0.751123
