data_functionalizedCrystal
_audit_creation_method	'MofGen! by Chris Wilmer'
_symmetry_space_group_name_H-M	'P1'
_symmetry_Int_Tables_number	1
_symmetry_cell_setting	triclinic
loop_
_symmetry_equiv_pos_as_xyz
  x,y,z
_cell_length_a	17.038272
_cell_length_b	16.109301
_cell_length_c	15.186229
_cell_angle_alpha	90.004940
_cell_angle_beta	90.002089
_cell_angle_gamma	92.713481
loop_
_atom_site_label
_atom_site_type_symbol
_atom_site_fract_x
_atom_site_fract_y
_atom_site_fract_z
O1	O	1.037364	-0.180538	-0.073123
O2	O	1.370698	0.152795	0.260210
O3	O	1.704031	0.486129	0.593543
O4	O	0.809734	-0.177671	-0.073149
O5	O	1.143067	0.155662	0.260184
O6	O	1.476400	0.488995	0.593517
O7	O	0.929802	-0.058518	-0.073127
O8	O	1.263136	0.274815	0.260207
O9	O	1.596469	0.608149	0.593540
O10	O	0.917296	-0.299692	-0.073146
O11	O	1.250629	0.033642	0.260187
O12	O	1.583962	0.366975	0.593521
O13	O	0.929794	-0.058516	0.073331
O14	O	1.263127	0.274817	0.406664
O15	O	1.596460	0.608151	0.739997
O16	O	0.809725	-0.177670	0.073308
O17	O	1.143059	0.155664	0.406641
O18	O	1.476392	0.488997	0.739975
O19	O	1.037356	-0.180536	0.073334
O20	O	1.370689	0.152797	0.406667
O21	O	1.704023	0.486130	0.740000
Zn22	Zn	0.923539	-0.179103	0.096574
Zn23	Zn	1.256873	0.154231	0.429907
Zn24	Zn	1.590206	0.487564	0.763241
Zn25	Zn	0.923550	-0.179105	-0.096390
Zn26	Zn	1.256884	0.154228	0.236944
Zn27	Zn	1.590217	0.487562	0.570277
O28	O	0.917287	-0.299690	0.073311
O29	O	1.250621	0.033643	0.406645
O30	O	1.583954	0.366977	0.739978
C31	C	0.780601	-0.175063	0.000076
C32	C	1.113935	0.158270	0.333409
C33	C	1.447268	0.491604	0.666743
C34	C	0.693808	-0.167284	0.000067
C35	C	1.027142	0.166049	0.333400
C36	C	1.360475	0.499383	0.666733
C37	C	0.643694	-0.238705	0.000062
C38	C	0.977027	0.094629	0.333395
C39	C	1.310360	0.427962	0.666728
C40	C	0.562143	-0.231391	0.000074
C41	C	0.895476	0.101943	0.333408
C42	C	1.228810	0.435276	0.666741
C43	C	0.530709	-0.152655	0.000086
C44	C	0.864042	0.180678	0.333419
C45	C	1.197376	0.514012	0.666752
C46	C	0.580830	-0.081229	0.000093
C47	C	0.914164	0.252104	0.333427
C48	C	1.247497	0.585438	0.666760
C49	C	0.662379	-0.088544	0.000087
C50	C	0.995712	0.244789	0.333420
C51	C	1.329046	0.578123	0.666754
C52	C	0.284951	-0.126813	0.000111
C53	C	0.618285	0.206521	0.333445
C54	C	0.951618	0.539854	0.666778
C55	C	0.203396	-0.119503	0.000115
C56	C	0.536729	0.213830	0.333449
C57	C	0.870063	0.547164	0.666782
C58	C	0.184714	-0.269665	0.000098
C59	C	0.518048	0.063668	0.333431
C60	C	0.851381	0.397001	0.666764
C61	C	0.266266	-0.276973	0.000086
C62	C	0.599599	0.056360	0.333419
C63	C	0.932932	0.389693	0.666753
C64	C	0.316380	-0.205547	0.000098
C65	C	0.649713	0.127786	0.333432
C66	C	0.983046	0.461119	0.666765
C67	C	0.447352	-0.145177	0.000096
C68	C	0.780685	0.188156	0.333429
C69	C	1.114018	0.521490	0.666763
C70	C	0.399736	-0.213026	0.000094
C71	C	0.733069	0.120307	0.333428
C72	C	1.066402	0.453640	0.666761
C73	C	0.929291	-0.027506	0.000102
C74	C	1.262625	0.305827	0.333436
C75	C	1.595958	0.639161	0.666769
C76	C	0.927773	0.064897	0.000103
C77	C	1.261106	0.398230	0.333437
C78	C	1.594439	0.731564	0.666770
C79	C	1.066488	-0.183145	0.000106
C80	C	1.399822	0.150189	0.333440
C81	C	1.733155	0.483522	0.666773
C82	C	1.153281	-0.190924	0.000110
C83	C	1.486615	0.142410	0.333443
C84	C	1.819948	0.475743	0.666777
C85	C	0.917798	-0.330702	0.000080
C86	C	1.251131	0.002632	0.333414
C87	C	1.584465	0.335965	0.666747
C88	C	0.919317	-0.423105	0.000073
C89	C	1.252650	-0.089771	0.333407
C90	C	1.585984	0.243562	0.666740
N91	N	0.923537	-0.179101	0.228267
N92	N	1.256871	0.154232	0.561600
N93	N	1.590204	0.487566	0.894933
C94	C	0.995487	0.282360	0.000097
C95	C	1.328821	0.615694	0.333430
C96	C	1.662154	0.949027	0.666764
C97	C	0.994054	0.369183	0.000090
C98	C	1.327387	0.702516	0.333423
C99	C	1.660721	1.035849	0.666756
C100	C	0.851597	0.359425	0.000077
C101	C	1.184930	0.692759	0.333410
C102	C	1.518263	1.026092	0.666744
C103	C	0.853031	0.272605	0.000078
C104	C	1.186364	0.605938	0.333411
C105	C	1.519698	0.939272	0.666745
C106	C	0.924978	0.234075	0.000093
C107	C	1.258312	0.567408	0.333426
C108	C	1.591645	0.900741	0.666759
C109	C	0.922111	0.407718	0.000084
C110	C	1.255445	0.741051	0.333417
C111	C	1.588778	1.074384	0.666751
C112	C	0.920557	0.501854	0.000076
C113	C	1.253890	0.835187	0.333409
C114	C	1.587223	1.168521	0.666743
C115	C	0.926533	0.139932	0.000099
C116	C	1.259867	0.473266	0.333432
C117	C	1.593200	0.806599	0.666766
C118	C	0.976721	-0.126361	0.454000
C119	C	1.310054	0.206972	0.787333
C120	C	1.643388	0.540306	1.120666
C121	C	0.976723	-0.126360	0.546189
C122	C	1.310057	0.206974	0.879523
C123	C	1.643390	0.540307	1.212856
C124	C	0.870366	-0.231847	0.546178
C125	C	1.203699	0.101487	0.879512
C126	C	1.537033	0.434820	1.212845
C127	C	0.870361	-0.231843	0.453990
C128	C	1.203694	0.101490	0.787324
C129	C	1.537027	0.434823	1.120657
C130	C	0.923543	-0.179102	0.407903
C131	C	1.256876	0.154232	0.741237
C132	C	1.590209	0.487565	1.074570
C133	C	0.923550	-0.179104	0.592281
C134	C	1.256883	0.154230	0.925614
C135	C	1.590217	0.487563	1.258948
C136	C	0.923552	-0.179103	0.692237
C137	C	1.256885	0.154231	1.025571
C138	C	1.590219	0.487564	1.358904
C139	C	0.923540	-0.179102	0.307941
C140	C	1.256873	0.154232	0.641274
C141	C	1.590207	0.487565	0.974608
N142	N	0.923555	-0.179105	0.771918
N143	N	1.256889	0.154229	1.105251
N144	N	1.590222	0.487562	1.438584
H145	H	0.425333	-0.277132	0.000090
H146	H	0.758666	0.056201	0.333423
H147	H	1.092000	0.389534	0.666757
F148	F	0.777981	0.221212	0.000067
F149	F	1.111315	0.554546	0.333400
F150	F	1.444648	0.887879	0.666734
H151	H	0.703182	-0.030385	0.000091
H152	H	1.036516	0.302948	0.333424
H153	H	1.369849	0.636281	0.666757
H154	H	1.051470	0.408493	0.000091
H155	H	1.384803	0.741827	0.333425
H156	H	1.718136	1.075160	0.666758
H157	H	1.020024	-0.083414	0.416478
H158	H	1.353357	0.249919	0.749811
H159	H	1.686691	0.583252	1.083144
H160	H	0.827053	-0.274791	0.416456
H161	H	1.160386	0.058542	0.749790
H162	H	1.493719	0.391875	1.083123
F163	F	1.072060	0.241357	0.000112
F164	F	1.405393	0.574690	0.333445
F165	F	1.738727	0.908023	0.666778
H166	H	0.827067	-0.274789	0.583712
H167	H	1.160401	0.058544	0.917045
H168	H	1.493734	0.391878	1.250378
F169	F	0.299714	-0.360775	0.000069
F170	F	0.633047	-0.027441	0.333402
F171	F	0.966380	0.305892	0.666736
H172	H	0.793020	0.390807	0.000067
H173	H	1.126353	0.724141	0.333400
H174	H	1.459686	1.057474	0.666734
H175	H	0.143903	-0.327816	0.000089
H176	H	0.477237	0.005517	0.333423
H177	H	0.810570	0.338851	0.666756
F178	F	1.033321	-0.070224	0.595245
F179	F	1.366655	0.263109	0.928579
F180	F	1.699988	0.596443	1.261912
H181	H	0.669280	-0.302820	0.000052
H182	H	1.002614	0.030514	0.333385
H183	H	1.335947	0.363847	0.666718
F184	F	0.169944	-0.035698	0.000143
F185	F	0.503277	0.297635	0.333476
F186	F	0.836611	0.630969	0.666809
H187	H	0.325745	-0.068652	0.000122
H188	H	0.659078	0.264681	0.333456
H189	H	0.992412	0.598015	0.666789
F190	F	0.508810	-0.307407	0.000065
F191	F	0.842144	0.025926	0.333398
F192	F	1.175477	0.359260	0.666732
H193	H	0.555230	-0.017121	0.000115
H194	H	0.888564	0.316213	0.333449
H195	H	1.221897	0.649546	0.666782
H196	H	0.421749	-0.081070	0.000130
H197	H	0.755082	0.252264	0.333464
H198	H	1.088415	0.585597	0.666797
