data_functionalizedCrystal
_audit_creation_method	'MofGen! by Chris Wilmer'
_symmetry_space_group_name_H-M	'P1'
_symmetry_Int_Tables_number	1
_symmetry_cell_setting	triclinic
loop_
_symmetry_equiv_pos_as_xyz
  x,y,z
_cell_length_a	14.044220
_cell_length_b	10.654550
_cell_length_c	9.730223
_cell_angle_alpha	90.004253
_cell_angle_beta	89.997156
_cell_angle_gamma	91.163096
loop_
_atom_site_label
_atom_site_type_symbol
_atom_site_fract_x
_atom_site_fract_y
_atom_site_fract_z
O1	O	1.259697	-0.302986	-0.114286
O2	O	0.983656	-0.292052	-0.114290
O3	O	1.128023	-0.115418	-0.114279
O4	O	1.115330	-0.479621	-0.114297
O5	O	1.128014	-0.115411	0.114301
O6	O	0.983646	-0.292046	0.114290
O7	O	1.259688	-0.302980	0.114294
Zn8	Zn	1.121665	-0.297512	0.150584
Zn9	Zn	1.121678	-0.297520	-0.150580
O10	O	1.115320	-0.479614	0.114283
C11	C	1.127086	-0.068523	0.000010
C12	C	1.124298	0.071201	0.000008
C13	C	0.948305	-0.287263	0.000000
C14	C	0.842986	-0.272988	-0.000001
C15	C	1.295038	-0.307769	0.000001
C16	C	1.400358	-0.322044	-0.000007
C17	C	1.593191	-0.348143	-0.000007
C18	C	1.650158	-0.246895	-0.000001
C19	C	1.757457	-0.261416	-0.000001
C20	C	1.485882	-0.333623	-0.000007
C21	C	1.116257	-0.526509	-0.000009
C22	C	1.119045	-0.666233	-0.000016
N23	N	1.121664	-0.297506	0.356121
C24	C	1.209299	0.142144	0.000009
C25	C	1.206673	0.273429	-0.000008
C26	C	1.034038	0.262814	-0.000020
C27	C	1.036665	0.131532	-0.000013
N28	N	1.121687	-0.297517	-0.356116
C29	C	1.185612	-0.219331	0.428051
C30	C	1.185621	-0.219332	0.571934
C31	C	1.057732	-0.375696	0.571943
C32	C	1.057719	-0.375687	0.428063
H33	H	1.625001	-0.445722	-0.000012
H34	H	1.618346	-0.149307	-0.000096
H35	H	1.005640	-0.439347	0.369493
C36	C	1.255942	-0.133324	0.348914
C37	C	1.326279	-0.047327	0.428044
C38	C	1.396609	0.038686	0.348912
C39	C	1.396603	0.038701	0.190649
C40	C	1.326264	-0.047299	0.111510
C41	C	1.255933	-0.133312	0.190642
H42	H	1.326286	-0.047336	0.545208
H43	H	1.448679	0.102349	0.407497
H44	H	1.448666	0.102373	0.132071
H45	H	1.326257	-0.047291	-0.005654
H46	H	1.203864	-0.196975	0.132057
H47	H	1.280656	0.093027	0.000023
C48	C	0.987402	-0.461702	0.651080
C49	C	0.987466	-0.461800	0.809343
C50	C	0.917136	-0.547813	0.888475
C51	C	0.846741	-0.633727	0.809345
C52	C	0.846674	-0.633632	0.651074
C53	C	0.917004	-0.547620	0.571941
H54	H	1.039579	-0.398198	0.867928
H55	H	0.917186	-0.547883	1.005639
H56	H	0.794678	-0.697399	0.867924
H57	H	0.794561	-0.697234	0.592489
H58	H	0.916954	-0.547550	0.454778
H59	H	1.275890	0.331186	-0.000011
H60	H	0.962690	0.311952	-0.000035
H61	H	0.967442	0.073767	-0.000018
H62	H	1.237692	-0.155673	0.630496
