data_functionalizedCrystal
_audit_creation_method	'MofGen! by Chris Wilmer'
_symmetry_space_group_name_H-M	'P1'
_symmetry_Int_Tables_number	1
_symmetry_cell_setting	triclinic
loop_
_symmetry_equiv_pos_as_xyz
  x,y,z
_cell_length_a	10.654550
_cell_length_b	18.266242
_cell_length_c	10.654551
_cell_angle_alpha	90.003472
_cell_angle_beta	84.485132
_cell_angle_gamma	90.012545
loop_
_atom_site_label
_atom_site_type_symbol
_atom_site_fract_x
_atom_site_fract_y
_atom_site_fract_z
O1	O	1.667850	0.060936	0.176401
O2	O	1.302372	0.060924	0.193207
O3	O	1.493513	0.060931	0.002065
O4	O	1.476708	0.060929	0.367543
O5	O	1.493480	-0.060831	0.002054
O6	O	1.302339	-0.060838	0.193197
O7	O	1.667817	-0.060826	0.176390
Zn8	Zn	1.485073	-0.080164	0.184792
Zn9	Zn	1.485116	0.080262	0.184805
O10	O	1.476676	-0.060833	0.367533
C11	C	1.255557	0.000041	0.191968
C12	C	1.116114	0.000037	0.188276
N13	N	1.485052	-0.189651	0.184782
C14	C	1.036629	0.000047	0.300817
C15	C	0.905608	0.000060	0.297341
C16	C	0.933570	0.000055	0.068771
C17	C	1.064589	0.000037	0.072249
C18	C	1.088154	0.000047	0.416844
C19	C	1.008667	0.000058	0.529395
C20	C	0.877647	0.000071	0.525918
C21	C	0.826112	0.000072	0.409891
C22	C	1.569718	-0.227957	0.100186
C23	C	1.569726	-0.304602	0.100181
C24	C	1.485081	-0.342938	0.184792
C25	C	1.400399	-0.304623	0.269394
C26	C	1.400385	-0.227980	0.269389
N27	N	1.470063	-0.463271	0.295783
N28	N	1.470084	-0.536079	0.295783
C29	C	1.485116	-0.573860	0.184811
N30	N	1.500151	-0.536083	0.073833
N31	N	1.500137	-0.463268	0.073834
C32	C	1.485086	-0.426045	0.184807
C33	C	1.569795	-0.695273	0.100202
C34	C	1.569794	-0.771920	0.100194
C35	C	1.400473	-0.771939	0.269419
C36	C	1.400467	-0.695294	0.269415
C37	C	1.485135	-0.656966	0.184808
C38	C	1.714632	0.000058	0.177629
C39	C	1.854075	0.000068	0.181321
C40	C	1.492263	0.000051	-0.044739
C41	C	1.488570	0.000056	-0.184182
N42	N	1.485146	0.189749	0.184805
C43	C	1.486856	0.066427	-0.249688
C44	C	1.483376	0.066424	-0.380708
C45	C	1.483329	-0.066328	-0.380705
C46	C	1.486801	-0.066324	-0.249686
C47	C	1.488625	0.132807	-0.184184
C48	C	1.486912	0.199184	-0.249690
C49	C	1.483432	0.199180	-0.380711
C50	C	1.481665	0.132800	-0.446224
C51	C	1.477926	0.000048	0.414336
C52	C	1.481619	0.000048	0.553779
H53	H	1.194836	0.000040	0.419687
C54	C	1.598439	-0.143339	-0.115516
C55	C	1.488680	-0.139282	-0.177680
H56	H	1.599586	-0.188382	-0.071059
H57	H	1.670184	-0.140586	-0.175563
H58	H	1.599971	-0.103807	-0.057749
H59	H	1.487153	-0.178812	-0.235454
H60	H	1.416916	-0.142043	-0.117626
H61	H	1.638657	-0.196752	0.031291
C62	C	0.967867	0.000058	0.754975
C63	C	1.065307	0.000052	0.656928
H64	H	1.002835	0.000049	0.833709
H65	H	0.917378	0.042522	0.748868
H66	H	0.917317	-0.042401	0.748852
H67	H	1.115852	0.042513	0.663046
H68	H	1.115817	-0.042417	0.663038
H69	H	0.812931	0.000072	0.617562
H70	H	0.719425	0.000071	0.407069
H71	H	0.891600	0.000069	-0.025693
C72	C	1.233024	-0.296946	0.436649
C73	C	1.307349	-0.346758	0.362397
H74	H	1.175568	-0.322959	0.494056
H75	H	1.285680	-0.267041	0.482313
H76	H	1.187400	-0.267062	0.383929
H77	H	1.352980	-0.376638	0.415117
H78	H	1.254685	-0.376675	0.316729
C79	C	1.128830	0.062633	-0.121486
C80	C	1.151975	0.000033	-0.051453
H81	H	1.182787	0.062630	-0.197851
H82	H	1.043439	0.062638	-0.140169
H83	H	1.144588	0.105085	-0.073937
H84	H	1.136208	-0.042419	-0.098998
H85	H	1.237385	0.000021	-0.032773
H86	H	1.482024	0.253227	-0.434041
C87	C	1.374604	-0.141785	0.440057
C88	C	1.307323	-0.185868	0.362392
H89	H	1.317151	-0.115784	0.497469
H90	H	1.427261	-0.171676	0.485716
H91	H	1.425014	-0.107990	0.389652
H92	H	1.256920	-0.219667	0.412796
H93	H	1.254644	-0.155975	0.316729
H94	H	1.488339	0.253228	-0.196339
C95	C	1.325279	-0.577815	0.344553
C96	C	1.307416	-0.653183	0.362423
H97	H	1.267824	-0.551819	0.401970
H98	H	1.409203	-0.565245	0.358967
H99	H	1.310903	-0.565268	0.260603
H100	H	1.321801	-0.665731	0.446370
H101	H	1.223472	-0.665758	0.348018
C102	C	1.737099	-0.296892	-0.067084
C103	C	1.662793	-0.346720	0.007183
H104	H	1.794556	-0.322894	-0.124492
H105	H	1.684431	-0.267012	-0.112748
H106	H	1.782722	-0.266986	-0.014374
H107	H	1.617164	-0.376622	-0.045527
H108	H	1.715469	-0.376613	0.052850
H109	H	1.638733	-0.664065	0.031306
C110	C	1.737185	-0.764197	-0.067047
C111	C	1.662872	-0.814029	0.007204
H112	H	1.794653	-0.790196	-0.124448
H113	H	1.684522	-0.734318	-0.112719
H114	H	1.782794	-0.734291	-0.014326
H115	H	1.617256	-0.843932	-0.045516
H116	H	1.715542	-0.843921	0.052879
H117	H	1.331548	-0.803152	0.338306
C118	C	1.385817	0.096675	0.016684
C119	C	1.492444	0.132811	-0.040165
H120	H	1.388182	0.096674	0.105594
H121	H	1.311947	0.121194	-0.004010
H122	H	1.385022	0.047646	-0.012964
H123	H	1.493234	0.181842	-0.010523
H124	H	1.566333	0.108294	-0.019460
C125	C	1.368872	0.096639	-0.620696
C126	C	1.477819	0.132785	-0.590243
H127	H	1.366497	0.096632	-0.709605
H128	H	1.369660	0.047620	-0.591047
H129	H	1.296570	0.121162	-0.582104
H130	H	1.550122	0.108259	-0.628827
H131	H	1.477042	0.181814	-0.619906
H132	H	1.481891	-0.120371	-0.434057
