data_functionalizedCrystal
_audit_creation_method	'MofGen! by Chris Wilmer'
_symmetry_space_group_name_H-M	'P1'
_symmetry_Int_Tables_number	1
_symmetry_cell_setting	triclinic
loop_
_symmetry_equiv_pos_as_xyz
  x,y,z
_cell_length_a	16.992694
_cell_length_b	16.992695
_cell_length_c	16.053948
_cell_angle_alpha	92.712453
_cell_angle_beta	92.711578
_cell_angle_gamma	90.668223
loop_
_atom_site_label
_atom_site_type_symbol
_atom_site_fract_x
_atom_site_fract_y
_atom_site_fract_z
O1	O	1.047717	0.163775	-0.069324
O2	O	0.819316	0.161943	-0.069349
O3	O	0.932601	0.048659	-0.069330
O4	O	0.934432	0.277058	-0.069343
O5	O	0.938867	0.054947	0.069526
O6	O	0.825582	0.168231	0.069507
O7	O	1.053983	0.170063	0.069532
Zn8	Zn	0.940777	0.170146	0.091566
Zn9	Zn	0.932521	0.161860	-0.091383
O10	O	0.940698	0.283347	0.069513
C11	C	0.793088	0.162731	0.000076
C12	C	0.705603	0.155702	0.000067
C13	C	0.659612	0.223520	0.000064
C14	C	0.577412	0.216911	0.000076
C15	C	0.541204	0.142484	0.000085
C16	C	0.587202	0.074661	0.000091
C17	C	0.669401	0.081271	0.000085
C18	C	0.295891	0.115090	0.000109
C19	C	0.213686	0.108486	0.000112
C20	C	0.203902	0.250737	0.000099
C21	C	0.286103	0.257339	0.000088
C22	C	0.332093	0.189517	0.000098
N23	N	0.457183	0.135727	0.000094
N24	N	0.416114	0.196275	0.000094
C25	C	0.933378	0.022443	0.000098
C26	C	0.926349	-0.065042	0.000097
C27	C	0.994168	-0.111032	0.000105
C28	C	0.987559	-0.193233	0.000096
C29	C	0.913130	-0.229442	0.000086
C30	C	0.845307	-0.183446	0.000075
C31	C	0.851917	-0.101246	0.000078
C32	C	0.885735	-0.474757	0.000071
C33	C	0.879131	-0.556962	0.000071
C34	C	1.021383	-0.566744	0.000091
C35	C	1.027986	-0.484543	0.000099
C36	C	0.960163	-0.438554	0.000083
N37	N	0.906373	-0.313465	0.000079
N38	N	0.966921	-0.354533	0.000084
C39	C	1.080210	0.169275	0.000105
C40	C	1.167695	0.176304	0.000109
C41	C	0.939920	0.309563	0.000084
C42	C	0.946949	0.397047	0.000079
N43	N	0.946417	0.175800	0.216424
N44	N	0.926887	0.156200	-0.216241
C45	C	0.897673	0.127017	0.260139
C46	C	0.901639	0.130983	0.347544
C47	C	0.954353	0.183728	0.391232
C48	C	1.003100	0.232516	0.347511
C49	C	0.999130	0.228554	0.260107
C50	C	0.971663	0.201026	0.652634
C51	C	0.975631	0.204983	0.740044
C52	C	0.874169	0.103450	0.740072
C53	C	0.870207	0.099489	0.652666
C54	C	0.918950	0.148280	0.608952
N55	N	0.958410	0.187781	0.480574
N56	N	0.914889	0.144230	0.519612
H57	H	0.184209	0.047875	0.000119
F58	F	1.093560	-0.615695	0.000106
F59	F	0.822294	0.051531	0.786601
F60	F	0.344827	0.042907	0.000119
H61	H	0.539969	0.272136	0.000072
H62	H	0.315577	0.317945	0.000071
F63	F	1.023523	0.252972	0.606122
H64	H	0.557715	0.014061	0.000110
H65	H	1.018559	0.247937	0.775612
H66	H	1.046018	0.275465	0.383088
F67	F	0.718348	0.009089	0.000091
F68	F	1.059741	-0.242176	0.000107
H69	H	0.796692	-0.063801	0.000071
H70	H	0.166449	0.305954	0.000092
F71	F	1.073385	-0.072503	0.000125
F72	F	1.051012	0.280473	0.213582
F73	F	0.698140	0.302736	0.000048
F74	F	1.107202	-0.446014	0.000089
H75	H	0.818520	-0.586440	0.000076
F76	F	0.813550	-0.425822	0.000053
H77	H	0.784705	-0.212933	0.000061
H78	H	0.861946	0.091259	0.383134
F79	F	0.841573	0.070872	0.213651
H80	H	0.827283	0.056537	0.617102
