data_functionalizedCrystal
_audit_creation_method	'MofGen! by Chris Wilmer'
_symmetry_space_group_name_H-M	'P1'
_symmetry_Int_Tables_number	1
_symmetry_cell_setting	triclinic
loop_
_symmetry_equiv_pos_as_xyz
  x,y,z
_cell_length_a	10.654550
_cell_length_b	16.109304
_cell_length_c	9.730223
_cell_angle_alpha	90.001479
_cell_angle_beta	89.996251
_cell_angle_gamma	83.973770
loop_
_atom_site_label
_atom_site_type_symbol
_atom_site_fract_x
_atom_site_fract_y
_atom_site_fract_z
O1	O	1.666252	0.116770	-0.114393
O2	O	1.300622	0.127896	-0.114371
O3	O	1.493479	0.001362	-0.114383
O4	O	1.473395	0.243304	-0.114381
O5	O	1.493477	0.001365	0.114197
O6	O	1.300620	0.127899	0.114209
O7	O	1.666249	0.116773	0.114186
Zn8	Zn	1.483434	0.122337	0.150490
Zn9	Zn	1.483437	0.122332	-0.150674
O10	O	1.473392	0.243307	0.114199
C11	C	1.253834	0.127080	-0.000078
C12	C	1.114424	0.124636	-0.000069
C13	C	1.033929	0.199137	-0.000088
C14	C	0.902939	0.196836	-0.000112
C15	C	0.932953	0.045526	-0.000103
C16	C	1.063940	0.047828	-0.000070
C17	C	1.016600	0.286495	-0.000100
C18	C	0.885610	0.284194	-0.000123
C19	C	1.492664	-0.029616	-0.000096
C20	C	1.490223	-0.121926	-0.000106
C21	C	1.484585	-0.334299	-0.124699
C22	C	1.482280	-0.421033	-0.124698
C23	C	1.482283	-0.421026	0.124513
C24	C	1.484580	-0.334293	0.124510
C25	C	1.485737	-0.290932	-0.000100
C26	C	1.481135	-0.464399	-0.000096
C27	C	1.478636	-0.558440	-0.000093
C28	C	1.488234	-0.196885	-0.000103
C29	C	1.713037	0.117589	-0.000109
C30	C	1.852448	0.120033	-0.000127
C31	C	1.474208	0.274285	-0.000091
C32	C	1.476649	0.366595	-0.000090
N33	N	1.483442	0.122339	0.356026
N34	N	1.483440	0.122323	-0.356210
C35	C	1.568860	0.066329	0.427947
C36	C	1.568857	0.066319	0.571830
C37	C	1.398012	0.178336	0.571859
C38	C	1.398011	0.178342	0.427979
C39	C	1.667500	0.001659	0.427931
C40	C	1.667497	0.001649	0.571814
H41	H	1.051879	0.314310	-0.098787
H42	H	1.763815	0.015894	0.610859
H43	H	1.758409	0.021908	0.383299
H44	H	1.485523	-0.298997	-0.226165
O45	O	1.051261	0.327262	0.113925
C46	C	1.183197	0.329488	0.113757
H47	H	1.220234	0.321988	0.004059
H48	H	1.229383	0.276481	0.180088
C49	C	1.169407	0.422864	0.306889
C50	C	1.214895	0.413660	0.172154
H51	H	1.188962	0.474784	0.342916
H52	H	1.080519	0.421363	0.307007
H53	H	1.207899	0.378687	0.362148
H54	H	1.176391	0.457831	0.116894
H55	H	1.303777	0.415171	0.172029
O56	O	1.632267	-0.070396	0.625234
C57	C	1.731005	-0.109201	0.706702
H58	H	1.794205	-0.060524	0.742359
H59	H	1.788966	-0.159080	0.643602
C60	C	1.597570	-0.209751	0.788973
C61	C	1.675188	-0.149964	0.832776
H62	H	1.563141	-0.234899	0.866738
H63	H	1.531049	-0.183610	0.734083
H64	H	1.645883	-0.251309	0.736388
H65	H	1.626872	-0.108403	0.885345
H66	H	1.741699	-0.176099	0.887679
H67	H	1.481339	-0.456338	-0.226159
O68	O	0.830859	0.315606	0.117742
C69	C	0.881166	0.268464	0.230757
H70	H	0.977931	0.235964	0.202445
H71	H	0.815421	0.219684	0.259079
C72	C	0.775366	0.366684	0.388968
C73	C	0.894220	0.326772	0.354199
H74	H	0.783414	0.402649	0.465115
H75	H	0.741469	0.398443	0.312828
H76	H	0.720591	0.326025	0.412561
H77	H	0.948988	0.367429	0.330590
H78	H	0.928127	0.295021	0.430338
H79	H	1.485510	-0.298982	0.225979
O80	O	0.835192	0.323571	-0.114108
C81	C	0.748206	0.391361	-0.074440
H82	H	0.771274	0.411838	0.033998
H83	H	0.648610	0.371530	-0.076580
C84	C	0.728230	0.439389	-0.307888
C85	C	0.756569	0.464543	-0.174706
H86	H	0.733383	0.484530	-0.369739
H87	H	0.786830	0.393716	-0.334615
H88	H	0.645235	0.422863	-0.309651
H89	H	0.839568	0.481059	-0.172940
H90	H	0.697983	0.510221	-0.147981
O91	O	1.141955	-0.024620	-0.000095
C92	C	1.069303	-0.092902	-0.000068
H93	H	0.971546	-0.072369	-0.043376
H94	H	1.059950	-0.116396	0.109596
C95	C	1.254698	-0.188710	-0.036481
C96	C	1.134634	-0.163493	-0.089684
H97	H	1.294998	-0.232256	-0.091754
H98	H	1.303646	-0.142708	-0.036494
H99	H	1.246887	-0.208283	0.054905
H100	H	1.142447	-0.143912	-0.181061
H101	H	1.085688	-0.209494	-0.089688
O102	O	1.481229	-0.463283	0.245429
C103	C	1.478931	-0.549134	0.218717
H104	H	1.518342	-0.564193	0.111624
H105	H	1.377593	-0.565609	0.224644
C106	C	1.511669	-0.581817	0.457731
C107	C	1.560084	-0.600315	0.326202
H108	H	1.561723	-0.613389	0.524035
H109	H	1.513212	-0.523977	0.475730
H110	H	1.427222	-0.595546	0.462651
H111	H	1.644524	-0.586575	0.321279
H112	H	1.558557	-0.658153	0.308205
H113	H	0.891833	-0.017009	-0.000125
O114	O	1.314982	0.232622	0.641910
C115	C	1.237513	0.187610	0.725103
H116	H	1.287563	0.122859	0.746640
H117	H	1.144709	0.181391	0.669655
C118	C	1.149176	0.313840	0.835335
C119	C	1.210652	0.234313	0.861797
H120	H	1.132601	0.342649	0.919652
H121	H	1.201364	0.344166	0.779283
H122	H	1.071846	0.308646	0.789125
H123	H	1.287988	0.239508	0.907990
H124	H	1.158477	0.203989	0.917860
O125	O	1.642778	-0.074503	0.381171
C126	C	1.532105	-0.065629	0.300751
H127	H	1.515715	0.000927	0.259800
H128	H	1.448183	-0.079397	0.366513
C129	C	1.566845	-0.208992	0.229687
C130	C	1.546721	-0.127247	0.179380
H131	H	1.575856	-0.247003	0.154823
H132	H	1.641405	-0.214972	0.283871
H133	H	1.496906	-0.220453	0.284488
H134	H	1.616665	-0.115784	0.124594
H135	H	1.472173	-0.121267	0.125183
H136	H	1.328445	0.223942	0.369423
