data_functionalizedCrystal
_audit_creation_method	'MofGen! by Chris Wilmer'
_symmetry_space_group_name_H-M	'P1'
_symmetry_Int_Tables_number	1
_symmetry_cell_setting	triclinic
loop_
_symmetry_equiv_pos_as_xyz
  x,y,z
_cell_length_a	14.044220
_cell_length_b	14.044190
_cell_length_c	12.996460
_cell_angle_alpha	89.989157
_cell_angle_beta	89.999501
_cell_angle_gamma	93.190328
loop_
_atom_site_label
_atom_site_type_symbol
_atom_site_fract_x
_atom_site_fract_y
_atom_site_fract_z
O1	O	1.277175	0.230170	-0.085478
O2	O	1.000504	0.221865	-0.085504
O3	O	1.134683	0.087681	-0.085471
O4	O	1.142996	0.364354	-0.085511
O5	O	1.134667	0.087672	0.085663
O6	O	1.000488	0.221855	0.085630
O7	O	1.277159	0.230161	0.085656
Cu8	Cu	1.138822	0.226007	0.101269
Cu9	Cu	1.138841	0.226018	-0.101117
O10	O	1.142980	0.364344	0.085623
C11	C	1.131039	0.052054	0.000099
C12	C	1.120191	-0.054089	0.000107
C13	C	0.964874	0.218224	0.000060
C14	C	0.858731	0.207380	0.000052
C15	C	1.177292	-0.299547	0.000071
C16	C	1.100375	-0.248422	0.000072
C17	C	1.111404	-0.140285	0.000091
C18	C	1.166265	-0.407694	0.000052
C19	C	0.664392	0.187553	0.000075
C20	C	0.613264	0.264468	0.000068
C21	C	0.505128	0.253436	0.000081
C22	C	0.772539	0.198583	0.000062
C23	C	1.312789	0.233801	0.000089
C24	C	1.418932	0.244646	0.000091
C25	C	1.146624	0.399971	0.000051
C26	C	1.157472	0.506114	0.000036
N27	N	1.138816	0.225999	0.243616
N28	N	1.138854	0.226019	-0.243464
C29	C	1.138840	0.226019	0.663430
C30	C	1.138830	0.226017	0.546625
C31	C	1.138828	0.226010	0.453527
C32	C	1.138818	0.226006	0.336714
H33	H	1.251418	-0.262106	0.000089
O34	O	1.011982	-0.293190	-0.000076
C35	C	1.001024	-0.350604	-0.088729
H36	H	1.074211	-0.368913	-0.118281
H37	H	0.957560	-0.419101	-0.068805
H38	H	0.962440	-0.310229	-0.150786
H39	H	0.626954	0.113425	0.000091
H40	H	0.650706	0.338602	0.000052
