data_functionalizedCrystal
_audit_creation_method	'MofGen! by Chris Wilmer'
_symmetry_space_group_name_H-M	'P1'
_symmetry_Int_Tables_number	1
_symmetry_cell_setting	triclinic
loop_
_symmetry_equiv_pos_as_xyz
  x,y,z
_cell_length_a	19.805405
_cell_length_b	17.077404
_cell_length_c	17.077396
_cell_angle_alpha	90.020945
_cell_angle_beta	89.968350
_cell_angle_gamma	89.980111
loop_
_atom_site_label
_atom_site_type_symbol
_atom_site_fract_x
_atom_site_fract_y
_atom_site_fract_z
Zn1	Zn	-0.269581	-1.200035	-0.443856
Zn2	Zn	0.063752	-0.866702	-0.110522
Zn3	Zn	0.397086	-0.533369	0.222811
Zn4	Zn	-0.382774	-1.199934	-0.312582
Zn5	Zn	-0.049441	-0.866601	0.020751
Zn6	Zn	0.283893	-0.533268	0.354084
Zn7	Zn	-0.269591	-1.068767	-0.312600
Zn8	Zn	0.063742	-0.735434	0.020733
Zn9	Zn	0.397075	-0.402101	0.354066
Zn10	Zn	-0.382720	-1.068727	-0.443803
Zn11	Zn	-0.049387	-0.735394	-0.110469
Zn12	Zn	0.283946	-0.402060	0.222864
O13	O	-0.326167	-1.134366	-0.378210
O14	O	0.007167	-0.801033	-0.044877
O15	O	0.340500	-0.467699	0.288456
O16	O	-0.284614	-1.309869	-0.426457
O17	O	0.048719	-0.976536	-0.093123
O18	O	0.382052	-0.643202	0.240210
O19	O	-0.367787	-1.182509	-0.202738
O20	O	-0.034453	-0.849176	0.130596
O21	O	0.298880	-0.515843	0.463929
O22	O	-0.174873	-1.086239	-0.330041
O23	O	0.158460	-0.752906	0.003292
O24	O	0.491793	-0.419573	0.336625
O25	O	-0.367777	-1.309795	-0.330011
O26	O	-0.034443	-0.976461	0.003323
O27	O	0.298890	-0.643128	0.336656
O28	O	-0.174866	-1.182681	-0.426474
O29	O	0.158468	-0.849348	-0.093141
O30	O	0.491801	-0.516015	0.240193
O31	O	-0.284632	-1.086141	-0.202751
O32	O	0.048701	-0.752808	0.130582
O33	O	0.382035	-0.419475	0.463916
O34	O	-0.284580	-0.958915	-0.329990
O35	O	0.048753	-0.625582	0.003343
O36	O	0.382087	-0.292248	0.336677
O37	O	-0.367686	-1.086171	-0.553657
O38	O	-0.034352	-0.752838	-0.220323
O39	O	0.298981	-0.419504	0.113010
O40	O	-0.367696	-0.958885	-0.426384
O41	O	-0.034362	-0.625552	-0.093050
O42	O	0.298971	-0.292219	0.240283
O43	O	-0.284562	-1.182643	-0.553696
O44	O	0.048771	-0.849309	-0.220362
O45	O	0.382104	-0.515976	0.112971
O46	O	-0.477483	-1.182470	-0.329959
O47	O	-0.144150	-0.849137	0.003374
O48	O	0.189183	-0.515804	0.336707
O49	O	-0.477444	-1.086073	-0.426366
O50	O	-0.144111	-0.752740	-0.093033
O51	O	0.189223	-0.419406	0.240300
C52	C	-0.502023	-1.134278	-0.378172
C53	C	-0.168689	-0.800944	-0.044839
C54	C	0.164644	-0.467611	0.288494
C55	C	-0.577255	-1.134312	-0.378182
C56	C	-0.243921	-0.800978	-0.044849
C57	C	0.089412	-0.467645	0.288484
C58	C	-0.326134	-0.930418	-0.378183
C59	C	0.007200	-0.597085	-0.044850
C60	C	0.340533	-0.263751	0.288483
C61	C	-0.326136	-0.843168	-0.378191
C62	C	0.007197	-0.509835	-0.044857
C63	C	0.340531	-0.176502	0.288476
C64	C	-0.326117	-1.134413	-0.582955
C65	C	0.007217	-0.801080	-0.249621
C66	C	0.340550	-0.467747	0.083712
C67	C	-0.326096	-1.134434	-0.670204
C68	C	0.007238	-0.801100	-0.336871
C69	C	0.340571	-0.467767	-0.003538
C70	C	-0.612597	-1.184555	-0.328036
C71	C	-0.279264	-0.851221	0.005298
C72	C	0.054070	-0.517888	0.338631
C73	C	-0.683285	-1.184588	-0.328053
C74	C	-0.349952	-0.851255	0.005280
C75	C	-0.016619	-0.517921	0.338614
C76	C	-0.718630	-1.134374	-0.378214
C77	C	-0.385297	-0.801041	-0.044880
C78	C	-0.051964	-0.467707	0.288453
C79	C	-0.683283	-1.084129	-0.428366
C80	C	-0.349950	-0.750795	-0.095032
C81	C	-0.016616	-0.417462	0.238301
C82	C	-0.612596	-1.084100	-0.428352
C83	C	-0.279263	-0.750767	-0.095018
C84	C	0.054071	-0.417433	0.238315
C85	C	-0.968356	-1.084245	-0.428424
C86	C	-0.635023	-0.750911	-0.095090
C87	C	-0.301690	-0.417578	0.238243
C88	C	-1.039048	-1.084276	-0.428432
C89	C	-0.705715	-0.750942	-0.095099
C90	C	-0.372382	-0.417609	0.238234
C91	C	-1.039046	-1.184732	-0.328125
C92	C	-0.705712	-0.851399	0.005208
C93	C	-0.372379	-0.518066	0.338541
C94	C	-0.968359	-1.184704	-0.328111
C95	C	-0.635025	-0.851370	0.005222
C96	C	-0.301692	-0.518037	0.338555
C97	C	-0.933018	-1.134462	-0.378266
C98	C	-0.599684	-0.801129	-0.044932
C99	C	-0.266351	-0.467795	0.288401
C100	C	-0.856369	-1.134427	-0.378247
C101	C	-0.523036	-0.801094	-0.044914
C102	C	-0.189703	-0.467761	0.288419
C103	C	-0.795277	-1.134404	-0.378229
C104	C	-0.461944	-0.801070	-0.044895
C105	C	-0.128611	-0.467737	0.288438
C106	C	-0.149624	-1.134476	-0.378266
C107	C	0.183709	-0.801143	-0.044932
C108	C	0.517043	-0.467809	0.288401
C109	C	-0.074392	-1.134523	-0.378289
C110	C	0.258941	-0.801190	-0.044956
C111	C	0.592275	-0.467856	0.288378
C112	C	-0.369523	-0.467359	-0.428332
C113	C	-0.036189	-0.134026	-0.094999
C114	C	0.297144	0.199308	0.238334
C115	C	-0.369516	-0.549340	-0.428322
C116	C	-0.036183	-0.216006	-0.094989
C117	C	0.297151	0.117327	0.238344
C118	C	-0.326169	-0.590319	-0.378212
C119	C	0.007164	-0.256986	-0.044878
C120	C	0.340498	0.076347	0.288455
C121	C	-0.282830	-0.549315	-0.328103
C122	C	0.050503	-0.215981	0.005231
C123	C	0.383836	0.117352	0.338564
C124	C	-0.282841	-0.467336	-0.328109
C125	C	0.050493	-0.134002	0.005224
C126	C	0.383826	0.199331	0.338557
C127	C	-0.282811	-0.720185	-0.328093
C128	C	0.050523	-0.386851	0.005240
C129	C	0.383856	-0.053518	0.338574
C130	C	-0.282799	-0.802169	-0.328087
C131	C	0.050534	-0.468836	0.005246
C132	C	0.383867	-0.135503	0.338580
C133	C	-0.369486	-0.802189	-0.428306
C134	C	-0.036153	-0.468855	-0.094972
C135	C	0.297181	-0.135522	0.238361
C136	C	-0.369496	-0.720210	-0.428313
C137	C	-0.036163	-0.386876	-0.094979
C138	C	0.297170	-0.053543	0.238354
C139	C	-0.326157	-0.679210	-0.378204
C140	C	0.007177	-0.345877	-0.044871
C141	C	0.340510	-0.012544	0.288462
C142	C	-0.326193	-0.339110	-0.378232
C143	C	0.007140	-0.005777	-0.044899
C144	C	0.340474	0.327556	0.288434
C145	C	-0.326186	-0.426360	-0.378229
C146	C	0.007147	-0.093027	-0.044896
C147	C	0.340481	0.240307	0.288438
C148	C	-0.282810	-1.184668	-0.711216
C149	C	0.050524	-0.851335	-0.377883
C150	C	0.383857	-0.518002	-0.044549
C151	C	-0.282787	-1.184678	-0.793197
C152	C	0.050546	-0.851344	-0.459863
C153	C	0.383879	-0.518011	-0.126530
C154	C	-0.326054	-1.134456	-0.834164
C155	C	0.007279	-0.801123	-0.500831
C156	C	0.340612	-0.467789	-0.167497
C157	C	-0.369342	-1.084216	-0.793146
C158	C	-0.036009	-0.750883	-0.459813
C159	C	0.297325	-0.417549	-0.126480
C160	C	-0.369361	-1.084203	-0.711167
C161	C	-0.036027	-0.750870	-0.377834
C162	C	0.297306	-0.417536	-0.044501
C163	C	-0.369301	-1.084247	-0.964017
C164	C	-0.035968	-0.750914	-0.630683
C165	C	0.297365	-0.417581	-0.297350
C166	C	-0.369284	-1.084261	-1.046001
C167	C	-0.035951	-0.750928	-0.712668
C168	C	0.297383	-0.417594	-0.379335
C169	C	-0.282728	-1.184722	-1.046046
C170	C	0.050605	-0.851389	-0.712712
C171	C	0.383939	-0.518056	-0.379379
C172	C	-0.282747	-1.184709	-0.964067
C173	C	0.050587	-0.851376	-0.630733
C174	C	0.383920	-0.518043	-0.297400
C175	C	-0.326035	-1.134470	-0.923055
C176	C	0.007298	-0.801137	-0.589722
C177	C	0.340631	-0.467803	-0.256388
C178	C	-0.326168	-1.134364	-0.174262
C179	C	0.007166	-0.801031	0.159071
C180	C	0.340499	-0.467697	0.492404
C181	C	-0.325998	-1.134496	-0.087013
C182	C	0.007335	-0.801162	0.246320
C183	C	0.340669	-0.467829	0.579654
H184	H	-0.712058	-1.225500	-0.287218
H185	H	-0.378724	-0.892167	0.046115
H186	H	-0.045391	-0.558833	0.379449
H187	H	-0.404807	-0.582717	-0.469120
H188	H	-0.071473	-0.249384	-0.135786
H189	H	0.261860	0.083949	0.197547
H190	H	-1.067824	-1.043386	-0.469285
H191	H	-0.734491	-0.710053	-0.135952
H192	H	-0.401158	-0.376719	0.197382
C193	C	-0.235176	-1.239940	-0.838306
C194	C	0.098157	-0.906606	-0.504973
C195	C	0.431491	-0.573273	-0.171640
H196	H	-0.209417	-1.269855	-0.802166
H197	H	0.123916	-0.936522	-0.468833
H198	H	0.457249	-0.603188	-0.135500
H199	H	-0.205670	-1.209940	-0.870290
H200	H	0.127664	-0.876607	-0.536956
H201	H	0.460997	-0.543273	-0.203623
H202	H	-0.261073	-1.274131	-0.870284
H203	H	0.072261	-0.940798	-0.536951
H204	H	0.405594	-0.607464	-0.203617
C205	C	-0.417179	-0.847284	-0.483400
C206	C	-0.083846	-0.513951	-0.150067
C207	C	0.249487	-0.180617	0.183267
H208	H	-0.410978	-0.901977	-0.476208
H209	H	-0.077644	-0.568643	-0.142874
H210	H	0.255689	-0.235310	0.190459
H211	H	-0.407350	-0.833887	-0.536171
H212	H	-0.074017	-0.500554	-0.202838
H213	H	0.259316	-0.167221	0.130496
H214	H	-0.462641	-0.833819	-0.471792
H215	H	-0.129308	-0.500486	-0.138459
H216	H	0.204025	-0.167152	0.194874
H217	H	-0.247518	-1.225609	-0.930713
H218	H	0.085815	-0.892275	-0.597380
H219	H	0.419148	-0.558942	-0.264047
H220	H	-0.939587	-1.043334	-0.469260
H221	H	-0.606254	-0.710001	-0.135927
H222	H	-0.272921	-0.376668	0.197407
H223	H	-0.247479	-1.225628	-1.079441
H224	H	0.085854	-0.892294	-0.746108
H225	H	0.419187	-0.558961	-0.412775
H226	H	-0.712067	-1.043247	-0.469211
H227	H	-0.378733	-0.709914	-0.135877
H228	H	-0.045400	-0.376580	0.197456
C229	C	-0.416873	-1.029014	-1.091064
C230	C	-0.083539	-0.695681	-0.757731
C231	C	0.249794	-0.362348	-0.424398
H232	H	-0.442650	-0.999084	-1.054900
H233	H	-0.109316	-0.665750	-0.721566
H234	H	0.224017	-0.332417	-0.388233
H235	H	-0.446363	-1.059026	-1.123040
H236	H	-0.113030	-0.725693	-0.789707
H237	H	0.220304	-0.392359	-0.456374
H238	H	-0.390959	-0.994836	-1.123046
H239	H	-0.057626	-0.661503	-0.789713
H240	H	0.275708	-0.328170	-0.456379
H241	H	-0.583821	-1.043188	-0.469187
H242	H	-0.250488	-0.709855	-0.135854
H243	H	0.082846	-0.376521	0.197480
H244	H	-0.404541	-1.043325	-0.930627
H245	H	-0.071208	-0.709992	-0.597294
H246	H	0.262125	-0.376658	-0.263961
C247	C	-0.416936	-1.028971	-0.838205
C248	C	-0.083603	-0.695638	-0.504871
C249	C	0.249730	-0.362305	-0.171538
H250	H	-0.442714	-0.999047	-0.802036
H251	H	-0.109381	-0.665713	-0.468703
H252	H	0.223952	-0.332380	-0.135369
H253	H	-0.446426	-1.058985	-0.870180
H254	H	-0.113092	-0.725652	-0.536847
H255	H	0.220241	-0.392319	-0.203514
H256	H	-0.391028	-0.994788	-0.870186
H257	H	-0.057695	-0.661455	-0.536853
H258	H	0.275639	-0.328121	-0.203519
C259	C	-0.416992	-1.028965	-0.666055
C260	C	-0.083658	-0.695631	-0.332721
C261	C	0.249675	-0.362298	0.000612
H262	H	-0.442767	-0.999066	-0.702193
H263	H	-0.109433	-0.665733	-0.368860
H264	H	0.223900	-0.332399	-0.035526
H265	H	-0.391116	-0.994768	-0.634067
H266	H	-0.057782	-0.661435	-0.300734
H267	H	0.275551	-0.328102	0.032600
H268	H	-0.446493	-1.058989	-0.634081
H269	H	-0.113160	-0.725656	-0.300747
H270	H	0.220174	-0.392323	0.032586
C271	C	-0.417181	-0.422288	-0.483483
C272	C	-0.083848	-0.088955	-0.150149
C273	C	0.249485	0.244378	0.183184
H274	H	-0.442987	-0.458451	-0.513324
H275	H	-0.109654	-0.125117	-0.179990
H276	H	0.223680	0.208216	0.153343
H277	H	-0.391312	-0.390344	-0.517735
H278	H	-0.057979	-0.057010	-0.184402
H279	H	0.275355	0.276323	0.148932
H280	H	-0.446653	-0.390275	-0.453415
H281	H	-0.113320	-0.056942	-0.120081
H282	H	0.220013	0.276392	0.213252
H283	H	-0.247579	-1.225567	-0.677866
H284	H	0.085755	-0.892234	-0.344533
H285	H	0.419088	-0.558901	-0.011200
H286	H	-0.583824	-1.225441	-0.287186
H287	H	-0.250490	-0.892108	0.046148
H288	H	0.082843	-0.558775	0.379481
H289	H	-0.404790	-0.686846	-0.469121
H290	H	-0.071457	-0.353513	-0.135787
H291	H	0.261876	-0.020179	0.197546
C292	C	-0.235168	-0.422237	-0.272999
C293	C	0.098166	-0.088903	0.060335
C294	C	0.431499	0.244430	0.393668
H295	H	-0.209345	-0.458382	-0.243159
H296	H	0.123988	-0.125049	0.090175
H297	H	0.457321	0.208284	0.423508
H298	H	-0.261024	-0.390234	-0.238743
H299	H	0.072310	-0.056901	0.094590
H300	H	0.405643	0.276432	0.427923
H301	H	-0.205712	-0.390278	-0.303099
H302	H	0.127621	-0.056945	0.030235
H303	H	0.460954	0.276388	0.363568
C304	C	-0.235115	-0.847246	-0.272972
C305	C	0.098219	-0.513913	0.060362
C306	C	0.431552	-0.180579	0.393695
H307	H	-0.209309	-0.811089	-0.243125
H308	H	0.124024	-0.477755	0.090209
H309	H	0.457358	-0.144422	0.423542
H310	H	-0.205655	-0.879241	-0.303067
H311	H	0.127679	-0.545908	0.030266
H312	H	0.461012	-0.212575	0.363600
H313	H	-0.260965	-0.879209	-0.238710
H314	H	0.072368	-0.545876	0.094623
H315	H	0.405702	-0.212543	0.427956
H316	H	-0.939583	-1.225590	-0.287263
H317	H	-0.606249	-0.892257	0.046070
H318	H	-0.272916	-0.558923	0.379403
C319	C	-0.235135	-0.675087	-0.272978
C320	C	0.098198	-0.341754	0.060355
C321	C	0.431532	-0.008420	0.393688
H322	H	-0.209312	-0.711233	-0.243140
H323	H	0.124022	-0.377899	0.090194
H324	H	0.457355	-0.044566	0.423527
H325	H	-0.260988	-0.643083	-0.238722
H326	H	0.072346	-0.309749	0.094612
H327	H	0.405679	0.023584	0.427945
H328	H	-0.205681	-0.643131	-0.303082
H329	H	0.127653	-0.309797	0.030251
H330	H	0.460986	0.023536	0.363585
H331	H	-0.247539	-0.582687	-0.287298
H332	H	0.085794	-0.249354	0.046035
H333	H	0.419127	0.083980	0.379369
C334	C	-1.077922	-1.240004	-0.272960
C335	C	-0.744589	-0.906670	0.060373
C336	C	-0.411256	-0.573337	0.393706
H337	H	-1.125083	-1.232838	-0.280155
H338	H	-0.791750	-0.899504	0.053178
H339	H	-0.458417	-0.566171	0.386511
H340	H	-1.066377	-1.228539	-0.220207
H341	H	-0.733044	-0.895205	0.113127
H342	H	-0.399710	-0.561872	0.446460
H343	H	-1.066297	-1.292737	-0.284498
H344	H	-0.732963	-0.959404	0.048835
H345	H	-0.399630	-0.626070	0.382168
