data_functionalizedCrystal
_audit_creation_method	'MofGen! by Chris Wilmer'
_symmetry_space_group_name_H-M	'P1'
_symmetry_Int_Tables_number	1
_symmetry_cell_setting	triclinic
loop_
_symmetry_equiv_pos_as_xyz
  x,y,z
_cell_length_a	18.101398
_cell_length_b	12.759399
_cell_length_c	12.759393
_cell_angle_alpha	90.027810
_cell_angle_beta	89.972988
_cell_angle_gamma	89.988666
loop_
_atom_site_label
_atom_site_type_symbol
_atom_site_fract_x
_atom_site_fract_y
_atom_site_fract_z
Zn1	Zn	1.132218	0.418337	-0.594247
Zn2	Zn	1.132141	0.594056	-0.418579
Zn3	Zn	1.008371	0.418377	-0.418561
Zn4	Zn	1.008360	0.593960	-0.594194
O5	O	1.070273	0.506182	-0.506395
O6	O	1.235841	0.441670	-0.570974
O7	O	1.115695	0.570808	-0.271555
O8	O	1.024837	0.271351	-0.441880
O9	O	1.235784	0.570770	-0.441912
O10	O	1.115827	0.271321	-0.570957
O11	O	1.024762	0.441738	-0.271542
O12	O	0.904737	0.441645	-0.441829
O13	O	1.024818	0.570606	-0.741223
O14	O	0.904729	0.570645	-0.570866
O15	O	1.115816	0.441577	-0.741262
O16	O	1.115684	0.741064	-0.441860
O17	O	1.024743	0.740994	-0.570884
C18	C	1.070224	0.779150	-0.506391
C19	C	1.070271	0.895926	-0.506425
C20	C	0.877862	0.506140	-0.506341
C21	C	0.795548	0.506147	-0.506342
C22	C	1.117730	1.060515	-0.439361
C23	C	1.117681	0.950791	-0.439322
C24	C	1.022902	0.950791	-0.573564
C25	C	1.022948	1.060514	-0.573597
C26	C	1.172452	1.060514	-0.361861
C27	C	1.172403	0.950790	-0.361822
C28	C	0.496457	0.506212	-0.506430
C29	C	0.527762	0.424643	-0.425640
C30	C	0.613381	0.424862	-0.425295
C31	C	0.644839	0.506179	-0.506386
C32	C	0.613741	0.616855	-0.476148
C33	C	0.528096	0.616402	-0.475586
C34	C	0.528070	0.478067	-0.617650
C35	C	0.613720	0.475603	-0.617043
C36	C	0.728699	0.506167	-0.506364
C37	C	0.412597	0.506232	-0.506451
C38	C	1.263434	0.506226	-0.506451
C39	C	1.345749	0.506244	-0.506475
C40	C	1.070324	0.506076	-0.780429
C41	C	1.070346	0.506031	-0.897206
C42	C	1.070340	1.232149	-0.506438
C43	C	1.070366	1.115372	-0.506497
C44	C	1.117736	0.438839	-0.952090
C45	C	1.117753	0.438801	-1.061814
C46	C	1.022991	0.573156	-1.061760
C47	C	1.022970	0.573188	-0.952038
C48	C	1.172448	0.361273	-0.952121
C49	C	1.172466	0.361235	-1.061846
C50	C	1.070264	0.506212	-0.233428
C51	C	1.070385	0.505961	-0.116652
H52	H	0.984370	1.105174	-0.628252
H53	H	0.633835	0.443469	-0.342882
C54	C	1.087640	1.161868	-0.258478
C55	C	1.151769	1.100832	-0.252004
H56	H	1.074874	1.186763	-0.190660
H57	H	1.048366	1.120528	-0.285438
H58	H	1.096194	1.219720	-0.303717
H59	H	1.143214	1.042975	-0.206771
H60	H	1.191052	1.142174	-0.225030
C61	C	0.980746	0.782595	-0.633119
C62	C	0.970786	0.890487	-0.647324
H63	H	0.948575	0.745369	-0.678663
H64	H	0.969925	0.764689	-0.562515
H65	H	1.030493	0.764553	-0.648562
H66	H	0.921041	0.908529	-0.631873
H67	H	0.981602	0.908399	-0.717944
C68	C	1.209601	0.211638	-0.850994
C69	C	1.151731	0.251439	-0.911931
H70	H	1.196811	0.143831	-0.826188
H71	H	1.218109	0.256860	-0.793094
H72	H	1.253128	0.207216	-0.892382
H73	H	1.108206	0.255868	-0.870540
H74	H	1.143214	0.206206	-0.969839
H75	H	0.508086	0.640269	-0.394280
C76	C	0.719860	0.544815	-0.706197
C77	C	0.642629	0.549965	-0.702656
H78	H	0.737705	0.590737	-0.759045
H79	H	0.734728	0.475119	-0.721722
H80	H	0.739525	0.565114	-0.640228
H81	H	0.622964	0.529658	-0.768624
H82	H	0.627754	0.619676	-0.687138
H83	H	0.507826	0.537479	-0.677846
C84	C	0.421431	0.444557	-0.314809
C85	C	0.498705	0.449569	-0.315036
H86	H	0.403504	0.459984	-0.246530
H87	H	0.406119	0.376144	-0.334548
H88	H	0.402266	0.494157	-0.363187
H89	H	0.517871	0.399962	-0.266664
H90	H	0.514024	0.517991	-0.295284
H91	H	1.229739	0.920929	-0.383691
C92	C	0.580645	0.748395	-0.602183
C93	C	0.641251	0.701106	-0.553092
H94	H	0.597631	0.800401	-0.649690
H95	H	0.549879	0.780009	-0.550791
H96	H	0.553330	0.696843	-0.639377
H97	H	0.668563	0.752657	-0.515891
H98	H	0.672029	0.669492	-0.604492
H99	H	0.984417	0.627831	-1.106418
H100	H	1.226938	1.094462	-0.391095
C101	C	1.200285	0.843147	-0.212688
C102	C	1.144698	0.904946	-0.257423
H103	H	1.183177	0.814838	-0.148244
H104	H	1.242773	0.885015	-0.200278
H105	H	1.212594	0.787665	-0.259201
H106	H	1.132393	0.960433	-0.210914
H107	H	1.102197	0.863076	-0.269829
C108	C	1.278004	0.308538	-1.163039
C109	C	1.249895	0.390658	-1.102065
H110	H	1.325806	0.326698	-1.187860
H111	H	1.246158	0.296410	-1.220930
H112	H	1.281122	0.246817	-1.121672
H113	H	1.246772	0.452377	-1.143435
H114	H	1.281748	0.402799	-1.044167
H115	H	0.507387	0.679236	-0.531865
H116	H	1.226916	0.390448	-0.918099
C117	C	0.719947	0.653858	-0.369735
C118	C	0.642664	0.649616	-0.367574
H119	H	0.737807	0.674067	-0.302703
H120	H	0.735395	0.703599	-0.420580
H121	H	0.739050	0.586779	-0.387371
H122	H	0.623561	0.716698	-0.349945
H123	H	0.627209	0.599873	-0.316713
C124	C	0.613123	0.339048	-0.746583
C125	C	0.641149	0.365646	-0.647824
H126	H	0.630053	0.271160	-0.765576
H127	H	0.629636	0.388616	-0.796919
H128	H	0.560669	0.339312	-0.744223
H129	H	0.693602	0.365388	-0.650185
H130	H	0.624639	0.316064	-0.597474
H131	H	0.634407	0.342791	-0.444247
C132	C	1.072363	0.238390	-1.073868
C133	C	1.144773	0.256864	-1.107798
H134	H	1.055268	0.173954	-1.102232
H135	H	1.041298	0.293797	-1.096845
H136	H	1.071420	0.234871	-0.999514
H137	H	1.145715	0.260391	-1.182152
H138	H	1.175846	0.201443	-1.084826
H139	H	0.984378	0.627899	-0.907356
C140	C	0.452167	0.328919	-0.578157
C141	C	0.498935	0.371012	-0.654772
H142	H	0.434184	0.262823	-0.601065
H143	H	0.411781	0.375097	-0.566816
H144	H	0.478824	0.320274	-0.514632
H145	H	0.472276	0.379665	-0.718294
H146	H	0.539327	0.324823	-0.666125
H147	H	0.507178	0.342322	-0.444383
