data_functionalizedCrystal
_audit_creation_method	'MofGen! by Chris Wilmer'
_symmetry_space_group_name_H-M	'P1'
_symmetry_Int_Tables_number	1
_symmetry_cell_setting	triclinic
loop_
_symmetry_equiv_pos_as_xyz
  x,y,z
_cell_length_a	12.759401
_cell_length_b	12.759394
_cell_length_c	12.759393
_cell_angle_alpha	89.967706
_cell_angle_beta	89.981504
_cell_angle_gamma	90.014998
loop_
_atom_site_label
_atom_site_type_symbol
_atom_site_fract_x
_atom_site_fract_y
_atom_site_fract_z
Zn1	Zn	1.606254	-0.418200	-0.593976
Zn2	Zn	1.606148	-0.593919	-0.418294
Zn3	Zn	1.430556	-0.418255	-0.418315
Zn4	Zn	1.430545	-0.593838	-0.593935
O5	O	1.518376	-0.506053	-0.506130
O6	O	1.753261	-0.441520	-0.570679
O7	O	1.582816	-0.570674	-0.271276
O8	O	1.453912	-0.271227	-0.441643
O9	O	1.753183	-0.570620	-0.441607
O10	O	1.582997	-0.271186	-0.570700
O11	O	1.453810	-0.441614	-0.271291
O12	O	1.283534	-0.441536	-0.441604
O13	O	1.453892	-0.570482	-0.740962
O14	O	1.283525	-0.570536	-0.570631
O15	O	1.582986	-0.441442	-0.740992
O16	O	1.582805	-0.740929	-0.441567
O17	O	1.453789	-0.740870	-0.570610
C18	C	1.245409	-0.506034	-0.506116
C19	C	1.128632	-0.506051	-0.506135
C20	C	1.073793	-0.573329	-0.573208
C21	C	0.964069	-0.573342	-0.573219
C22	C	0.964032	-0.438796	-0.439075
C23	C	1.073755	-0.438779	-0.439070
C24	C	1.128670	-0.640601	-0.640273
C25	C	1.073831	-0.707885	-0.707351
C26	C	0.964107	-0.707898	-0.707362
C27	C	0.909222	-0.640627	-0.640296
C28	C	1.518313	-0.779021	-0.506105
C29	C	1.518382	-0.895797	-0.506129
C30	C	1.652826	-0.895806	-0.371857
C31	C	1.720076	-0.950671	-0.304734
C32	C	1.720138	-1.060392	-0.304762
C33	C	1.652945	-1.115251	-0.371924
C34	C	1.585695	-1.060386	-0.439047
C35	C	1.585638	-0.950662	-0.439009
C36	C	1.451257	-1.060378	-0.573323
C37	C	1.451189	-0.950656	-0.573291
C38	C	1.384064	-1.115237	-0.640484
C39	C	1.316808	-1.060372	-0.707604
C40	C	1.316748	-0.950644	-0.707572
C41	C	1.383939	-0.895791	-0.640414
C42	C	1.792409	-0.506073	-0.506145
C43	C	1.909186	-0.506082	-0.506151
C44	C	1.518449	-0.505947	-0.780164
C45	C	1.518481	-0.505902	-0.896940
C46	C	1.518468	-0.232020	-0.506179
C47	C	1.518507	-0.115243	-0.506199
C48	C	1.585709	-0.438704	-0.951820
C49	C	1.585734	-0.438666	-1.061544
C50	C	1.451300	-0.573033	-1.061500
C51	C	1.451270	-0.573065	-0.951778
C52	C	1.652919	-0.371541	-0.896982
C53	C	1.720154	-0.304339	-0.951862
C54	C	1.720179	-0.304301	-1.061586
C55	C	1.652969	-0.371465	-1.116431
C56	C	1.518363	-0.506083	-0.233163
C57	C	1.518535	-0.505832	-0.116387
H58	H	1.118406	-0.383987	-0.384461
H59	H	1.774867	-0.249650	-0.907200
C60	C	1.242906	-1.120716	-0.781478
C61	C	1.242981	-1.241406	-0.781520
C62	C	1.169078	-1.301754	-0.855396
C63	C	1.095100	-1.241412	-0.929228
C64	C	1.095022	-1.120716	-0.929189
C65	C	1.168925	-1.060367	-0.855314
H66	H	1.297747	-1.286080	-0.726862
H67	H	1.169136	-1.391102	-0.855424
H68	H	1.040392	-1.286086	-0.983915
H69	H	1.040256	-1.076041	-0.983847
H70	H	1.168867	-0.971019	-0.855285
H71	H	1.396511	-0.627767	-0.907094
H72	H	1.774903	-1.105063	-0.250110
H73	H	1.261990	-0.905978	-0.762236
H74	H	1.383890	-0.806450	-0.640375
H75	H	0.919460	-0.762677	-0.761988
H76	H	1.652909	-0.371567	-0.807640
H77	H	1.652983	-0.371417	-1.205776
C78	C	1.794128	-0.230377	-1.121955
C79	C	1.868051	-0.156502	-1.061632
C80	C	1.942007	-0.082579	-1.121999
C81	C	1.942039	-0.082531	-1.242689
C82	C	1.868113	-0.156409	-1.303019
C83	C	1.794158	-0.230332	-1.242652
H84	H	1.868030	-0.156535	-0.972284
H85	H	1.996732	-0.027890	-1.077338
H86	H	1.996785	-0.027809	-1.287376
H87	H	1.868134	-0.156376	-1.392367
H88	H	1.739433	-0.285021	-1.287313
C89	C	1.377381	-0.646917	-1.121826
C90	C	1.377417	-0.646888	-1.242516
C91	C	1.303500	-0.720777	-1.302840
C92	C	1.229548	-0.794696	-1.242475
C93	C	1.229510	-0.794728	-1.121778
C94	C	1.303427	-0.720839	-1.061454
H95	H	1.432163	-0.592166	-1.287208
H96	H	1.303529	-0.720753	-1.392189
H97	H	1.174831	-0.849393	-1.287131
H98	H	1.174764	-0.849449	-1.077086
H99	H	1.303398	-0.720863	-0.972105
H100	H	0.819877	-0.640635	-0.640319
C101	C	1.134199	-0.781876	-0.781125
C102	C	1.254889	-0.781867	-0.781117
C103	C	1.315254	-0.855859	-0.854894
C104	C	1.254929	-0.929858	-0.928680
C105	C	1.134232	-0.929870	-0.928691
C106	C	1.073867	-0.855878	-0.854913
H107	H	1.299551	-0.727086	-0.726494
H108	H	1.404602	-0.855850	-0.854886
H109	H	1.299615	-0.984631	-0.983294
H110	H	1.089570	-0.984651	-0.983314
H111	H	0.984519	-0.855887	-0.854922
H112	H	1.218013	-0.640599	-0.640269
H113	H	0.919336	-0.384029	-0.384472
H114	H	1.652770	-0.806465	-0.371814
C115	C	1.793986	-0.890323	-0.230861
C116	C	1.748458	-0.814998	-0.148319
C117	C	1.822371	-0.754653	-0.074451
C118	C	1.941812	-0.769633	-0.083124
C119	C	1.987346	-0.844961	-0.165669
C120	C	1.913433	-0.905306	-0.239537
H121	H	1.660036	-0.803906	-0.141896
H122	H	1.788663	-0.698890	-0.013345
H123	H	1.996526	-0.724962	-0.028442
H124	H	2.075768	-0.856053	-0.172093
H125	H	1.947141	-0.961068	-0.300643
H126	H	1.653010	-1.204592	-0.371950
H127	H	1.384124	-1.204578	-0.640507
