data_functionalizedCrystal
_audit_creation_method	'MofGen! by Chris Wilmer'
_symmetry_space_group_name_H-M	'P1'
_symmetry_Int_Tables_number	1
_symmetry_cell_setting	triclinic
loop_
_symmetry_equiv_pos_as_xyz
  x,y,z
_cell_length_a	12.645330
_cell_length_b	16.625548
_cell_length_c	16.625539
_cell_angle_alpha	90.020568
_cell_angle_beta	90.025033
_cell_angle_gamma	90.013453
loop_
_atom_site_label
_atom_site_type_symbol
_atom_site_fract_x
_atom_site_fract_y
_atom_site_fract_z
Zn1	Zn	-0.422007	1.232737	0.455928
Zn2	Zn	-0.172007	1.482737	0.705928
Zn3	Zn	0.077993	1.732737	0.955928
Zn4	Zn	0.327993	1.982737	1.205928
Zn5	Zn	-0.599293	1.232664	0.321103
Zn6	Zn	-0.349293	1.482664	0.571103
Zn7	Zn	-0.099293	1.732664	0.821103
Zn8	Zn	0.150707	1.982664	1.071103
Zn9	Zn	-0.422048	1.097899	0.321108
Zn10	Zn	-0.172048	1.347899	0.571108
Zn11	Zn	0.077952	1.597899	0.821108
Zn12	Zn	0.327952	1.847899	1.071108
Zn13	Zn	-0.599232	1.097893	0.455892
Zn14	Zn	-0.349232	1.347893	0.705892
Zn15	Zn	-0.099232	1.597893	0.955892
Zn16	Zn	0.150768	1.847893	1.205892
O17	O	-0.510645	1.165298	0.388508
O18	O	-0.260645	1.415298	0.638508
O19	O	-0.010645	1.665298	0.888508
O20	O	0.239355	1.915298	1.138508
O21	O	-0.445533	1.345560	0.438055
O22	O	-0.195533	1.595560	0.688055
O23	O	0.054467	1.845560	0.938055
O24	O	0.304467	2.095560	1.188055
O25	O	-0.575824	1.214759	0.208271
O26	O	-0.325824	1.464759	0.458271
O27	O	-0.075824	1.714759	0.708271
O28	O	0.174176	1.964759	0.958271
O29	O	-0.273695	1.115818	0.339009
O30	O	-0.023695	1.365818	0.589009
O31	O	0.226305	1.615818	0.839009
O32	O	0.476305	1.865818	1.089009
O33	O	-0.575784	1.345506	0.339000
O34	O	-0.325784	1.595506	0.589000
O35	O	-0.075784	1.845506	0.839000
O36	O	0.174216	2.095506	1.089000
O37	O	-0.273665	1.214883	0.438061
O38	O	-0.023665	1.464883	0.688061
O39	O	0.226335	1.714883	0.938061
O40	O	0.476335	1.964883	1.188061
O41	O	-0.445602	1.115748	0.208275
O42	O	-0.195602	1.365748	0.458275
O43	O	0.054398	1.615748	0.708275
O44	O	0.304398	1.865748	0.958275
O45	O	-0.445543	0.985066	0.338975
O46	O	-0.195543	1.235066	0.588975
O47	O	0.054457	1.485066	0.838975
O48	O	0.304457	1.735066	1.088975
O49	O	-0.575681	1.115808	0.568730
O50	O	-0.325681	1.365808	0.818730
O51	O	-0.075681	1.615808	1.068730
O52	O	0.174319	1.865808	1.318730
O53	O	-0.575720	0.985061	0.438001
O54	O	-0.325720	1.235061	0.688001
O55	O	-0.075720	1.485061	0.938001
O56	O	0.174280	1.735061	1.188001
O57	O	-0.445474	1.214878	0.568755
O58	O	-0.195474	1.464878	0.818755
O59	O	0.054526	1.714878	1.068755
O60	O	0.304526	1.964878	1.318755
O61	O	-0.747632	1.214753	0.338966
O62	O	-0.497632	1.464753	0.588966
O63	O	-0.247632	1.714753	0.838966
O64	O	0.002368	1.964753	1.088966
O65	O	-0.747588	1.115738	0.437995
O66	O	-0.497588	1.365738	0.687995
O67	O	-0.247588	1.615738	0.937995
O68	O	0.002412	1.865738	1.187995
C69	C	-0.510630	0.955807	0.388485
C70	C	-0.260630	1.205807	0.638485
C71	C	-0.010630	1.455807	0.888485
C72	C	0.239370	1.705807	1.138485
C73	C	-0.510649	0.866186	0.388495
C74	C	-0.260649	1.116186	0.638495
C75	C	-0.010649	1.366186	0.888495
C76	C	0.239351	1.616186	1.138495
C77	C	-0.510656	0.538011	0.388529
C78	C	-0.260656	0.788011	0.638529
C79	C	-0.010656	1.038011	0.888529
C80	C	0.239344	1.288011	1.138529
C81	C	-0.510651	0.629319	0.388517
C82	C	-0.260651	0.879319	0.638517
C83	C	-0.010651	1.129319	0.888517
C84	C	0.239349	1.379319	1.138517
C85	C	-0.510653	0.702095	0.388511
C86	C	-0.260653	0.952095	0.638511
C87	C	-0.010653	1.202095	0.888511
C88	C	0.239347	1.452095	1.138511
C89	C	-0.510647	0.793410	0.388500
C90	C	-0.260647	1.043410	0.638500
C91	C	-0.010647	1.293410	0.888500
C92	C	0.239353	1.543410	1.138500
C93	C	-0.786075	1.165259	0.388494
C94	C	-0.536075	1.415259	0.638494
C95	C	-0.286075	1.665259	0.888494
C96	C	-0.036075	1.915259	1.138494
C97	C	-0.903905	1.165316	0.388515
C98	C	-0.653905	1.415316	0.638515
C99	C	-0.403905	1.665316	0.888515
C100	C	-0.153905	1.915316	1.138515
C101	C	-0.948770	1.227678	0.326269
C102	C	-0.698770	1.477678	0.576269
C103	C	-0.448770	1.727678	0.826269
C104	C	-0.198770	1.977678	1.076269
C105	C	-1.071331	1.227534	0.326047
C106	C	-0.821331	1.477534	0.576047
C107	C	-0.571331	1.727534	0.826047
C108	C	-0.321331	1.977534	1.076047
C109	C	-1.071913	1.080345	0.365681
C110	C	-0.821913	1.330345	0.615681
C111	C	-0.571913	1.580345	0.865681
C112	C	-0.321913	1.830345	1.115681
C113	C	-0.949315	1.080666	0.365207
C114	C	-0.699315	1.330666	0.615207
C115	C	-0.449315	1.580666	0.865207
C116	C	-0.199315	1.830666	1.115207
C117	C	-0.948986	1.187266	0.473797
C118	C	-0.698986	1.437266	0.723797
C119	C	-0.448986	1.687266	0.973797
C120	C	-0.198986	1.937266	1.223797
C121	C	-1.071590	1.189181	0.473365
C122	C	-0.821590	1.439181	0.723365
C123	C	-0.571590	1.689181	0.973365
C124	C	-0.321590	1.939181	1.223365
C125	C	-0.234140	1.165360	0.388540
C126	C	0.015860	1.415360	0.638540
C127	C	0.265860	1.665360	0.888540
C128	C	0.515860	1.915360	1.138540
C129	C	-0.116310	1.165386	0.388553
C130	C	0.133690	1.415386	0.638553
C131	C	0.383690	1.665386	0.888553
C132	C	0.633690	1.915386	1.138553
C133	C	-0.510566	1.165351	0.598817
C134	C	-0.260566	1.415351	0.848817
C135	C	-0.010566	1.665351	1.098817
C136	C	0.239434	1.915351	1.348817
C137	C	-0.510532	1.165373	0.688438
C138	C	-0.260532	1.415373	0.938438
C139	C	-0.010532	1.665373	1.188438
C140	C	0.239468	1.915373	1.438438
C141	C	-0.510661	1.375607	0.388531
C142	C	-0.260661	1.625607	0.638531
C143	C	-0.010661	1.875607	0.888531
C144	C	0.239339	2.125607	1.138531
C145	C	-0.510668	1.465228	0.388541
C146	C	-0.260668	1.715228	0.638541
C147	C	-0.010668	1.965228	0.888541
C148	C	0.239332	2.215228	1.138541
C149	C	-0.510647	1.165292	0.179017
C150	C	-0.260647	1.415292	0.429017
C151	C	-0.010647	1.665292	0.679017
C152	C	0.239353	1.915292	0.929017
C153	C	-0.510382	1.165426	0.089396
C154	C	-0.260382	1.415426	0.339396
C155	C	-0.010382	1.665426	0.589396
C156	C	0.239618	1.915426	0.839396
C157	C	-0.510414	1.165410	1.016614
C158	C	-0.260414	1.415410	1.266614
C159	C	-0.010414	1.665410	1.516614
C160	C	0.239586	1.915410	1.766614
C161	C	-0.510450	1.165397	0.925305
C162	C	-0.260450	1.415397	1.175305
C163	C	-0.010450	1.665397	1.425305
C164	C	0.239550	1.915397	1.675305
C165	C	-0.510474	1.165392	0.852529
C166	C	-0.260474	1.415392	1.102529
C167	C	-0.010474	1.665392	1.352529
C168	C	0.239526	1.915392	1.602529
C169	C	-0.510509	1.165378	0.761214
C170	C	-0.260509	1.415378	1.011214
C171	C	-0.010509	1.665378	1.261214
C172	C	0.239491	1.915378	1.511214
H173	H	-1.101344	1.290586	0.340333
H174	H	-0.851344	1.540586	0.590333
H175	H	-0.601344	1.790586	0.840333
H176	H	-0.351344	2.040586	1.090333
H177	H	-0.919639	1.032608	0.408585
H178	H	-0.669639	1.282608	0.658585
H179	H	-0.419639	1.532608	0.908585
H180	H	-0.169639	1.782608	1.158585
H181	H	-1.101050	1.032634	0.409636
H182	H	-0.851050	1.282634	0.659636
H183	H	-0.601050	1.532634	0.909636
H184	H	-0.351050	1.782634	1.159636
H185	H	-0.918033	1.213311	0.263439
H186	H	-0.668033	1.463311	0.513439
H187	H	-0.418033	1.713311	0.763439
H188	H	-0.168033	1.963311	1.013439
H189	H	-0.919964	1.141851	0.520173
H190	H	-0.669964	1.391851	0.770173
H191	H	-0.419964	1.641851	1.020173
H192	H	-0.169964	1.891851	1.270173
H193	H	-0.917985	1.248200	0.494640
H194	H	-0.667985	1.498200	0.744640
H195	H	-0.417985	1.748200	0.994640
H196	H	-0.167985	1.998200	1.244640
H197	H	-1.100736	1.213008	0.262868
H198	H	-0.850736	1.463008	0.512868
H199	H	-0.600736	1.713008	0.762868
H200	H	-0.350736	1.963008	1.012868
H201	H	-0.919224	1.290907	0.340386
H202	H	-0.669224	1.540907	0.590386
H203	H	-0.419224	1.790907	0.840386
H204	H	-0.169224	2.040907	1.090386
H205	H	-0.920800	1.062093	0.302874
H206	H	-0.670800	1.312093	0.552874
H207	H	-0.420800	1.562093	0.802874
H208	H	-0.170800	1.812093	1.052874
H209	H	-1.102698	1.061471	0.304044
H210	H	-0.852698	1.311471	0.554044
H211	H	-0.602698	1.561471	0.804044
H212	H	-0.352698	1.811471	1.054044
H213	H	-1.100599	1.251764	0.490614
H214	H	-0.850599	1.501764	0.740614
H215	H	-0.600599	1.751764	0.990614
H216	H	-0.350599	2.001764	1.240614
H217	H	-1.102202	1.147112	0.522221
H218	H	-0.852202	1.397112	0.772221
H219	H	-0.602202	1.647112	1.022221
H220	H	-0.352202	1.897112	1.272221
