data_functionalizedCrystal
_audit_creation_method	'MofGen! by Chris Wilmer'
_symmetry_space_group_name_H-M	'P1'
_symmetry_Int_Tables_number	1
_symmetry_cell_setting	triclinic
loop_
_symmetry_equiv_pos_as_xyz
  x,y,z
_cell_length_a	17.699097
_cell_length_b	16.776229
_cell_length_c	17.699083
_cell_angle_alpha	90.007545
_cell_angle_beta	96.714293
_cell_angle_gamma	89.988580
loop_
_atom_site_label
_atom_site_type_symbol
_atom_site_fract_x
_atom_site_fract_y
_atom_site_fract_z
O1	O	-1.004072	0.066369	0.095761
O2	O	-0.670739	0.399702	0.429094
O3	O	-0.337406	0.733035	0.762427
O4	O	-0.783695	0.066353	0.108203
O5	O	-0.450362	0.399686	0.441536
O6	O	-0.117029	0.733020	0.774869
O7	O	-0.900110	0.066354	-0.008207
O8	O	-0.566777	0.399688	0.325126
O9	O	-0.233443	0.733021	0.658459
O10	O	-0.887658	0.066367	0.212170
O11	O	-0.554324	0.399701	0.545504
O12	O	-0.220991	0.733034	0.878837
O13	O	-0.900094	-0.066222	-0.008215
O14	O	-0.566761	0.267111	0.325119
O15	O	-0.233428	0.600444	0.658452
O16	O	-0.783680	-0.066223	0.108195
O17	O	-0.450346	0.267110	0.441529
O18	O	-0.117013	0.600443	0.774862
O19	O	-1.004057	-0.066208	0.095753
O20	O	-0.670723	0.267125	0.429087
O21	O	-0.337390	0.600459	0.762420
Zn22	Zn	-0.893866	-0.087265	0.101973
Zn23	Zn	-0.560533	0.246068	0.435307
Zn24	Zn	-0.227199	0.579402	0.768640
Zn25	Zn	-0.893886	0.087410	0.101983
Zn26	Zn	-0.560553	0.420744	0.435316
Zn27	Zn	-0.227219	0.754077	0.768649
O28	O	-0.887642	-0.066209	0.212163
O29	O	-0.554309	0.267124	0.545497
O30	O	-0.220975	0.600458	0.878830
C31	C	-0.755491	0.000063	0.107751
C32	C	-0.422157	0.333396	0.441085
C33	C	-0.088824	0.666729	0.774418
C34	C	-0.671473	0.000057	0.106409
C35	C	-0.338140	0.333390	0.439742
C36	C	-0.004806	0.666723	0.773076
N37	N	-0.893858	-0.206476	0.101966
N38	N	-0.560524	0.126857	0.435300
N39	N	-0.227191	0.460190	0.768633
C40	C	-0.155763	0.072349	0.098184
C41	C	0.177570	0.405683	0.431517
C42	C	0.510903	0.739016	0.764850
C43	C	-0.234707	0.072346	0.099440
C44	C	0.098626	0.405680	0.432773
C45	C	0.431959	0.739013	0.766106
C46	C	-0.274165	0.000076	0.100065
C47	C	0.059168	0.333410	0.433399
C48	C	0.392502	0.666743	0.766732
C49	C	-0.234675	-0.072196	0.099427
C50	C	0.098658	0.261138	0.432760
C51	C	0.431991	0.594471	0.766093
C52	C	-0.155733	-0.072192	0.098165
C53	C	0.177600	0.261141	0.431498
C54	C	0.510933	0.594475	0.764832
C55	C	-0.553039	-0.072212	0.104514
C56	C	-0.219706	0.261121	0.437847
C57	C	0.113627	0.594454	0.771181
C58	C	-0.631987	-0.072211	0.105778
C59	C	-0.298653	0.261123	0.439111
C60	C	0.034680	0.594456	0.772445
C61	C	-0.632013	0.072326	0.105789
C62	C	-0.298680	0.405659	0.439122
C63	C	0.034653	0.738993	0.772455
C64	C	-0.553071	0.072330	0.104527
C65	C	-0.219738	0.405663	0.437860
C66	C	0.113595	0.738996	0.771194
C67	C	-0.513589	0.000058	0.103885
C68	C	-0.180256	0.333392	0.437218
C69	C	0.153077	0.666725	0.770551
C70	C	-0.427989	0.000062	0.102521
C71	C	-0.094656	0.333396	0.435854
C72	C	0.238677	0.666729	0.769188
C73	C	-0.359763	0.000071	0.101434
C74	C	-0.026429	0.333405	0.434768
C75	C	0.306904	0.666738	0.768101
C76	C	-0.945422	-0.248193	0.050441
C77	C	-0.612088	0.085140	0.383775
C78	C	-0.278755	0.418474	0.717108
C79	C	-0.945426	-0.331645	0.050441
C80	C	-0.612092	0.001688	0.383774
C81	C	-0.278759	0.335022	0.717107
C82	C	-0.893869	-0.373379	0.101969
C83	C	-0.560536	-0.040046	0.435303
C84	C	-0.227202	0.293287	0.768636
C85	C	-0.842299	-0.331657	0.153497
C86	C	-0.508966	0.001677	0.486830
C87	C	-0.175633	0.335010	0.820164
C88	C	-0.842292	-0.248206	0.153493
C89	C	-0.508959	0.085127	0.486827
C90	C	-0.175625	0.418461	0.820160
C91	C	-0.842327	-0.668204	0.153512
C92	C	-0.508993	-0.334871	0.486845
C93	C	-0.175660	-0.001537	0.820179
C94	C	-0.842339	-0.751660	0.153513
C95	C	-0.509006	-0.418327	0.486846
C96	C	-0.175673	-0.084994	0.820180
C97	C	-0.945460	-0.751643	0.050459
C98	C	-0.612127	-0.418310	0.383792
C99	C	-0.278794	-0.084976	0.717126
C100	C	-0.945453	-0.668192	0.050455
C101	C	-0.612120	-0.334859	0.383789
C102	C	-0.278786	-0.001526	0.717122
C103	C	-0.893881	-0.626477	0.101980
C104	C	-0.560548	-0.293144	0.435313
C105	C	-0.227215	0.040190	0.768647
C106	C	-0.893876	-0.535989	0.101979
C107	C	-0.560543	-0.202655	0.435312
C108	C	-0.227210	0.130678	0.768646
C109	C	-0.893877	-0.463866	0.101974
C110	C	-0.560544	-0.130533	0.435308
C111	C	-0.227210	0.202801	0.768641
C112	C	-0.032261	0.000081	0.096205
C113	C	0.301072	0.333414	0.429538
C114	C	0.634405	0.666748	0.762871
C115	C	-0.116279	0.000083	0.097547
C116	C	0.217054	0.333416	0.430881
C117	C	0.550388	0.666750	0.764214
C118	C	-0.899656	0.000066	-0.036408
C119	C	-0.566323	0.333399	0.296925
C120	C	-0.232989	0.666733	0.630259
C121	C	-0.898317	0.000065	-0.120426
C122	C	-0.564984	0.333399	0.212907
C123	C	-0.231651	0.666732	0.546241
N124	N	-0.893900	0.206621	0.101984
N125	N	-0.560567	0.539955	0.435317
N126	N	-0.227234	0.873288	0.768650
C127	C	-0.966650	0.000069	-0.169044
C128	C	-0.633317	0.333402	0.164290
C129	C	-0.299984	0.666736	0.497623
C130	C	-0.965388	0.000076	-0.247987
C131	C	-0.632055	0.333409	0.085346
C132	C	-0.298721	0.666743	0.418679
C133	C	-0.895792	0.000074	-0.278311
C134	C	-0.562459	0.333407	0.055022
C135	C	-0.229125	0.666740	0.388355
C136	C	-0.827454	0.000072	-0.229687
C137	C	-0.494121	0.333406	0.103646
C138	C	-0.160787	0.666739	0.436979
C139	C	-0.828717	0.000071	-0.150746
C140	C	-0.495384	0.333404	0.182588
C141	C	-0.162050	0.666738	0.515921
C142	C	-0.822359	0.000078	-0.548051
C143	C	-0.489025	0.333412	-0.214717
C144	C	-0.155692	0.666745	0.118616
C145	C	-0.821101	0.000077	-0.626999
C146	C	-0.487767	0.333411	-0.293665
C147	C	-0.154434	0.666744	0.039668
C148	C	-0.959030	0.000083	-0.645292
C149	C	-0.625696	0.333417	-0.311959
C150	C	-0.292363	0.666750	0.021374
C151	C	-0.960293	0.000082	-0.566350
C152	C	-0.626960	0.333416	-0.233017
C153	C	-0.293626	0.666749	0.100316
C154	C	-0.891955	0.000085	-0.517734
C155	C	-0.558622	0.333418	-0.184400
C156	C	-0.225288	0.666752	0.148933
C157	C	-0.893325	0.000079	-0.432134
C158	C	-0.559991	0.333412	-0.098801
C159	C	-0.226658	0.666746	0.234532
C160	C	-0.894422	0.000074	-0.363909
C161	C	-0.561088	0.333407	-0.030576
C162	C	-0.227755	0.666741	0.302758
C163	C	-0.888096	0.000081	0.240364
C164	C	-0.554763	0.333414	0.573697
C165	C	-0.221429	0.666748	0.907031
C166	C	-0.889435	0.000087	0.324382
C167	C	-0.556101	0.333420	0.657715
C168	C	-0.222768	0.666753	0.991049
H169	H	-0.123642	0.131200	0.097680
H170	H	0.209691	0.464534	0.431013
H171	H	0.543025	0.797867	0.764346
H172	H	-0.800353	-0.785639	0.195475
H173	H	-0.467019	-0.452306	0.528809
H174	H	-0.133686	-0.118972	0.862142
H175	H	-0.770787	0.000075	-0.254383
H176	H	-0.437454	0.333409	0.078950
H177	H	-0.104121	0.666742	0.412283
Br178	Br	-1.051776	0.000080	-0.711277
Br179	Br	-0.718443	0.333413	-0.377944
Br180	Br	-0.385110	0.666747	-0.044610
H181	H	-0.764424	0.000074	-0.651685
H182	H	-0.431091	0.333407	-0.318352
H183	H	-0.097757	0.666740	0.014982
Br184	Br	-0.499464	-0.170295	0.103662
Br185	Br	-0.166130	0.163038	0.436996
Br186	Br	0.167203	0.496371	0.770329
Br187	Br	-0.288224	-0.170278	0.100272
Br188	Br	0.045109	0.163055	0.433605
Br189	Br	0.378442	0.496388	0.766938
Br190	Br	-0.735976	0.000073	-0.084763
Br191	Br	-0.402642	0.333406	0.248571
Br192	Br	-0.069309	0.666739	0.581904
Br193	Br	-0.102148	-0.170272	0.097291
Br194	Br	0.231186	0.163062	0.430624
Br195	Br	0.564519	0.496395	0.763958
H196	H	-0.664111	-0.131065	0.106287
H197	H	-0.330777	0.202268	0.439621
H198	H	0.002556	0.535601	0.772954
H199	H	-0.664170	0.131173	0.106309
H200	H	-0.330836	0.464506	0.439642
H201	H	0.002497	0.797840	0.772976
H202	H	-0.987408	-0.214218	0.008484
H203	H	-0.654075	0.119115	0.341817
H204	H	-0.320742	0.452448	0.675150
Br205	Br	-0.772322	-0.388293	0.223425
Br206	Br	-0.438988	-0.054959	0.556759
Br207	Br	-0.105655	0.278374	0.890092
H208	H	-1.021032	0.000077	-0.287569
H209	H	-0.687698	0.333411	0.045764
H210	H	-0.354365	0.666744	0.379097
H211	H	-0.266853	0.131193	0.099953
H212	H	0.066481	0.464526	0.433287
H213	H	0.399814	0.797860	0.766620
Br214	Br	-1.015404	-0.388263	-0.019490
Br215	Br	-0.682070	-0.054930	0.313843
Br216	Br	-0.348737	0.278403	0.647177
Br217	Br	-0.772304	-0.191591	0.223419
Br218	Br	-0.438971	0.141743	0.556752
Br219	Br	-0.105638	0.475076	0.890085
Br220	Br	-0.499525	0.170414	0.103684
Br221	Br	-0.166192	0.503747	0.437018
Br222	Br	0.167142	0.837081	0.770351
H223	H	-0.987438	-0.634215	0.008498
H224	H	-0.654105	-0.300882	0.341832
H225	H	-0.320771	0.032452	0.675165
Br226	Br	-0.729614	0.000088	-0.482080
Br227	Br	-0.396281	0.333421	-0.148747
Br228	Br	-0.062948	0.666754	0.184586
Br229	Br	-1.015452	-0.808260	-0.019470
Br230	Br	-0.682118	-0.474927	0.313863
Br231	Br	-0.348785	-0.141593	0.647196
H232	H	-1.023324	0.000066	-0.144361
H233	H	-0.689990	0.333400	0.188973
H234	H	-0.356657	0.666733	0.522306
H235	H	-0.800337	-0.634246	0.195466
H236	H	-0.467003	-0.300913	0.528800
H237	H	-0.133670	0.032421	0.862133
Br238	Br	-1.054748	0.000086	-0.525201
Br239	Br	-0.721414	0.333419	-0.191867
Br240	Br	-0.388081	0.666753	0.141466
