data_functionalizedCrystal
_audit_creation_method	'MofGen! by Chris Wilmer'
_symmetry_space_group_name_H-M	'P1'
_symmetry_Int_Tables_number	1
_symmetry_cell_setting	triclinic
loop_
_symmetry_equiv_pos_as_xyz
  x,y,z
_cell_length_a	19.288864
_cell_length_b	17.766277
_cell_length_c	19.288874
_cell_angle_alpha	89.993108
_cell_angle_beta	83.138236
_cell_angle_gamma	89.976791
loop_
_atom_site_label
_atom_site_type_symbol
_atom_site_fract_x
_atom_site_fract_y
_atom_site_fract_z
O1	O	0.921356	-0.062836	0.086648
O2	O	0.719096	-0.062785	0.098337
O3	O	0.826067	-0.062806	-0.008637
O4	O	0.814385	-0.062815	0.193623
O5	O	0.826048	0.062382	-0.008643
O6	O	0.719077	0.062403	0.098332
O7	O	0.921337	0.062352	0.086643
Cu8	Cu	0.820206	0.073808	0.092487
Cu9	Cu	0.820228	-0.074241	0.092493
O10	O	0.814366	0.062373	0.193617
C11	C	0.693210	-0.000184	0.097958
C12	C	0.616106	-0.000164	0.096829
N13	N	0.820195	0.177939	0.092482
N14	N	0.820244	-0.178372	0.092493
C15	C	0.571412	-0.000179	0.159597
C16	C	0.498965	-0.000187	0.158536
C17	C	0.471215	-0.000196	0.094704
C18	C	0.515919	-0.000177	0.031928
C19	C	0.588365	-0.000161	0.032991
C20	C	0.362958	-0.044078	0.044527
C21	C	0.290514	-0.044099	0.043467
C22	C	0.247770	-0.000241	0.091425
C23	C	0.277478	0.043626	0.140454
C24	C	0.349923	0.043642	0.141516
C25	C	0.392661	-0.000213	0.093545
C26	C	0.124520	-0.000264	0.153046
C27	C	0.052072	-0.000268	0.151983
C28	C	0.069027	-0.000265	0.025374
C29	C	0.141474	-0.000254	0.026439
C30	C	0.169215	-0.000257	0.090277
C31	C	0.947223	-0.000250	0.087022
C32	C	1.024327	-0.000275	0.088151
C33	C	0.825680	-0.000212	-0.034516
C34	C	0.824549	-0.000212	-0.111619
C35	C	0.867577	0.217316	0.045137
C36	C	0.867581	0.296118	0.045134
C37	C	0.820210	0.335539	0.092487
C38	C	0.772819	0.296152	0.139836
C39	C	0.772811	0.217352	0.139833
C40	C	0.810913	0.460376	0.155775
C41	C	0.810925	0.539175	0.155778
C42	C	0.820228	0.578586	0.092496
C43	C	0.829534	0.539188	0.029207
C44	C	0.829526	0.460388	0.029204
C45	C	0.820212	0.420985	0.092495
C46	C	0.867617	0.703409	0.045143
C47	C	0.867616	0.782212	0.045139
C48	C	0.772857	0.782245	0.139848
C49	C	0.772855	0.703443	0.139846
C50	C	0.820238	0.664030	0.092494
C51	C	0.816413	0.068012	-0.667192
C52	C	0.817469	0.068016	-0.594744
C53	C	0.818010	-0.000224	-0.558510
C54	C	0.817478	-0.068472	-0.594727
C55	C	0.816415	-0.068474	-0.667172
C56	C	0.860383	-0.052513	-0.449176
C57	C	0.861450	-0.052509	-0.376733
C58	C	0.821285	-0.000221	-0.335064
C59	C	0.780061	0.052075	-0.365848
C60	C	0.778999	0.052073	-0.438294
C61	C	0.819162	-0.000229	-0.479955
C62	C	0.822957	0.068027	-0.220298
C63	C	0.824009	0.068028	-0.147849
C64	C	0.824025	-0.068462	-0.147834
C65	C	0.822966	-0.068461	-0.220281
C66	C	0.822436	-0.000214	-0.256510
C67	C	0.814753	-0.000223	0.219496
C68	C	0.815884	-0.000228	0.296599
H69	H	0.593994	-0.000183	0.211579
H70	H	0.397755	-0.079797	0.005473
O71	O	0.818062	-0.142076	-0.555653
H72	H	0.818897	-0.130611	-0.499194
H73	H	0.462568	-0.000197	0.209651
O74	O	0.381973	0.090984	0.194366
H75	H	0.340086	0.121494	0.227528
O76	O	0.721758	0.660964	0.190919
H77	H	0.688821	0.701612	0.223852
O78	O	0.154444	-0.000252	0.221899
H79	H	0.187065	-0.051274	0.225422
H80	H	0.815980	0.123584	-0.696684
H81	H	0.906158	0.185228	0.006579
H82	H	0.803353	0.571246	0.207312
H83	H	0.824437	0.123599	-0.118368
H84	H	0.815984	-0.124045	-0.696653
H85	H	0.745434	0.094654	-0.463355
H86	H	0.242677	0.079340	0.179505
H87	H	0.906166	0.328185	0.006578
O88	O	0.636578	-0.000145	-0.034711
H89	H	0.626771	-0.051173	-0.065268
H90	H	0.803325	0.428294	0.207310
H91	H	0.906198	0.814274	0.006581
H92	H	0.015682	-0.000275	0.203098
H93	H	0.734284	0.814341	0.178401
O94	O	0.736733	0.108479	-0.320921
H95	H	0.699007	0.078197	-0.282802
O96	O	0.039110	-0.000275	-0.043477
H97	H	-0.018776	-0.000292	-0.033672
O98	O	0.824609	-0.142067	-0.108765
H99	H	0.825440	-0.130603	-0.052306
O100	O	0.189687	-0.000245	-0.041261
H101	H	0.158222	-0.000257	-0.085827
H102	H	0.266331	-0.079822	0.003548
H103	H	0.493321	-0.000195	-0.020044
H104	H	0.817886	0.123586	-0.565255
O105	O	0.822372	0.141631	-0.259380
H106	H	0.822904	0.189084	-0.222025
O107	O	0.839550	0.417891	-0.039051
H108	H	0.846015	0.458528	-0.083059
O109	O	0.839563	0.581681	-0.039057
H110	H	0.837995	0.643094	-0.028426
O111	O	0.918711	0.660890	-0.005933
H112	H	0.951652	0.701514	-0.038866
O113	O	0.822381	-0.142062	-0.259341
H114	H	0.822931	-0.189514	-0.221976
H115	H	0.734247	0.328253	0.178391
O116	O	0.905903	-0.108915	-0.343529
H117	H	0.933641	-0.145286	-0.384671
H118	H	0.734227	0.185290	0.178388
O119	O	0.903710	-0.108910	-0.494119
H120	H	0.932562	-0.145263	-0.460545
