data_functionalizedCrystal
_audit_creation_method	'MofGen! by Chris Wilmer'
_symmetry_space_group_name_H-M	'P1'
_symmetry_Int_Tables_number	1
_symmetry_cell_setting	triclinic
loop_
_symmetry_equiv_pos_as_xyz
  x,y,z
_cell_length_a	14.971506
_cell_length_b	12.376457
_cell_length_c	14.971486
_cell_angle_alpha	78.710113
_cell_angle_beta	83.618258
_cell_angle_gamma	101.308044
loop_
_atom_site_label
_atom_site_type_symbol
_atom_site_fract_x
_atom_site_fract_y
_atom_site_fract_z
O1	O	1.204070	0.094013	0.099522
O2	O	0.943673	0.094014	0.113462
O3	O	1.080849	0.094006	-0.023706
O4	O	1.066893	0.094022	0.236690
O5	O	1.046567	-0.094004	0.010540
O6	O	0.909391	-0.093996	0.147708
O7	O	1.169788	-0.093997	0.133768
Zn8	Zn	1.034146	-0.123847	0.146175
Zn9	Zn	1.079314	0.123864	0.101055
O10	O	1.032611	-0.093988	0.270936
C11	C	0.893207	0.000009	0.129958
C12	C	0.793911	0.000009	0.128080
C13	C	0.355631	0.000025	0.201495
C14	C	0.448933	0.000030	0.203252
C15	C	0.506151	0.000020	0.122662
C16	C	0.470065	0.000017	0.040307
C17	C	0.376767	0.000020	0.038550
C18	C	0.664527	0.000007	0.043975
C19	C	0.757831	0.000002	0.045733
C20	C	0.736692	0.000018	0.208678
C21	C	0.643394	0.000021	0.206921
C22	C	0.607315	0.000015	0.124566
N23	N	1.003327	-0.292903	0.176967
C24	C	1.181683	-0.647899	-0.001241
C25	C	1.203248	-0.529561	-0.022793
C26	C	1.153269	-0.470391	0.027145
C27	C	1.081722	-0.529571	0.098639
C28	C	1.060159	-0.647921	0.120198
C29	C	1.031746	-0.470412	0.148584
C30	C	0.960198	-0.529592	0.220078
C31	C	0.938638	-0.647930	0.241632
C32	C	0.988617	-0.707101	0.191694
C33	C	1.053309	-0.352062	0.127025
C34	C	0.931785	-0.352083	0.248464
C35	C	0.910220	-0.470422	0.270016
C36	C	1.220254	0.000011	0.117271
C37	C	1.319551	0.000018	0.119148
C38	C	1.063084	0.000001	-0.039908
C39	C	1.061213	0.000002	-0.139205
N40	N	1.110141	0.292921	0.070256
C41	C	1.141802	0.000001	-0.196425
C42	C	1.140041	0.000012	-0.289726
C43	C	1.057689	0.000017	-0.325805
C44	C	0.977095	0.000021	-0.268579
C45	C	0.978859	0.000018	-0.175281
C46	C	0.973425	0.000025	-0.463043
C47	C	0.971661	0.000026	-0.556347
C48	C	1.134607	0.000020	-0.577488
C49	C	1.136370	0.000017	-0.484190
C50	C	1.055776	0.000019	-0.426970
C51	C	1.050377	0.000019	0.287137
C52	C	1.052249	0.000025	0.386434
H53	H	0.309048	0.000025	0.267124
H54	H	0.596807	0.000022	0.272546
Cl55	Cl	1.293188	-0.455166	-0.112665
H56	H	0.913235	0.000019	-0.128693
Cl57	Cl	1.143250	-0.277679	0.037150
Cl58	Cl	1.180379	-0.321620	0.000048
H59	H	0.851964	-0.518621	0.328228
Cl60	Cl	1.245334	-0.000016	-0.151076
H61	H	1.200231	0.000021	-0.624082
Cl62	Cl	1.244513	-0.722285	-0.064005
Cl63	Cl	0.619171	-0.000008	-0.059556
H64	H	1.205664	0.000009	-0.336311
H65	H	0.891089	-0.303908	0.289130
H66	H	0.478306	0.000046	0.270306
Cl67	Cl	0.961501	-0.855876	0.218786
H68	H	1.203427	0.000005	-0.454816
Cl69	Cl	0.541998	0.000007	-0.061008
H70	H	0.904600	0.000012	-0.585716
Cl71	Cl	0.331410	0.000011	-0.064977
Cl72	Cl	0.848704	-0.722330	0.331520
H73	H	0.910044	0.000032	-0.297963
Cl74	Cl	0.782045	0.000013	0.312211
Cl75	Cl	0.829763	-0.000001	-0.055584
Cl76	Cl	0.872104	0.000029	-0.391110
