data_functionalizedCrystal
_audit_creation_method	'MofGen! by Chris Wilmer'
_symmetry_space_group_name_H-M	'P1'
_symmetry_Int_Tables_number	1
_symmetry_cell_setting	triclinic
loop_
_symmetry_equiv_pos_as_xyz
  x,y,z
_cell_length_a	15.297327
_cell_length_b	12.759393
_cell_length_c	12.759401
_cell_angle_alpha	90.020938
_cell_angle_beta	99.708126
_cell_angle_gamma	80.357027
loop_
_atom_site_label
_atom_site_type_symbol
_atom_site_fract_x
_atom_site_fract_y
_atom_site_fract_z
Zn1	Zn	-0.359082	0.666329	1.533815
Zn2	Zn	-0.509967	0.521034	1.503263
Zn3	Zn	-0.359130	0.490674	1.358104
Zn4	Zn	-0.509904	0.696658	1.327675
O5	O	-0.434521	0.593674	1.430714
O6	O	-0.379103	0.647069	1.676782
O7	O	-0.490005	0.369995	1.483956
O8	O	-0.232878	0.488577	1.406934
O9	O	-0.489958	0.540320	1.654335
O10	O	-0.232842	0.617630	1.536028
O11	O	-0.379185	0.347690	1.377308
O12	O	-0.379124	0.517986	1.207048
O13	O	-0.489851	0.839647	1.355072
O14	O	-0.489898	0.669321	1.184692
O15	O	-0.379042	0.817364	1.506522
O16	O	-0.636205	0.569729	1.454449
O17	O	-0.636159	0.698760	1.325446
C18	C	-0.668916	0.640853	1.383359
C19	C	-0.769191	0.661071	1.363196
C20	C	-0.434510	0.593651	1.157749
C21	C	-0.434527	0.593670	1.040969
C22	C	-0.434434	0.867690	1.430810
C23	C	-0.434397	0.984459	1.430851
C24	C	-1.051821	0.449528	1.575254
C25	C	-0.957608	0.430526	1.594198
C26	C	-0.910499	0.488161	1.536449
C27	C	-0.957613	0.564800	1.459753
C28	C	-1.051836	0.583798	1.440802
C29	C	-0.910513	0.622431	1.401997
C30	C	-0.957627	0.699071	1.325301
C31	C	-1.051841	0.718065	1.306354
C32	C	-1.098950	0.660430	1.364103
C33	C	-0.816291	0.603434	1.420948
C34	C	-0.816305	0.737704	1.286496
C35	C	-0.910519	0.756705	1.267553
C36	C	-0.199211	0.546334	1.478284
C37	C	-0.098935	0.526160	1.498555
C38	C	-0.434542	0.320711	1.430692
C39	C	-0.434325	0.203891	1.430906
C40	C	-0.376690	1.027719	1.509719
C41	C	-0.376651	1.137435	1.509744
C42	C	-0.492035	1.160625	1.352031
C43	C	-0.492068	1.050909	1.352002
C44	C	-0.492294	0.672383	0.974476
C45	C	-0.492298	0.672404	0.864751
C46	C	-0.376764	0.514991	0.888023
C47	C	-0.376756	0.514975	0.997747
C48	C	-0.434533	0.593698	1.704745
C49	C	-0.434538	0.593708	1.821521
H50	H	-0.833786	0.472684	1.551877
H51	H	-0.539060	1.015688	1.287772
O52	O	-1.190471	0.679060	1.345801
C53	C	-1.221856	0.786113	1.366396
H54	H	-1.167490	0.818624	1.423097
H55	H	-1.284849	0.791342	1.404123
H56	H	-1.238608	0.834940	1.288624
H57	H	-1.090199	0.780458	1.243891
H58	H	-0.948892	0.819105	1.205106
H59	H	-0.329730	0.450919	0.852817
H60	H	-0.777950	0.784633	1.239470
H61	H	-0.538990	1.214741	1.287837
H62	H	-0.329728	0.973617	1.573921
O63	O	-0.548432	0.748935	1.016297
C64	C	-0.599434	0.818398	0.934071
H65	H	-0.562489	0.814678	0.863323
H66	H	-0.609137	0.903108	0.963852
H67	H	-0.667914	0.793582	0.908549
O68	O	-0.320568	1.179289	1.586463
C69	C	-0.269660	1.097104	1.656029
H70	H	-0.306639	1.026332	1.652174
H71	H	-0.260033	1.126884	1.740759
H72	H	-0.201143	1.071641	1.631409
H73	H	-0.539337	0.736501	0.810617
H74	H	-1.090186	0.402604	1.622258
H75	H	-0.329710	0.450877	1.051889
H76	H	-0.919251	0.368126	1.656642
O77	O	-0.770629	0.528869	1.495377
C78	C	-0.793721	0.428793	1.467804
H79	H	-0.862158	0.440382	1.413650
H80	H	-0.796924	0.382394	1.543007
H81	H	-0.740755	0.382680	1.424461
