data_functionalizedCrystal
_audit_creation_method	'MofGen! by Chris Wilmer'
_symmetry_space_group_name_H-M	'P1'
_symmetry_Int_Tables_number	1
_symmetry_cell_setting	triclinic
loop_
_symmetry_equiv_pos_as_xyz
  x,y,z
_cell_length_a	10.654550
_cell_length_b	10.654551
_cell_length_c	9.730223
_cell_angle_alpha	90.001469
_cell_angle_beta	89.996251
_cell_angle_gamma	84.485132
loop_
_atom_site_label
_atom_site_type_symbol
_atom_site_fract_x
_atom_site_fract_y
_atom_site_fract_z
O1	O	1.667835	0.176393	-0.114394
O2	O	1.302356	0.193199	-0.114371
O3	O	1.493498	0.002057	-0.114383
O4	O	1.476693	0.367535	-0.114381
O5	O	1.493496	0.002062	0.114197
O6	O	1.302354	0.193204	0.114209
O7	O	1.667832	0.176398	0.114186
Zn8	Zn	1.485093	0.184802	0.150490
Zn9	Zn	1.485096	0.184795	-0.150674
O10	O	1.476691	0.367540	0.114199
C11	C	1.255557	0.191968	-0.000078
C12	C	1.116114	0.188276	-0.000069
C13	C	1.492263	-0.044739	-0.000096
C14	C	1.488570	-0.184182	-0.000105
C15	C	1.036629	0.300817	-0.000089
C16	C	0.905608	0.297341	-0.000113
C17	C	0.933570	0.068771	-0.000104
C18	C	1.064589	0.072249	-0.000070
C19	C	1.088154	0.416844	-0.000088
C20	C	1.008667	0.529395	-0.000109
C21	C	0.877647	0.525918	-0.000133
C22	C	0.826112	0.409891	-0.000136
C23	C	1.486839	-0.249696	-0.124702
C24	C	1.483359	-0.380717	-0.124695
C25	C	1.483346	-0.380697	0.124515
C26	C	1.486817	-0.249678	0.124507
C27	C	1.488592	-0.184200	-0.249314
C28	C	1.486862	-0.249715	-0.373921
C29	C	1.483382	-0.380735	-0.373914
C30	C	1.481631	-0.446241	-0.249301
C31	C	1.714632	0.177629	-0.000109
C32	C	1.854075	0.181321	-0.000127
C33	C	1.477926	0.414336	-0.000091
C34	C	1.481619	0.553779	-0.000091
N35	N	1.485100	0.184805	0.356026
N36	N	1.485099	0.184782	-0.356211
C37	C	1.569760	0.100197	0.427947
C38	C	1.569756	0.100181	0.571830
C39	C	1.400430	0.269395	0.571859
C40	C	1.400428	0.269403	0.427979
C41	C	1.654431	0.015599	0.355994
C42	C	1.739099	-0.069016	0.427915
C43	C	1.739095	-0.069031	0.571798
C44	C	1.654425	0.015568	0.643760
H45	H	1.194836	0.419687	-0.000075
H46	H	1.331490	0.338298	0.369421
C47	C	1.307283	0.362430	0.651008
H48	H	1.256847	0.412809	0.587566
H49	H	1.352888	0.415138	0.707152
H50	H	1.254622	0.316728	0.707119
C51	C	1.488787	-0.177665	-0.510983
H52	H	1.491120	-0.090253	-0.493145
H53	H	1.415112	-0.190195	-0.562182
H54	H	1.561339	-0.208089	-0.562175
H55	H	1.050636	0.623860	-0.000095
C56	C	1.481481	-0.452799	-0.510972
H57	H	1.483033	-0.395024	-0.585182
H58	H	1.407020	-0.494971	-0.516159
H59	H	1.553247	-0.512849	-0.516142
C60	C	0.876890	-0.058849	-0.000121
H61	H	0.942995	-0.125379	-0.000095
H62	H	0.826384	-0.064957	-0.079845
H63	H	0.826340	-0.064953	0.079586
H64	H	1.481922	-0.434042	0.225969
C65	C	0.790215	0.649715	-0.000154
H66	H	0.839671	0.719309	-0.000160
H67	H	0.738501	0.653121	0.079543
H68	H	0.738548	0.653100	-0.079889
H69	H	1.488200	-0.196331	0.225964
C70	C	0.681992	0.406068	-0.000166
H71	H	0.642031	0.489712	-0.000185
H72	H	0.657490	0.363074	0.079534
H73	H	0.657543	0.363075	-0.079898
C74	C	1.654436	0.015619	0.197729
H75	H	1.591894	0.078133	0.165200
H76	H	1.636566	-0.064809	0.165159
H77	H	1.734856	0.033577	0.165188
H78	H	1.478779	-0.552924	-0.249306
H79	H	1.129308	-0.019392	-0.000058
C80	C	1.832225	-0.162075	0.348769
H81	H	1.882636	-0.212476	0.412213
H82	H	1.884895	-0.116406	0.292644
H83	H	1.786590	-0.214777	0.292639
C84	C	1.492593	-0.040104	-0.249327
H85	H	1.493434	-0.010483	-0.341383
H86	H	1.566532	-0.019542	-0.203304
H87	H	1.420313	-0.001394	-0.203316
H88	H	1.808026	-0.137936	0.630354
H89	H	1.654421	0.015540	0.760919
