data_functionalizedCrystal
_audit_creation_method	'MofGen! by Chris Wilmer'
_symmetry_space_group_name_H-M	'P1'
_symmetry_Int_Tables_number	1
_symmetry_cell_setting	triclinic
loop_
_symmetry_equiv_pos_as_xyz
  x,y,z
_cell_length_a	27.731994
_cell_length_b	27.732048
_cell_length_c	26.809956
_cell_angle_alpha	90.024325
_cell_angle_beta	90.014414
_cell_angle_gamma	82.631595
loop_
_atom_site_label
_atom_site_type_symbol
_atom_site_fract_x
_atom_site_fract_y
_atom_site_fract_z
O1	O	0.640954	0.057401	0.041414
O2	O	0.890954	0.307401	0.291414
O3	O	1.140954	0.557401	0.541414
O4	O	1.390954	0.807401	0.791414
O5	O	0.500157	0.066174	0.041431
O6	O	0.750157	0.316174	0.291431
O7	O	1.000157	0.566174	0.541431
O8	O	1.250157	0.816174	0.791431
O9	O	0.574929	-0.008610	0.041412
O10	O	0.824929	0.241390	0.291412
O11	O	1.074929	0.491390	0.541412
O12	O	1.324929	0.741390	0.791412
O13	O	0.566183	0.132185	0.041432
O14	O	0.816183	0.382185	0.291432
O15	O	1.066183	0.632185	0.541432
O16	O	1.316183	0.882185	0.791432
O17	O	0.574902	-0.008630	-0.041547
O18	O	0.824902	0.241370	0.208453
O19	O	1.074902	0.491370	0.458453
O20	O	1.324902	0.741370	0.708453
O21	O	0.500131	0.066154	-0.041528
O22	O	0.750131	0.316154	0.208472
O23	O	1.000131	0.566154	0.458472
O24	O	1.250131	0.816154	0.708472
O25	O	0.640928	0.057381	-0.041545
O26	O	0.890928	0.307381	0.208455
O27	O	1.140928	0.557381	0.458455
O28	O	1.390928	0.807381	0.708455
Zn29	Zn	0.570525	0.061764	-0.054708
Zn30	Zn	0.820525	0.311764	0.195292
Zn31	Zn	1.070525	0.561764	0.445292
Zn32	Zn	1.320525	0.811764	0.695292
Zn33	Zn	0.570560	0.061791	0.054594
Zn34	Zn	0.820560	0.311791	0.304594
Zn35	Zn	1.070560	0.561791	0.554594
Zn36	Zn	1.320560	0.811791	0.804594
O37	O	0.566156	0.132165	-0.041527
O38	O	0.816156	0.382165	0.208473
O39	O	1.066156	0.632165	0.458473
O40	O	1.316156	0.882165	0.708473
C41	C	0.482137	0.065984	-0.000046
C42	C	0.732137	0.315984	0.249954
C43	C	0.982137	0.565984	0.499954
C44	C	1.232137	0.815984	0.749954
C45	C	0.428480	0.065442	-0.000040
C46	C	0.678480	0.315442	0.249960
C47	C	0.928480	0.565442	0.499960
C48	C	1.178480	0.815442	0.749960
C49	C	0.574732	-0.026627	-0.000069
C50	C	0.824732	0.223373	0.249931
C51	C	1.074732	0.473373	0.499931
C52	C	1.324732	0.723373	0.749931
C53	C	0.574179	-0.080282	-0.000073
C54	C	0.824179	0.169718	0.249927
C55	C	1.074179	0.419718	0.499927
C56	C	1.324179	0.669718	0.749927
C57	C	0.095747	0.062015	-0.045281
C58	C	0.345747	0.312015	0.204719
C59	C	0.595747	0.562015	0.454719
C60	C	0.845747	0.812015	0.704719
C61	C	-0.105911	0.059953	-0.045287
C62	C	0.144089	0.309953	0.204713
C63	C	0.394089	0.559953	0.454713
C64	C	0.644089	0.809953	0.704713
O65	O	-0.131996	0.059657	-0.083746
O66	O	0.118004	0.309657	0.166254
O67	O	0.368004	0.559657	0.416254
O68	O	0.618004	0.809657	0.666254
N69	N	-0.131111	0.059708	-0.000066
N70	N	0.118889	0.309708	0.249934
N71	N	0.368889	0.559708	0.499934
N72	N	0.618889	0.809708	0.749934
C73	C	-0.105894	0.059975	0.045160
C74	C	0.144106	0.309975	0.295160
C75	C	0.394106	0.559975	0.545160
C76	C	0.644106	0.809975	0.795160
O77	O	-0.131954	0.059715	0.083623
O78	O	0.118046	0.309715	0.333623
O79	O	0.368046	0.559715	0.583623
O80	O	0.618046	0.809715	0.833623
C81	C	0.095764	0.062034	0.045165
C82	C	0.345764	0.312034	0.295165
C83	C	0.595764	0.562034	0.545165
C84	C	0.845764	0.812034	0.795165
C85	C	0.120961	0.062283	-0.000059
C86	C	0.370961	0.312283	0.249941
C87	C	0.620961	0.562283	0.499941
C88	C	0.870961	0.812283	0.749941
C89	C	0.120945	0.062264	-0.090501
C90	C	0.370945	0.312264	0.159499
C91	C	0.620945	0.562264	0.409499
C92	C	0.870945	0.812264	0.659499
C93	C	0.171356	0.062782	-0.090499
C94	C	0.421356	0.312782	0.159501
C95	C	0.671356	0.562782	0.409501
C96	C	0.921356	0.812782	0.659501
C97	C	0.196570	0.063051	-0.045277
C98	C	0.446570	0.313051	0.204723
C99	C	0.696570	0.563051	0.454723
C100	C	0.946570	0.813051	0.704723
C101	C	0.171372	0.062801	-0.000057
C102	C	0.421372	0.312801	0.249943
C103	C	0.671372	0.562801	0.499943
C104	C	0.921372	0.812801	0.749943
C105	C	0.120981	0.062297	0.090390
C106	C	0.370981	0.312297	0.340390
C107	C	0.620981	0.562297	0.590390
C108	C	0.870981	0.812297	0.840390
C109	C	0.171399	0.062811	0.090388
C110	C	0.421399	0.312811	0.340388
C111	C	0.671399	0.562811	0.590388
C112	C	0.921399	0.812811	0.840388
C113	C	0.196596	0.063060	0.045164
C114	C	0.446596	0.313060	0.295164
C115	C	0.696596	0.563060	0.545164
C116	C	0.946596	0.813060	0.795164
C117	C	0.246997	0.063588	0.045167
C118	C	0.496997	0.313588	0.295167
C119	C	0.746997	0.563588	0.545167
C120	C	0.996997	0.813588	0.795167
N121	N	0.272198	0.063833	-0.000054
N122	N	0.522198	0.313833	0.249946
N123	N	0.772198	0.563833	0.499946
N124	N	1.022198	0.813833	0.749946
C125	C	0.246984	0.063565	-0.045276
C126	C	0.496984	0.313565	0.204724
C127	C	0.746984	0.563565	0.454724
C128	C	0.996984	0.813565	0.704724
C129	C	-0.211767	0.058896	0.045154
C130	C	0.038233	0.308896	0.295154
C131	C	0.288233	0.558896	0.545154
C132	C	0.538233	0.808896	0.795154
C133	C	-0.262181	0.058382	0.045152
C134	C	-0.012181	0.308382	0.295152
C135	C	0.237819	0.558382	0.545152
C136	C	0.487819	0.808382	0.795152
C137	C	-0.262195	0.058359	-0.045294
C138	C	-0.012195	0.308359	0.204706
C139	C	0.237805	0.558359	0.454706
C140	C	0.487805	0.808359	0.704706
C141	C	-0.211780	0.058876	-0.045293
C142	C	0.038220	0.308876	0.204707
C143	C	0.288220	0.558876	0.454707
C144	C	0.538220	0.808876	0.704707
C145	C	-0.186566	0.059141	-0.000067
C146	C	0.063434	0.309141	0.249933
C147	C	0.313434	0.559141	0.499933
C148	C	0.563434	0.809141	0.749933
C149	C	0.352851	0.064653	-0.045268
C150	C	0.602851	0.314653	0.204732
C151	C	0.852851	0.564653	0.454732
C152	C	1.102851	0.814653	0.704732
C153	C	0.403266	0.065173	-0.045262
C154	C	0.653266	0.315173	0.204738
C155	C	0.903266	0.565173	0.454738
C156	C	1.153266	0.815173	0.704738
C157	C	0.403276	0.065193	0.045184
C158	C	0.653276	0.315193	0.295184
C159	C	0.903276	0.565193	0.545184
C160	C	1.153276	0.815193	0.795184
C161	C	0.352865	0.064676	0.045179
C162	C	0.602865	0.314676	0.295179
C163	C	0.852865	0.564676	0.545179
C164	C	1.102865	0.814676	0.795179
C165	C	0.327654	0.064404	-0.000052
C166	C	0.577654	0.314404	0.249948
C167	C	0.827654	0.564404	0.499948
C168	C	1.077654	0.814404	0.749948
O169	O	0.273114	0.063880	0.083606
O170	O	0.523114	0.313880	0.333606
O171	O	0.773114	0.563880	0.583606
O172	O	1.023114	0.813880	0.833606
O173	O	0.273055	0.063815	-0.083733
O174	O	0.523055	0.313815	0.166267
O175	O	0.773055	0.563815	0.416267
O176	O	1.023055	0.813815	0.666267
C177	C	0.045336	0.061497	-0.045283
C178	C	0.295336	0.311497	0.204717
C179	C	0.545336	0.561497	0.454717
C180	C	0.795336	0.811497	0.704717
C181	C	0.020139	0.061247	-0.000063
C182	C	0.270139	0.311247	0.249937
C183	C	0.520139	0.561247	0.499937
C184	C	0.770139	0.811247	0.749937
C185	C	0.045353	0.061516	0.045160
C186	C	0.295353	0.311516	0.295160
C187	C	0.545353	0.561516	0.545160
C188	C	0.795353	0.811516	0.795160
C189	C	-0.030275	0.060734	-0.000064
C190	C	0.219725	0.310734	0.249936
C191	C	0.469725	0.560734	0.499936
C192	C	0.719725	0.810734	0.749936
C193	C	-0.055489	0.060465	-0.045286
C194	C	0.194511	0.310465	0.204714
C195	C	0.444511	0.560465	0.454714
C196	C	0.694511	0.810465	0.704714
C197	C	-0.030289	0.060710	-0.090507
C198	C	0.219711	0.310710	0.159493
C199	C	0.469711	0.560710	0.409493
C200	C	0.719711	0.810710	0.659493
C201	C	0.020122	0.061228	-0.090505
C202	C	0.270122	0.311228	0.159495
C203	C	0.520122	0.561228	0.409495
C204	C	0.770122	0.811228	0.659495
C205	C	0.020153	0.061271	0.090381
C206	C	0.270153	0.311271	0.340381
C207	C	0.520153	0.561271	0.590381
C208	C	0.770153	0.811271	0.840381
C209	C	-0.030259	0.060753	0.090375
C210	C	0.219741	0.310753	0.340375
C211	C	0.469741	0.560753	0.590375
C212	C	0.719741	0.810753	0.840375
C213	C	-0.055473	0.060485	0.045153
C214	C	0.194527	0.310485	0.295153
C215	C	0.444527	0.560485	0.545153
C216	C	0.694527	0.810485	0.795153
C217	C	0.614884	-0.419105	-0.000052
C218	C	0.864884	-0.169105	0.249948
C219	C	1.114884	0.080895	0.499948
C220	C	1.364884	0.330895	0.749948
C221	C	0.612833	-0.620764	-0.000045
C222	C	0.862833	-0.370764	0.249955
C223	C	1.112833	-0.120764	0.499955
C224	C	1.362833	0.129236	0.749955
O225	O	0.650055	-0.652027	-0.000028
O226	O	0.900055	-0.402027	0.249972
O227	O	1.150055	-0.152027	0.499972
O228	O	1.400055	0.097973	0.749972
N229	N	0.568496	-0.639879	-0.000040
N230	N	0.818496	-0.389879	0.249960
N231	N	1.068496	-0.139879	0.499960
N232	N	1.318496	0.110121	0.749960
C233	C	0.524670	-0.608576	-0.000033
C234	C	0.774670	-0.358576	0.249967
C235	C	1.024670	-0.108576	0.499967
C236	C	1.274670	0.141424	0.749967
O237	O	0.486912	-0.629462	-0.000024
O238	O	0.736912	-0.379462	0.249976
O239	O	0.986912	-0.129462	0.499976
O240	O	1.236912	0.120538	0.749976
C241	C	0.526721	-0.406918	-0.000037
C242	C	0.776721	-0.156918	0.249963
C243	C	1.026721	0.093082	0.499963
C244	C	1.276721	0.343082	0.749963
C245	C	0.571060	-0.387806	-0.000047
C246	C	0.821060	-0.137806	0.249953
C247	C	1.071060	0.112194	0.499953
C248	C	1.321060	0.362194	0.749953
C249	C	0.659220	-0.399992	-0.000061
C250	C	0.909220	-0.149992	0.249939
C251	C	1.159220	0.100008	0.499939
C252	C	1.409220	0.350008	0.749939
C253	C	0.659732	-0.349580	-0.000066
C254	C	0.909732	-0.099580	0.249934
C255	C	1.159732	0.150420	0.499934
C256	C	1.409732	0.400420	0.749934
C257	C	0.615908	-0.318281	-0.000061
C258	C	0.865908	-0.068281	0.249939
C259	C	1.115908	0.181719	0.499939
C260	C	1.365908	0.431719	0.749939
C261	C	0.571573	-0.337394	-0.000052
C262	C	0.821573	-0.087394	0.249948
C263	C	1.071573	0.162606	0.499948
C264	C	1.321573	0.412606	0.749948
C265	C	0.482895	-0.375615	-0.000027
C266	C	0.732895	-0.125615	0.249973
C267	C	0.982895	0.124385	0.499973
C268	C	1.232895	0.374385	0.749973
C269	C	0.483412	-0.325198	-0.000027
C270	C	0.733412	-0.075198	0.249973
C271	C	0.983412	0.174802	0.499973
C272	C	1.233412	0.424802	0.749973
C273	C	0.527751	-0.306086	-0.000037
C274	C	0.777751	-0.056086	0.249963
C275	C	1.027751	0.193914	0.499963
C276	C	1.277751	0.443914	0.749963
C277	C	0.528262	-0.255683	-0.000051
C278	C	0.778262	-0.005683	0.249949
C279	C	1.028262	0.244317	0.499949
C280	C	1.278262	0.494317	0.749949
N281	N	0.572598	-0.236568	-0.000056
N282	N	0.822598	0.013432	0.249944
N283	N	1.072598	0.263432	0.499944
N284	N	1.322598	0.513432	0.749944
C285	C	0.616421	-0.267867	-0.000061
C286	C	0.866421	-0.017867	0.249939
C287	C	1.116421	0.232133	0.499939
C288	C	1.366421	0.482133	0.749939
C289	C	0.523596	-0.714450	-0.000032
C290	C	0.773596	-0.464450	0.249968
C291	C	1.023596	-0.214450	0.499968
C292	C	1.273596	0.035550	0.749968
C293	C	0.523083	-0.764864	-0.000032
C294	C	0.773083	-0.514864	0.249968
C295	C	1.023083	-0.264864	0.499968
C296	C	1.273083	-0.014864	0.749968
C297	C	0.611246	-0.777049	-0.000043
C298	C	0.861246	-0.527049	0.249957
C299	C	1.111246	-0.277049	0.499957
C300	C	1.361246	-0.027049	0.749957
C301	C	0.611759	-0.726633	-0.000047
C302	C	0.861759	-0.476633	0.249953
C303	C	1.111759	-0.226633	0.499953
C304	C	1.361759	0.023367	0.749953
C305	C	0.567932	-0.695335	-0.000037
C306	C	0.817932	-0.445335	0.249963
C307	C	1.067932	-0.195335	0.499963
C308	C	1.317932	0.054665	0.749963
C309	C	0.617494	-0.161998	-0.000071
C310	C	0.867494	0.088002	0.249929
C311	C	1.117494	0.338002	0.499929
C312	C	1.367494	0.588002	0.749929
C313	C	0.618002	-0.111581	-0.000078
C314	C	0.868002	0.138419	0.249922
C315	C	1.118002	0.388419	0.499922
C316	C	1.368002	0.638419	0.749922
C317	C	0.529839	-0.099401	-0.000064
C318	C	0.779839	0.150599	0.249936
C319	C	1.029839	0.400599	0.499936
C320	C	1.279839	0.650599	0.749936
C321	C	0.529331	-0.149813	-0.000060
C322	C	0.779331	0.100187	0.249940
C323	C	1.029331	0.350187	0.499940
C324	C	1.279331	0.600187	0.749940
C325	C	0.573162	-0.181111	-0.000062
C326	C	0.823162	0.068889	0.249938
C327	C	1.073162	0.318889	0.499938
C328	C	1.323162	0.568889	0.749938
O329	O	0.491060	-0.224391	-0.000063
O330	O	0.741060	0.025609	0.249937
O331	O	0.991060	0.275609	0.499937
O332	O	1.241060	0.525609	0.749937
O333	O	0.654174	-0.246971	-0.000060
O334	O	0.904174	0.003029	0.249940
O335	O	1.154174	0.253029	0.499940
O336	O	1.404174	0.503029	0.749940
C337	C	0.614372	-0.469517	-0.000047
C338	C	0.864372	-0.219517	0.249953
C339	C	1.114372	0.030483	0.499953
C340	C	1.364372	0.280483	0.749953
C341	C	0.570036	-0.488629	-0.000038
C342	C	0.820036	-0.238629	0.249962
C343	C	1.070036	0.011371	0.499962
C344	C	1.320036	0.261371	0.749962
C345	C	0.526213	-0.457330	-0.000033
C346	C	0.776213	-0.207330	0.249967
C347	C	1.026213	0.042670	0.499967
C348	C	1.276213	0.292670	0.749967
C349	C	0.569523	-0.539044	-0.000038
C350	C	0.819523	-0.289044	0.249962
C351	C	1.069523	-0.039044	0.499962
C352	C	1.319523	0.210956	0.749962
C353	C	0.613346	-0.570343	-0.000043
C354	C	0.863346	-0.320343	0.249957
C355	C	1.113346	-0.070343	0.499957
C356	C	1.363346	0.179657	0.749957
C357	C	0.657683	-0.551228	-0.000048
C358	C	0.907683	-0.301228	0.249952
C359	C	1.157683	-0.051228	0.499952
C360	C	1.407683	0.198772	0.749952
C361	C	0.658195	-0.500816	-0.000052
C362	C	0.908195	-0.250816	0.249948
C363	C	1.158195	-0.000816	0.499948
C364	C	1.408195	0.249184	0.749948
C365	C	0.481876	-0.476445	-0.000028
C366	C	0.731876	-0.226445	0.249972
C367	C	0.981876	0.023555	0.499972
C368	C	1.231876	0.273555	0.749972
C369	C	0.481367	-0.526858	-0.000024
C370	C	0.731367	-0.276858	0.249976
C371	C	0.981367	-0.026858	0.499976
C372	C	1.231367	0.223142	0.749976
C373	C	0.525191	-0.558157	-0.000029
C374	C	0.775191	-0.308157	0.249971
C375	C	1.025191	-0.058157	0.499971
C376	C	1.275191	0.191843	0.749971
C377	C	0.658949	0.057571	-0.000067
C378	C	0.908949	0.307571	0.249933
C379	C	1.158949	0.557571	0.499933
C380	C	1.408949	0.807571	0.749933
C381	C	0.712605	0.058113	-0.000070
C382	C	0.962605	0.308113	0.249930
C383	C	1.212605	0.558113	0.499930
C384	C	1.462605	0.808113	0.749930
C385	C	0.566353	0.150182	-0.000045
C386	C	0.816353	0.400182	0.249955
C387	C	1.066353	0.650182	0.499955
C388	C	1.316353	0.900182	0.749955
C389	C	0.566906	0.203837	-0.000037
C390	C	0.816906	0.453837	0.249963
C391	C	1.066906	0.703837	0.499963
C392	C	1.316906	0.953837	0.749963
N393	N	0.570505	0.061746	-0.129304
N394	N	0.820505	0.311746	0.120696
N395	N	1.070505	0.561746	0.370696
N396	N	1.320505	0.811746	0.620696
C397	C	0.541454	0.032657	-0.526198
C398	C	0.791454	0.282657	-0.276198
C399	C	1.041454	0.532657	-0.026198
C400	C	1.291454	0.782657	0.223802
C401	C	0.541431	0.032644	-0.317320
C402	C	0.791431	0.282644	-0.067320
C403	C	1.041431	0.532644	0.182680
C404	C	1.291431	0.782644	0.432680
O405	O	0.516699	0.007871	-0.290329
O406	O	0.766699	0.257871	-0.040329
O407	O	1.016699	0.507871	0.209671
O408	O	1.266699	0.757871	0.459671
N409	N	0.570524	0.061753	-0.291183
N410	N	0.820524	0.311753	-0.041183
N411	N	1.070524	0.561753	0.208817
N412	N	1.320524	0.811753	0.458817
C413	C	0.599628	0.090866	-0.317268
C414	C	0.849628	0.340866	-0.067268
C415	C	1.099628	0.590866	0.182732
C416	C	1.349628	0.840866	0.432732
O417	O	0.624376	0.115621	-0.290244
O418	O	0.874376	0.365621	-0.040244
O419	O	1.124376	0.615621	0.209756
O420	O	1.374376	0.865621	0.459756
C421	C	0.599653	0.090876	-0.526145
C422	C	0.849653	0.340876	-0.276145
C423	C	1.099653	0.590876	-0.026145
C424	C	1.349653	0.840876	0.223855
C425	C	0.570554	0.061768	-0.552280
C426	C	0.820554	0.311768	-0.302280
C427	C	1.070554	0.561768	-0.052280
C428	C	1.320554	0.811768	0.197720
C429	C	0.512358	0.003552	-0.552333
C430	C	0.762358	0.253552	-0.302333
C431	C	1.012358	0.503552	-0.052333
C432	C	1.262358	0.753552	0.197667
C433	C	0.512362	0.003557	-0.604549
C434	C	0.762362	0.253557	-0.354549
C435	C	1.012362	0.503557	-0.104549
C436	C	1.262362	0.753557	0.145451
C437	C	0.541462	0.032668	-0.630631
C438	C	0.791462	0.282668	-0.380631
C439	C	1.041462	0.532668	-0.130631
C440	C	1.291462	0.782668	0.119369
C441	C	0.570558	0.061774	-0.604496
C442	C	0.820558	0.311774	-0.354496
C443	C	1.070558	0.561774	-0.104496
C444	C	1.320558	0.811774	0.145504
C445	C	0.628758	0.119985	-0.552229
C446	C	0.878758	0.369985	-0.302229
C447	C	1.128758	0.619985	-0.052229
C448	C	1.378758	0.869985	0.197771
C449	C	0.628763	0.119984	-0.604451
C450	C	0.878763	0.369984	-0.354451
C451	C	1.128763	0.619984	-0.104451
C452	C	1.378763	0.869984	0.145549
C453	C	0.599664	0.090877	-0.630586
C454	C	0.849664	0.340877	-0.380586
C455	C	1.099664	0.590877	-0.130586
C456	C	1.349664	0.840877	0.119414
C457	C	0.599662	0.090891	-0.682794
C458	C	0.849662	0.340891	-0.432794
C459	C	1.099662	0.590891	-0.182794
C460	C	1.349662	0.840891	0.067206
N461	N	0.570569	0.061781	-0.708931
N462	N	0.820569	0.311781	-0.458931
N463	N	1.070569	0.561781	-0.208931
N464	N	1.320569	0.811781	0.041069
C465	C	0.541469	0.032670	-0.682850
C466	C	0.791469	0.282670	-0.432850
C467	C	1.041469	0.532670	-0.182850
C468	C	1.291469	0.782670	0.067150
C469	C	0.599612	0.090859	-0.207605
C470	C	0.849612	0.340859	0.042395
C471	C	1.099612	0.590859	0.292395
C472	C	1.349612	0.840859	0.542395
C473	C	0.599605	0.090857	-0.155386
C474	C	0.849605	0.340857	0.094614
C475	C	1.099605	0.590857	0.344614
C476	C	1.349605	0.840857	0.594614
C477	C	0.541409	0.032635	-0.155442
C478	C	0.791409	0.282635	0.094558
C479	C	1.041409	0.532635	0.344558
C480	C	1.291409	0.782635	0.594558
C481	C	0.541413	0.032639	-0.207662
C482	C	0.791413	0.282639	0.042338
C483	C	1.041413	0.532639	0.292338
C484	C	1.291413	0.782639	0.542338
C485	C	0.570518	0.061749	-0.233742
C486	C	0.820518	0.311749	0.016258
C487	C	1.070518	0.561749	0.266258
C488	C	1.320518	0.811749	0.516258
C489	C	0.541479	0.032685	-0.792508
C490	C	0.791479	0.282685	-0.542508
C491	C	1.041479	0.532685	-0.292508
C492	C	1.291479	0.782685	-0.042508
C493	C	0.541484	0.032694	-0.844729
C494	C	0.791484	0.282694	-0.594729
C495	C	1.041484	0.532694	-0.344729
C496	C	1.291484	0.782694	-0.094729
C497	C	0.599682	0.090915	-0.844668
C498	C	0.849682	0.340915	-0.594668
C499	C	1.099682	0.590915	-0.344668
C500	C	1.349682	0.840915	-0.094668
C501	C	0.599675	0.090907	-0.792452
C502	C	0.849675	0.340907	-0.542452
C503	C	1.099675	0.590907	-0.292452
C504	C	1.349675	0.840907	-0.042452
C505	C	0.570572	0.061788	-0.766373
C506	C	0.820572	0.311788	-0.516373
C507	C	1.070572	0.561788	-0.266373
C508	C	1.320572	0.811788	-0.016373
O509	O	0.624386	0.115647	-0.709818
O510	O	0.874386	0.365647	-0.459818
O511	O	1.124386	0.615647	-0.209818
O512	O	1.374386	0.865647	0.040182
O513	O	0.516732	0.007911	-0.709883
O514	O	0.766732	0.257911	-0.459883
O515	O	1.016732	0.507911	-0.209883
O516	O	1.266732	0.757911	0.040117
C517	C	0.541450	0.032652	-0.473982
C518	C	0.791450	0.282652	-0.223982
C519	C	1.041450	0.532652	0.026018
C520	C	1.291450	0.782652	0.276018
C521	C	0.570546	0.061757	-0.447847
C522	C	0.820546	0.311757	-0.197847
C523	C	1.070546	0.561757	0.052153
C524	C	1.320546	0.811757	0.302153
C525	C	0.599646	0.090868	-0.473928
C526	C	0.849646	0.340868	-0.223928
C527	C	1.099646	0.590868	0.026072
C528	C	1.349646	0.840868	0.276072
C529	C	0.570539	0.061755	-0.395628
C530	C	0.820539	0.311755	-0.145628
C531	C	1.070539	0.561755	0.104372
C532	C	1.320539	0.811755	0.354372
C533	C	0.541439	0.032644	-0.369547
C534	C	0.791439	0.282644	-0.119547
C535	C	1.041439	0.532644	0.130453
C536	C	1.291439	0.782644	0.380453
C537	C	0.512346	0.003535	-0.395684
C538	C	0.762346	0.253535	-0.145684
C539	C	1.012346	0.503535	0.104316
C540	C	1.262346	0.753535	0.354316
C541	C	0.512350	0.003540	-0.447900
C542	C	0.762350	0.253540	-0.197900
C543	C	1.012350	0.503540	0.052100
C544	C	1.262350	0.753540	0.302100
C545	C	0.628739	0.119978	-0.447791
C546	C	0.878739	0.369978	-0.197791
C547	C	1.128739	0.619978	0.052209
C548	C	1.378739	0.869978	0.302209
C549	C	0.628732	0.119970	-0.395575
C550	C	0.878732	0.369970	-0.145575
C551	C	1.128732	0.619970	0.104425
C552	C	1.378732	0.869970	0.354425
C553	C	0.599632	0.090859	-0.369493
C554	C	0.849632	0.340859	-0.119493
C555	C	1.099632	0.590859	0.130507
C556	C	1.349632	0.840859	0.380507
N557	N	0.570584	0.061805	0.129190
N558	N	0.820584	0.311805	0.379190
N559	N	1.070584	0.561805	0.629190
N560	N	1.320584	0.811805	0.879190
H561	H	0.423779	0.065378	-0.082091
H562	H	0.673779	0.315378	0.167909
H563	H	0.923779	0.565378	0.417909
H564	H	1.173779	0.815378	0.667909
H565	H	-0.050827	0.060494	-0.127329
H566	H	0.199173	0.310494	0.122671
H567	H	0.449173	0.560494	0.372671
H568	H	0.699173	0.810494	0.622671
H569	H	0.447722	-0.299716	-0.000018
H570	H	0.697722	-0.049716	0.249982
H571	H	0.947722	0.200284	0.499982
H572	H	1.197722	0.450284	0.749982
Cl573	Cl	0.425621	-0.550877	-0.000014
Cl574	Cl	0.675621	-0.300877	0.249986
Cl575	Cl	0.925621	-0.050877	0.499986
Cl576	Cl	1.175621	0.199123	0.749986
H577	H	0.100421	0.062044	-0.127329
H578	H	0.350421	0.312044	0.122671
H579	H	0.600421	0.562044	0.372671
H580	H	0.850421	0.812044	0.622671
Cl581	Cl	0.712774	-0.590585	-0.000056
Cl582	Cl	0.962774	-0.340585	0.249944
Cl583	Cl	1.212774	-0.090585	0.499944
Cl584	Cl	1.462774	0.159415	0.749944
Cl585	Cl	0.475767	-0.033054	-0.480748
Cl586	Cl	0.725767	0.216946	-0.230748
Cl587	Cl	0.975767	0.466946	0.019252
Cl588	Cl	1.225767	0.716946	0.269252
Cl589	Cl	0.714320	-0.439332	-0.000069
Cl590	Cl	0.964320	-0.189332	0.249931
Cl591	Cl	1.214320	0.060668	0.499931
Cl592	Cl	1.464320	0.310668	0.749931
H593	H	0.517781	0.008973	-0.771280
H594	H	0.767781	0.258973	-0.521280
H595	H	1.017781	0.508973	-0.271280
H596	H	1.267781	0.758973	-0.021280
H597	H	0.100475	0.062093	0.127217
H598	H	0.350475	0.312093	0.377217
H599	H	0.600475	0.562093	0.627217
H600	H	0.850475	0.812093	0.877217
H601	H	0.695837	-0.334024	-0.000072
H602	H	0.945837	-0.084024	0.249928
H603	H	1.195837	0.165976	0.499928
H604	H	1.445837	0.415976	0.749928
H605	H	0.486977	-0.780420	-0.000033
H606	H	0.736977	-0.530420	0.249967
H607	H	0.986977	-0.280420	0.499967
H608	H	1.236977	-0.030420	0.749967
Cl609	Cl	0.636202	0.127461	-0.240384
Cl610	Cl	0.886202	0.377461	0.009616
Cl611	Cl	1.136202	0.627461	0.259616
Cl612	Cl	1.386202	0.877461	0.509616
H613	H	0.646929	-0.802541	-0.000047
H614	H	0.896929	-0.552541	0.249953
H615	H	1.146929	-0.302541	0.499953
H616	H	1.396929	-0.052541	0.749953
H617	H	0.652437	0.143683	-0.469021
H618	H	0.902437	0.393683	-0.219021
H619	H	1.152437	0.643683	0.030979
H620	H	1.402437	0.893683	0.280979
Cl621	Cl	0.321165	0.064311	-0.102130
Cl622	Cl	0.571165	0.314311	0.147870
Cl623	Cl	0.821165	0.564311	0.397870
Cl624	Cl	1.071165	0.814311	0.647870
H625	H	0.040633	0.061432	-0.127331
H626	H	0.290633	0.311432	0.122669
H627	H	0.540633	0.561432	0.372669
H628	H	0.790633	0.811432	0.622669
Cl629	Cl	0.203025	0.063093	-0.147356
Cl630	Cl	0.453025	0.313093	0.102644
Cl631	Cl	0.703025	0.563093	0.352644
Cl632	Cl	0.953025	0.813093	0.602644
H633	H	0.487905	-0.688970	-0.000025
H634	H	0.737905	-0.438970	0.249975
H635	H	0.987905	-0.188970	0.499975
H636	H	1.237905	0.061030	0.749975
H637	H	-0.282694	0.058186	0.081978
H638	H	-0.032694	0.308186	0.331978
H639	H	0.217306	0.558186	0.581978
H640	H	0.467306	0.808186	0.831978
H641	H	0.488669	-0.020147	-0.625824
H642	H	0.738669	0.229853	-0.375824
H643	H	0.988669	0.479853	-0.125824
H644	H	1.238669	0.729853	0.124176
Cl645	Cl	0.673747	-0.087558	-0.000089
Cl646	Cl	0.923747	0.162442	0.249911
Cl647	Cl	1.173747	0.412442	0.499911
Cl648	Cl	1.423747	0.662442	0.749911
Cl649	Cl	0.665331	0.156591	-0.519387
Cl650	Cl	0.915331	0.406591	-0.269387
Cl651	Cl	1.165331	0.656591	-0.019387
Cl652	Cl	1.415331	0.906591	0.230613
Cl653	Cl	-0.180109	0.059189	-0.102148
Cl654	Cl	0.069891	0.309189	0.147852
Cl655	Cl	0.319891	0.559189	0.397852
Cl656	Cl	0.569891	0.809189	0.647852
H657	H	0.623373	0.114617	-0.865913
H658	H	0.873373	0.364617	-0.615913
H659	H	1.123373	0.614617	-0.365913
H660	H	1.373373	0.864617	-0.115913
H661	H	-0.282733	0.058141	-0.082116
H662	H	-0.032733	0.308141	0.167884
H663	H	0.217267	0.558141	0.417884
H664	H	0.467267	0.808141	0.667884
Cl665	Cl	0.672597	-0.201336	-0.000074
Cl666	Cl	0.922597	0.048664	0.249926
Cl667	Cl	1.172597	0.298664	0.499926
Cl668	Cl	1.422597	0.548664	0.749926
H669	H	-0.191243	0.059111	0.081984
H670	H	0.058757	0.309111	0.331984
H671	H	0.308757	0.559111	0.581984
H672	H	0.558757	0.809111	0.831984
H673	H	0.652465	0.143689	-0.625684
H674	H	0.902465	0.393689	-0.375684
H675	H	1.152465	0.643689	-0.125684
H676	H	1.402465	0.893689	0.124316
Cl677	Cl	0.203093	0.063142	0.147246
Cl678	Cl	0.453093	0.313142	0.397246
Cl679	Cl	0.703093	0.563142	0.647246
Cl680	Cl	0.953093	0.813142	0.897246
Cl681	Cl	0.665311	0.156573	-0.362726
Cl682	Cl	0.915311	0.406573	-0.112726
Cl683	Cl	1.165311	0.656573	0.137274
Cl684	Cl	1.415311	0.906573	0.387274
H685	H	0.446789	-0.391167	-0.000016
H686	H	0.696789	-0.141167	0.249984
H687	H	0.946789	0.108833	0.499984
H688	H	1.196789	0.358833	0.749984
H689	H	0.623362	0.114616	-0.771172
H690	H	0.873362	0.364616	-0.521172
H691	H	1.123362	0.614616	-0.271172
H692	H	1.373362	0.864616	-0.021172
H693	H	0.332347	0.064480	0.082004
H694	H	0.582347	0.314480	0.332004
H695	H	0.832347	0.564480	0.582004
H696	H	1.082347	0.814480	0.832004
Cl697	Cl	0.426778	-0.437104	-0.000021
Cl698	Cl	0.676778	-0.187104	0.249979
Cl699	Cl	0.926778	0.062896	0.499979
Cl700	Cl	1.176778	0.312896	0.749979
Cl701	Cl	0.475762	-0.033060	-0.362886
Cl702	Cl	0.725762	0.216940	-0.112886
Cl703	Cl	0.975762	0.466940	0.137114
Cl704	Cl	1.225762	0.716940	0.387114
H705	H	0.423814	0.065414	0.082003
H706	H	0.673814	0.315414	0.332003
H707	H	0.923814	0.565414	0.582003
H708	H	1.173814	0.815414	0.832003
H709	H	0.040677	0.061488	0.127207
H710	H	0.290677	0.311488	0.377207
H711	H	0.540677	0.561488	0.627207
H712	H	0.790677	0.811488	0.877207
Cl713	Cl	-0.061929	0.060442	0.147234
Cl714	Cl	0.188071	0.310442	0.397234
Cl715	Cl	0.438071	0.560442	0.647234
Cl716	Cl	0.688071	0.810442	0.897234
H717	H	0.493226	-0.165375	-0.000066
H718	H	0.743226	0.084625	0.249934
H719	H	0.993226	0.334625	0.499934
H720	H	1.243226	0.584625	0.749934
Cl721	Cl	0.667501	-0.702612	-0.000059
Cl722	Cl	0.917501	-0.452612	0.249941
Cl723	Cl	1.167501	-0.202612	0.499941
Cl724	Cl	1.417501	0.047388	0.749941
Cl725	Cl	0.504899	-0.003900	-0.877580
Cl726	Cl	0.754899	0.246100	-0.627580
Cl727	Cl	1.004899	0.496100	-0.377580
Cl728	Cl	1.254899	0.746100	-0.127580
Cl729	Cl	0.474750	-0.060044	-0.000057
Cl730	Cl	0.724750	0.189956	0.249943
Cl731	Cl	0.974750	0.439956	0.499943
Cl732	Cl	1.224750	0.689956	0.749943
H733	H	0.694301	-0.485260	-0.000060
H734	H	0.944301	-0.235260	0.249940
H735	H	1.194301	0.014740	0.499940
H736	H	1.444301	0.264740	0.749940
H737	H	0.488661	-0.020157	-0.531103
H738	H	0.738661	0.229843	-0.281103
H739	H	0.988661	0.479843	-0.031103
H740	H	1.238661	0.729843	0.218897
Cl741	Cl	0.504832	-0.003956	-0.240511
Cl742	Cl	0.754832	0.246044	0.009489
Cl743	Cl	1.004832	0.496044	0.259489
Cl744	Cl	1.254832	0.746044	0.509489
H745	H	0.623294	0.114565	-0.134111
H746	H	0.873294	0.364565	0.115889
H747	H	1.123294	0.614565	0.365889
H748	H	1.373294	0.864565	0.615889
Cl749	Cl	0.504827	-0.003963	-0.122644
Cl750	Cl	0.754827	0.246037	0.127356
Cl751	Cl	1.004827	0.496037	0.377356
Cl752	Cl	1.254827	0.746037	0.627356
