data_functionalizedCrystal
_audit_creation_method	'MofGen! by Chris Wilmer'
_symmetry_space_group_name_H-M	'P1'
_symmetry_Int_Tables_number	1
_symmetry_cell_setting	triclinic
loop_
_symmetry_equiv_pos_as_xyz
  x,y,z
_cell_length_a	14.044220
_cell_length_b	19.188930
_cell_length_c	13.101039
_cell_angle_alpha	93.345801
_cell_angle_beta	86.340132
_cell_angle_gamma	88.166830
loop_
_atom_site_label
_atom_site_type_symbol
_atom_site_fract_x
_atom_site_fract_y
_atom_site_fract_z
O1	O	1.262233	0.164759	-0.085127
O2	O	0.986290	0.158685	-0.085152
O3	O	1.132223	0.060581	-0.085119
O4	O	1.116300	0.262863	-0.085160
O5	O	1.121753	0.067633	0.085309
O6	O	0.975820	0.165737	0.085275
O7	O	1.251762	0.171810	0.085300
Zn8	Zn	1.112128	0.169893	0.112347
Zn9	Zn	1.125924	0.160602	-0.112199
O10	O	1.105829	0.269914	0.085267
C11	C	0.945752	0.159553	0.000059
C12	C	0.840559	0.151623	0.000050
C13	C	0.647957	0.137129	0.000073
C14	C	0.590091	0.193363	0.000066
C15	C	0.482920	0.185298	0.000079
C16	C	0.755137	0.145193	0.000060
C17	C	1.126472	0.038063	0.000098
C18	C	1.124923	-0.039541	0.000106
C19	C	1.210553	-0.078939	0.000119
C20	C	1.209099	-0.151857	0.000103
C21	C	1.122010	-0.185374	0.000094
C22	C	1.036370	-0.145968	0.000075
C23	C	1.037827	-0.073051	0.000082
N24	N	1.051878	-0.295275	0.058088
N25	N	1.050500	-0.364543	0.058084
C26	C	1.117617	-0.405067	0.000073
N27	N	1.186177	-0.373707	-0.057921
N28	N	1.187558	-0.304433	-0.057913
C29	C	1.120421	-0.264440	0.000086
C30	C	1.201676	-0.523532	0.000066
C31	C	1.200219	-0.596452	0.000043
C32	C	1.027487	-0.590560	0.000026
C33	C	1.028947	-0.517642	0.000039
C34	C	1.116043	-0.484132	0.000064
C35	C	1.292301	0.170943	0.000087
C36	C	1.397494	0.178872	0.000089
C37	C	1.111580	0.292433	0.000048
C38	C	1.113129	0.370037	0.000033
N39	N	1.102720	0.176234	0.265593
N40	N	1.135340	0.154257	-0.265445
C41	C	1.089920	0.184867	0.474633
C42	C	1.148137	0.145626	0.525522
C43	C	1.141014	0.150429	0.641839
C44	C	1.097041	0.180064	0.358306
H45	H	0.617011	0.082932	0.000090
O46	O	1.295242	-0.046502	0.000091
C47	C	1.466406	-0.060041	0.000181
C48	C	1.370566	-0.096868	0.000189
H49	H	1.527329	-0.100744	0.000282
H50	H	1.475860	-0.029015	-0.071156
H51	H	1.466970	-0.023088	0.071491
H52	H	1.369933	-0.133854	-0.071073
H53	H	1.361150	-0.127849	0.071574
H54	H	1.278831	-0.183941	0.000109
O55	O	0.626953	0.258046	0.000215
C56	C	0.632243	0.371481	0.088417
C57	C	0.590432	0.298255	0.088397
H58	H	0.602717	0.404016	0.159694
H59	H	0.713353	0.366589	0.088471
H60	H	0.611561	0.398065	0.017050
H61	H	0.611042	0.271630	0.159752
H62	H	0.509330	0.303195	0.088290
O63	O	1.024042	0.229158	0.526978
C64	C	0.887246	0.240994	0.648236
C65	C	0.961804	0.190758	0.589020
H66	H	0.836895	0.209966	0.698394
H67	H	0.925031	0.280403	0.698526
H68	H	0.844575	0.269806	0.591560
H69	H	1.004497	0.161898	0.645622
H70	H	0.923962	0.151394	0.538714
H71	H	0.965462	-0.173262	0.000066
H72	H	0.968095	-0.040974	0.000072
H73	H	0.956578	-0.617849	0.000014
O74	O	1.283489	-0.634618	0.000100
C75	C	1.454968	-0.632765	0.000077
C76	C	1.360734	-0.589455	0.000036
H77	H	1.517447	-0.596270	0.000003
H78	H	1.454280	-0.664093	0.071412
H79	H	1.462940	-0.670006	-0.071235
H80	H	1.352702	-0.552177	0.071299
H81	H	1.361464	-0.558175	-0.071347
O82	O	0.945675	-0.479470	0.000085
C83	C	0.774201	-0.481326	0.000010
C84	C	0.868439	-0.524639	-0.000015
H85	H	0.711733	-0.517827	-0.000093
H86	H	0.766118	-0.444116	0.071354
H87	H	0.774998	-0.449964	-0.071294
H88	H	0.867708	-0.556043	0.071240
H89	H	0.876486	-0.561805	-0.071406
H90	H	1.272595	-0.496247	0.000082
O91	O	1.213783	0.101164	0.473132
C92	C	1.280516	0.055535	0.307746
C93	C	1.206260	0.106014	0.366954
H94	H	1.274445	0.059428	0.221891
H95	H	1.355283	0.069961	0.328535
H96	H	1.266749	-0.000197	0.328989
H97	H	1.219938	0.161762	0.345742
H98	H	1.131518	0.091528	0.346160
