data_functionalizedCrystal
_audit_creation_method	'MofGen! by Chris Wilmer'
_symmetry_space_group_name_H-M	'P1'
_symmetry_Int_Tables_number	1
_symmetry_cell_setting	triclinic
loop_
_symmetry_equiv_pos_as_xyz
  x,y,z
_cell_length_a	15.021413
_cell_length_b	15.995350
_cell_length_c	15.995292
_cell_angle_alpha	96.519505
_cell_angle_beta	89.992792
_cell_angle_gamma	89.996331
loop_
_atom_site_label
_atom_site_type_symbol
_atom_site_fract_x
_atom_site_fract_y
_atom_site_fract_z
O1	O	0.073950	-1.110968	0.107918
O2	O	0.073968	-0.867190	0.121246
O3	O	0.073960	-0.995768	-0.007309
O4	O	0.073958	-0.982389	0.236473
O5	O	-0.074104	-0.995747	-0.007290
O6	O	-0.074096	-0.867169	0.121265
O7	O	-0.074114	-1.110947	0.107937
Zn8	Zn	-0.097614	-0.989055	0.114604
Zn9	Zn	0.097467	-0.989082	0.114579
O10	O	-0.074106	-0.982369	0.236492
C11	C	-0.000062	-0.835985	0.120704
C12	C	-0.000055	-0.743035	0.119053
N13	N	-0.230751	-0.989043	0.114620
C14	C	-0.000070	-0.995213	-0.038495
C15	C	-0.000063	-0.993581	-0.131448
C16	C	-0.470431	-0.929579	0.174035
C17	C	-0.529771	-1.005234	0.190287
C18	C	-0.412358	-0.989064	0.114599
C19	C	-0.529760	-0.913429	0.098366
C20	C	-0.587782	-0.989078	0.114580
C21	C	-0.470392	-1.064758	0.130888
C22	C	-0.470375	-0.972903	0.038934
C23	C	-0.529689	-1.048613	0.055153
C24	C	-0.311301	-0.989055	0.114611
C25	C	-0.688837	-0.989096	0.114567
N26	N	0.230605	-0.989101	0.114557
C27	C	-0.000082	-1.142152	0.108479
C28	C	-0.000083	-1.235102	0.110130
C29	C	-0.000074	-0.405288	0.113120
C30	C	-0.000403	-0.452742	0.021566
C31	C	-0.000063	-0.549431	0.023218
C32	C	-0.000065	-0.572848	0.116063
C33	C	0.084483	-0.531764	0.161210
C34	C	0.084548	-0.435128	0.158910
C35	C	-0.083829	-0.434766	0.160823
C36	C	-0.084940	-0.531711	0.160801
C37	C	-0.000057	-0.667546	0.117731
C38	C	-0.000075	-0.310591	0.111455
C39	C	-0.000071	-0.987580	-0.469186
C40	C	-0.000408	-1.080384	-0.445874
C41	C	-0.000072	-1.082148	-0.349199
C42	C	-0.000068	-0.990557	-0.301631
C43	C	0.084485	-0.944171	-0.330742
C44	C	0.084553	-0.943054	-0.427533
C45	C	-0.083824	-0.941136	-0.427369
C46	C	-0.084938	-0.944575	-0.330876
C47	C	-0.000063	-0.992235	-0.206934
C48	C	-0.000070	-0.985899	-0.563882
C49	C	-0.000074	-0.982924	0.267678
C50	C	-0.000075	-0.984556	0.360631
H51	H	-0.555860	-1.018917	0.254267
C52	C	-0.435269	-0.861691	0.241988
C53	C	-0.334296	-0.848724	0.253970
C54	C	-0.299132	-0.780842	0.321923
C55	C	-0.364941	-0.725927	0.377894
C56	C	-0.465921	-0.738893	0.365914
C57	C	-0.501084	-0.806775	0.297961
H58	H	-0.285574	-0.889377	0.212535
H59	H	-0.224380	-0.771244	0.330791
H60	H	-0.338911	-0.675677	0.428197
H61	H	-0.514642	-0.698241	0.407349
H62	H	-0.575836	-0.816373	0.289093
H63	H	-0.444424	-1.128741	0.144686
H64	H	0.147751	-0.416835	0.125971
C65	C	-0.084610	-0.391840	0.252013
C66	C	-0.009659	-0.330344	0.283081
C67	C	-0.010432	-0.287415	0.374268
C68	C	-0.086156	-0.305981	0.434387
C69	C	-0.161113	-0.367480	0.403320
C70	C	-0.160340	-0.410410	0.312133
H71	H	0.046401	-0.316597	0.238577
H72	H	0.045057	-0.241889	0.397265
H73	H	-0.086728	-0.274202	0.501889
H74	H	-0.217173	-0.381227	0.447825
H75	H	-0.215828	-0.455935	0.289136
C76	C	0.088742	-0.550826	0.253357
C77	C	0.088393	-0.478135	0.325271
C78	C	0.092651	-0.497199	0.417419
C79	C	0.097257	-0.588954	0.437652
C80	C	0.097606	-0.661651	0.365736
C81	C	0.093348	-0.642587	0.273589
H82	H	0.084983	-0.410207	0.310295
H83	H	0.092393	-0.443383	0.470655
H84	H	0.100409	-0.603066	0.505865
H85	H	0.101016	-0.729579	0.380712
H86	H	0.093606	-0.696403	0.220352
C87	C	-0.081928	-0.587845	-0.024741
C88	C	-0.148071	-0.530548	-0.064813
C89	C	-0.229933	-0.568958	-0.112782
C90	C	-0.245652	-0.664665	-0.120679
C91	C	-0.179507	-0.721968	-0.080606
C92	C	-0.097644	-0.683558	-0.032637
H93	H	-0.136437	-0.459695	-0.058968
H94	H	-0.278898	-0.526539	-0.142447
H95	H	-0.306251	-0.693098	-0.156189
H96	H	-0.191141	-0.792821	-0.086451
H97	H	-0.048679	-0.725977	-0.002972
C98	C	0.169491	-0.987709	-0.303663
C99	C	0.236901	-0.938226	-0.244728
C100	C	0.321905	-0.981770	-0.217652
C101	C	0.339499	-1.074796	-0.249512
C102	C	0.272087	-1.124285	-0.308452
C103	C	0.187084	-1.080741	-0.335527
H104	H	0.223878	-0.869358	-0.221140
H105	H	0.371807	-0.945135	-0.174021
H106	H	0.402424	-1.107030	-0.229469
H107	H	0.285110	-1.193153	-0.332040
H108	H	0.137181	-1.117376	-0.379158
H109	H	-0.060681	-1.118477	-0.330166
H110	H	-0.147489	-0.559026	0.127844
H111	H	-0.061045	-1.116147	-0.473864
H112	H	-0.555544	-1.098978	0.004879
C113	C	-0.435092	-0.954389	-0.047470
C114	C	-0.458468	-0.870707	-0.081262
C115	C	-0.423183	-0.852182	-0.167665
C116	C	-0.364521	-0.917340	-0.220275
C117	C	-0.341142	-1.001028	-0.186484
C118	C	-0.376428	-1.019552	-0.100081
H119	H	-0.501896	-0.822468	-0.042315
H120	H	-0.440490	-0.790231	-0.192679
H121	H	-0.338401	-0.903627	-0.284236
H122	H	-0.297715	-1.049266	-0.225431
H123	H	-0.359121	-1.081504	-0.075067
C124	C	-0.170432	-0.980307	-0.465556
C125	C	-0.238687	-1.018575	-0.408949
C126	C	-0.325302	-1.057714	-0.447153
C127	C	-0.343662	-1.058586	-0.541963
C128	C	-0.275406	-1.020317	-0.598575
C129	C	-0.188791	-0.981178	-0.560372
H130	H	-0.225097	-1.017931	-0.338760
H131	H	-0.375830	-1.086044	-0.405244
H132	H	-0.407780	-1.087560	-0.570244
H133	H	-0.288996	-1.020961	-0.668765
H134	H	-0.138263	-0.952849	-0.602281
C135	C	0.169494	-0.570097	0.118821
C136	C	0.162371	-0.638624	0.043303
C137	C	0.247379	-0.676952	0.000905
C138	C	0.339509	-0.646752	0.034024
C139	C	0.346635	-0.578220	0.109546
C140	C	0.261627	-0.539893	0.151944
H141	H	0.094168	-0.660983	0.018783
H142	H	0.242103	-0.727683	-0.055001
H143	H	0.402437	-0.675124	0.002638
H144	H	0.414839	-0.555861	0.134066
H145	H	0.266903	-0.489162	0.207850
C146	C	-0.082304	-0.427706	-0.027873
C147	C	-0.149890	-0.363866	0.014280
C148	C	-0.231791	-0.338819	-0.035161
C149	C	-0.246106	-0.377612	-0.126756
C150	C	-0.178518	-0.441456	-0.168914
C151	C	-0.096617	-0.466503	-0.119472
H152	H	-0.139295	-0.335146	0.082088
H153	H	-0.281824	-0.291558	-0.003953
H154	H	-0.306733	-0.359071	-0.163356
H155	H	-0.189113	-0.470176	-0.236722
H156	H	-0.046584	-0.513764	-0.150681
C157	C	0.081051	-0.426295	-0.027665
C158	C	0.147771	-0.361855	0.014902
C159	C	0.229228	-0.335408	-0.034326
C160	C	0.243964	-0.373400	-0.126120
C161	C	0.177241	-0.437843	-0.168691
C162	C	0.095785	-0.464291	-0.119463
H163	H	0.136865	-0.333728	0.082857
H164	H	0.278620	-0.287702	-0.002811
H165	H	0.304262	-0.353822	-0.162561
H166	H	0.188148	-0.465971	-0.236647
H167	H	0.046393	-0.511996	-0.150978
C168	C	0.081960	-0.587092	-0.025064
C169	C	0.069781	-0.652429	-0.102651
C170	C	0.151810	-0.690087	-0.150936
C171	C	0.246016	-0.662408	-0.121633
C172	C	0.258199	-0.597067	-0.044042
C173	C	0.176171	-0.559409	0.004243
H174	H	0.000040	-0.672922	-0.124347
H175	H	0.142791	-0.738456	-0.208374
H176	H	0.306739	-0.690285	-0.157376
H177	H	0.327940	-0.576574	-0.022346
H178	H	0.185190	-0.511040	0.061681
C179	C	0.089745	-0.391532	0.249709
C180	C	0.168384	-0.332848	0.276726
C181	C	0.173589	-0.289254	0.367522
C182	C	0.100156	-0.304343	0.431300
C183	C	0.021512	-0.363029	0.404284
C184	C	0.016306	-0.406624	0.313489
H185	H	0.222748	-0.321676	0.229513
H186	H	0.231808	-0.245810	0.387520
H187	H	0.104010	-0.272071	0.498512
H188	H	-0.032853	-0.374201	0.451498
H189	H	-0.041912	-0.450067	0.293490
C190	C	0.081952	-1.131528	-0.324339
C191	C	0.094162	-1.224313	-0.360158
C192	C	0.176193	-1.273691	-0.335300
C193	C	0.246015	-1.230283	-0.274623
C194	C	0.233808	-1.137493	-0.238800
C195	C	0.151777	-1.088115	-0.263658
H196	H	0.042474	-1.256450	-0.405078
H197	H	0.185230	-1.342380	-0.361819
H198	H	0.306740	-1.266836	-0.256222
H199	H	0.285496	-1.105356	-0.193880
H200	H	0.142740	-1.019425	-0.237139
H201	H	0.059883	-1.115965	-0.474899
H202	H	-0.555840	-0.849460	0.084644
C203	C	-0.091831	-0.854257	-0.286344
C204	C	-0.092104	-0.778984	-0.338425
C205	C	-0.098985	-0.688662	-0.293894
C206	C	-0.105593	-0.673612	-0.197281
C207	C	-0.105321	-0.748886	-0.145194
C208	C	-0.098439	-0.839209	-0.189726
H209	H	-0.087211	-0.790124	-0.409949
H210	H	-0.099187	-0.632939	-0.332452
H211	H	-0.110687	-0.606749	-0.164316
H212	H	-0.110213	-0.737747	-0.073671
H213	H	-0.098238	-0.894931	-0.151167
H214	H	0.087631	-0.876773	-0.298875
H215	H	-0.090048	-0.547061	0.228507
C216	C	0.169928	-0.986481	-0.463778
C217	C	0.237570	-1.021933	-0.404621
C218	C	0.322946	-1.065364	-0.440862
C219	C	0.340680	-1.073342	-0.536261
C220	C	0.273035	-1.037889	-0.595424
C221	C	0.187659	-0.994459	-0.559183
H222	H	0.224444	-1.016028	-0.333996
H223	H	0.373021	-1.091608	-0.397065
H224	H	0.403880	-1.105492	-0.563089
H225	H	0.286161	-1.043794	-0.666049
H226	H	0.137585	-0.968214	-0.602980
C227	C	-0.084600	-0.848854	-0.446273
C228	C	-0.009647	-0.815764	-0.499382
C229	C	-0.010416	-0.723487	-0.518294
C230	C	-0.086138	-0.664300	-0.484096
C231	C	-0.161097	-0.697390	-0.430984
C232	C	-0.160328	-0.789667	-0.412073
H233	H	0.046412	-0.859578	-0.524700
H234	H	0.045074	-0.698993	-0.557611
H235	H	-0.086708	-0.595992	-0.498095
H236	H	-0.217157	-0.653575	-0.405666
H237	H	-0.215818	-0.814161	-0.372755
H238	H	0.088386	-0.875010	-0.442083
H239	H	-0.147490	-0.978351	-0.312303
H240	H	-0.147915	-0.414228	0.130899
