data_functionalizedCrystal
_audit_creation_method	'MofGen! by Chris Wilmer'
_symmetry_space_group_name_H-M	'P1'
_symmetry_Int_Tables_number	1
_symmetry_cell_setting	triclinic
loop_
_symmetry_equiv_pos_as_xyz
  x,y,z
_cell_length_a	16.959455
_cell_length_b	25.639240
_cell_length_c	16.959447
_cell_angle_alpha	90.040258
_cell_angle_beta	90.014322
_cell_angle_gamma	90.029705
loop_
_atom_site_label
_atom_site_type_symbol
_atom_site_fract_x
_atom_site_fract_y
_atom_site_fract_z
Zn1	Zn	1.208314	-0.208183	0.446854
Zn2	Zn	1.208207	-0.295624	0.314653
Zn3	Zn	1.076143	-0.208199	0.314692
Zn4	Zn	1.076078	-0.295585	0.446791
O5	O	1.142185	-0.251898	0.380747
O6	O	1.318911	-0.219792	0.429327
O7	O	1.190671	-0.284050	0.204047
O8	O	1.093747	-0.135032	0.332266
O9	O	1.318832	-0.284034	0.332199
O10	O	1.190853	-0.135020	0.429365
O11	O	1.093644	-0.219820	0.204075
O12	O	0.965523	-0.219782	0.332205
O13	O	1.093637	-0.283967	0.557410
O14	O	0.965476	-0.283983	0.429258
O15	O	1.190790	-0.219754	0.557457
O16	O	1.190608	-0.368784	0.332138
O17	O	1.093533	-0.368755	0.429220
C18	C	0.936819	-0.251880	0.380729
C19	C	0.848963	-0.251886	0.380740
C20	C	1.142074	-0.387740	0.380685
C21	C	1.142098	-0.445854	0.380685
C22	C	0.477487	-0.218441	0.330317
C23	C	0.477487	-0.285398	0.431222
C24	C	0.560033	-0.285390	0.431218
C25	C	0.601310	-0.251908	0.380761
C26	C	0.560041	-0.218433	0.330309
C27	C	0.601308	-0.318868	0.481663
C28	C	0.683859	-0.318863	0.481659
C29	C	0.725137	-0.285377	0.431206
C30	C	0.683863	-0.251901	0.380753
C31	C	0.725140	-0.218418	0.330297
C32	C	0.683868	-0.184939	0.279847
C33	C	0.601319	-0.184948	0.279856
C34	C	0.807686	-0.285368	0.431197
C35	C	0.807694	-0.218411	0.330288
C36	C	1.192774	-0.806173	0.431398
C37	C	1.192797	-0.860777	0.431414
O38	O	1.235750	-0.888976	0.474468
N39	N	1.142295	-0.888137	0.380824
C40	C	1.091761	-0.860889	0.330220
O41	O	1.048807	-0.889175	0.287190
C42	C	1.091734	-0.806286	0.330208
C43	C	1.142245	-0.778929	0.380796
C44	C	1.243280	-0.778816	0.481983
C45	C	1.243257	-0.724215	0.481965
C46	C	1.192729	-0.696972	0.431364
C47	C	1.142223	-0.724329	0.380779
C48	C	1.041197	-0.779040	0.279609
C49	C	1.041174	-0.724433	0.279602
C50	C	1.091685	-0.697076	0.330190
C51	C	1.091672	-0.642485	0.330160
N52	N	1.142173	-0.615125	0.380750
C53	C	1.192702	-0.642368	0.431352
C54	C	1.091820	-0.975560	0.330249
C55	C	1.091850	-1.030162	0.330255
C56	C	1.192885	-1.030046	0.431451
C57	C	1.192858	-0.975443	0.431440
C58	C	1.142322	-0.948200	0.380839
C59	C	1.192651	-0.527703	0.431311
C60	C	1.192627	-0.473098	0.431287
C61	C	1.091589	-0.473219	0.330095
C62	C	1.091616	-0.527819	0.330116
C63	C	1.142150	-0.555060	0.380730
O64	O	1.048738	-0.614251	0.287130
O65	O	1.235641	-0.614076	0.474381
C66	C	1.348354	-0.251915	0.380766
C67	C	1.436210	-0.251923	0.380774
C68	C	1.142218	-0.251854	0.586916
C69	C	1.142232	-0.251836	0.674772
C70	C	1.142319	-0.115525	0.380827
C71	C	1.142376	-0.057411	0.380861
C72	C	1.142198	-0.251903	0.175381
C73	C	1.142337	-0.251774	0.087525
C74	C	1.091744	-0.285214	1.046227
C75	C	1.192910	-0.218348	1.046270
C76	C	1.192889	-0.218359	0.963724
C77	C	1.142295	-0.251799	0.922425
C78	C	1.091723	-0.285227	0.963673
C79	C	1.243467	-0.184935	0.922470
C80	C	1.243448	-0.184945	0.839919
C81	C	1.192850	-0.218382	0.798619
C82	C	1.142274	-0.251812	0.839872
C83	C	1.091681	-0.285251	0.798573
C84	C	1.041101	-0.318679	0.839825
C85	C	1.041124	-0.318665	0.922373
C86	C	1.192826	-0.218396	0.716071
C87	C	1.091660	-0.285265	0.716020
H88	H	0.841296	-0.191142	0.289205
H89	H	1.234106	-0.191126	1.079900
H90	H	1.050493	-0.550095	0.288916
H91	H	1.000066	-0.801305	0.238414
H92	H	0.999911	-0.345907	0.806189
H93	H	1.050669	-0.953382	0.289037
H94	H	0.717456	-0.346123	0.522739
H95	H	0.841286	-0.312628	0.472270
H96	H	1.000019	-0.702255	0.238397
H97	H	0.717486	-0.157680	0.238762
H98	H	1.050452	-0.451029	0.288893
H99	H	1.234010	-0.191182	0.682488
H100	H	1.284426	-0.800991	0.523194
H101	H	0.567694	-0.346132	0.522736
H102	H	1.284662	-0.157713	0.956101
H103	H	1.233795	-0.549876	0.472532
H104	H	0.567708	-0.157691	0.238782
H105	H	1.233761	-0.450825	0.472482
H106	H	0.443880	-0.191181	0.289245
H107	H	0.443874	-0.312661	0.472297
H108	H	1.284385	-0.701944	0.523161
H109	H	1.233988	-0.953172	0.472633
H110	H	1.234027	-1.052238	0.472656
H111	H	1.050728	-1.052432	0.289053
H112	H	0.999947	-0.345881	0.955967
H113	H	1.050452	-0.312491	0.682401
H114	H	1.050560	-0.312428	1.079817
H115	H	1.284633	-0.157726	0.806339
