data_functionalizedCrystal
_audit_creation_method	'MofGen! by Chris Wilmer'
_symmetry_space_group_name_H-M	'P1'
_symmetry_Int_Tables_number	1
_symmetry_cell_setting	triclinic
loop_
_symmetry_equiv_pos_as_xyz
  x,y,z
_cell_length_a	12.837943
_cell_length_b	12.811424
_cell_length_c	11.295483
_cell_angle_alpha	88.701207
_cell_angle_beta	94.538773
_cell_angle_gamma	90.587933
loop_
_atom_site_label
_atom_site_type_symbol
_atom_site_fract_x
_atom_site_fract_y
_atom_site_fract_z
O1	O	1.385594	-0.264766	0.127593
O2	O	1.083629	-0.251374	0.126154
O3	O	1.241060	-0.107087	0.110563
O4	O	1.228164	-0.409054	0.143185
O5	O	1.227232	-0.119738	-0.086121
O6	O	1.069802	-0.264026	-0.070530
O7	O	1.371767	-0.277418	-0.069091
Cu8	Cu	1.219522	-0.271877	-0.087769
Cu9	Cu	1.235874	-0.256915	0.144832
O10	O	1.214336	-0.421705	-0.053499
C11	C	1.038041	-0.253176	0.027325
C12	C	0.922803	-0.239684	0.025870
C13	C	0.683780	-0.401887	0.043376
C14	C	0.575503	-0.389215	0.042009
C15	C	0.597970	-0.201667	0.021761
C16	C	0.706247	-0.214340	0.023128
C17	C	0.749147	-0.314453	0.033938
C18	C	0.857427	-0.327124	0.035313
C19	C	0.879891	-0.139578	0.015056
C20	C	0.771614	-0.126906	0.013689
C21	C	1.232999	-0.074494	0.008019
C22	C	1.229571	0.041474	-0.004502
C23	C	1.238186	0.273174	0.186420
C24	C	1.234964	0.382136	0.174662
C25	C	1.219899	0.368362	-0.039775
C26	C	1.223121	0.259400	-0.028017
C27	C	1.232265	0.211810	0.085084
C28	C	1.235494	0.102846	0.096842
C29	C	1.220422	0.089074	-0.117595
C30	C	1.217201	0.198036	-0.129353
C31	C	1.417355	-0.275616	0.029742
C32	C	1.532594	-0.289108	0.031204
C33	C	1.222396	0.545701	0.049045
C34	C	1.225823	0.429734	0.061568
N35	N	1.208027	-0.282400	-0.251368
C36	C	1.330117	-0.170573	-0.512741
C37	C	1.321439	-0.178533	-0.636545
C38	C	1.181987	-0.306277	-0.622781
C39	C	1.190665	-0.298316	-0.498978
C40	C	1.264734	-0.230463	-0.443962
C41	C	1.273417	-0.222508	-0.320156
C42	C	1.133961	-0.350245	-0.306395
C43	C	1.125282	-0.358206	-0.430199
N44	N	1.247377	-0.246384	0.308431
H45	H	0.933127	-0.068382	0.007379
H46	H	0.736668	-0.045397	0.004875
C47	C	1.043803	-0.432832	-0.490731
N48	N	0.982431	-0.489042	-0.536323
H49	H	1.080725	-0.399015	-0.250381
C50	C	1.245550	0.050498	0.221255
N51	N	1.253120	0.011073	0.314966
C52	C	1.248251	0.220822	0.310831
N53	N	1.255830	0.181393	0.404540
H54	H	1.215605	0.039100	-0.200110
C55	C	0.550758	-0.091552	0.009858
N56	N	0.515196	-0.008612	0.000892
H57	H	0.892355	-0.408641	0.044113
H58	H	1.390434	-0.115332	-0.467947
C59	C	1.241502	0.449633	0.286140
N60	N	1.246434	0.500473	0.370110
H61	H	0.718710	-0.483403	0.052180
C62	C	1.354891	-0.147866	-0.259641
N63	N	1.416256	-0.091640	-0.214066
H64	H	0.522283	-0.460414	0.049692
C65	C	1.207138	0.250398	-0.253758
N66	N	1.199560	0.289836	-0.347463
C67	C	1.209818	0.420730	-0.164177
N68	N	1.202220	0.460175	-0.257878
H69	H	1.374679	-0.129764	-0.692542
C70	C	1.100492	-0.380882	-0.683323
N71	N	1.039103	-0.437068	-0.728926
