data_functionalizedCrystal
_audit_creation_method	'MofGen! by Chris Wilmer'
_symmetry_space_group_name_H-M	'P1'
_symmetry_Int_Tables_number	1
_symmetry_cell_setting	triclinic
loop_
_symmetry_equiv_pos_as_xyz
  x,y,z
_cell_length_a	17.019383
_cell_length_b	17.038272
_cell_length_c	15.072220
_cell_angle_alpha	89.999202
_cell_angle_beta	86.111534
_cell_angle_gamma	87.246883
loop_
_atom_site_label
_atom_site_type_symbol
_atom_site_fract_x
_atom_site_fract_y
_atom_site_fract_z
O1	O	1.053374	0.099648	-0.154187
O2	O	1.553374	0.599648	0.345813
O3	O	0.824561	0.112338	-0.136724
O4	O	1.324561	0.612338	0.363276
O5	O	0.937607	-0.007821	-0.145345
O6	O	1.437607	0.492179	0.354655
O7	O	0.940327	0.219807	-0.145566
O8	O	1.440327	0.719807	0.354434
O9	O	0.937578	-0.007815	0.002223
O10	O	1.437578	0.492185	0.502223
O11	O	0.824531	0.112344	0.010844
O12	O	1.324531	0.612344	0.510844
O13	O	1.053344	0.099655	-0.006620
O14	O	1.553344	0.599655	0.493380
Zn15	Zn	0.938933	0.106001	0.025542
Zn16	Zn	1.438933	0.606001	0.525542
Zn17	Zn	0.938972	0.105992	-0.168885
Zn18	Zn	1.438972	0.605992	0.331115
O19	O	0.940298	0.219814	0.002001
O20	O	1.440298	0.719814	0.502001
C21	C	0.795125	0.111858	-0.060694
C22	C	1.295125	0.611858	0.439306
C23	C	0.707457	0.110409	-0.054003
C24	C	1.207457	0.610409	0.445997
C25	C	0.666280	0.109727	-0.131292
C26	C	1.166280	0.609727	0.368708
C27	C	0.583907	0.108378	-0.124992
C28	C	1.083907	0.608378	0.375008
C29	C	0.542712	0.107706	-0.041403
C30	C	1.042712	0.607706	0.458597
C31	C	0.583895	0.108391	0.035892
C32	C	1.083895	0.608391	0.535892
C33	C	0.666267	0.109745	0.029591
C34	C	1.166267	0.609745	0.529591
C35	C	0.294002	0.103622	-0.018354
C36	C	0.794002	0.603622	0.481646
C37	C	0.211625	0.102266	-0.012059
C38	C	0.711625	0.602266	0.487941
C39	C	0.211642	0.102254	-0.172944
C40	C	0.711642	0.602254	0.327056
C41	C	0.294016	0.103604	-0.179237
C42	C	0.794016	0.603604	0.320763
C43	C	0.335191	0.104293	-0.101943
C44	C	0.835191	0.604293	0.398057
C45	C	0.458514	0.106325	-0.034961
C46	C	0.958514	0.606325	0.465039
C47	C	0.419388	0.105679	-0.108385
C48	C	0.919388	0.605679	0.391615
C49	C	0.935119	-0.036944	-0.071372
C50	C	1.435119	0.463056	0.428628
C51	C	0.927739	-0.123731	-0.070809
C52	C	1.427739	0.376269	0.429191
C53	C	0.995499	-0.173900	-0.075980
C54	C	1.495499	0.326100	0.424020
C55	C	0.988560	-0.255445	-0.075459
C56	C	1.488560	0.244555	0.424541
C57	C	0.913859	-0.286820	-0.069760
C58	C	1.413859	0.213180	0.430240
C59	C	0.846094	-0.236644	-0.064592
C60	C	1.346094	0.263356	0.435408
C61	C	0.853034	-0.155101	-0.065120
C62	C	1.353034	0.344899	0.434880
C63	C	0.889341	-0.532558	-0.067901
C64	C	1.389341	-0.032558	0.432099
C65	C	0.882406	-0.614107	-0.067371
C66	C	1.382406	-0.114107	0.432629
C67	C	1.024873	-0.632903	-0.078240
C68	C	1.524873	-0.132903	0.421760
C69	C	1.031806	-0.551357	-0.078761
C70	C	1.531806	-0.051357	0.421239
C71	C	0.964041	-0.501189	-0.073598
C72	C	1.464041	-0.001189	0.426402
C73	C	0.906764	-0.370171	-0.069225
C74	C	1.406764	0.129829	0.430775
C75	C	0.971136	-0.417839	-0.074140
C76	C	1.471136	0.082161	0.425860
C77	C	1.082781	0.100134	-0.082651
C78	C	1.582781	0.600134	0.417349
C79	C	1.170448	0.101583	-0.089348
C80	C	1.670448	0.601583	0.410652
C81	C	0.942786	0.248937	-0.071973
C82	C	1.442786	0.748937	0.428027
C83	C	0.950167	0.335724	-0.072542
C84	C	1.450167	0.835724	0.427458
N85	N	0.938912	0.106006	0.158232
N86	N	1.438912	0.606006	0.658232
N87	N	0.938999	0.105980	-0.301576
N88	N	1.438999	0.605980	0.198424
C89	C	0.938970	0.105989	0.517429
C90	C	1.438970	0.605989	1.017429
C91	C	0.878249	0.170068	0.484453
C92	C	1.378249	0.670068	0.984453
C93	C	0.878414	0.170302	0.381614
C94	C	1.378414	0.670302	0.881614
C95	C	0.938941	0.105997	0.339227
C96	C	1.438941	0.605997	0.839227
C97	C	1.022438	0.123726	0.370145
C98	C	1.522438	0.623726	0.870145
C99	C	1.022105	0.124181	0.473028
C100	C	1.522105	0.624181	0.973028
C101	C	0.916915	0.023990	0.481218
C102	C	1.416915	0.523990	0.981218
C103	C	0.915063	0.024539	0.378496
C104	C	1.415063	0.524539	0.878496
C105	C	0.938929	0.106001	0.238515
C106	C	1.438929	0.606001	0.738515
C107	C	0.938987	0.105987	0.618141
C108	C	1.438987	0.605987	1.118141
H109	H	1.056328	-0.148362	-0.080614
H110	H	1.556328	0.351638	0.419386
C111	C	0.794801	0.156063	0.353936
C112	C	1.294801	0.656063	0.853936
N113	N	0.731820	0.145344	0.333093
N114	N	1.231820	0.645344	0.833093
C115	C	0.339285	0.104371	0.066674
C116	C	0.839285	0.604371	0.566674
N117	N	0.373395	0.104933	0.130720
N118	N	0.873395	0.604933	0.630720
H119	H	0.857054	0.006920	0.511778
H120	H	1.357054	0.506920	1.011778
C121	C	0.976645	-0.040431	0.509522
C122	C	1.476645	0.459569	1.009522
N123	N	1.021636	-0.088948	0.530847
N124	N	1.521636	0.411052	1.030847
C125	C	0.339324	0.104330	-0.271193
C126	C	0.839324	0.604330	0.228807
N127	N	0.373451	0.104869	-0.340455
N128	N	0.873451	0.604869	0.159545
H129	H	0.785271	-0.262195	-0.059958
H130	H	1.285271	0.237805	0.440042
C131	C	0.538579	0.107653	0.127842
C132	C	1.038579	0.607653	0.627842
N133	N	0.504447	0.107093	0.197101
N134	N	1.004447	0.607093	0.697101
H135	H	0.955996	-0.025373	0.349666
H136	H	1.455996	0.474627	0.849666
C137	C	1.085249	0.062349	0.332297
C138	C	1.585249	0.562349	0.832297
N139	N	1.132557	0.016119	0.303788
N140	N	1.632557	0.516119	0.803788
H141	H	0.550384	0.107822	-0.187929
H142	H	1.050384	0.607822	0.312071
C143	C	0.711562	0.110493	0.114615
C144	C	1.211562	0.610493	0.614615
N145	N	0.745677	0.111059	0.178659
N146	N	1.245677	0.611059	0.678659
H147	H	1.080043	-0.673758	-0.082445
H148	H	1.580043	-0.173758	0.417555
H149	H	0.699815	0.110271	-0.199360
H150	H	1.199815	0.610271	0.300640
C151	C	0.464704	0.106416	-0.200331
C152	C	0.964704	0.606416	0.299669
N153	N	0.498844	0.106966	-0.269586
N154	N	0.998844	0.606966	0.230414
C155	C	1.047971	0.203596	0.333391
C156	C	1.547971	0.703596	0.833391
N157	N	1.067195	0.263757	0.305713
N158	N	1.567195	0.763757	0.805713
C159	C	0.897816	0.251815	0.517859
C160	C	1.397816	0.751815	1.017859
N161	N	0.912556	0.313386	0.543022
N162	N	1.412556	0.813386	1.043022
H163	H	1.043737	-0.296290	-0.079667
H164	H	1.543737	0.203710	0.420333
H165	H	1.040704	0.183980	0.495586
H166	H	1.540704	0.683980	0.995586
H167	H	0.424964	0.105776	0.033098
H168	H	0.924964	0.605776	0.533098
H169	H	0.893067	0.231154	0.355878
H170	H	1.393067	0.731154	0.855878
H171	H	1.092635	-0.525819	-0.083401
H172	H	1.592635	-0.025819	0.416599
H173	H	0.178108	0.101695	-0.235873
H174	H	0.678108	0.601695	0.264127
H175	H	1.068991	0.079344	0.494327
H176	H	1.568991	0.579344	0.994327
H177	H	0.178086	0.101741	0.056014
H178	H	0.678086	0.601741	0.556014
H179	H	0.821574	-0.639649	-0.062717
H180	H	1.321574	-0.139649	0.437283
H181	H	0.853614	0.011083	0.358814
H182	H	1.353614	0.511083	0.858814
H183	H	1.031957	-0.392290	-0.078799
H184	H	1.531957	0.107710	0.421201
H185	H	0.834162	-0.491720	-0.063696
H186	H	1.334162	0.008280	0.436304
C187	C	0.778492	-0.099915	-0.059429
C188	C	1.278492	0.400085	0.440571
N189	N	0.722345	-0.058349	-0.055146
N190	N	1.222345	0.441651	0.444854
C191	C	0.794390	0.156067	0.524326
C192	C	1.294390	0.656067	1.024326
N193	N	0.731225	0.145524	0.554370
N194	N	1.231225	0.645524	1.054370
C195	C	0.824596	-0.404692	-0.062938
C196	C	1.324596	0.095308	0.437062
N197	N	0.762706	-0.430695	-0.058200
N198	N	1.262706	0.069305	0.441800
