data_functionalizedCrystal
_audit_creation_method	'MofGen! by Chris Wilmer'
_symmetry_space_group_name_H-M	'P1'
_symmetry_Int_Tables_number	1
_symmetry_cell_setting	triclinic
loop_
_symmetry_equiv_pos_as_xyz
  x,y,z
_cell_length_a	19.805407
_cell_length_b	19.805405
_cell_length_c	19.805399
_cell_angle_alpha	90.028055
_cell_angle_beta	90.021725
_cell_angle_gamma	90.034402
loop_
_atom_site_label
_atom_site_type_symbol
_atom_site_fract_x
_atom_site_fract_y
_atom_site_fract_z
Zn1	Zn	-1.034704	0.269457	-0.382756
Zn2	Zn	-1.034605	0.382645	-0.269567
Zn3	Zn	-0.921519	0.269478	-0.269577
Zn4	Zn	-0.921469	0.382612	-0.382710
O5	O	-0.978074	0.326048	-0.326152
O6	O	-1.129407	0.284477	-0.367757
O7	O	-1.019584	0.367656	-0.174852
O8	O	-0.936595	0.174758	-0.284614
O9	O	-1.129335	0.367636	-0.284597
O10	O	-1.019752	0.174743	-0.367766
O11	O	-0.936499	0.284513	-0.174859
O12	O	-0.826795	0.284480	-0.284568
O13	O	-0.936510	0.367578	-0.477432
O14	O	-0.826759	0.367599	-0.367687
O15	O	-1.019703	0.284444	-0.477467
O16	O	-1.019535	0.477357	-0.284552
O17	O	-0.936414	0.477333	-0.367677
C18	C	-0.802218	0.326039	-0.326124
C19	C	-0.726986	0.326051	-0.326128
C20	C	-0.265236	0.282819	-0.369530
C21	C	-0.335925	0.282821	-0.369526
C22	C	-0.371224	0.326051	-0.326160
C23	C	-0.335832	0.369285	-0.282799
C24	C	-0.265145	0.369286	-0.282807
C25	C	-0.620905	0.369284	-0.282770
C26	C	-0.691597	0.369278	-0.282765
C27	C	-0.691685	0.282819	-0.369490
C28	C	-0.620998	0.282819	-0.369497
C29	C	-0.585612	0.326057	-0.326139
C30	C	-0.508963	0.326055	-0.326144
C31	C	-0.447872	0.326049	-0.326151
C32	C	-0.977977	0.501904	-0.326123
C33	C	-0.977998	0.577136	-0.326134
C34	C	-0.154617	0.326054	-0.326176
C35	C	-0.229849	0.326049	-0.326171
C36	C	-1.021268	0.612414	-0.369464
C37	C	-1.021284	0.683102	-0.369475
C38	C	-0.978034	0.718511	-0.326151
C39	C	-0.934759	0.683229	-0.282819
C40	C	-0.934739	0.612541	-0.282812
C41	C	-0.934835	0.968302	-0.282846
C42	C	-0.934859	1.038994	-0.282855
C43	C	-1.021380	1.038862	-0.369510
C44	C	-1.021361	0.968175	-0.369503
C45	C	-0.978084	0.932899	-0.326173
C46	C	-0.978066	0.856250	-0.326163
C47	C	-0.978055	0.795158	-0.326158
C48	C	-0.978112	0.326005	-0.502695
C49	C	-0.978128	0.325987	-0.577927
C50	C	-0.978162	1.149505	-0.326190
C51	C	-0.978127	1.074273	-0.326190
C52	C	-1.021448	0.282697	-0.613290
C53	C	-1.021455	0.282677	-0.683979
C54	C	-0.978145	0.325952	-0.719303
C55	C	-0.934821	0.369244	-0.683935
C56	C	-0.934811	0.369259	-0.613248
C57	C	-0.934859	0.369181	-0.969008
C58	C	-0.934873	0.369163	-1.039700
C59	C	-1.021503	0.282598	-1.039739
C60	C	-1.021493	0.282614	-0.969052
C61	C	-0.978166	0.325903	-0.933690
C62	C	-0.978159	0.325923	-0.857042
C63	C	-0.978156	0.325936	-0.795950
C64	C	-0.978075	0.326041	-0.150296
C65	C	-0.978190	0.325869	-0.075065
H66	H	-0.720336	0.404484	-0.247450
H67	H	-1.056779	0.247348	-1.068540
H68	H	-0.592102	0.404488	-0.247463
H69	H	-1.056763	0.247378	-0.940295
H70	H	-1.056524	0.711822	-0.404754
O71	O	-0.892732	0.411221	-1.073911
C72	C	-0.854499	0.449444	-1.027543
H73	H	-0.852165	0.421733	-0.977160
H74	H	-0.879244	0.500855	-1.020017
C75	C	-0.785328	0.493216	-1.116998
C76	C	-0.782456	0.459178	-1.055119
H77	H	-0.740889	0.499223	-1.134008
H78	H	-0.811087	0.467466	-1.148237
H79	H	-0.805952	0.536055	-1.110718
H80	H	-0.761840	0.416337	-1.061401
H81	H	-0.756691	0.484920	-1.023881
O82	O	-0.586740	0.240899	-0.411721
C83	C	-0.604050	0.255771	-0.479150
H84	H	-0.623453	0.309847	-0.482466
H85	H	-0.645110	0.219505	-0.496905
C86	C	-0.517452	0.181540	-0.520271
C87	C	-0.541278	0.247959	-0.524345
H88	H	-0.478732	0.176719	-0.548151
H89	H	-0.505791	0.171519	-0.474843
H90	H	-0.551674	0.151326	-0.535066
H91	H	-0.507058	0.278171	-0.509543
H92	H	-0.552931	0.257986	-0.569772
H93	H	-0.364579	0.404486	-0.247493
O94	O	-0.230693	0.411185	-0.240653
C95	C	-0.189817	0.372596	-0.196998
H96	H	-0.179268	0.321332	-0.220961
H97	H	-0.217039	0.365095	-0.146849
C98	C	-0.135601	0.472786	-0.155255
C99	C	-0.122640	0.409825	-0.184689
H100	H	-0.094164	0.495752	-0.147659
H101	H	-0.163141	0.498785	-0.184664
H102	H	-0.158287	0.466526	-0.113467
H103	H	-0.099962	0.416086	-0.226480
H104	H	-0.095094	0.383828	-0.155286
H105	H	-0.899599	0.939585	-0.247565
H106	H	-1.056732	0.247427	-0.712768
O107	O	-0.230874	0.240920	-0.411690
C108	C	-0.189997	0.279514	-0.455352
H109	H	-0.179365	0.330776	-0.431387
H110	H	-0.217260	0.287018	-0.505494
C111	C	-0.135939	0.179329	-0.497116
C112	C	-0.122875	0.242288	-0.467680
H113	H	-0.094536	0.156366	-0.504724
H114	H	-0.163480	0.153327	-0.467702
H115	H	-0.158659	0.185591	-0.538898
H116	H	-0.100163	0.236025	-0.425895
H117	H	-0.095329	0.268289	-0.497087
O118	O	-1.063302	0.578125	-0.411615
C119	C	-1.101507	0.624424	-0.449852
H120	H	-1.073796	0.674835	-0.452169
H121	H	-1.152931	0.631910	-0.425120
C122	C	-1.145242	0.534872	-0.519051
C123	C	-1.111203	0.596786	-0.521902
H124	H	-1.151226	0.517823	-0.563495
H125	H	-1.119505	0.503679	-0.493289
H126	H	-1.188091	0.541119	-0.498438
H127	H	-1.068351	0.590537	-0.542507
H128	H	-1.136933	0.627978	-0.547670
H129	H	-0.899528	0.404504	-0.584456
O130	O	-0.370195	0.240758	-0.411662
C131	C	-0.323881	0.202611	-0.449946
H132	H	-0.273481	0.200237	-0.422231
H133	H	-0.316373	0.227456	-0.501312
C134	C	-0.413416	0.133499	-0.493858
C135	C	-0.351515	0.130579	-0.459815
H136	H	-0.430463	0.089067	-0.499948
H137	H	-0.444619	0.159201	-0.468067
H138	H	-0.407151	0.154207	-0.536659
H139	H	-0.357783	0.109879	-0.417012
H140	H	-0.320314	0.104871	-0.485598
O141	O	-0.892804	1.073465	-0.240867
C142	C	-0.849073	1.114357	-0.279372
H143	H	-0.872925	1.124893	-0.330687
H144	H	-0.798901	1.087157	-0.286764
C145	C	-0.807561	1.168598	-0.179104
C146	C	-0.836859	1.181542	-0.242128
H147	H	-0.800023	1.210039	-0.156130
H148	H	-0.837021	1.141046	-0.153162
H149	H	-0.765754	1.145929	-0.185273
H150	H	-0.878668	1.204203	-0.235959
H151	H	-0.807405	1.209099	-0.268069
O152	O	-0.892647	0.717594	-0.240806
C153	C	-0.825175	0.700361	-0.255520
H154	H	-0.821719	0.680901	-0.309587
H155	H	-0.807491	0.659367	-0.219211
C156	C	-0.784271	0.787101	-0.181198
C157	C	-0.780025	0.763205	-0.247607
H158	H	-0.756420	0.825864	-0.176314
H159	H	-0.829728	0.798709	-0.171283
H160	H	-0.769536	0.752933	-0.150948
H161	H	-0.794768	0.797369	-0.277855
H162	H	-0.734569	0.751603	-0.257527
O163	O	-0.892866	0.411268	-0.934596
C164	C	-0.931356	0.455014	-0.893715
H165	H	-0.982663	0.431152	-0.883129
H166	H	-0.938768	0.505164	-0.920951
C167	C	-0.831066	0.496599	-0.839570
C168	C	-0.894080	0.467288	-0.826563
H169	H	-0.808072	0.504173	-0.798149
H170	H	-0.805134	0.467128	-0.867114
H171	H	-0.837251	0.538387	-0.862269
H172	H	-0.887893	0.425496	-0.803873
H173	H	-0.920010	0.496752	-0.799014
H174	H	-1.056582	0.939347	-0.404778
H175	H	-1.056616	1.067593	-0.404793
H176	H	-0.720505	0.247615	-0.404796
H177	H	-0.899503	0.583819	-0.247529
H178	H	-1.056718	0.247460	-0.584535
H179	H	-0.899554	0.404476	-0.712701
