data_functionalizedCrystal
_audit_creation_method	'MofGen! by Chris Wilmer'
_symmetry_space_group_name_H-M	'P1'
_symmetry_Int_Tables_number	1
_symmetry_cell_setting	triclinic
loop_
_symmetry_equiv_pos_as_xyz
  x,y,z
_cell_length_a	17.640112
_cell_length_b	12.645330
_cell_length_c	17.640968
_cell_angle_alpha	78.768500
_cell_angle_beta	92.139080
_cell_angle_gamma	101.237348
loop_
_atom_site_label
_atom_site_type_symbol
_atom_site_fract_x
_atom_site_fract_y
_atom_site_fract_z
Zn1	Zn	1.247782	-0.030458	-0.195080
Zn2	Zn	1.747782	0.469542	0.304920
Zn3	Zn	1.222041	-0.249164	-0.068097
Zn4	Zn	1.722041	0.250836	0.431903
Zn5	Zn	1.095123	-0.099414	-0.093726
Zn6	Zn	1.595123	0.400586	0.406274
Zn7	Zn	1.120780	-0.235210	-0.220679
Zn8	Zn	1.620780	0.264790	0.279321
O9	O	1.171432	-0.153562	-0.144396
O10	O	1.671432	0.346438	0.355604
O11	O	1.350634	-0.036451	-0.156796
O12	O	1.850634	0.463549	0.343204
O13	O	1.183695	-0.263998	0.034776
O14	O	1.683695	0.236002	0.534776
O15	O	1.115409	0.058093	-0.107183
O16	O	1.615409	0.558093	0.392817
O17	O	1.331722	-0.197134	-0.063503
O18	O	1.831722	0.302866	0.436497
O19	O	1.227567	0.108755	-0.181647
O20	O	1.727567	0.608755	0.318353
O21	O	1.090449	-0.153977	0.015947
O22	O	1.590449	0.346023	0.515947
O23	O	0.992260	-0.140447	-0.132006
O24	O	1.492260	0.359553	0.367994
O25	O	1.159137	-0.173351	-0.323557
O26	O	1.659137	0.326649	0.176443
O27	O	1.011110	-0.240215	-0.225278
O28	O	1.511110	0.259785	0.274722
O29	O	1.252445	-0.022921	-0.304749
O30	O	1.752445	0.477079	0.195251
O31	O	1.208573	-0.395673	-0.088325
O32	O	1.708573	0.104327	0.411675
O33	O	1.134177	-0.385421	-0.200427
O34	O	1.634177	0.114579	0.299573
C35	C	0.974132	-0.196300	-0.184201
C36	C	1.474132	0.303700	0.315799
C37	C	0.889730	-0.214603	-0.201248
C38	C	1.389730	0.285397	0.298752
C39	C	1.171390	-0.429005	-0.144385
C40	C	1.671390	0.070995	0.355615
C41	C	1.171447	-0.546818	-0.144392
C42	C	1.671447	-0.046818	0.355608
C43	C	0.563041	-0.014493	-0.014898
C44	C	1.063041	0.485507	0.485102
C45	C	0.483734	-0.031710	-0.030927
C46	C	0.983734	0.468290	0.469073
C47	C	0.503383	-0.135840	-0.127883
C48	C	1.003383	0.364160	0.372117
C49	C	0.582694	-0.118628	-0.111866
C50	C	1.082694	0.381372	0.388134
C51	C	0.612516	-0.057954	-0.055372
C52	C	1.112516	0.442046	0.444628
C53	C	0.632168	-0.162089	-0.152339
C54	C	1.132168	0.337911	0.347661
C55	C	0.711471	-0.144882	-0.136320
C56	C	1.211471	0.355118	0.363680
C57	C	0.741299	-0.084214	-0.079827
C58	C	1.241299	0.415786	0.420173
C59	C	0.691819	-0.040748	-0.039352
C60	C	1.191819	0.459252	0.460648
C61	C	0.602344	-0.222768	-0.208829
C62	C	1.102344	0.277232	0.291171
C63	C	0.651819	-0.266229	-0.249302
C64	C	1.151819	0.233771	0.250698
C65	C	0.731124	-0.249017	-0.233287
C66	C	1.231124	0.250983	0.266713
C67	C	0.760952	-0.188349	-0.176794
C68	C	1.260952	0.311651	0.323206
C69	C	0.780605	-0.292483	-0.273762
C70	C	1.280605	0.207517	0.226238
C71	C	0.859908	-0.275277	-0.257742
C72	C	1.359908	0.224723	0.242258
C73	C	0.840255	-0.171142	-0.160775
C74	C	1.340255	0.328858	0.339225
C75	C	1.218131	-0.720847	-0.073769
C76	C	1.718131	-0.220847	0.426231
C77	C	1.218351	-0.598198	-0.073875
C78	C	1.718351	-0.098198	0.426125
C79	C	1.209332	-0.560398	-0.220067
C80	C	1.709332	-0.060398	0.279933
C81	C	1.209733	-0.682997	-0.219661
C82	C	1.709733	-0.182997	0.280339
C83	C	1.087014	-0.738217	-0.140134
C84	C	1.587014	-0.238217	0.359866
C85	C	1.087036	-0.616115	-0.138261
C86	C	1.587036	-0.116115	0.361739
C87	C	1.369502	-0.110657	-0.104435
C88	C	1.869502	0.389343	0.395565
C89	C	1.453908	-0.092374	-0.087406
C90	C	1.953908	0.407626	0.412594
C91	C	1.211525	-0.088888	-0.342479
C92	C	1.711525	0.411112	0.157521
C93	C	1.228610	-0.061327	-0.426890
C94	C	1.728610	0.438673	0.073110
C95	C	1.171498	0.122968	-0.144418
C96	C	1.671498	0.622968	0.355582
C97	C	1.171526	0.240808	-0.144428
C98	C	1.671526	0.740808	0.355572
C99	C	1.041928	-0.362294	-0.753463
C100	C	1.541928	0.137706	-0.253463
C101	C	1.057998	-0.336380	-0.832776
C102	C	1.557998	0.163620	-0.332776
C103	C	1.155152	-0.179750	-0.813183
C104	C	1.655152	0.320250	-0.313183
C105	C	1.139087	-0.205648	-0.733867
C106	C	1.639087	0.294352	-0.233867
C107	C	1.082475	-0.296921	-0.704013
C108	C	1.582475	0.203079	-0.204013
C109	C	1.179634	-0.140275	-0.684417
C110	C	1.679634	0.359725	-0.184417
C111	C	1.163573	-0.166175	-0.605106
C112	C	1.663573	0.333825	-0.105106
C113	C	1.106965	-0.257446	-0.575246
C114	C	1.606965	0.242554	-0.075246
C115	C	1.066414	-0.322821	-0.624702
C116	C	1.566414	0.177179	-0.124702
C117	C	1.236249	-0.049006	-0.714271
C118	C	1.736249	0.450994	-0.214271
C119	C	1.276796	0.016366	-0.664821
C120	C	1.776796	0.516366	-0.164821
C121	C	1.260732	-0.009529	-0.585510
C122	C	1.760732	0.490471	-0.085510
C123	C	1.204124	-0.100800	-0.555650
C124	C	1.704124	0.399200	-0.055650
C125	C	1.301283	0.055846	-0.536054
C126	C	1.801283	0.555846	-0.036054
C127	C	1.285222	0.029946	-0.456744
C128	C	1.785222	0.529946	0.043256
C129	C	1.188063	-0.126700	-0.476340
C130	C	1.688063	0.373300	0.023660
C131	C	1.131538	-0.217898	0.052926
C132	C	1.631538	0.282102	0.552926
C133	C	1.114600	-0.245128	0.137366
C134	C	1.614600	0.254872	0.637366
H135	H	0.864540	-0.121716	-0.114783
H136	H	1.364540	0.378284	0.385217
H137	H	0.443454	0.003695	0.002031
H138	H	0.943454	0.503695	0.502031
N139	N	1.362347	0.154278	-0.568256
N140	N	1.862347	0.654278	-0.068256
H141	H	1.366372	0.160761	-0.626002
H142	H	1.866372	0.660761	-0.126002
H143	H	1.347740	0.222912	-0.556789
H144	H	1.847740	0.722912	-0.056789
H145	H	0.805873	-0.070209	-0.066783
H146	H	1.305873	0.429791	0.433217
H147	H	0.756310	-0.341892	-0.319753
H148	H	1.256310	0.158108	0.180247
H149	H	1.322892	0.090678	-0.689139
H150	H	1.822892	0.590678	-0.189139
N151	N	1.184432	-0.789572	0.001500
N152	N	1.684432	-0.289572	0.501500
H153	H	1.224913	-0.827853	0.030725
H154	H	1.724913	-0.327853	0.530725
H155	H	1.167160	-0.740628	0.033624
H156	H	1.667160	-0.240628	0.533624
N157	N	1.166674	-0.514197	-0.290754
N158	N	1.666674	-0.014197	0.209246
H159	H	1.192020	-0.523809	-0.338718
H160	H	1.692020	-0.023809	0.161282
H161	H	1.111149	-0.554376	-0.288318
H162	H	1.611149	-0.054376	0.211682
N163	N	1.036805	-0.571619	-0.203153
N164	N	1.536805	-0.071619	0.296847
H165	H	0.991744	-0.549242	-0.180908
H166	H	1.491744	-0.049242	0.319092
H167	H	1.068248	-0.505645	-0.237585
H168	H	1.568248	-0.005645	0.262415
N169	N	1.089624	-0.285401	-0.489708
N170	N	1.589624	0.214599	0.010292
H171	H	1.137836	-0.299851	-0.460076
H172	H	1.637836	0.200149	0.039924
H173	H	1.071787	-0.221913	-0.473492
H174	H	1.571787	0.278087	0.026508
N175	N	1.328955	0.100447	-0.403401
N176	N	1.828955	0.600447	0.096599
H177	H	1.367253	0.162199	-0.434348
H178	H	1.867253	0.662199	0.065652
H179	H	1.291390	0.132065	-0.376736
H180	H	1.791390	0.632065	0.123264
H181	H	0.716103	0.008678	0.006640
H182	H	1.216103	0.508678	0.506640
H183	H	1.201247	-0.105437	-0.837501
H184	H	1.701247	0.394563	-0.337501
N185	N	0.595217	0.050958	0.046028
N186	N	1.095217	0.550958	0.546028
H187	H	0.551843	0.075888	0.069238
H188	H	1.051843	0.575888	0.569238
H189	H	0.620987	0.003526	0.087871
H190	H	1.120987	0.503526	0.587871
H191	H	0.479090	-0.185244	-0.173879
H192	H	0.979090	0.314756	0.326121
N193	N	0.516810	-0.241342	-0.226105
N194	N	1.016810	0.258658	0.273895
H195	H	0.500547	-0.168213	-0.244019
H196	H	1.000547	0.331787	0.255981
H197	H	0.505489	-0.286417	-0.268010
H198	H	1.005489	0.213583	0.231990
H199	H	0.627526	-0.315633	-0.295298
H200	H	1.127526	0.184367	0.204702
N201	N	1.040748	-0.770641	-0.208561
N202	N	1.540748	-0.270641	0.291439
H203	H	1.074325	-0.798786	-0.242191
H204	H	1.574325	-0.298786	0.257809
H205	H	0.994796	-0.830213	-0.189666
H206	H	1.494796	-0.330213	0.310334
H207	H	1.280047	-0.734374	-0.075237
H208	H	1.780047	-0.234374	0.424763
H209	H	1.020297	-0.397124	-0.600398
H210	H	1.520297	0.102876	-0.100398
H211	H	1.178159	-0.706706	-0.273244
H212	H	1.678159	-0.206706	0.226756
N213	N	1.014266	-0.406874	-0.886128
N214	N	1.514266	0.093126	-0.386128
H215	H	1.023244	-0.484579	-0.869948
H216	H	1.523244	0.015421	-0.369948
H217	H	0.957235	-0.406576	-0.883262
H218	H	1.457235	0.093424	-0.383262
N219	N	0.913276	-0.322154	-0.301390
N220	N	1.413276	0.177846	0.198610
H221	H	0.882351	-0.363199	-0.339610
H222	H	1.382351	0.136801	0.160390
H223	H	0.953313	-0.260444	-0.329937
H224	H	1.453313	0.239556	0.170063
N225	N	1.184482	-0.587974	0.001126
N226	N	1.684482	-0.087974	0.501126
H227	H	1.129679	-0.630844	0.006605
H228	H	1.629679	-0.130844	0.506605
H229	H	1.216570	-0.618118	0.045778
H230	H	1.716570	-0.118118	0.545778
N231	N	1.300826	-0.536284	-0.075942
N232	N	1.800826	-0.036284	0.424058
H233	H	1.311424	-0.501923	-0.028574
H234	H	1.811424	-0.001923	0.471426
H235	H	1.337128	-0.588712	-0.076817
H236	H	1.837128	-0.088712	0.423183
H237	H	1.141946	-0.201002	-0.452035
H238	H	1.641946	0.298998	0.047965
H239	H	1.249326	-0.027925	-0.778851
H240	H	1.749326	0.472075	-0.278851
N241	N	1.292196	-0.696414	-0.226955
N242	N	1.792196	-0.196414	0.273045
H243	H	1.315035	-0.649682	-0.276950
H244	H	1.815035	-0.149682	0.223050
H245	H	1.323458	-0.672532	-0.181999
H246	H	1.823458	-0.172532	0.318001
N247	N	1.290999	-0.495336	-0.227942
N248	N	1.790999	0.004664	0.272058
H249	H	1.303590	-0.457010	-0.182591
H250	H	1.803590	0.042990	0.317409
H251	H	1.328078	-0.546628	-0.229032
H252	H	1.828078	-0.046628	0.270968
H253	H	1.058763	-0.609871	-0.082650
H254	H	1.558763	-0.109871	0.417350
N255	N	1.045509	-0.809720	-0.069433
N256	N	1.545509	-0.309720	0.430567
H257	H	1.081073	-0.856441	-0.039468
H258	H	1.581073	-0.356441	0.460532
H259	H	1.029643	-0.761727	-0.035702
H260	H	1.529643	-0.261727	0.464298
N261	N	0.980864	-0.460734	-0.721255
N262	N	1.480864	0.039266	-0.221255
H263	H	0.957610	-0.498220	-0.764615
H264	H	1.457610	0.001780	-0.264615
H265	H	1.005103	-0.513845	-0.682107
H266	H	1.505103	-0.013845	-0.182107
