data_functionalizedCrystal
_audit_creation_method	'MofGen! by Chris Wilmer'
_symmetry_space_group_name_H-M	'P1'
_symmetry_Int_Tables_number	1
_symmetry_cell_setting	triclinic
loop_
_symmetry_equiv_pos_as_xyz
  x,y,z
_cell_length_a	17.038272
_cell_length_b	15.944551
_cell_length_c	14.421503
_cell_angle_alpha	90.003141
_cell_angle_beta	90.004327
_cell_angle_gamma	92.694853
loop_
_atom_site_label
_atom_site_type_symbol
_atom_site_fract_x
_atom_site_fract_y
_atom_site_fract_z
O1	O	0.100827	-1.121728	-0.077015
O2	O	0.434160	-0.788395	0.256318
O3	O	0.767493	-0.455061	0.589651
O4	O	0.113259	-0.878066	-0.077039
O5	O	0.446592	-0.544733	0.256295
O6	O	0.779926	-0.211399	0.589628
O7	O	-0.006773	-0.998449	-0.077020
O8	O	0.326560	-0.665116	0.256314
O9	O	0.659894	-0.331782	0.589647
O10	O	0.220859	-1.001345	-0.077034
O11	O	0.554192	-0.668012	0.256299
O12	O	0.887525	-0.334679	0.589633
O13	O	-0.006755	-0.998429	0.077204
O14	O	0.326578	-0.665096	0.410537
O15	O	0.659912	-0.331762	0.743870
O16	O	0.113277	-0.878046	0.077185
O17	O	0.446610	-0.544713	0.410518
O18	O	0.779944	-0.211379	0.743852
O19	O	0.100845	-1.121708	0.077208
O20	O	0.434178	-0.788375	0.410541
O21	O	0.767511	-0.455041	0.743875
Cu22	Cu	0.107062	-0.999875	0.091278
Cu23	Cu	0.440396	-0.666542	0.424612
Cu24	Cu	0.773729	-0.333209	0.757945
Cu25	Cu	0.107041	-0.999899	-0.091109
Cu26	Cu	0.440375	-0.666566	0.242225
Cu27	Cu	0.773708	-0.333232	0.575558
O28	O	0.220877	-1.001325	0.077189
O29	O	0.554210	-0.667992	0.410523
O30	O	0.887543	-0.334659	0.743856
C31	C	0.112752	-0.846725	0.000070
C32	C	0.446085	-0.513392	0.333404
C33	C	0.779419	-0.180059	0.666737
C34	C	0.111205	-0.753369	0.000062
C35	C	0.444538	-0.420035	0.333395
C36	C	0.777871	-0.086702	0.666728
C37	C	-0.035893	-0.995805	0.000092
C38	C	0.297440	-0.662471	0.333425
C39	C	0.630774	-0.329138	0.666758
C40	C	-0.122688	-0.987945	0.000091
C41	C	0.210645	-0.654612	0.333424
C42	C	0.543978	-0.321279	0.666757
N43	N	0.107077	-0.999865	0.219560
N44	N	0.440410	-0.666531	0.552893
N45	N	0.773743	-0.333198	0.886226
C46	C	-0.172781	-1.060103	0.000098
C47	C	0.160552	-0.726770	0.333432
C48	C	0.493886	-0.393436	0.666765
C49	C	-0.254334	-1.052713	0.000089
C50	C	0.079000	-0.719380	0.333422
C51	C	0.412333	-0.386047	0.666756
C52	C	-0.285792	-0.973165	0.000078
C53	C	0.047541	-0.639832	0.333412
C54	C	0.380875	-0.306499	0.666745
C55	C	-0.235693	-0.901002	0.000068
C56	C	0.097640	-0.567669	0.333401
C57	C	0.430974	-0.234336	0.666734
C58	C	-0.154142	-0.908393	0.000071
C59	C	0.179192	-0.575059	0.333404
C60	C	0.512525	-0.241726	0.666737
C61	C	-0.531558	-0.947056	0.000063
C62	C	-0.198224	-0.613723	0.333396
C63	C	0.135109	-0.280390	0.666730
C64	C	-0.613115	-0.939671	0.000063
C65	C	-0.279782	-0.606338	0.333396
C66	C	0.053551	-0.273005	0.666730
C67	C	-0.631751	-1.091383	0.000083
C68	C	-0.298417	-0.758050	0.333416
C69	C	0.034916	-0.424716	0.666749
C70	C	-0.550197	-1.098766	0.000091
C71	C	-0.216864	-0.765433	0.333424
C72	C	0.116470	-0.432100	0.666758
C73	C	-0.500105	-1.026603	0.000075
C74	C	-0.166772	-0.693270	0.333409
C75	C	0.166562	-0.359937	0.666742
C76	C	-0.369152	-0.965610	0.000071
C77	C	-0.035819	-0.632277	0.333405
C78	C	0.297515	-0.298943	0.666738
C79	C	-0.416747	-1.034159	0.000076
C80	C	-0.083413	-0.700826	0.333409
C81	C	0.249920	-0.367493	0.666742
C82	C	0.249997	-1.003969	0.000076
C83	C	0.583330	-0.670636	0.333409
C84	C	0.916663	-0.337303	0.666743
C85	C	0.336792	-1.011829	0.000071
C86	C	0.670125	-0.678495	0.333404
C87	C	1.003459	-0.345162	0.666737
C88	C	0.101352	-1.153049	0.000097
C89	C	0.434685	-0.819716	0.333431
C90	C	0.768019	-0.486382	0.666764
C91	C	0.102899	-1.246405	0.000100
C92	C	0.436232	-0.913072	0.333433
C93	C	0.769566	-0.579739	0.666766
C94	C	0.033105	-0.532936	0.000085
C95	C	0.366438	-0.199602	0.333418
C96	C	0.699771	0.133731	0.666751
C97	C	0.069363	-0.474515	-0.075958
C98	C	0.402696	-0.141182	0.257375
C99	C	0.736030	0.192152	0.590709
C100	C	0.108405	-0.582443	0.000073
C101	C	0.441739	-0.249110	0.333406
C102	C	0.775072	0.084224	0.666739
C103	C	0.069398	-0.474519	0.076094
C104	C	0.402732	-0.141185	0.409428
C105	C	0.736065	0.192148	0.742761
C106	C	0.105696	-0.417337	0.000088
C107	C	0.439029	-0.084004	0.333421
C108	C	0.772363	0.249330	0.666754
C109	C	0.144684	-0.525252	-0.076033
C110	C	0.478017	-0.191919	0.257301
C111	C	0.811351	0.141415	0.590634
C112	C	0.144709	-0.525261	0.076088
C113	C	0.478042	-0.191928	0.409421
C114	C	0.811376	0.141405	0.742755
C115	C	0.181022	-0.466862	0.000027
C116	C	0.514355	-0.133529	0.333360
C117	C	0.847689	0.199805	0.666693
C118	C	0.109964	-0.677557	0.000063
C119	C	0.443297	-0.344223	0.333397
C120	C	0.776631	-0.010890	0.666730
C121	C	0.104143	-0.322225	0.000090
C122	C	0.437476	0.011108	0.333424
C123	C	0.770810	0.344442	0.666757
N124	N	0.107021	-0.999916	-0.219390
N125	N	0.440354	-0.666582	0.113943
N126	N	0.773687	-0.333249	0.447277
C127	C	0.162555	-0.944187	0.469205
C128	C	0.495888	-0.610854	0.802538
C129	C	0.829221	-0.277521	1.135871
C130	C	0.177734	-1.021171	0.531013
C131	C	0.511067	-0.687838	0.864347
C132	C	0.844400	-0.354504	1.197680
C133	C	0.107058	-0.999884	0.408721
C134	C	0.440391	-0.666550	0.742054
C135	C	0.773725	-0.333217	1.075388
C136	C	0.091897	-0.922921	0.531006
C137	C	0.425231	-0.589587	0.864339
C138	C	0.758564	-0.256254	1.197673
C139	C	0.107042	-0.999895	0.591442
C140	C	0.440375	-0.666562	0.924776
C141	C	0.773709	-0.333229	1.258109
C142	C	0.122272	-1.076908	0.469169
C143	C	0.455606	-0.743575	0.802502
C144	C	0.788939	-0.410242	1.135836
C145	C	0.036405	-0.978606	0.469156
C146	C	0.369739	-0.645273	0.802490
C147	C	0.703072	-0.311939	1.135823
C148	C	0.051554	-1.055642	0.530937
C149	C	0.384888	-0.722309	0.864271
C150	C	0.718221	-0.388976	1.197604
C151	C	0.107070	-0.999876	0.303460
C152	C	0.440403	-0.666543	0.636793
C153	C	0.773736	-0.333209	0.970127
C154	C	0.107030	-0.999912	0.696701
C155	C	0.440363	-0.666579	1.030035
C156	C	0.773697	-0.333245	1.363368
H157	H	-0.147175	-1.124879	0.000113
H158	H	0.186159	-0.791546	0.333446
H159	H	0.519492	-0.458213	0.666779
Br160	Br	-0.063140	-0.948555	0.423832
Br161	Br	0.270194	-0.615222	0.757165
Br162	Br	0.603527	-0.281889	1.090498
H163	H	0.176539	-0.547656	0.140376
H164	H	0.509873	-0.214323	0.473709
H165	H	0.843206	0.119010	0.807042
H166	H	-0.029389	-0.561807	-0.000006
H167	H	0.303945	-0.228473	0.333328
H168	H	0.637278	0.104860	0.666661
H169	H	-0.295117	-1.111472	0.000097
H170	H	0.038217	-0.778139	0.333431
H171	H	0.371550	-0.444805	0.666764
Br172	Br	-0.699736	-1.189313	0.000104
Br173	Br	-0.366402	-0.855979	0.333437
Br174	Br	-0.033069	-0.522646	0.666770
Br175	Br	-0.655808	-0.831706	0.000058
Br176	Br	-0.322475	-0.498373	0.333391
Br177	Br	0.010859	-0.165039	0.666725
H178	H	-0.113356	-0.849634	0.000064
H179	H	0.219977	-0.516301	0.333397
H180	H	0.553310	-0.182968	0.666731
Br181	Br	0.143748	-1.185433	0.424094
Br182	Br	0.477081	-0.852100	0.757428
Br183	Br	0.810415	-0.518766	1.090761
Br184	Br	0.277307	-1.051189	0.576299
Br185	Br	0.610640	-0.717856	0.909632
Br186	Br	0.943973	-0.384523	1.242965
Br187	Br	-0.411852	-0.857655	0.000048
Br188	Br	-0.078519	-0.524321	0.333381
Br189	Br	0.254814	-0.190988	0.666715
H190	H	-0.490782	-0.888296	0.000051
H191	H	-0.157449	-0.554962	0.333384
H192	H	0.175885	-0.221629	0.666717
Br193	Br	-0.374052	-1.142114	0.000082
Br194	Br	-0.040719	-0.808781	0.333415
Br195	Br	0.292615	-0.475448	0.666749
H196	H	0.037543	-0.452149	0.140380
H197	H	0.370876	-0.118816	0.473713
H198	H	0.704209	0.214517	0.807047
Br199	Br	0.016271	-0.437224	-0.183108
Br200	Br	0.349605	-0.103890	0.150226
Br201	Br	0.682938	0.229443	0.483559
Br202	Br	0.070535	-0.814433	0.576284
Br203	Br	0.403868	-0.481100	0.909618
Br204	Br	0.737202	-0.147767	1.242951
Br205	Br	-0.278385	-0.793043	0.000038
Br206	Br	0.054948	-0.459710	0.333371
Br207	Br	0.388281	-0.126376	0.666704
H208	H	0.176502	-0.547520	-0.140391
H209	H	0.509835	-0.214187	0.192943
H210	H	0.843169	0.119146	0.526276
Br211	Br	0.285287	-0.419036	-0.000045
Br212	Br	0.618621	-0.085702	0.333289
Br213	Br	0.951954	0.247631	0.666622
Br214	Br	0.240835	-0.865772	0.424021
Br215	Br	0.574168	-0.532439	0.757355
Br216	Br	0.907501	-0.199106	1.090688
H217	H	0.004613	-1.102803	0.557872
H218	H	0.337946	-0.769470	0.891206
H219	H	0.671280	-0.436136	1.224539
H220	H	-0.524590	-1.163543	0.000100
H221	H	-0.191257	-0.830209	0.333433
H222	H	0.142076	-0.496876	0.666766
