data_functionalizedCrystal
_audit_creation_method	'MofGen! by Chris Wilmer'
_symmetry_space_group_name_H-M	'P1'
_symmetry_Int_Tables_number	1
_symmetry_cell_setting	triclinic
loop_
_symmetry_equiv_pos_as_xyz
  x,y,z
_cell_length_a	10.654541
_cell_length_b	10.654545
_cell_length_c	14.048226
_cell_angle_alpha	89.995935
_cell_angle_beta	89.994904
_cell_angle_gamma	84.484678
loop_
_atom_site_label
_atom_site_type_symbol
_atom_site_fract_x
_atom_site_fract_y
_atom_site_fract_z
O1	O	1.667848	0.176387	-0.079126
O2	O	1.302369	0.193196	-0.079134
O3	O	1.493511	0.002052	-0.079129
O4	O	1.476706	0.367531	-0.079131
O5	O	1.493487	0.002041	0.079192
O6	O	1.302346	0.193185	0.079187
O7	O	1.667825	0.176376	0.079195
Zn8	Zn	1.485081	0.184778	0.104328
Zn9	Zn	1.485112	0.184794	-0.104267
O10	O	1.476683	0.367520	0.079191
C11	C	1.255559	0.191957	0.000026
C12	C	1.116116	0.188266	0.000023
C13	C	1.088146	0.416831	0.000010
C14	C	1.008652	0.529374	-0.000001
C15	C	0.877634	0.525898	-0.000002
C16	C	0.826108	0.409867	0.000011
C17	C	0.905602	0.297324	0.000021
C18	C	1.036622	0.300812	0.000019
C19	C	0.933572	0.068763	0.000041
C20	C	1.064590	0.072235	0.000035
C21	C	0.882046	-0.047269	0.000053
C22	C	0.961540	-0.159814	0.000057
C23	C	1.092565	-0.156334	0.000056
C24	C	1.144084	-0.040308	0.000045
C25	C	1.492265	-0.044751	0.000030
C26	C	1.488572	-0.184195	0.000024
C27	C	1.488613	-0.184190	-0.172583
C28	C	1.486903	-0.249698	-0.258886
C29	C	1.483434	-0.380717	-0.258887
C30	C	1.481671	-0.446230	-0.172576
C31	C	1.483381	-0.380723	-0.086273
C32	C	1.486854	-0.249701	-0.086281
C33	C	1.483331	-0.380726	0.086332
C34	C	1.486809	-0.249708	0.086335
C35	C	1.481568	-0.446239	0.172643
C36	C	1.483287	-0.380732	0.258948
C37	C	1.486758	-0.249706	0.258946
C38	C	1.488519	-0.184200	0.172638
C39	C	1.714634	0.177615	0.000034
C40	C	1.854078	0.181306	0.000030
C41	C	1.477929	0.414323	0.000030
C42	C	1.481621	0.553766	0.000029
N43	N	1.485070	0.184767	0.246689
N44	N	1.485134	0.184795	-0.246628
C45	C	1.569734	0.100164	0.296509
C46	C	1.569743	0.100164	0.396167
C47	C	1.485092	0.184773	0.446002
C48	C	1.400418	0.269380	0.396175
C49	C	1.400404	0.269374	0.296519
C50	C	1.400454	0.269390	0.603890
C51	C	1.400469	0.269398	0.703552
C52	C	1.569793	0.100179	0.703537
C53	C	1.569779	0.100173	0.603881
C54	C	1.485107	0.184782	0.554061
H55	H	0.919576	-0.254278	0.000066
C56	C	1.232262	0.420652	-0.000000
H57	H	1.272225	0.337009	0.000000
H58	H	1.256739	0.463655	0.055201
H59	H	1.256734	0.463637	-0.055226
C60	C	1.662933	0.007109	0.758330
H61	H	1.713357	-0.043270	0.714377
H62	H	1.617318	-0.045597	0.797218
H63	H	1.715607	0.052790	0.797192
H64	H	1.638714	0.031284	0.563305
H65	H	1.331487	0.338267	0.436757
C66	C	1.481341	-0.452790	0.353879
H67	H	1.482853	-0.395014	0.405280
H68	H	1.553088	-0.512851	0.357475
H69	H	1.406861	-0.494947	0.357456
H70	H	1.331501	0.338283	0.563329
H71	H	1.478831	-0.552911	-0.172584
C72	C	1.307275	0.362385	0.758370
H73	H	1.256811	0.412740	0.714428
H74	H	1.352831	0.415122	0.797265
H75	H	1.254647	0.316630	0.797228
C76	C	0.737930	-0.051093	0.000050
H77	H	0.697964	0.032549	0.000032
H78	H	0.713443	-0.094084	0.055262
H79	H	0.713472	-0.094092	-0.055165
H80	H	0.812909	0.617541	-0.000003
H81	H	1.331460	0.338264	0.255957
H82	H	1.250764	-0.037463	0.000034
H83	H	1.482030	-0.434052	-0.329162
H84	H	1.050619	0.623844	-0.000008
C85	C	1.180005	-0.280131	0.000069
H86	H	1.265416	-0.261448	0.000073
H87	H	1.164282	-0.327666	-0.055134
H88	H	1.164270	-0.327646	0.055294
H89	H	0.719425	0.407048	0.000021
H90	H	1.488130	-0.196375	0.329224
H91	H	1.488337	-0.196343	-0.329158
H92	H	1.491351	-0.077519	0.172628
H93	H	1.491452	-0.077510	-0.172590
C94	C	1.477749	-0.590355	0.172648
H95	H	1.476934	-0.619986	0.236410
H96	H	1.550081	-0.628937	0.140784
H97	H	1.403854	-0.611051	0.140768
H98	H	1.638672	0.031271	0.255939
C99	C	1.662886	0.007112	0.450965
H100	H	1.713312	-0.043265	0.407012
H101	H	1.617276	-0.045595	0.489855
H102	H	1.715558	0.052798	0.489825
