data_functionalizedCrystal
_audit_creation_method	'MofGen! by Chris Wilmer'
_symmetry_space_group_name_H-M	'P1'
_symmetry_Int_Tables_number	1
_symmetry_cell_setting	triclinic
loop_
_symmetry_equiv_pos_as_xyz
  x,y,z
_cell_length_a	15.538191
_cell_length_b	19.288864
_cell_length_c	17.766277
_cell_angle_alpha	89.976791
_cell_angle_beta	90.004727
_cell_angle_gamma	114.795828
loop_
_atom_site_label
_atom_site_type_symbol
_atom_site_fract_x
_atom_site_fract_y
_atom_site_fract_z
O1	O	0.117639	-0.891966	0.062821
O2	O	0.133508	-0.685741	0.062767
O3	O	-0.011726	-0.828996	0.062808
O4	O	0.262873	-0.748710	0.062780
O5	O	-0.011734	-0.828980	-0.062381
O6	O	0.133501	-0.685724	-0.062421
O7	O	0.117631	-0.891949	-0.062368
Cu8	Cu	0.125565	-0.788835	-0.073825
Cu9	Cu	0.125574	-0.788855	0.074225
O10	O	0.262866	-0.748693	-0.062409
C11	C	0.132994	-0.659983	0.000166
C12	C	0.131461	-0.583263	0.000147
C13	C	-0.046861	-0.837388	0.000218
C14	C	-0.151541	-0.862409	0.000232
C15	C	0.118146	-0.917706	0.000235
C16	C	0.119679	-0.994427	0.000259
C17	C	-0.438277	-0.613831	0.000152
C18	C	-0.536642	-0.637359	0.000156
C19	C	-0.559647	-0.769703	0.000191
C20	C	-0.461281	-0.746185	0.000190
C21	C	-0.400603	-0.668248	0.000170
C22	C	-0.423608	-0.800603	0.000208
C23	C	-0.325251	-0.777087	0.000203
C24	C	-0.264567	-0.699153	0.000181
C25	C	-0.302246	-0.644732	0.000165
C26	C	-0.484287	-0.878540	0.000223
C27	C	-0.446614	-0.932957	0.000241
C28	C	-0.348255	-0.909441	0.000242
C29	C	-0.287571	-0.831508	0.000219
C30	C	-0.310576	-0.963863	0.000257
C31	C	-0.212219	-0.940346	0.000253
C32	C	-0.189214	-0.807992	0.000214
C33	C	0.298001	-0.740301	0.000183
C34	C	0.402681	-0.715280	0.000174
N35	N	0.125559	-0.788826	-0.177956
C36	C	0.216678	-0.517278	0.000150
C37	C	0.215238	-0.445191	0.000158
C38	C	0.128576	-0.439092	0.000179
C39	C	0.043348	-0.505089	0.000171
C40	C	0.044790	-0.577175	0.000155
C41	C	0.060453	-0.347855	0.044070
C42	C	0.059014	-0.275770	0.044091
C43	C	0.124123	-0.216759	0.000225
C44	C	0.190688	-0.229837	-0.043652
C45	C	0.192130	-0.301922	-0.043668
C46	C	0.127002	-0.360931	0.000196
C47	C	0.207785	-0.072607	0.000236
C48	C	0.206341	-0.000520	0.000240
C49	C	0.034449	-0.060421	0.000261
C50	C	0.035895	-0.132506	0.000249
C51	C	0.122565	-0.138594	0.000241
C52	C	0.061280	-0.852267	-0.217325
C53	C	0.061276	-0.852272	-0.296126
C54	C	0.125566	-0.788839	-0.335556
C55	C	0.189850	-0.725387	-0.296178
C56	C	0.189846	-0.725381	-0.217378
C57	C	0.211489	-0.758075	-0.460404
C58	C	0.211494	-0.758086	-0.539203
C59	C	0.125578	-0.788854	-0.578603
C60	C	0.039653	-0.819627	-0.539193
C61	C	0.039649	-0.819621	-0.460393
C62	C	0.125577	-0.788838	-0.421002
C63	C	0.061289	-0.852305	-0.703417
C64	C	0.061283	-0.852305	-0.782221
C65	C	0.189865	-0.725422	-0.782271
C66	C	0.189863	-0.725420	-0.703469
C67	C	0.125576	-0.788865	-0.664047
N68	N	0.125573	-0.788871	0.178355
H69	H	-0.139806	-0.744528	0.000203
H70	H	-0.030309	-0.844681	-0.571271
Br71	Br	0.322004	0.089036	0.000238
H72	H	-0.036113	-0.055457	0.000324
H73	H	-0.181545	-0.984659	0.000266
Br74	Br	-0.355919	-0.508057	0.000135
H75	H	-0.024606	-0.630903	0.000153
Br76	Br	0.328103	-0.716384	-0.406942
Br77	Br	-0.076957	-0.861375	-0.406911
Br78	Br	0.277104	-0.639319	-0.650033
Br79	Br	0.328104	-0.716332	-0.592679
Br80	Br	-0.031310	-0.258024	0.103648
Br81	Br	-0.131080	-0.667235	0.000164
Br82	Br	0.334301	-0.525538	0.000137
H83	H	-0.496031	-0.996414	0.000255
Br84	Br	-0.219889	-0.538959	0.000148
H85	H	0.008931	-0.903935	-0.328186
Br86	Br	-0.392934	-1.069630	0.000267
Br87	Br	0.277095	-0.639295	-0.349687
Br88	Br	-0.079763	-0.222062	0.000247
H89	H	0.008935	-0.903966	-0.814275
H90	H	0.007431	-0.395899	0.079796
H91	H	-0.027213	-0.500120	0.000198
Br92	Br	0.277086	-0.639275	-0.163944
Br93	Br	0.282460	-0.319671	-0.103214
H94	H	0.008940	-0.903964	-0.671319
H95	H	0.008932	-0.903926	-0.185230
H96	H	-0.567310	-0.593040	0.000131
H97	H	0.243706	-0.181790	-0.079373
H98	H	0.242208	-0.673772	-0.814374
H99	H	0.278357	-0.077564	0.000218
Br100	Br	0.330898	-0.355627	0.000158
H101	H	-0.564375	-0.897684	0.000234
H102	H	-0.609064	-0.833159	0.000204
