data_functionalizedCrystal
_audit_creation_method	'MofGen! by Chris Wilmer'
_symmetry_space_group_name_H-M	'P1'
_symmetry_Int_Tables_number	1
_symmetry_cell_setting	triclinic
loop_
_symmetry_equiv_pos_as_xyz
  x,y,z
_cell_length_a	29.839131
_cell_length_b	19.077252
_cell_length_c	19.076919
_cell_angle_alpha	89.896235
_cell_angle_beta	92.267459
_cell_angle_gamma	92.342233
loop_
_atom_site_label
_atom_site_type_symbol
_atom_site_fract_x
_atom_site_fract_y
_atom_site_fract_z
Zn1	Zn	-0.162980	1.058222	-0.440353
Zn2	Zn	-0.234976	1.062829	-0.322837
Zn3	Zn	-0.162755	0.945437	-0.318151
Zn4	Zn	-0.240981	0.940645	-0.435594
O5	O	-0.200423	1.001783	-0.379234
O6	O	-0.170111	1.157168	-0.428716
O7	O	-0.222788	1.051190	-0.223884
O8	O	-0.099917	0.960475	-0.334391
O9	O	-0.223006	1.160553	-0.342378
O10	O	-0.100082	1.043338	-0.424172
O11	O	-0.169728	0.964943	-0.220441
O12	O	-0.175551	0.846466	-0.329777
O13	O	-0.233241	0.952308	-0.534557
O14	O	-0.233023	0.842945	-0.416063
O15	O	-0.175934	1.038691	-0.538052
O16	O	-0.298641	1.046543	-0.337764
O17	O	-0.303053	0.956775	-0.420607
C18	C	-0.317148	1.001657	-0.379194
C19	C	-0.367082	1.001667	-0.379203
C20	C	-0.204915	0.819208	-0.371896
C21	C	-0.206848	0.741101	-0.368773
C22	C	-0.205283	0.994451	-0.562514
C23	C	-0.207354	0.991327	-0.640617
C24	C	-0.674413	1.048604	-0.336167
C25	C	-0.862085	1.048690	-0.336197
O26	O	-0.884385	1.088498	-0.299576
N27	N	-0.887863	1.001927	-0.379292
C28	C	-0.866720	0.955142	-0.422386
O29	O	-0.892952	0.915373	-0.459047
C30	C	-0.679050	0.955060	-0.422359
C31	C	-0.653274	1.001821	-0.379256
C32	C	-0.648637	1.095363	-0.293068
C33	C	-0.601722	1.095338	-0.293058
C34	C	-0.580583	1.048555	-0.336147
C35	C	-0.606359	1.001797	-0.379246
C36	C	-0.657908	0.908279	-0.465456
C37	C	-0.610987	0.908264	-0.465446
C38	C	-0.585211	0.955025	-0.422343
C39	C	-0.538304	0.954990	-0.422325
N40	N	-0.512526	1.001753	-0.379229
C41	C	-0.533665	1.048536	-0.336140
C42	C	-0.965250	0.955187	-0.422397
C43	C	-1.012168	0.955206	-0.422403
C44	C	-1.007529	1.048756	-0.336215
C45	C	-0.960610	1.048732	-0.336205
C46	C	-0.939472	1.001950	-0.379302
C47	C	-0.435141	1.048481	-0.336122
C48	C	-0.388222	1.048450	-0.336114
C49	C	-0.392864	0.954903	-0.422304
C50	C	-0.439779	0.954931	-0.422310
C51	C	-0.460916	1.001725	-0.379217
O52	O	-0.515974	0.915208	-0.458933
O53	O	-0.507426	1.088309	-0.299496
C54	C	-0.721328	1.048629	-0.336177
C55	C	-0.747104	1.001870	-0.379276
C56	C	-0.725964	0.955088	-0.422365
C57	C	-0.794021	1.001890	-0.379282
C58	C	-0.815161	1.048673	-0.336193
C59	C	-0.789383	1.095436	-0.293098
C60	C	-0.742468	1.095412	-0.293088
C61	C	-0.751743	0.908324	-0.465460
C62	C	-0.798657	0.908352	-0.465466
C63	C	-0.819797	0.955135	-0.422377
C64	C	-0.083242	1.001927	-0.379290
C65	C	-0.033307	1.001989	-0.379314
C66	C	-0.195914	1.185071	-0.386601
C67	C	-0.193992	1.263177	-0.389740
C68	C	-0.220629	1.301635	-0.346267
C69	C	-0.218819	1.375024	-0.349217
C70	C	-0.190376	1.409954	-0.395644
C71	C	-0.163737	1.371491	-0.439119
C72	C	-0.165544	1.298103	-0.436165
C73	C	-0.182016	1.629250	-0.409294
C74	C	-0.180211	1.702643	-0.412246
C75	C	-0.235294	1.706171	-0.322343
C76	C	-0.237101	1.632782	-0.319396
C77	C	-0.210460	1.594326	-0.362869
N78	N	-0.188527	1.484969	-0.398661
N79	N	-0.212307	1.519312	-0.359847
C80	C	-0.178491	1.034832	-0.679131
C81	C	-0.180436	1.031887	-0.752516
C82	C	-0.211245	0.985441	-0.787387
C83	C	-0.240109	0.941931	-0.748867
C84	C	-0.238162	0.944873	-0.675483
C85	C	-0.220265	0.971819	-1.006667
C86	C	-0.222210	0.968882	-1.080057
C87	C	-0.162537	1.058838	-1.083701
C88	C	-0.160594	1.061778	-1.010315
C89	C	-0.189456	1.018266	-0.971802
N90	N	-0.213234	0.982432	-0.862399
N91	N	-0.187465	1.021272	-0.896791
C92	C	-0.195549	1.009127	-0.196668
C93	C	-0.193348	1.012387	-0.118571
H94	H	-0.367236	1.086529	-0.301012
H95	H	-0.580738	1.133417	-0.257961
C96	C	-0.152713	1.586958	-0.457121
N97	N	-0.130641	1.555100	-0.493148
H98	H	-0.139038	1.094262	-1.115066
C99	C	-0.671883	1.146828	-0.245658
N100	N	-0.689388	1.185591	-0.209941
H101	H	-0.143852	1.266792	-0.471564
C102	C	-0.264592	1.748480	-0.274519
N103	N	-0.286658	1.780347	-0.238492
C104	C	-0.248122	1.417324	-0.301392
N105	N	-0.270194	1.449185	-0.265368
C106	C	-0.269913	0.897015	-0.633118
N107	N	-0.293829	0.860965	-0.601209
C108	C	-0.458384	1.099953	-0.288713
N109	N	-0.475891	1.138718	-0.253000
H110	H	-0.260262	1.604347	-0.281589
H111	H	-0.593779	0.870169	-0.500543
C112	C	-0.932261	1.100175	-0.288791
N113	N	-0.910911	1.138925	-0.253078
H114	H	-0.140575	1.399937	-0.476918
H115	H	-0.157046	1.731081	-0.450052
C116	C	-0.812645	1.146897	-0.245699
N117	N	-0.830169	1.185657	-0.210003
H118	H	-1.033150	0.917122	-0.457495
H119	H	-0.243793	1.273200	-0.308464
H120	H	-1.024748	1.086848	-0.301130
C121	C	-0.468134	0.903489	-0.469723
N122	N	-0.489487	0.864747	-0.505441
H123	H	-0.153404	1.072656	-0.650745
H124	H	-0.247300	0.931058	-1.108446
C125	C	-0.942004	0.903737	-0.469829
N126	N	-0.924497	0.864990	-0.505560
C127	C	-0.252013	0.923951	-0.964312
N128	N	-0.275926	0.887894	-0.932408
C129	C	-0.148685	1.079748	-0.794879
N130	N	-0.124769	1.115799	-0.826786
C131	C	-0.686251	0.856838	-0.512876
N132	N	-0.707599	0.818091	-0.548597
C133	C	-0.369602	0.903447	-0.469703
N134	N	-0.352079	0.864694	-0.505408
H135	H	-0.135507	1.099601	-0.981929
H136	H	-0.265193	0.904111	-0.777264
H137	H	-0.721484	1.133489	-0.257989
H138	H	-0.734535	0.870229	-0.500549
C139	C	-0.827006	0.856906	-0.512885
N140	N	-0.848356	0.818161	-0.548605
