data_functionalizedCrystal
_audit_creation_method	'MofGen! by Chris Wilmer'
_symmetry_space_group_name_H-M	'P1'
_symmetry_Int_Tables_number	1
_symmetry_cell_setting	triclinic
loop_
_symmetry_equiv_pos_as_xyz
  x,y,z
_cell_length_a	12.827893
_cell_length_b	17.640280
_cell_length_c	12.827885
_cell_angle_alpha	101.230744
_cell_angle_beta	90.019082
_cell_angle_gamma	78.800887
loop_
_atom_site_label
_atom_site_type_symbol
_atom_site_fract_x
_atom_site_fract_y
_atom_site_fract_z
Zn1	Zn	1.681785	-0.314627	0.506822
Zn2	Zn	1.717022	-0.446821	0.296780
Zn3	Zn	1.507037	-0.314666	0.332086
Zn4	Zn	1.542339	-0.446763	0.471497
O5	O	1.612046	-0.380720	0.401796
O6	O	1.832698	-0.332171	0.478968
O7	O	1.689139	-0.429331	0.155217
O8	O	1.500698	-0.204055	0.384825
O9	O	1.858586	-0.429294	0.324651
O10	O	1.629084	-0.204026	0.513203
O11	O	1.534865	-0.332238	0.181156
O12	O	1.365482	-0.332181	0.350571
O13	O	1.560864	-0.429194	0.622430
O14	O	1.391418	-0.429232	0.452995
O15	O	1.663315	-0.332115	0.648383
O16	O	1.723370	-0.557420	0.290397
O17	O	1.595031	-0.557377	0.418761
C18	C	1.340532	-0.380705	0.401781
C19	C	1.224382	-0.380718	0.401795
C20	C	1.159719	-0.332630	0.351241
C21	C	1.039672	-0.332642	0.351254
C22	C	1.666883	-0.586078	0.346937
C23	C	1.690438	-0.673931	0.323503
C24	C	1.433528	-0.962894	0.580202
C25	C	1.455664	-1.045446	0.558149
C26	C	1.589386	-1.045425	0.424620
C27	C	1.567265	-0.962872	0.446665
C28	C	1.489334	-0.921613	0.524457
C29	C	1.623071	-0.921591	0.390920
C30	C	1.600948	-0.839045	0.412960
C31	C	1.523018	-0.797780	0.490746
C32	C	1.467211	-0.839067	0.546497
C33	C	1.700997	-0.962851	0.313123
C34	C	1.756803	-0.921570	0.257378
C35	C	1.734685	-0.839022	0.279423
C36	C	1.656755	-0.797758	0.357209
C37	C	1.790492	-0.797735	0.223672
C38	C	1.768369	-0.715190	0.245712
C39	C	1.634632	-0.715212	0.379249
C40	C	1.884620	-0.380735	0.401812
C41	C	2.000775	-0.380741	0.401819
C42	C	1.612097	-0.380644	0.674387
C43	C	1.612118	-0.380611	0.790549
C44	C	1.557023	-0.174559	0.456893
C45	C	1.533575	-0.086706	0.480371
C46	C	1.612040	-0.380738	0.130282
C47	C	1.612161	-0.380548	0.014180
C48	C	1.662819	-0.332564	0.855179
C49	C	1.662842	-0.332529	0.975239
H50	H	1.571180	-0.681618	0.442602
H51	H	1.505000	-0.730566	0.508682
H52	H	1.403759	-0.805473	0.609851
H53	H	1.568757	-0.421688	0.958654
H54	H	1.190869	-0.421899	0.445080
C55	C	1.347819	-0.917505	0.665786
H56	H	1.317749	-0.953911	0.695834
H57	H	1.379139	-0.885263	0.719953
H58	H	1.293682	-0.885345	0.634358
H59	H	1.568721	-0.421716	0.824102
C60	C	1.842522	-0.966955	0.171812
H61	H	1.872585	-0.930544	0.141765
H62	H	1.896647	-0.999115	0.203240
H63	H	1.811207	-0.999195	0.117628
C64	C	0.964628	-0.277021	0.292784
H65	H	1.004604	-0.246839	0.261066
H66	H	0.930099	-0.307246	0.239157
H67	H	0.912889	-0.242648	0.342069
H68	H	1.056327	-0.421909	0.445107
C69	C	1.394279	-1.090853	0.619482
H70	H	1.344706	-1.054455	0.668972
H71	H	1.357412	-1.123100	0.570861
H72	H	1.442856	-1.123008	0.656470
H73	H	1.193234	-0.291455	0.307947
H74	H	1.706203	-0.291452	0.821628
H75	H	1.652834	-1.079029	0.361279
H76	H	1.853936	-0.831341	0.160327
C77	C	1.829757	-0.669777	0.184398
H78	H	1.879345	-0.706171	0.134920
H79	H	1.781190	-0.637617	0.147417
H80	H	1.866626	-0.637534	0.233034
H81	H	1.719009	-1.030065	0.295184
C82	C	1.721488	-0.276960	1.050247
H83	H	1.713807	-0.284225	1.121101
H84	H	1.794798	-0.288525	1.029322
H85	H	1.692024	-0.223842	1.046609
