data_functionalizedCrystal
_audit_creation_method	'MofGen! by Chris Wilmer'
_symmetry_space_group_name_H-M	'P1'
_symmetry_Int_Tables_number	1
_symmetry_cell_setting	triclinic
loop_
_symmetry_equiv_pos_as_xyz
  x,y,z
_cell_length_a	19.805407
_cell_length_b	12.594516
_cell_length_c	12.594517
_cell_angle_alpha	89.999530
_cell_angle_beta	90.003252
_cell_angle_gamma	90.016053
loop_
_atom_site_label
_atom_site_type_symbol
_atom_site_fract_x
_atom_site_fract_y
_atom_site_fract_z
Zn1	Zn	1.034675	-0.423990	0.601893
Zn2	Zn	1.534675	0.076010	1.101893
Zn3	Zn	1.034643	-0.601918	0.423920
Zn4	Zn	1.534643	-0.101918	0.923920
Zn5	Zn	0.921522	-0.423954	0.423920
Zn6	Zn	1.421522	0.076046	0.923920
Zn7	Zn	0.921474	-0.601927	0.601848
Zn8	Zn	1.421474	-0.101927	1.101848
O9	O	0.978079	-0.512947	0.512895
O10	O	1.478079	-0.012947	1.012895
O11	O	1.129388	-0.447604	0.578303
O12	O	1.629388	0.052396	1.078303
O13	O	1.019644	-0.578291	0.274975
O14	O	1.519644	-0.078291	0.774975
O15	O	0.936566	-0.275013	0.447546
O16	O	1.436566	0.224987	0.947546
O17	O	1.129364	-0.578327	0.447548
O18	O	1.629364	-0.078327	0.947548
O19	O	1.019699	-0.275040	0.578302
O20	O	1.519699	0.224960	1.078302
O21	O	0.936535	-0.447541	0.274974
O22	O	1.436535	0.052459	0.774974
O23	O	0.826799	-0.447551	0.447503
O24	O	1.326799	0.052449	0.947503
O25	O	0.936484	-0.578343	0.750800
O26	O	1.436484	-0.078343	1.250800
O27	O	0.826764	-0.578307	0.578227
O28	O	1.326764	-0.078307	1.078227
O29	O	1.019652	-0.447613	0.750832
O30	O	1.519652	0.052387	1.250832
O31	O	1.019597	-0.750865	0.447505
O32	O	1.519597	-0.250865	0.947505
O33	O	0.936452	-0.750872	0.578228
O34	O	1.436452	-0.250872	1.078228
C35	C	0.802223	-0.512927	0.512861
C36	C	1.302223	-0.012927	1.012861
C37	C	0.726991	-0.512944	0.512871
C38	C	1.226991	-0.012944	1.012871
C39	C	0.978034	-0.789488	0.512885
C40	C	1.478034	-0.289488	1.012885
C41	C	0.978077	-0.907794	0.512916
C42	C	1.478077	-0.407794	1.012916
C43	C	0.691646	-0.581131	0.580829
C44	C	1.191646	-0.081131	1.080829
C45	C	0.620957	-0.581133	0.580844
C46	C	1.120957	-0.081133	1.080844
C47	C	0.585615	-0.512952	0.512895
C48	C	1.085615	-0.012952	1.012895
C49	C	0.620965	-0.444757	0.444935
C50	C	1.120965	0.055243	0.944935
C51	C	0.691652	-0.444751	0.444926
C52	C	1.191652	0.055249	0.944926
C53	C	0.335892	-0.444781	0.444970
C54	C	0.835892	0.055219	0.944970
C55	C	0.265199	-0.444795	0.444982
C56	C	0.765199	0.055205	0.944982
C57	C	0.265197	-0.581163	0.580888
C58	C	0.765197	-0.081163	1.080888
C59	C	0.335884	-0.581156	0.580879
C60	C	0.835884	-0.081156	1.080879
C61	C	0.371228	-0.512958	0.512923
C62	C	0.871228	-0.012958	1.012923
C63	C	0.447876	-0.512955	0.512909
C64	C	0.947876	-0.012955	1.012909
C65	C	0.508968	-0.512959	0.512903
C66	C	1.008968	-0.012959	1.012903
C67	C	0.932850	-0.977089	0.583966
C68	C	1.432850	-0.477089	1.083966
C69	C	0.916379	-1.047909	0.486843
C70	C	1.416379	-0.547909	0.986843
C71	C	0.994610	-1.047772	0.610056
C72	C	1.494610	-0.547772	1.110056
C73	C	0.961573	-0.977055	0.415741
C74	C	1.461573	-0.477055	0.915741
C75	C	1.039833	-0.976912	0.539020
C76	C	1.539833	-0.476912	1.039020
C77	C	1.023385	-1.047700	0.441830
C78	C	1.523385	-0.547700	0.941830
C79	C	1.154621	-0.512968	0.512930
C80	C	1.654621	-0.012968	1.012930
C81	C	1.229853	-0.512977	0.512945
C82	C	1.729853	-0.012977	1.012945
C83	C	0.978066	-0.512983	0.790516
C84	C	1.478066	-0.012983	1.290516
C85	C	0.978061	-0.512998	0.908822
C86	C	1.478061	-0.012998	1.408822
C87	C	0.978142	-0.235326	0.512929
C88	C	1.478142	0.264674	1.012929
C89	C	0.978168	-0.117021	0.512943
C90	C	1.478168	0.382979	1.012943
C91	C	0.932825	-0.584075	1.048821
C92	C	1.432825	-0.084075	1.548821
C93	C	0.916291	-0.486979	0.978015
C94	C	1.416291	0.013021	1.478015
C95	C	0.994564	-0.610084	0.978055
C96	C	1.494564	-0.110084	1.478055
C97	C	0.961490	-0.415810	1.048802
C98	C	1.461490	0.084190	1.548802
C99	C	1.039792	-0.538981	1.048848
C100	C	1.539792	-0.038981	1.548848
C101	C	1.023282	-0.441818	0.978075
C102	C	1.523282	0.058182	1.478075
C103	C	0.978077	-0.512945	1.236354
C104	C	1.478077	-0.012945	1.736354
C105	C	0.978055	-0.512958	1.118049
C106	C	1.478055	-0.012958	1.618049
H107	H	0.720416	-0.636655	0.636157
H108	H	1.220416	-0.136655	1.136157
Cl109	Cl	0.220760	-0.666899	0.666321
Cl110	Cl	0.720760	-0.166899	1.166321
Cl111	Cl	0.939841	-0.288984	1.096573
Cl112	Cl	1.439841	0.211016	1.596573
H113	H	0.864084	-0.464978	0.946902
H114	H	1.364084	0.035022	1.446902
H115	H	0.864196	-1.079118	0.464786
H116	H	1.364196	-0.579118	0.964786
Cl117	Cl	1.082498	-1.095272	0.348980
Cl118	Cl	1.582498	-0.595272	0.848980
Cl119	Cl	0.873698	-0.929213	0.676599
Cl120	Cl	1.373698	-0.429213	1.176599
H121	H	0.592183	-0.636659	0.636181
H122	H	1.092183	-0.136659	1.136181
H123	H	1.091983	-0.561010	1.079984
H124	H	1.591983	-0.061010	1.579984
Cl125	Cl	1.120382	-0.928727	0.573145
Cl126	Cl	1.620382	-0.428727	1.073145
H127	H	1.008526	-0.692206	0.946980
H128	H	1.508526	-0.192206	1.446980
Cl129	Cl	0.380310	-0.666876	0.666300
Cl130	Cl	0.880310	-0.166876	1.166300
Cl131	Cl	1.016142	-1.095735	0.736870
Cl132	Cl	1.516142	-0.595735	1.236870
H133	H	1.061535	-0.381625	0.947208
H134	H	1.561535	0.118375	1.447208
H135	H	0.947566	-0.946122	0.333580
H136	H	1.447566	-0.446122	0.833580
H137	H	0.236426	-0.389267	0.389650
H138	H	0.736426	0.110733	0.889650
H139	H	0.364660	-0.389258	0.389628
H140	H	0.864660	0.110742	0.889628
Cl141	Cl	0.576534	-0.359036	0.359520
Cl142	Cl	1.076534	0.140964	0.859520
H143	H	0.720429	-0.389220	0.389593
H144	H	1.220429	0.110780	0.889593
Cl145	Cl	0.873723	-0.676784	1.096788
Cl146	Cl	1.373723	-0.176784	1.596788
