data_functionalizedCrystal
_audit_creation_method	'MofGen! by Chris Wilmer'
_symmetry_space_group_name_H-M	'P1'
_symmetry_Int_Tables_number	1
_symmetry_cell_setting	triclinic
loop_
_symmetry_equiv_pos_as_xyz
  x,y,z
_cell_length_a	11.792241
_cell_length_b	13.339070
_cell_length_c	11.804366
_cell_angle_alpha	105.136371
_cell_angle_beta	101.900770
_cell_angle_gamma	80.088645
loop_
_atom_site_label
_atom_site_type_symbol
_atom_site_fract_x
_atom_site_fract_y
_atom_site_fract_z
O1	O	0.586450	-1.325015	0.099074
O2	O	0.511636	-1.030079	0.099066
O3	O	0.386076	-1.184706	0.099062
O4	O	0.712010	-1.170388	0.099078
O5	O	0.353135	-1.225462	-0.098995
O6	O	0.478695	-1.070835	-0.098991
O7	O	0.553510	-1.365770	-0.098983
Cu8	Cu	0.513095	-1.222024	-0.117071
Cu9	Cu	0.552051	-1.173826	0.117154
O10	O	0.679070	-1.211144	-0.098979
C11	C	0.327038	-1.204185	0.000034
C12	C	0.200195	-1.201493	0.000035
C13	C	0.482528	-1.012699	0.000037
C14	C	0.444859	-0.900191	0.000034
C15	C	0.582618	-1.383151	0.000049
C16	C	0.620289	-1.495657	0.000060
C17	C	-0.032038	-1.196540	0.000054
C18	C	0.097192	-1.199292	0.000044
C19	C	0.738108	-1.191665	0.000052
C20	C	0.864952	-1.194355	0.000059
N21	N	0.579442	-1.139927	0.281896
C22	C	0.737758	-0.536997	0.000067
C23	C	0.773155	-0.642703	0.000074
C24	C	0.691084	-0.707080	0.000063
C25	C	0.573610	-0.665741	0.000047
C26	C	0.538212	-0.560024	0.000050
C27	C	0.491537	-0.730106	0.000046
C28	C	0.374064	-0.688768	0.000030
C29	C	0.338671	-0.583060	0.000032
C30	C	0.420742	-0.518683	0.000042
C31	C	0.526936	-0.835824	0.000043
C32	C	0.327389	-0.858850	0.000026
C33	C	0.291992	-0.753145	0.000019
N34	N	0.485697	-1.255931	-0.281813
C35	C	0.419938	-1.337363	0.655839
C36	C	0.399226	-1.363017	0.531176
C37	C	0.444278	-1.307247	0.468850
C38	C	0.510046	-1.225818	0.531198
C39	C	0.530752	-1.200156	0.655873
C40	C	0.555093	-1.170040	0.468884
C41	C	0.620861	-1.088611	0.531233
C42	C	0.641564	-1.062954	0.655895
C43	C	0.596511	-1.118724	0.718221
C44	C	0.534387	-1.195702	0.344210
C45	C	0.645201	-1.058495	0.344244
C46	C	0.665913	-1.032841	0.468906
H47	H	0.622582	-0.869472	0.000052
H48	H	0.681885	-1.013079	0.293499
H49	H	0.719911	-0.793149	0.000072
N50	N	0.733065	-0.949647	0.532600
N51	N	0.699446	-0.858864	0.518673
H52	H	0.746871	-0.800108	0.563657
H53	H	0.868803	-0.676351	0.000096
N54	N	0.243558	-0.924616	-0.000001
N55	N	0.227169	-1.003350	-0.083493
H56	H	0.167971	-1.049803	-0.083511
H57	H	0.804569	-0.484571	0.000086
H58	H	0.345677	-1.429314	0.480417
N59	N	0.384604	-0.410702	0.000036
N60	N	0.457895	-0.353241	0.000040
H61	H	0.432377	-0.276977	0.000039
H62	H	0.243019	-0.549403	0.000032
N63	N	0.617668	-1.092496	0.845565
N64	N	0.676378	-1.019785	0.901222
H65	H	0.691318	-1.001261	0.991160
N66	N	0.172003	-0.710897	-0.000002
N67	N	0.140420	-0.616511	-0.000006
H68	H	0.055677	-0.586671	-0.000022
N69	N	0.467194	-1.278862	0.280536
N70	N	0.364007	-1.274207	0.294437
H71	H	0.316546	-1.332943	0.249469
N72	N	0.423110	-1.333460	0.341511
N73	N	0.364390	-1.406165	0.285858
H74	H	0.349439	-1.424685	0.195920
N75	N	0.373918	-1.394303	0.719521
N76	N	0.392408	-1.371373	0.830830
H77	H	0.359901	-1.411588	0.875808
N78	N	0.708725	-0.979761	0.719566
N79	N	0.748941	-0.929969	0.663910
H80	H	0.796372	-0.871212	0.708875
