data_functionalizedCrystal
_audit_creation_method	'MofGen! by Chris Wilmer'
_symmetry_space_group_name_H-M	'P1'
_symmetry_Int_Tables_number	1
_symmetry_cell_setting	triclinic
loop_
_symmetry_equiv_pos_as_xyz
  x,y,z
_cell_length_a	29.839134
_cell_length_b	29.839131
_cell_length_c	29.839126
_cell_angle_alpha	89.975848
_cell_angle_beta	89.970362
_cell_angle_gamma	90.036281
loop_
_atom_site_label
_atom_site_type_symbol
_atom_site_fract_x
_atom_site_fract_y
_atom_site_fract_z
Zn1	Zn	0.686754	-0.178949	-0.254125
Zn2	Zn	1.186754	0.321051	0.245875
Zn3	Zn	0.686676	-0.254070	-0.178995
Zn4	Zn	1.186676	0.245930	0.321005
Zn5	Zn	0.611626	-0.178948	-0.178995
Zn6	Zn	1.111626	0.321052	0.321005
Zn7	Zn	0.611584	-0.254046	-0.254083
Zn8	Zn	1.111584	0.245954	0.245917
O9	O	0.649160	-0.216503	-0.216549
O10	O	1.149160	0.283497	0.283451
O11	O	0.749610	-0.188925	-0.244176
O12	O	1.249610	0.311075	0.255824
O13	O	0.676705	-0.244114	-0.116128
O14	O	1.176705	0.255886	0.383872
O15	O	0.621642	-0.116081	-0.188978
O16	O	1.121642	0.383919	0.311022
O17	O	0.749553	-0.244115	-0.188979
O18	O	1.249553	0.255885	0.311021
O19	O	0.676838	-0.116082	-0.244176
O20	O	1.176838	0.383918	0.255824
O21	O	0.621567	-0.188922	-0.116128
O22	O	1.121567	0.311078	0.383872
O23	O	0.548754	-0.188899	-0.188938
O24	O	1.048754	0.311101	0.311062
O25	O	0.621570	-0.244075	-0.316956
O26	O	1.121570	0.255925	0.183044
O27	O	0.548723	-0.244074	-0.244105
O28	O	1.048723	0.255926	0.255895
O29	O	0.676797	-0.188902	-0.316987
O30	O	1.176797	0.311098	0.183013
O31	O	0.676664	-0.316934	-0.188938
O32	O	1.176664	0.183066	0.311062
O33	O	0.621495	-0.316917	-0.244105
O34	O	1.121495	0.183083	0.255895
C35	C	0.532437	-0.216484	-0.216517
C36	C	1.032437	0.283516	0.283483
C37	C	0.482503	-0.216487	-0.216514
C38	C	0.982503	0.283513	0.283486
C39	C	0.172853	-0.245275	-0.245240
C40	C	0.672853	0.254725	0.254760
C41	C	-0.014820	-0.245288	-0.245260
C42	C	0.485180	0.254712	0.254740
O43	O	-0.039091	-0.269743	-0.269665
O44	O	0.460909	0.230257	0.230335
N45	N	-0.038282	-0.216520	-0.216583
N46	N	0.461718	0.283480	0.283417
C47	C	-0.014823	-0.187744	-0.187902
C48	C	0.485177	0.312256	0.312098
O49	O	-0.039085	-0.163273	-0.163514
O50	O	0.460915	0.336727	0.336486
C51	C	0.172849	-0.187730	-0.187884
C52	C	0.672849	0.312270	0.312116
C53	C	0.196309	-0.216503	-0.216560
C54	C	0.696309	0.283497	0.283440
C55	C	0.196312	-0.274046	-0.273913
C56	C	0.696312	0.225954	0.226087
C57	C	0.243228	-0.274044	-0.273906
C58	C	0.743228	0.225956	0.226094
C59	C	0.266684	-0.245272	-0.245226
C60	C	0.766684	0.254728	0.254774
C61	C	0.243224	-0.216501	-0.216553
C62	C	0.743224	0.283499	0.283447
C63	C	0.196308	-0.158953	-0.159205
C64	C	0.696308	0.341047	0.340795
C65	C	0.243229	-0.158951	-0.159204
C66	C	0.743229	0.341049	0.340796
C67	C	0.266688	-0.187724	-0.187880
C68	C	0.766688	0.312276	0.312120
C69	C	0.313596	-0.187727	-0.187865
C70	C	0.813596	0.312273	0.312135
N71	N	0.337058	-0.216495	-0.216542
N72	N	0.837058	0.283505	0.283458
C73	C	0.313602	-0.245268	-0.245222
C74	C	0.813602	0.254732	0.254778
C75	C	-0.113354	-0.187755	-0.187912
C76	C	0.386646	0.312245	0.312088
C77	C	-0.160271	-0.187759	-0.187916
C78	C	0.339729	0.312241	0.312084
C79	C	-0.160265	-0.245302	-0.245275
C80	C	0.339735	0.254698	0.254725
C81	C	-0.113347	-0.245300	-0.245269
C82	C	0.386653	0.254700	0.254731
C83	C	-0.089892	-0.216523	-0.216589
C84	C	0.410108	0.283477	0.283411
C85	C	0.412127	-0.245262	-0.245205
C86	C	0.912127	0.254738	0.254795
C87	C	0.459047	-0.245259	-0.245194
C88	C	0.959047	0.254741	0.254806
C89	C	0.459037	-0.187715	-0.187837
C90	C	0.959037	0.312285	0.312163
C91	C	0.412121	-0.187719	-0.187846
C92	C	0.912121	0.312281	0.312154
C93	C	0.388668	-0.216494	-0.216534
C94	C	0.888668	0.283506	0.283466
O95	O	0.337895	-0.163281	-0.163477
O96	O	0.837895	0.336719	0.336523
O97	O	0.337872	-0.269729	-0.269613
O98	O	0.837872	0.230271	0.230387
C99	C	0.125937	-0.245277	-0.245247
C100	C	0.625937	0.254723	0.254753
C101	C	0.102478	-0.216506	-0.216574
C102	C	0.602478	0.283494	0.283426
C103	C	0.125934	-0.187734	-0.187893
C104	C	0.625934	0.312266	0.312107
C105	C	0.055560	-0.216511	-0.216577
C106	C	0.555560	0.283489	0.283423
C107	C	0.032104	-0.245283	-0.245258
C108	C	0.532104	0.254717	0.254742
C109	C	0.055566	-0.274051	-0.273934
C110	C	0.555566	0.225949	0.226066
C111	C	0.102482	-0.274049	-0.273927
C112	C	0.602482	0.225951	0.226073
C113	C	0.102472	-0.158966	-0.159217
C114	C	0.602472	0.341034	0.340783
C115	C	0.055556	-0.158971	-0.159226
C116	C	0.555556	0.341029	0.340774
C117	C	0.032100	-0.187743	-0.187906
C118	C	0.532100	0.312257	0.312094
C119	C	0.649079	-0.333226	-0.216527
C120	C	1.149079	0.166774	0.283473
C121	C	0.649085	-0.383160	-0.216533
C122	C	1.149085	0.116840	0.283467
C123	C	0.677939	-0.692800	-0.187866
C124	C	1.177939	-0.192800	0.312134
C125	C	0.677994	-0.880473	-0.187883
C126	C	1.177994	-0.380473	0.312117
O127	O	0.702462	-0.904735	-0.163493
O128	O	1.202462	-0.404735	0.336507
N129	N	0.649253	-0.903945	-0.216583
N130	N	1.149253	-0.403945	0.283417
C131	C	0.620498	-0.880496	-0.245283
C132	C	1.120498	-0.380496	0.254717
O133	O	0.596056	-0.904767	-0.269698
O134	O	1.096056	-0.404767	0.230302
C135	C	0.620445	-0.692824	-0.245268
C136	C	1.120445	-0.192824	0.254732
C137	C	0.649185	-0.669354	-0.216563
C138	C	1.149185	-0.169354	0.283437
C139	C	0.706677	-0.669330	-0.159164
C140	C	1.206677	-0.169330	0.340836
C141	C	0.706661	-0.622415	-0.159158
C142	C	1.206661	-0.122415	0.340842
C143	C	0.677907	-0.598969	-0.187854
C144	C	1.177907	-0.098969	0.312146
C145	C	0.649169	-0.622439	-0.216557
C146	C	1.149169	-0.122439	0.283443
C147	C	0.591693	-0.669376	-0.273969
C148	C	1.091693	-0.169376	0.226031
C149	C	0.591683	-0.622455	-0.273964
C150	C	1.091683	-0.122455	0.226036
C151	C	0.620423	-0.598985	-0.245259
C152	C	1.120423	-0.098985	0.254741
C153	C	0.620399	-0.552078	-0.245248
C154	C	1.120399	-0.052078	0.254752
N155	N	0.649141	-0.528606	-0.216548
N156	N	1.149141	-0.028606	0.283452
C157	C	0.677895	-0.552051	-0.187851
C158	C	1.177895	-0.052051	0.312149
C159	C	0.620527	-0.979027	-0.245289
C160	C	1.120527	-0.479027	0.254711
C161	C	0.620540	-1.025945	-0.245292
C162	C	1.120540	-0.525945	0.254708
C163	C	0.678037	-1.025918	-0.187893
C164	C	1.178037	-0.525918	0.312107
C165	C	0.678022	-0.979000	-0.187887
C166	C	1.178022	-0.479000	0.312113
C167	C	0.649268	-0.955555	-0.216589
C168	C	1.149268	-0.455555	0.283411
C169	C	0.677859	-0.453525	-0.187841
C170	C	1.177859	0.046475	0.312159
C171	C	0.677839	-0.406606	-0.187836
C172	C	1.177839	0.093394	0.312164
C173	C	0.620344	-0.406637	-0.245237
C174	C	1.120344	0.093363	0.254763
C175	C	0.620362	-0.453552	-0.245240
C176	C	1.120362	0.046448	0.254760
C177	C	0.649123	-0.476995	-0.216540
C178	C	1.149123	0.023005	0.283460
O179	O	0.595948	-0.527787	-0.269629
O180	O	1.095948	-0.027787	0.230371
O181	O	0.702340	-0.527772	-0.163447
O182	O	1.202340	-0.027772	0.336553
C183	C	0.677955	-0.739715	-0.187872
C184	C	1.177955	-0.239715	0.312128
C185	C	0.649217	-0.763185	-0.216574
C186	C	1.149217	-0.263185	0.283426
C187	C	0.620463	-0.739740	-0.245271
C188	C	1.120463	-0.239740	0.254729
C189	C	0.649229	-0.810103	-0.216578
C190	C	1.149229	-0.310103	0.283422
C191	C	0.677983	-0.833549	-0.187881
C192	C	1.177983	-0.333549	0.312119
C193	C	0.706724	-0.810076	-0.159181
C194	C	1.206724	-0.310076	0.340819
C195	C	0.706709	-0.763161	-0.159175
C196	C	1.206709	-0.263161	0.340825
C197	C	0.591722	-0.763212	-0.273971
C198	C	1.091722	-0.263212	0.226029
C199	C	0.591740	-0.810128	-0.273974
C200	C	1.091740	-0.310128	0.226026
C201	C	0.620493	-0.833573	-0.245277
C202	C	1.120493	-0.333573	0.254723
C203	C	0.766338	-0.216523	-0.216582
C204	C	1.266338	0.283477	0.283418
C205	C	0.816273	-0.216531	-0.216596
C206	C	1.316273	0.283469	0.283404
C207	C	0.649188	-0.216486	-0.333728
C208	C	1.149188	0.283514	0.166272
C209	C	0.649200	-0.216479	-0.383662
C210	C	1.149200	0.283521	0.116338
C211	C	0.649254	-0.099325	-0.216582
C212	C	1.149254	0.400675	0.283418
C213	C	0.649294	-0.049390	-0.216595
C214	C	1.149294	0.450610	0.283405
C215	C	0.620498	-0.187695	-0.693309
C216	C	1.120498	0.312305	-0.193309
C217	C	0.620511	-0.187664	-0.880982
C218	C	1.120511	0.312336	-0.380982
O219	O	0.596085	-0.163236	-0.905249
O220	O	1.096085	0.336764	-0.405249
N221	N	0.649221	-0.216394	-0.904448
N222	N	1.149221	0.283606	-0.404448
C223	C	0.677928	-0.245137	-0.880992
C224	C	1.177928	0.254863	-0.380992
O225	O	0.702345	-0.269576	-0.905258
O226	O	1.202345	0.230424	-0.405258
C227	C	0.677913	-0.245170	-0.693320
C228	C	1.177913	0.254830	-0.193320
C229	C	0.649204	-0.216434	-0.669857
C230	C	1.149204	0.283566	-0.169857
C231	C	0.591791	-0.158963	-0.669845
C232	C	1.091791	0.341037	-0.169845
C233	C	0.591790	-0.158969	-0.622930
C234	C	1.091790	0.341031	-0.122930
C235	C	0.620496	-0.187708	-0.599478
C236	C	1.120496	0.312292	-0.099478
C237	C	0.649203	-0.216441	-0.622941
C238	C	1.149203	0.283559	-0.122941
C239	C	0.706617	-0.273914	-0.669866
C240	C	1.206617	0.226086	-0.169866
C241	C	0.706610	-0.273920	-0.622945
C242	C	1.206610	0.226080	-0.122945
C243	C	0.677901	-0.245185	-0.599481
C244	C	1.177901	0.254815	-0.099481
C245	C	0.677907	-0.245186	-0.552574
C246	C	1.177907	0.254814	-0.052574
N247	N	0.649197	-0.216456	-0.529108
N248	N	1.149197	0.283544	-0.029108
C249	C	0.620491	-0.187717	-0.552560
C250	C	1.120491	0.312283	-0.052560
C251	C	0.677935	-0.245117	-0.979523
C252	C	1.177935	0.254883	-0.479523
C253	C	0.677939	-0.245108	-1.026441
C254	C	1.177939	0.254892	-0.526441
C255	C	0.620521	-0.187636	-1.026427
C256	C	1.120521	0.312364	-0.526427
C257	C	0.620519	-0.187643	-0.979508
C258	C	1.120519	0.312357	-0.479508
C259	C	0.649224	-0.216386	-0.956057
C260	C	1.149224	0.283614	-0.456057
C261	C	0.620491	-0.187732	-0.454034
C262	C	1.120491	0.312268	0.045966
C263	C	0.620494	-0.187740	-0.407114
C264	C	1.120494	0.312260	0.092886
C265	C	0.677910	-0.245213	-0.407132
C266	C	1.177910	0.254787	0.092868
C267	C	0.677909	-0.245204	-0.454048
C268	C	1.177909	0.254796	0.045952
C269	C	0.649196	-0.216462	-0.477497
C270	C	1.149196	0.283538	0.022503
O271	O	0.702316	-0.269605	-0.528278
O272	O	1.202316	0.230395	-0.028278
O273	O	0.596071	-0.163288	-0.528286
O274	O	1.096071	0.336712	-0.028286
C275	C	0.620499	-0.187689	-0.740224
C276	C	1.120499	0.312311	-0.240224
C277	C	0.649206	-0.216422	-0.763688
C278	C	1.149206	0.283578	-0.263688
C279	C	0.677912	-0.245161	-0.740236
C280	C	1.177912	0.254839	-0.240236
C281	C	0.649211	-0.216413	-0.810605
C282	C	1.149211	0.283587	-0.310605
C283	C	0.620505	-0.187674	-0.834057
C284	C	1.120505	0.312326	-0.334057
C285	C	0.591795	-0.158944	-0.810591
C286	C	1.091795	0.341056	-0.310591
C287	C	0.591793	-0.158950	-0.763676
C288	C	1.091793	0.341050	-0.263676
C289	C	0.706622	-0.273891	-0.763702
C290	C	1.206622	0.226109	-0.263702
C291	C	0.706621	-0.273882	-0.810617
C292	C	1.206621	0.226118	-0.310617
C293	C	0.677915	-0.245143	-0.834069
C294	C	1.177915	0.254857	-0.334069
C295	C	0.649158	-0.216488	-0.099827
C296	C	1.149158	0.283512	0.400173
C297	C	0.649233	-0.216369	-0.049893
C298	C	1.149233	0.283631	0.450107
H299	H	0.262324	-0.297473	-0.297258
H300	H	0.762324	0.202527	0.202742
H301	H	0.597112	-0.959941	-0.268661
H302	H	1.097112	-0.459941	0.231339
H303	H	0.568287	-0.688477	-0.297342
H304	H	1.068287	-0.188477	0.202658
Br305	Br	0.164488	-0.313098	-0.312843
Br306	Br	0.664488	0.186902	0.187157
Br307	Br	0.581346	-0.485405	-0.284186
Br308	Br	1.081346	0.014595	0.215814
H309	H	0.568413	-0.135560	-0.688935
H310	H	1.068413	0.364440	-0.188935
Br311	Br	0.716869	-0.284211	-0.375296
Br312	Br	1.216869	0.215789	0.124704
Br313	Br	0.581531	-0.148737	-0.375274
Br314	Br	1.081531	0.351263	0.124726
H315	H	0.597142	-0.164244	-0.960407
H316	H	1.097142	0.335756	-0.460407
H317	H	0.597111	-0.164327	-0.473121
H318	H	1.097111	0.335673	0.026879
H319	H	0.568423	-0.135542	-0.829694
H320	H	1.068423	0.364458	-0.329694
H321	H	0.701242	-0.387498	-0.164459
H322	H	1.201242	0.112502	0.335541
H323	H	0.730094	-0.688415	-0.135795
H324	H	1.230094	-0.188415	0.364205
Br325	Br	0.745589	-0.312882	-0.842454
Br326	Br	1.245589	0.187118	-0.342454
H327	H	0.701322	-0.268502	-1.045541
H328	H	1.201322	0.231498	-0.545541
Br329	Br	0.716892	-0.485334	-0.148891
Br330	Br	1.216892	0.014666	0.351109
Br331	Br	0.716897	-0.284128	-0.947703
Br332	Br	1.216897	0.215872	-0.447703
H333	H	0.121578	-0.297479	-0.297278
H334	H	0.621578	0.202521	0.202722
H335	H	0.597149	-0.164235	-1.045530
H336	H	1.097149	0.335765	-0.545530
Br337	Br	0.164482	-0.119898	-0.120289
Br338	Br	0.664482	0.380102	0.379711
H339	H	0.596931	-0.387540	-0.268600
H340	H	1.096931	0.112460	0.231400
Br341	Br	0.745674	-0.590570	-0.120205
Br342	Br	1.245674	-0.090570	0.379795
Br343	Br	0.552830	-0.119950	-0.731840
Br344	Br	1.052830	0.380050	-0.231840
H345	H	-0.094249	-0.268729	-0.268619
H346	H	0.405751	0.231271	0.231381
Br347	Br	0.745578	-0.312917	-0.701697
Br348	Br	1.245578	0.187083	-0.201697
Br349	Br	-0.192107	-0.284347	-0.284201
Br350	Br	0.307893	0.215653	0.215799
H351	H	0.393037	-0.268692	-0.268566
H352	H	0.893037	0.231308	0.231434
H353	H	0.036460	-0.297479	-0.297286
H354	H	0.536460	0.202521	0.202714
Br355	Br	0.745567	-0.312934	-0.591121
Br356	Br	1.245567	0.187066	-0.091121
H357	H	0.701424	-0.959893	-0.164514
H358	H	1.201424	-0.459893	0.335486
Br359	Br	0.552660	-0.590640	-0.312919
Br360	Br	1.052660	-0.090640	0.187081
H361	H	0.729996	-0.297296	-0.744612
H362	H	1.229996	0.202704	-0.244612
Br363	Br	0.745716	-0.731316	-0.120217
Br364	Br	1.245716	-0.231316	0.379783
H365	H	0.262323	-0.135514	-0.135852
H366	H	0.762323	0.364486	0.364148
H367	H	0.730136	-0.829174	-0.135814
H368	H	1.230136	-0.329174	0.364186
Br369	Br	0.716880	-0.284193	-0.485892
Br370	Br	1.216880	0.215807	0.014108
H371	H	0.568307	-0.744126	-0.297340
H372	H	1.068307	-0.244126	0.202660
Br373	Br	0.717058	-1.057746	-0.148946
Br374	Br	1.217058	-0.557746	0.351054
H375	H	0.597133	-1.045050	-0.268662
H376	H	1.097133	-0.545050	0.231338
Br377	Br	0.023724	-0.119920	-0.120303
Br378	Br	0.523724	0.380080	0.379697
Br379	Br	0.490882	-0.284313	-0.284111
Br380	Br	0.990882	0.215687	0.215889
H381	H	-0.179368	-0.164333	-0.164561
H382	H	0.320632	0.335667	0.335439
H383	H	-0.094261	-0.164321	-0.164556
H384	H	0.405739	0.335679	0.335444
H385	H	0.393020	-0.164291	-0.164496
H386	H	0.893020	0.335709	0.335504
H387	H	0.121565	-0.135536	-0.135861
H388	H	0.621565	0.364464	0.364139
Br389	Br	0.490879	-0.148669	-0.148915
Br390	Br	0.990879	0.351331	0.351085
Br391	Br	0.552824	-0.119971	-0.591094
Br392	Br	1.052824	0.380029	-0.091094
Br393	Br	0.552730	-0.841974	-0.312933
Br394	Br	1.052730	-0.341974	0.187067
