data_functionalizedCrystal
_audit_creation_method	'MofGen! by Chris Wilmer'
_symmetry_space_group_name_H-M	'P1'
_symmetry_Int_Tables_number	1
_symmetry_cell_setting	triclinic
loop_
_symmetry_equiv_pos_as_xyz
  x,y,z
_cell_length_a	12.759401
_cell_length_b	17.640280
_cell_length_c	12.759393
_cell_angle_alpha	78.768122
_cell_angle_beta	89.981504
_cell_angle_gamma	78.801088
loop_
_atom_site_label
_atom_site_type_symbol
_atom_site_fract_x
_atom_site_fract_y
_atom_site_fract_z
Zn1	Zn	1.690815	-0.314620	-0.509515
Zn2	Zn	1.726240	-0.446817	-0.298344
Zn3	Zn	1.515128	-0.314662	-0.333843
Zn4	Zn	1.550620	-0.446756	-0.474002
O5	O	1.620701	-0.380714	-0.403926
O6	O	1.842537	-0.332165	-0.481509
O7	O	1.698207	-0.429329	-0.156021
O8	O	1.508755	-0.204049	-0.386865
O9	O	1.868564	-0.429289	-0.326362
O10	O	1.637831	-0.204019	-0.515931
O11	O	1.543105	-0.332235	-0.182102
O12	O	1.372813	-0.332176	-0.352430
O13	O	1.569245	-0.429185	-0.625745
O14	O	1.398888	-0.429226	-0.455404
O15	O	1.672246	-0.332106	-0.651837
O16	O	1.732622	-0.557416	-0.291927
O17	O	1.603595	-0.557371	-0.420982
C18	C	1.347729	-0.380699	-0.403916
C19	C	1.230956	-0.380712	-0.403931
C20	C	1.189721	-0.431327	-0.457417
C21	C	1.079999	-0.431337	-0.457425
C22	C	1.052758	-0.330115	-0.350454
C23	C	1.162476	-0.330102	-0.350453
C24	C	1.205448	-0.489768	-0.519172
C25	C	1.095727	-0.489778	-0.519181
C26	C	1.675832	-0.586073	-0.348771
C27	C	1.699514	-0.673926	-0.325211
C28	C	1.441225	-0.962886	-0.583293
C29	C	1.463480	-1.045438	-0.561121
C30	C	1.597919	-1.045419	-0.426872
C31	C	1.575680	-0.962866	-0.449037
C32	C	1.497331	-0.921606	-0.527247
C33	C	1.631785	-0.921585	-0.392991
C34	C	1.609543	-0.839039	-0.415150
C35	C	1.531196	-0.797773	-0.493355
C36	C	1.475089	-0.839060	-0.549406
C37	C	1.710129	-0.962847	-0.314775
C38	C	1.766234	-0.921566	-0.258729
C39	C	1.743998	-0.839018	-0.280893
C40	C	1.665650	-0.797753	-0.359098
C41	C	1.800105	-0.797732	-0.224841
C42	C	1.777863	-0.715186	-0.247000
C43	C	1.643408	-0.715207	-0.381257
C44	C	1.894738	-0.380729	-0.403937
C45	C	2.011516	-0.380736	-0.403942
C46	C	1.620753	-0.380634	-0.677981
C47	C	1.620775	-0.380600	-0.794767
C48	C	1.565383	-0.174553	-0.459319
C49	C	1.541809	-0.086700	-0.482925
C50	C	1.674416	-0.330046	-0.863218
C51	C	1.674433	-0.330017	-0.972949
C52	C	1.567168	-0.431104	-0.945768
C53	C	1.567145	-0.431128	-0.836040
C54	C	1.736348	-0.271687	-0.878911
C55	C	1.736365	-0.271658	-0.988643
C56	C	1.620694	-0.380736	-0.130953
C57	C	1.620815	-0.380548	-0.014227
H58	H	1.196043	-0.288882	-0.306908
H59	H	1.661708	-1.079024	-0.363190
H60	H	1.255083	-0.547887	-0.474284
F61	F	1.357846	-0.918970	-0.666544
H62	H	1.523501	-0.472240	-0.979387
H63	H	1.698128	-0.210475	-0.865588
F64	F	1.677772	-0.195673	-1.053551
F65	F	0.979868	-0.276255	-0.293544
H66	H	1.819518	-0.293631	-0.838983
H67	H	1.579616	-0.681611	-0.444952
F68	F	1.238681	-0.468432	-0.631302
H69	H	1.055857	-0.467928	-0.602399
F70	F	1.848480	-0.293078	-1.021819
F71	F	1.078274	-0.569764	-0.469013
H72	H	1.411297	-0.805464	-0.613101
F73	F	1.507713	-0.709919	-0.517128
H74	H	1.417799	-1.079045	-0.606779
H75	H	1.728238	-1.030061	-0.296739
F76	F	1.883480	-0.841654	-0.141600
F77	F	1.849617	-0.965486	-0.175495
H78	H	1.823549	-0.681575	-0.201360
H79	H	1.523461	-0.472291	-0.780311
