data_functionalizedCrystal
_audit_creation_method	'MofGen! by Chris Wilmer'
_symmetry_space_group_name_H-M	'P1'
_symmetry_Int_Tables_number	1
_symmetry_cell_setting	triclinic
loop_
_symmetry_equiv_pos_as_xyz
  x,y,z
_cell_length_a	8.497374
_cell_length_b	8.497365
_cell_length_c	15.298708
_cell_angle_alpha	99.636543
_cell_angle_beta	99.688223
_cell_angle_gamma	89.956729
loop_
_atom_site_label
_atom_site_type_symbol
_atom_site_fract_x
_atom_site_fract_y
_atom_site_fract_z
Zn1	Zn	-0.209887	-0.475305	1.379262
Zn2	Zn	-0.473853	-0.211567	1.379188
Zn3	Zn	-0.255758	-0.257119	1.228385
Zn4	Zn	-0.519296	-0.520842	1.228460
O5	O	-0.364699	-0.366208	1.303824
O6	O	-0.206687	-0.402199	1.505475
O7	O	-0.445101	0.003134	1.359122
O8	O	-0.028911	-0.286068	1.248399
O9	O	-0.400622	-0.208432	1.505421
O10	O	0.004790	-0.446369	1.359247
O11	O	-0.284868	-0.030333	1.248328
O12	O	-0.328933	-0.330223	1.102172
O13	O	-0.478073	-0.735545	1.248526
O14	O	-0.522553	-0.523979	1.102227
O15	O	-0.250752	-0.702090	1.359319
O16	O	-0.700643	-0.252587	1.359194
O17	O	-0.734030	-0.479809	1.248455
C18	C	-0.435653	-0.436986	1.069472
C19	C	-0.466045	-0.467303	0.969215
C20	C	0.046779	-0.366218	1.303816
C21	C	0.225424	-0.366223	1.303817
C22	C	-0.364890	0.043652	1.303759
C23	C	-0.364528	0.222334	1.303887
C24	C	-0.147875	-0.149919	0.686393
C25	C	-0.119310	-0.121436	0.780589
C26	C	-0.205992	-0.207900	0.827750
C27	C	-0.321242	-0.322852	0.780706
C28	C	-0.349800	-0.351346	0.686500
C29	C	-0.407918	-0.409327	0.827857
C30	C	-0.523168	-0.524279	0.780813
C31	C	-0.551722	-0.552767	0.686616
C32	C	-0.465040	-0.466303	0.639455
C33	C	-0.379359	-0.380833	0.922063
C34	C	-0.581285	-0.582260	0.922170
C35	C	-0.609849	-0.610743	0.827974
C36	C	-0.293468	-0.295155	1.539091
C37	C	-0.263114	-0.264876	1.639348
H38	H	-0.285517	-0.287243	0.960357
O39	O	-0.007545	-0.009567	0.826242
C40	C	-0.048857	0.140736	0.803145
H41	H	-0.182727	0.141085	0.777268
H42	H	0.019167	0.165283	0.748434
C43	C	0.159386	0.270857	0.918561
C44	C	-0.005039	0.271291	0.886785
H45	H	0.186420	0.351392	0.970152
H46	H	0.187223	0.169595	0.934120
H47	H	0.216053	0.291308	0.872960
H48	H	-0.061703	0.250820	0.932382
H49	H	-0.032885	0.372552	0.871236
H50	H	-0.182727	-0.184704	0.904449
O51	O	-0.663564	-0.664622	0.641018
C52	C	-0.622212	-0.814938	0.664081
H53	H	-0.540834	-0.797626	0.732469
H54	H	-0.557227	-0.884242	0.611074
C55	C	-0.874706	-0.930168	0.584502
C56	C	-0.774767	-0.908905	0.668501
H57	H	-0.968808	-0.988136	0.587224
H58	H	-0.902564	-0.828899	0.568960
H59	H	-0.820533	-0.987916	0.540338
H60	H	-0.828934	-0.851141	0.712660
H61	H	-0.746922	-1.010167	0.684050
H62	H	-0.488298	-0.489480	0.562753
H63	H	-0.077303	-0.079541	0.647986
H64	H	-0.703686	-0.704338	0.789657
H65	H	-0.651863	-0.652672	0.960568
