data_functionalizedCrystal
_audit_creation_method	'MofGen! by Chris Wilmer'
_symmetry_space_group_name_H-M	'P1'
_symmetry_Int_Tables_number	1
_symmetry_cell_setting	triclinic
loop_
_symmetry_equiv_pos_as_xyz
  x,y,z
_cell_length_a	18.215407
_cell_length_b	21.295417
_cell_length_c	21.295411
_cell_angle_alpha	89.978356
_cell_angle_beta	89.977780
_cell_angle_gamma	90.027950
loop_
_atom_site_label
_atom_site_type_symbol
_atom_site_fract_x
_atom_site_fract_y
_atom_site_fract_z
Zn1	Zn	1.125078	-0.250724	-0.355872
Zn2	Zn	1.625078	0.249276	0.144128
Zn3	Zn	1.124964	-0.355976	-0.250597
Zn4	Zn	1.624964	0.144024	0.249403
Zn5	Zn	1.002001	-0.250720	-0.250621
Zn6	Zn	1.502001	0.249280	0.249379
Zn7	Zn	1.001965	-0.355954	-0.355833
Zn8	Zn	1.501965	0.144046	0.144167
O9	O	1.063502	-0.303343	-0.303231
O10	O	1.563502	0.196657	0.196769
O11	O	1.228047	-0.264696	-0.341913
O12	O	1.728047	0.235304	0.158087
O13	O	1.108620	-0.342020	-0.162511
O14	O	1.608620	0.157980	0.337489
O15	O	1.018390	-0.162631	-0.264609
O16	O	1.518390	0.337369	0.235391
O17	O	1.227964	-0.342025	-0.264569
O18	O	1.727964	0.157975	0.235431
O19	O	1.108815	-0.162634	-0.341937
O20	O	1.608815	0.337366	0.158063
O21	O	1.018279	-0.264689	-0.162529
O22	O	1.518279	0.235311	0.337471
O23	O	0.899012	-0.264669	-0.264572
O24	O	1.399012	0.235331	0.235428
O25	O	1.018329	-0.341988	-0.443928
O26	O	1.518329	0.158012	0.056072
O27	O	0.898985	-0.341984	-0.341871
O28	O	1.398985	0.158016	0.158129
O29	O	1.108780	-0.264676	-0.443956
O30	O	1.608780	0.235324	0.056044
O31	O	1.108585	-0.444062	-0.264531
O32	O	1.608585	0.055938	0.235469
O33	O	1.018218	-0.444047	-0.341848
O34	O	1.518218	0.055953	0.158152
C35	C	0.872296	-0.303324	-0.303220
C36	C	1.372296	0.196676	0.196780
C37	C	0.790497	-0.303331	-0.303230
C38	C	1.290497	0.196669	0.196770
C39	C	0.602346	-0.263149	-0.343567
C40	C	1.102346	0.236851	0.156433
C41	C	0.525487	-0.263155	-0.343569
C42	C	1.025487	0.236845	0.156431
C43	C	0.525410	-0.343555	-0.262906
C44	C	1.025410	0.156445	0.237094
C45	C	0.602268	-0.343546	-0.262901
C46	C	1.102268	0.156454	0.237099
C47	C	0.640733	-0.303344	-0.303235
C48	C	1.140733	0.196656	0.196765
C49	C	0.487017	-0.303359	-0.303242
C50	C	0.987017	0.196641	0.196758
C51	C	0.403684	-0.303365	-0.303244
C52	C	0.903684	0.196635	0.196756
C53	C	0.724072	-0.303337	-0.303233
C54	C	1.224072	0.196663	0.196767
C55	C	1.063405	-0.466895	-0.303196
C56	C	1.563405	0.033105	0.196804
C57	C	1.063432	-0.536863	-0.303202
C58	C	1.563432	-0.036863	0.196798
C59	C	1.110528	-0.569717	-0.262985
C60	C	1.610528	-0.069717	0.237015
C61	C	1.110562	-0.635460	-0.262999
C62	C	1.610562	-0.135460	0.237001
C63	C	1.063487	-0.668346	-0.303224
C64	C	1.563487	-0.168346	0.196776
C65	C	1.016388	-0.635484	-0.343449
C66	C	1.516388	-0.135484	0.156551
C67	C	1.016360	-0.569743	-0.343439
C68	C	1.516360	-0.069743	0.156561
N69	N	0.999109	-0.771610	-0.308019
N70	N	1.499109	-0.271610	0.191981
N71	N	0.999138	-0.834061	-0.308026
N72	N	1.499138	-0.334061	0.191974
C73	C	1.063570	-0.866420	-0.303260
C74	C	1.563570	-0.366420	0.196740
N75	N	1.127974	-0.833969	-0.298475
N76	N	1.627974	-0.333969	0.201525
N77	N	1.127944	-0.771512	-0.298465
N78	N	1.627944	-0.271512	0.201535
C79	C	1.063513	-0.739631	-0.303241
C80	C	1.563513	-0.239631	0.196759
C81	C	1.110707	-0.970560	-0.263056
C82	C	1.610707	-0.470560	0.236944
C83	C	1.110743	-1.036303	-0.263075
C84	C	1.610743	-0.536303	0.236925
C85	C	1.016562	-1.036326	-0.343521
C86	C	1.516562	-0.536326	0.156479
C87	C	1.016533	-0.970584	-0.343506
C88	C	1.516533	-0.470584	0.156494
C89	C	1.063605	-0.937705	-0.303270
C90	C	1.563605	-0.437705	0.196730
C91	C	1.255455	-0.303363	-0.303243
C92	C	1.755455	0.196637	0.196757
C93	C	1.337254	-0.303372	-0.303247
C94	C	1.837254	0.196628	0.196753
C95	C	1.063563	-0.303330	-0.467421
C96	C	1.563563	0.196670	0.032579
C97	C	1.063589	-0.303324	-0.537390
C98	C	1.563589	0.196676	-0.037390
C99	C	1.063619	-0.139153	-0.303280
C100	C	1.563619	0.360847	0.196720
C101	C	1.063669	-0.069185	-0.303301
C102	C	1.563669	0.430815	0.196699
C103	C	1.110685	-0.263066	-0.570272
C104	C	1.610685	0.236934	-0.070272
C105	C	1.110684	-0.263039	-0.636015
C106	C	1.610684	0.236961	-0.136015
C107	C	1.063595	-0.303281	-0.668872
C108	C	1.563595	0.196719	-0.168872
C109	C	1.016490	-0.343542	-0.635982
C110	C	1.516490	0.156458	-0.135982
C111	C	1.016487	-0.343564	-0.570241
C112	C	1.516487	0.156436	-0.070241
N113	N	1.057917	-0.358349	-0.772088
N114	N	1.557917	0.141651	-0.272088
N115	N	1.057924	-0.358326	-0.834539
N116	N	1.557924	0.141674	-0.334539
C117	C	1.063599	-0.303217	-0.866947
C118	C	1.563599	0.196783	-0.366947
N119	N	1.069282	-0.248130	-0.834544
N120	N	1.569282	0.251870	-0.334544
N121	N	1.069279	-0.248153	-0.772087
N122	N	1.569279	0.251847	-0.272087
C123	C	1.063592	-0.303262	-0.740158
C124	C	1.563592	0.196738	-0.240158
C125	C	1.110697	-0.262926	-0.971115
C126	C	1.610697	0.237074	-0.471115
C127	C	1.110691	-0.262898	-1.036859
C128	C	1.610691	0.237102	-0.536859
C129	C	1.016500	-0.343407	-1.036825
C130	C	1.516500	0.156593	-0.536825
C131	C	1.016503	-0.343429	-0.971082
C132	C	1.516503	0.156571	-0.471082
C133	C	1.063605	-0.303190	-0.938231
C134	C	1.563605	0.196810	-0.438231
C135	C	1.063483	-0.303311	-0.139680
C136	C	1.563483	0.196689	0.360320
C137	C	1.063600	-0.303140	-0.069712
C138	C	1.563600	0.196860	0.430288
H139	H	1.148858	-0.542949	-0.230224
H140	H	1.648858	-0.042949	0.269776
F141	F	0.643281	-0.220361	-0.386493
F142	F	1.143281	0.279639	0.113507
F143	F	1.160690	-0.670432	-0.220192
F144	F	1.660690	-0.170432	0.279808
F145	F	0.643125	-0.386324	-0.219967
F146	F	1.143125	0.113676	0.280033
H147	H	0.978061	-0.662264	-0.376202
H148	H	1.478061	-0.162264	0.123798
H149	H	0.978008	-0.542992	-0.376189
H150	H	1.478008	-0.042992	0.123811
H151	H	1.149038	-0.943788	-0.230295
H152	H	1.649038	-0.443788	0.269705
H153	H	1.149099	-1.063052	-0.230326
H154	H	1.649099	-0.563052	0.269674
F155	F	1.160800	-0.220178	-0.671018
F156	F	1.660800	0.279822	-0.171018
H157	H	0.978236	-1.063102	-0.376276
H158	H	1.478236	-0.563102	0.123724
F159	F	1.160812	-0.220237	-0.535313
F160	F	1.660812	0.279763	-0.035313
F161	F	0.966404	-0.935617	-0.386309
F162	F	1.466404	-0.435617	0.113691
H163	H	0.494082	-0.376287	-0.230068
H164	H	0.994082	0.123713	0.269932
H165	H	1.149040	-0.230111	-1.063631
H166	H	1.649040	0.269889	-0.563631
H167	H	0.978156	-0.376216	-0.944309
H168	H	1.478156	0.123784	-0.444309
F169	F	0.966372	-0.386369	-0.670952
F170	F	1.466372	0.113631	-0.170952
H171	H	0.978132	-0.376346	-0.543468
H172	H	1.478132	0.123654	-0.043468
F173	F	1.160823	-0.220098	-0.936150
F174	F	1.660823	0.279902	-0.436150
F175	F	0.966379	-0.386231	-1.071790
F176	F	1.466379	0.113769	-0.571790
H177	H	0.494235	-0.230423	-0.376411
H178	H	0.994235	0.269577	0.123589
