data_functionalizedCrystal
_audit_creation_method	'MofGen! by Chris Wilmer'
_symmetry_space_group_name_H-M	'P1'
_symmetry_Int_Tables_number	1
_symmetry_cell_setting	triclinic
loop_
_symmetry_equiv_pos_as_xyz
  x,y,z
_cell_length_a	15.944545
_cell_length_b	14.421503
_cell_length_c	14.044220
_cell_angle_alpha	89.996304
_cell_angle_beta	88.342525
_cell_angle_gamma	90.004847
loop_
_atom_site_label
_atom_site_type_symbol
_atom_site_fract_x
_atom_site_fract_y
_atom_site_fract_z
O1	O	1.123683	0.077054	0.122209
O2	O	1.457017	0.410387	0.455542
O3	O	1.790350	0.743720	0.788876
O4	O	0.880262	0.077069	0.137287
O5	O	1.213595	0.410402	0.470621
O6	O	1.546929	0.743736	0.803954
O7	O	0.998319	0.077053	-0.008236
O8	O	1.331652	0.410386	0.325097
O9	O	1.664985	0.743719	0.658430
O10	O	1.005626	0.077070	0.267733
O11	O	1.338960	0.410404	0.601066
O12	O	1.672293	0.743737	0.934400
O13	O	0.998299	-0.077171	-0.008215
O14	O	1.331632	0.256162	0.325118
O15	O	1.664966	0.589496	0.658452
O16	O	0.880242	-0.077154	0.137309
O17	O	1.213575	0.256179	0.470642
O18	O	1.546909	0.589512	0.803976
O19	O	1.123663	-0.077170	0.122231
O20	O	1.456997	0.256164	0.455564
O21	O	1.790330	0.589497	0.788897
Cu22	Cu	1.001951	-0.091244	0.129772
Cu23	Cu	1.335284	0.242090	0.463105
Cu24	Cu	1.668618	0.575423	0.796439
Cu25	Cu	1.001974	0.091143	0.129746
Cu26	Cu	1.335308	0.424477	0.463080
Cu27	Cu	1.668641	0.757810	0.796413
O28	O	1.005607	-0.077153	0.267755
O29	O	1.338940	0.256180	0.601088
O30	O	1.672273	0.589514	0.934421
C31	C	0.848911	-0.000041	0.136673
C32	C	1.182244	0.333293	0.470007
C33	C	1.515578	0.666626	0.803340
C34	C	0.755525	-0.000035	0.134800
C35	C	1.088858	0.333298	0.468133
C36	C	1.422191	0.666631	0.801467
C37	C	0.477719	-0.000051	0.038999
C38	C	0.811052	0.333282	0.372333
C39	C	1.144385	0.666615	0.705666
C40	C	0.531749	-0.076091	0.085197
C41	C	0.865082	0.257243	0.418531
C42	C	1.198415	0.590576	0.751864
C43	C	0.419380	-0.000051	0.128119
C44	C	0.752714	0.333282	0.461452
C45	C	1.086047	0.666615	0.794785
C46	C	0.531751	0.075962	0.085200
C47	C	0.865084	0.409295	0.418533
C48	C	1.198417	0.742628	0.751866
C49	C	0.584539	-0.000042	0.131396
C50	C	0.917873	0.333291	0.464730
C51	C	1.251206	0.666625	0.798063
C52	C	0.472181	-0.076154	0.174293
C53	C	0.805514	0.257180	0.507626
C54	C	1.138847	0.590513	0.840959
C55	C	0.472178	0.075967	0.174282
C56	C	0.805511	0.409300	0.507616
C57	C	1.138845	0.742633	0.840949
C58	C	0.526180	-0.000091	0.220546
C59	C	0.859514	0.333242	0.553879
C60	C	1.192847	0.666575	0.887212
C61	C	0.324237	-0.000058	0.126228
C62	C	0.657570	0.333276	0.459561
C63	C	0.990903	0.666609	0.792894
C64	C	0.679681	-0.000042	0.133294
C65	C	1.013014	0.333291	0.466628
C66	C	1.346348	0.666624	0.799961
N67	N	1.001941	-0.219525	0.129789
N68	N	1.335274	0.113808	0.463123
N69	N	1.668607	0.447142	0.796456
C70	C	0.947338	-0.469171	0.197049
C71	C	1.280672	-0.135838	0.530383
C72	C	1.614005	0.197496	0.863716
C73	C	1.024616	-0.530977	0.215450
C74	C	1.357950	-0.197644	0.548783
C75	C	1.691283	0.135690	0.882117
C76	C	1.001959	-0.408686	0.129767
C77	C	1.335293	-0.075353	0.463100
C78	C	1.668626	0.257980	0.796433
C79	C	0.924703	-0.530974	0.111388
C80	C	1.258036	-0.197641	0.444722
C81	C	1.591369	0.135692	0.778055
C82	C	1.001971	-0.591408	0.129747
C83	C	1.335304	-0.258075	0.463080
C84	C	1.668637	0.075259	0.796414
C85	C	1.079279	-0.469132	0.148210
C86	C	1.412612	-0.135798	0.481543
C87	C	1.745946	0.197535	0.814876
C88	C	0.979312	-0.469123	0.044111
C89	C	1.312646	-0.135790	0.377444
C90	C	1.645979	0.197543	0.710778
C91	C	1.056643	-0.530902	0.062475
C92	C	1.389976	-0.197568	0.395809
C93	C	1.723309	0.135765	0.729142
C94	C	1.001952	-0.303425	0.129780
C95	C	1.335285	0.029908	0.463114
C96	C	1.668618	0.363241	0.796447
C97	C	1.001987	-0.696667	0.129732
C98	C	1.335320	-0.363333	0.463066
C99	C	1.668654	-0.030000	0.796399
C100	C	1.155014	-0.000058	0.122845
C101	C	1.488347	0.333276	0.456178
C102	C	1.821681	0.666609	0.789511
C103	C	1.248401	-0.000057	0.124718
C104	C	1.581734	0.333276	0.458052
C105	C	1.915067	0.666609	0.791385
C106	C	0.995110	-0.000059	-0.043540
C107	C	1.328444	0.333274	0.289793
C108	C	1.661777	0.666607	0.623126
C109	C	0.985569	-0.000060	-0.148766
C110	C	1.318902	0.333273	0.184567
C111	C	1.652236	0.666607	0.517900
N112	N	1.001991	0.219425	0.129721
N113	N	1.335324	0.552758	0.463055
N114	N	1.668657	0.886091	0.796388
C115	C	0.968125	-0.000045	-0.341428
C116	C	1.301459	0.333288	-0.008095
C117	C	1.634792	0.666621	0.325238
C118	C	1.035796	-0.000047	-0.399059
C119	C	1.369130	0.333286	-0.065726
C120	C	1.702463	0.666620	0.267608
C121	C	1.026090	-0.000039	-0.506263
C122	C	1.359424	0.333294	-0.172930
C123	C	1.692757	0.666628	0.160404
C124	C	0.977830	-0.000054	-0.234215
C125	C	1.311163	0.333280	0.099119
C126	C	1.644497	0.666613	0.432452
C127	C	1.008815	-0.000039	0.303058
C128	C	1.342148	0.333294	0.636392
C129	C	1.675482	0.666628	0.969725
C130	C	1.018356	-0.000032	0.408285
C131	C	1.351690	0.333301	0.741618
C132	C	1.685023	0.666634	1.074951
H133	H	0.557853	-0.140381	0.047569
H134	H	0.891187	0.192952	0.380902
H135	H	1.224520	0.526286	0.714235
H136	H	0.446179	-0.140508	0.211911
H137	H	0.779512	0.192825	0.545244
H138	H	1.112846	0.526159	0.878578
H139	H	0.901202	-0.442067	0.253994
H140	H	1.234535	-0.108733	0.587327
H141	H	1.567869	0.224600	0.920660
N142	N	0.953892	-0.433101	-0.051794
N143	N	1.287225	-0.099767	0.281539
N144	N	1.620559	0.233566	0.614872
H145	H	0.954614	-0.363073	-0.051254
H146	H	1.287948	-0.029740	0.282079
H147	H	1.621281	0.303593	0.615413
H148	H	0.994553	-0.456600	-0.102724
H149	H	1.327886	-0.123266	0.230609
H150	H	1.661219	0.210067	0.563942
N151	N	0.449341	-0.000167	-0.062652
N152	N	0.782674	0.333166	0.270682
N153	N	1.116007	0.666499	0.604015
H154	H	0.414951	0.057279	-0.074509
H155	H	0.748285	0.390613	0.258824
H156	H	1.081618	0.723946	0.592157
H157	H	0.500029	-0.000842	-0.107467
H158	H	0.833363	0.332491	0.225866
H159	H	1.166696	0.665825	0.559199
H160	H	1.102894	-0.557836	0.005565
H161	H	1.436227	-0.224503	0.338898
H162	H	1.769560	0.108831	0.672231
N163	N	0.838158	-0.566967	0.090804
N164	N	1.171491	-0.233634	0.424138
N165	N	1.504825	0.099699	0.757471
H166	H	0.796946	-0.544514	0.141681
H167	H	1.130279	-0.211180	0.475014
H168	H	1.463613	0.122153	0.808347
H169	H	0.820692	-0.543497	0.026587
H170	H	1.154026	-0.210163	0.359920
H171	H	1.487359	0.123170	0.693254
H172	H	1.043782	-0.558146	0.287878
H173	H	1.377115	-0.224812	0.621212
H174	H	1.710449	0.108521	0.954545
H175	H	0.547424	-0.000131	0.297356
H176	H	0.880757	0.333203	0.630689
H177	H	1.214090	0.666536	0.964022
H178	H	0.557857	0.140243	0.047538
H179	H	0.891190	0.473576	0.380872
H180	H	1.224524	0.806910	0.714205
H181	H	0.902906	-0.000039	-0.372600
H182	H	1.236240	0.333294	-0.039267
H183	H	1.569573	0.666628	0.294067
N184	N	0.437563	0.161121	0.224088
N185	N	0.770896	0.494454	0.557421
N186	N	1.104230	0.827787	0.890754
H187	H	0.485405	0.200125	0.247422
H188	H	0.818738	0.533458	0.580755
H189	H	1.152071	0.866791	0.914089
H190	H	0.403665	0.198476	0.178082
H191	H	0.736998	0.531809	0.511416
H192	H	1.070331	0.865143	0.844749
N193	N	1.165859	-0.433312	0.168899
N194	N	1.499193	-0.099978	0.502232
N195	N	1.832526	0.233355	0.835565
H196	H	1.165316	-0.363280	0.168806
H197	H	1.498649	-0.029947	0.502139
H198	H	1.831982	0.303386	0.835473
H199	H	1.183041	-0.456425	0.233358
H200	H	1.516375	-0.123092	0.566691
H201	H	1.849708	0.210242	0.900024
H202	H	1.101020	0.000011	-0.367886
H203	H	1.434354	0.333345	-0.034552
H204	H	1.767687	0.666678	0.298781
