data_functionalizedCrystal
_audit_creation_method	'MofGen! by Chris Wilmer'
_symmetry_space_group_name_H-M	'P1'
_symmetry_Int_Tables_number	1
_symmetry_cell_setting	triclinic
loop_
_symmetry_equiv_pos_as_xyz
  x,y,z
_cell_length_a	9.065215
_cell_length_b	8.559649
_cell_length_c	7.540329
_cell_angle_alpha	89.998238
_cell_angle_beta	89.997574
_cell_angle_gamma	77.396681
loop_
_atom_site_label
_atom_site_type_symbol
_atom_site_fract_x
_atom_site_fract_y
_atom_site_fract_z
O1	O	1.931011	0.233881	-0.147453
O2	O	2.431011	0.733881	0.352547
O3	O	1.499315	0.253072	-0.147460
O4	O	1.999315	0.753072	0.352540
O5	O	1.753196	0.011424	-0.147454
O6	O	2.253196	0.511424	0.352546
O7	O	1.677130	0.475528	-0.147459
O8	O	2.177130	0.975528	0.352541
O9	O	1.753183	0.011421	0.147511
O10	O	2.253183	0.511421	0.647511
O11	O	1.499301	0.253068	0.147505
O12	O	1.999301	0.753068	0.647505
O13	O	1.930998	0.233878	0.147512
O14	O	2.430998	0.733878	0.647512
Cu15	Cu	1.715149	0.243473	0.174441
Cu16	Cu	2.215149	0.743473	0.674441
Cu17	Cu	1.715164	0.243477	-0.174389
Cu18	Cu	2.215164	0.743477	0.325611
O19	O	1.677117	0.475525	0.147506
O20	O	2.177117	0.975525	0.647506
C21	C	1.444553	0.251227	0.000022
C22	C	1.944553	0.751227	0.500022
C23	C	1.281402	0.245715	0.000019
C24	C	1.781402	0.745715	0.500019
C25	C	1.758954	-0.048024	0.000026
C26	C	2.258954	0.451976	0.500026
C27	C	1.776112	-0.225156	0.000016
C28	C	2.276112	0.274844	0.500016
C29	C	1.985760	0.235723	0.000027
C30	C	2.485760	0.735723	0.500027
C31	C	2.148910	0.241234	0.000018
C32	C	2.648910	0.741234	0.500018
C33	C	1.671359	0.534973	0.000023
C34	C	2.171359	1.034973	0.500023
C35	C	1.654200	0.712105	0.000021
C36	C	2.154200	1.212105	0.500021
N37	N	1.715149	0.243469	0.419790
N38	N	2.215149	0.743469	0.919790
N39	N	1.715177	0.243468	-0.419737
N40	N	2.215177	0.743468	0.080263
H41	H	1.536699	-0.206097	0.000025
H42	H	2.036699	0.293903	0.500025
H43	H	1.893621	-0.306962	0.000032
H44	H	2.393621	0.193038	0.500032
