data_functionalizedCrystal
_audit_creation_method	'MofGen! by Chris Wilmer'
_symmetry_space_group_name_H-M	'P1'
_symmetry_Int_Tables_number	1
_symmetry_cell_setting	triclinic
loop_
_symmetry_equiv_pos_as_xyz
  x,y,z
_cell_length_a	12.759401
_cell_length_b	11.169416
_cell_length_c	12.759393
_cell_angle_alpha	89.971939
_cell_angle_beta	89.979062
_cell_angle_gamma	90.011674
loop_
_atom_site_label
_atom_site_type_symbol
_atom_site_fract_x
_atom_site_fract_y
_atom_site_fract_z
Zn1	Zn	1.606300	-0.477700	-0.594038
Zn2	Zn	2.106300	0.022300	-0.094038
Zn3	Zn	1.606205	-0.678429	-0.418365
Zn4	Zn	2.106205	-0.178429	0.081635
Zn5	Zn	1.430598	-0.477764	-0.418373
Zn6	Zn	1.930598	0.022236	0.081627
Zn7	Zn	1.430604	-0.678345	-0.594003
Zn8	Zn	1.930604	-0.178345	-0.094003
O9	O	1.518427	-0.578060	-0.506195
O10	O	2.018427	-0.078060	-0.006195
O11	O	1.753308	-0.504336	-0.570746
O12	O	2.253308	-0.004336	-0.070746
O13	O	1.582868	-0.651872	-0.271345
O14	O	2.082868	-0.151872	0.228655
O15	O	1.453943	-0.309806	-0.441693
O16	O	1.953943	0.190194	0.058307
O17	O	1.753238	-0.651810	-0.441680
O18	O	2.253238	-0.151810	0.058320
O19	O	1.583030	-0.309759	-0.570753
O20	O	2.083030	0.190241	-0.070753
O21	O	1.453851	-0.504445	-0.271351
O22	O	1.953851	-0.004445	0.228649
O23	O	1.283578	-0.504363	-0.441659
O24	O	1.783578	-0.004363	0.058341
O25	O	1.453953	-0.651667	-0.741029
O26	O	1.953953	-0.151667	-0.241029
O27	O	1.283582	-0.651729	-0.570693
O28	O	1.783582	-0.151729	-0.070693
O29	O	1.583035	-0.504254	-0.741054
O30	O	2.083035	-0.004254	-0.241054
O31	O	1.582874	-0.846368	-0.441646
O32	O	2.082874	-0.346368	0.058354
O33	O	1.453861	-0.846306	-0.570686
O34	O	1.953861	-0.346306	-0.070686
C35	C	1.245459	-0.578045	-0.506174
C36	C	1.745459	-0.078045	-0.006174
C37	C	1.128683	-0.578068	-0.506190
C38	C	1.628683	-0.078068	-0.006190
C39	C	1.518386	-0.889884	-0.506184
C40	C	2.018386	-0.389884	-0.006184
C41	C	1.518465	-1.023284	-0.506215
C42	C	2.018465	-0.523284	-0.006215
C43	C	1.073850	-0.654918	-0.573272
C44	C	1.573850	-0.154918	-0.073272
C45	C	0.964126	-0.654923	-0.573293
C46	C	1.464126	-0.154923	-0.073293
C47	C	0.964076	-0.501223	-0.439140
C48	C	1.464076	-0.001223	0.060860
C49	C	1.073798	-0.501213	-0.439125
C50	C	1.573798	-0.001213	0.060875
C51	C	1.792460	-0.578075	-0.506216
C52	C	2.292460	-0.078075	-0.006216
C53	C	1.909237	-0.578082	-0.506226
C54	C	2.409237	-0.078082	-0.006226
C55	C	1.518505	-0.577944	-0.780228
C56	C	2.018505	-0.077944	-0.280228
C57	C	1.518539	-0.577895	-0.897005
C58	C	2.018539	-0.077895	-0.397005
C59	C	1.518496	-0.265017	-0.506228
C60	C	2.018496	0.234983	-0.006228
C61	C	1.518526	-0.131617	-0.506242
C62	C	2.018526	0.368383	-0.006242
C63	C	1.585757	-0.501125	-0.951882
C64	C	2.085757	-0.001125	-0.451882
C65	C	1.585775	-0.501073	-1.061606
C66	C	2.085775	-0.001073	-0.561606
C67	C	1.451353	-0.654573	-1.061566
C68	C	1.951353	-0.154573	-0.561566
C69	C	1.451331	-0.654617	-0.951844
C70	C	1.951331	-0.154617	-0.451844
C71	C	1.518409	-0.578088	-0.233227
C72	C	2.018409	-0.078088	0.266773
C73	C	1.518579	-0.577799	-0.116451
C74	C	2.018579	-0.077799	0.383549
H75	H	0.919487	-0.717500	-0.627920
H76	H	1.419487	-0.217500	-0.127920
H77	H	0.919376	-0.438653	-0.384537
H78	H	1.419376	0.061347	0.115463
O79	O	1.651067	-0.426480	-0.898773
O80	O	2.151067	0.073520	-0.398773
C81	C	1.710415	-0.358730	-0.970743
C82	C	2.210415	0.141270	-0.470743
H83	H	1.667398	-0.354542	-1.048950
H84	H	2.167398	0.145458	-0.548950
H85	H	1.721637	-0.264182	-0.939055
H86	H	2.221637	0.235818	-0.439055
H87	H	1.790201	-0.402679	-0.982421
H88	H	2.290201	0.097321	-0.482421
O89	O	1.127022	-0.426686	-0.373805
O90	O	1.627022	0.073314	0.126195
C91	C	1.100141	-0.452751	-0.269057
C92	C	1.600141	0.047249	0.230943
H93	H	1.069963	-0.548625	-0.263612
H94	H	1.569963	-0.048625	0.236388
H95	H	1.172277	-0.442336	-0.217162
H96	H	1.672277	0.057664	0.282838
H97	H	1.036449	-0.388370	-0.241696
H98	H	1.536449	0.111630	0.258304
H99	H	1.118534	-0.717495	-0.627883
H100	H	1.618534	-0.217495	-0.127883
H101	H	1.640509	-0.438557	-1.106282
H102	H	2.140509	0.061443	-0.606282
O103	O	1.386175	-0.729063	-1.115002
O104	O	1.886175	-0.229063	-0.615002
C105	C	1.400589	-0.712544	-1.223614
C106	C	1.900589	-0.212544	-0.723614
H107	H	1.481682	-0.673240	-1.238618
H108	H	1.981682	-0.173240	-0.738618
H109	H	1.393449	-0.802426	-1.265302
H110	H	1.893449	-0.302426	-0.765302
H111	H	1.338294	-0.648613	-1.254749
H112	H	1.838294	-0.148613	-0.754749
H113	H	1.396586	-0.717132	-0.907162
H114	H	1.896586	-0.217132	-0.407162
