data_functionalizedCrystal
_audit_creation_method	'MofGen! by Chris Wilmer'
_symmetry_space_group_name_H-M	'P1'
_symmetry_Int_Tables_number	1
_symmetry_cell_setting	triclinic
loop_
_symmetry_equiv_pos_as_xyz
  x,y,z
_cell_length_a	13.897449
_cell_length_b	13.897448
_cell_length_c	13.897441
_cell_angle_alpha	89.971988
_cell_angle_beta	89.973931
_cell_angle_gamma	90.019497
loop_
_atom_site_label
_atom_site_type_symbol
_atom_site_fract_x
_atom_site_fract_y
_atom_site_fract_z
Zn1	Zn	-1.474690	0.383986	0.545536
Zn2	Zn	-0.974690	0.883986	1.045536
Zn3	Zn	-1.474579	0.545308	0.384244
Zn4	Zn	-0.974579	1.045308	0.884244
Zn5	Zn	-1.313379	0.384028	0.384239
Zn6	Zn	-0.813379	0.884028	0.884239
Zn7	Zn	-1.313356	0.545240	0.545482
Zn8	Zn	-0.813356	1.045240	1.045482
O9	O	-1.394001	0.464641	0.464875
O10	O	-0.894001	0.964641	0.964875
O11	O	-1.609657	0.405396	0.524165
O12	O	-1.109657	0.905396	1.024165
O13	O	-1.453159	0.523959	0.249262
O14	O	-0.953159	1.023959	0.749262
O15	O	-1.334834	0.249041	0.405656
O16	O	-0.834834	0.749041	0.905656
O17	O	-1.609575	0.523918	0.405665
O18	O	-1.109575	1.023918	0.905665
O19	O	-1.453348	0.249010	0.524160
O20	O	-0.953348	0.749010	1.024160
O21	O	-1.334726	0.405468	0.249258
O22	O	-0.834726	0.905468	0.749258
O23	O	-1.178394	0.405403	0.405604
O24	O	-0.678394	0.905403	0.905604
O25	O	-1.334794	0.523804	0.680471
O26	O	-0.834794	1.023804	1.180471
O27	O	-1.178377	0.523845	0.524068
O28	O	-0.678377	1.023845	1.024068
O29	O	-1.453325	0.405331	0.680510
O30	O	-0.953325	0.905331	1.180510
O31	O	-1.453136	0.680280	0.405613
O32	O	-0.953136	1.180280	0.905613
O33	O	-1.334686	0.680231	0.524073
O34	O	-0.834686	1.180231	1.024073
C35	C	-1.143387	0.464622	0.464830
C36	C	-0.643387	0.964622	0.964830
C37	C	-1.036173	0.464637	0.464834
C38	C	-0.536173	0.964637	0.964834
C39	C	-0.949103	0.464639	0.464846
C40	C	-0.449103	0.964639	0.964846
C41	C	-0.839870	0.464644	0.464870
C42	C	-0.339870	0.964644	0.964870
C43	C	-1.393922	0.715255	0.464859
C44	C	-0.893922	1.215255	0.964859
C45	C	-1.393977	0.822469	0.464884
C46	C	-0.893977	1.322469	0.964884
C47	C	-0.645594	0.464656	0.464910
C48	C	-0.145594	0.964656	0.964910
C49	C	-0.752808	0.464653	0.464894
C50	C	-0.252808	0.964653	0.964894
C51	C	-1.394072	1.018764	0.464953
C52	C	-0.894072	1.518764	0.964953
C53	C	-1.394016	0.909531	0.464918
C54	C	-0.894016	1.409531	0.964918
C55	C	-1.394069	0.464555	0.716469
C56	C	-0.894069	0.964555	1.216469
C57	C	-1.394099	0.464519	0.823683
C58	C	-0.894099	0.964519	1.323683
C59	C	-1.394098	1.213048	0.464925
C60	C	-0.894098	1.713048	0.964925
C61	C	-1.394118	1.105834	0.464974
C62	C	-0.894118	1.605834	0.964974
C63	C	-1.393988	0.464656	0.214261
C64	C	-0.893988	0.964656	0.714261
C65	C	-1.394146	0.464420	0.107048
C66	C	-0.894146	0.964420	0.607048
C67	C	-1.394125	0.464454	1.019978
C68	C	-0.894125	0.964454	1.519978
C69	C	-1.394107	0.464493	0.910745
C70	C	-0.894107	0.964493	1.410745
