data_functionalizedCrystal
_audit_creation_method	'MofGen! by Chris Wilmer'
_symmetry_space_group_name_H-M	'P1'
_symmetry_Int_Tables_number	1
_symmetry_cell_setting	triclinic
loop_
_symmetry_equiv_pos_as_xyz
  x,y,z
_cell_length_a	25.427154
_cell_length_b	25.426324
_cell_length_c	25.422586
_cell_angle_alpha	60.006367
_cell_angle_beta	60.012446
_cell_angle_gamma	59.992398
loop_
_atom_site_label
_atom_site_type_symbol
_atom_site_fract_x
_atom_site_fract_y
_atom_site_fract_z
O1	O	0.072968	-0.768436	0.642532
O2	O	0.572968	-0.268436	1.142532
O3	O	0.027520	-0.598284	0.517710
O4	O	0.527520	-0.098284	1.017710
O5	O	0.135268	-0.705940	0.517611
O6	O	0.635268	-0.205940	1.017611
O7	O	-0.034780	-0.660780	0.642632
O8	O	0.465220	-0.160780	1.142632
O9	O	0.171018	-0.670200	0.553260
O10	O	0.671018	-0.170200	1.053260
O11	O	0.063270	-0.562544	0.553360
O12	O	0.563270	-0.062544	1.053360
O13	O	0.108718	-0.732696	0.678182
O14	O	0.608718	-0.232696	1.178182
Zn15	Zn	0.091670	-0.641945	0.621431
Zn16	Zn	0.591670	-0.141945	1.121431
Zn17	Zn	0.044568	-0.689034	0.574461
Zn18	Zn	0.544568	-0.189034	1.074461
O19	O	0.000970	-0.625039	0.678281
O20	O	0.500970	-0.125039	1.178281
N21	N	0.123818	-0.609812	0.653490
N22	N	0.623818	-0.109812	1.153490
N23	N	0.012426	-0.721173	0.542402
N24	N	0.512426	-0.221173	1.042402
C25	C	0.168482	-0.466269	0.698103
C26	C	0.668482	0.033731	1.198103
C27	C	0.168494	-0.565177	0.698095
C28	C	0.668494	-0.065177	1.198095
C29	C	0.193243	-0.540453	0.722807
C30	C	0.693243	-0.040453	1.222807
C31	C	0.301113	-0.521853	0.665993
C32	C	0.801113	-0.021853	1.165993
C33	C	0.368545	-0.544324	0.643486
C34	C	0.868545	-0.044324	1.143486
C35	C	0.368579	-0.653434	0.685090
C36	C	0.868579	-0.153434	1.185090
C37	C	0.301149	-0.630961	0.707599
C38	C	0.801149	-0.130961	1.207599
C39	C	0.184722	-0.432539	0.631812
C40	C	0.684722	0.067461	1.131812
C41	C	0.162210	-0.365100	0.609357
C42	C	0.662210	0.134900	1.109357
C43	C	0.107225	-0.365129	0.719489
C44	C	0.607225	0.134871	1.219489
C45	C	0.129737	-0.432567	0.741943
C46	C	0.629737	0.067433	1.241943
C47	C	0.102194	-0.548896	0.714421
C48	C	0.602194	-0.048896	1.214421
C49	C	0.079702	-0.571372	0.691949
C50	C	0.579702	-0.071372	1.191949
C51	C	0.189805	-0.626409	0.636839
C52	C	0.689805	-0.126409	1.136839
C53	C	0.212300	-0.603934	0.659303
C54	C	0.712300	-0.103934	1.159303
C55	C	0.102289	-0.548918	0.830735
C56	C	0.602289	-0.048918	1.330735
C57	C	0.079866	-0.571415	0.898171
C58	C	0.579866	-0.071415	1.398171
C59	C	0.190015	-0.626466	0.898104
C60	C	0.690015	-0.126466	1.398104
C61	C	0.212437	-0.603971	0.830666
C62	C	0.712437	-0.103971	1.330666
C63	C	0.168573	-0.565195	0.796984
C64	C	0.668573	-0.065195	1.296984
C65	C	0.267418	-0.565170	0.698047
C66	C	0.767418	-0.065170	1.198047
C67	C	-0.130981	-0.765617	0.497386
C68	C	0.369019	-0.265617	0.997386
C69	C	-0.032127	-0.765741	0.497606
C70	C	0.467873	-0.265741	0.997606
C71	C	-0.056804	-0.790430	0.472789
C72	C	0.443196	-0.290430	0.972789
C73	C	-0.075480	-0.898263	0.529507
C74	C	0.424520	-0.398263	1.029507
C75	C	-0.053057	-0.965702	0.552014
C76	C	0.446943	-0.465702	1.052014
C77	C	0.056052	-0.965829	0.510599
C78	C	0.556052	-0.465829	1.010599
C79	C	0.033627	-0.898392	0.488091
C80	C	0.533627	-0.398392	0.988091
C81	C	-0.164787	-0.781859	0.563659
C82	C	0.335213	-0.281859	1.063659
C83	C	-0.232219	-0.759299	0.586018
C84	C	0.267781	-0.259299	1.086018
C85	C	-0.232034	-0.704261	0.475827
C86	C	0.267966	-0.204261	0.975827
C87	C	-0.164602	-0.726821	0.453469
C88	C	0.335398	-0.226821	0.953469
C89	C	-0.048372	-0.699446	0.481299
C90	C	0.451628	-0.199446	0.981299
C91	C	-0.025938	-0.677008	0.503867
C92	C	0.474062	-0.177008	1.003867
C93	C	0.028987	-0.787155	0.559036
C94	C	0.528987	-0.287155	1.059036
C95	C	0.006552	-0.809596	0.536475
C96	C	0.506552	-0.309596	1.036475
C97	C	-0.048188	-0.699454	0.364860
C98	C	0.451812	-0.199454	0.864860
C99	C	-0.025608	-0.677017	0.297425
C100	C	0.474392	-0.177017	0.797425
C101	C	0.029406	-0.787170	0.297492
C102	C	0.529406	-0.287170	0.797492
C103	C	0.006827	-0.809605	0.364929
C104	C	0.506827	-0.309605	0.864929
C105	C	-0.031972	-0.765745	0.398611
C106	C	0.468028	-0.265745	0.898611
C107	C	-0.032140	-0.864611	0.497548
C108	C	0.467860	-0.364611	0.997548
N109	N	0.401319	-0.609788	0.653344
N110	N	0.901319	-0.109788	1.153344
O111	O	0.621664	-0.620517	0.494685
O112	O	1.121664	-0.120517	0.994685
O113	O	0.621901	-0.745740	0.664659
O114	O	1.121901	-0.245740	1.164659
O115	O	0.621803	-0.745452	0.556857
O116	O	1.121803	-0.245452	1.056857
O117	O	0.621762	-0.620805	0.602487
O118	O	1.121762	-0.120805	1.102487
O119	O	0.514676	-0.709815	0.592658
O120	O	1.014676	-0.209815	1.092658
O121	O	0.514774	-0.710104	0.700460
O122	O	1.014774	-0.210104	1.200460
O123	O	0.514537	-0.584881	0.530485
O124	O	1.014537	-0.084881	1.030485
Zn125	Zn	0.497647	-0.641834	0.621157
Zn126	Zn	0.997647	-0.141834	1.121157
Zn127	Zn	0.638791	-0.688787	0.573988
Zn128	Zn	1.138791	-0.188787	1.073988
O129	O	0.514635	-0.585169	0.638287
O130	O	1.014635	-0.085169	1.138287
N131	N	0.735119	-0.720834	0.541794
N132	N	1.235119	-0.220834	1.041794
N133	N	0.123794	-0.332357	0.653504
N134	N	0.623794	0.167643	1.153504
O135	O	-0.034774	-0.111885	0.642639
O136	O	0.465226	0.388115	1.142639
O137	O	0.135202	-0.111860	0.517412
O138	O	0.635202	0.388140	1.017412
O139	O	0.027364	-0.111888	0.517742
O140	O	0.527364	0.388112	1.017742
O141	O	0.073064	-0.111857	0.642310
O142	O	0.573064	0.388143	1.142310
O143	O	0.063120	-0.219026	0.553444
O144	O	0.563120	0.280974	1.053444
O145	O	0.170958	-0.218998	0.553115
O146	O	0.670958	0.281002	1.053115
O147	O	0.000983	-0.219022	0.678342
O148	O	0.500983	0.280978	1.178342
Zn149	Zn	0.091647	-0.236020	0.621397
Zn150	Zn	0.591647	0.263980	1.121397
Zn151	Zn	0.044537	-0.094862	0.574357
Zn152	Zn	0.544537	0.405138	1.074357
O153	O	0.108821	-0.218994	0.678013
O154	O	0.608821	0.281006	1.178013
N155	N	0.012383	0.001474	0.542251
N156	N	0.512383	0.501474	1.042251
N157	N	0.124036	-0.609854	0.930891
N158	N	0.624036	-0.109854	1.430891
O159	O	0.113202	-0.768401	1.151342
O160	O	0.613202	-0.268401	1.651342
O161	O	-0.011992	-0.598359	1.151385
O162	O	0.488008	-0.098359	1.651385
O163	O	-0.011700	-0.706176	1.151343
O164	O	0.488300	-0.206176	1.651343
O165	O	0.112910	-0.660584	1.151384
O166	O	0.612910	-0.160584	1.651384
O167	O	0.023980	-0.670446	1.044212
O168	O	0.523980	-0.170446	1.544212
O169	O	0.023689	-0.562630	1.044253
O170	O	0.523689	-0.062630	1.544253
O171	O	0.148882	-0.732671	1.044211
O172	O	0.648882	-0.232671	1.544211
Zn173	Zn	0.091951	-0.641977	1.027223
Zn174	Zn	0.591951	-0.141977	1.527223
Zn175	Zn	0.044940	-0.689053	1.168373
Zn176	Zn	0.544940	-0.189053	1.668373
O177	O	0.148590	-0.624854	1.044252
O178	O	0.648590	-0.124854	1.544252
N179	N	0.012853	-0.721183	1.264704
N180	N	0.512853	-0.221183	1.764704
C181	C	0.041135	-0.558973	0.518338
C182	C	0.541135	-0.058973	1.018338
C183	C	0.174567	-0.692292	0.518215
C184	C	0.674567	-0.192292	1.018215
C185	C	0.095103	-0.772007	0.677553
C186	C	0.595103	-0.272007	1.177553
C187	C	-0.038330	-0.638687	0.677677
C188	C	0.461670	-0.138687	1.177677
C189	C	0.568366	-0.745166	0.703974
C190	C	1.068366	-0.245166	1.203974
C191	C	0.568246	-0.744810	0.570474
C192	C	1.068246	-0.244810	1.070474
C193	C	0.568069	-0.585454	0.491172
C194	C	1.068069	-0.085454	0.991172
C195	C	0.568192	-0.585812	0.624671
C196	C	1.068192	-0.085812	1.124671
C197	C	0.174449	-0.165294	0.517975
C198	C	0.674449	0.334706	1.017975
C199	C	0.040949	-0.165460	0.518427
C200	C	0.540949	0.334540	1.018427
C201	C	-0.038309	-0.165456	0.677735
C202	C	0.461691	0.334544	1.177735
C203	C	0.095236	-0.165423	0.677328
C204	C	0.595236	0.334577	1.177328
C205	C	-0.011393	-0.559072	1.097824
C206	C	0.488607	-0.059072	1.597824
C207	C	-0.011024	-0.692583	1.097752
C208	C	0.488976	-0.192583	1.597752
C209	C	0.148283	-0.771958	1.097772
C210	C	0.648283	-0.271958	1.597772
C211	C	0.147922	-0.638440	1.097820
C212	C	0.647922	-0.138440	1.597820
H213	H	0.066565	-0.517338	0.803314
H214	H	0.566565	-0.017338	1.303314
O215	O	0.106843	-0.165305	0.724000
O216	O	0.606843	0.334695	1.224000
C217	C	0.062680	-0.109830	0.741357
C218	C	0.562680	0.390170	1.241357
H219	H	0.043762	-0.071049	0.700103
H220	H	0.543762	0.428951	1.200103
H221	H	0.087796	-0.091199	0.751776
H222	H	0.587796	0.408801	1.251776
H223	H	0.020771	-0.122383	0.786226
H224	H	0.520771	0.377617	1.286226
O225	O	0.568067	-0.538527	0.432935
O226	O	1.068067	-0.038527	0.932935
C227	C	0.623523	-0.521198	0.404381
C228	C	1.123523	-0.021198	0.904381
H229	H	0.642070	-0.534245	0.443418
H230	H	1.142070	-0.034245	0.943418
H231	H	0.610981	-0.467122	0.377432
H232	H	1.110981	0.032878	0.877432
H233	H	0.662361	-0.548213	0.369203
H234	H	1.162361	-0.048213	0.869203
H235	H	0.223163	-0.164989	0.478564
H236	H	0.723163	0.335011	0.978564
H237	H	0.104814	-0.820885	0.716757
H238	H	0.604814	-0.320885	1.216757
O239	O	-0.096620	-0.627094	0.724455
O240	O	0.403380	-0.127094	1.224455
C241	C	-0.136660	-0.563803	0.701169
C242	C	0.363340	-0.063803	1.201169
H243	H	-0.105648	-0.533212	0.659796
H244	H	0.394352	-0.033212	1.159796
H245	H	-0.167513	-0.542235	0.741594
H246	H	0.332487	-0.042235	1.241594
H247	H	-0.169198	-0.564783	0.683287
H248	H	0.330802	-0.064783	1.183287
H249	H	0.031425	-0.510094	0.479136
H250	H	0.531425	-0.010094	0.979136
O251	O	0.568472	-0.792007	0.762237
O252	O	1.068472	-0.292007	1.262237
C253	C	0.568473	-0.768807	0.802329
C254	C	1.068473	-0.268807	1.302329
H255	H	0.588704	-0.727432	0.771357
H256	H	1.088704	-0.227432	1.271357
H257	H	0.599628	-0.809279	0.833157
H258	H	1.099628	-0.309279	1.333157
H259	H	0.517091	-0.750952	0.834892
H260	H	1.017091	-0.250952	1.334892
O261	O	0.568236	-0.791446	0.558732
O262	O	1.068236	-0.291446	1.058732
C263	C	0.568179	-0.767982	0.495421
C264	C	1.068179	-0.267982	0.995421
H265	H	0.547847	-0.713113	0.478497
H266	H	1.047847	-0.213113	0.978497
H267	H	0.537085	-0.787619	0.494512
H268	H	1.037085	-0.287619	0.994512
H269	H	0.619558	-0.784241	0.462061
H270	H	1.119558	-0.284241	0.962061
O271	O	0.194568	-0.626691	1.097796
O272	O	0.694568	-0.126691	1.597796
C273	C	0.171098	-0.563374	1.097831
C274	C	0.671098	-0.063374	1.597831
H275	H	0.129739	-0.532890	1.077555
H276	H	0.629739	-0.032890	1.577555
H277	H	0.211432	-0.541704	1.066732
H278	H	0.711432	-0.041704	1.566732
H279	H	0.153146	-0.564326	1.149232
H280	H	0.653146	-0.064326	1.649232
O281	O	0.029376	-0.165442	0.471656
O282	O	0.529376	0.334558	0.971656
C283	C	0.084671	-0.165453	0.416063
C284	C	0.584671	0.334547	0.916063
H285	H	0.115436	-0.145160	0.416592
H286	H	0.615436	0.354840	0.916592
H287	H	0.069538	-0.134355	0.371351
H288	H	0.569538	0.365645	0.871351
H289	H	0.113752	-0.216853	0.415289
H290	H	0.613752	0.283147	0.915289
O291	O	0.568147	-0.539157	0.636430
O292	O	1.068147	-0.039157	1.136430
C293	C	0.568239	-0.562632	0.699730
C294	C	1.068239	-0.062632	1.199730
H295	H	0.548010	-0.604007	0.730210
H296	H	1.048010	-0.104007	1.230210
H297	H	0.537131	-0.522301	0.721427
H298	H	1.037131	-0.022301	1.221427
H299	H	0.619650	-0.580571	0.698738
H300	H	1.119650	-0.080571	1.198738
O301	O	-0.096592	-0.165423	0.724555
O302	O	0.403408	0.334577	1.224555
C303	C	-0.136696	-0.165449	0.701392
C304	C	0.363304	0.334551	1.201392
H305	H	-0.119275	-0.145178	0.646523
H306	H	0.380725	0.354822	1.146523
H307	H	-0.188292	-0.134338	0.721143
H308	H	0.311708	0.365662	1.221143
H309	H	-0.134953	-0.216849	0.717782
H310	H	0.365047	0.283151	1.217782
O311	O	-0.058225	-0.500787	1.097866
O312	O	0.441775	-0.000787	1.597866
C313	C	-0.035034	-0.460699	1.097868
C314	C	0.464966	0.039301	1.597868
H315	H	0.006323	-0.491678	1.118149
H316	H	0.506323	0.008322	1.618149
H317	H	-0.075511	-0.429838	1.128981
H318	H	0.424489	0.070162	1.628981
H319	H	-0.017162	-0.428164	1.046477
H320	H	0.482838	0.071836	1.546477
O321	O	-0.057687	-0.704299	1.097769
O322	O	0.442313	-0.204299	1.597769
C323	C	-0.072505	-0.756456	1.153231
C324	C	0.427495	-0.256456	1.653231
H325	H	-0.029942	-0.787314	1.171762
H326	H	0.470058	-0.287314	1.671762
H327	H	-0.082780	-0.786873	1.140698
H328	H	0.417220	-0.286873	1.640698
H329	H	-0.116772	-0.737357	1.192078
H330	H	0.383228	-0.237357	1.692078
O331	O	0.015453	-0.555509	0.930850
O332	O	0.515453	-0.055509	1.430850
C333	C	-0.018449	-0.516474	0.886657
C334	C	0.481551	-0.016474	1.386657
H335	H	0.013684	-0.491953	0.838579
H336	H	0.513684	0.008047	1.338579
H337	H	-0.063445	-0.478322	0.906163
H338	H	0.436555	0.021678	1.406163
H339	H	-0.033001	-0.547580	0.879494
H340	H	0.466999	-0.047580	1.379494
O341	O	0.232713	-0.664138	0.930718
O342	O	0.732713	-0.164138	1.430718
C343	C	0.296024	-0.673659	0.886464
C344	C	0.796024	-0.173659	1.386464
H345	H	0.295863	-0.666119	0.838405
H346	H	0.795863	-0.166119	1.338405
H347	H	0.328073	-0.724802	0.905920
H348	H	0.828073	-0.224802	1.405920
H349	H	0.315332	-0.637757	0.879282
H350	H	0.815332	-0.137757	1.379282
H351	H	0.187590	-0.820792	1.097751
H352	H	0.687590	-0.320792	1.597751
H353	H	0.266414	-0.617231	0.803190
H354	H	0.766414	-0.117231	1.303190
H355	H	0.066522	-0.517340	0.746005
H356	H	0.566522	-0.017340	1.246005
H357	H	0.025716	-0.558101	0.705227
H358	H	0.525716	-0.058101	1.205227
O359	O	-0.139338	-0.865372	0.538570
O360	O	0.360662	-0.365372	1.038570
C361	C	-0.148394	-0.826384	0.478321
C362	C	0.351606	-0.326384	0.978321
H363	H	-0.101992	-0.816352	0.440820
H364	H	0.398008	-0.316352	0.940820
H365	H	-0.188858	-0.778927	0.482147
H366	H	0.311142	-0.278927	0.982147
H367	H	-0.161656	-0.852346	0.463278
H368	H	0.338344	-0.352346	0.963278
O369	O	0.232446	-0.664030	0.599146
O370	O	0.732446	-0.164030	1.099146
C371	C	0.295785	-0.673593	0.589576
C372	C	0.795785	-0.173593	1.089576
H373	H	0.295665	-0.632939	0.597115
H374	H	0.795665	-0.132939	1.097115
H375	H	0.327770	-0.673935	0.538424
H376	H	0.827770	-0.173935	1.038424
H377	H	0.315140	-0.721638	0.625450
H378	H	0.815140	-0.221638	1.125450
O379	O	-0.132226	-0.819514	0.606405
O380	O	0.367774	-0.319514	1.106405
C381	C	-0.176526	-0.829019	0.669696
C382	C	0.323474	-0.329019	1.169696
H383	H	-0.224562	-0.788317	0.669491
H384	H	0.275438	-0.288317	1.169491
H385	H	-0.157101	-0.829395	0.701781
H386	H	0.342899	-0.329395	1.201781
H387	H	-0.183736	-0.877030	0.688994
H388	H	0.316264	-0.377030	1.188994
H389	H	0.273715	-0.666239	0.733700
H390	H	0.773715	-0.166239	1.233700
O391	O	0.401251	-0.717368	0.694438
O392	O	0.901251	-0.217368	1.194438
C393	C	0.357051	-0.750782	0.727540
C394	C	0.857051	-0.250782	1.227540
H395	H	0.308992	-0.721371	0.755193
H396	H	0.808992	-0.221371	1.255193
H397	H	0.376571	-0.799415	0.762726
H398	H	0.876571	-0.299415	1.262726
H399	H	0.349849	-0.758581	0.691470
H400	H	0.849849	-0.258581	1.191470
O401	O	0.276695	-0.619627	0.643377
O402	O	0.776695	-0.119627	1.143377
C403	C	0.292943	-0.562950	0.609455
C404	C	0.792943	-0.062950	1.109455
H405	H	0.254896	-0.522444	0.586660
H406	H	0.754896	-0.022444	1.086660
H407	H	0.341879	-0.571815	0.570139
H408	H	0.841879	-0.071815	1.070139
H409	H	0.295193	-0.548762	0.644132
H410	H	0.795193	-0.048762	1.144132
H411	H	0.395978	-0.509050	0.617384
H412	H	0.895978	-0.009050	1.117384
H413	H	0.223406	-0.701920	0.478955
H414	H	0.723406	-0.201920	0.978955
H415	H	0.273654	-0.468282	0.658214
H416	H	0.773654	0.031718	1.158214
H417	H	0.216267	-0.459978	0.596113
H418	H	0.716267	0.040022	1.096113
H419	H	0.175430	-0.337636	0.555374
H420	H	0.675430	0.162364	1.055374
H421	H	0.116505	-0.460032	0.795926
H422	H	0.616505	0.039968	1.295926
O423	O	0.069577	-0.332485	0.762160
O424	O	0.569577	0.167515	1.262160
C425	C	0.060097	-0.376719	0.825489
C426	C	0.560097	0.123281	1.325489
H427	H	0.067637	-0.424791	0.825368
H428	H	0.567637	0.075209	1.325368
H429	H	0.008969	-0.357248	0.857532
H430	H	0.508969	0.142752	1.357532
H431	H	0.096016	-0.383885	0.844776
H432	H	0.596016	0.116115	1.344776
H433	H	-0.038823	-0.623033	0.269953
H434	H	0.461177	-0.123033	0.769953
H435	H	0.060986	-0.822887	0.270075
H436	H	0.560986	-0.322887	0.770075
O437	O	-0.085838	-0.656758	0.397479
O438	O	0.414162	-0.156758	0.897479
C439	C	-0.095320	-0.593435	0.353229
C440	C	0.404680	-0.093435	0.853229
H441	H	-0.054617	-0.593611	0.305203
H442	H	0.445383	-0.093611	0.805203
H443	H	-0.095683	-0.561433	0.372740
H444	H	0.404317	-0.061433	0.872740
H445	H	-0.143326	-0.574055	0.345964
H446	H	0.356674	-0.074055	0.845964
O447	O	0.022504	-0.874010	0.397685
O448	O	0.522504	-0.374010	0.897685
C449	C	-0.000513	-0.901978	0.381114
C450	C	0.499487	-0.401978	0.881114
H451	H	-0.042047	-0.863544	0.362486
H452	H	0.457953	-0.363544	0.862486
H453	H	-0.018085	-0.941695	0.425443
H454	H	0.481915	-0.441695	0.925443
H455	H	0.039980	-0.923309	0.342016
H456	H	0.539980	-0.423309	0.842016
O457	O	-0.086040	-0.656817	0.443644
O458	O	0.413960	-0.156817	0.943644
C459	C	-0.142607	-0.617765	0.477621
C460	C	0.357393	-0.117765	0.977621
H461	H	-0.152066	-0.643787	0.531585
H462	H	0.347934	-0.143787	1.031585
H463	H	-0.185043	-0.607518	0.465456
H464	H	0.314957	-0.107518	0.965456
H465	H	-0.136455	-0.570414	0.463295
H466	H	0.363545	-0.070414	0.963295
H467	H	-0.039168	-0.623025	0.490592
H468	H	0.460832	-0.123025	0.990592
H469	H	0.060486	-0.822870	0.590677
H470	H	0.560486	-0.322870	1.090677
H471	H	0.068924	-0.870994	0.462067
H472	H	0.568924	-0.370994	0.962067
O473	O	0.022416	-0.874016	0.552347
O474	O	0.522416	-0.374016	1.052347
C475	C	0.061353	-0.907914	0.591504
C476	C	0.561353	-0.407914	1.091504
H477	H	0.085872	-0.875795	0.582968
H478	H	0.585872	-0.375795	1.082968
H479	H	0.099501	-0.952947	0.578911
H480	H	0.599501	-0.452947	1.078911
H481	H	0.030173	-0.922412	0.644295
H482	H	0.530173	-0.422412	1.144295
H483	H	-0.088349	-0.993100	0.578027
H484	H	0.411651	-0.493100	1.078027
O485	O	0.119960	-0.998621	0.501303
O486	O	0.619960	-0.498621	1.001303
C487	C	0.154838	-0.982179	0.434745
C488	C	0.654838	-0.482179	0.934745
H489	H	0.121761	-0.963606	0.406801
H490	H	0.621761	-0.463606	0.906801
H491	H	0.196734	-1.026563	0.423887
H492	H	0.696734	-0.526563	0.923887
H493	H	0.174220	-0.943076	0.419725
H494	H	0.674220	-0.443076	0.919725
O495	O	-0.265136	-0.775101	0.650383
O496	O	0.234864	-0.275101	1.150383
C497	C	-0.304140	-0.809000	0.666583
C498	C	0.195860	-0.309000	1.166583
H499	H	-0.314158	-0.796826	0.622085
H500	H	0.185842	-0.296826	1.122085
H501	H	-0.351599	-0.794599	0.705628
H502	H	0.148401	-0.294599	1.205628
H503	H	-0.278205	-0.862984	0.685138
H504	H	0.221795	-0.362984	1.185138
H505	H	-0.259410	-0.672678	0.440065
H506	H	0.240590	-0.172678	0.940065
H507	H	-0.137077	-0.713589	0.399501
H508	H	0.362923	-0.213589	0.899501
