data_functionalizedCrystal
_audit_creation_method	'MofGen! by Chris Wilmer'
_symmetry_space_group_name_H-M	'P1'
_symmetry_Int_Tables_number	1
_symmetry_cell_setting	triclinic
loop_
_symmetry_equiv_pos_as_xyz
  x,y,z
_cell_length_a	12.594517
_cell_length_b	12.594516
_cell_length_c	12.594510
_cell_angle_alpha	90.033997
_cell_angle_beta	90.014098
_cell_angle_gamma	90.011773
loop_
_atom_site_label
_atom_site_type_symbol
_atom_site_fract_x
_atom_site_fract_y
_atom_site_fract_z
Zn1	Zn	1.627296	-0.423647	0.601663
Zn2	Zn	1.627201	-0.601676	0.423686
Zn3	Zn	1.449301	-0.423712	0.423714
Zn4	Zn	1.449295	-0.601584	0.601638
O5	O	1.538273	-0.512655	0.512675
O6	O	1.776229	-0.447274	0.578053
O7	O	1.603564	-0.578135	0.274744
O8	O	1.472954	-0.274758	0.447342
O9	O	1.776159	-0.578072	0.447294
O10	O	1.603727	-0.274710	0.578080
O11	O	1.472862	-0.447385	0.274764
O12	O	1.300354	-0.447296	0.447317
O13	O	1.472945	-0.577914	0.750587
O14	O	1.300350	-0.577977	0.578037
O15	O	1.603722	-0.447185	0.750606
O16	O	1.603559	-0.750610	0.447269
O17	O	1.472853	-0.750542	0.578010
C18	C	1.261732	-0.512634	0.512678
C19	C	1.143427	-0.512651	0.512704
C20	C	1.003439	-0.583858	0.583671
C21	C	1.074212	-0.609776	0.486529
C22	C	1.074226	-0.486780	0.609835
C23	C	1.003414	-0.538654	0.415480
C24	C	1.003422	-0.415613	0.538850
C25	C	1.074163	-0.441494	0.441642
C26	C	1.538224	-0.789196	0.512657
C27	C	1.538300	-0.907501	0.512684
C28	C	1.609474	-0.976753	0.441650
C29	C	1.635484	-1.047439	0.538797
C30	C	1.512423	-1.047614	0.415600
C31	C	1.564360	-0.976629	0.609882
C32	C	1.441254	-0.976798	0.486619
C33	C	1.467227	-1.047452	0.583833
C34	C	1.815894	-0.512676	0.512673
C35	C	1.934199	-0.512685	0.512672
C36	C	1.538343	-0.512532	0.790296
C37	C	1.538373	-0.512480	0.908602
C38	C	1.538352	-0.235034	0.512717
C39	C	1.538385	-0.116728	0.512735
C40	C	1.538264	-0.512700	0.236134
C41	C	1.538441	-0.512453	0.117829
C42	C	1.609524	-0.441371	0.977865
C43	C	1.512446	-0.415318	1.048668
C44	C	1.635508	-0.538458	1.048598
C45	C	1.441244	-0.486377	0.977846
C46	C	1.564371	-0.609562	0.977770
C47	C	1.467226	-0.583546	1.048541
H48	H	1.105020	-0.381292	0.381545
H49	H	1.669673	-0.945708	0.381634
N50	N	1.391713	-0.658973	1.087255
N51	N	1.421790	-0.734628	1.143971
H52	H	1.368458	-0.787895	1.171317
H53	H	1.669588	-0.381201	0.946829
H54	H	1.717625	-0.560440	1.079681
N55	N	0.964571	-0.566225	0.312378
N56	N	0.907188	-0.502591	0.262337
H57	H	0.879753	-0.522062	0.189523
N58	N	1.591985	-0.712532	0.938665
N59	N	1.671656	-0.723828	0.880586
H60	H	1.691172	-0.796551	0.852965
N61	N	1.391754	-1.086136	0.659299
N62	N	1.338523	-1.022237	0.713472
H63	H	1.285223	-1.049556	0.766774
N64	N	1.113227	-0.459290	0.712898
N65	N	1.089269	-0.371889	0.753395
H66	H	1.116811	-0.352480	0.826186
H67	H	1.717591	-1.078471	0.560871
N68	N	1.591983	-0.937673	0.712931
N69	N	1.596441	-0.839914	0.729529
H70	H	1.615954	-0.812398	0.802304
N71	N	1.338291	-0.937829	0.458870
N72	N	1.327030	-0.879835	0.379154
H73	H	1.254312	-0.852311	0.359543
N74	N	0.964487	-0.659444	0.658876
N75	N	0.987196	-0.755546	0.648933
H76	H	0.959686	-0.808932	0.702041
N77	N	1.113204	-0.712742	0.458749
N78	N	1.049520	-0.786466	0.439683
H79	H	1.077051	-0.859190	0.420069
H80	H	1.490501	-1.078793	0.333476
N81	N	0.964390	-0.312678	0.566663
N82	N	0.987040	-0.273137	0.654863
H83	H	0.959473	-0.200438	0.674517
N84	N	1.484893	-0.312306	1.087724
N85	N	1.541374	-0.233904	1.065089
H86	H	1.521920	-0.161149	1.092667
H87	H	1.359103	-0.464298	0.946898
