data_functionalizedCrystal
_audit_creation_method	'MofGen! by Chris Wilmer'
_symmetry_space_group_name_H-M	'P1'
_symmetry_Int_Tables_number	1
_symmetry_cell_setting	triclinic
loop_
_symmetry_equiv_pos_as_xyz
  x,y,z
_cell_length_a	19.805407
_cell_length_b	13.031981
_cell_length_c	19.805399
_cell_angle_alpha	82.790122
_cell_angle_beta	89.975799
_cell_angle_gamma	97.190128
loop_
_atom_site_label
_atom_site_type_symbol
_atom_site_fract_x
_atom_site_fract_y
_atom_site_fract_z
Zn1	Zn	1.000569	-0.416154	-0.348552
Zn2	Zn	0.986133	-0.590941	-0.220978
Zn3	Zn	0.887381	-0.416181	-0.235365
Zn4	Zn	0.873001	-0.590884	-0.334120
O5	O	0.936771	-0.503540	-0.284754
O6	O	1.093369	-0.439353	-0.331647
O7	O	0.973010	-0.567794	-0.128167
O8	O	0.914455	-0.269914	-0.262440
O9	O	1.082764	-0.567769	-0.237919
O10	O	0.997613	-0.269895	-0.345598
O11	O	0.900458	-0.439398	-0.138737
O12	O	0.790758	-0.439342	-0.248446
O13	O	0.889947	-0.567670	-0.430754
O14	O	0.780193	-0.567696	-0.321001
O15	O	0.983670	-0.439297	-0.441357
O16	O	0.959067	-0.737196	-0.223925
O17	O	0.875949	-0.737154	-0.307050
C18	C	0.760917	-0.503516	-0.284719
C19	C	0.685684	-0.503531	-0.284719
C20	C	0.218398	-0.570499	-0.322498
C21	C	0.289087	-0.570497	-0.322484
C22	C	0.329919	-0.503565	-0.284778
C23	C	0.300059	-0.436638	-0.247078
C24	C	0.229371	-0.436646	-0.247089
C25	C	0.585135	-0.436606	-0.247033
C26	C	0.655828	-0.436601	-0.247027
C27	C	0.644851	-0.570458	-0.322428
C28	C	0.574163	-0.570466	-0.322439
C29	C	0.544309	-0.503542	-0.284737
C30	C	0.467660	-0.503547	-0.284751
C31	C	0.406567	-0.503555	-0.284767
C32	C	0.914399	-0.775099	-0.262375
C33	C	0.904891	-0.891274	-0.252825
C34	C	0.941770	-0.942975	-0.289752
C35	C	0.931943	-1.063047	-0.279881
C36	C	1.113312	-0.503564	-0.284788
C37	C	1.188543	-0.503575	-0.284803
C38	C	0.936814	-0.503474	-0.461302
C39	C	0.936833	-0.503446	-0.536536
C40	C	0.959249	-0.230920	-0.307234
C41	C	0.968827	-0.114746	-0.316814
C42	C	0.985636	-0.436599	-0.577403
C43	C	0.985645	-0.436569	-0.648094
C44	C	0.936854	-0.503391	-0.677916
C45	C	0.888046	-0.570242	-0.637045
C46	C	0.888034	-0.570266	-0.566355
C47	C	0.888093	-0.570144	-0.922126
C48	C	0.888109	-0.570117	-0.992820
C49	C	0.985703	-0.436447	-1.003864
C50	C	0.985692	-0.436471	-0.933175
C51	C	0.936882	-0.503317	-0.892310
C52	C	0.936871	-0.503348	-0.815659
C53	C	0.936867	-0.503367	-0.754565
C54	C	0.936773	-0.503530	-0.108898
C55	C	0.936910	-0.503264	-0.033689
H56	H	0.313391	-0.624996	-0.353177
C57	C	0.896274	-1.097016	-0.162461
C58	C	0.879492	-1.123279	-0.227334
H59	H	0.863891	-1.134197	-0.130023
H60	H	0.940305	-1.114812	-0.151154
H61	H	0.895997	-1.024225	-0.162208
H62	H	0.879775	-1.196068	-0.227588
H63	H	0.835450	-1.105489	-0.238643
C64	C	1.006657	-0.295899	-0.865286
C65	C	1.039318	-0.363001	-0.900400
H66	H	1.039763	-0.250539	-0.845052
H67	H	0.980468	-0.255924	-0.896156
H68	H	0.977597	-0.335728	-0.830827
H69	H	1.068374	-0.323171	-0.934862
H70	H	1.065518	-0.402979	-0.869528
C71	C	1.020862	-0.947225	-0.368970
C72	C	1.021277	-1.054514	-0.369362
H73	H	1.053245	-0.910043	-0.401408
H74	H	0.976830	-0.929442	-0.380283
H75	H	1.032243	-0.929426	-0.324954
H76	H	1.009892	-1.072314	-0.413377
H77	H	1.065320	-1.072304	-0.358053
C78	C	0.787536	-0.925274	-0.216965
C79	C	0.852442	-0.951511	-0.200281
H80	H	0.755156	-0.962466	-0.184528
H81	H	0.787264	-0.852495	-0.216701
H82	H	0.776164	-0.943085	-0.260981
H83	H	0.863816	-0.933692	-0.156267
H84	H	0.852716	-1.024307	-0.200538
C85	C	1.029058	-0.377031	-1.117132
C86	C	1.039351	-0.362954	-1.048787
H87	H	1.062175	-0.331656	-1.144863
H88	H	1.033177	-0.447245	-1.122928
H89	H	0.984842	-0.361720	-1.129958
H90	H	1.083564	-0.378272	-1.035959
H91	H	1.035237	-0.292724	-1.042987
C92	C	1.082103	-0.304457	-0.595428
C93	C	1.039268	-0.363141	-0.544625
H94	H	1.115210	-0.259101	-0.575193
H95	H	1.104243	-0.349990	-0.619248
H96	H	1.055905	-0.264469	-0.626290
H97	H	1.065466	-0.403136	-0.513766
H98	H	1.017127	-0.317603	-0.520794
H99	H	1.025387	-0.382138	-0.681364
H100	H	0.848375	-0.624534	-1.017099
H101	H	0.333310	-0.382145	-0.216374
H102	H	0.540920	-0.624965	-0.353145
C103	C	0.791612	-0.702248	-0.918322
C104	C	0.834434	-0.643607	-0.877214
H105	H	0.758484	-0.747601	-0.890592
H106	H	0.769498	-0.656688	-0.949649
H107	H	0.817814	-0.742238	-0.942596
H108	H	0.808233	-0.603611	-0.852944
H109	H	0.856550	-0.689172	-0.845875
C110	C	0.652044	-0.747513	-0.340629
C111	C	0.677666	-0.644032	-0.363868
H112	H	0.672299	-0.792929	-0.366217
H113	H	0.662355	-0.762715	-0.293889
H114	H	0.604101	-0.757078	-0.346034
H115	H	0.725608	-0.634465	-0.358459
H116	H	0.667360	-0.628825	-0.410620
C117	C	0.840486	-0.747260	-0.529976
C118	C	0.834400	-0.643756	-0.521425
H119	H	0.807377	-0.792629	-0.502233
H120	H	0.833503	-0.756806	-0.576337
H121	H	0.884706	-0.762543	-0.517146
H122	H	0.790181	-0.628471	-0.534260
H123	H	0.841378	-0.634206	-0.475054
H124	H	0.980616	-0.898348	-0.328677
H125	H	0.848318	-0.624646	-0.661332
C126	C	0.247318	-0.304321	-0.172561
C127	C	0.196552	-0.363076	-0.205656
H128	H	0.227056	-0.258900	-0.146983
H129	H	0.271127	-0.349804	-0.142872
H130	H	0.278194	-0.264398	-0.205386
H131	H	0.165679	-0.403005	-0.172831
H132	H	0.172732	-0.317587	-0.235348
C133	C	0.214656	-0.702813	-0.397030
C134	C	0.173519	-0.644071	-0.363949
H135	H	0.186948	-0.748238	-0.422617
H136	H	0.245987	-0.657322	-0.426709
H137	H	0.238921	-0.742731	-0.364197
H138	H	0.149257	-0.604147	-0.396783
H139	H	0.142175	-0.689568	-0.334268
H140	H	0.689072	-0.382092	-0.216322
H141	H	0.560836	-0.382117	-0.216331
