data_functionalizedCrystal
_audit_creation_method	'MofGen! by Chris Wilmer'
_symmetry_space_group_name_H-M	'P1'
_symmetry_Int_Tables_number	1
_symmetry_cell_setting	triclinic
loop_
_symmetry_equiv_pos_as_xyz
  x,y,z
_cell_length_a	19.077105
_cell_length_b	14.908520
_cell_length_c	19.076919
_cell_angle_alpha	84.570994
_cell_angle_beta	89.923776
_cell_angle_gamma	91.150228
loop_
_atom_site_label
_atom_site_type_symbol
_atom_site_fract_x
_atom_site_fract_y
_atom_site_fract_z
Zn1	Zn	1.037881	-0.436364	0.459234
Zn2	Zn	1.035744	-0.581390	0.347980
Zn3	Zn	0.925663	-0.424281	0.336506
Zn4	Zn	0.913591	-0.580846	0.460710
O5	O	0.978220	-0.505720	0.401107
O6	O	1.135682	-0.460886	0.448660
O7	O	1.025299	-0.555720	0.247919
O8	O	0.946495	-0.299666	0.347366
O9	O	1.134112	-0.567437	0.366923
O10	O	1.028941	-0.308543	0.437534
O11	O	0.944423	-0.440292	0.239489
O12	O	0.825977	-0.439765	0.348797
O13	O	0.925920	-0.566510	0.559053
O14	O	0.817107	-0.554793	0.440049
O15	O	1.017235	-0.460359	0.557969
O16	O	1.013594	-0.707536	0.368354
O17	O	0.923848	-0.707136	0.451175
C18	C	0.796110	-0.495910	0.393339
C19	C	0.718201	-0.491735	0.390033
C20	C	0.967198	-0.740065	0.411186
C21	C	0.962545	-0.840323	0.415524
C22	C	0.676998	-0.549746	0.435923
C23	C	0.603795	-0.545812	0.432820
C24	C	0.571795	-0.483870	0.383823
C25	C	0.613003	-0.425853	0.337931
C26	C	0.686205	-0.429783	0.341038
C27	C	0.353358	-0.465680	0.369446
C28	C	0.280150	-0.461756	0.366341
C29	C	0.270947	-0.581715	0.461231
C30	C	0.344151	-0.585643	0.464331
C31	C	0.385353	-0.527623	0.418441
N32	N	0.496969	-0.479850	0.380648
N33	N	0.460177	-0.531640	0.421620
C34	C	1.047344	-1.029082	0.337510
C35	C	1.042976	-1.123283	0.341584
C36	C	0.949443	-1.122929	0.427749
C37	C	0.953812	-1.028727	0.423675
C38	C	1.002763	-0.981807	0.378553
C39	C	1.007128	-0.887604	0.374476
C40	C	0.913600	-0.887251	0.460644
C41	C	0.909231	-0.981453	0.464718
C42	C	1.161040	-0.515570	0.408907
C43	C	1.238948	-0.519767	0.412230
C44	C	0.970470	-0.514721	0.584776
C45	C	0.967167	-0.518557	0.663044
C46	C	0.989303	-0.270463	0.391006
C47	C	0.994026	-0.170210	0.386701
C48	C	0.985983	-0.496691	0.218153
C49	C	0.989433	-0.492609	0.139879
C50	C	1.013156	-0.465095	0.699251
C51	C	1.010044	-0.468695	0.772793
C52	C	0.960947	-0.525763	0.810125
C53	C	0.914953	-0.579227	0.773913
C54	C	0.918062	-0.575622	0.700373
C55	C	0.946548	-0.542468	1.030127
C56	C	0.943444	-0.546071	1.103672
C57	C	1.038535	-0.435537	1.102547
C58	C	1.041642	-0.431941	1.029006
C59	C	0.995646	-0.485402	0.992799
N60	N	0.957767	-0.529446	0.885296
N61	N	0.998824	-0.481713	0.917629
H62	H	0.703047	-0.600189	0.475819
F63	F	0.227093	-0.643461	0.510065
F64	F	1.059015	-0.411825	0.811326
H65	H	0.254099	-0.411305	0.326445
H66	H	1.075982	-0.392011	1.132034
F67	F	0.862697	-0.639960	0.813647
F68	F	0.897358	-1.172881	0.475774
F69	F	1.093899	-0.371201	0.989278
H70	H	0.386895	-0.418442	0.332074
F71	F	0.869112	-0.632522	0.661838
H72	H	1.046985	-0.849402	0.337734
F73	F	0.730055	-0.368038	0.292197
F74	F	0.891183	-0.606810	1.143403
H75	H	0.370200	-0.636085	0.504228
F76	F	0.559947	-0.607556	0.481662
F77	F	1.065416	-0.404359	0.659526
H78	H	0.586943	-0.375415	0.298039
F79	F	1.099432	-0.979143	0.289480
H80	H	1.079279	-1.161771	0.308163
H81	H	0.877297	-0.848750	0.494062
F82	F	0.857139	-1.031399	0.512739
F83	F	0.897595	-0.599366	0.991602
