data_functionalizedCrystal
_audit_creation_method	'MofGen! by Chris Wilmer'
_symmetry_space_group_name_H-M	'P1'
_symmetry_Int_Tables_number	1
_symmetry_cell_setting	triclinic
loop_
_symmetry_equiv_pos_as_xyz
  x,y,z
_cell_length_a	10.654545
_cell_length_b	14.971486
_cell_length_c	9.730223
_cell_angle_alpha	89.995390
_cell_angle_beta	89.997167
_cell_angle_gamma	84.048604
loop_
_atom_site_label
_atom_site_type_symbol
_atom_site_fract_x
_atom_site_fract_y
_atom_site_fract_z
O1	O	1.666495	0.125612	-0.114277
O2	O	1.300887	0.137585	-0.114283
O3	O	1.493490	0.001452	-0.114270
O4	O	1.473892	0.261745	-0.114290
O5	O	1.493478	0.001448	0.114310
O6	O	1.300875	0.137581	0.114297
O7	O	1.666482	0.125608	0.114303
Zn8	Zn	1.483677	0.131594	0.150592
Zn9	Zn	1.483693	0.131599	-0.150572
O10	O	1.473879	0.261742	0.114290
C11	C	1.254092	0.136705	0.000006
C12	C	1.114677	0.134077	0.000005
C13	C	1.049179	0.132838	0.124604
C14	C	0.918186	0.130354	0.124605
C15	C	0.918200	0.130352	-0.124606
C16	C	1.049192	0.132830	-0.124605
C17	C	1.492608	-0.031880	0.000020
C18	C	1.489981	-0.131191	0.000018
C19	C	1.603130	-0.187802	0.000021
C20	C	1.600655	-0.281115	0.000007
C21	C	1.485029	-0.317815	0.000000
C22	C	1.371871	-0.261197	-0.000006
C23	C	1.374348	-0.167886	-0.000002
C24	C	1.366717	-0.455687	-0.000012
C25	C	1.364240	-0.549005	-0.000013
C26	C	1.593024	-0.568916	-0.000002
C27	C	1.595500	-0.475605	0.000002
C28	C	1.482342	-0.418994	-0.000002
C29	C	1.713277	0.126488	0.000011
C30	C	1.852693	0.129116	0.000004
C31	C	1.474762	0.295073	-0.000002
C32	C	1.477389	0.394384	-0.000010
N33	N	1.483675	0.131590	0.356128
N34	N	1.483705	0.131596	-0.356108
C35	C	1.568988	0.071336	0.428060
C36	C	1.569001	0.071336	0.571943
C37	C	1.398382	0.191853	0.571950
C38	C	1.398365	0.191848	0.428070
H39	H	0.864864	0.129346	0.226066
F40	F	1.118905	0.134143	-0.257228
F41	F	1.307553	0.255978	0.351509
H42	H	1.102493	0.133854	0.226069
F43	F	0.848499	0.129007	-0.257216
F44	F	1.726197	-0.148752	0.000042
F45	F	1.721084	-0.341361	0.000013
F46	F	1.718562	-0.436548	0.000006
F47	F	1.713456	-0.629168	-0.000003
H48	H	1.638451	0.022269	0.369489
F49	F	1.659800	0.007204	0.648493
H50	H	1.270087	-0.578883	0.000004
F51	F	1.246280	-0.395439	-0.000019
F52	F	1.248813	-0.300258	-0.000029
H53	H	1.282210	-0.121793	-0.000005
F54	F	1.307596	0.255983	0.648524
