data_functionalizedCrystal
_audit_creation_method	'MofGen! by Chris Wilmer'
_symmetry_space_group_name_H-M	'P1'
_symmetry_Int_Tables_number	1
_symmetry_cell_setting	triclinic
loop_
_symmetry_equiv_pos_as_xyz
  x,y,z
_cell_length_a	21.395362
_cell_length_b	12.645330
_cell_length_c	21.395355
_cell_angle_alpha	89.987670
_cell_angle_beta	89.956060
_cell_angle_gamma	90.033572
loop_
_atom_site_label
_atom_site_type_symbol
_atom_site_fract_x
_atom_site_fract_y
_atom_site_fract_z
Zn1	Zn	0.957916	-0.421713	-0.354613
Zn2	Zn	1.457916	0.078287	0.145387
Zn3	Zn	0.957842	-0.598962	-0.249846
Zn4	Zn	1.457842	-0.098962	0.250154
Zn5	Zn	0.853131	-0.421762	-0.249814
Zn6	Zn	1.353131	0.078238	0.250186
Zn7	Zn	0.853124	-0.598984	-0.354551
Zn8	Zn	1.353124	-0.098984	0.145449
O9	O	0.905503	-0.510355	-0.302206
O10	O	1.405503	-0.010355	0.197794
O11	O	1.045584	-0.445196	-0.340754
O12	O	1.545584	0.054804	0.159246
O13	O	0.943924	-0.575468	-0.162164
O14	O	1.443924	-0.075468	0.337836
O15	O	0.867065	-0.273408	-0.263728
O16	O	1.367065	0.226592	0.236272
O17	O	1.045530	-0.575420	-0.263783
O18	O	1.545530	-0.075420	0.236217
O19	O	0.944050	-0.273372	-0.340723
O20	O	1.444050	0.226628	0.159277
O21	O	0.866993	-0.445280	-0.162140
O22	O	1.366993	0.054720	0.337860
O23	O	0.765452	-0.445301	-0.263668
O24	O	1.265452	0.054699	0.236332
O25	O	0.867053	-0.575457	-0.442237
O26	O	1.367053	-0.075457	0.057763
O27	O	0.765447	-0.575505	-0.340618
O28	O	1.265447	-0.075505	0.159382
O29	O	0.944043	-0.445217	-0.442282
O30	O	1.444043	0.054783	0.057718
O31	O	0.943918	-0.747312	-0.263724
O32	O	1.443918	-0.247312	0.236276
O33	O	0.866981	-0.747328	-0.340650
O34	O	1.366981	-0.247328	0.159350
C35	C	0.742716	-0.510411	-0.302133
C36	C	1.242716	-0.010411	0.197867
C37	C	0.673074	-0.510461	-0.302117
C38	C	1.173074	-0.010461	0.197883
C39	C	0.640375	-0.578348	-0.342125
C40	C	1.140375	-0.078348	0.157875
C41	C	0.574940	-0.578322	-0.342153
C42	C	1.074940	-0.078322	0.157847
C43	C	0.542206	-0.510420	-0.302162
C44	C	1.042206	-0.010420	0.197838
C45	C	0.574913	-0.442520	-0.262151
C46	C	1.074913	0.057480	0.237849
C47	C	0.640348	-0.442540	-0.262129
C48	C	1.140348	0.057460	0.237871
C49	C	0.438480	-0.501880	-0.245756
C50	C	0.938480	-0.001880	0.254244
C51	C	0.373047	-0.501867	-0.245777
C52	C	0.873047	-0.001867	0.254223
C53	C	0.340386	-0.510351	-0.302231
C54	C	0.840386	-0.010351	0.197769
C55	C	0.373165	-0.518870	-0.358665
C56	C	0.873165	-0.018870	0.141335
C57	C	0.438599	-0.518890	-0.358643
C58	C	0.938599	-0.018890	0.141357
C59	C	0.471254	-0.510390	-0.302182
C60	C	0.971254	-0.010390	0.197818
C61	C	0.236734	-0.578213	-0.342272
C62	C	0.736734	-0.078213	0.157728
C63	C	0.171297	-0.578180	-0.342301
C64	C	0.671297	-0.078180	0.157699
C65	C	0.171272	-0.442383	-0.262294
C66	C	0.671272	0.057617	0.237706
C67	C	0.236707	-0.442411	-0.262271
C68	C	0.736707	0.057589	0.237729
C69	C	0.269434	-0.510332	-0.302259
C70	C	0.769434	-0.010332	0.197741
C71	C	0.905458	-0.785785	-0.302197
C72	C	1.405458	-0.285785	0.197803
C73	C	0.905495	-0.903615	-0.302214
C74	C	1.405495	-0.403615	0.197786
C75	C	0.857295	-1.071233	-0.350758
C76	C	1.357295	-0.571233	0.149242
C77	C	0.857048	-0.948674	-0.350602
C78	C	1.357048	-0.448674	0.149398
C79	C	0.887617	-0.948193	-0.236177
C80	C	1.387617	-0.448193	0.263823
C81	C	0.887323	-1.070792	-0.236472
C82	C	1.387323	-0.570792	0.263528
C83	C	0.971870	-1.070679	-0.319173
C84	C	1.471870	-0.570679	0.180827
C85	C	0.971463	-0.948073	-0.320616
C86	C	1.471463	-0.448073	0.179384
C87	C	1.068927	-0.510300	-0.302279
C88	C	1.568927	-0.010300	0.197721
C89	C	1.138568	-0.510276	-0.302311
C90	C	1.638568	-0.010276	0.197689
C91	C	0.905555	-0.510334	-0.465629
C92	C	1.405555	-0.010334	0.034371
C93	C	0.905578	-0.510325	-0.535271
C94	C	1.405578	-0.010325	-0.035271
C95	C	0.905566	-0.233850	-0.302228
C96	C	1.405566	0.266150	0.197772
C97	C	0.905593	-0.116020	-0.302238
C98	C	1.405593	0.383980	0.197762
C99	C	0.945665	-0.442506	-0.568008
C100	C	1.445665	0.057494	-0.068008
C101	C	0.945664	-0.442460	-0.633444
C102	C	1.445664	0.057540	-0.133444
C103	C	0.905582	-0.510252	-0.666139
C104	C	1.405582	-0.010252	-0.166139
C105	C	0.865488	-0.578076	-0.633393
C106	C	1.365488	-0.078076	-0.133393
C107	C	0.865485	-0.578112	-0.567959
C108	C	1.365485	-0.078112	-0.067959
C109	C	0.900619	-0.605707	-0.769809
C110	C	1.400619	-0.105707	-0.269809
C111	C	0.900626	-0.605673	-0.835242
C112	C	1.400626	-0.105673	-0.335242
C113	C	0.905586	-0.510140	-0.867960
C114	C	1.405586	-0.010140	-0.367960
C115	C	0.910553	-0.414639	-0.835237
C116	C	1.410553	0.085361	-0.335237
C117	C	0.910550	-0.414676	-0.769803
C118	C	1.410550	0.085324	-0.269803
C119	C	0.905580	-0.510220	-0.737091
C120	C	1.405580	-0.010220	-0.237091
C121	C	0.945675	-0.442266	-0.971650
C122	C	1.445675	0.057734	-0.471650
C123	C	0.945669	-0.442219	-1.037087
C124	C	1.445669	0.057781	-0.537087
C125	C	0.865496	-0.577844	-1.037035
C126	C	1.365496	-0.077844	-0.537035
C127	C	0.865498	-0.577882	-0.971600
C128	C	1.365498	-0.077882	-0.471600
C129	C	0.905591	-0.510095	-0.938911
C130	C	1.405591	-0.010095	-0.438911
C131	C	0.905488	-0.510300	-0.139418
C132	C	1.405488	-0.010300	0.360582
C133	C	0.905587	-0.510011	-0.069778
C134	C	1.405587	-0.010011	0.430222
H135	H	0.465285	-0.525824	-0.404593
H136	H	0.965285	-0.025824	0.095407
H137	H	0.263381	-0.633513	-0.374837
H138	H	0.763381	-0.133513	0.125163
H139	H	0.144674	-0.633460	-0.374884
H140	H	0.644674	-0.133460	0.125116
H141	H	0.921680	-0.919005	-0.199037
H142	H	1.421680	-0.419005	0.300963
H143	H	0.978317	-0.387064	-0.945034
H144	H	1.478317	0.112936	-0.445034
H145	H	0.839674	-0.917599	-0.221575
H146	H	1.339674	-0.417599	0.278425
N147	N	0.826547	-1.106833	-0.218491
N148	N	1.326547	-0.606833	0.281509
N149	N	0.815340	-1.203724	-0.215460
N150	N	1.315340	-0.703724	0.284540
H151	H	0.772415	-1.229176	-0.202762
H152	H	1.272415	-0.729176	0.297238
N153	N	0.541538	-0.647675	-0.383027
N154	N	1.041538	-0.147675	0.116973
N155	N	0.570766	-0.708308	-0.418728
N156	N	1.070766	-0.208308	0.081272
H157	H	0.547179	-0.757290	-0.447595
H158	H	1.047179	-0.257290	0.052405
N159	N	0.915621	-0.317143	-0.736366
N160	N	1.415621	0.182857	-0.236366
N161	N	0.960376	-0.302303	-0.699881
N162	N	1.460376	0.197697	-0.199881
H163	H	0.963955	-0.233420	-0.676265
H164	H	1.463955	0.266580	-0.176265
H165	H	0.978306	-0.387228	-0.660104
H166	H	1.478306	0.112772	-0.160104
N167	N	1.018994	-0.909612	-0.279517
N168	N	1.518994	-0.409612	0.220483
N169	N	1.074566	-0.937085	-0.287318
N170	N	1.574566	-0.437085	0.212682
H171	H	1.108134	-0.909924	-0.258287
H172	H	1.608134	-0.409924	0.241713
H173	H	0.832838	-0.633337	-0.541305
H174	H	1.332838	-0.133337	-0.041305
H175	H	0.984945	-0.918934	-0.369216
H176	H	1.484945	-0.418934	0.130784
H177	H	0.914593	-0.336848	-0.861874
H178	H	1.414593	0.163152	-0.361874
N179	N	0.673762	-0.373212	-0.221256
N180	N	1.173762	0.126788	0.278744
N181	N	0.732185	-0.373247	-0.221238
N182	N	1.232185	0.126753	0.278762
H183	H	0.755786	-0.324285	-0.192370
H184	H	1.255786	0.175715	0.307630
N185	N	0.673794	-0.647730	-0.382975
N186	N	1.173794	-0.147730	0.117025
N187	N	0.644585	-0.708339	-0.418695
N188	N	1.144585	-0.208339	0.081305
H189	H	0.668187	-0.757340	-0.447547
H190	H	1.168187	-0.257340	0.052453
N191	N	0.471850	-0.493230	-0.188090
N192	N	0.971850	0.006770	0.311910
N193	N	0.530272	-0.493256	-0.188077
N194	N	1.030272	0.006744	0.311923
H195	H	0.553840	-0.487149	-0.147353
H196	H	1.053840	0.012851	0.352647
N197	N	0.986622	-0.373260	-0.534628
N198	N	1.486622	0.126740	-0.034628
N199	N	1.022413	-0.312712	-0.563872
N200	N	1.522413	0.187288	-0.063872
H201	H	1.051340	-0.263806	-0.540297
H202	H	1.551340	0.236194	-0.040297
H203	H	0.548258	-0.387232	-0.229591
H204	H	1.048258	0.112768	0.270409
H205	H	0.144621	-0.387091	-0.229735
H206	H	0.644621	0.112909	0.270265
H207	H	0.896413	-0.683481	-0.743176
H208	H	1.396413	-0.183481	-0.243176
N209	N	0.929525	-1.107951	-0.189559
N210	N	1.429525	-0.607951	0.310441
N211	N	0.959098	-1.043336	-0.156703
N212	N	1.459098	-0.543336	0.343297
H213	H	0.988896	-1.069574	-0.123565
H214	H	1.488896	-0.569574	0.376435
H215	H	0.263332	-0.387135	-0.229689
H216	H	0.763332	0.112865	0.270311
H217	H	0.978312	-0.386986	-1.063741
H218	H	1.478312	0.113014	-0.563741
N219	N	0.339577	-0.493180	-0.188128
N220	N	0.839577	0.006820	0.311872
N221	N	0.368745	-0.485595	-0.137728
N222	N	0.868745	0.014405	0.362272
H223	H	0.345108	-0.479462	-0.097010
H224	H	0.845108	0.020538	0.402990
N225	N	0.824551	-0.647077	-1.070434
N226	N	1.324551	-0.147077	-0.570434
N227	N	0.824555	-0.647032	-1.128857
N228	N	1.324555	-0.147032	-0.628857
H229	H	0.795634	-0.695925	-1.152448
H230	H	1.295634	-0.195925	-0.652448
H231	H	0.832859	-0.633114	-0.944945
H232	H	1.332859	-0.133114	-0.444945
N233	N	1.017005	-1.107005	-0.274835
N234	N	1.517005	-0.607005	0.225165
N235	N	1.000518	-1.166027	-0.230938
N236	N	1.500518	-0.666027	0.269062
H237	H	1.032390	-1.191686	-0.199621
H238	H	1.532390	-0.691686	0.300379
H239	H	0.868234	-0.918533	-0.399567
H240	H	1.368234	-0.418533	0.100433
H241	H	0.832851	-0.633270	-0.660018
H242	H	1.332851	-0.133270	-0.160018
N243	N	0.895512	-0.703222	-0.868655
N244	N	1.395512	-0.203222	-0.368655
N245	N	0.891044	-0.788506	-0.839437
N246	N	1.391044	-0.288506	-0.339437
H247	H	0.887415	-0.857402	-0.863033
H248	H	1.387415	-0.357402	-0.363033
N249	N	0.871235	-1.108077	-0.412393
N250	N	1.371235	-0.608077	0.087607
N251	N	0.916925	-1.167781	-0.421281
N252	N	1.416925	-0.667781	0.078719
H253	H	0.926784	-1.193782	-0.464816
H254	H	1.426784	-0.693782	0.035184
H255	H	0.808467	-1.102153	-0.339680
H256	H	1.308467	-0.602153	0.160320
N257	N	0.992343	-1.109372	-0.378554
N258	N	1.492343	-0.609372	0.121446
N259	N	1.041632	-1.161980	-0.382488
N260	N	1.541632	-0.661980	0.117512
H261	H	1.056088	-1.189307	-0.424427
H262	H	1.556088	-0.689307	0.075573
N263	N	0.339817	-0.527574	-0.416338
N264	N	0.839817	-0.027574	0.083662
N265	N	0.303285	-0.603317	-0.425047
N266	N	0.803285	-0.103317	0.074953
H267	H	0.279733	-0.609476	-0.465778
H268	H	0.779733	-0.109476	0.034222
N269	N	0.795407	-0.912030	-0.336527
N270	N	1.295407	-0.412030	0.163473
N271	N	0.752437	-0.977001	-0.326784
N272	N	1.252437	-0.477001	0.173216
H273	H	0.708900	-0.951124	-0.316842
H274	H	1.208900	-0.451124	0.183158
