data_functionalizedCrystal
_audit_creation_method	'MofGen! by Chris Wilmer'
_symmetry_space_group_name_H-M	'P1'
_symmetry_Int_Tables_number	1
_symmetry_cell_setting	triclinic
loop_
_symmetry_equiv_pos_as_xyz
  x,y,z
_cell_length_a	23.532355
_cell_length_b	23.532357
_cell_length_c	12.996460
_cell_angle_alpha	89.988323
_cell_angle_beta	90.000230
_cell_angle_gamma	82.827896
loop_
_atom_site_label
_atom_site_type_symbol
_atom_site_fract_x
_atom_site_fract_y
_atom_site_fract_z
O1	O	0.755267	0.068997	-0.085439
O2	O	0.589398	0.079031	-0.085474
O3	O	0.677349	-0.008921	-0.085434
O4	O	0.667316	0.156949	-0.085479
O5	O	0.677340	-0.008925	0.085700
O6	O	0.589389	0.079026	0.085660
O7	O	0.755258	0.068992	0.085695
Cu8	Cu	0.672322	0.074009	0.101303
Cu9	Cu	0.672333	0.074014	-0.101082
O10	O	0.667307	0.156944	0.085655
C11	C	0.568177	0.078778	0.000089
C12	C	0.504958	0.078024	0.000077
C13	C	0.112940	0.073283	0.093406
C14	C	0.053541	0.072566	0.093410
O15	O	0.022818	0.072173	0.172745
N16	N	0.023837	0.072212	0.000126
C17	C	0.053537	0.072571	-0.093169
O18	O	0.022818	0.072204	-0.172514
C19	C	0.112936	0.073284	-0.093172
C20	C	0.142636	0.073643	0.000119
C21	C	0.142640	0.073641	0.186689
C22	C	0.202035	0.074360	0.186685
C23	C	0.231730	0.074720	0.093397
C24	C	0.202031	0.074362	0.000114
C25	C	0.142635	0.073639	-0.186466
C26	C	0.202038	0.074352	-0.186461
C27	C	0.231738	0.074711	-0.093170
C28	C	0.291121	0.075440	-0.093178
N29	N	0.320824	0.075794	0.000106
C30	C	0.291129	0.075433	0.093394
C31	C	-0.071204	0.071072	-0.093155
C32	C	-0.130602	0.070363	-0.093153
C33	C	-0.130594	0.070356	0.093427
C34	C	-0.071196	0.071070	0.093423
C35	C	-0.041501	0.071425	0.000129
C36	C	0.415863	0.076943	0.093377
C37	C	0.475263	0.077664	0.093365
C38	C	0.475250	0.077667	-0.093215
C39	C	0.415855	0.076949	-0.093202
C40	C	0.386163	0.076585	0.000102
O41	O	0.321882	0.075831	-0.172472
O42	O	0.321857	0.075793	0.172726
C43	C	0.677094	-0.030140	0.000136
C44	C	0.676339	-0.093358	0.000145
C45	C	0.671607	-0.485366	-0.093196
C46	C	0.670890	-0.544765	-0.093202
O47	O	0.670504	-0.575479	-0.172538
N48	N	0.670529	-0.574479	0.000081
C49	C	0.670880	-0.544789	0.093377
O50	O	0.670507	-0.575517	0.172722
C51	C	0.671593	-0.485391	0.093382
C52	C	0.671960	-0.455681	0.000092
C53	C	0.671973	-0.455656	-0.186478
C54	C	0.672691	-0.396261	-0.186472
C55	C	0.673044	-0.366576	-0.093183
C56	C	0.672678	-0.396286	0.000099
C57	C	0.671940	-0.455702	0.186677
C58	C	0.672653	-0.396299	0.186674
C59	C	0.673019	-0.366589	0.093384
C60	C	0.673749	-0.307206	0.093394
N61	N	0.674109	-0.277492	0.000110
C62	C	0.673757	-0.307177	-0.093178
C63	C	0.669381	-0.669531	0.093360
C64	C	0.668672	-0.728929	0.093356
C65	C	0.668681	-0.728900	-0.093224
C66	C	0.669394	-0.669502	-0.093219
C67	C	0.669742	-0.639817	0.000076
C68	C	0.675266	-0.182443	-0.093158
C69	C	0.675986	-0.123043	-0.093143
C70	C	0.675975	-0.123076	0.093436
C71	C	0.675257	-0.182472	0.093422
C72	C	0.674901	-0.212153	0.000117
O73	O	0.674133	-0.276453	0.172689
O74	O	0.674122	-0.276441	-0.172510
C75	C	0.776479	0.069245	0.000130
C76	C	0.839698	0.069999	0.000135
C77	C	0.667562	0.178163	0.000083
C78	C	0.668317	0.241381	0.000067
N79	N	0.672319	0.074004	0.243650
N80	N	0.672341	0.074014	-0.243429
C81	C	0.672332	0.074015	0.663465
C82	C	0.672327	0.074014	0.546660
C83	C	0.672326	0.074010	0.453561
C84	C	0.672320	0.074008	0.336749
H85	H	0.499438	0.077963	-0.169167
C86	C	0.234710	0.074740	0.289298
C87	C	0.282304	0.025763	0.314944
C88	C	0.314980	0.026137	0.417558
C89	C	0.300062	0.075490	0.494528
C90	C	0.252466	0.124472	0.468884
C91	C	0.219790	0.124097	0.366269
H92	H	0.293349	-0.010775	0.257965
H93	H	0.350213	-0.010122	0.436541
H94	H	0.324250	0.075768	0.570489
H95	H	0.241421	0.161009	0.525863
H96	H	0.184556	0.160357	0.347287
C97	C	-0.038543	0.071472	-0.195787
C98	C	-0.004470	0.121427	-0.221465
C99	C	0.028187	0.121826	-0.324096
C100	C	0.026772	0.072271	-0.401047
C101	C	-0.007302	0.022312	-0.375371
C102	C	-0.039960	0.021913	-0.272741
H103	H	-0.003422	0.158114	-0.164500
H104	H	0.053411	0.158809	-0.343102
H105	H	0.050947	0.072566	-0.477020
H106	H	-0.008351	-0.014375	-0.432337
H107	H	-0.065183	-0.015069	-0.253734
C108	C	0.671551	-0.488364	0.289310
C109	C	0.622190	-0.473437	0.366272
C110	C	0.621809	-0.506094	0.468916
C111	C	0.670788	-0.553680	0.494599
C112	C	0.720152	-0.568610	0.417635
C113	C	0.720534	-0.535952	0.314990
H114	H	0.585930	-0.438209	0.347262
H115	H	0.585266	-0.495042	0.525890
H116	H	0.670505	-0.577855	0.570582
H117	H	0.756413	-0.603838	0.436644
H118	H	0.757077	-0.547005	0.258016
C119	C	0.668290	-0.761560	-0.195847
C120	C	0.717260	-0.809155	-0.221491
C121	C	0.716870	-0.841815	-0.324108
C122	C	0.667510	-0.826880	-0.401080
C123	C	0.618536	-0.779283	-0.375438
C124	C	0.618926	-0.746622	-0.272821
H125	H	0.753802	-0.820213	-0.164510
H126	H	0.753124	-0.877050	-0.343089
H127	H	0.667221	-0.851057	-0.477043
H128	H	0.581993	-0.768225	-0.432419
H129	H	0.582672	-0.711387	-0.253840
H130	H	0.668383	-0.753115	0.169322
H131	H	0.674964	-0.206663	0.169386
H132	H	0.676286	-0.098856	-0.169114
C133	C	0.676357	-0.090416	0.196052
C134	C	0.725710	-0.105346	0.273040
C135	C	0.726087	-0.072684	0.375657
C136	C	0.677110	-0.025093	0.401286
C137	C	0.627753	-0.010161	0.324296
C138	C	0.627377	-0.042823	0.221678
H139	H	0.761969	-0.140578	0.254070
H140	H	0.762624	-0.083738	0.432651
H141	H	0.677388	-0.000915	0.477249
H142	H	0.591494	0.025070	0.343266
H143	H	0.590839	-0.031769	0.164685
C144	C	0.673037	-0.363646	0.289302
C145	C	0.623470	-0.365064	0.366247
C146	C	0.623855	-0.332413	0.468874
C147	C	0.673807	-0.298344	0.494556
C148	C	0.723378	-0.296924	0.417609
C149	C	0.722993	-0.329575	0.314983
H150	H	0.586489	-0.390286	0.347238
H151	H	0.587160	-0.333464	0.525835
H152	H	0.674093	-0.274173	0.570526
H153	H	0.760359	-0.271703	0.436619
H154	H	0.759688	-0.328525	0.258022
H155	H	0.499441	0.077958	0.169336
H156	H	0.391694	0.076652	0.169355
C157	C	-0.163265	0.069954	0.196048
C158	C	-0.210864	0.118920	0.221692
C159	C	-0.243535	0.118518	0.324307
C160	C	-0.228607	0.069150	0.401279
C161	C	-0.181006	0.020180	0.375637
C162	C	-0.148334	0.020582	0.273022
H163	H	-0.221917	0.155469	0.164711
H164	H	-0.278773	0.154769	0.343289
H165	H	-0.252793	0.068853	0.477241
H166	H	-0.169953	-0.016368	0.432618
H167	H	-0.113096	-0.015668	0.254040
H168	H	0.118469	0.073347	0.262660
H169	H	0.674973	-0.206602	-0.169136
H170	H	-0.047018	0.071362	0.169389
H171	H	-0.154780	0.070080	-0.169120
H172	H	0.672987	-0.372076	-0.262438
H173	H	0.118464	0.073346	-0.262433
H174	H	0.226212	0.074642	-0.262434
H175	H	0.391671	0.076666	-0.169167
H176	H	0.671684	-0.479819	-0.262449
H177	H	0.669692	-0.645316	-0.169184
H178	H	0.669666	-0.645365	0.169337
