data_functionalizedCrystal
_audit_creation_method	'MofGen! by Chris Wilmer'
_symmetry_space_group_name_H-M	'P1'
_symmetry_Int_Tables_number	1
_symmetry_cell_setting	triclinic
loop_
_symmetry_equiv_pos_as_xyz
  x,y,z
_cell_length_a	29.839135
_cell_length_b	29.839131
_cell_length_c	29.839126
_cell_angle_alpha	89.968194
_cell_angle_beta	89.976855
_cell_angle_gamma	90.037758
loop_
_atom_site_label
_atom_site_type_symbol
_atom_site_fract_x
_atom_site_fract_y
_atom_site_fract_z
Zn1	Zn	0.686773	-0.178857	-0.254023
Zn2	Zn	1.186773	0.321143	0.245977
Zn3	Zn	0.686703	-0.253978	-0.178883
Zn4	Zn	1.186703	0.246022	0.321117
Zn5	Zn	0.611646	-0.178866	-0.178901
Zn6	Zn	1.111646	0.321134	0.321099
Zn7	Zn	0.611612	-0.253964	-0.253980
Zn8	Zn	1.111612	0.246036	0.246020
O9	O	0.649183	-0.216416	-0.216447
O10	O	1.149183	0.283584	0.283553
O11	O	0.749631	-0.188824	-0.244066
O12	O	1.249631	0.311176	0.255934
O13	O	0.676732	-0.244023	-0.116019
O14	O	1.176732	0.255977	0.383981
O15	O	0.621655	-0.115998	-0.188892
O16	O	1.121655	0.384002	0.311108
O17	O	0.749580	-0.244015	-0.188861
O18	O	1.249580	0.255985	0.311139
O19	O	0.676851	-0.115991	-0.244084
O20	O	1.176851	0.384009	0.255916
O21	O	0.621587	-0.188839	-0.116032
O22	O	1.121587	0.311161	0.383968
O23	O	0.548774	-0.188826	-0.188850
O24	O	1.048774	0.311174	0.311150
O25	O	0.621597	-0.243992	-0.316853
O26	O	1.121597	0.256008	0.183147
O27	O	0.548749	-0.244000	-0.244010
O28	O	1.048749	0.256000	0.255990
O29	O	0.676818	-0.188811	-0.316885
O30	O	1.176818	0.311189	0.183115
O31	O	0.676699	-0.316843	-0.188819
O32	O	1.176699	0.183157	0.311181
O33	O	0.621529	-0.316833	-0.243993
O34	O	1.121529	0.183167	0.256007
C35	C	0.532461	-0.216413	-0.216428
C36	C	1.032461	0.283587	0.283572
C37	C	0.482526	-0.216422	-0.216430
C38	C	0.982526	0.283578	0.283570
C39	C	0.172907	-0.187722	-0.245235
C40	C	0.672907	0.312278	0.254765
C41	C	-0.014766	-0.187725	-0.245247
C42	C	0.485234	0.312275	0.254753
O43	O	-0.039011	-0.163313	-0.269717
O44	O	0.460989	0.336687	0.230283
N45	N	-0.038259	-0.216417	-0.216464
N46	N	0.461741	0.283583	0.283536
C47	C	-0.014830	-0.245108	-0.187672
C48	C	0.485170	0.254892	0.312328
O49	O	-0.039118	-0.269509	-0.163187
O50	O	0.460882	0.230491	0.336813
C51	C	0.172842	-0.245102	-0.187658
C52	C	0.672842	0.254898	0.312342
C53	C	0.196332	-0.216412	-0.216447
C54	C	0.696332	0.283588	0.283553
C55	C	0.196397	-0.159034	-0.274021
C56	C	0.696397	0.340966	0.225979
C57	C	0.243312	-0.159035	-0.274019
C58	C	0.743312	0.340965	0.225981
C59	C	0.266738	-0.187725	-0.245231
C60	C	0.766738	0.312275	0.254769
C61	C	0.243248	-0.216413	-0.216445
C62	C	0.743248	0.283587	0.283555
C63	C	0.196270	-0.273790	-0.158864
C64	C	0.696270	0.226210	0.341136
C65	C	0.243191	-0.273785	-0.158862
C66	C	0.743191	0.226215	0.341138
C67	C	0.266681	-0.245095	-0.187651
C68	C	0.766681	0.254905	0.312349
C69	C	0.313589	-0.245104	-0.187655
C70	C	0.813589	0.254896	0.312345
N71	N	0.337081	-0.216412	-0.216439
N72	N	0.837081	0.283588	0.283561
C73	C	0.313655	-0.187723	-0.245227
C74	C	0.813655	0.312277	0.254773
C75	C	-0.113361	-0.245109	-0.187683
C76	C	0.386639	0.254891	0.312317
C77	C	-0.160278	-0.245111	-0.187687
C78	C	0.339722	0.254889	0.312313
C79	C	-0.160212	-0.187728	-0.245262
C80	C	0.339788	0.312272	0.254738
C81	C	-0.113293	-0.187729	-0.245259
C82	C	0.386707	0.312271	0.254741
C83	C	-0.089868	-0.216418	-0.216467
C84	C	0.410132	0.283582	0.283533
C85	C	0.412181	-0.187728	-0.245221
C86	C	0.912181	0.312272	0.254779
C87	C	0.459101	-0.187733	-0.245218
C88	C	0.959101	0.312267	0.254782
C89	C	0.459030	-0.245114	-0.187642
C90	C	0.959030	0.254886	0.312358
C91	C	0.412114	-0.245111	-0.187647
C92	C	0.912114	0.254889	0.312353
C93	C	0.388691	-0.216414	-0.216438
C94	C	0.888691	0.283586	0.283562
O95	O	0.337862	-0.269500	-0.163195
O96	O	0.837862	0.230500	0.336805
O97	O	0.337951	-0.163318	-0.269702
O98	O	0.837951	0.336682	0.230298
C99	C	0.125991	-0.187721	-0.245236
C100	C	0.625991	0.312279	0.254764
C101	C	0.102501	-0.216409	-0.216450
C102	C	0.602501	0.283591	0.283550
C103	C	0.125927	-0.245099	-0.187662
C104	C	0.625927	0.254901	0.312338
C105	C	0.055583	-0.216411	-0.216454
C106	C	0.555583	0.283589	0.283546
C107	C	0.032158	-0.187722	-0.245242
C108	C	0.532158	0.312278	0.254758
C109	C	0.055650	-0.159030	-0.274026
C110	C	0.555650	0.340970	0.225974
C111	C	0.102566	-0.159031	-0.274025
C112	C	0.602566	0.340969	0.225975
C113	C	0.102434	-0.273790	-0.158878
C114	C	0.602434	0.226210	0.341122
C115	C	0.055519	-0.273787	-0.158883
C116	C	0.555519	0.226213	0.341117
C117	C	0.032093	-0.245098	-0.187671
C118	C	0.532093	0.254902	0.312329
C119	C	0.649115	-0.333139	-0.216409
C120	C	1.149115	0.166861	0.283591
C121	C	0.649127	-0.383073	-0.216408
C122	C	1.149127	0.116927	0.283592
C123	C	0.677917	-0.692679	-0.245226
C124	C	1.177917	-0.192679	0.254774
C125	C	0.677966	-0.880352	-0.245253
C126	C	1.177966	-0.380352	0.254747
O127	O	0.702378	-0.904584	-0.269728
O128	O	1.202378	-0.404584	0.230272
N129	N	0.649260	-0.903858	-0.216497
N130	N	1.149260	-0.403858	0.283503
C131	C	0.620537	-0.880444	-0.187734
C132	C	1.120537	-0.380444	0.312266
O133	O	0.596118	-0.904744	-0.163279
O134	O	1.096118	-0.404744	0.336721
C135	C	0.620486	-0.692772	-0.187709
C136	C	1.120486	-0.192772	0.312291
C137	C	0.649198	-0.669268	-0.216464
C138	C	1.149198	-0.169268	0.283536
C139	C	0.706626	-0.669174	-0.273979
C140	C	1.206626	-0.169174	0.226021
C141	C	0.706616	-0.622259	-0.273971
C142	C	1.206616	-0.122259	0.226029
C143	C	0.677896	-0.598848	-0.245209
C144	C	1.177896	-0.098848	0.254791
C145	C	0.649187	-0.622352	-0.216456
C146	C	1.149187	-0.122352	0.283544
C147	C	0.591761	-0.669359	-0.158949
C148	C	1.091761	-0.169359	0.341051
C149	C	0.591750	-0.622438	-0.158946
C150	C	1.091750	-0.122438	0.341054
C151	C	0.620462	-0.598933	-0.187701
C152	C	1.120462	-0.098933	0.312299
C153	C	0.620456	-0.552026	-0.187685
C154	C	1.120456	-0.052026	0.312315
N155	N	0.649163	-0.528519	-0.216442
N156	N	1.149163	-0.028519	0.283558
C157	C	0.677883	-0.551930	-0.245203
C158	C	1.177883	-0.051930	0.254797
C159	C	0.620566	-0.978975	-0.187748
C160	C	1.120566	-0.478975	0.312252
C161	C	0.620579	-1.025893	-0.187753
C162	C	1.120579	-0.525893	0.312247
C163	C	0.678008	-1.025797	-0.245274
C164	C	1.178008	-0.525797	0.254726
C165	C	0.677997	-0.978878	-0.245266
C166	C	1.177997	-0.478878	0.254734
C167	C	0.649273	-0.955468	-0.216504
C168	C	1.149273	-0.455468	0.283496
C169	C	0.677858	-0.453404	-0.245183
C170	C	1.177858	0.046596	0.254817
C171	C	0.677846	-0.406484	-0.245170
C172	C	1.177846	0.093516	0.254830
C173	C	0.620416	-0.406584	-0.187651
C174	C	1.120416	0.093416	0.312349
C175	C	0.620429	-0.453500	-0.187662
C176	C	1.120429	0.046500	0.312338
C177	C	0.649152	-0.476909	-0.216431
C178	C	1.149152	0.023091	0.283569
O179	O	0.596054	-0.527764	-0.163227
O180	O	1.096054	-0.027764	0.336773
O181	O	0.702291	-0.527622	-0.269662
O182	O	1.202291	-0.027622	0.230338
C183	C	0.677928	-0.739594	-0.245235
C184	C	1.177928	-0.239594	0.254765
C185	C	0.649219	-0.763098	-0.216482
C186	C	1.149219	-0.263098	0.283518
C187	C	0.620499	-0.739687	-0.187720
C188	C	1.120499	-0.239687	0.312280
C189	C	0.649232	-0.810016	-0.216487
C190	C	1.149232	-0.310016	0.283513
C191	C	0.677952	-0.833427	-0.245249
C192	C	1.177952	-0.333427	0.254751
C193	C	0.706659	-0.809921	-0.274006
C194	C	1.206659	-0.309921	0.225994
C195	C	0.706648	-0.763005	-0.273997
C196	C	1.206648	-0.263005	0.226003
C197	C	0.591793	-0.763194	-0.158964
C198	C	1.091793	-0.263194	0.341036
C199	C	0.591806	-0.810110	-0.158974
C200	C	1.091806	-0.310110	0.341026
C201	C	0.620526	-0.833521	-0.187736
C202	C	1.120526	-0.333521	0.312264
C203	C	0.766362	-0.216420	-0.216467
C204	C	1.266362	0.283580	0.283533
C205	C	0.816296	-0.216422	-0.216475
C206	C	1.316296	0.283578	0.283525
C207	C	0.649211	-0.216399	-0.333625
C208	C	1.149211	0.283601	0.166375
C209	C	0.649223	-0.216392	-0.383560
C210	C	1.149223	0.283608	0.116440
C211	C	0.649264	-0.099238	-0.216495
C212	C	1.149264	0.400762	0.283505
C213	C	0.649299	-0.049304	-0.216515
C214	C	1.149299	0.450696	0.283485
C215	C	0.620518	-0.187612	-0.693213
C216	C	1.120518	0.312388	-0.193213
C217	C	0.620531	-0.187581	-0.880886
C218	C	1.120531	0.312419	-0.380886
O219	O	0.596103	-0.163157	-0.905160
O220	O	1.096103	0.336843	-0.405160
N221	N	0.649244	-0.216308	-0.904345
N222	N	1.149244	0.283692	-0.404345
C223	C	0.677954	-0.245046	-0.880883
C224	C	1.177954	0.254954	-0.380883
O225	O	0.702374	-0.269482	-0.905142
O226	O	1.202374	0.230518	-0.405142
C227	C	0.677939	-0.245079	-0.693211
C228	C	1.177939	0.254921	-0.193211
C229	C	0.649227	-0.216348	-0.669754
C230	C	1.149227	0.283652	-0.169754
C231	C	0.591808	-0.158884	-0.669757
C232	C	1.091808	0.341116	-0.169757
C233	C	0.591807	-0.158890	-0.622841
C234	C	1.091807	0.341110	-0.122841
C235	C	0.620516	-0.187625	-0.599382
C236	C	1.120516	0.312375	-0.099382
C237	C	0.649226	-0.216354	-0.622839
C238	C	1.149226	0.283646	-0.122839
C239	C	0.706647	-0.273819	-0.669749
C240	C	1.206647	0.226181	-0.169749
C241	C	0.706639	-0.273826	-0.622828
C242	C	1.206639	0.226174	-0.122828
C243	C	0.677927	-0.245094	-0.599372
C244	C	1.177927	0.254906	-0.099372
C245	C	0.677934	-0.245095	-0.552464
C246	C	1.177934	0.254905	-0.052464
N247	N	0.649220	-0.216369	-0.529005
N248	N	1.149220	0.283631	-0.029005
C249	C	0.620511	-0.187634	-0.552464
C250	C	1.120511	0.312366	-0.052464
C251	C	0.677961	-0.245026	-0.979414
C252	C	1.177961	0.254974	-0.479414
C253	C	0.677966	-0.245017	-1.026331
C254	C	1.177966	0.254983	-0.526331
C255	C	0.620541	-0.187553	-1.026332
C256	C	1.120541	0.312447	-0.526332
C257	C	0.620540	-0.187560	-0.979413
C258	C	1.120540	0.312440	-0.479413
C259	C	0.649248	-0.216299	-0.955955
C260	C	1.149248	0.283701	-0.455955
C261	C	0.620511	-0.187649	-0.453939
C262	C	1.120511	0.312351	0.046061
C263	C	0.620514	-0.187657	-0.407019
C264	C	1.120514	0.312343	0.092981
C265	C	0.677936	-0.245122	-0.407023
C266	C	1.177936	0.254878	0.092977
C267	C	0.677936	-0.245113	-0.453938
C268	C	1.177936	0.254887	0.046062
C269	C	0.649219	-0.216375	-0.477395
C270	C	1.149219	0.283625	0.022605
O271	O	0.702345	-0.269511	-0.528162
O272	O	1.202345	0.230489	-0.028162
O273	O	0.596089	-0.163209	-0.528197
O274	O	1.096089	0.336791	-0.028197
C275	C	0.620519	-0.187606	-0.740129
C276	C	1.120519	0.312394	-0.240129
C277	C	0.649229	-0.216335	-0.763585
C278	C	1.149229	0.283665	-0.263585
C279	C	0.677938	-0.245070	-0.740126
C280	C	1.177938	0.254930	-0.240126
C281	C	0.649234	-0.216326	-0.810503
C282	C	1.149234	0.283674	-0.310503
C283	C	0.620525	-0.187591	-0.833962
C284	C	1.120525	0.312409	-0.333962
C285	C	0.591812	-0.158865	-0.810503
C286	C	1.091812	0.341135	-0.310503
C287	C	0.591811	-0.158871	-0.763588
C288	C	1.091811	0.341129	-0.263588
C289	C	0.706652	-0.273796	-0.763585
C290	C	1.206652	0.226204	-0.263585
C291	C	0.706651	-0.273787	-0.810500
C292	C	1.206651	0.226213	-0.310500
C293	C	0.677942	-0.245052	-0.833959
C294	C	1.177942	0.254948	-0.333959
C295	C	0.649181	-0.216401	-0.099725
C296	C	1.149181	0.283599	0.400275
C297	C	0.649257	-0.216282	-0.049790
C298	C	1.149257	0.283718	0.450210
H299	H	0.478111	-0.268473	-0.164205
H300	H	0.978111	0.231527	0.335795
C301	C	0.709523	-0.276717	-0.479741
C302	C	1.209523	0.223283	0.020259
N303	N	0.733311	-0.300524	-0.499173
N304	N	1.233311	0.199476	0.000827
C305	C	0.738250	-0.835682	-0.305645
C306	C	1.238250	-0.335682	0.194355
N307	N	0.762041	-0.855087	-0.329476
N308	N	1.262041	-0.355087	0.170524
C309	C	0.029685	-0.305349	-0.127208
C310	C	0.529685	0.194651	0.372792
N311	N	0.010229	-0.329118	-0.103348
N312	N	0.510229	0.170882	0.396652
C313	C	0.588998	-1.051742	-0.156117
C314	C	1.088998	-0.551742	0.343883
N315	N	0.565207	-1.071210	-0.132289
N316	N	1.065207	-0.571210	0.367711
H317	H	0.568405	-0.744137	-0.135543
H318	H	1.068405	-0.244137	0.364457
H319	H	0.701244	-0.472458	-0.268612
H320	H	1.201244	0.027542	0.231388
C321	C	0.588960	-0.953229	-0.156111
C322	C	1.088960	-0.453229	0.343889
N323	N	0.565154	-0.933840	-0.132282
N324	N	1.065154	-0.433840	0.367718
C325	C	-0.186112	-0.276675	-0.156019
C326	C	0.313888	0.223325	0.343981
N327	N	-0.205568	-0.300448	-0.132163
N328	N	0.294432	0.199552	0.367837
C329	C	0.588925	-0.156033	-0.479734
C330	C	1.088925	0.343967	0.020266
N331	N	0.565137	-0.132217	-0.499163
N332	N	1.065137	0.367783	0.000837
H333	H	0.730036	-0.297183	-0.829595
H334	H	1.230036	0.202817	-0.329595
C335	C	0.560222	-0.127266	-0.737792
C336	C	1.060222	0.372734	-0.237792
N337	N	0.536427	-0.103461	-0.718365
N338	N	1.036427	0.396539	-0.218365
H339	H	0.701312	-0.268516	-0.387914
H340	H	1.201312	0.231484	0.112086
C341	C	0.588848	-0.479355	-0.156028
C342	C	1.088848	0.020645	0.343972
N343	N	0.565057	-0.498827	-0.132203
N344	N	1.065057	0.001173	0.367797
H345	H	0.701228	-0.387349	-0.268586
H346	H	1.201228	0.112651	0.231414
H347	H	0.597167	-0.164155	-1.045440
H348	H	1.097167	0.335845	-0.545440
C349	C	0.128399	-0.127466	-0.305692
C350	C	0.628399	0.372534	0.194308
N351	N	0.147853	-0.103688	-0.329543
N352	N	0.647853	0.396312	0.170457
C353	C	0.128196	-0.305355	-0.127209
C354	C	0.628196	0.194645	0.372791
N355	N	0.147598	-0.329133	-0.103355
N356	N	0.647598	0.170867	0.396645
H357	H	0.730029	-0.297198	-0.744489
H358	H	1.230029	0.202802	-0.244489
C359	C	0.484937	-0.156168	-0.276888
C360	C	0.984937	0.343832	0.223112
N361	N	0.504395	-0.132392	-0.300739
N362	N	1.004395	0.367608	0.199261
C363	C	0.386423	-0.156162	-0.276896
C364	C	0.886423	0.343838	0.223104
N365	N	0.367021	-0.132390	-0.300755
N366	N	0.867021	0.367610	0.199245
C367	C	0.029873	-0.127468	-0.305690
C368	C	0.529873	0.372532	0.194310
N369	N	0.010456	-0.103693	-0.329534
N370	N	0.510456	0.396307	0.170466
C371	C	0.709580	-0.953028	-0.276900
C372	C	1.209580	-0.453028	0.223100
N373	N	0.733369	-0.933559	-0.300729
N374	N	1.233369	-0.433559	0.199271
H375	H	0.568438	-0.135466	-0.829612
H376	H	1.068438	0.364534	-0.329612
C377	C	0.269145	-0.127467	-0.305684
C378	C	0.769145	0.372533	0.194316
N379	N	0.288599	-0.103686	-0.329533
N380	N	0.788599	0.396314	0.170467
H381	H	0.177329	-0.135669	-0.297464
H382	H	0.677329	0.364331	0.202536
C383	C	0.738203	-0.596410	-0.305602
C384	C	1.238203	-0.096410	0.194398
N385	N	0.761996	-0.576944	-0.329429
N386	N	1.261996	-0.076944	0.170571
C387	C	0.738227	-0.694919	-0.305619
C388	C	1.238227	-0.194919	0.194381
N389	N	0.762034	-0.714307	-0.329448
N390	N	1.262034	-0.214307	0.170552
H391	H	0.701393	-1.044866	-0.268692
H392	H	1.201393	-0.544866	0.231308
C393	C	-0.087458	-0.156164	-0.276926
C394	C	0.412542	0.343836	0.223074
N395	N	-0.068002	-0.132387	-0.300777
N396	N	0.431998	0.367613	0.199223
H397	H	0.597034	-0.387516	-0.164232
H398	H	1.097034	0.112484	0.335768
H399	H	0.177153	-0.297153	-0.135421
H400	H	0.677153	0.202847	0.364579
H401	H	0.701351	-0.268408	-1.045426
H402	H	1.201351	0.231592	-0.545426
C403	C	0.738229	-0.305430	-0.695541
C404	C	1.238229	0.194570	-0.195541
N405	N	0.762018	-0.329242	-0.714966
N406	N	1.262018	0.170758	-0.214966
H407	H	-0.094293	-0.268473	-0.164235
H408	H	0.405707	0.231527	0.335765
H409	H	0.701339	-0.268432	-0.960318
H410	H	1.201339	0.231568	-0.460318
C411	C	0.588926	-0.156050	-0.381220
C412	C	1.088926	0.343950	0.118780
N413	N	0.565134	-0.132245	-0.361789
N414	N	1.065134	0.367755	0.138211
H415	H	0.262261	-0.297147	-0.135415
H416	H	0.762261	0.202853	0.364585
H417	H	0.568381	-0.688488	-0.135533
H418	H	1.068381	-0.188488	0.364467
H419	H	0.568427	-0.829243	-0.135554
H420	H	1.068427	-0.329243	0.364446
C421	C	-0.185988	-0.156167	-0.276926
C422	C	0.314012	0.343833	0.223074
N423	N	-0.205406	-0.132393	-0.300771
N424	N	0.294594	0.367607	0.199229
C425	C	0.560151	-0.596689	-0.127305
C426	C	1.060151	-0.096689	0.372695
N427	N	0.536351	-0.577297	-0.103472
N428	N	1.036351	-0.077297	0.396528
H429	H	0.568425	-0.135496	-0.603747
H430	H	1.068425	0.364504	-0.103747
C431	C	0.588952	-0.155956	-0.953615
C432	C	1.088952	0.344044	-0.453615
N433	N	0.565157	-0.132152	-0.934187
N434	N	1.065157	0.367848	-0.434187
C435	C	0.738224	-0.305440	-0.597027
C436	C	1.238224	0.194560	-0.097027
N437	N	0.762016	-0.329250	-0.577594
N438	N	1.262016	0.170750	-0.077594
H439	H	0.568428	-0.135484	-0.688852
H440	H	1.068428	0.364516	-0.188852
C441	C	0.386275	-0.276675	-0.155981
C442	C	0.886275	0.223325	0.344019
N443	N	0.366815	-0.300448	-0.132128
N444	N	0.866815	0.199552	0.367872
H445	H	0.730028	-0.743871	-0.297412
H446	H	1.230028	-0.243871	0.202588
