data_functionalizedCrystal
_audit_creation_method	'MofGen! by Chris Wilmer'
_symmetry_space_group_name_H-M	'P1'
_symmetry_Int_Tables_number	1
_symmetry_cell_setting	triclinic
loop_
_symmetry_equiv_pos_as_xyz
  x,y,z
_cell_length_a	17.917603
_cell_length_b	17.052862
_cell_length_c	17.052862
_cell_angle_alpha	92.606806
_cell_angle_beta	67.576695
_cell_angle_gamma	53.592363
loop_
_atom_site_label
_atom_site_type_symbol
_atom_site_fract_x
_atom_site_fract_y
_atom_site_fract_z
Zr1	Zr	0.550387	0.944115	0.011666
O2	O	0.702140	0.825673	-0.121631
O3	O	0.398634	0.973683	0.056090
O4	O	0.503534	1.006253	-0.089062
O5	O	0.634197	0.775079	0.133968
O6	O	0.466577	1.156364	-0.067421
O7	O	0.597239	0.793103	0.023521
O8	O	0.278928	1.098103	0.192229
O9	O	0.821846	0.833340	-0.125681
O10	O	0.433471	1.106464	0.086884
O11	O	0.488633	0.980986	0.153160
O12	O	0.612141	1.019332	-0.017737
O13	O	0.667303	0.893854	0.048538
Zr14	Zr	0.550387	1.154779	0.222332
Zr15	Zr	0.491443	1.183525	0.046181
Zr16	Zr	0.609331	0.915368	0.187817
Zr17	Zr	0.741304	0.956343	0.005206
Zr18	Zr	0.359470	1.142550	0.228792
O19	O	0.702141	1.125210	0.177908
O20	O	0.618330	1.166084	-0.072556
O21	O	0.785951	0.784799	0.128833
O22	O	0.398634	1.273220	0.355629
O23	O	0.314823	1.314094	0.105165
O24	O	0.482444	0.932809	0.306554
O25	O	0.466577	1.323814	0.100030
O26	O	0.597240	1.092640	0.323060
O27	O	0.634198	0.942529	0.301419
O28	O	0.503535	1.305790	0.210478
O29	O	0.774994	1.023640	-0.098247
O30	O	0.325781	1.075253	0.332245
O31	O	0.278928	1.265553	0.359680
O32	O	0.232076	1.288403	0.219663
O33	O	0.868698	0.810490	0.014335
O34	O	0.821846	1.000790	0.041770
O35	O	0.488634	1.079561	0.251736
O36	O	0.433471	1.205039	0.185460
O37	O	0.612141	1.117908	0.080838
O38	O	0.667304	0.992429	0.147114
C39	C	0.311579	1.034151	0.125080
C40	C	0.230530	1.028959	0.127822
C41	C	0.624116	0.749980	0.073827
C42	C	0.649140	0.648344	0.059174
C43	C	0.476657	1.085404	-0.103339
C44	C	0.451634	1.097608	-0.178120
C45	C	0.082129	1.019475	0.132830
C46	C	0.018641	1.079415	0.101170
C47	C	-0.063934	1.074138	0.103956
C48	C	0.164713	1.024751	0.130044
C49	C	0.789195	1.064742	0.108918
C50	C	0.870244	1.069934	0.106176
C51	C	0.346610	0.543780	0.236319
C52	C	0.323094	0.639275	0.250083
C53	C	0.404603	0.641547	0.202357
C54	C	0.509632	0.548315	0.140865
C55	C	0.533148	0.452811	0.127095
C56	C	0.591142	0.550579	0.093133
C57	C	0.696171	0.457346	0.031641
C58	C	0.719683	0.361853	0.017874
C59	C	0.638173	0.359581	0.065599
C60	C	0.567626	0.646082	0.106903
C61	C	0.754165	0.555113	-0.002321
C62	C	0.777680	0.459619	-0.016085
C63	C	0.476658	1.348913	0.160171
C64	C	0.451635	1.450549	0.174824
C65	C	0.754165	0.950066	-0.607367
C66	C	0.777680	0.938593	-0.537109
C67	C	0.696171	0.978346	-0.447359
C68	C	0.591142	1.029573	-0.427872
C69	C	0.567626	1.041039	-0.498138
C70	C	0.509632	1.069320	-0.338130
C71	C	0.404603	1.120547	-0.318643
C72	C	0.381092	1.132011	-0.388902
C73	C	0.462601	1.092259	-0.478653
C74	C	0.533148	1.057854	-0.267864
C75	C	0.346609	1.148827	-0.158635
C76	C	0.323094	1.160300	-0.228892
C77	C	0.624117	1.013489	0.337337
C78	C	0.649140	1.001285	0.412118
C79	C	0.237850	1.333617	0.168252
C80	C	0.131778	1.430062	0.185647
C81	C	0.385309	0.998193	0.345418
C82	C	0.329283	0.980798	0.422941
C83	C	0.311580	1.297659	0.388590
C84	C	0.230531	1.381900	0.480766
C85	C	0.789194	0.801234	-0.154592
C86	C	0.870244	0.716993	-0.246767
C87	C	0.862924	0.765276	0.065746
C88	C	0.968997	0.668831	0.048351
C89	C	0.715465	1.100700	-0.111420
C90	C	0.771491	1.118095	-0.188943
C91	C	0.081962	1.423900	0.142353
C92	C	-0.017697	1.514514	0.158679
C93	C	-0.067542	1.611289	0.218304
C94	C	-0.017718	1.617449	0.261599
C95	C	0.081942	1.526837	0.245268
C96	C	0.302975	1.024083	0.510810
C97	C	0.250347	1.007734	0.583657
C98	C	0.224020	0.948105	0.568634
C99	C	0.250335	0.904815	0.480756
C100	C	0.302969	0.921158	0.407910
C101	C	0.163672	1.486969	0.489459
C102	C	0.087524	1.566134	0.576061
C103	C	0.078231	1.540227	0.653970
C104	C	0.145099	1.435147	0.645274
C105	C	0.221251	1.355986	0.558672
C106	C	0.937111	0.611924	-0.255461
C107	C	1.013283	0.532761	-0.342064
C108	C	1.022580	0.558669	-0.419974
C109	C	0.955707	0.663748	-0.411277
C110	C	0.879542	0.742909	-0.324675
C111	C	1.018817	0.674995	0.091638
C112	C	1.118491	0.584385	0.075292
C113	C	1.168338	0.487611	0.015663
C114	C	1.118512	0.481450	-0.027628
C115	C	1.018844	0.572060	-0.011287
C116	C	0.797799	1.177729	-0.173891
C117	C	0.850429	1.194094	-0.246723
C118	C	0.876755	1.150817	-0.334605
C119	C	0.850440	1.091181	-0.349655
C120	C	0.797805	1.074823	-0.276824
H121	H	0.026305	1.134693	0.071972
H122	H	0.033084	1.651688	0.583126
H123	H	0.122540	1.345111	0.093791
Cl124	Cl	0.305290	1.223899	0.547759
Cl125	Cl	-0.017511	1.639758	0.762837
Cl126	Cl	0.336027	0.866740	0.297449
Cl127	Cl	-0.192833	1.725193	0.238828
H128	H	-0.058317	1.696256	0.310147
Cl129	Cl	1.118335	0.459138	-0.528840
Cl130	Cl	0.764712	1.232147	-0.063418
H131	H	0.171223	1.508083	0.426031
Cl132	Cl	0.967405	0.696299	-0.509229
H133	H	0.863195	0.383696	-0.066153
Cl134	Cl	0.070296	0.934137	0.177910
H135	H	0.929550	0.590810	-0.192033
Cl136	Cl	0.851717	0.244649	-0.059437
H137	H	0.237576	0.715180	0.300140
Cl138	Cl	-0.080314	1.506744	0.104247
H139	H	1.159113	0.402644	-0.076178
Cl140	Cl	0.856636	0.557963	-0.062332
H141	H	0.137520	1.414068	0.708720
Cl142	Cl	0.435594	0.763276	0.184206
Cl143	Cl	0.764751	0.999838	-0.295763
H144	H	0.871850	1.242652	-0.234452
H145	H	0.618664	1.016142	-0.283740
H146	H	0.122492	1.531868	0.280531
Cl147	Cl	0.725734	0.963928	-0.359034
H148	H	1.067722	0.447208	-0.349128
Cl149	Cl	0.217228	0.829858	0.461886
H150	H	0.978242	0.753784	0.140197
Cl151	Cl	0.336057	1.099052	0.529719
H152	H	0.863195	0.896885	-0.552982
H153	H	0.871884	1.055949	-0.421219
H154	H	0.820520	0.917699	-0.680444
Cl155	Cl	0.956219	0.564291	-0.065706
Cl156	Cl	0.217272	1.062169	0.694123
H157	H	0.825096	0.828459	-0.317606
H158	H	0.385451	0.719306	0.213568
Cl159	Cl	0.433044	1.106679	-0.566984
Cl160	Cl	0.157848	0.927571	0.660224
H161	H	0.280255	0.541917	0.275167
H162	H	0.919614	1.164144	-0.393901
Cl163	Cl	1.293635	0.373709	-0.004868
Cl164	Cl	0.667734	0.239526	0.048307
Cl165	Cl	0.249060	1.196393	-0.364405
Cl166	Cl	1.181106	0.592154	0.129728
H167	H	0.280238	1.181193	-0.085557
Cl168	Cl	0.191064	1.224693	-0.204407
