data_functionalizedCrystal
_audit_creation_method	'MofGen! by Chris Wilmer'
_symmetry_space_group_name_H-M	'P1'
_symmetry_Int_Tables_number	1
_symmetry_cell_setting	triclinic
loop_
_symmetry_equiv_pos_as_xyz
  x,y,z
_cell_length_a	10.654556
_cell_length_b	19.188924
_cell_length_c	17.666332
_cell_angle_alpha	89.991448
_cell_angle_beta	89.992319
_cell_angle_gamma	83.814751
loop_
_atom_site_label
_atom_site_type_symbol
_atom_site_fract_x
_atom_site_fract_y
_atom_site_fract_z
O1	O	1.665765	0.098085	-0.062924
O2	O	1.300090	0.107423	-0.062932
O3	O	1.493485	0.001167	-0.062919
O4	O	1.472370	0.204341	-0.062937
O5	O	1.493451	0.001161	0.062978
O6	O	1.300056	0.107417	0.062965
O7	O	1.665731	0.098079	0.062973
Cu8	Cu	1.482891	0.102747	0.074464
Cu9	Cu	1.482931	0.102754	-0.074423
O10	O	1.472337	0.204335	0.062960
C11	C	1.253290	0.106733	0.000016
C12	C	1.113890	0.104679	0.000013
C13	C	0.917425	0.101790	-0.068607
C14	C	1.048406	0.103716	-0.068612
C15	C	1.048388	0.103709	0.068647
C16	C	0.917410	0.101779	0.068651
C17	C	1.492785	-0.024852	0.000031
C18	C	1.490737	-0.102370	0.000033
C19	C	1.489800	-0.138772	-0.068594
C20	C	1.487857	-0.211607	-0.068600
C21	C	1.486878	-0.248040	0.000025
C22	C	1.487808	-0.211628	0.068660
C23	C	1.489738	-0.138793	0.068664
N24	N	1.555297	-0.367257	0.051102
N25	N	1.553466	-0.436447	0.051094
C26	C	1.481061	-0.467487	0.000017
N27	N	1.410571	-0.426724	-0.051062
N28	N	1.412408	-0.357527	-0.051056
C29	C	1.484785	-0.327017	0.000028
C30	C	1.478016	-0.582865	-0.068620
C31	C	1.476066	-0.655701	-0.068623
C32	C	1.476029	-0.655722	0.068639
C33	C	1.477967	-0.582886	0.068640
C34	C	1.478966	-0.546463	0.000008
C35	C	1.712532	0.098768	0.000024
C36	C	1.851931	0.100823	0.000022
C37	C	1.473036	0.230353	0.000009
C38	C	1.475084	0.307871	0.000002
N39	N	1.482872	0.102742	0.179184
N40	N	1.482960	0.102754	-0.179142
C41	C	1.568535	0.055715	0.218799
C42	C	1.568542	0.055712	0.298047
C43	C	1.482898	0.102748	0.337676
C44	C	1.397219	0.149778	0.298051
C45	C	1.397206	0.149775	0.218805
N46	N	1.466571	0.164448	0.462089
N47	N	1.466591	0.164448	0.537369
C48	C	1.482931	0.102757	0.576440
N49	N	1.499275	0.041064	0.537386
N50	N	1.499262	0.041064	0.462099
C51	C	1.482903	0.102755	0.423605
C52	C	1.568607	0.055723	0.701985
C53	C	1.568605	0.055719	0.781234
C54	C	1.397289	0.149791	0.781236
C55	C	1.397284	0.149789	0.701989
C56	C	1.482950	0.102756	0.662368
H57	H	0.864084	0.100990	0.124541
H58	H	0.864116	0.101011	-0.124490
H59	H	1.478822	-0.553207	-0.124504
N60	N	1.490873	-0.099486	-0.142615
H61	H	1.489982	-0.133603	-0.186091
H62	H	1.413842	-0.063983	-0.145607
N63	N	1.486763	-0.250922	0.142676
H64	H	1.564918	-0.243530	0.172680
H65	H	1.409210	-0.232952	0.172619
N66	N	1.475065	-0.694966	-0.142647
H67	H	1.473685	-0.746633	-0.132237
H68	H	1.397587	-0.676944	-0.172624
H69	H	1.327535	0.188085	0.669732
H70	H	1.101726	0.104503	-0.124497
H71	H	1.490496	-0.109155	0.124550
H72	H	1.475222	-0.685384	0.124515
N73	N	1.304820	0.200507	0.176074
H74	H	1.317812	0.193370	0.119859
H75	H	1.215785	0.191980	0.189936
H76	H	1.478741	-0.553248	0.124523
H77	H	1.638285	0.017417	0.186542
N78	N	1.119011	0.104746	0.142666
H79	H	1.211923	0.106119	0.132251
H80	H	1.085687	0.147613	0.172629
N81	N	1.486837	-0.250881	-0.142621
H82	H	1.487759	-0.216754	-0.186097
H83	H	1.563868	-0.286384	-0.145605
N84	N	1.660935	0.004987	0.340789
H85	H	1.715199	-0.024809	0.303664
H86	H	1.716296	0.032011	0.373654
N87	N	1.304839	0.200506	0.340788
H88	H	1.317847	0.193373	0.397002
H89	H	1.319057	0.250112	0.326922
H90	H	1.638357	0.017424	0.669724
H91	H	1.638359	0.017420	0.813490
H92	H	1.327552	0.188085	0.813502
