data_functionalizedCrystal
_audit_creation_method	'MofGen! by Chris Wilmer'
_symmetry_space_group_name_H-M	'P1'
_symmetry_Int_Tables_number	1
_symmetry_cell_setting	triclinic
loop_
_symmetry_equiv_pos_as_xyz
  x,y,z
_cell_length_a	14.908558
_cell_length_b	14.909351
_cell_length_c	17.077396
_cell_angle_alpha	86.727426
_cell_angle_beta	93.311752
_cell_angle_gamma	83.621657
loop_
_atom_site_label
_atom_site_type_symbol
_atom_site_fract_x
_atom_site_fract_y
_atom_site_fract_z
Zn1	Zn	1.404627	-0.440319	0.536373
Zn2	Zn	1.413260	-0.591676	0.413151
Zn3	Zn	1.253259	-0.431601	0.397097
Zn4	Zn	1.261957	-0.582875	0.536350
O5	O	1.333276	-0.511618	0.470743
O6	O	1.532440	-0.467729	0.526755
O7	O	1.392008	-0.570475	0.301175
O8	O	1.266085	-0.306105	0.408863
O9	O	1.538783	-0.578929	0.436225
O10	O	1.377294	-0.312511	0.511189
O11	O	1.274456	-0.452869	0.289380
O12	O	1.127745	-0.444336	0.408841
O13	O	1.280910	-0.563931	0.646200
O14	O	1.134135	-0.555477	0.511150
O15	O	1.385729	-0.459196	0.646217
O16	O	1.400442	-0.717160	0.436203
O17	O	1.289281	-0.710695	0.526717
C18	C	1.098096	-0.498006	0.458252
C19	C	0.997487	-0.492205	0.452928
C20	C	1.346767	-0.746769	0.483218
C21	C	1.352622	-0.847372	0.488585
C22	C	0.852324	-0.426078	0.392235
C23	C	0.946855	-0.431524	0.397234
C24	C	0.953580	-0.547441	0.503627
C25	C	0.859049	-0.541994	0.498629
C26	C	0.808424	-0.481312	0.442930
C27	C	0.713891	-0.475871	0.437927
C28	C	0.720618	-0.591782	0.544324
C29	C	0.815149	-0.597228	0.549323
C30	C	1.418713	-0.992426	0.549452
C31	C	1.413219	-0.897901	0.544413
C32	C	1.297517	-0.891375	0.437790
C33	C	1.303011	-0.985900	0.442829
C34	C	1.363611	-1.036423	0.498662
C35	C	1.369100	-1.130949	0.503704
C36	C	1.253403	-1.124422	0.397077
C37	C	1.247909	-1.029896	0.392039
C38	C	1.569374	-0.525283	0.483283
C39	C	1.669985	-0.531107	0.488627
C40	C	1.333327	-0.511554	0.675487
C41	C	1.333348	-0.511527	0.762736
C42	C	1.319756	-0.275550	0.458238
C43	C	1.313995	-0.174952	0.452909
C44	C	1.333273	-0.511619	0.266795
C45	C	1.333412	-0.511401	0.179542
C46	C	1.387929	-0.456987	0.803736
C47	C	1.387938	-0.456957	0.885716
C48	C	1.333371	-0.511474	0.926694
C49	C	1.278784	-0.566016	0.885688
C50	C	1.278770	-0.566040	0.803710
C51	C	1.278817	-0.565964	1.056557
C52	C	1.278832	-0.565941	1.138542
C53	C	1.387985	-0.456881	1.138563
C54	C	1.387972	-0.456905	1.056585
C55	C	1.333386	-0.511449	1.015585
H56	H	0.672673	-0.426459	0.392575
Br57	Br	1.462070	-0.382860	1.194205
Br58	Br	1.488008	-0.838194	0.613342
H59	H	0.994815	-0.596841	0.548978
H60	H	1.432386	-0.412547	0.919094
Br61	Br	1.204766	-0.639919	1.194154
Br62	Br	0.883863	-0.679584	0.624906
H63	H	0.684865	-0.636758	0.585603
H64	H	0.811104	-0.376670	0.346881
Br65	Br	1.462037	-0.382926	1.000972
Br66	Br	1.204732	-0.639985	1.000914
H67	H	1.418436	-1.172083	0.549173
H68	H	1.432367	-0.412596	0.770378
H69	H	0.982594	-0.386544	0.355956
H70	H	1.198572	-0.988750	0.346578
H71	H	1.234351	-0.610401	0.919059
H72	H	1.248185	-0.850227	0.392326
Br73	Br	1.178615	-1.184135	0.328145
Br74	Br	1.500943	-1.060997	0.625230
H75	H	1.234315	-0.610443	0.770328
