data_functionalizedCrystal
_audit_creation_method	'MofGen! by Chris Wilmer'
_symmetry_space_group_name_H-M	'P1'
_symmetry_Int_Tables_number	1
_symmetry_cell_setting	triclinic
loop_
_symmetry_equiv_pos_as_xyz
  x,y,z
_cell_length_a	16.992695
_cell_length_b	16.974885
_cell_length_c	9.730223
_cell_angle_alpha	93.648733
_cell_angle_beta	89.995280
_cell_angle_gamma	87.023153
loop_
_atom_site_label
_atom_site_type_symbol
_atom_site_fract_x
_atom_site_fract_y
_atom_site_fract_z
O1	O	0.099901	1.055447	0.002993
O2	O	0.112635	0.826048	-0.022502
O3	O	-0.007874	0.939828	-0.009846
O4	O	0.220410	0.941667	-0.009663
O5	O	-0.007877	0.939820	0.218733
O6	O	0.112632	0.826040	0.206077
O7	O	0.099898	1.055439	0.231572
Zn8	Zn	0.106264	0.940738	0.255116
Zn9	Zn	0.106269	0.940749	-0.046047
O10	O	0.220406	0.941659	0.218916
C11	C	0.112150	0.796555	0.088510
C12	C	0.110701	0.708688	0.078746
C13	C	0.102515	0.214090	0.010310
C14	C	0.103877	0.296651	0.019504
C15	C	0.104562	0.337919	0.148701
C16	C	0.103877	0.296622	0.268711
C17	C	0.102509	0.214063	0.259516
C18	C	0.108648	0.584832	0.189561
C19	C	0.110018	0.667396	0.198747
C20	C	0.110016	0.667420	-0.050461
C21	C	0.108653	0.584859	-0.059645
C22	C	0.107964	0.543570	0.060366
N23	N	0.105957	0.422309	0.158101
N24	N	0.106564	0.459182	0.050964
C25	C	-0.037085	0.937458	0.104180
C26	C	-0.124121	0.930398	0.103395
C27	C	-0.174437	0.998513	0.110967
C28	C	-0.256217	0.991875	0.110216
C29	C	-0.287678	0.917122	0.101904
C30	C	-0.237356	0.849002	0.094328
C31	C	-0.155578	0.855641	0.095069
C32	C	-0.531246	0.889607	0.098827
C33	C	-0.613030	0.882974	0.098091
C34	C	-0.631885	1.025848	0.113977
C35	C	-0.550105	1.032480	0.114725
C36	C	-0.499789	0.964360	0.107142
N37	N	-0.371270	0.910335	0.101141
N38	N	-0.416200	0.971147	0.107895
C39	C	0.249618	0.944029	0.104886
C40	C	0.336654	0.951089	0.105662
C41	C	0.100383	1.084932	0.120556
C42	C	0.101832	1.172799	0.130312
N43	N	0.106261	0.940737	0.460652
N44	N	0.106266	0.940756	-0.251582
C45	C	0.052922	0.991138	0.538185
C46	C	0.052922	0.991146	0.682068
C47	C	0.159607	0.890349	0.670875
C48	C	0.159603	0.890338	0.526993
H49	H	0.104430	0.330229	0.373906
H50	H	-0.672859	1.081307	0.120148
H51	H	0.108095	0.551265	-0.164850
H52	H	0.101962	0.180444	0.357235
H53	H	-0.638642	0.822098	0.091344
H54	H	-0.297181	1.047341	0.116385
H55	H	0.009488	1.032186	0.745192
H56	H	-0.490288	0.834139	0.092652
H57	H	0.203038	0.849316	0.724905
H58	H	0.203038	0.849291	0.463862
H59	H	-0.148828	1.059385	0.117744
H60	H	-0.524495	1.093352	0.121494
H61	H	0.110577	0.701047	-0.148167
H62	H	-0.262979	0.788136	0.087551
H63	H	-0.114611	0.800174	0.088903
H64	H	0.110581	0.700994	0.303960
H65	H	0.009487	1.032175	0.484173
H66	H	0.101963	0.180496	-0.094896
H67	H	0.108075	0.551225	0.287283
H68	H	0.104428	0.330267	-0.078214
