data_functionalizedCrystal
_audit_creation_method	'MofGen! by Chris Wilmer'
_symmetry_space_group_name_H-M	'P1'
_symmetry_Int_Tables_number	1
_symmetry_cell_setting	triclinic
loop_
_symmetry_equiv_pos_as_xyz
  x,y,z
_cell_length_a	25.639239
_cell_length_b	12.759395
_cell_length_c	12.759387
_cell_angle_alpha	89.980569
_cell_angle_beta	89.963582
_cell_angle_gamma	90.038532
loop_
_atom_site_label
_atom_site_type_symbol
_atom_site_fract_x
_atom_site_fract_y
_atom_site_fract_z
Zn1	Zn	-0.208125	1.606094	-0.593934
Zn2	Zn	-0.295571	1.605911	-0.418237
Zn3	Zn	-0.208151	1.430392	-0.418274
Zn4	Zn	-0.295531	1.430311	-0.593879
O5	O	-0.251845	1.518177	-0.506081
O6	O	-0.219731	1.753090	-0.570635
O7	O	-0.284002	1.582585	-0.271221
O8	O	-0.134983	1.453809	-0.441614
O9	O	-0.283977	1.752956	-0.441551
O10	O	-0.134964	1.582897	-0.570670
O11	O	-0.219775	1.453632	-0.271248
O12	O	-0.219737	1.283360	-0.441561
O13	O	-0.283909	1.453671	-0.740908
O14	O	-0.283934	1.283300	-0.570578
O15	O	-0.219693	1.582818	-0.740948
O16	O	-0.368731	1.582506	-0.441498
O17	O	-0.368702	1.453494	-0.570542
C18	C	-0.251834	1.245209	-0.506068
C19	C	-0.251843	1.128432	-0.506087
C20	C	-0.185051	1.128553	-0.640719
C21	C	-0.151662	1.073753	-0.708044
C22	C	-0.151671	0.964031	-0.708057
C23	C	-0.185072	0.909107	-0.640736
C24	C	-0.218462	0.963908	-0.573412
C25	C	-0.218450	1.073632	-0.573408
C26	C	-0.285249	0.963787	-0.438776
C27	C	-0.285244	1.073509	-0.438767
C28	C	-0.318651	0.908864	-0.371455
C29	C	-0.352043	0.963664	-0.304134
C30	C	-0.352033	1.073392	-0.304125
C31	C	-0.318633	1.128309	-0.371442
C32	C	-0.387687	1.518000	-0.506033
C33	C	-0.445801	1.518020	-0.506047
C34	C	-0.806167	1.585529	-0.439002
C35	C	-0.860771	1.585570	-0.439017
O36	O	-0.889010	1.642784	-0.381960
N37	N	-0.888084	1.518361	-0.506151
C38	C	-0.860789	1.451115	-0.573283
O39	O	-0.889035	1.393954	-0.630387
C40	C	-0.806186	1.451081	-0.573273
C41	C	-0.778876	1.518286	-0.506127
C42	C	-0.778857	1.652729	-0.371863
C43	C	-0.724257	1.652687	-0.371848
C44	C	-0.696966	1.585444	-0.438972
C45	C	-0.724276	1.518244	-0.506112
C46	C	-0.778892	1.383841	-0.640410
C47	C	-0.724285	1.383813	-0.640395
C48	C	-0.696976	1.451018	-0.573249
C49	C	-0.642384	1.450958	-0.573221
N50	N	-0.615072	1.518167	-0.506087
C51	C	-0.642363	1.585409	-0.438963
C52	C	-0.975460	1.451195	-0.573299
C53	C	-1.030062	1.451223	-0.573304
C54	C	-1.030041	1.585679	-0.439039
C55	C	-0.975437	1.585644	-0.439029
C56	C	-0.948147	1.518403	-0.506165
C57	C	-0.527698	1.585315	-0.438935
C58	C	-0.473092	1.585263	-0.438923
C59	C	-0.473119	1.450812	-0.573191
C60	C	-0.527719	1.450859	-0.573200
C61	C	-0.555007	1.518119	-0.506069
O62	O	-0.614111	1.393776	-0.630252
O63	O	-0.614111	1.642571	-0.381877
C64	C	-0.115472	1.518383	-0.506152
C65	C	-0.057358	1.518470	-0.506183
C66	C	-0.251794	1.518256	-0.780115
C67	C	-0.251772	1.518290	-0.896891
C68	C	-0.251856	1.792210	-0.506095
C69	C	-0.251860	1.908987	-0.506100
C70	C	-0.184907	1.652780	-0.896953
C71	C	-0.151467	1.720039	-0.951844
C72	C	-0.151448	1.720065	-1.061566
C73	C	-0.184872	1.652821	-1.116399
C74	C	-0.218312	1.585562	-1.061507
C75	C	-0.218328	1.585546	-0.951783
C76	C	-0.285173	1.451068	-1.061446
C77	C	-0.285195	1.451046	-0.951724
C78	C	-0.318596	1.383825	-1.116279
C79	C	-0.352040	1.316569	-1.061387
C80	C	-0.352058	1.316547	-0.951659
C81	C	-0.318635	1.383787	-0.896833
C82	C	-0.251858	1.518158	-0.233114
C83	C	-0.251733	1.518328	-0.116337
H84	H	-0.124480	0.919412	-0.762872
N85	N	-0.388081	1.244054	-1.120541
H86	H	-0.425445	1.260301	-1.101441
H87	H	-0.379914	1.169025	-1.101420
H88	H	-0.953205	1.640369	-0.384354
N89	N	-0.318665	0.790522	-0.371475
H90	H	-0.344890	0.764046	-0.318615
H91	H	-0.282771	0.764196	-0.352339
N92	N	-1.059517	1.378735	-0.645718
H93	H	-1.082213	1.330085	-0.602988
H94	H	-1.033907	1.336203	-0.688223
H95	H	-0.450858	1.639990	-0.384241
H96	H	-0.379221	1.118004	-0.249297
H97	H	-0.801118	1.329110	-0.695082
H98	H	-0.801072	1.707492	-0.317201
H99	H	-0.124253	1.774786	-0.907187
N100	N	-0.694849	1.311279	-0.712795
H101	H	-0.672153	1.353930	-0.761515
H102	H	-0.720469	1.268726	-0.755258
H103	H	-0.549956	1.396138	-0.627879
N104	N	-0.557119	1.657851	-0.366515
H105	H	-0.579812	1.615195	-0.317794
H106	H	-0.579704	1.706533	-0.409315
N107	N	-0.185074	0.790766	-0.640728
H108	H	-0.158851	0.764384	-0.693586
H109	H	-0.220971	0.764378	-0.659871
H110	H	-0.184849	1.652839	-1.205740
H111	H	-0.379234	0.918937	-0.249323
N112	N	-0.115377	1.792597	-1.120778
H113	H	-0.094205	1.835189	-1.069398
H114	H	-0.136656	1.841190	-1.166298
H115	H	-0.318576	1.383846	-1.205620
H116	H	-0.318619	1.217650	-0.371436
N117	N	-0.694805	1.725188	-0.299441
H118	H	-0.720386	1.767793	-0.256932
H119	H	-0.672114	1.773770	-0.342256
H120	H	-0.379283	1.261764	-0.906972
N121	N	-0.443678	1.378281	-0.645581
H122	H	-0.404944	1.388461	-0.635379
H123	H	-0.453183	1.394603	-0.720633
H124	H	-1.052271	1.640435	-0.384386
N125	N	-0.946027	1.378657	-0.645705
H126	H	-0.971619	1.336089	-0.688229
H127	H	-0.923413	1.330042	-0.602892
H128	H	-0.184924	1.652776	-0.807612
H129	H	-0.318649	1.383780	-0.807491
H130	H	-0.185038	1.217894	-0.640711
H131	H	-0.124467	1.118483	-0.762853
