data_functionalizedCrystal
_audit_creation_method	'MofGen! by Chris Wilmer'
_symmetry_space_group_name_H-M	'P1'
_symmetry_Int_Tables_number	1
_symmetry_cell_setting	triclinic
loop_
_symmetry_equiv_pos_as_xyz
  x,y,z
_cell_length_a	16.109301
_cell_length_b	12.837942
_cell_length_c	15.186229
_cell_angle_alpha	89.996774
_cell_angle_beta	89.999362
_cell_angle_gamma	89.145211
loop_
_atom_site_label
_atom_site_type_symbol
_atom_site_fract_x
_atom_site_fract_y
_atom_site_fract_z
O1	O	1.113716	0.133240	-0.073172
O2	O	0.872971	0.149822	-0.073186
O3	O	0.988005	-0.009370	-0.073174
O4	O	0.998681	0.292432	-0.073184
O5	O	0.987996	-0.009372	0.073283
O6	O	0.872962	0.149820	0.073271
O7	O	1.113707	0.133238	0.073285
Zn8	Zn	0.993333	0.141528	0.096532
Zn9	Zn	0.993345	0.141531	-0.096432
O10	O	0.998673	0.292430	0.073273
C11	C	0.841938	0.149149	0.000041
C12	C	0.749483	0.147135	0.000036
C13	C	0.534343	0.236914	0.000043
C14	C	0.447471	0.235014	0.000049
C15	C	0.452341	0.046138	0.000051
C16	C	0.539211	0.048040	0.000052
C17	C	0.580209	0.143431	0.000043
C18	C	0.406468	0.139629	0.000048
C19	C	0.312278	0.137568	0.000055
C20	C	0.674405	0.145492	0.000039
C21	C	0.984394	-0.047991	0.000054
C22	C	0.973637	-0.163064	0.000052
C23	C	1.102954	-0.404066	0.000041
C24	C	1.092851	-0.512188	0.000039
C25	C	0.943328	-0.487433	0.000040
C26	C	0.953431	-0.379311	0.000042
C27	C	1.033247	-0.337632	0.000044
C28	C	1.043349	-0.229507	0.000052
C29	C	0.893827	-0.204754	0.000046
C30	C	0.883724	-0.312876	0.000044
C31	C	1.144739	0.133911	0.000056
C32	C	1.237195	0.135924	0.000056
C33	C	1.002284	0.331050	0.000043
C34	C	1.013041	0.446124	0.000040
N35	N	0.993331	0.141526	0.228224
N36	N	0.993352	0.141526	-0.228125
C37	C	1.044289	0.071059	0.453952
C38	C	1.044292	0.071057	0.546142
C39	C	0.942388	0.211996	0.546141
C40	C	0.942382	0.211992	0.453953
C41	C	0.993337	0.141525	0.407861
C42	C	0.993346	0.141526	0.592239
C43	C	0.993348	0.141524	0.692195
C44	C	0.993334	0.141526	0.307898
H45	H	0.576557	-0.028091	0.000055
C46	C	0.861459	-0.642193	0.000034
C47	C	0.855601	-0.533261	0.000038
H48	H	0.807299	-0.670482	0.000039
H49	H	0.890517	-0.664980	-0.051038
H50	H	0.890525	-0.664992	0.051108
H51	H	0.826540	-0.510461	-0.051040
H52	H	0.826531	-0.510465	0.051115
C53	C	0.831010	0.234450	0.350285
C54	C	0.886374	0.289457	0.403281
H55	H	0.796432	0.282272	0.319007
H56	H	0.861353	0.192488	0.309648
H57	H	0.797689	0.191299	0.386265
H58	H	0.919699	0.332603	0.367300
H59	H	0.856028	0.331437	0.443923
C60	C	1.190129	-0.264840	0.000034
C61	C	1.131080	-0.183690	0.000045
H62	H	1.244291	-0.236554	0.000021
H63	H	1.183084	-0.306498	0.051105
H64	H	1.183066	-0.306494	-0.051041
H65	H	1.138140	-0.142040	0.051125
H66	H	1.138128	-0.142015	-0.051030
C67	C	0.321337	-0.040642	0.000043
C68	C	0.407272	-0.058712	0.000049
H69	H	0.293517	-0.105375	0.000034
H70	H	0.306103	-0.002164	0.051113
H71	H	0.306112	-0.002145	-0.051034
H72	H	0.422499	-0.097202	0.051129
H73	H	0.422513	-0.097206	-0.051026
C74	C	0.520801	0.423417	0.000052
C75	C	0.579409	0.341766	0.000045
H76	H	0.548623	0.488149	0.000061
H77	H	0.487023	0.418753	-0.051019
H78	H	0.487017	0.418731	0.051127
H79	H	0.613189	0.346447	-0.051034
H80	H	0.613201	0.346432	0.051121
C81	C	1.241660	-0.525792	0.000045
C82	C	1.169475	-0.585215	0.000041
H83	H	1.288966	-0.570878	0.000051
H84	H	1.242492	-0.483105	-0.051024
H85	H	1.242484	-0.483106	0.051122
H86	H	1.168648	-0.627895	-0.051039
H87	H	1.168643	-0.627920	0.051116
C88	C	0.897157	0.274590	0.687458
C89	C	0.886389	0.289460	0.596808
H90	H	0.862590	0.322421	0.718735
H91	H	0.882646	0.205414	0.702570
H92	H	0.953540	0.285867	0.702549
H93	H	0.830007	0.278176	0.581716
H94	H	0.900896	0.358652	0.581690
C95	C	1.155613	0.048529	0.350225
C96	C	1.100251	-0.006429	0.403265
H97	H	1.190151	0.000679	0.318932
H98	H	1.125268	0.090511	0.309600
H99	H	1.188975	0.091658	0.386175
H100	H	1.066885	-0.049552	0.367313
H101	H	1.130599	-0.048429	0.443894
C102	C	0.346954	0.342446	-0.075243
C103	C	0.397053	0.337773	0.000043
H104	H	0.315825	0.405886	-0.075241
H105	H	0.380944	0.339264	-0.126306
H106	H	0.310105	0.285362	-0.075228
H107	H	0.433907	0.394853	0.000025
H108	H	0.363060	0.340965	0.051120
H109	H	1.167943	-0.370130	0.000051
H110	H	0.837067	-0.150651	0.000055
C111	C	0.753170	-0.325066	-0.075246
C112	C	0.795996	-0.358700	0.000040
H113	H	0.699011	-0.353361	-0.075248
H114	H	0.749209	-0.251173	-0.075235
H115	H	0.782240	-0.347869	-0.126315
H116	H	0.766928	-0.335890	0.051109
H117	H	0.799952	-0.432609	0.000037
C118	C	1.145026	-0.068243	0.536878
C119	C	1.100304	-0.006397	0.596806
H120	H	1.179609	-0.116058	0.568157
H121	H	1.107465	-0.105543	0.500928
H122	H	1.178344	-0.025069	0.500915
H123	H	1.066981	-0.049571	0.632765
H124	H	1.137869	0.030905	0.632771
