data_functionalizedCrystal
_audit_creation_method	'MofGen! by Chris Wilmer'
_symmetry_space_group_name_H-M	'P1'
_symmetry_Int_Tables_number	1
_symmetry_cell_setting	triclinic
loop_
_symmetry_equiv_pos_as_xyz
  x,y,z
_cell_length_a	23.532350
_cell_length_b	27.732066
_cell_length_c	22.610064
_cell_angle_alpha	89.992187
_cell_angle_beta	90.002600
_cell_angle_gamma	82.737671
loop_
_atom_site_label
_atom_site_type_symbol
_atom_site_fract_x
_atom_site_fract_y
_atom_site_fract_z
O1	O	-0.755164	-0.058539	-0.049103
O2	O	-0.421831	0.274794	0.284230
O3	O	-0.088498	0.608127	0.617564
O4	O	-0.589279	-0.067059	-0.049120
O5	O	-0.255945	0.266275	0.284213
O6	O	0.077388	0.599608	0.617546
O7	O	-0.677368	0.007590	-0.049113
O8	O	-0.344035	0.340923	0.284220
O9	O	-0.010701	0.674257	0.617554
O10	O	-0.667075	-0.133188	-0.049110
O11	O	-0.333741	0.200145	0.284223
O12	O	-0.000408	0.533479	0.617556
O13	O	-0.677353	0.007579	0.049256
O14	O	-0.344019	0.340912	0.382590
O15	O	-0.010686	0.674246	0.715923
O16	O	-0.589263	-0.067070	0.049249
O17	O	-0.255930	0.266264	0.382582
O18	O	0.077404	0.599597	0.715916
O19	O	-0.755149	-0.058550	0.049266
O20	O	-0.421815	0.274783	0.382600
O21	O	-0.088482	0.608116	0.715933
Zn22	Zn	-0.672203	-0.062812	0.064876
Zn23	Zn	-0.338870	0.270522	0.398209
Zn24	Zn	-0.005537	0.603855	0.731543
Zn25	Zn	-0.672224	-0.062797	-0.064730
Zn26	Zn	-0.338891	0.270536	0.268604
Zn27	Zn	-0.005557	0.603869	0.601937
O28	O	-0.667059	-0.133199	0.049259
O29	O	-0.333726	0.200134	0.382592
O30	O	-0.000393	0.533468	0.715926
C31	C	-0.568055	-0.066852	0.000062
C32	C	-0.234721	0.266482	0.333395
C33	C	0.098612	0.599815	0.666729
C34	C	-0.504837	-0.066213	0.000055
C35	C	-0.171504	0.267121	0.333389
C36	C	0.161829	0.600454	0.666722
C37	C	-0.112822	-0.062204	0.053703
C38	C	0.220511	0.271130	0.387036
C39	C	0.553845	0.604463	0.720369
C40	C	-0.053424	-0.061596	0.053705
C41	C	0.279910	0.271738	0.387039
C42	C	0.613243	0.605071	0.720372
O43	O	-0.022699	-0.061270	0.099307
O44	O	0.310635	0.272063	0.432641
O45	O	0.643968	0.605397	0.765974
N46	N	-0.023724	-0.061288	0.000084
N47	N	0.309609	0.272045	0.333418
N48	N	0.642942	0.605378	0.666751
C49	C	-0.053427	-0.061584	-0.053542
C50	C	0.279906	0.271749	0.279791
C51	C	0.613240	0.605083	0.613124
O52	O	-0.022711	-0.061266	-0.099151
O53	O	0.310622	0.272067	0.234183
O54	O	0.643955	0.605400	0.567516
C55	C	-0.112825	-0.062188	-0.053544
C56	C	0.220508	0.271145	0.279789
C57	C	0.553842	0.604478	0.613122
C58	C	-0.142520	-0.062501	0.000080
C59	C	0.190813	0.270833	0.333413
C60	C	0.524146	0.604166	0.666747
C61	C	-0.142518	-0.062515	0.107323
C62	C	0.190816	0.270818	0.440656
C63	C	0.524149	0.604151	0.773989
C64	C	-0.201912	-0.063124	0.107320
C65	C	0.131421	0.270209	0.440653
C66	C	0.464755	0.603542	0.773986
C67	C	-0.231610	-0.063421	0.053697
C68	C	0.101723	0.269912	0.387030
C69	C	0.435056	0.603245	0.720364
C70	C	-0.201915	-0.063110	0.000077
C71	C	0.131419	0.270224	0.333411
C72	C	0.464752	0.603557	0.666744
C73	C	-0.142527	-0.062481	-0.107170
C74	C	0.190806	0.270853	0.226163
C75	C	0.524140	0.604186	0.559496
C76	C	-0.201929	-0.063085	-0.107168
C77	C	0.131404	0.270249	0.226166
C78	C	0.464738	0.603582	0.559499
C79	C	-0.231625	-0.063397	-0.053543
C80	C	0.101709	0.269936	0.279790
C81	C	0.435042	0.603270	0.613123
C82	C	-0.291007	-0.064015	-0.053548
C83	C	0.042326	0.269318	0.279785
C84	C	0.375660	0.602651	0.613119
N85	N	-0.320706	-0.064323	0.000073
N86	N	0.012627	0.269011	0.333406
N87	N	0.345960	0.602344	0.666739
C88	C	-0.291008	-0.064026	0.053695
C89	C	0.042325	0.269308	0.387029
C90	C	0.375659	0.602641	0.720362
C91	C	0.071312	-0.060314	-0.053534
C92	C	0.404646	0.273020	0.279799
C93	C	0.737979	0.606353	0.613132
C94	C	0.130709	-0.059713	-0.053533
C95	C	0.464043	0.273621	0.279800
C96	C	0.797376	0.606954	0.613134
C97	C	0.130709	-0.059724	0.053715
C98	C	0.464042	0.273610	0.387048
C99	C	0.797375	0.606943	0.720381
C100	C	0.071311	-0.060328	0.053713
C101	C	0.404644	0.273005	0.387046
C102	C	0.737977	0.606339	0.720380
C103	C	0.041613	-0.060621	0.000087
C104	C	0.374946	0.272712	0.333420
C105	C	0.708279	0.606046	0.666753
C106	C	-0.415740	-0.065305	0.053685
C107	C	-0.082407	0.268029	0.387019
C108	C	0.250927	0.601362	0.720352
C109	C	-0.475139	-0.065916	0.053678
C110	C	-0.141806	0.267418	0.387011
C111	C	0.191528	0.600751	0.720344
C112	C	-0.475133	-0.065902	-0.053570
C113	C	-0.141800	0.267431	0.279764
C114	C	0.191534	0.600765	0.613097
C115	C	-0.415739	-0.065294	-0.053562
C116	C	-0.082406	0.268039	0.279771
C117	C	0.250928	0.601373	0.613104
C118	C	-0.386044	-0.064994	0.000070
C119	C	-0.052711	0.268340	0.333403
C120	C	0.280623	0.601673	0.666737
O121	O	-0.321770	-0.064340	-0.099127
O122	O	0.011563	0.268994	0.234206
O123	O	0.344896	0.602327	0.567540
O124	O	-0.321732	-0.064337	0.099296
O125	O	0.011601	0.268996	0.432629
O126	O	0.344935	0.602330	0.765963
C127	C	-0.677143	0.025592	0.000070
C128	C	-0.343809	0.358925	0.333403
C129	C	-0.010476	0.692258	0.666737
C130	C	-0.676487	0.079247	0.000065
C131	C	-0.343154	0.412580	0.333398
C132	C	-0.009821	0.745914	0.666731
C133	C	-0.619968	0.456396	0.000059
C134	C	-0.286635	0.789730	0.333392
C135	C	0.046698	1.123063	0.666726
C136	C	-0.622381	0.254733	0.000057
C137	C	-0.289047	0.588066	0.333391
C138	C	0.044286	0.921400	0.666724
O139	O	-0.578526	0.223540	0.000029
O140	O	-0.245193	0.556874	0.333362
O141	O	0.088140	0.890207	0.666696
N142	N	-0.674617	0.235534	0.000063
N143	N	-0.341283	0.568868	0.333396
N144	N	-0.007950	0.902201	0.666729
C145	C	-0.726253	0.266755	0.000064
C146	C	-0.392920	0.600088	0.333398
C147	C	-0.059586	0.933422	0.666731
O148	O	-0.770738	0.245798	0.000063
O149	O	-0.437405	0.579131	0.333396
O150	O	-0.104072	0.912465	0.666729
C151	C	-0.723840	0.468417	0.000062
C152	C	-0.390507	0.801751	0.333395
C153	C	-0.057174	1.135084	0.666729
C154	C	-0.671601	0.487613	0.000063
C155	C	-0.338268	0.820946	0.333396
C156	C	-0.004934	1.154280	0.666729
C157	C	-0.567733	0.475593	0.000059
C158	C	-0.234400	0.808926	0.333393
C159	C	0.098933	1.142259	0.666726
C160	C	-0.567131	0.526006	0.000063
C161	C	-0.233798	0.859339	0.333396
C162	C	0.099536	1.192672	0.666730
C163	C	-0.618763	0.557222	0.000067
C164	C	-0.285430	0.890556	0.333400
C165	C	0.047903	1.223889	0.666733
C166	C	-0.670998	0.538026	0.000066
C167	C	-0.337665	0.871359	0.333400
C168	C	-0.004332	1.204693	0.666733
C169	C	-0.775476	0.499637	0.000060
C170	C	-0.442143	0.832970	0.333393
C171	C	-0.108809	1.166304	0.666726
C172	C	-0.774868	0.550055	0.000058
C173	C	-0.441535	0.883389	0.333391
C174	C	-0.108201	1.216722	0.666724
C175	C	-0.722629	0.569251	0.000058
C176	C	-0.389296	0.902584	0.333392
C177	C	-0.055962	1.235918	0.666725
C178	C	-0.722028	0.619656	0.000074
C179	C	-0.388695	0.952989	0.333407
C180	C	-0.055362	1.286322	0.666740
N181	N	-0.669793	0.638854	0.000069
N182	N	-0.336459	0.972188	0.333402
N183	N	-0.003126	1.305521	0.666735
C184	C	-0.618160	0.607638	0.000065
C185	C	-0.284827	0.940971	0.333398
C186	C	0.048507	1.274304	0.666732
C187	C	-0.727516	0.160879	0.000067
C188	C	-0.394183	0.494212	0.333400
C189	C	-0.060850	0.827546	0.666733
C190	C	-0.728120	0.110464	0.000068
C191	C	-0.394786	0.443797	0.333402
C192	C	-0.061453	0.777130	0.666735
C193	C	-0.624247	0.098445	0.000060
C194	C	-0.290914	0.431778	0.333394
C195	C	0.042420	0.765112	0.666727
C196	C	-0.623644	0.148861	0.000063
C197	C	-0.290311	0.482195	0.333396
C198	C	0.043022	0.815528	0.666729
C199	C	-0.675280	0.180078	0.000061
C200	C	-0.341947	0.513411	0.333395
C201	C	-0.008614	0.846744	0.666728
C202	C	-0.616899	0.713509	0.000073
C203	C	-0.283565	1.046842	0.333406
C204	C	0.049768	1.380175	0.666740
C205	C	-0.616301	0.763927	0.000079
C206	C	-0.282967	1.097260	0.333413
C207	C	0.050366	1.430593	0.666746
C208	C	-0.720173	0.775941	0.000084
C209	C	-0.386840	1.109274	0.333418
C210	C	-0.053506	1.442607	0.666751
C211	C	-0.720771	0.725527	0.000081
C212	C	-0.387438	1.058861	0.333415
C213	C	-0.054105	1.392194	0.666748
C214	C	-0.669129	0.694312	0.000074
C215	C	-0.335796	1.027645	0.333407
C216	C	-0.002463	1.360979	0.666740
O217	O	-0.765859	0.650877	0.000096
O218	O	-0.432526	0.984210	0.333429
O219	O	-0.099193	1.317543	0.666762
O220	O	-0.573681	0.628604	0.000053
O221	O	-0.240348	0.961937	0.333387
O222	O	0.092985	1.295271	0.666720
C223	C	-0.620571	0.405984	0.000055
C224	C	-0.287238	0.739317	0.333389
C225	C	0.046096	1.072650	0.666722
C226	C	-0.672806	0.386787	0.000055
C227	C	-0.339473	0.720121	0.333389
C228	C	-0.006139	1.053454	0.666722
C229	C	-0.724438	0.418004	0.000059
C230	C	-0.391105	0.751337	0.333392
C231	C	-0.057772	1.084671	0.666726
C232	C	-0.673409	0.336372	0.000057
C233	C	-0.340076	0.669705	0.333390
C234	C	-0.006743	1.003039	0.666724
C235	C	-0.621777	0.305155	0.000053
C236	C	-0.288444	0.638489	0.333387
C237	C	0.044890	0.971822	0.666720
C238	C	-0.569541	0.324354	0.000048
C239	C	-0.236208	0.657687	0.333381
C240	C	0.097126	0.991021	0.666715
C241	C	-0.568939	0.374767	0.000052
C242	C	-0.235605	0.708100	0.333385
C243	C	0.097728	1.041434	0.666718
C244	C	-0.776674	0.398805	0.000064
C245	C	-0.443341	0.732139	0.333398
C246	C	-0.110008	1.065472	0.666731
C247	C	-0.777273	0.348392	0.000061
C248	C	-0.443939	0.681725	0.333395
C249	C	-0.110606	1.015059	0.666728
C250	C	-0.725640	0.317175	0.000058
C251	C	-0.392307	0.650509	0.333391
C252	C	-0.058973	0.983842	0.666724
C253	C	0.223628	-0.058762	0.000084
C254	C	0.556961	0.274572	0.333417
C255	C	0.890295	0.607905	0.666751
C256	C	0.160413	-0.059413	0.000090
C257	C	0.493746	0.273920	0.333423
C258	C	0.827079	0.607254	0.666757
C259	C	-0.667283	0.848799	0.000076
C260	C	-0.333950	1.182133	0.333410
C261	C	-0.000616	1.515466	0.666743
C262	C	-0.667933	0.795143	0.000083
C263	C	-0.334600	1.128477	0.333416
C264	C	-0.001266	1.461810	0.666750
N265	N	-0.672194	-0.062821	0.153328
N266	N	-0.338860	0.270512	0.486662
N267	N	-0.005527	0.603846	0.819995
N268	N	-0.672238	-0.062784	-0.153182
N269	N	-0.338905	0.270549	0.180151
N270	N	-0.005572	0.603883	0.513484
C271	C	-0.711232	-0.029748	0.561973
C272	C	-0.377898	0.303585	0.895306
C273	C	-0.044565	0.636919	1.228640
C274	C	-0.711235	-0.029744	0.623893
C275	C	-0.377901	0.303589	0.957226
C276	C	-0.044568	0.636922	1.290560
O277	O	-0.744402	-0.001632	0.655914
O278	O	-0.411068	0.331702	0.989248
O279	O	-0.077735	0.665035	1.322581
N280	N	-0.672224	-0.062787	0.654865
N281	N	-0.338890	0.270546	0.988199
N282	N	-0.005557	0.603879	1.321532
C283	C	-0.633203	-0.095833	0.623915
C284	C	-0.299870	0.237501	0.957248
C285	C	0.033463	0.570834	1.290582
O286	O	-0.600021	-0.123938	0.655945
O287	O	-0.266688	0.209396	0.989279
O288	O	0.066645	0.542729	1.322612
C289	C	-0.633198	-0.095833	0.561996
C290	C	-0.299865	0.237500	0.895329
C291	C	0.033469	0.570833	1.228663
C292	C	-0.672215	-0.062792	0.531027
C293	C	-0.338882	0.270542	0.864360
C294	C	-0.005549	0.603875	1.197693
C295	C	-0.750245	0.003292	0.531004
C296	C	-0.416912	0.336625	0.864337
C297	C	-0.083579	0.669958	1.197670
C298	C	-0.750243	0.003287	0.469088
C299	C	-0.416910	0.336621	0.802421
C300	C	-0.083576	0.669954	1.135755
C301	C	-0.711227	-0.029756	0.438142
C302	C	-0.377894	0.303577	0.771475
C303	C	-0.044560	0.636910	1.104808
C304	C	-0.672213	-0.062796	0.469111
C305	C	-0.338880	0.270537	0.802444
C306	C	-0.005546	0.603871	1.135778
C307	C	-0.594175	-0.128876	0.531047
C308	C	-0.260842	0.204457	0.864380
C309	C	0.072491	0.537791	1.197713
C310	C	-0.594173	-0.128874	0.469124
C311	C	-0.260840	0.204460	0.802457
C312	C	0.072493	0.537793	1.135790
C313	C	-0.633191	-0.095832	0.438154
C314	C	-0.299857	0.237501	0.771488
C315	C	0.033476	0.570835	1.104821
C316	C	-0.633194	-0.095844	0.376249
C317	C	-0.299861	0.237490	0.709583
C318	C	0.033472	0.570823	1.042916
N319	N	-0.672206	-0.062801	0.345277
N320	N	-0.338872	0.270532	0.678610
N321	N	-0.005539	0.603866	1.011943
C322	C	-0.711222	-0.029757	0.376223
C323	C	-0.377888	0.303576	0.709556
C324	C	-0.044555	0.636909	1.042890
C325	C	-0.633216	-0.095828	0.753949
C326	C	-0.299883	0.237506	1.087282
C327	C	0.033450	0.570839	1.420615
C328	C	-0.633224	-0.095830	0.815866
C329	C	-0.299890	0.237504	1.149199
C330	C	0.033443	0.570837	1.482533
C331	C	-0.711255	-0.029741	0.815840
C332	C	-0.377921	0.303593	1.149173
C333	C	-0.044588	0.636926	1.482507
C334	C	-0.711249	-0.029741	0.753921
C335	C	-0.377916	0.303592	1.087254
C336	C	-0.044583	0.636925	1.420588
C337	C	-0.672227	-0.062785	0.722976
C338	C	-0.338894	0.270548	1.056309
C339	C	-0.005561	0.603882	1.389643
C340	C	-0.711214	-0.029769	0.246196
C341	C	-0.377881	0.303564	0.579529
C342	C	-0.044547	0.636898	0.912862
C343	C	-0.711210	-0.029777	0.184275
C344	C	-0.377876	0.303556	0.517608
C345	C	-0.044543	0.636889	0.850941
C346	C	-0.633177	-0.095864	0.184306
C347	C	-0.299844	0.237469	0.517640
C348	C	0.033489	0.570802	0.850973
C349	C	-0.633183	-0.095858	0.246222
C350	C	-0.299850	0.237475	0.579555
C351	C	0.033483	0.570809	0.912889
C352	C	-0.672204	-0.062806	0.277165
C353	C	-0.338871	0.270527	0.610498
C354	C	-0.005537	0.603861	0.943832
O355	O	-0.600043	-0.123941	0.344188
O356	O	-0.266709	0.209392	0.677522
O357	O	0.066624	0.542726	1.010855
O358	O	-0.744393	-0.001653	0.344185
O359	O	-0.411060	0.331681	0.677518
O360	O	-0.077726	0.665014	1.010852
H361	H	0.154884	-0.059466	-0.097199
H362	H	0.488217	0.273867	0.236134
H363	H	0.821551	0.607200	0.569468
Br364	Br	-0.242204	-0.063546	0.180100
Br365	Br	0.091129	0.269788	0.513433
Br366	Br	0.424462	0.603121	0.846766
H367	H	-0.743023	-0.002834	0.841048
H368	H	-0.409690	0.330499	1.174381
H369	H	-0.076356	0.663833	1.507714
H370	H	-0.499314	-0.066171	0.097347
H371	H	-0.165981	0.267162	0.430680
H372	H	0.167353	0.600495	0.764014
H373	H	-0.525686	0.450180	0.000054
H374	H	-0.192352	0.783514	0.333388
H375	H	0.140981	1.116847	0.666721
H376	H	-0.118344	-0.062272	0.150991
H377	H	0.214989	0.271061	0.484324
H378	H	0.548323	0.604394	0.817658
H379	H	-0.742984	-0.002871	0.159061
H380	H	-0.409651	0.330463	0.492394
H381	H	-0.076318	0.663796	0.825728
H382	H	-0.562395	-0.155781	0.443931
H383	H	-0.229062	0.177552	0.777264
H384	H	0.104272	0.510885	1.110598
H385	H	-0.743020	-0.002836	0.728709
H386	H	-0.409687	0.330498	1.062043
H387	H	-0.076354	0.663831	1.395376
H388	H	-0.391569	-0.065065	0.097358
H389	H	-0.058235	0.268269	0.430691
H390	H	0.275098	0.601602	0.764024
Br391	Br	0.171025	-0.059320	0.126489
Br392	Br	0.504358	0.274013	0.459823
Br393	Br	0.837691	0.607347	0.793156
H394	H	-0.391558	-0.065047	-0.097228
H395	H	-0.058225	0.268286	0.236106
H396	H	0.275108	0.601619	0.569439
H397	H	-0.742988	-0.002855	0.271383
H398	H	-0.409654	0.330479	0.604716
H399	H	-0.076321	0.663812	0.938049
Br400	Br	-0.580237	-0.140708	0.288250
Br401	Br	-0.246904	0.192625	0.621583
Br402	Br	0.086430	0.525959	0.954917
Br403	Br	-0.242230	-0.063480	-0.179951
Br404	Br	0.091103	0.269854	0.153383
Br405	Br	0.424436	0.603187	0.486716
H406	H	0.047137	-0.060583	0.097379
H407	H	0.380470	0.272750	0.430712
H408	H	0.713803	0.606084	0.764045
H409	H	0.047136	-0.060557	-0.097206
H410	H	0.380470	0.272776	0.236127
H411	H	0.713803	0.606110	0.569461
H412	H	-0.499324	-0.066146	-0.097228
H413	H	-0.165991	0.267187	0.236106
H414	H	0.167343	0.600521	0.569439
H415	H	-0.524592	0.541630	0.000058
H416	H	-0.191259	0.874963	0.333392
H417	H	0.142074	1.208296	0.666725
H418	H	-0.601458	-0.122740	0.841077
H419	H	-0.268125	0.210593	1.174410
H420	H	0.065208	0.543926	1.507744
Br421	Br	-0.545400	0.789974	0.000083
Br422	Br	-0.212067	1.123308	0.333417
Br423	Br	0.121267	1.456641	0.666750
H424	H	-0.818721	0.424218	0.000067
H425	H	-0.485387	0.757551	0.333400
H426	H	-0.152054	1.090884	0.666733
H427	H	-0.118359	-0.062226	-0.150837
H428	H	0.214974	0.271108	0.182496
H429	H	0.548307	0.604441	0.515830
H430	H	-0.601441	-0.122740	0.728756
H431	H	-0.268108	0.210594	1.062089
H432	H	0.065225	0.543927	1.395423
Br433	Br	-0.554175	0.056070	0.000057
Br434	Br	-0.220841	0.389403	0.333390
Br435	Br	0.112492	0.722737	0.666723
Br436	Br	-0.580230	-0.140709	0.142298
Br437	Br	-0.246897	0.192624	0.475631
Br438	Br	0.086437	0.525957	0.808965
H439	H	-0.574847	0.688099	0.000067
H440	H	-0.241514	1.021432	0.333400
H441	H	0.091820	1.354765	0.666733
Br442	Br	-0.541221	-0.173720	0.573064
Br443	Br	-0.207887	0.159613	0.906397
Br444	Br	0.125446	0.492946	1.239731
H445	H	-0.581107	0.164487	0.000066
H446	H	-0.247773	0.497820	0.333399
H447	H	0.085560	0.831153	0.666732
H448	H	-0.526400	0.390391	0.000053
H449	H	-0.193067	0.723724	0.333386
H450	H	0.140267	1.057058	0.666720
H451	H	-0.770658	0.094839	0.000077
H452	H	-0.437325	0.428173	0.333410
H453	H	-0.103991	0.761506	0.666744
Br454	Br	-0.844950	0.592418	0.000052
Br455	Br	-0.511617	0.925751	0.333385
Br456	Br	-0.178283	1.259085	0.666718
Br457	Br	-0.803194	0.048134	0.427065
Br458	Br	-0.469861	0.381467	0.760398
Br459	Br	-0.136527	0.714800	1.093732
H460	H	-0.769567	0.186292	0.000067
H461	H	-0.436234	0.519625	0.333400
H462	H	-0.102900	0.852958	0.666733
Br463	Br	-0.791668	0.699475	0.000106
Br464	Br	-0.458334	1.032808	0.333439
Br465	Br	-0.125001	1.366142	0.666772
Br466	Br	-0.846377	0.473599	0.000045
Br467	Br	-0.513043	0.806933	0.333378
Br468	Br	-0.179710	1.140266	0.666712
Br469	Br	-0.803202	0.048143	0.572991
Br470	Br	-0.469869	0.381477	0.906325
Br471	Br	-0.136535	0.714810	1.239658
H472	H	-0.527500	0.298928	0.000049
H473	H	-0.194167	0.632262	0.333382
H474	H	0.139167	0.965595	0.666716
H475	H	-0.762211	0.801366	0.000090
H476	H	-0.428877	1.134700	0.333424
H477	H	-0.095544	1.468033	0.666757
H478	H	-0.819815	0.332768	0.000065
H479	H	-0.486482	0.666102	0.333399
H480	H	-0.153149	0.999435	0.666732
