data_functionalizedCrystal
_audit_creation_method	'MofGen! by Chris Wilmer'
_symmetry_space_group_name_H-M	'P1'
_symmetry_Int_Tables_number	1
_symmetry_cell_setting	triclinic
loop_
_symmetry_equiv_pos_as_xyz
  x,y,z
_cell_length_a	14.044220
_cell_length_b	14.971486
_cell_length_c	13.448316
_cell_angle_alpha	90.006811
_cell_angle_beta	90.001643
_cell_angle_gamma	88.401503
loop_
_atom_site_label
_atom_site_type_symbol
_atom_site_fract_x
_atom_site_fract_y
_atom_site_fract_z
O1	O	-1.257954	-0.215664	-0.082587
O2	O	-0.981976	-0.207882	-0.082612
O3	O	-1.127362	-0.082155	-0.082592
O4	O	-1.112568	-0.341390	-0.082608
O5	O	-1.127344	-0.082146	0.082792
O6	O	-0.981958	-0.207872	0.082771
O7	O	-1.257936	-0.215654	0.082797
Cu8	Cu	-1.119945	-0.211762	0.097885
Cu9	Cu	-1.119967	-0.211774	-0.097701
O10	O	-1.112550	-0.341380	0.082776
C11	C	-1.126691	-0.048774	0.000100
C12	C	-1.124708	0.050680	0.000098
C13	C	-0.946648	-0.204470	0.000076
C14	C	-0.841411	-0.194309	0.000067
C15	C	-1.293263	-0.219065	0.000106
C16	C	-1.398500	-0.229227	0.000109
C17	C	-0.648729	-0.175732	0.000088
C18	C	-0.591177	-0.247799	0.000088
C19	C	-0.483962	-0.237463	0.000099
C20	C	-0.755954	-0.186067	0.000076
C21	C	-1.113220	-0.374762	0.000083
C22	C	-1.115203	-0.474215	0.000077
N23	N	-1.119937	-0.211754	0.235449
C24	C	-1.210119	0.101176	0.000107
C25	C	-1.208250	0.194623	0.000097
C26	C	-1.120970	0.237571	0.000085
C27	C	-1.035554	0.187067	0.000074
C28	C	-1.037423	0.093623	0.000077
C29	C	-1.031663	0.381836	0.000070
C30	C	-1.029793	0.475288	0.000069
C31	C	-1.202490	0.482837	0.000090
C32	C	-1.204360	0.389392	0.000093
C33	C	-1.118942	0.338895	0.000083
N34	N	-1.119982	-0.211775	-0.235265
C35	C	-1.184334	-0.156109	0.287499
C36	C	-1.184340	-0.156108	0.391602
C37	C	-1.119952	-0.211759	0.443654
C38	C	-1.055549	-0.267406	0.391597
C39	C	-1.055539	-0.267401	0.287496
C40	C	-1.055575	-0.267414	0.608577
C41	C	-1.055586	-0.267420	0.712686
C42	C	-1.184376	-0.156122	0.712683
C43	C	-1.184366	-0.156117	0.608582
C44	C	-1.119963	-0.211765	0.556532
H45	H	-0.617481	-0.106277	0.000097
H46	H	-1.281192	0.066215	0.000122
O47	O	-0.992981	-0.321556	0.558169
C48	C	-0.936139	-0.370663	0.626431
H49	H	-0.975010	-0.374796	0.700634
H50	H	-0.865689	-0.335964	0.637517
C51	C	-0.868967	-0.460519	0.494652
C52	C	-0.916712	-0.465601	0.585786
H53	H	-0.856979	-0.519080	0.469579
H54	H	-0.907259	-0.427432	0.448661
H55	H	-0.810264	-0.431599	0.503902
H56	H	-0.975419	-0.494510	0.576533
H57	H	-0.878429	-0.498695	0.631775
H58	H	-1.277800	0.235734	0.000106
O59	O	-0.628331	-0.330718	-0.000068
C60	C	-0.597431	-0.377434	-0.085743
H61	H	-0.528772	-0.347678	-0.114279
H62	H	-0.654622	-0.371551	-0.145728
C63	C	-0.663496	-0.513155	-0.024701
C64	C	-0.579164	-0.476612	-0.059745
H65	H	-0.652232	-0.574333	-0.008667
H66	H	-0.684318	-0.481681	0.033018
H67	H	-0.711147	-0.508243	-0.074695
H68	H	-0.531519	-0.481514	-0.009747
H69	H	-0.558334	-0.508089	-0.117456
H70	H	-1.275430	0.354427	0.000109
O71	O	-1.285378	0.532020	0.000044
C72	C	-1.265017	0.623706	0.000054
H73	H	-1.190557	0.633217	-0.031264
H74	H	-1.268573	0.650420	0.079394
C75	C	-1.430009	0.663243	-0.026338
C76	C	-1.338559	0.674926	-0.064812
H77	H	-1.475375	0.694839	-0.066347
H78	H	-1.443728	0.601472	-0.026342
H79	H	-1.432958	0.685504	0.039777
H80	H	-1.335608	0.652655	-0.130921
H81	H	-1.324841	0.736694	-0.064821
O82	O	-0.944989	0.516972	-0.000132
C83	C	-0.892929	0.491819	-0.085788
H84	H	-0.943979	0.468326	-0.145638
H85	H	-0.840158	0.435233	-0.066436
C86	C	-0.775683	0.601373	-0.051136
C87	C	-0.838385	0.572525	-0.124649
H88	H	-0.742034	0.651154	-0.075106
H89	H	-0.810755	0.618317	0.006574
H90	H	-0.731717	0.554211	-0.035017
H91	H	-0.882357	0.619683	-0.140758
H92	H	-0.803319	0.555590	-0.182363
H93	H	-0.962107	0.340724	0.000059
H94	H	-0.964489	0.222043	0.000058
H95	H	-1.236776	-0.110798	0.433980
O96	O	-0.954367	0.044702	0.000113
C97	C	-0.876930	0.102644	0.000076
H98	H	-0.900905	0.170365	0.031393
H99	H	-0.850196	0.111414	-0.079271
C100	C	-0.766623	-0.020566	0.026456
C101	C	-0.796067	0.062608	0.064927
H102	H	-0.716741	-0.045263	0.066455
H103	H	-0.818793	-0.059604	0.026477
H104	H	-0.744351	-0.013247	-0.039666
H105	H	-0.818350	0.055286	0.131043
H106	H	-0.743899	0.101644	0.064919
H107	H	-1.003154	-0.312736	0.755061
H108	H	-1.236769	-0.110796	0.245125
H109	H	-1.236799	-0.110807	0.566201
H110	H	-1.236814	-0.110810	0.755068
O111	O	-0.992951	-0.321541	0.237086
C112	C	-0.936107	-0.370645	0.305348
H113	H	-0.974979	-0.374784	0.379549
H114	H	-0.865661	-0.335941	0.316437
C115	C	-0.868923	-0.460491	0.173567
C116	C	-0.916670	-0.465581	0.264700
H117	H	-0.856929	-0.519051	0.148493
H118	H	-0.907216	-0.427407	0.127577
H119	H	-0.810223	-0.431567	0.182821
H120	H	-0.975373	-0.494494	0.255443
H121	H	-0.878385	-0.498673	0.310688
H122	H	-1.003119	-0.312714	0.433984
