data_functionalizedCrystal
_audit_creation_method	'MofGen! by Chris Wilmer'
_symmetry_space_group_name_H-M	'P1'
_symmetry_Int_Tables_number	1
_symmetry_cell_setting	triclinic
loop_
_symmetry_equiv_pos_as_xyz
  x,y,z
_cell_length_a	23.532407
_cell_length_b	19.288864
_cell_length_c	17.766277
_cell_angle_alpha	90.023209
_cell_angle_beta	89.988964
_cell_angle_gamma	97.007539
loop_
_atom_site_label
_atom_site_type_symbol
_atom_site_fract_x
_atom_site_fract_y
_atom_site_fract_z
O1	O	0.071045	-0.921134	-0.062843
O2	O	0.080629	-0.718844	-0.062793
O3	O	-0.007082	-0.826089	-0.062806
O4	O	0.158756	-0.813889	-0.062830
O5	O	-0.007086	-0.826070	0.062383
O6	O	0.080625	-0.718825	0.062396
O7	O	0.071041	-0.921115	0.062345
Cu8	Cu	0.075832	-0.819968	0.073801
Cu9	Cu	0.075838	-0.819991	-0.074249
O10	O	0.158752	-0.813870	0.062358
C11	C	0.080319	-0.692959	-0.000192
C12	C	0.079393	-0.615858	-0.000172
C13	C	-0.028301	-0.825769	-0.000209
C14	C	-0.091520	-0.824835	-0.000203
C15	C	0.071351	-0.947000	-0.000257
C16	C	0.072277	-1.024101	-0.000282
C17	C	-0.490503	-0.882442	-0.000259
C18	C	-0.549905	-0.881574	-0.000264
O19	O	-0.586539	-0.934976	-0.000306
N20	N	-0.572664	-0.817817	-0.000248
C21	C	-0.536017	-0.754923	-0.000234
O22	O	-0.560829	-0.700613	-0.000221
C23	C	-0.476616	-0.755792	-0.000234
C24	C	-0.453861	-0.819553	-0.000242
C25	C	-0.467748	-0.946198	-0.000269
C26	C	-0.408350	-0.947065	-0.000262
C27	C	-0.371707	-0.884177	-0.000245
C28	C	-0.394463	-0.820420	-0.000236
C29	C	-0.439970	-0.692899	-0.000225
C30	C	-0.380565	-0.693773	-0.000225
C31	C	-0.357810	-0.757534	-0.000234
C32	C	-0.298422	-0.758399	-0.000212
N33	N	-0.275664	-0.822156	-0.000229
C34	C	-0.312307	-0.885045	-0.000245
C35	C	-0.660763	-0.753104	-0.000235
C36	C	-0.720163	-0.752235	-0.000230
C37	C	-0.734047	-0.878886	-0.000262
C38	C	-0.674647	-0.879755	-0.000262
C39	C	-0.638005	-0.816861	-0.000252
C40	C	-0.187566	-0.886862	-0.000230
C41	C	-0.128162	-0.887724	-0.000220
C42	C	-0.114283	-0.761073	-0.000192
C43	C	-0.173681	-0.760211	-0.000198
C44	C	-0.210322	-0.823111	-0.000219
O45	O	-0.261754	-0.705025	-0.000174
O46	O	-0.287486	-0.939346	-0.000268
C47	C	0.179971	-0.814190	-0.000240
C48	C	0.243190	-0.815124	-0.000251
N49	N	0.075828	-0.819958	0.177932
C50	C	0.130858	-0.571003	-0.000191
C51	C	0.129988	-0.498559	-0.000200
C52	C	0.077651	-0.470973	-0.000203
C53	C	0.026179	-0.515838	-0.000180
C54	C	0.027050	-0.588280	-0.000164
C55	C	0.036509	-0.362844	-0.044082
C56	C	0.035640	-0.290402	-0.044102
C57	C	0.074961	-0.247535	-0.000249
C58	C	0.115162	-0.277118	0.043616
C59	C	0.116033	-0.349560	0.043631
C60	C	0.076700	-0.392422	-0.000220
C61	C	0.125487	-0.124127	-0.000276
C62	C	0.124615	-0.051682	-0.000279
C63	C	0.020805	-0.068962	-0.000267
C64	C	0.021678	-0.141406	-0.000256
C65	C	0.074021	-0.168984	-0.000264
N66	N	0.075837	-0.820007	-0.178379
C67	C	0.037009	-0.867461	0.217313
C68	C	0.037006	-0.867465	0.296115
C69	C	0.075833	-0.819973	0.335532
C70	C	0.114655	-0.772460	0.296142
C71	C	0.114653	-0.772453	0.217341
C72	C	0.127724	-0.810514	0.460364
C73	C	0.127727	-0.810526	0.539163
C74	C	0.075840	-0.819991	0.578579
C75	C	0.023947	-0.829459	0.539186
C76	C	0.023945	-0.829452	0.460385
C77	C	0.075839	-0.819975	0.420978
C78	C	0.037014	-0.867501	0.703406
C79	C	0.037011	-0.867501	0.782209
C80	C	0.114665	-0.772499	0.782234
C81	C	0.114663	-0.772496	0.703433
C82	C	0.075839	-0.820001	0.664023
H83	H	-0.109639	-0.939648	-0.000225
N84	N	0.154333	-0.723996	0.822490
N85	N	0.206972	-0.724583	0.813675
H86	H	0.234989	-0.690325	0.842109
H87	H	0.146276	-0.733817	0.671366
N88	N	-0.005414	-0.260173	-0.088904
N89	N	0.011025	-0.216959	-0.139128
H90	H	-0.017970	-0.195609	-0.170769
H91	H	-0.458486	-0.640978	-0.000222
N92	N	-0.076857	-0.696829	-0.000174
N93	N	-0.078846	-0.654314	0.052598
H94	H	-0.052414	-0.608939	0.052605
N95	N	-0.002653	-0.915969	0.177047
N96	N	-0.002655	-0.915955	0.106690
H97	H	-0.030667	-0.950212	0.078249
N98	N	-0.002652	-0.915984	0.336357
N99	N	-0.055293	-0.915408	0.327585
H100	H	-0.083301	-0.949674	0.356006
N101	N	-0.029062	-0.839108	0.579431
N102	N	-0.064912	-0.797019	0.570652
H103	H	-0.102350	-0.803833	0.599076
N104	N	0.182559	-0.452728	-0.000209
N105	N	0.217412	-0.454997	0.052555
H106	H	0.254541	-0.422629	0.052548
N107	N	-0.505180	-1.010437	-0.000271
N108	N	-0.558217	-1.009669	-0.000263
H109	H	-0.584651	-1.055041	-0.000258
H110	H	-0.763893	-0.930094	-0.000279
N111	N	0.184324	-0.599169	-0.000173
N112	N	0.196390	-0.637630	0.052610
H113	H	0.234151	-0.657523	0.052627
N114	N	-0.343145	-0.629520	-0.000224
N115	N	-0.363475	-0.572601	-0.000220
H116	H	-0.337049	-0.527222	-0.000220
H117	H	0.148763	-0.373643	0.079350
H118	H	-0.014860	-0.624802	-0.000149
N119	N	-0.002647	-0.916008	0.663132
N120	N	-0.002644	-0.915996	0.592776
H121	H	-0.030655	-0.950253	0.564333
N122	N	0.155341	-0.233328	0.088389
N123	N	0.154565	-0.168647	0.088362
H124	H	0.182946	-0.137716	0.119973
H125	H	-0.738684	-0.700314	-0.000210
H126	H	-0.018307	-0.837159	0.428315
N127	N	0.180736	-0.800864	0.579386
N128	N	0.227060	-0.792407	0.544187
H129	H	0.264500	-0.785584	0.572593
H130	H	-0.656124	-0.931675	-0.000270
N131	N	-0.623344	-0.688849	-0.000222
N132	N	-0.643677	-0.631932	-0.000209
H133	H	-0.617253	-0.586551	-0.000201
N134	N	-0.002653	-0.916026	0.822427
N135	N	-0.037313	-0.958433	0.787227
H136	H	-0.065328	-0.992705	0.815630
H137	H	-0.192209	-0.708291	-0.000170
H138	H	-0.021810	-0.046503	-0.000317
N139	N	-0.003669	-0.406619	-0.088877
N140	N	-0.039555	-0.380200	-0.128039
H141	H	-0.067931	-0.411115	-0.159673
N142	N	0.178956	-0.152292	-0.000279
N143	N	0.224905	-0.112230	-0.000287
H144	H	0.262668	-0.132119	-0.000289
N145	N	0.177193	-0.005870	-0.000290
N146	N	0.223920	-0.030507	-0.000295
H147	H	0.261056	0.001848	-0.000302
H148	H	-0.020230	-0.177928	-0.000244
H149	H	0.169979	-0.802794	0.428278
N150	N	-0.027278	-0.487651	-0.000176
N151	N	-0.028049	-0.422970	-0.000190
H152	H	-0.065804	-0.403062	-0.000184
N153	N	0.154308	-0.723948	0.336413
N154	N	0.154306	-0.723961	0.406770
H155	H	0.182310	-0.689695	0.435213
H156	H	0.146265	-0.733769	0.185276
H157	H	-0.217393	-0.938081	-0.000250
H158	H	-0.389829	-0.998986	-0.000272
