data_functionalizedCrystal
_audit_creation_method	'MofGen! by Chris Wilmer'
_symmetry_space_group_name_H-M	'P1'
_symmetry_Int_Tables_number	1
_symmetry_cell_setting	triclinic
loop_
_symmetry_equiv_pos_as_xyz
  x,y,z
_cell_length_a	17.077404
_cell_length_b	18.101395
_cell_length_c	17.077395
_cell_angle_alpha	89.973793
_cell_angle_beta	89.984359
_cell_angle_gamma	90.031329
loop_
_atom_site_label
_atom_site_type_symbol
_atom_site_fract_x
_atom_site_fract_y
_atom_site_fract_z
Zn1	Zn	1.199980	-0.294834	-0.443848
Zn2	Zn	1.699980	0.205166	0.056152
Zn3	Zn	1.199877	-0.418680	-0.312585
Zn4	Zn	1.699877	0.081320	0.187415
Zn5	Zn	1.068721	-0.294858	-0.312596
Zn6	Zn	1.568721	0.205142	0.187404
Zn7	Zn	1.068661	-0.418639	-0.443808
Zn8	Zn	1.568661	0.081361	0.056192
O9	O	1.134310	-0.356753	-0.378209
O10	O	1.634310	0.143247	0.121791
O11	O	1.309813	-0.311270	-0.426448
O12	O	1.809813	0.188730	0.073552
O13	O	1.182461	-0.402282	-0.202739
O14	O	1.682461	0.097718	0.297261
O15	O	1.086200	-0.191222	-0.330029
O16	O	1.586200	0.308778	0.169971
O17	O	1.309738	-0.402259	-0.330009
O18	O	1.809738	0.097741	0.169991
O19	O	1.182636	-0.191205	-0.426459
O20	O	1.682636	0.308795	0.073541
O21	O	1.086101	-0.311310	-0.202748
O22	O	1.586101	0.188690	0.297252
O23	O	0.958866	-0.311270	-0.329990
O24	O	1.458866	0.188730	0.170010
O25	O	1.086099	-0.402189	-0.553660
O26	O	1.586099	0.097811	-0.053660
O27	O	0.958822	-0.402212	-0.426391
O28	O	1.458822	0.097788	0.073609
O29	O	1.182578	-0.311230	-0.553690
O30	O	1.682578	0.188770	-0.053690
O31	O	1.182403	-0.522308	-0.329970
O32	O	1.682403	-0.022308	0.170030
O33	O	1.085999	-0.522277	-0.426379
O34	O	1.585999	-0.022277	0.073621
C35	C	0.930362	-0.356739	-0.378188
C36	C	1.430362	0.143261	0.121812
C37	C	0.843112	-0.356752	-0.378197
C38	C	1.343112	0.143248	0.121803
C39	C	0.802119	-0.404176	-0.428312
C40	C	1.302119	0.095824	0.071688
C41	C	0.720139	-0.404178	-0.428325
C42	C	1.220139	0.095822	0.071675
C43	C	0.679153	-0.356758	-0.378218
C44	C	1.179153	0.143242	0.121782
C45	C	0.720151	-0.309328	-0.328100
C46	C	1.220151	0.190672	0.171900
C47	C	0.802130	-0.309323	-0.328092
C48	C	1.302130	0.190677	0.171908
C49	C	0.549281	-0.309343	-0.328119
C50	C	1.049281	0.190657	0.171881
C51	C	0.467296	-0.309348	-0.328126
C52	C	0.967296	0.190652	0.171874
C53	C	0.467290	-0.404197	-0.428352
C54	C	0.967290	0.095803	0.071648
C55	C	0.549269	-0.404193	-0.428344
C56	C	1.049269	0.095807	0.071656
C57	C	0.590262	-0.356763	-0.378225
C58	C	1.090262	0.143237	0.121775
C59	C	1.134205	-0.549163	-0.378186
C60	C	1.634205	-0.049163	0.121814
C61	C	1.134231	-0.631478	-0.378203
C62	C	1.634231	-0.131478	0.121797
C63	C	1.134404	-0.930568	-0.378245
C64	C	1.634404	-0.430568	0.121755
C65	C	1.073890	-0.899255	-0.439054
C66	C	1.573890	-0.399255	0.060946
C67	C	1.073602	-0.813637	-0.438863
C68	C	1.573602	-0.313637	0.061137
C69	C	1.134318	-0.782186	-0.378225
C70	C	1.634318	-0.282186	0.121775
C71	C	1.111927	-0.813336	-0.295495
C72	C	1.611927	-0.313336	0.204505
C73	C	1.111537	-0.898981	-0.295859
C74	C	1.611537	-0.398981	0.204141
C75	C	1.217442	-0.898912	-0.399437
C76	C	1.717442	-0.398912	0.100563
C77	C	1.216953	-0.813261	-0.401252
C78	C	1.716953	-0.313261	0.098748
C79	C	1.134271	-0.698326	-0.378208
C80	C	1.634271	-0.198326	0.121792
C81	C	1.134449	-1.014428	-0.378256
C82	C	1.634449	-0.514428	0.121744
C83	C	1.339054	-0.356767	-0.378231
C84	C	1.839054	0.143233	0.121769
C85	C	1.426304	-0.356773	-0.378241
C86	C	1.926304	0.143227	0.121759
C87	C	1.134343	-0.356703	-0.582954
C88	C	1.634343	0.143297	-0.082954
C89	C	1.134358	-0.356681	-0.670203
C90	C	1.634358	0.143319	-0.170203
C91	C	1.134436	-0.163591	-0.378250
C92	C	1.634436	0.336409	0.121750
C93	C	1.134490	-0.081277	-0.378267
C94	C	1.634490	0.418723	0.121733
C95	C	1.184682	-0.309218	-1.046035
C96	C	1.684682	0.190782	-0.546035
C97	C	1.184666	-0.309244	-0.964054
C98	C	1.684666	0.190756	-0.464054
C99	C	1.134422	-0.356611	-0.923053
C100	C	1.634422	0.143389	-0.423053
C101	C	1.084197	-0.403960	-0.964036
C102	C	1.584197	0.096040	-0.464036
C103	C	1.084218	-0.403938	-1.046015
C104	C	1.584218	0.096062	-0.546015
C105	C	1.084157	-0.404003	-0.793166
C106	C	1.584157	0.095997	-0.293166
C107	C	1.084135	-0.404025	-0.711181
C108	C	1.584135	0.095975	-0.211181
C109	C	1.184604	-0.309310	-0.711205
C110	C	1.684604	0.190690	-0.211205
C111	C	1.184625	-0.309287	-0.793184
C112	C	1.684625	0.190713	-0.293184
C113	C	1.134399	-0.356636	-0.834161
C114	C	1.634399	0.143364	-0.334161
C115	C	1.134321	-0.356750	-0.174261
C116	C	1.634321	0.143250	0.325739
C117	C	1.134459	-0.356562	-0.087012
C118	C	1.634459	0.143438	0.412988
H119	H	0.835485	-0.442794	-0.469113
H120	H	1.335485	0.057206	0.030887
H121	H	1.225534	-0.270714	-0.826565
H122	H	1.725534	0.229286	-0.326565
H123	H	1.043292	-0.442530	-0.930646
H124	H	1.543292	0.057470	-0.430646
H125	H	1.225499	-0.270756	-0.677837
H126	H	1.725499	0.229244	-0.177837
Cl127	Cl	1.247806	-0.249724	-0.912543
Cl128	Cl	1.747806	0.250276	-0.412543
H129	H	1.012714	-0.920841	-0.425192
H130	H	1.512714	-0.420841	0.074808
H131	H	0.686767	-0.442797	-0.469133
H132	H	1.186767	0.057203	0.030867
H133	H	1.043204	-0.442578	-0.677799
H134	H	1.543204	0.057422	-0.177799
Cl135	Cl	1.247840	-0.249660	-1.097572
Cl136	Cl	1.747840	0.250340	-0.597572
Cl137	Cl	0.600794	-0.463812	-0.491332
Cl138	Cl	1.100794	0.036188	0.008668
H139	H	0.433910	-0.442814	-0.469163
H140	H	0.933910	0.057186	0.030837
H141	H	1.087611	-0.792574	-0.500206
H142	H	1.587611	-0.292574	-0.000206
Cl143	Cl	0.853663	-0.249699	-0.265089
Cl144	Cl	1.353663	0.250301	0.234911
H145	H	0.433927	-0.270726	-0.287333
H146	H	0.933927	0.229274	0.212667
Cl147	Cl	1.021080	-0.463460	-1.097529
Cl148	Cl	1.521080	0.036540	-0.597529
Cl149	Cl	0.600813	-0.249716	-0.265111
Cl150	Cl	1.100813	0.250284	0.234889
Cl151	Cl	0.668625	-0.249709	-0.265112
Cl152	Cl	1.168625	0.250291	0.234888
H153	H	1.237857	-0.920461	-0.458736
H154	H	1.737857	-0.420461	0.041264
Cl155	Cl	1.290250	-0.780196	-0.337861
Cl156	Cl	1.790250	-0.280196	0.162139
H157	H	1.087759	-0.919804	-0.500595
H158	H	1.587759	-0.419804	-0.000595
Cl159	Cl	0.978573	-0.782100	-0.417193
Cl160	Cl	1.478573	-0.282100	0.082807
Cl161	Cl	1.243027	-0.781825	-0.495253
Cl162	Cl	1.743027	-0.281825	0.004747
H163	H	1.262527	-0.919161	-0.355148
H164	H	1.762527	-0.419161	0.144852
H165	H	1.050836	-0.919024	-0.277907
H166	H	1.550836	-0.419024	0.222093
Cl167	Cl	1.176624	-0.930969	-0.223517
Cl168	Cl	1.676624	-0.430969	0.276483
H169	H	1.051870	-0.791951	-0.277221
H170	H	1.551870	-0.291951	0.222779
Cl171	Cl	1.177833	-0.781887	-0.223633
Cl172	Cl	1.677833	-0.281887	0.276367
Cl173	Cl	1.021014	-0.463527	-0.844679
Cl174	Cl	1.521014	0.036473	-0.344679
