data_functionalizedCrystal
_audit_creation_method	'MofGen! by Chris Wilmer'
_symmetry_space_group_name_H-M	'P1'
_symmetry_Int_Tables_number	1
_symmetry_cell_setting	triclinic
loop_
_symmetry_equiv_pos_as_xyz
  x,y,z
_cell_length_a	19.288864
_cell_length_b	9.065218
_cell_length_c	17.766277
_cell_angle_alpha	89.995554
_cell_angle_beta	89.976791
_cell_angle_gamma	84.076066
loop_
_atom_site_label
_atom_site_type_symbol
_atom_site_fract_x
_atom_site_fract_y
_atom_site_fract_z
O1	O	0.922782	0.184032	-0.062833
O2	O	0.720714	0.208857	-0.062781
O3	O	0.825925	-0.018344	-0.062807
O4	O	0.817571	0.411233	-0.062808
O5	O	0.825906	-0.018356	0.062382
O6	O	0.720695	0.208846	0.062407
O7	O	0.922763	0.184020	0.062355
Cu8	Cu	0.821727	0.196432	0.073812
Cu9	Cu	0.821750	0.196445	-0.074238
O10	O	0.817552	0.411222	0.062381
C11	C	0.694822	0.208053	-0.000180
C12	C	0.617700	0.205655	-0.000161
C13	C	0.574039	0.338966	-0.000173
C14	C	0.501574	0.336713	-0.000181
C15	C	0.472774	0.201142	-0.000192
C16	C	0.516445	0.067812	-0.000176
C17	C	0.588908	0.070069	-0.000160
C18	C	0.363691	0.094571	-0.044077
C19	C	0.291229	0.092320	-0.044097
C20	C	0.249274	0.194176	-0.000238
C21	C	0.279789	0.298308	0.043632
C22	C	0.352252	0.300565	0.043648
C23	C	0.394201	0.198680	-0.000209
C24	C	0.127038	0.325054	-0.000258
C25	C	0.054572	0.322796	-0.000262
C26	C	0.069445	0.053891	-0.000264
C27	C	0.141909	0.056153	-0.000253
C28	C	0.170701	0.191739	-0.000253
C29	C	0.825112	-0.073309	-0.000213
C30	C	0.822712	-0.237067	-0.000216
C31	C	0.948655	0.184825	-0.000247
C32	C	1.025777	0.187223	-0.000272
C33	C	0.818365	0.466186	-0.000214
C34	C	0.820765	0.629945	-0.000216
N35	N	0.821717	0.196421	0.177942
N36	N	0.821766	0.196444	-0.178368
C37	C	0.868320	0.095866	0.217318
C38	C	0.868324	0.095859	0.296120
C39	C	0.821732	0.196433	0.335543
C40	C	0.775120	0.296996	0.296158
C41	C	0.775113	0.296991	0.217358
C42	C	0.813476	0.330849	0.460382
C43	C	0.813489	0.330856	0.539181
C44	C	0.821750	0.196451	0.578589
C45	C	0.830014	0.062032	0.539189
C46	C	0.830007	0.062026	0.460389
C47	C	0.821734	0.196450	0.420989
C48	C	0.868360	0.095879	0.703411
C49	C	0.868359	0.095871	0.782214
C50	C	0.775159	0.297021	0.782251
C51	C	0.775156	0.297017	0.703449
C52	C	0.821761	0.196448	0.664034
H53	H	0.624457	-0.038493	-0.000151
N54	N	0.258322	-0.019994	-0.091408
H55	H	0.206051	-0.005965	-0.084768
H56	H	0.270258	-0.005814	-0.146113
N57	N	0.485391	-0.078418	-0.000193
H58	H	0.501226	-0.136804	0.046218
H59	H	0.432866	-0.059505	-0.000236
N60	N	0.385164	0.412848	0.090974
H61	H	0.437435	0.398814	0.084328
H62	H	0.366775	0.516208	0.074581
H63	H	0.150482	0.435456	-0.000247
N64	N	0.007498	0.466618	-0.000230
H65	H	0.016876	0.525829	-0.046625
H66	H	-0.042764	0.444546	-0.000194
H67	H	0.045997	-0.056494	-0.000320
N68	N	0.724890	0.405484	0.660981
H69	H	0.733545	0.510146	0.674683
H70	H	0.731975	0.390095	0.605093
H71	H	0.177459	-0.052404	-0.000247
N72	N	0.724844	0.405446	0.174882
H73	H	0.695324	0.469157	0.211811
H74	H	0.751837	0.470524	0.142169
N75	N	0.454470	0.480504	-0.000196
H76	H	0.483706	0.566737	-0.000193
H77	H	0.424110	0.485410	-0.046614
H78	H	0.906307	0.013978	0.814274
N79	N	0.724899	0.405490	0.824760
H80	H	0.731973	0.390234	0.880655
H81	H	0.733575	0.510103	0.810976
H82	H	0.597476	0.449370	-0.000175
H83	H	0.906275	0.013971	0.328185
N84	N	0.918581	-0.012605	0.174806
H85	H	0.948104	-0.076310	0.211713
H86	H	0.891581	-0.077687	0.142132
N87	N	0.918610	-0.012636	0.660908
H88	H	0.891650	-0.077807	0.628237
H89	H	0.949713	0.043638	0.628232
N90	N	0.804572	0.475827	0.581674
H91	H	0.799325	0.560971	0.544754
H92	H	0.761608	0.479126	0.614390
N93	N	0.838918	-0.082940	0.417892
H94	H	0.844153	-0.168091	0.454808
H95	H	0.796667	-0.091323	0.385221
H96	H	0.806737	0.440305	0.428302
N97	N	0.724865	0.405464	0.338677
H98	H	0.751816	0.470648	0.371351
H99	H	0.695350	0.469067	0.301726
N100	N	0.234549	0.408186	0.090937
H101	H	0.184014	0.390956	0.084275
H102	H	0.247950	0.394787	0.145647
H103	H	0.397845	0.011625	-0.079796
H104	H	0.836741	-0.047414	0.571274
