data_functionalizedCrystal
_audit_creation_method	'MofGen! by Chris Wilmer'
_symmetry_space_group_name_H-M	'P1'
_symmetry_Int_Tables_number	1
_symmetry_cell_setting	triclinic
loop_
_symmetry_equiv_pos_as_xyz
  x,y,z
_cell_length_a	11.792241
_cell_length_b	10.967819
_cell_length_c	10.065875
_cell_angle_alpha	69.228723
_cell_angle_beta	81.145445
_cell_angle_gamma	95.541128
loop_
_atom_site_label
_atom_site_type_symbol
_atom_site_fract_x
_atom_site_fract_y
_atom_site_fract_z
O1	O	-0.083026	1.740389	-0.522813
O2	O	-0.111194	1.362998	-0.434053
O3	O	0.068356	1.560853	-0.480596
O4	O	-0.262576	1.542534	-0.476271
O5	O	0.033985	1.523126	-0.244732
O6	O	-0.145565	1.325271	-0.198189
O7	O	-0.117397	1.702662	-0.286950
Zn8	Zn	-0.136938	1.507976	-0.205121
Zn9	Zn	-0.091653	1.557684	-0.515882
O10	O	-0.296947	1.504807	-0.240407
C11	C	-0.128926	1.295820	-0.304758
C12	C	-0.130540	1.151859	-0.270900
C13	C	-0.115131	0.958438	-0.343022
C14	C	-0.113456	1.107230	-0.378008
C15	C	-0.322016	1.524821	-0.358607
C16	C	-0.447920	1.528263	-0.359411
C17	C	-0.678423	1.534602	-0.360936
C18	C	-0.550154	1.531080	-0.360089
C19	C	0.093425	1.540840	-0.362398
C20	C	0.219331	1.537399	-0.361604
C21	C	-0.099665	1.769841	-0.416248
C22	C	-0.098049	1.913804	-0.450115
N23	N	-0.167843	1.474062	0.006962
N24	N	-0.060738	1.591609	-0.727967
C25	C	-0.102399	1.545876	0.057848
C26	C	-0.126193	1.519784	0.221153
H27	H	-0.131003	0.886496	-0.225435
O28	O	-0.149327	1.066204	-0.130553
C29	C	-0.061732	1.100618	-0.063352
H30	H	-0.022441	1.209361	-0.123984
H31	H	-0.100997	1.083152	0.053961
H32	H	0.009073	1.037171	-0.065689
H33	H	-0.082191	0.985744	-0.567702
O34	O	-0.014512	1.642148	-0.034550
C35	C	0.065946	1.585671	-0.103927
H36	H	0.021089	1.488116	-0.102196
H37	H	0.100516	1.656229	-0.221087
H38	H	0.141291	1.566999	-0.044602
O39	O	-0.094692	1.193147	-0.518238
C40	C	-0.191329	1.258597	-0.540935
H41	H	-0.240251	1.256198	-0.432908
H42	H	-0.160172	1.365611	-0.618338
H43	H	-0.251707	1.206909	-0.589912
H44	H	0.012915	1.672408	0.194705
O45	O	-0.214187	1.423462	0.313226
C46	C	-0.320633	1.451451	0.271857
H47	H	-0.303433	1.518584	0.152274
H48	H	-0.378582	1.355307	0.289748
H49	H	-0.365961	1.503093	0.340095
O50	O	-0.255586	1.377496	0.099189
C51	C	-0.235608	1.254667	0.093258
H52	H	-0.138881	1.259612	0.052716
H53	H	-0.264682	1.174178	0.206238
H54	H	-0.287106	1.230886	0.016028
