data_functionalizedCrystal
_audit_creation_method	'MofGen! by Chris Wilmer'
_symmetry_space_group_name_H-M	'P1'
_symmetry_Int_Tables_number	1
_symmetry_cell_setting	triclinic
loop_
_symmetry_equiv_pos_as_xyz
  x,y,z
_cell_length_a	13.635800
_cell_length_b	11.102244
_cell_length_c	11.102300
_cell_angle_alpha	88.053517
_cell_angle_beta	108.605850
_cell_angle_gamma	71.395130
loop_
_atom_site_label
_atom_site_type_symbol
_atom_site_fract_x
_atom_site_fract_y
_atom_site_fract_z
V1	V	2.055762	-0.175838	0.396253
O2	O	2.035282	0.008450	0.388713
O3	O	2.044147	-0.348658	0.393540
O4	O	2.044153	-0.173133	0.569074
O5	O	2.035276	-0.168290	0.211964
V6	V	2.294314	-0.153795	0.374211
O7	O	2.193432	-0.224191	0.444604
O8	O	2.381742	-0.105442	0.325860
O9	O	2.194325	0.019024	0.376924
O10	O	2.373493	-0.338083	0.381751
O11	O	2.373498	-0.161344	0.558500
O12	O	2.194320	-0.156500	0.201390
V13	V	2.555762	-0.175838	0.396253
O14	O	2.535282	0.008450	0.388713
O15	O	2.544147	-0.348658	0.393540
O16	O	2.544153	-0.173133	0.569074
O17	O	2.535276	-0.168290	0.211964
V18	V	2.794314	-0.153795	0.374211
O19	O	2.693432	-0.224191	0.444604
O20	O	2.881742	-0.105442	0.325860
O21	O	2.694325	0.019024	0.376924
O22	O	2.873493	-0.338083	0.381751
O23	O	2.873498	-0.161344	0.558500
O24	O	2.694320	-0.156500	0.201390
C25	C	1.969302	-0.390787	0.387288
C26	C	2.000533	-0.532070	0.386221
C27	C	1.985120	-0.580305	0.269341
C28	C	2.014472	-0.713057	0.268354
C29	C	2.074647	-0.749329	0.501137
C30	C	2.045302	-0.616579	0.502124
C31	C	1.940351	-0.495795	0.153439
C32	C	1.924934	-0.544028	0.036549
C33	C	1.954286	-0.676781	0.035561
C34	C	1.999056	-0.761299	0.151464
C35	C	1.969308	-0.166887	0.611198
C36	C	2.000541	-0.165819	0.752480
C37	C	2.100842	0.061148	0.383173
C38	C	2.059230	0.202429	0.384248
C39	C	2.100835	-0.162751	0.159260
C40	C	2.059221	-0.163812	0.017976
C41	C	2.469302	-0.390787	0.387288
C42	C	2.500533	-0.532070	0.386221
C43	C	2.469308	-0.166887	0.611198
C44	C	2.500541	-0.165819	0.752480
C45	C	2.107220	-0.171664	0.825329
C46	C	2.136559	-0.170656	0.958077
C47	C	1.952532	-0.157962	0.945117
C48	C	1.923192	-0.158961	0.812370
C49	C	2.600842	0.061148	0.383173
C50	C	2.559230	0.202429	0.384248
C51	C	2.600835	-0.162751	0.159260
C52	C	2.559221	-0.163812	0.017976
C53	C	2.607209	-0.604918	0.392061
C54	C	2.636551	-0.737669	0.391069
C55	C	2.452528	-0.724710	0.378392
C56	C	2.423190	-0.591964	0.379393
C57	C	2.607220	-0.171664	0.825329
C58	C	2.636559	-0.170656	0.958077
C59	C	2.452532	-0.157962	0.945117
C60	C	2.423192	-0.158961	0.812370
H61	H	1.916441	-0.387699	0.154229
H62	H	2.723415	-0.796977	0.395826
H63	H	2.389562	-0.152382	0.993896
C64	C	2.031348	-0.907324	0.150377
H65	H	2.015754	-0.923949	0.064166
H66	H	2.107957	-0.948192	0.197197
H67	H	1.990229	-0.939913	0.189079
H68	H	2.170204	-0.177246	0.776571
H69	H	1.941741	-0.716049	-0.059615
C70	C	2.123873	-0.842293	0.628616
H71	H	2.139131	-0.928261	0.611287
H72	H	2.190286	-0.832139	0.680665
H73	H	2.072552	-0.823842	0.672535
C74	C	2.367456	-0.790596	0.370866
H75	H	2.400202	-0.880087	0.371092
H76	H	2.344087	-0.777791	0.442879
H77	H	2.305596	-0.754564	0.293958
H78	H	2.336315	-0.154191	0.753052
C79	C	2.305839	-0.511824	0.372964
H80	H	2.263973	-0.566502	0.368735
H81	H	2.309817	-0.471378	0.447547
H82	H	2.271324	-0.448162	0.298625
H83	H	2.670204	-0.177246	0.776571
H84	H	1.888490	-0.475206	-0.057814
H85	H	2.057869	-0.577308	0.597299
C86	C	1.805840	-0.152535	0.732231
H87	H	1.763980	-0.148327	0.786912
H88	H	1.771327	-0.078206	0.668568
H89	H	1.809820	-0.227128	0.691789
H90	H	2.723425	-0.175415	1.017385
H91	H	2.223425	-0.175415	1.017385
H92	H	1.889562	-0.152382	0.993896
C93	C	2.692284	-0.539039	0.399578
H94	H	2.760021	-0.601444	0.402923
H95	H	2.665417	-0.475916	0.325774
H96	H	2.703915	-0.499135	0.474697
