data_functionalizedCrystal
_audit_creation_method	'MofGen! by Chris Wilmer'
_symmetry_space_group_name_H-M	'P1'
_symmetry_Int_Tables_number	1
_symmetry_cell_setting	triclinic
loop_
_symmetry_equiv_pos_as_xyz
  x,y,z
_cell_length_a	19.805405
_cell_length_b	18.215407
_cell_length_c	18.215399
_cell_angle_alpha	90.017368
_cell_angle_beta	90.030610
_cell_angle_gamma	90.023854
loop_
_atom_site_label
_atom_site_type_symbol
_atom_site_fract_x
_atom_site_fract_y
_atom_site_fract_z
Zn1	Zn	-0.269516	1.125064	0.416054
Zn2	Zn	-0.382707	1.124969	0.292982
Zn3	Zn	-0.269533	1.001997	0.293006
Zn4	Zn	-0.382664	1.001959	0.416012
O5	O	-0.326105	1.063497	0.354514
O6	O	-0.284543	1.228036	0.399735
O7	O	-0.367719	1.108633	0.190001
O8	O	-0.174814	1.018377	0.309357
O9	O	-0.367704	1.227966	0.309315
O10	O	-0.174802	1.108794	0.399759
O11	O	-0.284570	1.018285	0.190019
O12	O	-0.284528	0.899007	0.309316
O13	O	-0.367629	1.018313	0.519002
O14	O	-0.367645	0.898980	0.399688
O15	O	-0.284501	1.108758	0.519033
O16	O	-0.477418	1.108596	0.309274
O17	O	-0.477386	1.018221	0.399664
C18	C	-0.326084	0.872291	0.354501
C19	C	-0.326092	0.790492	0.354513
C20	C	-0.282879	0.602334	0.401669
C21	C	-0.282885	0.525475	0.401671
C22	C	-0.369350	0.525413	0.307371
C23	C	-0.369340	0.602270	0.307365
C24	C	-0.326106	0.640729	0.354519
C25	C	-0.326121	0.487013	0.354527
C26	C	-0.326128	0.403679	0.354529
C27	C	-0.326098	0.724068	0.354515
C28	C	-0.501961	1.063415	0.354478
C29	C	-0.577193	1.063446	0.354487
C30	C	-0.612531	1.110550	0.307471
C31	C	-0.683220	1.110582	0.307487
C32	C	-0.718569	1.063505	0.354517
C33	C	-0.683225	1.016399	0.401539
C34	C	-0.612538	1.016372	0.401525
C35	C	-0.968298	1.016507	0.401593
C36	C	-1.038991	1.016536	0.401601
C37	C	-1.038980	1.110717	0.307555
C38	C	-0.968293	1.110690	0.307541
C39	C	-0.932956	1.063587	0.354566
C40	C	-0.856307	1.063555	0.354548
C41	C	-0.795216	1.063533	0.354531
C42	C	-0.149562	1.063601	0.354565
C43	C	-0.074330	1.063644	0.354587
C44	C	-0.326058	1.063542	0.546467
C45	C	-0.326038	1.063561	0.628265
C46	C	-0.326126	1.255450	0.354527
C47	C	-0.326135	1.337249	0.354533
C48	C	-0.326103	1.063495	0.163307
C49	C	-0.325932	1.063619	0.081509
C50	C	-0.282713	1.110673	0.816477
C51	C	-0.282693	1.110681	0.893335
C52	C	-0.369259	1.016502	0.893292
C53	C	-0.369275	1.016490	0.816435
C54	C	-0.326003	1.063580	0.778029
C55	C	-0.325967	1.063600	0.931745
C56	C	-0.325946	1.063609	1.015079
C57	C	-0.326023	1.063570	0.694690
H58	H	-0.404542	0.633533	0.268966
Br59	Br	-0.223944	1.174602	0.945512
Br60	Br	-0.564578	0.952447	0.465341
H61	H	-0.404551	0.494091	0.268982
Br62	Br	-0.224202	0.654525	0.465660
Br63	Br	-0.920350	0.952582	0.465412
Br64	Br	-0.427986	0.952600	0.945419
H65	H	-0.583755	1.148882	0.269170
H66	H	-0.404527	0.978136	0.785130
H67	H	-1.067760	1.149073	0.269268
H68	H	-0.247684	0.494217	0.440065
H69	H	-0.711989	1.148938	0.269201
H70	H	-1.067770	0.978201	0.439904
Br71	Br	-0.920323	1.174581	0.243712
Br72	Br	-0.731198	0.952514	0.465372
H73	H	-0.247476	1.149014	0.785209
