data_functionalizedCrystal
_audit_creation_method	'MofGen! by Chris Wilmer'
_symmetry_space_group_name_H-M	'P1'
_symmetry_Int_Tables_number	1
_symmetry_cell_setting	triclinic
loop_
_symmetry_equiv_pos_as_xyz
  x,y,z
_cell_length_a	17.699083
_cell_length_b	14.519709
_cell_length_c	16.776229
_cell_angle_alpha	89.992406
_cell_angle_beta	89.998886
_cell_angle_gamma	83.481580
loop_
_atom_site_label
_atom_site_type_symbol
_atom_site_fract_x
_atom_site_fract_y
_atom_site_fract_z
O1	O	1.004412	0.116624	-0.066178
O2	O	0.784077	0.131797	-0.066204
O3	O	0.900087	-0.010052	-0.066183
O4	O	0.888403	0.258474	-0.066199
O5	O	0.900071	-0.010061	0.066393
O6	O	0.784062	0.131789	0.066372
O7	O	1.004397	0.116616	0.066398
Zn8	Zn	0.894227	0.124201	0.087435
Zn9	Zn	0.894247	0.124212	-0.087241
O10	O	0.888388	0.258465	0.066377
C11	C	0.755871	0.131249	0.000080
C12	C	0.671848	0.129618	0.000071
C13	C	0.623466	0.212881	0.000066
C14	C	0.544518	0.211343	0.000076
C15	C	0.513954	0.126541	0.000086
C16	C	0.562343	0.043272	0.000093
C17	C	0.641289	0.044811	0.000088
C18	C	0.243962	0.037064	0.000113
C19	C	0.165010	0.035531	0.000115
C20	C	0.147191	0.203596	0.000101
C21	C	0.226137	0.205135	0.000097
C22	C	0.274519	0.121866	0.000108
C23	C	0.360123	0.123535	0.000098
C24	C	0.428352	0.124872	0.000090
C25	C	0.899534	-0.044414	0.000105
C26	C	0.897903	-0.146789	0.000105
C27	C	0.891896	-0.521659	0.000084
C28	C	0.893564	-0.417358	0.000090
C29	C	0.894899	-0.334227	0.000095
C30	C	0.896568	-0.229920	0.000100
C31	C	1.032603	0.117164	0.000112
C32	C	1.116626	0.118795	0.000116
C33	C	0.888940	0.292827	0.000087
C34	C	0.890572	0.395202	0.000082
N35	N	0.894219	0.124192	0.206646
N36	N	0.894262	0.124213	-0.206452
C37	C	0.945603	0.061407	0.248372
C38	C	0.945607	0.061406	0.331824
C39	C	0.894230	0.124196	0.373549
C40	C	0.842840	0.186984	0.331816
C41	C	0.842833	0.186980	0.248366
C42	C	0.842867	0.187002	0.668364
C43	C	0.842880	0.187004	0.751820
C44	C	0.945642	0.061429	0.751822
C45	C	0.945635	0.061424	0.668372
C46	C	0.894242	0.124209	0.626647
C47	C	0.894238	0.124208	0.536158
C48	C	0.894238	0.124202	0.464036
H49	H	0.283346	-0.030739	0.000123
N50	N	0.693478	-0.044993	0.000099
H51	H	0.662138	-0.098949	0.000105
H52	H	0.726622	-0.048016	-0.049048
N53	N	0.095005	0.293409	0.000124
H54	H	0.126348	0.347362	0.000120
H55	H	0.061849	0.296450	-0.049015
H56	H	0.140129	-0.033529	0.000124
N57	N	0.787407	0.254693	0.203357
H58	H	0.754861	0.294472	0.242450
H59	H	0.816428	0.295420	0.168719
H60	H	0.987444	0.010280	0.214406
N61	N	0.529383	-0.048195	0.000116
H62	H	0.472029	-0.036537	0.000118
H63	H	0.547072	-0.084626	-0.049027
H64	H	0.801023	0.238126	0.634398
N65	N	1.001055	-0.006280	0.376830
H66	H	1.033613	-0.046043	0.337735
H67	H	1.034547	0.029016	0.411429
N68	N	1.001052	-0.006294	0.623369
H69	H	1.033604	-0.046071	0.662466
H70	H	0.972020	-0.047022	0.588755
H71	H	0.648344	0.281937	0.000058
H72	H	0.505128	0.279144	0.000072
H73	H	0.251017	0.274189	0.000085
N74	N	1.001074	-0.006294	0.796825
H75	H	0.993284	0.003231	0.856022
H76	H	0.992249	-0.071706	0.782247
H77	H	0.801040	0.238137	0.785791
H78	H	0.801004	0.238106	0.365793
