data_functionalizedCrystal
_audit_creation_method	'MofGen! by Chris Wilmer'
_symmetry_space_group_name_H-M	'P1'
_symmetry_Int_Tables_number	1
_symmetry_cell_setting	triclinic
loop_
_symmetry_equiv_pos_as_xyz
  x,y,z
_cell_length_a	12.759401
_cell_length_b	19.077068
_cell_length_c	12.759393
_cell_angle_alpha	92.260861
_cell_angle_beta	89.982961
_cell_angle_gamma	92.327081
loop_
_atom_site_label
_atom_site_type_symbol
_atom_site_fract_x
_atom_site_fract_y
_atom_site_fract_z
Zn1	Zn	1.589346	-0.280153	-0.610733
Zn2	Zn	2.089346	0.219847	-0.110733
Zn3	Zn	1.582146	-0.397870	-0.442092
Zn4	Zn	2.082146	0.102130	0.057908
Zn5	Zn	1.413650	-0.280191	-0.435075
Zn6	Zn	1.913650	0.219809	0.064925
Zn7	Zn	1.406541	-0.397815	-0.617730
Zn8	Zn	1.906541	0.102185	-0.117730
O9	O	1.497921	-0.339007	-0.526407
O10	O	1.997921	0.160993	-0.026407
O11	O	1.735411	-0.295776	-0.588371
O12	O	2.235411	0.204224	-0.088371
O13	O	1.559757	-0.382298	-0.294142
O14	O	2.059757	0.117702	0.205858
O15	O	1.442945	-0.181695	-0.452511
O16	O	1.942945	0.318305	0.047489
O17	O	1.730122	-0.382261	-0.464471
O18	O	2.230122	0.117739	0.035529
O19	O	1.572028	-0.181668	-0.581566
O20	O	2.072028	0.318332	-0.081566
O21	O	1.435963	-0.295840	-0.288987
O22	O	1.935963	0.204160	0.211013
O23	O	1.265687	-0.295787	-0.459296
O24	O	1.765687	0.204213	0.040704
O25	O	1.430829	-0.382168	-0.763821
O26	O	1.930829	0.117832	-0.263821
O27	O	1.260464	-0.382204	-0.593492
O28	O	1.760464	0.117796	-0.093492
O29	O	1.565135	-0.295723	-0.758680
O30	O	2.065135	0.204277	-0.258680
O31	O	1.552863	-0.496353	-0.471256
O32	O	2.052863	0.003647	0.028744
O33	O	1.423847	-0.496313	-0.600296
O34	O	1.923847	0.003687	-0.100296
C35	C	1.224954	-0.338994	-0.526392
C36	C	1.724954	0.161006	-0.026392
C37	C	1.108177	-0.339006	-0.526412
C38	C	1.608177	0.160994	-0.026412
C39	C	1.486831	-0.521870	-0.537320
C40	C	1.986831	-0.021870	-0.037320
C41	C	1.482183	-0.600100	-0.542023
C42	C	1.982183	-0.100100	-0.042023
C43	C	1.050618	-0.384075	-0.596181
C44	C	1.550618	0.115925	-0.096181
C45	C	0.940894	-0.384084	-0.596193
C46	C	1.440894	0.115916	-0.096193
C47	C	0.946296	-0.293952	-0.456658
C48	C	1.446296	0.206048	0.043342
C49	C	1.056019	-0.293940	-0.456651
C50	C	1.556019	0.206060	0.043349
C51	C	1.047499	-0.436115	-0.676738
C52	C	1.547499	0.063885	-0.176738
C53	C	0.937774	-0.436124	-0.676750
C54	C	1.437774	0.063876	-0.176750
C55	C	1.547223	-0.636850	-0.477104
C56	C	2.047223	-0.136850	0.022896
C57	C	1.542858	-0.710355	-0.481534
C58	C	2.042858	-0.210355	0.018466
C59	C	1.473446	-0.747109	-0.550879
C60	C	1.973446	-0.247109	-0.050879
C61	C	1.408403	-0.710353	-0.615805
C62	C	1.908403	-0.210353	-0.115805
C63	C	1.412774	-0.636850	-0.611379
C64	C	1.912774	-0.136850	-0.111379
C65	C	1.453168	-0.966941	-0.571318
C66	C	1.953168	-0.466941	-0.071318
C67	C	1.448799	-1.040450	-0.575736
C68	C	1.948799	-0.540450	-0.075736
C69	C	1.583255	-1.040447	-0.441466
C70	C	2.083255	-0.540447	0.058534
C71	C	1.587616	-0.966942	-0.437042
C72	C	2.087616	-0.466942	0.062958
C73	C	1.522577	-0.930193	-0.501972
C74	C	2.022577	-0.430193	-0.001972
N75	N	1.468980	-0.822243	-0.555406
N76	N	1.968980	-0.322243	-0.055406
N77	N	1.527050	-0.855060	-0.497449
N78	N	2.027050	-0.355060	0.002551
C79	C	1.771953	-0.339021	-0.526423
C80	C	2.271953	0.160979	-0.026423
C81	C	1.888730	-0.339026	-0.526430
C82	C	2.388730	0.160974	-0.026430
C83	C	1.497992	-0.338935	-0.800437
C84	C	1.997992	0.161065	-0.300437
C85	C	1.498022	-0.338904	-0.917212
C86	C	1.998022	0.161096	-0.417212
C87	C	1.509083	-0.155430	-0.515476
C88	C	2.009083	0.344570	-0.015476
C89	C	1.513839	-0.077200	-0.510817
C90	C	2.013839	0.422800	-0.010817
C91	C	1.428157	-0.383880	-1.084475
C92	C	1.928157	0.116120	-0.584475
C93	C	1.428115	-0.383900	-0.974752
C94	C	1.928115	0.116100	-0.474752
C95	C	1.567967	-0.293880	-0.969399
C96	C	2.067967	0.206120	-0.469399
C97	C	1.568003	-0.293857	-1.079120
C98	C	2.068003	0.206143	-0.579120
C99	C	1.347417	-0.435855	-1.087564
C100	C	1.847417	0.064145	-0.587564
C101	C	1.347376	-0.435875	-0.977841
C102	C	1.847376	0.064125	-0.477841
C103	C	1.497914	-0.339028	-0.253441
C104	C	1.997914	0.160972	0.246559
C105	C	1.498099	-0.338860	-0.136655
C106	C	1.998099	0.161140	0.363345
H107	H	1.102879	-0.257235	-0.399845
H108	H	1.602879	0.242765	0.100155
H109	H	0.903815	-0.257260	-0.399862
H110	H	1.403815	0.242740	0.100138
H111	H	0.904693	-0.490621	-0.658076
H112	H	1.404693	0.009379	-0.158076
H113	H	1.400208	-0.937026	-0.624184
H114	H	1.900208	-0.437026	-0.124184
H115	H	1.078181	-0.421578	-0.757275
H116	H	1.578181	0.078422	-0.257275
H117	H	1.624949	-0.257192	-1.121601
H118	H	2.124949	0.242808	-0.621601
H119	H	1.644137	-0.937018	-0.380577
H120	H	2.144137	-0.437018	0.119423
H121	H	1.359813	-0.606928	-0.664245
H122	H	1.859813	-0.106928	-0.164245
H123	H	1.624880	-0.257239	-0.922541
H124	H	2.124880	0.242761	-0.422541
H125	H	1.266944	-0.421247	-1.116473
H126	H	1.766944	0.078753	-0.616473
H127	H	1.078393	-0.487867	-0.650548
H128	H	1.578393	0.012133	-0.150548
H129	H	1.373428	-0.487628	-1.124674
H130	H	1.873428	0.012372	-0.624674
H131	H	1.271252	-0.416357	-0.942653
H132	H	1.771252	0.083643	-0.442653
H133	H	0.904948	-0.416667	-0.752938
H134	H	1.404948	0.083333	-0.252938
H135	H	1.636208	-1.070375	-0.388605
H136	H	2.136208	-0.570375	0.111395
H137	H	1.603741	-0.606930	-0.420632
H138	H	2.103741	-0.106930	0.079368
H139	H	1.392288	-1.070373	-0.632223
H140	H	1.892288	-0.570373	-0.132223
H141	H	1.351891	-0.740284	-0.672271
H142	H	1.851891	-0.240284	-0.172271
H143	H	1.595820	-0.740274	-0.428669
H144	H	2.095820	-0.240274	0.071331
H145	H	1.365903	-0.490383	-0.951301
H146	H	1.865903	0.009617	-0.451301
