data_functionalizedCrystal
_audit_creation_method	'MofGen! by Chris Wilmer'
_symmetry_space_group_name_H-M	'P1'
_symmetry_Int_Tables_number	1
_symmetry_cell_setting	triclinic
loop_
_symmetry_equiv_pos_as_xyz
  x,y,z
_cell_length_a	14.809374
_cell_length_b	21.606444
_cell_length_c	21.606444
_cell_angle_alpha	60.001331
_cell_angle_beta	90.001385
_cell_angle_gamma	52.845983
loop_
_atom_site_label
_atom_site_type_symbol
_atom_site_fract_x
_atom_site_fract_y
_atom_site_fract_z
Zr1	Zr	0.990994	0.527971	-0.006465
O2	O	0.826724	0.681872	-0.117676
O3	O	1.041352	0.391255	0.027625
O4	O	1.041339	0.520381	-0.101495
O5	O	0.826746	0.552740	0.113298
O6	O	1.210629	0.494846	-0.088728
O7	O	0.826738	0.552746	0.011444
O8	O	1.210653	0.263863	0.142243
O9	O	0.826723	0.783723	-0.117673
O10	O	1.189167	0.422067	0.051695
O11	O	1.062834	0.441119	0.118180
O12	O	1.062819	0.593148	-0.033842
O13	O	0.936486	0.612201	0.032643
Zr14	Zr	1.261005	0.487236	0.176344
Zr15	Zr	1.260992	0.487245	0.013897
Zr16	Zr	0.991007	0.527962	0.155982
Zr17	Zr	0.990991	0.690412	-0.006460
Zr18	Zr	1.261008	0.324795	0.176339
O19	O	1.210647	0.623951	0.142254
O20	O	1.210627	0.623964	-0.088724
O21	O	0.826744	0.681859	0.113302
O22	O	1.425275	0.333335	0.287555
O23	O	1.425255	0.333348	0.056577
O24	O	1.041372	0.391242	0.258603
O25	O	1.425253	0.462467	0.056581
O26	O	1.210660	0.494826	0.271374
O27	O	1.041370	0.520361	0.258607
O28	O	1.425261	0.462461	0.158435
O29	O	1.041335	0.751351	-0.101488
O30	O	1.210664	0.263856	0.271367
O31	O	1.425276	0.231484	0.287552
O32	O	1.425265	0.231491	0.158428
O33	O	0.826734	0.783716	0.011451
O34	O	1.041346	0.751344	0.027636
O35	O	1.189180	0.422058	0.203721
O36	O	1.315513	0.403006	0.137236
O37	O	1.189165	0.574087	0.051699
O38	O	1.062832	0.593140	0.118184
C39	C	1.126003	0.304415	0.084933
C40	C	1.126004	0.235454	0.084931
C41	C	1.191946	0.193112	0.050225
C42	C	1.191950	0.128311	0.050231
C43	C	1.126005	0.105860	0.084937
C44	C	1.060061	0.148205	0.119648
C45	C	1.060065	0.212999	0.119647
C46	C	1.060047	-0.113102	0.119653
C47	C	1.060045	-0.177899	0.119649
C48	C	1.191932	-0.197790	0.050237
C49	C	1.191936	-0.132996	0.050236
C50	C	1.125998	-0.090660	0.084950
C51	C	1.125996	-0.020397	0.084945
C52	C	1.125999	0.035604	0.084938
C53	C	0.788273	0.558546	0.059470
C54	C	0.673652	0.575835	0.050826
C55	C	0.685227	0.498675	0.089404
C56	C	0.566762	0.516542	0.080470
C57	C	1.463726	0.456661	0.110409
C58	C	1.578347	0.439372	0.119053
C59	C	1.125982	0.507615	-0.118256
C60	C	1.125977	0.507619	-0.187219
C61	C	1.125996	0.710792	0.084946
C62	C	1.125995	0.779752	0.084948
C63	C	1.060023	0.596921	-0.264267
C64	C	1.060034	0.596917	-0.329061
C65	C	1.125992	0.507610	-0.316806
C66	C	1.191953	0.418301	-0.239750
C67	C	1.191949	0.418305	-0.174957
C68	C	1.191973	0.418283	-0.501052
C69	C	1.191969	0.418286	-0.565853
C70	C	1.060058	0.596895	-0.655155
C71	C	1.060054	0.596899	-0.590363
C72	C	1.126020	0.507589	-0.513312
C73	C	1.126010	0.507594	-0.443055
C74	C	1.125996	0.507605	-0.387062
C75	C	1.126017	0.507592	0.288135
C76	C	1.126022	0.507588	0.357098
C77	C	1.463730	0.253473	0.110403
C78	C	1.578352	0.167223	0.119045
C79	C	1.126020	0.304403	0.288129
C80	C	1.126027	0.235439	0.357090
C81	C	1.463747	0.253461	0.313599
C82	C	1.578375	0.167208	0.391204
C83	C	0.788252	0.761745	-0.143720
C84	C	0.673624	0.847999	-0.221325
C85	C	0.788269	0.761734	0.059476
C86	C	0.673647	0.847984	0.050834
C87	C	1.125979	0.710803	-0.118250
C88	C	1.125972	0.779767	-0.187211
C89	C	1.566229	0.136669	0.078445
C90	C	1.673919	0.055639	0.086549
C91	C	1.793730	0.005160	0.135258
C92	C	1.805851	0.035720	0.175859
C93	C	1.698163	0.116754	0.167750
C94	C	1.191982	0.193103	0.434133
C95	C	1.191983	0.128314	0.498934
C96	C	1.126037	0.105856	0.486692
C97	C	1.060075	0.148200	0.409641
C98	C	1.060066	0.212994	0.344840
C99	C	1.698162	0.116755	0.392944
C100	C	1.805877	0.035718	0.465857
C101	C	1.793804	0.005131	0.537028
C102	C	1.674005	0.055592	0.535285
C103	C	1.566292	0.136632	0.462373
C104	C	0.553837	0.898459	-0.223065
C105	C	0.446122	0.979516	-0.295978
C106	C	0.458195	1.010107	-0.367149
C107	C	0.577994	0.959642	-0.365406
C108	C	0.685707	0.878591	-0.292494
C109	C	0.685770	0.878545	0.091427
C110	C	0.578080	0.959593	0.083305
C111	C	0.458269	1.010074	0.034594
C112	C	0.446148	0.979510	-0.006004
C113	C	0.553836	0.898468	0.002114
C114	C	1.191931	0.802203	-0.174943
C115	C	1.191949	0.866989	-0.239731
C116	C	1.126000	0.909346	-0.316786
C117	C	1.060039	0.886904	-0.329053
C118	C	1.060029	0.822113	-0.264265
H119	H	1.006361	-0.078643	0.147923
Br120	Br	0.283554	1.047986	-0.298324
Br121	Br	1.126024	0.997277	-0.404705
Br122	Br	0.970531	0.718104	-0.759729
H123	H	1.245627	-0.232270	0.021974
Br124	Br	1.281443	0.744732	-0.070375
H125	H	1.006312	0.803855	-0.274265
H126	H	1.006383	0.129905	0.399684
H127	H	0.370592	1.076062	0.027991
Br128	Br	0.970530	0.944406	-0.433634
H129	H	1.006375	0.129915	0.147912
H130	H	0.543948	0.873590	-0.030941
Br131	Br	0.970577	0.270460	0.166755
Br132	Br	0.404070	0.648705	0.014400
Br133	Br	1.968445	-0.032750	0.468203
H134	H	0.587974	0.984463	0.116369
H135	H	1.006363	0.247456	0.282111
Br136	Br	0.283536	1.048029	-0.072107
Br137	Br	0.741037	0.307208	0.185126
Br138	Br	0.311999	1.120108	-0.466095
H139	H	0.543983	0.873560	-0.165121
Br140	Br	0.847918	0.366518	0.155499
H141	H	0.587810	0.984559	-0.423363
Br142	Br	1.968463	-0.032801	0.241964
Br143	Br	0.848271	0.810113	-0.290147
Br144	Br	1.714582	0.158252	0.296365
H145	H	1.245640	0.211391	0.021959
Br146	Br	0.510961	0.707992	-0.015242
Br147	Br	1.281513	0.070859	0.603494
H148	H	0.783317	0.837448	0.131097
Br149	Br	1.940001	-0.104854	0.635974
Br150	Br	1.939868	-0.104814	0.146254
Br151	Br	1.281426	-0.102522	0.003125
H152	H	1.245654	0.345586	-0.112221
Br153	Br	1.281468	0.897435	-0.223066
H154	H	1.006342	-0.196176	0.147914
Br155	Br	1.657439	0.014180	0.031444
Br156	Br	1.281418	0.070870	0.003108
H157	H	1.006305	0.669646	-0.274255
H158	H	1.006331	0.669635	-0.391795
H159	H	1.006340	0.669622	-0.600349
H160	H	1.126055	0.053096	0.539464
Br161	Br	1.657641	0.014069	0.631883
H162	H	1.468760	0.177702	0.460967
Br163	Br	1.281487	0.297076	-0.549217
H164	H	1.245687	0.345561	-0.438322
Br165	Br	1.714639	0.158204	0.222862
Br166	Br	1.281474	0.297096	-0.223117
H167	H	1.245683	0.211380	0.444116
H168	H	1.468682	0.177768	0.038773
