data_functionalizedCrystal
_audit_creation_method	'MofGen! by Chris Wilmer'
_symmetry_space_group_name_H-M	'P1'
_symmetry_Int_Tables_number	1
_symmetry_cell_setting	triclinic
loop_
_symmetry_equiv_pos_as_xyz
  x,y,z
_cell_length_a	19.077105
_cell_length_b	16.959454
_cell_length_c	19.077174
_cell_angle_alpha	92.276377
_cell_angle_beta	85.483752
_cell_angle_gamma	87.716588
loop_
_atom_site_label
_atom_site_type_symbol
_atom_site_fract_x
_atom_site_fract_y
_atom_site_fract_z
Zn1	Zn	1.093734	-0.384059	-0.441867
Zn2	Zn	1.593734	0.115941	0.058133
Zn3	Zn	1.088928	-0.510707	-0.323986
Zn4	Zn	1.588928	-0.010707	0.176014
Zn5	Zn	0.971118	-0.373009	-0.319263
Zn6	Zn	1.471118	0.126991	0.180737
Zn7	Zn	0.975822	-0.510655	-0.437104
Zn8	Zn	1.475822	-0.010655	0.062896
O9	O	1.032400	-0.444608	-0.380555
O10	O	1.532400	0.055392	0.119445
O11	O	1.191747	-0.405505	-0.430199
O12	O	1.691747	0.094495	0.069801
O13	O	1.069320	-0.487839	-0.224710
O14	O	1.569320	0.012161	0.275290
O15	O	0.987426	-0.263867	-0.335543
O16	O	1.487426	0.236133	0.164457
O17	O	1.188216	-0.498553	-0.343593
O18	O	1.688216	0.001447	0.156407
O19	O	1.077511	-0.271985	-0.425619
O20	O	1.577511	0.228015	0.074381
O21	O	0.982766	-0.386673	-0.221240
O22	O	1.482766	0.113327	0.278760
O23	O	0.873091	-0.386623	-0.330926
O24	O	1.373091	0.113377	0.169074
O25	O	0.995443	-0.498465	-0.536386
O26	O	1.495443	0.001535	-0.036386
O27	O	0.876547	-0.487751	-0.417503
O28	O	1.376547	0.012249	0.082497
O29	O	1.082072	-0.405455	-0.539885
O30	O	1.582072	0.094545	-0.039885
O31	O	1.073881	-0.621309	-0.338975
O32	O	1.573881	-0.121309	0.161025
O33	O	0.990783	-0.621271	-0.422082
O34	O	1.490783	-0.121271	0.077918
C35	C	0.849240	-0.435983	-0.373185
C36	C	1.349240	0.064017	0.126815
C37	C	0.770884	-0.432312	-0.370049
C38	C	1.270884	0.067688	0.129951
C39	C	0.735888	-0.483313	-0.413581
C40	C	1.235888	0.016687	0.086419
C41	C	0.662264	-0.479854	-0.410638
C42	C	1.162264	0.020146	0.089362
C43	C	0.623638	-0.425398	-0.364158
C44	C	1.123638	0.074602	0.135842
C45	C	0.658640	-0.374392	-0.320625
C46	C	1.158640	0.125608	0.179375
C47	C	0.732263	-0.377848	-0.323572
C48	C	1.232263	0.122152	0.176428
C49	C	0.403256	-0.409407	-0.350521
C50	C	0.903256	0.090593	0.149479
C51	C	0.329629	-0.405957	-0.347575
C52	C	0.829629	0.094043	0.152425
C53	C	0.333258	-0.511418	-0.437590
C54	C	0.833258	-0.011418	0.062410
C55	C	0.406881	-0.514872	-0.440530
C56	C	0.906881	-0.014872	0.059470
C57	C	0.441877	-0.463863	-0.396999
C58	C	0.941877	0.036137	0.103001
N59	N	0.548383	-0.421864	-0.361147
N60	N	1.048383	0.078136	0.138853
N61	N	0.517131	-0.467395	-0.400014
N62	N	1.017131	0.032605	0.099986
C63	C	1.032341	-0.649971	-0.380541
C64	C	1.532341	-0.149971	0.119459
C65	C	1.032381	-0.737830	-0.380561
C66	C	1.532381	-0.237830	0.119439
C67	C	0.989196	-1.109319	-0.423827
C68	C	1.489196	-0.609319	0.076173
C69	C	1.075804	-1.109306	-0.337363
C70	C	1.575804	-0.609306	0.162637
C71	C	1.075779	-1.026758	-0.337356
C72	C	1.575779	-0.526758	0.162644
C73	C	1.032461	-0.985487	-0.380584
C74	C	1.532461	-0.485487	0.119416
C75	C	0.989168	-1.026764	-0.423819
C76	C	1.489168	-0.526764	0.076181
C77	C	1.119066	-0.985475	-0.294116
C78	C	1.619066	-0.485475	0.205884
C79	C	1.119042	-0.902923	-0.294106
C80	C	1.619042	-0.402923	0.205894
C81	C	1.075727	-0.861651	-0.337338
C82	C	1.575727	-0.361651	0.162662
C83	C	1.032433	-0.902932	-0.380576
C84	C	1.532433	-0.402932	0.119424
C85	C	0.989116	-0.861662	-0.423804
C86	C	1.489116	-0.361662	0.076196
C87	C	0.945825	-0.902942	-0.467046
C88	C	1.445825	-0.402942	0.032954
C89	C	0.945854	-0.985492	-0.467051
C90	C	1.445854	-0.485492	0.032949
C91	C	1.075698	-0.779101	-0.337333
C92	C	1.575698	-0.279101	0.162667
C93	C	0.989088	-0.779106	-0.423796
C94	C	1.489088	-0.279106	0.076204
C95	C	1.216275	-0.453267	-0.387954
C96	C	1.716275	0.046733	0.112046
C97	C	1.294632	-0.456957	-0.391107
C98	C	1.794632	0.043043	0.108893
C99	C	1.039818	-0.453186	-0.564429
C100	C	1.539818	0.046814	-0.064429
C101	C	1.042979	-0.456842	-0.642786
C102	C	1.542979	0.043158	-0.142786
C103	C	1.032480	-0.238444	-0.380586
C104	C	1.532480	0.261556	0.119414
C105	C	1.032514	-0.150590	-0.380599
C106	C	1.532514	0.349410	0.119401
C107	C	0.999402	-0.405889	-0.677791
C108	C	1.499402	0.094111	-0.177791
C109	C	1.002370	-0.409330	-0.751415
C110	C	1.502370	0.090670	-0.251415
C111	C	1.048919	-0.463722	-0.790032
C112	C	1.548919	0.036278	-0.290032
C113	C	1.092497	-0.514680	-0.755023
C114	C	1.592497	-0.014680	-0.255023
C115	C	1.089526	-0.511242	-0.681400
C116	C	1.589526	-0.011242	-0.181400
C117	C	1.062635	-0.479656	-1.010415
C118	C	1.562635	0.020344	-0.510415
C119	C	1.065604	-0.483088	-1.084043
C120	C	1.565604	0.016912	-0.584043
C121	C	0.975475	-0.377739	-1.080429
C122	C	1.475475	0.122261	-0.580429
C123	C	0.972511	-0.374303	-1.006806
C124	C	1.472511	0.125697	-0.506806
C125	C	1.016087	-0.425264	-0.971802
C126	C	1.516087	0.074736	-0.471802
N127	N	1.051954	-0.467239	-0.865288
N128	N	1.551954	0.032761	-0.365288
N129	N	1.013047	-0.421750	-0.896548
N130	N	1.513047	0.078250	-0.396548
C131	C	1.025052	-0.436007	-0.197398
C132	C	1.525052	0.063993	0.302602
C133	C	1.022027	-0.432135	-0.119047
C134	C	1.522027	0.067865	0.380953
H135	H	0.431741	-0.367877	-0.315070
H136	H	0.931741	0.132123	0.184930
Cl137	Cl	1.117422	-0.543716	-0.966420
Cl138	Cl	1.617422	-0.043716	-0.466420
Cl139	Cl	1.130258	-1.161190	-0.283023
Cl140	Cl	1.630258	-0.661190	0.216977
H141	H	1.130395	-0.558971	-0.786471
H142	H	1.630395	-0.058971	-0.286471
H143	H	1.103513	-0.527382	-1.115484
H144	H	1.603513	-0.027382	-0.615484
Cl145	Cl	0.455433	-0.583336	-0.498961
Cl146	Cl	0.955433	-0.083336	0.001039
Cl147	Cl	0.947551	-0.345307	-0.795416
Cl148	Cl	1.447551	0.154693	-0.295416
Cl149	Cl	0.934632	-0.727230	-0.478147
Cl150	Cl	1.434632	-0.227230	0.021853
Cl151	Cl	0.891367	-0.851049	-0.521384
Cl152	Cl	1.391367	-0.351049	-0.021384
Cl153	Cl	1.173470	-0.851035	-0.239752
Cl154	Cl	1.673470	-0.351035	0.260248
Cl155	Cl	1.130109	-0.727208	-0.282968
Cl156	Cl	1.630109	-0.227208	0.217032
H157	H	0.961501	-0.361593	-0.646353
H158	H	1.461501	0.138407	-0.146353
H159	H	1.125016	-0.552728	-0.652900
H160	H	1.625016	-0.052728	-0.152900
Cl161	Cl	0.776259	-0.313728	-0.268846
Cl162	Cl	1.276259	0.186272	0.231154
Cl163	Cl	0.934780	-1.161212	-0.478189
Cl164	Cl	1.434780	-0.661212	0.021811
Cl165	Cl	0.784438	-0.551780	-0.472012
Cl166	Cl	1.284438	-0.051780	0.027988
H167	H	0.633773	-0.521385	-0.446085
H168	H	1.133773	-0.021385	0.053915
H169	H	0.627186	-0.330050	-0.282783
H170	H	1.127186	0.169950	0.217217
Cl171	Cl	1.173523	-1.037362	-0.239780
Cl172	Cl	1.673523	-0.537362	0.260220
H173	H	0.934604	-0.330013	-0.975368
H174	H	1.434604	0.169987	-0.475368
Cl175	Cl	0.891435	-1.037392	-0.521406
Cl176	Cl	1.391435	-0.537392	-0.021406
H177	H	0.304756	-0.552946	-0.473031
H178	H	0.804756	-0.052946	0.026969
Cl179	Cl	0.281072	-0.337498	-0.289135
Cl180	Cl	0.781072	0.162502	0.210865
H181	H	0.939997	-0.336250	-1.108937
H182	H	1.439997	0.163750	-0.608937
