data_functionalizedCrystal
_audit_creation_method	'MofGen! by Chris Wilmer'
_symmetry_space_group_name_H-M	'P1'
_symmetry_Int_Tables_number	1
_symmetry_cell_setting	triclinic
loop_
_symmetry_equiv_pos_as_xyz
  x,y,z
_cell_length_a	42.795305
_cell_length_b	42.779731
_cell_length_c	42.784679
_cell_angle_alpha	59.996162
_cell_angle_beta	59.995855
_cell_angle_gamma	59.987717
loop_
_atom_site_label
_atom_site_type_symbol
_atom_site_fract_x
_atom_site_fract_y
_atom_site_fract_z
O1	O	-0.490048	0.214456	0.009323
O2	O	-0.380608	0.168996	-0.009234
O3	O	-0.444593	0.168994	0.054771
O4	O	-0.426062	0.214458	-0.054682
O5	O	-0.444606	0.220991	0.054771
O6	O	-0.380620	0.220993	-0.009235
O7	O	-0.490060	0.266453	0.009323
Zn8	Zn	-0.435342	0.251978	0.000044
Zn9	Zn	-0.435326	0.183470	0.000045
O10	O	-0.426075	0.266454	-0.054683
C11	C	-0.073788	0.022783	-0.028109
C12	C	-0.054900	0.041770	-0.028373
C13	C	-0.130386	0.079395	-0.028109
C14	C	-0.111413	0.098297	-0.028374
C15	C	-0.073802	0.079395	-0.028109
C16	C	-0.111399	0.041771	-0.028374
C17	C	-0.039203	-0.113737	-0.017861
C18	C	-0.021383	-0.152398	-0.014964
C19	C	0.015887	-0.171792	-0.013509
C20	C	0.035207	-0.213713	-0.010360
C21	C	0.035338	-0.152522	-0.014955
C22	C	0.017521	-0.113863	-0.017857
C23	C	-0.019752	-0.094470	-0.019310
C24	C	0.017844	0.113965	-0.017861
C25	C	0.035775	0.131784	-0.014963
C26	C	0.016433	0.169066	-0.013507
C27	C	0.035868	0.188388	-0.010360
C28	C	-0.020843	0.188532	-0.014954
C29	C	-0.038770	0.170716	-0.017858
C30	C	-0.019423	0.133429	-0.019309
C31	C	-0.266849	0.113966	-0.017864
C32	C	-0.305498	0.131784	-0.014962
C33	C	-0.324892	0.169068	-0.013508
C34	C	-0.366797	0.188388	-0.010360
C35	C	-0.305637	0.188532	-0.014952
C36	C	-0.266990	0.170712	-0.017852
C37	C	-0.247598	0.133430	-0.019312
C38	C	-0.039070	-0.052551	-0.022454
C39	C	-0.054469	-0.019137	-0.024962
C40	C	-0.172290	0.098714	-0.024963
C41	C	-0.205692	0.114113	-0.022456
C42	C	-0.054363	0.098713	-0.024962
C43	C	-0.038867	0.114112	-0.022454
C44	C	-0.407253	0.356306	-0.304936
C45	C	-0.406999	0.393931	-0.323919
C46	C	-0.407261	0.356308	-0.361532
C47	C	-0.407007	0.393933	-0.380429
C48	C	-0.407273	0.412920	-0.361533
C49	C	-0.406988	0.337406	-0.323918
C50	C	-0.417460	0.264601	-0.168452
C51	C	-0.420348	0.246655	-0.129801
C52	C	-0.421804	0.265998	-0.110412
C53	C	-0.424942	0.246545	-0.068502
C54	C	-0.420368	0.303288	-0.129678
C55	C	-0.417475	0.321229	-0.168327
C56	C	-0.416022	0.301883	-0.187714
C57	C	-0.417551	0.549439	-0.396092
C58	C	-0.420459	0.588101	-0.413906
C59	C	-0.421924	0.607498	-0.451178
C60	C	-0.425081	0.649417	-0.470494
C61	C	-0.420477	0.588229	-0.470637
C62	C	-0.417563	0.549567	-0.452827
C63	C	-0.416103	0.530175	-0.415550
C64	C	-0.417492	0.264609	-0.396088
C65	C	-0.420393	0.246667	-0.413899
C66	C	-0.421856	0.266013	-0.451172
C67	C	-0.425003	0.246562	-0.470485
C68	C	-0.420422	0.303301	-0.470631
C69	C	-0.417523	0.321241	-0.452818
C70	C	-0.416055	0.301890	-0.415547
C71	C	-0.412889	0.321342	-0.229622
C72	C	-0.410390	0.336851	-0.263028
C73	C	-0.410406	0.336855	-0.380843
C74	C	-0.412912	0.321348	-0.396237
C75	C	-0.410431	0.454840	-0.380845
C76	C	-0.412947	0.488254	-0.396240
O77	O	0.061388	0.266455	0.009318
O78	O	0.015960	0.220990	-0.009230
O79	O	0.015953	0.220993	0.054772
O80	O	0.061395	0.266452	-0.054684
O81	O	0.067937	0.168996	0.054772
O82	O	0.067944	0.168993	-0.009229
O83	O	0.113372	0.214458	0.009319
Zn84	Zn	0.098912	0.183470	0.000045
Zn85	Zn	0.030420	0.251978	0.000044
O86	O	0.113379	0.214455	-0.054683
C87	C	0.203120	0.412666	0.028198
C88	C	0.240731	0.393678	0.028462
C89	C	0.203134	0.356053	0.028198
C90	C	0.240745	0.337152	0.028462
C91	C	0.259718	0.356053	0.028198
C92	C	0.184232	0.393678	0.028462
C93	C	0.111431	0.549186	0.017949
C94	C	0.093487	0.587847	0.015052
C95	C	0.112817	0.607241	0.013598
C96	C	0.093365	0.649162	0.010449
C97	C	0.150092	0.587971	0.015044
C98	C	0.168032	0.549311	0.017947
C99	C	0.148700	0.529919	0.019399
C100	C	0.396181	0.321482	0.017953
C101	C	0.434828	0.303663	0.015056
C102	C	0.454224	0.266380	0.013600
C103	C	0.496128	0.247059	0.010454
C104	C	0.434968	0.246915	0.015046
C105	C	0.396321	0.264731	0.017949
C106	C	0.376930	0.302019	0.019400
C107	C	0.111487	0.321484	0.017949
C108	C	0.093558	0.303667	0.015047
C109	C	0.112903	0.266382	0.013593
C110	C	0.093465	0.247062	0.010444
C111	C	0.150176	0.246918	0.015038
C112	C	0.168104	0.264737	0.017938
C113	C	0.148755	0.302020	0.019398
C114	C	0.168158	0.487999	0.022543
C115	C	0.183666	0.454585	0.025050
C116	C	0.183695	0.336735	0.025050
C117	C	0.168199	0.321337	0.022543
C118	C	0.301622	0.336735	0.025052
C119	C	0.335024	0.321336	0.022545
C120	C	-0.073826	0.022795	0.361639
C121	C	-0.111439	0.041783	0.380537
C122	C	-0.073835	0.079406	0.305039
C123	C	-0.111448	0.098308	0.324023
C124	C	-0.130425	0.079407	0.361639
C125	C	-0.054935	0.041782	0.324023
C126	C	0.017862	-0.113723	0.396201
C127	C	0.035806	-0.152384	0.414016
C128	C	0.016472	-0.171777	0.451292
C129	C	0.035923	-0.213697	0.470608
C130	C	-0.020806	-0.152506	0.470754
C131	C	-0.038745	-0.113847	0.452940
C132	C	-0.019409	-0.094456	0.415662
C133	C	-0.266896	0.113979	0.453321
C134	C	-0.305544	0.131799	0.471262
C135	C	-0.324938	0.169080	0.451923
C136	C	-0.366844	0.188402	0.471370
C137	C	-0.305679	0.188545	0.414642
C138	C	-0.267030	0.170729	0.396705
C139	C	-0.247641	0.133442	0.416048
C140	C	0.017826	0.113971	0.168548
C141	C	0.035759	0.131787	0.129893
C142	C	0.016417	0.169071	0.110503
C143	C	0.035858	0.188389	0.068591
C144	C	-0.020860	0.188535	0.129768
C145	C	-0.038791	0.170717	0.168421
C146	C	-0.019443	0.133436	0.187809
C147	C	-0.038866	-0.052537	0.396349
C148	C	-0.054373	-0.019123	0.380953
C149	C	-0.054391	0.098723	0.263129
C150	C	-0.038892	0.114120	0.229721
C151	C	-0.172331	0.098726	0.381089
C152	C	-0.205734	0.114125	0.396594
O153	O	0.061282	0.726998	-0.054684
O154	O	0.015834	0.708452	0.054772
O155	O	0.015826	0.772464	-0.009230
O156	O	0.061290	0.662986	0.009318
O157	O	0.067797	0.772462	-0.009229
O158	O	0.067805	0.708450	0.054772
O159	O	0.113254	0.726997	-0.054683
Zn160	Zn	0.098781	0.717723	0.000045
Zn161	Zn	0.030306	0.717725	0.000044
O162	O	0.113262	0.662984	0.009319
O163	O	-0.380667	0.221004	0.451464
O164	O	-0.490110	0.266464	0.496913
O165	O	-0.426132	0.266469	0.496918
O166	O	-0.444646	0.220998	0.451459
O167	O	-0.426123	0.214474	0.548904
O168	O	-0.490102	0.214469	0.548899
O169	O	-0.380659	0.169009	0.503450
Zn170	Zn	-0.435379	0.183484	0.534428
Zn171	Zn	-0.435390	0.251989	0.465935
O172	O	-0.444637	0.169003	0.503445
O173	O	-0.444792	0.772720	-0.548536
O174	O	-0.426219	0.663241	-0.503087
O175	O	-0.490222	0.727253	-0.503074
O176	O	-0.380789	0.708708	-0.548549
O177	O	-0.490215	0.727252	-0.451093
O178	O	-0.426212	0.663240	-0.451105
O179	O	-0.444785	0.772718	-0.496555
Zn180	Zn	-0.435497	0.717979	-0.465577
Zn181	Zn	-0.435507	0.717981	-0.534064
O182	O	-0.380782	0.708707	-0.496567
C183	C	-0.463442	0.079149	0.361631
C184	C	-0.463697	0.041525	0.380528
C185	C	-0.463442	0.079150	0.305032
C186	C	-0.463697	0.041525	0.324015
C187	C	-0.463428	0.022537	0.361630
C188	C	-0.463711	0.098051	0.324015
C189	C	-0.453220	0.170850	0.396192
C190	C	-0.450327	0.188795	0.414006
C191	C	-0.448868	0.169450	0.451281
C192	C	-0.445725	0.188902	0.470596
C193	C	-0.450305	0.132161	0.470742
C194	C	-0.453202	0.114221	0.452929
C195	C	-0.454660	0.133568	0.415652
C196	C	-0.453149	-0.113982	0.453307
C197	C	-0.450243	-0.152643	0.471247
C198	C	-0.448783	-0.172039	0.451908
C199	C	-0.445626	-0.213958	0.471353
C200	C	-0.450234	-0.152769	0.414628
C201	C	-0.453146	-0.114108	0.396692
C202	C	-0.454602	-0.094717	0.416036
C203	C	-0.453221	0.170851	0.168544
C204	C	-0.450324	0.188794	0.129891
C205	C	-0.448866	0.169450	0.110501
C206	C	-0.445723	0.188902	0.068590
C207	C	-0.450301	0.132163	0.129765
C208	C	-0.453196	0.114221	0.168417
C209	C	-0.454660	0.133571	0.187805
C210	C	-0.457798	0.114111	0.396339
C211	C	-0.460301	0.098603	0.380944
C212	C	-0.460301	0.098604	0.263122
C213	C	-0.457799	0.114112	0.229716
C214	C	-0.460272	-0.019382	0.381079
C215	C	-0.457757	-0.052796	0.396582
C216	C	0.259510	0.356288	-0.361551
C217	C	0.240524	0.393912	-0.380448
C218	C	0.202920	0.356289	-0.304950
C219	C	0.184020	0.393913	-0.323933
C220	C	0.202911	0.412900	-0.361550
C221	C	0.240533	0.337388	-0.323934
C222	C	0.395990	0.264588	-0.396115
C223	C	0.434639	0.246643	-0.413930
C224	C	0.454022	0.265987	-0.451207
C225	C	0.495929	0.246535	-0.470523
C226	C	0.434753	0.303275	-0.470668
C227	C	0.396106	0.321215	-0.452854
C228	C	0.376725	0.301869	-0.415576
C229	C	0.168331	0.549417	-0.453231
C230	C	0.150513	0.588078	-0.471171
C231	C	0.113241	0.607474	-0.451832
C232	C	0.093920	0.649393	-0.471277
C233	C	0.093787	0.588204	-0.414550
C234	C	0.111602	0.549544	-0.396613
C235	C	0.148878	0.530153	-0.415958
C236	C	0.168379	0.264592	-0.168460
C237	C	0.150571	0.246650	-0.129805
C238	C	0.113298	0.265995	-0.110414
C239	C	0.093989	0.246544	-0.068502
C240	C	0.093836	0.303281	-0.129678
C241	C	0.111645	0.321222	-0.168331
C242	C	0.148917	0.301872	-0.187720
C243	C	0.334819	0.321327	-0.396261
C244	C	0.301416	0.336834	-0.380866
C245	C	0.183613	0.336837	-0.263040
C246	C	0.168222	0.321330	-0.229633
C247	C	0.183593	0.454819	-0.380999
C248	C	0.168195	0.488232	-0.396504
C249	C	-0.130345	0.689617	0.361630
C250	C	-0.111369	0.689355	0.380527
C251	C	-0.073752	0.689608	0.305032
C252	C	-0.054862	0.689346	0.324015
C253	C	-0.073760	0.689616	0.361630
C254	C	-0.111361	0.689347	0.324014
C255	C	-0.266806	0.699875	0.396188
C256	C	-0.305451	0.702776	0.414002
C257	C	-0.324841	0.704237	0.451276
C258	C	-0.366746	0.707390	0.470591
C259	C	-0.305583	0.702793	0.470737
C260	C	-0.266939	0.699887	0.452925
C261	C	-0.247550	0.698428	0.415649
C262	C	-0.039221	0.699878	0.453308
C263	C	-0.021414	0.702778	0.471248
C264	C	0.015853	0.704231	0.451910
C265	C	0.035162	0.707381	0.471356
C266	C	0.035314	0.702779	0.414631
C267	C	0.017510	0.699872	0.396694
C268	C	-0.019761	0.698424	0.416037
C269	C	-0.039182	0.699837	0.168544
C270	C	-0.021369	0.702734	0.129891
C271	C	0.015900	0.704185	0.110501
C272	C	0.035215	0.707327	0.068590
C273	C	0.035351	0.702742	0.129766
C274	C	0.017537	0.699847	0.168418
C275	C	-0.019730	0.698391	0.187805
C276	C	-0.205648	0.695279	0.396336
C277	C	-0.172247	0.692769	0.380942
C278	C	-0.054438	0.692749	0.263122
C279	C	-0.039043	0.695251	0.229716
C280	C	-0.054454	0.692766	0.381079
C281	C	-0.039065	0.695276	0.396583
O282	O	0.061483	-0.336999	0.548651
O283	O	0.016022	-0.227520	0.503203
O284	O	0.016037	-0.291530	0.503195
O285	O	0.061469	-0.272989	0.548659
O286	O	0.068015	-0.291531	0.451210
O287	O	0.068000	-0.227520	0.451218
O288	O	0.113461	-0.336999	0.496667
Zn289	Zn	0.098983	-0.282260	0.465689
Zn290	Zn	0.030500	-0.282259	0.534181
O291	O	0.113446	-0.272989	0.496675
C292	C	0.203091	0.745833	-0.361542
C293	C	0.240701	0.746093	-0.380438
C294	C	0.203084	0.745841	-0.304943
C295	C	0.240693	0.746101	-0.323925
C296	C	0.259677	0.745831	-0.361541
C297	C	0.184194	0.746103	-0.323926
C298	C	0.111441	0.735582	-0.396103
C299	C	0.093508	0.732682	-0.413918
C300	C	0.112848	0.731222	-0.451192
C301	C	0.093408	0.728070	-0.470507
C302	C	0.150122	0.732664	-0.470653
C303	C	0.168050	0.735569	-0.452840
C304	C	0.148708	0.737028	-0.415563
C305	C	0.396146	0.735564	-0.453216
C306	C	0.434791	0.732662	-0.471156
C307	C	0.454176	0.731208	-0.451817
C308	C	0.496078	0.728056	-0.471262
C309	C	0.434909	0.732660	-0.414537
C310	C	0.396264	0.735568	-0.396601
C311	C	0.376884	0.737018	-0.415945
C312	C	0.111410	0.735614	-0.168456
C313	C	0.093471	0.732717	-0.129803
C314	C	0.112804	0.731264	-0.110413
C315	C	0.093357	0.728121	-0.068502
C316	C	0.150076	0.732705	-0.129676
C317	C	0.168014	0.735600	-0.168328
C318	C	0.148676	0.737058	-0.187716
C319	C	0.168152	0.740174	-0.396250
C320	C	0.183650	0.742683	-0.380855
C321	C	0.183634	0.742700	-0.263034
C322	C	0.168130	0.740197	-0.229627
C323	C	0.301579	0.742679	-0.380989
C324	C	0.334980	0.740168	-0.396492
H325	H	-0.023997	0.026525	-0.028801
H326	H	0.450691	0.731482	-0.398793
N327	N	0.143300	0.413869	0.029021
H328	H	0.134153	0.440638	0.029143
H329	H	0.126615	0.399210	0.052749
N330	N	-0.131529	0.688770	0.303822
H331	H	-0.132920	0.712242	0.280170
H332	H	-0.158275	0.688633	0.321587
N333	N	0.075550	0.704303	0.108858
H334	H	0.076196	0.727346	0.109319
H335	H	0.083863	0.706340	0.081460
N336	N	0.208244	0.737135	-0.473830
H337	H	0.217776	0.735772	-0.500147
H338	H	0.225574	0.714796	-0.459023
N339	N	0.075974	0.110790	-0.013399
H340	H	0.085508	0.084466	-0.014758
H341	H	0.075990	0.108296	0.011347
H342	H	0.095731	0.351842	0.019135
H343	H	0.380395	0.351841	0.019137
H344	H	0.450504	0.319516	0.013874
N345	N	0.375484	0.737138	-0.356398
H346	H	0.393625	0.735777	-0.346867
H347	H	0.365691	0.714798	-0.339068
H348	H	0.198361	0.736775	-0.184011
H349	H	0.095686	0.533400	0.019133
N350	N	-0.246257	0.191721	0.356500
H351	H	-0.264405	0.218043	0.346969
H352	H	-0.236456	0.176910	0.339171
H353	H	-0.321130	0.703959	0.398152
H354	H	0.450324	0.216284	-0.398083
N355	N	0.375083	0.243723	-0.355912
H356	H	0.365278	0.258559	-0.338604
H357	H	0.393169	0.217381	-0.346320
N358	N	-0.041706	0.228746	-0.013392
H359	H	-0.024694	0.237081	-0.011335
H360	H	-0.065853	0.229371	0.009643
N361	N	0.143084	0.414106	-0.303747
H362	H	0.133939	0.440871	-0.321493
H363	H	0.141545	0.415477	-0.280102
H364	H	0.450475	0.731479	-0.501507
N365	N	-0.454753	0.074009	0.189194
H366	H	-0.432418	0.056645	0.198991
H367	H	-0.453404	0.064514	0.171026
N368	N	0.090655	0.361436	-0.189109
H369	H	0.064341	0.370969	-0.170961
H370	H	0.088163	0.361458	-0.211380
H371	H	0.450759	0.216556	0.013865
H372	H	-0.421517	0.216295	-0.114118
N373	N	-0.421997	0.324175	-0.510835
H374	H	-0.446735	0.326650	-0.510840
H375	H	-0.399644	0.309329	-0.528125
N376	N	0.170933	0.731136	-0.108765
H377	H	0.153916	0.729083	-0.081357
H378	H	0.177774	0.755185	-0.121734
N379	N	-0.326593	0.228755	0.393782
H380	H	-0.308529	0.238381	0.367445
H381	H	-0.336401	0.246039	0.408644
H382	H	0.450538	0.319021	-0.501018
H383	H	-0.069142	0.186568	0.184104
N384	N	-0.422025	0.608884	-0.392918
H385	H	-0.420660	0.590732	-0.366602
H386	H	-0.446771	0.631156	-0.390419
N387	N	0.038716	-0.092807	0.355998
H388	H	0.045567	-0.105746	0.338043
H389	H	0.062843	-0.093272	0.355383
H390	H	0.255927	0.746527	-0.308683
N391	N	-0.245985	0.073768	0.474188
H392	H	-0.223715	0.073766	0.476658
H393	H	-0.236204	0.056477	0.459343
N394	N	-0.078970	0.191709	-0.019421
H395	H	-0.088505	0.218031	-0.018059
H396	H	-0.096291	0.176898	0.002918
N397	N	0.170939	0.608885	0.013480
H398	H	0.153919	0.636301	0.011422
H399	H	0.195086	0.608392	-0.009555
N400	N	0.375552	0.243738	0.019513
H401	H	0.393700	0.217415	0.018152
H402	H	0.365755	0.258548	-0.002825
N403	N	-0.326552	0.228748	-0.013390
H404	H	-0.308489	0.238373	-0.014747
H405	H	-0.348826	0.228728	0.011353
N406	N	-0.448777	0.229009	0.393016
H407	H	-0.425748	0.229610	0.368862
H408	H	-0.446736	0.237416	0.409985
H409	H	-0.023962	0.688920	0.308772
N410	N	0.375324	0.361428	-0.473841
H411	H	0.393466	0.370961	-0.500158
H412	H	0.365524	0.378759	-0.459032
H413	H	-0.464133	0.128961	0.308772
N414	N	-0.131578	0.021581	-0.028938
H415	H	-0.155222	0.020192	-0.005465
H416	H	-0.113808	-0.005176	-0.029075
N417	N	0.171565	0.206435	-0.109031
H418	H	0.156792	0.189076	-0.099233
H419	H	0.174087	0.206415	-0.086778
N420	N	-0.448735	0.111300	0.510944
H421	H	-0.423996	0.108827	0.510947
H422	H	-0.450102	0.084970	0.520545
H423	H	-0.421551	0.319033	-0.113889
H424	H	0.063438	0.603996	-0.398805
N425	N	0.208233	0.528527	0.019505
H426	H	0.208288	0.506253	0.044249
H427	H	0.217735	0.546705	0.018128
N428	N	-0.415976	0.361457	-0.473808
H429	H	-0.392950	0.362061	-0.497964
H430	H	-0.413934	0.369864	-0.456840
H431	H	-0.449060	-0.168330	0.501599
H432	H	-0.251314	0.186565	-0.019033
N433	N	0.075534	-0.173438	-0.013385
H434	H	0.092842	-0.183246	-0.035720
H435	H	0.075505	-0.195699	0.011374
N436	N	-0.326266	0.110791	-0.013400
H437	H	-0.308116	0.084469	-0.014764
H438	H	-0.336063	0.125602	-0.035738
N439	N	-0.448732	0.111296	0.108856
H440	H	-0.446683	0.128320	0.081448
H441	H	-0.472773	0.104452	0.121827
N442	N	0.076008	-0.173167	0.393028
H443	H	0.085534	-0.155016	0.366711
H444	H	0.076036	-0.195442	0.390533
N445	N	-0.131604	0.139244	-0.028933
H446	H	-0.158362	0.148389	-0.029055
H447	H	-0.116953	0.155938	-0.052660
H448	H	-0.251062	0.083609	-0.019051
H449	H	0.198680	0.533631	-0.468984
N450	N	0.075510	0.704341	0.393767
H451	H	0.092817	0.682002	0.408601
H452	H	0.075476	0.729106	0.391293
N453	N	-0.326494	0.704366	0.510939
H454	H	-0.353898	0.706427	0.519270
H455	H	-0.326005	0.727408	0.511557
H456	H	0.063486	0.319033	-0.113888
H457	H	-0.421664	0.604021	-0.500988
N458	N	-0.131558	0.688803	0.421463
H459	H	-0.113817	0.688676	0.430605
H460	H	-0.139180	0.665076	0.438159
N461	N	0.260942	0.296205	0.029021
H462	H	0.243208	0.287060	0.029142
H463	H	0.268562	0.279510	0.052749
H464	H	-0.406590	0.409177	-0.411334
H465	H	-0.454373	0.083862	0.468776
N466	N	0.260909	0.413866	0.029030
H467	H	0.243166	0.440634	0.029153
H468	H	0.284554	0.415228	0.005557
N469	N	0.170979	0.731087	-0.510852
H470	H	0.195127	0.708043	-0.511498
H471	H	0.177794	0.755149	-0.528786
H472	H	-0.416303	0.351587	-0.184011
N473	N	0.208304	0.243744	0.019500
H474	H	0.217838	0.217421	0.018140
H475	H	0.208322	0.241250	0.044245
H476	H	0.063138	0.603534	0.013872
N477	N	-0.042349	0.704293	0.109112
H478	H	-0.068660	0.702932	0.127260
H479	H	-0.027538	0.681948	0.099317
H480	H	0.033358	0.698689	0.366342
N481	N	-0.415974	0.528523	-0.355891
H482	H	-0.417331	0.546595	-0.346267
H483	H	-0.391230	0.506242	-0.355921
N484	N	0.075965	0.110796	0.109118
H485	H	0.084390	0.127740	0.081690
H486	H	0.076552	0.086635	0.109664
N487	N	0.053359	0.324660	0.013485
H488	H	0.043823	0.350981	0.014849
H489	H	0.036038	0.309848	0.035823
H490	H	0.033601	0.083606	-0.019044
N491	N	-0.416026	0.528792	-0.473804
H492	H	-0.417404	0.546946	-0.500115
H493	H	-0.438366	0.519004	-0.458977
N494	N	0.260889	0.746657	-0.421378
H495	H	0.243153	0.746781	-0.430523
H496	H	0.284537	0.723178	-0.422915
H497	H	0.095687	0.736771	-0.365752
H498	H	-0.454408	0.186607	0.365841
H499	H	0.063161	0.731507	-0.398070
N500	N	-0.131622	0.021595	0.421477
H501	H	-0.113880	-0.005172	0.430621
H502	H	-0.155264	0.020233	0.423012
N503	N	0.171045	0.206705	0.013467
H504	H	0.154034	0.198369	0.011410
H505	H	0.177891	0.188777	0.037513
H506	H	0.033360	-0.098176	-0.019036
H507	H	-0.454337	-0.098196	0.469060
H508	H	-0.321223	0.115947	0.501615
H509	H	-0.069551	-0.097951	-0.019045
N510	N	-0.079379	0.698273	0.189450
H511	H	-0.096686	0.720616	0.199252
H512	H	-0.079349	0.673512	0.211711
N513	N	-0.464259	0.021331	0.421467
H514	H	-0.464387	0.039076	0.430611
H515	H	-0.440785	-0.002322	0.423002
H516	H	-0.126687	0.129223	0.308782
N517	N	-0.042361	-0.173181	-0.013402
H518	H	-0.068676	-0.155030	-0.014762
H519	H	-0.044852	-0.195455	0.011343
N520	N	-0.014001	0.021590	0.303831
H521	H	-0.004854	-0.005177	0.321571
H522	H	0.002683	0.036250	0.296210
H523	H	-0.421562	0.216307	-0.398051
N524	N	-0.448666	-0.173682	0.393769
H525	H	-0.446602	-0.201097	0.410787
H526	H	-0.425636	-0.173188	0.369617
N527	N	-0.041726	0.228747	0.108857
H528	H	-0.024712	0.237083	0.081447
H529	H	-0.048576	0.246677	0.121823
N530	N	-0.079415	0.698307	0.474173
H531	H	-0.087743	0.696248	0.457154
H532	H	-0.097343	0.722359	0.481017
H533	H	0.033586	0.083618	0.184335
N534	N	-0.041656	-0.173419	0.510958
H535	H	-0.024635	-0.200834	0.519291
H536	H	-0.065800	-0.172927	0.511583
N537	N	-0.454714	-0.093324	0.356488
H538	H	-0.453348	-0.111474	0.346957
H539	H	-0.432383	-0.083524	0.339159
N540	N	-0.406438	0.414129	-0.303739
H541	H	-0.382719	0.421753	-0.318374
H542	H	-0.406323	0.396369	-0.276979
H543	H	0.255761	0.409154	-0.411356
H544	H	0.380369	0.736745	-0.468969
N545	N	-0.406416	0.296458	-0.303732
H546	H	-0.406288	0.287311	-0.276972
H547	H	-0.382691	0.279765	-0.318394
H548	H	-0.069095	-0.098160	0.468788
H549	H	0.063125	0.731539	-0.114119
N550	N	-0.415909	0.243740	-0.355888
H551	H	-0.417259	0.217398	-0.346262
H552	H	-0.438241	0.258604	-0.338605
N553	N	-0.464202	0.021312	0.303811
H554	H	-0.464311	0.039051	0.277044
H555	H	-0.487906	0.013664	0.318445
N556	N	0.208581	0.243731	-0.189373
H557	H	0.208590	0.241256	-0.211650
H558	H	0.218190	0.217402	-0.171280
H559	H	-0.454410	0.186608	0.184328
N560	N	0.260722	0.296440	-0.303744
H561	H	0.287481	0.287294	-0.321486
H562	H	0.246071	0.279748	-0.296125
N563	N	-0.245894	0.698297	0.355986
H564	H	-0.263956	0.699650	0.346363
H565	H	-0.223619	0.673545	0.356017
H566	H	0.095760	0.533857	-0.366261
N567	N	-0.448774	0.229009	0.109113
H568	H	-0.450140	0.238542	0.127261
H569	H	-0.471111	0.246338	0.099317
N570	N	0.171494	0.608860	-0.511377
H571	H	0.197809	0.590709	-0.520907
H572	H	0.173982	0.631135	-0.511396
H573	H	-0.251261	0.698709	0.468773
H574	H	-0.037262	0.703961	0.501600
N575	N	-0.415890	0.243736	-0.189363
H576	H	-0.439924	0.236886	-0.176422
H577	H	-0.392835	0.219598	-0.188902
N578	N	0.038516	0.698291	0.189195
H579	H	0.064828	0.699649	0.171048
H580	H	0.041012	0.673544	0.211469
H581	H	0.153295	0.746523	-0.308685
N582	N	0.090555	0.737184	-0.189369
H583	H	0.064224	0.735829	-0.171301
H584	H	0.105419	0.714841	-0.199171
