data_functionalizedCrystal
_audit_creation_method	'MofGen! by Chris Wilmer'
_symmetry_space_group_name_H-M	'P1'
_symmetry_Int_Tables_number	1
_symmetry_cell_setting	triclinic
loop_
_symmetry_equiv_pos_as_xyz
  x,y,z
_cell_length_a	12.594517
_cell_length_b	16.994731
_cell_length_c	12.594509
_cell_angle_alpha	89.956576
_cell_angle_beta	90.011478
_cell_angle_gamma	89.943404
loop_
_atom_site_label
_atom_site_type_symbol
_atom_site_fract_x
_atom_site_fract_y
_atom_site_fract_z
Zn1	Zn	1.627774	-0.314091	0.602110
Zn2	Zn	1.627878	-0.446012	0.424355
Zn3	Zn	1.449778	-0.314116	0.424170
Zn4	Zn	1.449973	-0.445948	0.602315
O5	O	1.538851	-0.380042	0.513237
O6	O	1.776734	-0.331607	0.578522
O7	O	1.604214	-0.428553	0.275384
O8	O	1.473264	-0.203732	0.447611
O9	O	1.776810	-0.428529	0.447926
O10	O	1.604037	-0.203713	0.578343
O11	O	1.473365	-0.331649	0.275249
O12	O	1.300858	-0.331588	0.447810
O13	O	1.473597	-0.428420	0.751234
O14	O	1.301001	-0.428444	0.578692
O15	O	1.604226	-0.331545	0.751083
O16	O	1.604403	-0.556385	0.448124
O17	O	1.473697	-0.556338	0.578871
C18	C	1.262310	-0.380012	0.513254
C19	C	1.144004	-0.380018	0.513286
C20	C	1.538908	-0.674302	0.513316
C21	C	1.539002	-0.584980	0.513457
Zn22	Zn	1.627557	-0.814096	0.423976
Zn23	Zn	1.627752	-0.946226	0.601718
Zn24	Zn	1.449461	-0.945733	0.424073
Zn25	Zn	1.449948	-0.814112	0.602231
O26	O	1.538680	-0.880042	0.512999
O27	O	1.776529	-0.831822	0.447298
O28	O	1.603979	-1.056541	0.577980
O29	O	1.472801	-0.928059	0.275115
O30	O	1.776672	-0.928897	0.577885
O31	O	1.603647	-0.831345	0.275043
O32	O	1.472990	-1.056180	0.447464
O33	O	1.300580	-0.928074	0.447961
O34	O	1.473630	-0.703729	0.578759
O35	O	1.300938	-0.831373	0.578853
O36	O	1.604119	-0.703717	0.447795
O37	O	1.604451	-0.928913	0.750732
O38	O	1.473819	-0.831850	0.751108
C39	C	1.074860	-0.432802	0.584336
C40	C	1.003935	-0.360883	0.610392
C41	C	1.004130	-0.451997	0.487206
C42	C	1.074638	-0.308061	0.539393
C43	C	1.074839	-0.399224	0.416161
C44	C	1.003946	-0.327255	0.442181
C45	C	1.816471	-0.380072	0.513222
C46	C	1.934777	-0.380085	0.513215
C47	C	1.538922	-0.379973	0.790858
C48	C	1.538952	-0.379943	0.909164
C49	C	1.538610	-0.174301	0.512931
C50	C	1.538509	-0.084979	0.512799
C51	C	1.538841	-0.380054	0.236697
C52	C	1.539016	-0.379861	0.118391
C53	C	1.467925	-0.432604	0.978499
C54	C	1.565077	-0.451881	1.049305
C55	C	1.441876	-0.360618	1.049157
C56	C	1.636155	-0.399259	0.978412
C57	C	1.512889	-0.307962	0.978257
C58	C	1.610107	-0.327213	1.049032
C59	C	1.262139	-0.879671	0.513474
C60	C	1.143834	-0.879494	0.513702
C61	C	1.539212	-0.880439	0.789540
C62	C	1.539470	-0.880632	0.907845
C63	C	1.816300	-0.880413	0.512524
C64	C	1.934605	-0.880571	0.512321
C65	C	1.538148	-0.879645	0.235379
C66	C	1.537922	-0.879476	0.117074
C67	C	1.074355	-0.931889	0.442534
C68	C	1.003745	-0.951314	0.539707
C69	C	1.003646	-0.859748	0.416945
C70	C	1.074781	-0.898960	0.610923
C71	C	1.074689	-0.807359	0.488096
C72	C	1.004110	-0.826758	0.585336
C73	C	1.468522	-0.828004	0.977342
C74	C	1.442646	-0.900074	1.048023
C75	C	1.565777	-0.808939	1.047963
C76	C	1.513540	-0.952737	0.976968
C77	C	1.636716	-0.861553	0.976902
C78	C	1.610877	-0.933673	1.047551
H79	H	1.105997	-0.477353	0.644497
H80	H	1.106005	-0.415466	0.334079
H81	H	1.105209	-0.976383	0.382254
H82	H	1.587156	-0.512719	1.080509
C83	C	1.227443	-0.226620	0.569085
C84	C	1.116268	-0.225901	0.569272
H85	H	1.253142	-0.175901	0.587539
H86	H	1.252303	-0.240317	0.500338
H87	H	1.252280	-0.264122	0.619266
H88	H	1.091431	-0.188403	0.519085
H89	H	1.091398	-0.212194	0.638029
C90	C	1.047328	-1.084523	0.586217
C91	C	0.961673	-1.033460	0.569185
H92	H	1.021356	-1.135238	0.604403
H93	H	1.090032	-1.064976	0.642472
H94	H	1.088676	-1.087996	0.523319
H95	H	0.920329	-1.029983	0.632087
H96	H	0.918951	-1.053012	0.512926
C97	C	1.000123	-0.691629	0.640725
C98	C	0.962716	-0.766739	0.666901
H99	H	0.974570	-0.654580	0.691086
H100	H	0.975625	-0.677614	0.571926
H101	H	1.075545	-0.691750	0.641429
H102	H	0.887294	-0.766619	0.666190
H103	H	0.987208	-0.780757	0.735718
C104	C	0.850994	-0.267943	0.361048
C105	C	0.962163	-0.266970	0.361033
H106	H	0.825199	-0.230727	0.310951
H107	H	0.825655	-0.254760	0.429804
H108	H	0.826736	-0.319003	0.342382
H109	H	0.986421	-0.215911	0.379707
H110	H	0.987512	-0.280148	0.292262
C111	C	1.638984	-0.210171	1.151678
C112	C	1.691313	-0.267038	1.090575
H113	H	1.689119	-0.173021	1.177315
H114	H	1.604755	-0.234918	1.209994
H115	H	1.587598	-0.184000	1.109156
H116	H	1.742693	-0.293213	1.133099
H117	H	1.725559	-0.242289	1.032250
H118	H	0.973149	-0.512840	0.465179
C119	C	1.310183	-0.454019	0.875441
C120	C	1.386901	-0.492809	0.936676
H121	H	1.260164	-0.491188	0.849627
H122	H	1.343612	-0.428529	0.817244
H123	H	1.274730	-0.416040	0.917931
H124	H	1.422360	-0.530784	0.894183
H125	H	1.353469	-0.518311	0.994882
H126	H	1.718301	-0.415639	0.947466
H127	H	1.490780	-0.247142	0.947030
H128	H	1.105870	-0.746524	0.466231
H129	H	1.587832	-0.748156	1.079140
H130	H	1.105892	-0.915582	0.692942
C131	C	0.900597	-0.270391	0.714119
C132	C	0.961886	-0.338981	0.721227
H133	H	0.874648	-0.256873	0.782547
H134	H	0.842492	-0.279117	0.667519
H135	H	0.943096	-0.228662	0.687485
H136	H	0.919385	-0.380712	0.747854
H137	H	1.019999	-0.330259	0.767844
C138	C	1.291816	-0.400042	1.153949
C139	C	1.331016	-0.338592	1.091108
H140	H	1.223373	-0.386450	1.179840
H141	H	1.338419	-0.408755	1.212093
H142	H	1.287056	-0.446594	1.112524
H143	H	1.335783	-0.292042	1.132535
H144	H	1.284402	-0.329870	1.032956
C145	C	0.998818	-0.762571	0.278534
C146	C	0.961470	-0.837393	0.306260
H147	H	0.972776	-0.748775	0.210203
H148	H	1.074223	-0.763015	0.277432
H149	H	0.974767	-0.725178	0.329156
H150	H	0.985529	-0.874787	0.255642
H151	H	0.886049	-0.836954	0.307354
C152	C	1.285656	-0.788151	0.971607
C153	C	1.387198	-0.767788	0.935698
H154	H	1.235451	-0.750980	0.945890
H155	H	1.284824	-0.788197	1.047018
H156	H	1.267824	-0.839082	0.946249
H157	H	1.405034	-0.716859	0.961063
H158	H	1.388033	-0.767733	0.860272
H159	H	1.360610	-0.916373	1.079257
C160	C	1.483604	-1.033866	0.823889
C161	C	1.483632	-1.034815	0.935061
H162	H	1.465131	-1.084535	0.798018
H163	H	1.552294	-1.020105	0.798952
H164	H	1.433352	-0.996321	0.799302
H165	H	1.533889	-1.072356	0.959648
H166	H	1.414931	-1.048585	0.960007
H167	H	1.671078	-0.978386	1.078190
C168	C	1.774567	-0.764189	0.970467
C169	C	1.747426	-0.839522	0.934689
H170	H	1.842912	-0.750581	0.944398
H171	H	1.775390	-0.763691	1.045874
H172	H	1.723813	-0.727203	0.945375
H173	H	1.798176	-0.876510	0.959788
H174	H	1.746611	-0.840027	0.859266
