data_functionalizedCrystal
_audit_creation_method	'MofGen! by Chris Wilmer'
_symmetry_space_group_name_H-M	'P1'
_symmetry_Int_Tables_number	1
_symmetry_cell_setting	triclinic
loop_
_symmetry_equiv_pos_as_xyz
  x,y,z
_cell_length_a	6.817900
_cell_length_b	11.102288
_cell_length_c	10.943881
_cell_angle_alpha	91.859879
_cell_angle_beta	108.843448
_cell_angle_gamma	108.605689
loop_
_atom_site_label
_atom_site_type_symbol
_atom_site_fract_x
_atom_site_fract_y
_atom_site_fract_z
V1	V	-4.114336	-0.175803	-0.402553
O2	O	-4.073315	0.008485	-0.394889
O3	O	-4.091094	-0.348624	-0.399800
O4	O	-4.092341	-0.173082	-0.578120
O5	O	-4.072060	-0.168271	-0.215335
V6	V	-4.591283	-0.153762	-0.380160
O7	O	-4.390020	-0.224152	-0.451673
O8	O	-4.765796	-0.105413	-0.331039
O9	O	-4.391318	0.019059	-0.382913
O10	O	-4.749701	-0.338050	-0.387823
O11	O	-4.750956	-0.161294	-0.567377
O12	O	-4.390071	-0.156482	-0.204593
C13	C	-3.941361	-0.390754	-0.393449
C14	C	-4.003820	-0.532037	-0.392368
C15	C	-3.942950	-0.166832	-0.620912
C16	C	-4.006416	-0.165751	-0.764439
C17	C	-4.217217	-0.604885	-0.398302
C18	C	-4.275897	-0.737636	-0.397297
C19	C	-3.907762	-0.724679	-0.384419
C20	C	-3.849089	-0.591932	-0.385433
C21	C	-4.235818	-0.171737	-0.855322
C22	C	-4.123117	-0.062491	-0.921059
C23	C	-4.232143	-0.272994	-0.954429
C24	C	-3.892833	-0.056434	-0.828271
C25	C	-4.001933	-0.267032	-0.861650
C26	C	-3.889060	-0.157756	-0.927339
C27	C	-4.204394	0.061182	-0.389260
C28	C	-4.121174	0.202464	-0.390349
C29	C	-4.202804	-0.162737	-0.161793
C30	C	-4.118575	-0.163811	-0.018265
H31	H	-4.449662	-0.796944	-0.402131
H32	H	-3.675312	-0.532617	-0.380606
N33	N	-4.428993	-0.179412	-0.813064
H34	H	-4.557573	-0.260382	-0.860742
H35	H	-4.473760	-0.102010	-0.834268
N36	N	-3.695444	-0.149877	-0.969224
H37	H	-3.648619	-0.226347	-0.946456
H38	H	-3.568130	-0.068030	-0.922598
H39	H	-3.950170	-0.353530	-0.835095
H40	H	-4.174942	0.023999	-0.947592
N41	N	-3.740868	-0.789279	-0.376904
H42	H	-3.798471	-0.856412	-0.456592
H43	H	-3.715607	-0.831643	-0.295732
N44	N	-4.422988	-0.394202	-1.026957
H45	H	-4.554379	-0.399346	-1.000930
H46	H	-4.378455	-0.471445	-1.004403
N47	N	-3.702086	0.064893	-0.755963
H48	H	-3.660168	0.063411	-0.658818
H49	H	-3.747226	0.142025	-0.778049
H50	H	-4.343212	-0.556122	-0.403947
