data_functionalizedCrystal
_audit_creation_method	'MofGen! by Chris Wilmer'
_symmetry_space_group_name_H-M	'P1'
_symmetry_Int_Tables_number	1
_symmetry_cell_setting	triclinic
loop_
_symmetry_equiv_pos_as_xyz
  x,y,z
_cell_length_a	14.519709
_cell_length_b	14.519731
_cell_length_c	13.930277
_cell_angle_alpha	89.994465
_cell_angle_beta	89.998398
_cell_angle_gamma	83.684499
loop_
_atom_site_label
_atom_site_type_symbol
_atom_site_fract_x
_atom_site_fract_y
_atom_site_fract_z
O1	O	1.223880	0.120889	-0.079708
O2	O	0.955405	0.135126	-0.079738
O3	O	1.096751	-0.006230	-0.079713
O4	O	1.082535	0.262245	-0.079732
O5	O	1.096731	-0.006233	0.079949
O6	O	0.955385	0.135123	0.079924
O7	O	1.223861	0.120886	0.079954
Zn8	Zn	1.089620	0.128004	0.105289
Zn9	Zn	1.089646	0.128008	-0.105073
O10	O	1.082515	0.262242	0.079929
C11	C	0.921035	0.134461	0.000090
C12	C	0.818654	0.132473	0.000079
C13	C	0.443757	0.125153	0.000123
C14	C	0.548065	0.127186	0.000110
C15	C	0.631202	0.128813	0.000100
C16	C	0.735517	0.130846	0.000089
C17	C	1.096075	-0.040591	0.000118
C18	C	1.094079	-0.142971	0.000118
C19	C	1.092457	-0.226115	0.000116
C20	C	1.090430	-0.330424	0.000108
C21	C	1.088822	-0.413563	0.000102
C22	C	1.086795	-0.517878	0.000096
C23	C	1.258230	0.121551	0.000124
C24	C	1.360612	0.123539	0.000129
C25	C	1.083191	0.296603	0.000096
C26	C	1.085187	0.398983	0.000090
N27	N	1.089609	0.128001	0.248855
N28	N	1.089664	0.128004	-0.248639
C29	C	1.027055	0.190576	0.701113
C30	C	1.152261	0.065433	0.701104
C31	C	1.152251	0.065430	0.600609
C32	C	1.089642	0.128002	0.550361
C33	C	1.027044	0.190576	0.600608
C34	C	1.214853	0.002863	0.550353
C35	C	1.214846	0.002859	0.449851
C36	C	1.152232	0.065427	0.399602
C37	C	1.089631	0.128003	0.449856
C38	C	1.027022	0.190574	0.399608
C39	C	0.964416	0.253147	0.449860
C40	C	0.964430	0.253144	0.550359
C41	C	1.152217	0.065429	0.299103
C42	C	1.027011	0.190575	0.299103
H43	H	0.976024	0.241526	0.258197
Cl44	Cl	0.885717	0.331811	0.386680
H45	H	0.913460	0.304089	0.591280
Cl46	Cl	1.293564	-0.075789	0.613519
Cl47	Cl	0.948350	0.269232	0.764282
Cl48	Cl	1.230972	-0.013219	0.764270
Cl49	Cl	1.230922	-0.013222	0.235935
H50	H	1.265821	-0.048092	0.408942
