data_functionalizedCrystal
_audit_creation_method	'MofGen! by Chris Wilmer'
_symmetry_space_group_name_H-M	'P1'
_symmetry_Int_Tables_number	1
_symmetry_cell_setting	triclinic
loop_
_symmetry_equiv_pos_as_xyz
  x,y,z
_cell_length_a	21.395362
_cell_length_b	29.839131
_cell_length_c	21.395355
_cell_angle_alpha	90.020172
_cell_angle_beta	90.043940
_cell_angle_gamma	90.057297
loop_
_atom_site_label
_atom_site_type_symbol
_atom_site_fract_x
_atom_site_fract_y
_atom_site_fract_z
Zn1	Zn	0.957813	-0.178715	0.354578
Zn2	Zn	1.291146	0.154618	0.687912
Zn3	Zn	1.624480	0.487952	1.021245
Zn4	Zn	0.957696	-0.253830	0.249798
Zn5	Zn	1.291029	0.079503	0.583131
Zn6	Zn	1.624362	0.412836	0.916464
Zn7	Zn	0.853028	-0.178736	0.249780
Zn8	Zn	1.186361	0.154597	0.583113
Zn9	Zn	1.519694	0.487931	0.916446
Zn10	Zn	0.852977	-0.253840	0.354503
Zn11	Zn	1.186311	0.079494	0.687836
Zn12	Zn	1.519644	0.412827	1.021169
O13	O	0.905378	-0.216280	0.302165
O14	O	1.238712	0.117053	0.635498
O15	O	1.572045	0.450386	0.968831
O16	O	1.045475	-0.188667	0.340718
O17	O	1.378809	0.144667	0.674052
O18	O	1.712142	0.478000	1.007385
O19	O	0.943783	-0.243874	0.162117
O20	O	1.277117	0.089460	0.495451
O21	O	1.610450	0.422793	0.828784
O22	O	0.866998	-0.115866	0.263706
O23	O	1.200331	0.217467	0.597039
O24	O	1.533665	0.550801	0.930372
O25	O	1.045389	-0.243853	0.263737
O26	O	1.378723	0.089480	0.597070
O27	O	1.712056	0.422813	0.930403
O28	O	0.943983	-0.115851	0.340701
O29	O	1.277316	0.217483	0.674034
O30	O	1.610650	0.550816	1.007367
O31	O	0.866884	-0.188702	0.162104
O32	O	1.200218	0.144631	0.495437
O33	O	1.533551	0.477964	0.828771
O34	O	0.765343	-0.188711	0.263632
O35	O	1.098677	0.144622	0.596965
O36	O	1.432010	0.477955	0.930299
O37	O	0.866912	-0.243869	0.442191
O38	O	1.200245	0.089464	0.775524
O39	O	1.533579	0.422797	1.108857
O40	O	0.765306	-0.243889	0.340571
O41	O	1.098640	0.089444	0.673905
O42	O	1.431973	0.422777	1.007238
O43	O	0.943934	-0.188676	0.442246
O44	O	1.277267	0.144658	0.775580
O45	O	1.610601	0.477991	1.108913
O46	O	0.943735	-0.316699	0.263663
O47	O	1.277068	0.016635	0.596996
O48	O	1.610401	0.349968	0.930330
O49	O	0.866798	-0.316705	0.340589
O50	O	1.200132	0.016628	0.673922
O51	O	1.533465	0.349961	1.007256
C52	C	0.742591	-0.216304	0.302092
C53	C	1.075924	0.117029	0.635425
C54	C	1.409257	0.450363	0.968759
C55	C	0.672950	-0.216325	0.302076
C56	C	1.006283	0.117008	0.635409
C57	C	1.339616	0.450342	0.968742
C58	C	0.640233	-0.245094	0.342078
C59	C	0.973567	0.088239	0.675411
C60	C	1.306900	0.421572	1.008745
C61	C	0.574798	-0.245083	0.342106
C62	C	0.908131	0.088250	0.675439
C63	C	1.241465	0.421583	1.008773
C64	C	0.542081	-0.216308	0.302120
C65	C	0.875415	0.117026	0.635454
C66	C	1.208748	0.450359	0.968787
C67	C	0.574805	-0.187533	0.262115
C68	C	0.908138	0.145801	0.595448
C69	C	1.241472	0.479134	0.928782
C70	C	0.640239	-0.187541	0.262093
C71	C	0.973573	0.145792	0.595426
C72	C	1.306906	0.479125	0.928759
C73	C	0.438357	-0.212688	0.245715
C74	C	0.771691	0.120645	0.579049
C75	C	1.105024	0.453978	0.912382
C76	C	0.372925	-0.212683	0.245736
C77	C	0.706258	0.120650	0.579070
C78	C	1.039591	0.453984	0.912403
C79	C	0.340261	-0.216278	0.302189
C80	C	0.673594	0.117055	0.635523
C81	C	1.006927	0.450388	0.968856
C82	C	0.373038	-0.219889	0.358623
C83	C	0.706371	0.113445	0.691956
C84	C	1.039704	0.446778	1.025290
C85	C	0.438472	-0.219897	0.358601
C86	C	0.771805	0.113436	0.691934
C87	C	1.105138	0.446769	1.025267
C88	C	0.471129	-0.216295	0.302140
C89	C	0.804462	0.117039	0.635474
C90	C	1.137796	0.450372	0.968807
C91	C	0.236592	-0.245037	0.342226
C92	C	0.569925	0.088296	0.675559
C93	C	0.903259	0.421629	1.008892
C94	C	0.171155	-0.245023	0.342254
C95	C	0.504489	0.088310	0.675588
C96	C	0.837822	0.421644	1.008921
C97	C	0.171164	-0.187475	0.262258
C98	C	0.504497	0.145859	0.595591
C99	C	0.837830	0.479192	0.928925
C100	C	0.236599	-0.187487	0.262235
C101	C	0.569932	0.145847	0.595568
C102	C	0.903266	0.479180	0.928901
C103	C	0.269309	-0.216270	0.302218
C104	C	0.602643	0.117063	0.635551
C105	C	0.935976	0.450396	0.968884
C106	C	0.905265	-0.333003	0.302133
C107	C	1.238599	0.000331	0.635467
C108	C	1.571932	0.333664	0.968800
C109	C	0.905274	-0.382937	0.302141
C110	C	1.238608	-0.049604	0.635474
C111	C	1.571941	0.283729	0.968808
C112	C	0.945512	-0.692564	0.262168
C113	C	1.278845	-0.359231	0.595501
C114	C	1.612179	-0.025898	0.928834
C115	C	0.945589	-0.880237	0.262192
C116	C	1.278923	-0.546904	0.595525
C117	C	1.612256	-0.213571	0.928859
O118	O	0.979711	-0.904488	0.228181
O119	O	1.313044	-0.571155	0.561515
O120	O	1.646378	-0.237822	0.894848
N121	N	0.905508	-0.903722	0.302212
N122	N	1.238842	-0.570389	0.635545
N123	N	1.572175	-0.237056	0.968879
C124	C	0.865408	-0.880286	0.342231
C125	C	1.198742	-0.546953	0.675565
C126	C	1.532075	-0.213619	1.008898
O127	O	0.831323	-0.904567	0.376276
O128	O	1.164657	-0.571234	0.709609
O129	O	1.497990	-0.237901	1.042942
C130	C	0.865334	-0.692614	0.342210
C131	C	1.198668	-0.359280	0.675543
C132	C	1.532001	-0.025947	1.008876
C133	C	0.905414	-0.669131	0.302183
C134	C	1.238747	-0.335798	0.635516
C135	C	1.572080	-0.002465	0.968849
C136	C	0.985588	-0.669082	0.222145
C137	C	1.318922	-0.335749	0.555478
C138	C	1.652255	-0.002415	0.888811
C139	C	0.985566	-0.622166	0.222136
C140	C	1.318899	-0.288833	0.555470
C141	C	1.652233	0.044500	0.888803
C142	C	0.945468	-0.598733	0.262152
C143	C	1.278801	-0.265400	0.595485
C144	C	1.612134	0.067933	0.928818
C145	C	0.905391	-0.622216	0.302175
C146	C	1.238725	-0.288883	0.635508
C147	C	1.572058	0.044451	0.968841
C148	C	0.825238	-0.669178	0.382232
C149	C	1.158571	-0.335845	0.715565
C150	C	1.491905	-0.002512	1.048899
C151	C	0.825224	-0.622257	0.382224
C152	C	1.158557	-0.288924	0.715557
C153	C	1.491891	0.044409	1.048891
C154	C	0.865303	-0.598775	0.342197
C155	C	1.198637	-0.265442	0.675530
C156	C	1.531970	0.067892	1.008864
C157	C	0.865271	-0.551867	0.342182
C158	C	1.198604	-0.218534	0.675515
C159	C	1.531937	0.114799	1.008848
N160	N	0.905352	-0.528383	0.302162
N161	N	1.238685	-0.195049	0.635495
N162	N	1.572018	0.138284	0.968829
C163	C	0.945450	-0.551816	0.262147
C164	C	1.278783	-0.218482	0.595480
C165	C	1.612117	0.114851	0.928813
C166	C	0.865449	-0.978816	0.342239
C167	C	1.198782	-0.645483	0.675572
C168	C	1.532116	-0.312150	1.008906
C169	C	0.865466	-1.025734	0.342244
C170	C	1.198800	-0.692401	0.675577
C171	C	1.532133	-0.359068	1.008910
C172	C	0.945649	-1.025683	0.262205
C173	C	1.278982	-0.692349	0.595538
C174	C	1.612315	-0.359016	0.928872
C175	C	0.945627	-0.978764	0.262198
C176	C	1.278961	-0.645431	0.595531
C177	C	1.612294	-0.312097	0.928864
C178	C	0.905530	-0.955332	0.302219
C179	C	1.238863	-0.621998	0.635553
C180	C	1.572196	-0.288665	0.968886
C181	C	0.945400	-0.453290	0.262132
C182	C	1.278734	-0.119956	0.595466
C183	C	1.612067	0.213377	0.928799
C184	C	0.945373	-0.406370	0.262126
C185	C	1.278706	-0.073037	0.595459
C186	C	1.612039	0.260296	0.928793
C187	C	0.865193	-0.406426	0.342167
C188	C	1.198527	-0.073093	0.675500
C189	C	1.531860	0.260241	1.008833
C190	C	0.865218	-0.453342	0.342171
C191	C	1.198551	-0.120008	0.675504
C192	C	1.531885	0.213325	1.008838
C193	C	0.905327	-0.476772	0.302152
C194	C	1.238660	-0.143439	0.635485
C195	C	1.571993	0.189894	0.968819
O196	O	0.831172	-0.527587	0.376180
O197	O	1.164505	-0.194254	0.709513
O198	O	1.497839	0.139079	1.042846
O199	O	0.979540	-0.527526	0.228117
O200	O	1.312873	-0.194193	0.561451
O201	O	1.646206	0.139141	0.894784
C202	C	0.945534	-0.739480	0.262176
C203	C	1.278867	-0.406146	0.595509
C204	C	1.612201	-0.072813	0.928843
C205	C	0.905458	-0.762962	0.302199
C206	C	1.238791	-0.429629	0.635532
C207	C	1.572125	-0.096296	0.968866
C208	C	0.865359	-0.739529	0.342214
C209	C	1.198693	-0.406196	0.675547
C210	C	1.532026	-0.072863	1.008881
C211	C	0.905475	-0.809880	0.302204
C212	C	1.238809	-0.476547	0.635537
C213	C	1.572142	-0.143213	0.968870
C214	C	0.945574	-0.833313	0.262189
C215	C	1.278907	-0.499980	0.595522
C216	C	1.612240	-0.166646	0.928855
C217	C	0.985655	-0.809828	0.222169
C218	C	1.318988	-0.476495	0.555502
C219	C	1.652321	-0.143162	0.888836
C220	C	0.985633	-0.762913	0.222161
C221	C	1.318966	-0.429579	0.555494
C222	C	1.652299	-0.096246	0.888827
C223	C	0.825278	-0.763014	0.382234
C224	C	1.158612	-0.429681	0.715567
C225	C	1.491945	-0.096347	1.048900
C226	C	0.825303	-0.809929	0.382238
C227	C	1.158637	-0.476596	0.715571
C228	C	1.491970	-0.143263	1.048905
C229	C	0.865402	-0.833362	0.342223
C230	C	1.198735	-0.500029	0.675556
C231	C	1.532069	-0.166696	1.008890
C232	C	1.068802	-0.216257	0.302238
C233	C	1.402135	0.117077	0.635571
C234	C	1.735468	0.450410	0.968905
C235	C	1.138443	-0.216247	0.302269
C236	C	1.471776	0.117087	0.635603
C237	C	1.805110	0.450420	0.968936
C238	C	0.905431	-0.216271	0.465588
C239	C	1.238764	0.117062	0.798921
C240	C	1.572097	0.450396	1.132255
C241	C	0.905453	-0.216267	0.535229
C242	C	1.238786	0.117066	0.868563
C243	C	1.572119	0.450399	1.201896
C244	C	0.905509	-0.099102	0.302210
C245	C	1.238842	0.234232	0.635543
C246	C	1.572176	0.567565	0.968876
C247	C	0.905565	-0.049167	0.302229
C248	C	1.238898	0.284166	0.635562
C249	C	1.572231	0.617499	0.968895
C250	C	0.905363	-0.216257	0.139377
C251	C	1.238696	0.117077	0.472710
C252	C	1.572029	0.450410	0.806044
C253	C	0.905462	-0.216134	0.069736
C254	C	1.238795	0.117199	0.403069
C255	C	1.572129	0.450533	0.736403
C256	C	0.945556	-0.187527	0.567972
C257	C	1.278890	0.145807	0.901306
C258	C	1.612223	0.479140	1.234639
C259	C	0.945556	-0.187507	0.633408
C260	C	1.278889	0.145826	0.966741
C261	C	1.612222	0.479159	1.300074
C262	C	0.905458	-0.216237	0.666098
C263	C	1.238791	0.117097	0.999431
C264	C	1.572124	0.450430	1.332764
C265	C	0.865346	-0.244979	0.633347
C266	C	1.198679	0.088354	0.966680
C267	C	1.532013	0.421688	1.300013
C268	C	0.865344	-0.244994	0.567912
C269	C	1.198677	0.088339	0.901246
C270	C	1.532010	0.421672	1.234579
C271	C	0.900471	-0.256689	0.769760
C272	C	1.233804	0.076645	1.103093
C273	C	1.567138	0.409978	1.436427
C274	C	0.900478	-0.256674	0.835193
C275	C	1.233811	0.076659	1.168526
C276	C	1.567145	0.409993	1.501860
C277	C	0.905461	-0.216189	0.867918
C278	C	1.238795	0.117144	1.201252
C279	C	1.572128	0.450478	1.534585
C280	C	0.910451	-0.175717	0.835203
C281	C	1.243785	0.157616	1.168536
C282	C	1.577118	0.490949	1.501870
C283	C	0.910449	-0.175733	0.769769
C284	C	1.243782	0.157601	1.103102
C285	C	1.577116	0.490934	1.436436
C286	C	0.905455	-0.216223	0.737050
C287	C	1.238789	0.117110	1.070383
C288	C	1.572122	0.450444	1.403717
C289	C	0.945566	-0.187425	0.971614
C290	C	1.278900	0.145908	1.304948
C291	C	1.612233	0.479242	1.638281
C292	C	0.945561	-0.187405	1.037051
C293	C	1.278894	0.145928	1.370384
C294	C	1.612228	0.479262	1.703718
C295	C	0.865355	-0.244881	1.036988
C296	C	1.198688	0.088452	1.370322
C297	C	1.532022	0.421786	1.703655
C298	C	0.865357	-0.244897	0.971553
C299	C	1.198690	0.088436	1.304886
C300	C	1.532024	0.421770	1.638220
C301	C	0.905466	-0.216170	0.938870
C302	C	1.238799	0.117164	1.272203
C303	C	1.572133	0.450497	1.605536
H304	H	0.548163	-0.164102	0.229560
H305	H	0.881496	0.169231	0.562893
H306	H	1.214830	0.502564	0.896226
Br307	Br	0.811025	-0.947022	0.396559
Br308	Br	1.144358	-0.613689	0.729892
Br309	Br	1.477692	-0.280356	1.063226
Br310	Br	0.810927	-0.283866	1.081346
Br311	Br	1.144260	0.049467	1.414679
Br312	Br	1.477594	0.382801	1.748013
H313	H	0.144519	-0.268450	0.374833
H314	H	0.477853	0.064884	0.708166
H315	H	0.811186	0.398217	1.041500
H316	H	0.978062	-0.472362	0.229546
H317	H	1.311395	-0.139028	0.562880
H318	H	1.644729	0.194305	0.896213
H319	H	0.144526	-0.164043	0.229704
H320	H	0.477860	0.169290	0.563037
H321	H	0.811193	0.502624	0.896371
H322	H	0.832704	-0.268303	0.944893
H323	H	1.166037	0.065030	1.278227
H324	H	1.499370	0.398363	1.611560
H325	H	1.018303	-0.828916	0.189585
H326	H	1.351636	-0.495582	0.522919
H327	H	1.684969	-0.162249	0.856252
H328	H	0.263237	-0.164062	0.229657
H329	H	0.596570	0.169272	0.562991
H330	H	0.929903	0.502605	0.896324
Br331	Br	1.000022	-0.946900	0.207873
Br332	Br	1.333355	-0.613567	0.541207
Br333	Br	1.666688	-0.280233	0.874540
H334	H	0.896419	-0.289629	0.861825
H335	H	1.229752	0.043705	1.195158
H336	H	1.563085	0.377038	1.528491
H337	H	0.346242	-0.209746	0.199785
H338	H	0.679576	0.123587	0.533118
H339	H	1.012909	0.456921	0.866452
Br340	Br	0.893726	-0.311639	0.725353
Br341	Br	1.227059	0.021694	1.058687
Br342	Br	1.560393	0.355028	1.392020
H343	H	0.832584	-0.472462	0.374766
H344	H	1.165918	-0.139129	0.708099
H345	H	1.499251	0.194205	1.041433
H346	H	0.666876	-0.164112	0.229518
H347	H	1.000210	0.169221	0.562851
H348	H	1.333543	0.502554	0.896185
Br349	Br	0.811062	-1.057597	0.396559
Br350	Br	1.144395	-0.724264	0.729892
Br351	Br	1.477729	-0.390931	1.063226
Br352	Br	1.000065	-1.057493	0.207897
Br353	Br	1.333399	-0.724160	0.541230
Br354	Br	1.666732	-0.390827	0.874564
Br355	Br	0.810922	-0.283966	0.677709
Br356	Br	1.144256	0.049367	1.011043
Br357	Br	1.477589	0.382701	1.344376
Br358	Br	0.999970	-0.148488	0.677855
Br359	Br	1.333304	0.184845	1.011188
Br360	Br	1.666637	0.518178	1.344522
Br361	Br	0.770903	-0.841793	0.436564
Br362	Br	1.104237	-0.508459	0.769897
Br363	Br	1.437570	-0.175126	1.103231
H364	H	0.832544	-0.387340	0.374745
H365	H	1.165877	-0.054006	0.708078
H366	H	1.499210	0.279327	1.041411
Br367	Br	0.770848	-0.701035	0.436564
Br368	Br	1.104181	-0.367702	0.769898
Br369	Br	1.437515	-0.034369	1.103231
Br370	Br	0.917217	-0.120810	0.725371
Br371	Br	1.250551	0.212523	1.058704
Br372	Br	1.583884	0.545857	1.392038
Br373	Br	0.530388	-0.284129	0.396400
Br374	Br	0.863721	0.049204	0.729733
Br375	Br	1.197054	0.382537	1.063067
Br376	Br	0.810912	-0.284002	0.523472
Br377	Br	1.144245	0.049331	0.856805
Br378	Br	1.477578	0.382665	1.190139
H379	H	0.978222	-0.164031	0.945002
H380	H	1.311555	0.169302	1.278335
H381	H	1.644889	0.502635	1.611669
Br382	Br	0.917220	-0.120769	0.879608
Br383	Br	1.250554	0.212564	1.212941
Br384	Br	1.583887	0.545897	1.546274
H385	H	0.666862	-0.268532	0.374636
H386	H	1.000195	0.064802	0.707969
H387	H	1.333529	0.398135	1.041303
Br388	Br	1.040017	-0.700875	0.167832
Br389	Br	1.373350	-0.367542	0.501166
Br390	Br	1.706683	-0.034208	0.834499
H391	H	1.018269	-0.743797	0.189567
H392	H	1.351602	-0.410463	0.522901
H393	H	1.684935	-0.077130	0.856234
H394	H	0.465156	-0.222836	0.404551
H395	H	0.798489	0.110498	0.737884
H396	H	1.131823	0.443831	1.071217
Br397	Br	0.482680	-0.207809	0.169093
Br398	Br	0.816014	0.125524	0.502427
Br399	Br	1.149347	0.458858	0.835760
Br400	Br	0.999987	-0.148538	0.523619
Br401	Br	1.333321	0.184795	0.856953
Br402	Br	1.666654	0.518129	1.190286
H403	H	0.263226	-0.268472	0.374785
H404	H	0.596559	0.064861	0.708118
H405	H	0.929893	0.398194	1.041452
H406	H	0.978010	-0.387252	0.229529
H407	H	1.311343	-0.053919	0.562863
H408	H	1.644676	0.279414	0.896196
Br409	Br	0.328717	-0.224767	0.435244
Br410	Br	0.662050	0.108566	0.768577
Br411	Br	0.995383	0.441900	1.101911
Br412	Br	1.039971	-0.590305	0.167820
Br413	Br	1.373305	-0.256971	0.501154
Br414	Br	1.706638	0.076362	0.834487
Br415	Br	0.770805	-0.590459	0.436545
Br416	Br	1.104139	-0.257126	0.769878
Br417	Br	1.437472	0.076208	1.103211
Br418	Br	1.000002	-0.148403	1.081490
Br419	Br	1.333336	0.184930	1.414823
Br420	Br	1.666669	0.518263	1.748156
H421	H	0.792626	-0.743938	0.414820
H422	H	1.125960	-0.410605	0.748153
H423	H	1.459293	-0.077272	1.081486
