data_functionalizedCrystal
_audit_creation_method	'MofGen! by Chris Wilmer'
_symmetry_space_group_name_H-M	'P1'
_symmetry_Int_Tables_number	1
_symmetry_cell_setting	triclinic
loop_
_symmetry_equiv_pos_as_xyz
  x,y,z
_cell_length_a	12.645331
_cell_length_b	12.594516
_cell_length_c	12.645323
_cell_angle_alpha	89.974080
_cell_angle_beta	89.978207
_cell_angle_gamma	90.015032
loop_
_atom_site_label
_atom_site_type_symbol
_atom_site_fract_x
_atom_site_fract_y
_atom_site_fract_z
Zn1	Zn	1.620734	-0.423742	-0.599453
Zn2	Zn	1.620624	-0.601751	-0.422196
Zn3	Zn	1.443451	-0.423784	-0.422197
Zn4	Zn	1.443436	-0.601676	-0.599411
O5	O	1.532061	-0.512738	-0.510814
O6	O	1.769067	-0.447369	-0.575956
O7	O	1.597082	-0.578193	-0.273849
O8	O	1.467021	-0.274833	-0.445729
O9	O	1.768985	-0.578152	-0.445726
O10	O	1.597270	-0.274802	-0.575958
O11	O	1.466914	-0.447441	-0.273850
O12	O	1.295102	-0.447368	-0.445688
O13	O	1.466994	-0.578023	-0.747764
O14	O	1.295090	-0.578064	-0.575887
O15	O	1.597255	-0.447296	-0.747795
O16	O	1.597066	-0.750687	-0.445686
O17	O	1.466887	-0.750631	-0.575885
C18	C	1.256631	-0.512713	-0.510784
C19	C	1.138801	-0.512728	-0.510796
C20	C	0.971209	-0.430129	-0.429340
C21	C	1.093769	-0.430342	-0.428981
C22	C	1.094285	-0.624853	-0.480283
C23	C	0.971686	-0.624402	-0.479727
C24	C	0.971649	-0.484269	-0.623079
C25	C	1.094255	-0.481764	-0.622456
C26	C	1.531992	-0.789279	-0.510804
C27	C	1.532059	-0.907585	-0.510835
C28	C	1.461248	-0.976846	-0.581601
C29	C	1.435417	-1.047711	-0.484868
C30	C	1.557986	-1.047519	-0.607584
C31	C	1.506178	-0.976891	-0.414051
C32	C	1.628791	-0.976693	-0.536833
C33	C	1.602998	-1.047526	-0.440033
C34	C	1.808566	-0.512764	-0.510846
C35	C	1.926396	-0.512776	-0.510859
C36	C	1.532135	-0.512646	-0.787320
C37	C	1.532166	-0.512607	-0.905150
C38	C	1.532160	-0.235117	-0.510848
C39	C	1.532202	-0.116812	-0.510862
C40	C	1.450224	-0.594831	-0.950013
C41	C	1.449936	-0.594522	-1.072573
C42	C	1.502294	-0.400257	-1.073050
C43	C	1.501667	-0.400799	-0.950452
C44	C	1.644256	-0.541613	-0.950341
C45	C	1.643688	-0.544021	-1.072948
C46	C	1.532049	-0.512753	-0.235385
C47	C	1.532223	-0.512492	-0.117555
H48	H	0.941743	-0.346733	-0.448260
O49	O	1.586967	-1.088612	-0.715947
H50	H	1.528000	-1.060303	-0.774517
O51	O	1.327142	-1.089027	-0.455741
H52	H	1.328392	-1.177146	-0.455270
H53	H	1.124914	-0.537568	-0.686442
O54	O	1.394978	-0.367157	-1.113692
H55	H	1.396780	-0.363706	-1.201384
O56	O	1.728875	-0.470464	-1.113476
H57	H	1.692936	-0.410011	-1.166277
H58	H	1.366896	-0.575263	-1.101898
O59	O	1.474663	-0.704748	-1.112446
H60	H	1.486933	-0.758757	-1.044162
H61	H	1.484212	-0.945995	-0.332220
O62	O	1.682400	-1.088384	-0.360692
H63	H	1.762355	-1.058668	-0.381636
H64	H	1.705303	-0.481722	-0.921336
O65	O	1.737160	-0.935576	-0.565866
H66	H	1.758490	-0.963897	-0.646194
O67	O	1.474639	-0.705449	-0.910962
H68	H	1.545433	-0.703012	-0.859155
O69	O	1.340825	-0.569676	-0.909218
H70	H	1.344559	-0.498864	-0.857130
H71	H	1.419745	-0.376256	-0.921853
H72	H	0.943043	-0.648577	-0.397688
O73	O	1.673601	-0.653429	-1.111486
H74	H	1.685431	-0.706761	-1.042599
H75	H	1.558775	-0.337424	-0.920774
O76	O	1.381786	-0.935722	-0.660749
H77	H	1.402512	-0.965234	-0.740810
O78	O	1.132801	-0.372471	-0.652949
H79	H	1.183480	-0.340330	-0.588856
O80	O	1.578945	-0.316835	-1.111634
H81	H	1.577019	-0.313748	-1.199334
O82	O	1.680430	-0.648228	-0.909405
H83	H	1.623182	-0.710298	-0.933996
O84	O	0.932406	-0.708720	-0.554949
H85	H	1.000979	-0.749646	-0.591553
H86	H	1.123867	-0.347197	-0.448106
H87	H	0.940750	-0.403934	-0.650830
H88	H	0.940363	-0.448762	-0.346669
H89	H	1.123049	-0.449184	-0.345821
O90	O	1.132920	-0.708613	-0.556452
H91	H	1.184388	-0.671124	-0.617006
H92	H	0.942671	-0.544465	-0.683818
O93	O	1.134874	-0.657432	-0.372775
H94	H	1.186740	-0.593953	-0.340903
