data_functionalizedCrystal
_audit_creation_method	'MofGen! by Chris Wilmer'
_symmetry_space_group_name_H-M	'P1'
_symmetry_Int_Tables_number	1
_symmetry_cell_setting	triclinic
loop_
_symmetry_equiv_pos_as_xyz
  x,y,z
_cell_length_a	21.295417
_cell_length_b	18.050591
_cell_length_c	18.050582
_cell_angle_alpha	89.979078
_cell_angle_beta	90.026755
_cell_angle_gamma	89.973488
loop_
_atom_site_label
_atom_site_type_symbol
_atom_site_fract_x
_atom_site_fract_y
_atom_site_fract_z
Zn1	Zn	-0.250716	-1.135281	0.420010
Zn2	Zn	-0.000716	-0.885281	0.670010
Zn3	Zn	0.249284	-0.635281	0.920010
Zn4	Zn	0.499284	-0.385281	1.170010
Zn5	Zn	-0.355977	-1.135186	0.295811
Zn6	Zn	-0.105977	-0.885186	0.545811
Zn7	Zn	0.144023	-0.635186	0.795811
Zn8	Zn	0.394023	-0.385186	1.045811
Zn9	Zn	-0.250719	-1.011100	0.295821
Zn10	Zn	-0.000719	-0.761100	0.545821
Zn11	Zn	0.249281	-0.511100	0.795821
Zn12	Zn	0.499281	-0.261100	1.045821
Zn13	Zn	-0.355944	-1.011043	0.419946
Zn14	Zn	-0.105944	-0.761043	0.669946
Zn15	Zn	0.144056	-0.511043	0.919946
Zn16	Zn	0.394056	-0.261043	1.169946
O17	O	-0.303339	-1.073153	0.357897
O18	O	-0.053339	-0.823153	0.607897
O19	O	0.196661	-0.573153	0.857897
O20	O	0.446661	-0.323153	1.107897
O21	O	-0.264692	-1.239193	0.403557
O22	O	-0.014692	-0.989193	0.653557
O23	O	0.235308	-0.739193	0.903557
O24	O	0.485308	-0.489193	1.153557
O25	O	-0.342030	-1.118710	0.191887
O26	O	-0.092030	-0.868710	0.441887
O27	O	0.157970	-0.618710	0.691887
O28	O	0.407970	-0.368710	0.941887
O29	O	-0.162629	-1.027636	0.312326
O30	O	0.087371	-0.777636	0.562326
O31	O	0.337371	-0.527636	0.812326
O32	O	0.587371	-0.277636	1.062326
O33	O	-0.342027	-1.239124	0.312308
O34	O	-0.092027	-0.989124	0.562308
O35	O	0.157973	-0.739124	0.812308
O36	O	0.407973	-0.489124	1.062308
O37	O	-0.162627	-1.118871	0.403567
O38	O	0.087373	-0.868871	0.653567
O39	O	0.337373	-0.618871	0.903567
O40	O	0.587373	-0.368871	1.153567
O41	O	-0.264697	-1.027545	0.191895
O42	O	-0.014697	-0.777545	0.441895
O43	O	0.235303	-0.527545	0.691895
O44	O	0.485303	-0.277545	0.941895
O45	O	-0.264664	-0.907168	0.312264
O46	O	-0.014664	-0.657168	0.562264
O47	O	0.235336	-0.407168	0.812264
O48	O	0.485336	-0.157168	1.062264
O49	O	-0.341971	-1.027539	0.523879
O50	O	-0.091971	-0.777539	0.773879
O51	O	0.158029	-0.527539	1.023879
O52	O	0.408029	-0.277539	1.273879
O53	O	-0.341973	-0.907126	0.403458
O54	O	-0.091973	-0.657126	0.653458
O55	O	0.158027	-0.407126	0.903458
O56	O	0.408027	-0.157126	1.153458
O57	O	-0.264660	-1.118816	0.523926
O58	O	-0.014660	-0.868816	0.773926
O59	O	0.235340	-0.618816	1.023926
O60	O	0.485340	-0.368816	1.273926
O61	O	-0.444062	-1.118655	0.312247
O62	O	-0.194062	-0.868655	0.562247
O63	O	0.055938	-0.618655	0.812247
O64	O	0.305938	-0.368655	1.062247
O65	O	-0.444038	-1.027448	0.403449
O66	O	-0.194038	-0.777448	0.653449
O67	O	0.055962	-0.527448	0.903449
O68	O	0.305962	-0.277448	1.153449
C69	C	-0.303316	-0.880200	0.357856
C70	C	-0.053316	-0.630200	0.607856
C71	C	0.196684	-0.380200	0.857856
C72	C	0.446684	-0.130200	1.107856
C73	C	-0.303321	-0.797655	0.357856
C74	C	-0.053321	-0.547655	0.607856
C75	C	0.196679	-0.297655	0.857856
C76	C	0.446679	-0.047655	1.107856
C77	C	-0.466891	-1.073055	0.357856
C78	C	-0.216891	-0.823055	0.607856
C79	C	0.033109	-0.573055	0.857856
C80	C	0.283109	-0.323055	1.107856
C81	C	-0.536859	-1.073081	0.357863
C82	C	-0.286859	-0.823081	0.607863
C83	C	-0.036859	-0.573081	0.857863
C84	C	0.213141	-0.323081	1.107863
C85	C	-0.303311	-1.073182	0.551603
C86	C	-0.053311	-0.823182	0.801603
C87	C	0.196689	-0.573182	1.051603
C88	C	0.446689	-0.323182	1.301603
C89	C	-0.303299	-1.073194	0.634148
C90	C	-0.053299	-0.823194	0.884148
C91	C	0.196701	-0.573194	1.134148
C92	C	0.446701	-0.323194	1.384148
C93	C	-0.569717	-1.120615	0.310423
C94	C	-0.319717	-0.870615	0.560423
C95	C	-0.069717	-0.620615	0.810423
C96	C	0.180283	-0.370615	1.060423
C97	C	-0.635460	-1.120650	0.310440
C98	C	-0.385460	-0.870650	0.560440
C99	C	-0.135460	-0.620650	0.810440
C100	C	0.114540	-0.370650	1.060440
C101	C	-0.668341	-1.073138	0.357889
C102	C	-0.418341	-0.823138	0.607889
C103	C	-0.168341	-0.573138	0.857889
C104	C	0.081659	-0.323138	1.107889
C105	C	-0.635475	-1.025600	0.405338
C106	C	-0.385475	-0.775600	0.655338
C107	C	-0.135475	-0.525600	0.905338
C108	C	0.114525	-0.275600	1.155338
C109	C	-0.569734	-1.025572	0.405325
C110	C	-0.319734	-0.775572	0.655325
C111	C	-0.069734	-0.525572	0.905325
C112	C	0.180266	-0.275572	1.155325
N113	N	-0.771604	-1.008171	0.363536
N114	N	-0.521604	-0.758171	0.613536
N115	N	-0.271604	-0.508171	0.863536
N116	N	-0.021604	-0.258171	1.113536
N117	N	-0.834055	-1.008200	0.363544
N118	N	-0.584055	-0.758200	0.613544
N119	N	-0.334055	-0.508200	0.863544
N120	N	-0.084055	-0.258200	1.113544
C121	C	-0.866416	-1.073221	0.357931
C122	C	-0.616416	-0.823221	0.607931
C123	C	-0.366416	-0.573221	0.857931
C124	C	-0.116416	-0.323221	1.107931
N125	N	-0.833966	-1.138214	0.352296
N126	N	-0.583966	-0.888214	0.602296
N127	N	-0.333966	-0.638214	0.852296
N128	N	-0.083966	-0.388214	1.102296
N129	N	-0.771509	-1.138184	0.352284
N130	N	-0.521509	-0.888184	0.602284
N131	N	-0.271509	-0.638184	0.852284
N132	N	-0.021509	-0.388184	1.102284
C133	C	-0.739627	-1.073163	0.357908
C134	C	-0.489627	-0.823163	0.607908
C135	C	-0.239627	-0.573163	0.857908
C136	C	0.010373	-0.323163	1.107908
C137	C	-0.970560	-1.120797	0.310507
C138	C	-0.720560	-0.870797	0.560507
C139	C	-0.470560	-0.620797	0.810507
C140	C	-0.220560	-0.370797	1.060507
C141	C	-1.036304	-1.120833	0.310529
C142	C	-0.786304	-0.870833	0.560529
C143	C	-0.536304	-0.620833	0.810529
C144	C	-0.286304	-0.370833	1.060529
C145	C	-1.036318	-1.025776	0.405423
C146	C	-0.786318	-0.775776	0.655423
C147	C	-0.536318	-0.525776	0.905423
C148	C	-0.286318	-0.275776	1.155423
C149	C	-0.970575	-1.025747	0.405405
C150	C	-0.720575	-0.775747	0.655405
C151	C	-0.470575	-0.525747	0.905405
C152	C	-0.220575	-0.275747	1.155405
C153	C	-0.937700	-1.073256	0.357943
C154	C	-0.687700	-0.823256	0.607943
C155	C	-0.437700	-0.573256	0.857943
C156	C	-0.187700	-0.323256	1.107943
C157	C	-0.139149	-1.073270	0.357954
C158	C	0.110851	-0.823270	0.607954
C159	C	0.360851	-0.573270	0.857954
C160	C	0.610851	-0.323270	1.107954
C161	C	-0.069181	-1.073321	0.357979
C162	C	0.180819	-0.823321	0.607979
C163	C	0.430819	-0.573321	0.857979
C164	C	0.680819	-0.323321	1.107979
C165	C	-0.303363	-1.266858	0.357939
C166	C	-0.053363	-1.016858	0.607939
C167	C	0.196637	-0.766858	0.857939
C168	C	0.446637	-0.516858	1.107939
C169	C	-0.303373	-1.349404	0.357956
C170	C	-0.053373	-1.099404	0.607956
C171	C	0.196627	-0.849404	0.857956
C172	C	0.446627	-0.599404	1.107956
C173	C	-0.261232	-0.598205	0.308379
C174	C	-0.011232	-0.348205	0.558379
C175	C	0.238768	-0.098205	0.808379
C176	C	0.488768	0.151795	1.058379
C177	C	-0.318646	-0.548783	0.290098
C178	C	-0.068646	-0.298783	0.540098
C179	C	0.181354	-0.048783	0.790098
C180	C	0.431354	0.201217	1.040098
C181	C	-0.303340	-0.646524	0.357889
C182	C	-0.053340	-0.396524	0.607889
C183	C	0.196660	-0.146524	0.857889
C184	C	0.446660	0.103476	1.107889
C185	C	-0.245945	-0.548865	0.376169
C186	C	0.004055	-0.298865	0.626169
C187	C	0.254055	-0.048865	0.876169
C188	C	0.504055	0.201135	1.126169
C189	C	-0.303353	-0.500539	0.357920
C190	C	-0.053353	-0.250539	0.607920
C191	C	0.196647	-0.000539	0.857920
C192	C	0.446647	0.249461	1.107920
C193	C	-0.360785	-0.598189	0.339573
C194	C	-0.110785	-0.348189	0.589573
C195	C	0.139215	-0.098189	0.839573
C196	C	0.389215	0.151811	1.089573
C197	C	-0.288045	-0.598276	0.425676
C198	C	-0.038045	-0.348276	0.675676
C199	C	0.211955	-0.098276	0.925676
C200	C	0.461955	0.151724	1.175676
C201	C	-0.345499	-0.548875	0.407420
C202	C	-0.095499	-0.298875	0.657420
C203	C	0.154501	-0.048875	0.907420
C204	C	0.404501	0.201125	1.157420
C205	C	-0.303331	-0.730623	0.357870
C206	C	-0.053331	-0.480623	0.607870
C207	C	0.196669	-0.230623	0.857870
C208	C	0.446669	0.019377	1.107870
C209	C	-0.303368	-0.416443	0.357940
C210	C	-0.053368	-0.166443	0.607940
C211	C	0.196632	0.083557	0.857940
C212	C	0.446632	0.333557	1.107940
C213	C	-0.303322	-1.073166	0.164945
C214	C	-0.053322	-0.823166	0.414945
C215	C	0.196678	-0.573166	0.664945
C216	C	0.446678	-0.323166	0.914945
C217	C	-0.303156	-1.073298	0.082399
C218	C	-0.053156	-0.823298	0.332399
C219	C	0.196844	-0.573298	0.582399
C220	C	0.446844	-0.323298	0.832399
C221	C	-0.345283	-1.023596	0.833574
C222	C	-0.095283	-0.773596	1.083574
C223	C	0.154717	-0.523596	1.333574
C224	C	0.404717	-0.273596	1.583574
C225	C	-0.360675	-1.091350	0.882971
C226	C	-0.110675	-0.841350	1.132971
C227	C	0.139325	-0.591350	1.382971
C228	C	0.389325	-0.341350	1.632971
C229	C	-0.303251	-1.073231	0.785279
C230	C	-0.053251	-0.823231	1.035279
C231	C	0.196749	-0.573231	1.285279
C232	C	0.446749	-0.323231	1.535279
C233	C	-0.287842	-1.005513	0.882964
C234	C	-0.037842	-0.755513	1.132964
C235	C	0.212158	-0.505513	1.382964
C236	C	0.462158	-0.255513	1.632964
C237	C	-0.303206	-1.073260	0.931264
C238	C	-0.053206	-0.823260	1.181264
C239	C	0.196794	-0.573260	1.431264
C240	C	0.446794	-0.323260	1.681264
C241	C	-0.318673	-1.141021	0.833589
C242	C	-0.068673	-0.891021	1.083589
C243	C	0.181327	-0.641021	1.333589
C244	C	0.431327	-0.391021	1.583589
C245	C	-0.245814	-1.055138	0.833577
C246	C	0.004186	-0.805138	1.083577
C247	C	0.254186	-0.555138	1.333577
C248	C	0.504186	-0.305138	1.583577
C249	C	-0.261183	-1.122940	0.882952
C250	C	-0.011183	-0.872940	1.132952
C251	C	0.238817	-0.622940	1.382952
C252	C	0.488817	-0.372940	1.632952
C253	C	-0.303279	-1.073213	0.701181
C254	C	-0.053279	-0.823213	0.951181
C255	C	0.196721	-0.573213	1.201181
C256	C	0.446721	-0.323213	1.451181
C257	C	-0.303178	-1.073286	1.015361
C258	C	-0.053178	-0.823286	1.265361
C259	C	0.196822	-0.573286	1.515361
C260	C	0.446822	-0.323286	1.765361
H261	H	-0.542953	-1.159302	0.271778
H262	H	-0.292953	-0.909302	0.521778
H263	H	-0.042953	-0.659302	0.771778
H264	H	0.207047	-0.409302	1.021778
H265	H	-0.381156	-0.527352	0.449303
H266	H	-0.131156	-0.277352	0.699303
H267	H	0.118844	-0.027352	0.949303
H268	H	0.368844	0.222648	1.199303
C269	C	-0.671612	-1.172940	0.258246
C270	C	-0.421612	-0.922940	0.508246
C271	C	-0.171612	-0.672940	0.758246
C272	C	0.078388	-0.422940	1.008246
N273	N	-0.698839	-1.212322	0.218931
N274	N	-0.448839	-0.962322	0.468931
N275	N	-0.198839	-0.712322	0.718931
N276	N	0.051161	-0.462322	0.968931
C277	C	-0.533588	-0.973288	0.457525
C278	C	-0.283588	-0.723288	0.707525
C279	C	-0.033588	-0.473288	0.957525
C280	C	0.216412	-0.223288	1.207525
N281	N	-0.506363	-0.933910	0.496845
N282	N	-0.256363	-0.683910	0.746845
N283	N	-0.006363	-0.433910	0.996845
N284	N	0.243637	-0.183910	1.246845
H285	H	-1.063089	-0.987094	0.444060
H286	H	-0.813089	-0.737094	0.694060
H287	H	-0.563089	-0.487094	0.944060
H288	H	-0.313089	-0.237094	1.194060
H289	H	-0.274828	-0.948233	0.904653
H290	H	-0.024828	-0.698233	1.154653
H291	H	0.225172	-0.448233	1.404653
H292	H	0.475172	-0.198233	1.654653
C293	C	-0.180364	-0.519597	0.397041
C294	C	0.069636	-0.269597	0.647041
C295	C	0.319636	-0.019597	0.897041
C296	C	0.569636	0.230403	1.147041
N297	N	-0.130968	-0.497556	0.412757
N298	N	0.119032	-0.247556	0.662757
N299	N	0.369032	0.002444	0.912757
N300	N	0.619032	0.252444	1.162757
C301	C	-0.426383	-0.627335	0.318609
C302	C	-0.176383	-0.377335	0.568609
C303	C	0.073617	-0.127335	0.818609
C304	C	0.323617	0.122665	1.068609
N305	N	-0.475790	-0.649289	0.302815
N306	N	-0.225790	-0.399289	0.552815
N307	N	0.024210	-0.149289	0.802815
N308	N	0.274210	0.100711	1.052815
H309	H	-0.662251	-0.986917	0.443973
H310	H	-0.412251	-0.736917	0.693973
H311	H	-0.162251	-0.486917	0.943973
H312	H	0.087749	-0.236917	1.193973
H313	H	-0.409229	-1.106671	0.904667
H314	H	-0.159229	-0.856671	1.154667
H315	H	0.090771	-0.606671	1.404667
H316	H	0.340771	-0.356671	1.654667
C317	C	-0.180239	-1.034412	0.804238
C318	C	0.069761	-0.784412	1.054238
C319	C	0.319761	-0.534412	1.304238
C320	C	0.569761	-0.284412	1.554238
N321	N	-0.130848	-1.018792	0.782137
N322	N	0.119152	-0.768792	1.032137
N323	N	0.369152	-0.518792	1.282137
N324	N	0.619152	-0.268792	1.532137
H325	H	-0.380875	-0.981660	0.811894
H326	H	-0.130875	-0.731660	1.061894
H327	H	0.119125	-0.481660	1.311894
H328	H	0.369125	-0.231660	1.561894
C329	C	-0.336335	-1.218425	0.804414
C330	C	-0.086335	-0.968425	1.054414
C331	C	0.163665	-0.718425	1.304414
C332	C	0.413665	-0.468425	1.554414
N333	N	-0.349641	-1.276723	0.782438
N334	N	-0.099641	-1.026723	1.032438
N335	N	0.150359	-0.776723	1.282438
N336	N	0.400359	-0.526723	1.532438
H337	H	-0.331593	-0.527044	0.232786
H338	H	-0.081593	-0.277044	0.482786
H339	H	0.168407	-0.027044	0.732786
H340	H	0.418407	0.222956	0.982786
H341	H	-0.225619	-1.164975	0.904496
H342	H	0.024381	-0.914975	1.154496
H343	H	0.274381	-0.664975	1.404496
H344	H	0.524381	-0.414975	1.654496
H345	H	-0.943792	-1.159484	0.271862
H346	H	-0.693792	-0.909484	0.521862
H347	H	-0.443792	-0.659484	0.771862
H348	H	-0.193792	-0.409484	1.021862
C349	C	-0.270528	-0.627675	0.503076
C350	C	-0.020528	-0.377675	0.753076
C351	C	0.229472	-0.127675	1.003076
C352	C	0.479472	0.122325	1.253076
N353	N	-0.257326	-0.649823	0.561374
N354	N	-0.007326	-0.399823	0.811374
N355	N	0.242674	-0.149823	1.061374
N356	N	0.492674	0.100177	1.311374
H357	H	-1.063056	-1.159545	0.271899
H358	H	-0.813056	-0.909545	0.521899
H359	H	-0.563056	-0.659545	0.771899
H360	H	-0.313056	-0.409545	1.021899
C361	C	-0.934429	-0.973470	0.457609
C362	C	-0.684429	-0.723470	0.707609
C363	C	-0.434429	-0.473470	0.957609
C364	C	-0.184429	-0.223470	1.207609
N365	N	-0.907205	-0.934101	0.496940
N366	N	-0.657205	-0.684101	0.746940
N367	N	-0.407205	-0.434101	0.996940
N368	N	-0.157205	-0.184101	1.246940
H369	H	-0.225660	-0.619865	0.266464
H370	H	0.024340	-0.369865	0.516464
H371	H	0.274340	-0.119865	0.766464
H372	H	0.524340	0.130135	1.016464
