data_functionalizedCrystal
_audit_creation_method	'MofGen! by Chris Wilmer'
_symmetry_space_group_name_H-M	'P1'
_symmetry_Int_Tables_number	1
_symmetry_cell_setting	triclinic
loop_
_symmetry_equiv_pos_as_xyz
  x,y,z
_cell_length_a	18.050591
_cell_length_b	29.839131
_cell_length_c	18.050583
_cell_angle_alpha	90.035362
_cell_angle_beta	90.013856
_cell_angle_gamma	90.040261
loop_
_atom_site_label
_atom_site_type_symbol
_atom_site_fract_x
_atom_site_fract_y
_atom_site_fract_z
Zn1	Zn	1.135249	-0.178852	0.419811
Zn2	Zn	1.468582	0.154481	0.753144
Zn3	Zn	1.801915	0.487815	1.086477
Zn4	Zn	1.135124	-0.253987	0.295614
Zn5	Zn	1.468457	0.079346	0.628948
Zn6	Zn	1.801790	0.412680	0.962281
Zn7	Zn	1.011061	-0.178870	0.295644
Zn8	Zn	1.344394	0.154463	0.628978
Zn9	Zn	1.677727	0.487796	0.962311
Zn10	Zn	1.010987	-0.253954	0.419772
Zn11	Zn	1.344321	0.079379	0.753106
Zn12	Zn	1.677654	0.412713	1.086439
O13	O	1.073105	-0.216416	0.357711
O14	O	1.406438	0.116917	0.691044
O15	O	1.739772	0.450251	1.024377
O16	O	1.239157	-0.188825	0.403339
O17	O	1.572490	0.144508	0.736673
O18	O	1.905823	0.477842	1.070006
O19	O	1.118645	-0.244044	0.191694
O20	O	1.451978	0.089289	0.525027
O21	O	1.785311	0.422622	0.858360
O22	O	1.027618	-0.116001	0.312144
O23	O	1.360951	0.217332	0.645477
O24	O	1.694284	0.550666	0.978811
O25	O	1.239065	-0.244026	0.312093
O26	O	1.572398	0.089307	0.645426
O27	O	1.905731	0.422640	0.978760
O28	O	1.118858	-0.115987	0.403368
O29	O	1.452191	0.217346	0.736702
O30	O	1.785525	0.550679	1.070035
O31	O	1.027496	-0.188856	0.191716
O32	O	1.360830	0.144477	0.525049
O33	O	1.694163	0.477810	0.858382
O34	O	0.907126	-0.188824	0.312107
O35	O	1.240460	0.144509	0.645440
O36	O	1.573793	0.477842	0.978773
O37	O	1.027492	-0.243970	0.523702
O38	O	1.360826	0.089363	0.857036
O39	O	1.694159	0.422697	1.190369
O40	O	0.907072	-0.243988	0.403303
O41	O	1.240406	0.089345	0.736636
O42	O	1.573739	0.422679	1.069970
O43	O	1.118787	-0.188793	0.523730
O44	O	1.452120	0.144540	0.857064
O45	O	1.785453	0.477874	1.190397
O46	O	1.118574	-0.316850	0.312056
O47	O	1.451907	0.016483	0.645389
O48	O	1.785240	0.349817	0.978722
O49	O	1.027371	-0.316826	0.403274
O50	O	1.360704	0.016508	0.736607
O51	O	1.694038	0.349841	1.069941
C52	C	0.880153	-0.216405	0.357704
C53	C	1.213486	0.116928	0.691038
C54	C	1.546820	0.450262	1.024371
C55	C	0.797607	-0.216411	0.357719
C56	C	1.130940	0.116922	0.691053
C57	C	1.464274	0.450256	1.024386
C58	C	1.072971	-0.333139	0.357674
C59	C	1.406304	0.000195	0.691007
C60	C	1.739638	0.333528	1.024340
C61	C	1.072981	-0.383073	0.357683
C62	C	1.406315	-0.049740	0.691016
C63	C	1.739648	0.283594	1.024349
C64	C	0.548774	-0.246471	0.407244
C65	C	0.882107	0.086862	0.740578
C66	C	1.215440	0.420195	1.073911
C67	C	0.598136	-0.257410	0.339458
C68	C	0.931469	0.075923	0.672791
C69	C	1.264802	0.409257	1.006124
C70	C	0.500487	-0.216425	0.357718
C71	C	0.833820	0.116908	0.691051
C72	C	1.167153	0.450241	1.024385
C73	C	0.598206	-0.205501	0.425502
C74	C	0.931540	0.127833	0.758835
C75	C	1.264873	0.461166	1.092168
C76	C	0.646472	-0.216419	0.357722
C77	C	0.979805	0.116914	0.691056
C78	C	1.313138	0.450247	1.024389
C79	C	0.548761	-0.227385	0.289895
C80	C	0.882095	0.105948	0.623229
C81	C	1.215428	0.439281	0.956562
C82	C	0.548828	-0.175457	0.375985
C83	C	0.882161	0.157876	0.709318
C84	C	1.215495	0.491210	1.042652
C85	C	0.598168	-0.186380	0.308151
C86	C	0.931501	0.146953	0.641485
C87	C	1.264834	0.480287	0.974818
C88	C	0.416388	-0.216430	0.357717
C89	C	0.749722	0.116904	0.691050
C90	C	1.083055	0.450237	1.024383
C91	C	0.730568	-0.216415	0.357716
C92	C	1.063902	0.116919	0.691049
C93	C	1.397235	0.450252	1.024383
C94	C	1.120680	-0.692716	0.310283
C95	C	1.454014	-0.359383	0.643616
C96	C	1.787347	-0.026050	0.976949
C97	C	1.120772	-0.880389	0.310311
C98	C	1.454105	-0.547056	0.643645
C99	C	1.787439	-0.213723	0.976978
O100	O	1.161221	-0.904654	0.269982
O101	O	1.494554	-0.571321	0.603315
O102	O	1.827888	-0.237987	0.936648
N103	N	1.073259	-0.903858	0.357767
N104	N	1.406592	-0.570525	0.691100
N105	N	1.739926	-0.237191	1.024433
C106	C	1.025723	-0.880405	0.405221
C107	C	1.359056	-0.547072	0.738555
C108	C	1.692390	-0.213739	1.071888
O109	O	0.985318	-0.904673	0.445591
O110	O	1.318651	-0.571340	0.778924
O111	O	1.651984	-0.238007	1.112258
C112	C	1.025636	-0.692733	0.405196
C113	C	1.358969	-0.359400	0.738529
C114	C	1.692302	-0.026067	1.071862
C115	C	1.073147	-0.669267	0.357732
C116	C	1.406480	-0.335934	0.691065
C117	C	1.739813	-0.002600	1.024399
C118	C	1.168188	-0.669250	0.262823
C119	C	1.501521	-0.335917	0.596157
C120	C	1.834855	-0.002583	0.929490
C121	C	1.168162	-0.622335	0.262814
C122	C	1.501495	-0.289001	0.596147
C123	C	1.834828	0.044332	0.929480
C124	C	1.120628	-0.598885	0.310263
C125	C	1.453961	-0.265552	0.643597
C126	C	1.787295	0.067781	0.976930
C127	C	1.073120	-0.622352	0.357723
C128	C	1.406454	-0.289018	0.691056
C129	C	1.739787	0.044315	1.024389
C130	C	0.978104	-0.669282	0.452654
C131	C	1.311437	-0.335948	0.785987
C132	C	1.644771	-0.002615	1.119320
C133	C	0.978088	-0.622361	0.452644
C134	C	1.311421	-0.289027	0.785978
C135	C	1.644754	0.044306	1.119311
C136	C	1.025599	-0.598894	0.405181
C137	C	1.358932	-0.265561	0.738514
C138	C	1.692265	0.067772	1.071847
C139	C	1.025560	-0.551987	0.405163
C140	C	1.358894	-0.218654	0.738496
C141	C	1.692227	0.114680	1.071829
N142	N	1.073073	-0.528518	0.357707
N143	N	1.406407	-0.195185	0.691041
N144	N	1.739740	0.138148	1.024374
C145	C	1.120607	-0.551968	0.310258
C146	C	1.453941	-0.218634	0.643591
C147	C	1.787274	0.114699	0.976924
C148	C	1.025771	-0.978936	0.405230
C149	C	1.359105	-0.645603	0.738564
C150	C	1.692438	-0.312269	1.071897
C151	C	1.025792	-1.025854	0.405236
C152	C	1.359125	-0.692521	0.738569
C153	C	1.692459	-0.359187	1.071903
C154	C	1.120842	-1.025835	0.310327
C155	C	1.454176	-0.692501	0.643660
C156	C	1.787509	-0.359168	0.976993
C157	C	1.120817	-0.978916	0.310318
C158	C	1.454151	-0.645582	0.643651
C159	C	1.787484	-0.312249	0.976985
C160	C	1.073284	-0.955467	0.357775
C161	C	1.406618	-0.622134	0.691109
C162	C	1.739951	-0.288801	1.024442
C163	C	1.120548	-0.453442	0.310241
C164	C	1.453881	-0.120108	0.643574
C165	C	1.787215	0.213225	0.976907
C166	C	1.120515	-0.406522	0.310233
C167	C	1.453849	-0.073189	0.643567
C168	C	1.787182	0.260145	0.976900
C169	C	1.025468	-0.406546	0.405145
C170	C	1.358802	-0.073212	0.738478
C171	C	1.692135	0.260121	1.071812
C172	C	1.025498	-0.453461	0.405150
C173	C	1.358831	-0.120128	0.738483
C174	C	1.692164	0.213206	1.071817
C175	C	1.073044	-0.476908	0.357695
C176	C	1.406377	-0.143575	0.691029
C177	C	1.739710	0.189759	1.024362
O178	O	0.985138	-0.527693	0.445477
O179	O	1.318472	-0.194360	0.778810
O180	O	1.651805	0.138973	1.112144
O181	O	1.161018	-0.527692	0.269906
O182	O	1.494351	-0.194358	0.603239
O183	O	1.827685	0.138975	0.936572
C184	C	1.120707	-0.739632	0.310292
C185	C	1.454040	-0.406298	0.643625
C186	C	1.787373	-0.072965	0.976959
C187	C	1.073199	-0.763098	0.357751
C188	C	1.406532	-0.429765	0.691085
C189	C	1.739866	-0.096431	1.024418
C190	C	1.025665	-0.739649	0.405201
C191	C	1.358999	-0.406315	0.738534
C192	C	1.692332	-0.072982	1.071868
C193	C	1.073220	-0.810016	0.357757
C194	C	1.406553	-0.476682	0.691090
C195	C	1.739887	-0.143349	1.024424
C196	C	1.120754	-0.833465	0.310307
C197	C	1.454087	-0.500132	0.643641
C198	C	1.787420	-0.166798	0.976974
C199	C	1.168267	-0.809996	0.262852
C200	C	1.501600	-0.476663	0.596185
C201	C	1.834933	-0.143330	0.929519
C202	C	1.168241	-0.763081	0.262843
C203	C	1.501574	-0.429748	0.596176
C204	C	1.834907	-0.096414	0.929509
C205	C	0.978152	-0.763117	0.452656
C206	C	1.311485	-0.429784	0.785989
C207	C	1.644819	-0.096451	1.119323
C208	C	0.978182	-0.810033	0.452661
C209	C	1.311515	-0.476700	0.785994
C210	C	1.644848	-0.143366	1.119328
C211	C	1.025716	-0.833482	0.405212
C212	C	1.359049	-0.500149	0.738545
C213	C	1.692382	-0.166815	1.071878
C214	C	1.266811	-0.216427	0.357717
C215	C	1.600144	0.116906	0.691050
C216	C	1.933477	0.450239	1.024384
C217	C	1.349356	-0.216432	0.357720
C218	C	1.682690	0.116901	0.691053
C219	C	2.016023	0.450235	1.024387
C220	C	1.073260	-0.099238	0.357764
C221	C	1.406593	0.234096	0.691097
C222	C	1.739927	0.567429	1.024430
C223	C	1.073326	-0.049303	0.357786
C224	C	1.406659	0.284030	0.691120
C225	C	1.739993	0.617364	1.024453
C226	C	1.073145	-0.216376	0.551416
C227	C	1.406479	0.116958	0.884750
C228	C	1.739812	0.450291	1.218083
C229	C	1.073163	-0.216359	0.633962
C230	C	1.406496	0.116975	0.967295
C231	C	1.739829	0.450308	1.300629
C232	C	1.073108	-0.216424	0.164758
C233	C	1.406441	0.116910	0.498092
C234	C	1.739774	0.450243	0.831425
C235	C	1.073234	-0.216314	0.082213
C236	C	1.406568	0.117019	0.415546
C237	C	1.739901	0.450353	0.748880
C238	C	1.122855	-0.186323	0.882803
C239	C	1.456188	0.147010	1.216136
C240	C	1.789521	0.480344	1.549470
C241	C	1.140961	-0.227315	0.833384
C242	C	1.474294	0.106018	1.166718
C243	C	1.807628	0.439351	1.500051
C244	C	1.073210	-0.216330	0.931083
C245	C	1.406544	0.117003	1.264416
C246	C	1.739877	0.450337	1.597749
C247	C	1.055116	-0.175354	0.833420
C248	C	1.388449	0.157979	1.166753
C249	C	1.721782	0.491312	1.500086
C250	C	1.073189	-0.216342	0.785097
C251	C	1.406522	0.116991	1.118431
C252	C	1.739855	0.450325	1.451764
C253	C	1.091352	-0.257344	0.882751
C254	C	1.424685	0.075989	1.216084
C255	C	1.758019	0.409323	1.549418
C256	C	1.005475	-0.205355	0.882791
C257	C	1.338808	0.127978	1.216124
C258	C	1.672142	0.461311	1.549457
C259	C	1.023555	-0.246376	0.833394
C260	C	1.356889	0.086957	1.166728
C261	C	1.690222	0.420291	1.500061
C262	C	1.073225	-0.216323	1.015181
C263	C	1.406558	0.117011	1.348514
C264	C	1.739892	0.450344	1.681848
C265	C	1.073174	-0.216354	0.701001
C266	C	1.406508	0.116979	1.034334
C267	C	1.739841	0.450313	1.367668
H268	H	0.527086	-0.271902	0.449073
H269	H	0.860420	0.061431	0.782406
H270	H	1.193753	0.394765	1.115740
H271	H	1.039821	-0.140697	0.811748
H272	H	1.373154	0.192636	1.145081
H273	H	1.706488	0.525970	1.478414
H274	H	1.206929	-0.743978	0.224193
H275	H	1.540262	-0.410645	0.557527
H276	H	1.873595	-0.077311	0.890860
H277	H	1.206969	-0.829097	0.224215
H278	H	1.540302	-0.495764	0.557548
H279	H	1.873635	-0.162430	0.890882
H280	H	0.986813	-0.472568	0.443801
H281	H	1.320146	-0.139235	0.777134
H282	H	1.653480	0.194098	1.110468
H283	H	0.619795	-0.292054	0.324003
H284	H	0.953128	0.041280	0.657337
H285	H	1.286461	0.374613	0.990670
H286	H	0.527134	-0.236665	0.232558
H287	H	0.860467	0.096669	0.565891
H288	H	1.193801	0.430002	0.899224
H289	H	0.986764	-0.387446	0.443776
H290	H	1.320098	-0.054113	0.777109
H291	H	1.653431	0.279221	1.110442
H292	H	1.206851	-0.603231	0.224167
H293	H	1.540185	-0.269898	0.557500
H294	H	1.873518	0.063436	0.890834
H295	H	0.981564	-0.271786	0.811837
H296	H	1.314897	0.061547	1.145171
H297	H	1.648230	0.394880	1.478504
H298	H	0.619718	-0.160969	0.266222
H299	H	0.953051	0.172365	0.599555
H300	H	1.286385	0.505698	0.932889
H301	H	1.198234	-0.236605	0.811680
H302	H	1.531567	0.096728	1.145014
H303	H	1.864900	0.430062	1.478347
H304	H	0.527152	-0.140823	0.391459
H305	H	0.860485	0.192510	0.724792
H306	H	1.193818	0.525843	1.058125
H307	H	0.619925	-0.196263	0.482824
H308	H	0.953258	0.137070	0.816157
H309	H	1.286592	0.470404	1.149490
H310	H	0.948219	-0.196052	0.904510
H311	H	1.281552	0.137281	1.237843
H312	H	1.614885	0.470614	1.571177
H313	H	1.159204	-0.387417	0.271580
H314	H	1.492538	-0.054084	0.604913
H315	H	1.825871	0.279249	0.938247
H316	H	1.164879	-0.160973	0.904496
H317	H	1.498212	0.172360	1.237830
H318	H	1.831545	0.505693	1.571163
H319	H	1.159266	-0.472527	0.271600
H320	H	1.492599	-0.139193	0.604934
H321	H	1.825933	0.194140	0.938267
H322	H	1.206900	-0.688337	0.224184
H323	H	1.540233	-0.355004	0.557517
H324	H	1.873567	-0.021671	0.890851
H325	H	1.106730	-0.292009	0.904330
H326	H	1.440063	0.041324	1.237663
H327	H	1.773397	0.374658	1.570997
H328	H	1.159505	-0.959812	0.271670
H329	H	1.492838	-0.626479	0.605003
H330	H	1.826172	-0.293146	0.938336
H331	H	0.939445	-0.744029	0.491296
H332	H	1.272778	-0.410695	0.824630
H333	H	1.606112	-0.077362	1.157963
H334	H	1.159546	-1.044935	0.271692
H335	H	1.492880	-0.711601	0.605025
H336	H	1.826213	-0.378268	0.938358
H337	H	0.987097	-1.044956	0.443879
H338	H	1.320430	-0.711623	0.777212
H339	H	1.653764	-0.378290	1.110545
H340	H	0.987062	-0.959848	0.443877
H341	H	1.320396	-0.626514	0.777210
H342	H	1.653729	-0.293181	1.110543
H343	H	0.939412	-0.688380	0.491300
H344	H	1.272745	-0.355047	0.824634
H345	H	1.606079	-0.021713	1.157967
H346	H	0.939486	-0.829135	0.491311
H347	H	1.272819	-0.495802	0.824644
H348	H	1.606153	-0.162468	1.157978
H349	H	0.939382	-0.603271	0.491292
H350	H	1.272715	-0.269938	0.824626
H351	H	1.606048	0.063395	1.157959
