data_functionalizedCrystal
_audit_creation_method	'MofGen! by Chris Wilmer'
_symmetry_space_group_name_H-M	'P1'
_symmetry_Int_Tables_number	1
_symmetry_cell_setting	triclinic
loop_
_symmetry_equiv_pos_as_xyz
  x,y,z
_cell_length_a	23.532407
_cell_length_b	10.540535
_cell_length_c	22.610064
_cell_angle_alpha	89.991724
_cell_angle_beta	90.002839
_cell_angle_gamma	83.686160
loop_
_atom_site_label
_atom_site_type_symbol
_atom_site_fract_x
_atom_site_fract_y
_atom_site_fract_z
O1	O	0.756280	0.154064	0.049106
O2	O	0.590564	0.176359	0.049122
O3	O	0.677204	-0.019619	0.049116
O4	O	0.669640	0.350043	0.049112
O5	O	0.677189	-0.019591	-0.049253
O6	O	0.590548	0.176387	-0.049247
O7	O	0.756265	0.154093	-0.049264
Zn8	Zn	0.673404	0.165245	-0.064873
Zn9	Zn	0.673424	0.165207	0.064732
O10	O	0.669624	0.350071	-0.049257
C11	C	0.569336	0.175805	-0.000060
C12	C	0.506108	0.174098	-0.000054
C13	C	0.107700	0.279368	-0.000081
C14	C	0.048289	0.277783	-0.000085
O15	O	0.012188	0.375369	-0.000108
N16	N	0.024894	0.161274	-0.000083
C17	C	0.060913	0.046343	-0.000083
O18	O	0.035559	-0.052903	-0.000082
C19	C	0.120323	0.047930	-0.000084
C20	C	0.143714	0.164446	-0.000080
C21	C	0.131091	0.395875	-0.000078
C22	C	0.190498	0.397460	-0.000074
C23	C	0.226513	0.282538	-0.000072
C24	C	0.203121	0.166031	-0.000075
C25	C	0.156341	-0.067000	-0.000088
C26	C	0.215754	-0.065403	-0.000089
C27	C	0.239145	0.051114	-0.000085
C28	C	0.298542	0.052695	-0.000069
N29	N	0.321937	0.169203	-0.000071
C30	C	0.285922	0.284125	-0.000073
C31	C	-0.063851	0.043019	-0.000083
C32	C	-0.123260	0.041431	-0.000078
C33	C	-0.135880	0.272871	-0.000081
C34	C	-0.076470	0.274458	-0.000082
C35	C	-0.040456	0.159528	-0.000085
C36	C	0.410681	0.287445	-0.000062
C37	C	0.470093	0.289020	-0.000055
C38	C	0.482708	0.057581	-0.000055
C39	C	0.423301	0.056005	-0.000059
C40	C	0.387288	0.170948	-0.000065
O41	O	0.334678	-0.044840	-0.000049
O42	O	0.311285	0.383355	-0.000081
C43	C	0.676630	-0.066890	-0.000067
C44	C	0.674934	-0.207782	-0.000061
C45	C	0.777492	0.154646	-0.000080
C46	C	0.840720	0.156353	-0.000083
C47	C	0.670199	0.397341	-0.000073
C48	C	0.671894	0.538234	-0.000075
C49	C	0.735152	0.572829	-0.000078
C50	C	0.736937	0.719371	0.000152
C51	C	0.643027	0.748501	0.056002
C52	C	0.641681	0.601779	0.056041
C53	C	0.640743	0.601960	-0.055827
C54	C	0.643669	0.748210	-0.056556
N55	N	0.673394	0.165270	-0.153326
C56	C	0.711790	0.078441	-0.561970
C57	C	0.711793	0.078432	-0.623890
O58	O	0.744415	0.004626	-0.655911
N59	N	0.673424	0.165181	-0.654863
C60	C	0.635045	0.251936	-0.623913
O61	O	0.602409	0.325721	-0.655944
C62	C	0.635040	0.251938	-0.561994
C63	C	0.673416	0.165192	-0.531024
C64	C	0.750163	-0.008299	-0.531000
C65	C	0.750160	-0.008288	-0.469085
C66	C	0.711786	0.078463	-0.438139
C67	C	0.673413	0.165203	-0.469109
C68	C	0.596659	0.338686	-0.531045
C69	C	0.596657	0.338680	-0.469122
C70	C	0.635033	0.251934	-0.438152
C71	C	0.635036	0.251965	-0.376247
N72	N	0.673406	0.165217	-0.345274
C73	C	0.711781	0.078466	-0.376220
C74	C	0.635058	0.251923	-0.753947
C75	C	0.635066	0.251928	-0.815864
C76	C	0.711813	0.078422	-0.815837
C77	C	0.711808	0.078424	-0.753918
C78	C	0.673428	0.165174	-0.722974
C79	C	0.711773	0.078496	-0.246193
C80	C	0.711769	0.078519	-0.184272
C81	C	0.635020	0.252019	-0.184304
C82	C	0.635026	0.252002	-0.246220
C83	C	0.673404	0.165230	-0.277163
O84	O	0.602430	0.325730	-0.344187
O85	O	0.744406	0.004682	-0.344182
N86	N	0.673438	0.165172	0.153185
H87	H	-0.034531	-0.050577	-0.000080
Cl88	Cl	0.527995	-0.086884	-0.000056
H89	H	0.663241	0.560888	0.098106
H90	H	0.761891	0.747901	-0.040028
Cl91	Cl	0.586808	0.361002	-0.715050
Cl92	Cl	0.573795	0.826197	-0.062035
H93	H	0.759437	0.530080	-0.040279
Cl94	Cl	0.548402	0.447743	-0.430225
H95	H	0.245074	-0.158995	-0.000092
Cl96	Cl	0.548411	0.447740	-0.569966
Cl97	Cl	-0.152658	-0.105053	-0.000068
H98	H	0.603782	0.322651	-0.271436
Cl99	Cl	0.671171	0.535339	-0.121457
H100	H	0.489135	0.383906	-0.000052
Cl101	Cl	0.126950	-0.213487	-0.000083
Cl102	Cl	0.365417	0.431947	-0.000069
H103	H	0.664930	0.778672	0.097881
H104	H	0.404255	-0.038872	-0.000054
Cl105	Cl	0.679512	0.791226	-0.120595
Cl106	Cl	-0.047071	0.420941	-0.000079
H107	H	0.743059	0.007783	-0.841044
Cl108	Cl	0.772042	0.504504	0.061893
Cl109	Cl	0.568887	0.570060	-0.056661
H110	H	0.761781	0.746996	0.040574
Cl111	Cl	0.760017	-0.030539	-0.145341
Cl112	Cl	0.085826	0.540369	-0.000079
Cl113	Cl	-0.181167	0.417346	-0.000086
Cl114	Cl	0.570087	0.568563	0.059736
Cl115	Cl	0.586779	0.361075	-0.145391
H116	H	0.597376	0.797353	0.057933
Cl117	Cl	0.760023	-0.030589	-0.285082
H118	H	0.781408	-0.078927	-0.443873
Cl119	Cl	0.798412	-0.117371	-0.569893
Cl120	Cl	0.219895	0.543946	-0.000073
Cl121	Cl	0.760053	-0.030634	-0.714992
Cl122	Cl	0.586827	0.361001	-0.854791
