data_functionalizedCrystal
_audit_creation_method	'MofGen! by Chris Wilmer'
_symmetry_space_group_name_H-M	'P1'
_symmetry_Int_Tables_number	1
_symmetry_cell_setting	triclinic
loop_
_symmetry_equiv_pos_as_xyz
  x,y,z
_cell_length_a	13.033409
_cell_length_b	19.120786
_cell_length_c	13.032268
_cell_angle_alpha	85.590044
_cell_angle_beta	74.837427
_cell_angle_gamma	85.590070
loop_
_atom_site_label
_atom_site_type_symbol
_atom_site_fract_x
_atom_site_fract_y
_atom_site_fract_z
Zn1	Zn	1.522530	-0.440936	0.369055
Zn2	Zn	1.539150	-0.544169	0.185636
Zn3	Zn	1.368961	-0.414769	0.215538
Zn4	Zn	1.339069	-0.544143	0.385789
O5	O	1.442427	-0.486004	0.289004
O6	O	1.672738	-0.465592	0.325206
O7	O	1.536039	-0.516064	0.041591
O8	O	1.394886	-0.320893	0.241413
O9	O	1.684949	-0.541437	0.190450
O10	O	1.507712	-0.340119	0.354201
O11	O	1.411002	-0.420994	0.063560
O12	O	1.216992	-0.420969	0.257639
O13	O	1.343940	-0.541393	0.531581
O14	O	1.195030	-0.516019	0.382722
O15	O	1.478728	-0.465567	0.519286
O16	O	1.507055	-0.641512	0.206676
O17	O	1.360056	-0.641493	0.353727
C18	C	1.167635	-0.465652	0.325242
C19	C	1.050074	-0.456964	0.340768
C20	C	0.882210	-0.481565	0.296968
C21	C	1.003717	-0.490547	0.280915
C22	C	1.432141	-0.666747	0.278792
C23	C	1.427832	-0.744080	0.274445
C24	C	1.484493	-0.790360	0.331188
C25	C	1.480441	-0.863022	0.327106
C26	C	1.419732	-0.889402	0.266276
C27	C	1.363065	-0.843116	0.209532
C28	C	1.367112	-0.770455	0.213620
C29	C	1.404571	-1.108292	0.250997
C30	C	1.400530	-1.180958	0.246911
C31	C	1.517905	-1.200859	0.364487
C32	C	1.521952	-1.128196	0.368565
C33	C	1.465280	-1.081917	0.311825
C34	C	1.415591	-0.963674	0.262100
C35	C	1.469416	-1.007646	0.316008
C36	C	1.718292	-0.506437	0.252626
C37	C	1.835850	-0.515144	0.237124
C38	C	1.406145	-0.506396	0.564884
C39	C	1.390684	-0.515086	0.682448
C40	C	1.452779	-0.304559	0.299276
C41	C	1.457191	-0.227238	0.303653
C42	C	1.478632	-0.465646	0.014192
C43	C	1.494309	-0.456776	-0.103387
C44	C	1.450481	-0.481443	0.728778
C45	C	1.434503	-0.490423	0.850286
H46	H	1.053976	-0.525951	0.217797
N47	N	1.353614	-0.990645	0.199951
N48	N	1.397512	-1.028971	0.125405
H49	H	1.353745	-1.048027	0.081512
H50	H	0.999814	-0.421566	0.403896
H51	H	0.886112	-0.550545	0.174009
N52	N	1.531442	-0.980715	0.378137
N53	N	1.582040	-1.022040	0.428792
H54	H	1.625852	-1.003015	0.472668
H55	H	1.327654	-0.550532	0.732740
N56	N	1.546522	-0.763429	0.393321
N57	N	1.597106	-0.804762	0.443979
H58	H	1.640915	-0.785745	0.487864
H59	H	1.564043	-1.238547	0.410683
H60	H	1.313630	-0.864600	0.160007
H61	H	0.831945	-0.446171	0.360092
N62	N	1.309220	-0.723189	0.155660
N63	N	1.255017	-0.746749	0.101353
H64	H	1.214124	-0.713368	0.060421
H65	H	1.526589	-0.900701	0.373303
N66	N	1.583974	-1.101264	0.430703
N67	N	1.634562	-1.142594	0.481361
H68	H	1.678370	-1.123574	0.525244
H69	H	1.557332	-0.421318	0.846329
H70	H	1.371468	-0.525872	0.900575
N71	N	1.338555	-1.207894	0.184720
N72	N	1.287990	-1.166566	0.134035
H73	H	1.244239	-1.185589	0.090097
H74	H	1.358428	-1.070616	0.204795
N75	N	1.529535	-0.436965	0.665686
N76	N	1.542399	-0.429730	0.567070
H77	H	1.598232	-0.398316	0.522511
