data_functionalizedCrystal
_audit_creation_method	'MofGen! by Chris Wilmer'
_symmetry_space_group_name_H-M	'P1'
_symmetry_Int_Tables_number	1
_symmetry_cell_setting	triclinic
loop_
_symmetry_equiv_pos_as_xyz
  x,y,z
_cell_length_a	13.897449
_cell_length_b	16.625545
_cell_length_c	13.897441
_cell_angle_alpha	90.031284
_cell_angle_beta	89.976606
_cell_angle_gamma	89.975137
loop_
_atom_site_label
_atom_site_type_symbol
_atom_site_fract_x
_atom_site_fract_y
_atom_site_fract_z
Zn1	Zn	1.474660	0.320958	-0.545445
Zn2	Zn	1.724660	0.570958	-0.295445
Zn3	Zn	1.974660	0.820958	-0.045445
Zn4	Zn	2.224660	1.070958	0.204555
Zn5	Zn	1.474536	0.455808	-0.384145
Zn6	Zn	1.724536	0.705808	-0.134145
Zn7	Zn	1.974536	0.955808	0.115855
Zn8	Zn	2.224536	1.205808	0.365855
Zn9	Zn	1.313349	0.320995	-0.384156
Zn10	Zn	1.563349	0.570995	-0.134156
Zn11	Zn	1.813349	0.820995	0.115844
Zn12	Zn	2.063349	1.070995	0.365844
Zn13	Zn	1.313313	0.455754	-0.545390
Zn14	Zn	1.563313	0.705754	-0.295390
Zn15	Zn	1.813313	0.955754	-0.045390
Zn16	Zn	2.063313	1.205754	0.204610
O17	O	1.393965	0.388379	-0.464784
O18	O	1.643965	0.638379	-0.214784
O19	O	1.893965	0.888379	0.035216
O20	O	2.143965	1.138379	0.285216
O21	O	1.609625	0.338853	-0.524067
O22	O	1.859625	0.588853	-0.274067
O23	O	2.109625	0.838853	-0.024067
O24	O	2.359625	1.088853	0.225933
O25	O	1.453118	0.437963	-0.249164
O26	O	1.703118	0.687963	0.000836
O27	O	1.953118	0.937963	0.250836
O28	O	2.203118	1.187963	0.500836
O29	O	1.334814	0.208158	-0.405579
O30	O	1.584814	0.458158	-0.155579
O31	O	1.834814	0.708158	0.094421
O32	O	2.084814	0.958158	0.344421
O33	O	1.609534	0.437927	-0.405560
O34	O	1.859534	0.687927	-0.155560
O35	O	2.109534	0.937927	0.094440
O36	O	2.359534	1.187927	0.344440
O37	O	1.453329	0.208131	-0.524078
O38	O	1.703329	0.458131	-0.274078
O39	O	1.953329	0.708131	-0.024078
O40	O	2.203329	0.958131	0.225922
O41	O	1.334694	0.338917	-0.249173
O42	O	1.584694	0.588917	0.000827
O43	O	1.834694	0.838917	0.250827
O44	O	2.084694	1.088917	0.500827
O45	O	1.178363	0.338864	-0.405526
O46	O	1.428363	0.588864	-0.155526
O47	O	1.678363	0.838864	0.094474
O48	O	1.928363	1.088864	0.344474
O49	O	1.334753	0.437835	-0.680379
O50	O	1.584753	0.687835	-0.430379
O51	O	1.834753	0.937835	-0.180379
O52	O	2.084753	1.187835	0.069621
O53	O	1.178336	0.437871	-0.523983
O54	O	1.428336	0.687871	-0.273983
O55	O	1.678336	0.937871	-0.023983
O56	O	1.928336	1.187871	0.226017
O57	O	1.453294	0.338801	-0.680419
O58	O	1.703294	0.588801	-0.430419
O59	O	1.953294	0.838801	-0.180419
O60	O	2.203294	1.088801	0.069581
O61	O	1.453083	0.568634	-0.405506
O62	O	1.703083	0.818634	-0.155506
O63	O	1.953083	1.068634	0.094494
O64	O	2.203083	1.318634	0.344494
O65	O	1.334633	0.568594	-0.523972
O66	O	1.584633	0.818594	-0.273972
O67	O	1.834633	1.068594	-0.023972
O68	O	2.084633	1.318594	0.226028
C69	C	1.143350	0.388367	-0.464750
C70	C	1.393350	0.638367	-0.214750
C71	C	1.643350	0.888367	0.035250
C72	C	1.893350	1.138367	0.285250
C73	C	1.036136	0.388381	-0.464759
C74	C	1.286136	0.638381	-0.214759
C75	C	1.536136	0.888381	0.035241
C76	C	1.786136	1.138381	0.285241
C77	C	0.949067	0.388383	-0.464775
C78	C	1.199067	0.638383	-0.214775
C79	C	1.449067	0.888383	0.035225
C80	C	1.699067	1.138383	0.285225
C81	C	0.839834	0.388389	-0.464804
C82	C	1.089834	0.638389	-0.214804
C83	C	1.339834	0.888389	0.035196
C84	C	1.589834	1.138389	0.285196
C85	C	1.393867	0.597870	-0.464753
C86	C	1.643867	0.847870	-0.214753
C87	C	1.893867	1.097870	0.035247
C88	C	2.143867	1.347870	0.285247
C89	C	1.393913	0.687491	-0.464772
C90	C	1.643913	0.937491	-0.214772
C91	C	1.893913	1.187491	0.035228
C92	C	2.143913	1.437491	0.285228
C93	C	1.394070	1.015667	-0.464887
C94	C	1.644070	1.265667	-0.214887
C95	C	1.894070	1.515667	0.035113
C96	C	2.144070	1.765667	0.285113
C97	C	1.394023	0.924358	-0.464858
C98	C	1.644023	1.174358	-0.214858
C99	C	1.894023	1.424358	0.035142
C100	C	2.144023	1.674358	0.285142
C101	C	1.393991	0.851582	-0.464829
C102	C	1.643991	1.101582	-0.214829
C103	C	1.893991	1.351582	0.035171
C104	C	2.143991	1.601582	0.285171
C105	C	1.393945	0.760267	-0.464801
C106	C	1.643945	1.010267	-0.214801
C107	C	1.893945	1.260267	0.035199
C108	C	2.143945	1.510267	0.285199
C109	C	1.645558	0.388392	-0.464818
C110	C	1.895558	0.638392	-0.214818
C111	C	2.145558	0.888392	0.035182
C112	C	2.395558	1.138392	0.285182
C113	C	1.752772	0.388398	-0.464833
C114	C	2.002772	0.638398	-0.214833
C115	C	2.252772	0.888398	0.035167
C116	C	2.502772	1.138398	0.285167
C117	C	1.394033	0.388308	-0.716377
C118	C	1.644033	0.638308	-0.466377
C119	C	1.894033	0.888308	-0.216377
C120	C	2.144033	1.138308	0.033623
C121	C	1.394062	0.388277	-0.823591
C122	C	1.644062	0.638277	-0.573591
C123	C	1.894062	0.888277	-0.323591
C124	C	2.144062	1.138277	-0.073591
C125	C	1.394081	1.178070	-0.464847
C126	C	1.644081	1.428070	-0.214847
C127	C	1.894081	1.678070	0.035153
C128	C	2.144081	1.928070	0.285153
C129	C	1.394110	1.088449	-0.464903
C130	C	1.644110	1.338449	-0.214903
C131	C	1.894110	1.588449	0.035097
C132	C	2.144110	1.838449	0.285097
C133	C	1.394088	0.388223	-1.019886
C134	C	1.644088	0.638223	-0.769886
C135	C	1.894088	0.888223	-0.519886
C136	C	2.144088	1.138223	-0.269886
C137	C	1.394071	0.388255	-0.910654
C138	C	1.644071	0.638255	-0.660654
C139	C	1.894071	0.888255	-0.410654
C140	C	2.144071	1.138255	-0.160654
C141	C	1.393952	0.388392	-0.214169
C142	C	1.643952	0.638392	0.035831
C143	C	1.893952	0.888392	0.285831
C144	C	2.143952	1.138392	0.535831
C145	C	1.394110	0.388195	-0.106956
C146	C	1.644110	0.638195	0.143044
C147	C	1.894110	0.888195	0.393044
C148	C	2.144110	1.138195	0.643044
