data_functionalizedCrystal
_audit_creation_method	'MofGen! by Chris Wilmer'
_symmetry_space_group_name_H-M	'P1'
_symmetry_Int_Tables_number	1
_symmetry_cell_setting	triclinic
loop_
_symmetry_equiv_pos_as_xyz
  x,y,z
_cell_length_a	27.732064
_cell_length_b	27.731996
_cell_length_c	9.730223
_cell_angle_alpha	89.992740
_cell_angle_beta	90.007453
_cell_angle_gamma	82.635407
loop_
_atom_site_label
_atom_site_type_symbol
_atom_site_fract_x
_atom_site_fract_y
_atom_site_fract_z
O1	O	0.640908	0.057555	-0.114062
O2	O	0.500114	0.066292	-0.114121
O3	O	0.574897	-0.008475	-0.114060
O4	O	0.566125	0.132322	-0.114123
O5	O	0.574896	-0.008473	0.114520
O6	O	0.500114	0.066294	0.114459
O7	O	0.640907	0.057556	0.114518
Zn8	Zn	0.570510	0.061925	0.150780
Zn9	Zn	0.570512	0.061923	-0.150384
O10	O	0.566125	0.132323	0.114457
C11	C	0.482107	0.066108	0.000162
C12	C	0.428453	0.065552	0.000140
C13	C	0.051389	0.017584	0.000240
C14	C	0.253049	0.019630	0.000203
O15	O	0.284309	-0.017592	0.000271
N16	N	0.272168	0.063966	0.000177
C17	C	0.240869	0.107793	0.000170
O18	O	0.261758	0.145549	0.000161
C19	C	0.039210	0.105746	0.000216
C20	C	0.020094	0.061407	0.000228
C21	C	0.032272	-0.026751	0.000254
C22	C	-0.018140	-0.027262	0.000255
C23	C	-0.049435	0.016562	0.000243
C24	C	-0.030318	0.060896	0.000230
C25	C	0.007912	0.149572	0.000218
C26	C	-0.042506	0.149057	0.000233
C27	C	-0.061622	0.104718	0.000245
C28	C	-0.112026	0.104209	0.000220
N29	N	-0.131145	0.059873	0.000246
C30	C	-0.099849	0.016050	0.000258
C31	C	0.346743	0.108864	0.000143
C32	C	0.397158	0.109376	0.000128
C33	C	0.409334	0.021213	0.000165
C34	C	0.358919	0.020702	0.000169
C35	C	0.327624	0.064529	0.000169
C36	C	-0.205719	0.014980	0.000260
C37	C	-0.256136	0.014473	0.000256
C38	C	-0.268308	0.102635	0.000227
C39	C	-0.217895	0.103142	0.000224
C40	C	-0.186601	0.059311	0.000245
O41	O	-0.143313	0.141411	0.000167
O42	O	-0.120748	-0.021702	0.000297
C43	C	0.101801	0.018095	0.000238
C44	C	0.120918	0.062430	0.000225
C45	C	0.089623	0.106253	0.000213
C46	C	0.171332	0.062941	0.000211
C47	C	0.202628	0.019118	0.000223
C48	C	0.183508	-0.025218	0.000249
C49	C	0.133096	-0.025729	0.000250
C50	C	0.108742	0.150589	0.000187
C51	C	0.159154	0.151096	0.000184
C52	C	0.190450	0.107273	0.000196
C53	C	0.574717	-0.026482	0.000234
C54	C	0.574174	-0.080138	0.000248
C55	C	0.570760	-0.412855	-0.124419
C56	C	0.568699	-0.614514	-0.124444
O57	O	0.568412	-0.640585	-0.230412
N58	N	0.568442	-0.639730	0.000153
C59	C	0.568698	-0.614528	0.124766
O60	O	0.568427	-0.640602	0.230743
C61	C	0.570755	-0.412870	0.124790
C62	C	0.571017	-0.387657	0.000184
C63	C	0.571020	-0.387642	-0.249015
C64	C	0.571538	-0.337231	-0.249007
C65	C	0.571795	-0.312033	-0.124404
C66	C	0.571535	-0.337246	0.000191
C67	C	0.571007	-0.387668	0.249401
C68	C	0.571521	-0.337250	0.249396
C69	C	0.571782	-0.312038	0.124790
C70	C	0.572310	-0.261636	0.124802
N71	N	0.572566	-0.236420	0.000204
C72	C	0.572309	-0.261619	-0.124399
C73	C	0.567619	-0.720401	0.124745
C74	C	0.567105	-0.770816	0.124739
C75	C	0.567105	-0.770798	-0.124472
C76	C	0.567622	-0.720383	-0.124465
C77	C	0.567875	-0.695185	0.000147
C78	C	0.573397	-0.155751	-0.124374
C79	C	0.573917	-0.105336	-0.124355
C80	C	0.573914	-0.105358	0.124855
C81	C	0.573397	-0.155769	0.124837
C82	C	0.573137	-0.180964	0.000212
O83	O	0.572591	-0.235533	0.230714
O84	O	0.572569	-0.235534	-0.230360
C85	C	0.570242	-0.463266	-0.124427
C86	C	0.569981	-0.488479	0.000169
C87	C	0.570238	-0.463281	0.124772
C88	C	0.569467	-0.538894	0.000163
C89	C	0.569210	-0.564092	-0.124440
C90	C	0.569467	-0.538876	-0.249038
C91	C	0.569985	-0.488465	-0.249030
C92	C	0.569982	-0.488497	0.249370
C93	C	0.569464	-0.538909	0.249352
C94	C	0.569207	-0.564107	0.124749
C95	C	0.658915	0.057740	0.000232
C96	C	0.712569	0.058296	0.000244
C97	C	0.566305	0.150330	0.000159
C98	C	0.566848	0.203986	0.000136
N99	N	0.570513	0.061927	0.356317
N100	N	0.570513	0.061918	-0.355920
C101	C	0.603635	0.028831	0.428270
C102	C	0.603634	0.028825	0.572153
C103	C	0.537387	0.095015	0.572117
C104	C	0.537386	0.095018	0.428236
C105	C	0.636762	-0.004261	0.356350
C106	C	0.669887	-0.037359	0.428303
C107	C	0.669886	-0.037365	0.572186
C108	C	0.636760	-0.004272	0.644116
H109	H	-0.271697	-0.021635	0.000262
H110	H	0.566896	-0.791323	-0.225929
C111	C	0.500953	0.131418	0.651234
C112	C	0.501017	0.131480	0.809497
C113	C	0.464584	0.167885	0.888612
C114	C	0.428087	0.204229	0.809464
C115	C	0.428022	0.204168	0.651193
C116	C	0.464455	0.167763	0.572078
H117	H	0.528035	0.104575	0.868094
H118	H	0.464632	0.167929	1.005775
H119	H	0.401117	0.231178	0.868030
H120	H	0.401004	0.231073	0.592595
H121	H	0.464407	0.167719	0.454914
C122	C	0.074322	0.198799	0.000168
C123	C	0.076232	0.235231	-0.118549
C124	C	0.041814	0.283446	-0.118577
C125	C	0.005488	0.295227	0.000113
C126	C	0.003577	0.258794	0.118838
C127	C	0.037994	0.210580	0.118866
H128	H	0.103124	0.226511	-0.206418
H129	H	0.043229	0.310416	-0.206466
H130	H	-0.019990	0.330919	0.000092
H131	H	-0.023316	0.267515	0.206707
H132	H	0.036579	0.183609	0.206755
H133	H	0.570795	-0.408188	0.350869
H134	H	0.636767	-0.004258	0.239193
C135	C	0.066692	-0.074963	0.000258
C136	C	0.064787	-0.111403	0.118956
C137	C	0.099203	-0.159619	0.118946
C138	C	0.135523	-0.171393	0.000238
C139	C	0.137429	-0.134952	-0.118470
C140	C	0.103013	-0.086736	-0.118460
H141	H	0.037900	-0.102687	0.206839
H142	H	0.097791	-0.186595	0.206822
H143	H	0.160999	-0.207085	0.000230
H144	H	0.164316	-0.143667	-0.206353
H145	H	0.104425	-0.059760	-0.206336
C146	C	0.574193	-0.077634	0.261916
C147	C	0.616106	-0.090369	0.364752
C148	C	0.616379	-0.062644	0.501815
C149	C	0.574739	-0.022184	0.536042
C150	C	0.532822	-0.009448	0.433204
C151	C	0.532549	-0.037173	0.296141
H152	H	0.646934	-0.120321	0.339418
H153	H	0.647409	-0.072072	0.577943
H154	H	0.574941	-0.001661	0.637505
H155	H	0.501994	0.020504	0.458538
H156	H	0.501519	-0.027744	0.220013
C157	C	0.573097	-0.183513	0.261888
C158	C	0.531164	-0.170776	0.364622
C159	C	0.530851	-0.198517	0.501668
C160	C	0.572470	-0.238997	0.535980
C161	C	0.614405	-0.251736	0.433243
C162	C	0.614719	-0.223994	0.296197
H163	H	0.500353	-0.140809	0.339225
H164	H	0.499807	-0.189087	0.577721
H165	H	0.572238	-0.259533	0.637429
H166	H	0.645217	-0.281703	0.458640
H167	H	0.645763	-0.233425	0.220144
H168	H	-0.180245	-0.020712	0.000277
C169	C	0.706323	-0.073760	0.349189
C170	C	0.706332	-0.073753	0.190926
C171	C	0.742768	-0.110156	0.111816
C172	C	0.779197	-0.146566	0.190968
C173	C	0.779190	-0.146575	0.349240
C174	C	0.742753	-0.110172	0.428350
H175	H	0.679364	-0.046799	0.132325
H176	H	0.742773	-0.110149	-0.005348
H177	H	0.806170	-0.173514	0.132406
H178	H	0.806158	-0.173529	0.407841
H179	H	0.742748	-0.110178	0.545514
H180	H	0.569260	-0.559401	-0.350494
C181	C	-0.196861	0.151912	0.000194
C182	C	-0.208810	0.188208	0.118874
C183	C	-0.187778	0.236977	0.118858
C184	C	-0.154797	0.249450	0.000161
C185	C	-0.142846	0.213153	-0.118528
C186	C	-0.163878	0.164384	-0.118511
H187	H	-0.233226	0.178975	0.206748
H188	H	-0.196625	0.263847	0.206720
H189	H	-0.139228	0.285552	0.000149
H190	H	-0.118430	0.222386	-0.206402
H191	H	-0.155031	0.137515	-0.206374
C192	C	0.567905	-0.692651	-0.261531
C193	C	0.609825	-0.705382	-0.364309
C194	C	0.610107	-0.677652	-0.501382
C195	C	0.568469	-0.637191	-0.535678
C196	C	0.526546	-0.624458	-0.432898
C197	C	0.526264	-0.652187	-0.295825
H198	H	0.640651	-0.735335	-0.338923
H199	H	0.641142	-0.687079	-0.577466
H200	H	0.568678	-0.616664	-0.637147
H201	H	0.495720	-0.594504	-0.458283
H202	H	0.495229	-0.642761	-0.219740
H203	H	0.510415	0.121968	0.369652
H204	H	0.696855	-0.064317	0.630769
C205	C	0.566827	-0.798546	0.261811
C206	C	0.524909	-0.785813	0.364592
C207	C	0.524629	-0.813540	0.501671
C208	C	0.566269	-0.853999	0.535968
C209	C	0.608191	-0.866734	0.433184
C210	C	0.608470	-0.839007	0.296106
H211	H	0.494082	-0.755861	0.339206
H212	H	0.493596	-0.804113	0.577758
H213	H	0.566062	-0.874524	0.637442
H214	H	0.639017	-0.896686	0.458571
H215	H	0.639503	-0.848434	0.220019
C216	C	0.312323	0.157078	0.000132
C217	C	0.314229	0.193511	-0.118585
C218	C	0.279813	0.241726	-0.118602
C219	C	0.243490	0.253508	0.000098
C220	C	0.241583	0.217073	0.118824
C221	C	0.276000	0.168859	0.118841
H222	H	0.341118	0.184791	-0.206462
H223	H	0.281225	0.268697	-0.206492
H224	H	0.218013	0.289199	0.000085
H225	H	0.214694	0.225794	0.206700
H226	H	0.274587	0.141888	0.206730
H227	H	0.571719	-0.316736	0.350872
C228	C	-0.039161	-0.076036	0.000282
C229	C	-0.027190	-0.112329	0.118996
C230	C	-0.048206	-0.161106	0.119026
C231	C	-0.081194	-0.173592	0.000344
C232	C	-0.093167	-0.137299	-0.118379
C233	C	-0.072150	-0.088521	-0.118409
H234	H	-0.002769	-0.103087	0.206859
H235	H	-0.039342	-0.187973	0.206913
H236	H	-0.096751	-0.209700	0.000366
H237	H	-0.117588	-0.146540	-0.206243
H238	H	-0.081014	-0.061655	-0.206296
C239	C	0.337893	-0.028070	0.000196
C240	C	0.349863	-0.064365	0.118904
C241	C	0.328841	-0.113139	0.118935
C242	C	0.295849	-0.125619	0.000258
C243	C	0.283877	-0.089324	-0.118460
C244	C	0.304899	-0.040549	-0.118491
H245	H	0.374288	-0.055127	0.206764
H246	H	0.337704	-0.140008	0.206818
H247	H	0.280287	-0.161725	0.000281
H248	H	0.259452	-0.098561	-0.206320
H249	H	0.296036	-0.013681	-0.206374
H250	H	0.571749	-0.316707	-0.350474
C251	C	0.443765	-0.026994	0.000188
C252	C	0.441868	-0.063426	0.118912
C253	C	0.476300	-0.111631	0.118946
C254	C	0.512629	-0.123403	0.000257
C255	C	0.514527	-0.086970	-0.118476
C256	C	0.480095	-0.038766	-0.118511
H257	H	0.414974	-0.054712	0.206780
H258	H	0.474895	-0.138601	0.206841
H259	H	0.538118	-0.159087	0.000283
H260	H	0.541421	-0.095684	-0.206345
H261	H	0.481500	-0.011796	-0.206405
H262	H	0.412717	0.145480	0.000099
H263	H	0.174713	0.187204	0.000164
H264	H	0.023467	0.185677	0.000202
H265	H	-0.067984	0.184746	0.000239
H266	H	0.636758	-0.004283	0.761275
H267	H	-0.293798	0.138315	0.000210
H268	H	0.117537	-0.061833	0.000261
H269	H	0.208998	-0.060900	0.000250
H270	H	0.574131	-0.084810	-0.225828
H271	H	0.573183	-0.176259	-0.225855
H272	H	0.570809	-0.408153	-0.350487
H273	H	0.570197	-0.467941	-0.350497
H274	H	0.567827	-0.699890	0.226225
H275	H	0.569255	-0.559433	0.350829
H276	H	0.570192	-0.467986	0.350839
