data_functionalizedCrystal
_audit_creation_method	'MofGen! by Chris Wilmer'
_symmetry_space_group_name_H-M	'P1'
_symmetry_Int_Tables_number	1
_symmetry_cell_setting	triclinic
loop_
_symmetry_equiv_pos_as_xyz
  x,y,z
_cell_length_a	14.908571
_cell_length_b	16.625546
_cell_length_c	14.908308
_cell_angle_alpha	86.735930
_cell_angle_beta	89.824947
_cell_angle_gamma	86.718495
loop_
_atom_site_label
_atom_site_type_symbol
_atom_site_fract_x
_atom_site_fract_y
_atom_site_fract_z
Zn1	Zn	1.345280	-0.420778	0.587557
Zn2	Zn	1.845280	0.079222	1.087557
Zn3	Zn	1.353856	-0.548312	0.437189
Zn4	Zn	1.853856	-0.048312	0.937189
Zn5	Zn	1.203596	-0.405291	0.428555
Zn6	Zn	1.703596	0.094709	0.928555
Zn7	Zn	1.194884	-0.547354	0.578841
Zn8	Zn	1.694884	-0.047354	1.078841
O9	O	1.274404	-0.480434	0.508036
O10	O	1.774404	0.019566	1.008036
O11	O	1.472243	-0.444578	0.574871
O12	O	1.972243	0.055422	1.074871
O13	O	1.341159	-0.523260	0.310220
O14	O	1.841159	-0.023260	0.810220
O15	O	1.222448	-0.294517	0.449681
O16	O	1.722448	0.205483	0.949681
O17	O	1.478544	-0.538277	0.464397
O18	O	1.978544	-0.038277	0.964397
O19	O	1.326543	-0.305896	0.566499
O20	O	1.826543	0.194104	1.066499
O21	O	1.230763	-0.418182	0.303876
O22	O	1.730763	0.081818	0.803876
O23	O	1.076615	-0.417254	0.441230
O24	O	1.576615	0.082746	0.941230
O25	O	1.207599	-0.536644	0.705821
O26	O	1.707599	-0.036644	1.205821
O27	O	1.070214	-0.521627	0.551644
O28	O	1.570214	-0.021627	1.051644
O29	O	1.318095	-0.443649	0.712225
O30	O	1.818095	0.056351	1.212225
O31	O	1.332711	-0.661013	0.455945
O32	O	1.832711	-0.161013	0.955945
O33	O	1.215914	-0.660309	0.560016
O34	O	1.715914	-0.160309	1.060016
C35	C	1.040789	-0.467656	0.494555
C36	C	1.540789	0.032344	0.994555
C37	C	0.940846	-0.462211	0.488810
C38	C	1.440846	0.037789	0.988810
C39	C	0.746435	-0.560814	0.592833
C40	C	1.246435	-0.060814	1.092833
C41	C	0.652530	-0.555700	0.587437
C42	C	1.152530	-0.055700	1.087437
C43	C	0.659128	-0.446865	0.472629
C44	C	1.159128	0.053135	0.972629
C45	C	0.753033	-0.451979	0.478024
C46	C	1.253033	0.048021	0.978024
C47	C	0.796683	-0.508956	0.538127
C48	C	1.296683	-0.008956	1.038127
C49	C	0.890591	-0.514074	0.543517
C50	C	1.390591	-0.014074	1.043517
C51	C	0.897187	-0.405236	0.428714
C52	C	1.397187	0.094764	0.928714
C53	C	0.803282	-0.400121	0.423318
C54	C	1.303282	0.099879	0.923318
C55	C	1.274321	-0.689918	0.507993
C56	C	1.774321	-0.189918	1.007993
C57	C	1.274366	-0.779542	0.508010
C58	C	1.774366	-0.279542	1.008010
C59	C	1.274517	-1.107731	0.508112
C60	C	1.774517	-0.607731	1.008112
C61	C	1.274472	-1.016419	0.508086
C62	C	1.774472	-0.516419	1.008086
C63	C	1.274441	-0.943640	0.508060
C64	C	1.774441	-0.443640	1.008060
C65	C	1.274397	-0.852322	0.508035
C66	C	1.774397	-0.352322	1.008035
C67	C	1.508931	-0.493262	0.521569
C68	C	2.008931	0.006738	1.021569
C69	C	1.608873	-0.498728	0.527336
C70	C	2.108873	0.001272	1.027336
C71	C	1.260918	-0.491767	0.742560
C72	C	1.760918	0.008233	1.242560
C73	C	1.255172	-0.496597	0.842501
C74	C	1.755172	0.003403	1.342501
C75	C	1.274511	-0.270134	0.508099
C76	C	1.774511	0.229866	1.008099
C77	C	1.274556	-0.180516	0.508127
C78	C	1.774556	0.319484	1.008127
C79	C	1.287889	-0.469089	0.274426
C80	C	1.787889	0.030911	0.774426
C81	C	1.293810	-0.464042	0.174497
C82	C	1.793810	0.035958	0.674497
C83	C	1.359429	-0.408817	1.036969
C84	C	1.859429	0.091183	1.536969
C85	C	1.354033	-0.413353	1.130872
C86	C	1.854033	0.086647	1.630872
C87	C	1.238977	-0.510198	1.124211
C88	C	1.738977	-0.010198	1.624211
C89	C	1.244374	-0.505662	1.030308
C90	C	1.744374	-0.005662	1.530308
C91	C	1.304603	-0.454971	0.986690
C92	C	1.804603	0.045029	1.486690
C93	C	1.310004	-0.450441	0.892786
C94	C	1.810004	0.049559	1.392786
C95	C	1.194945	-0.547281	0.886127
C96	C	1.694945	-0.047281	1.386127
C97	C	1.189548	-0.551817	0.980030
C98	C	1.689548	-0.051817	1.480030
H99	H	0.623571	-0.400472	0.423701
H100	H	1.123571	0.099528	0.923701
H101	H	0.781976	-0.607211	0.641766
H102	H	1.281976	-0.107211	1.141766
H103	H	0.767729	-0.353730	0.374387
H104	H	1.267729	0.146270	0.874387
O105	O	1.130971	-0.601072	1.022260
O106	O	1.630971	-0.101072	1.522260
C107	C	1.017470	-0.696696	1.005745
C108	C	1.517470	-0.196696	1.505745
C109	C	1.083752	-0.640930	0.957807
C110	C	1.583752	-0.140930	1.457807
H111	H	0.979289	-0.728949	0.953656
H112	H	1.479289	-0.228949	1.453656
H113	H	0.967881	-0.659271	1.046977
H114	H	1.467881	-0.159271	1.546977
H115	H	1.056223	-0.743198	1.052104
H116	H	1.556223	-0.243198	1.552104
H117	H	1.045074	-0.594418	0.911403
H118	H	1.545074	-0.094418	1.411403
H119	H	1.133340	-0.678408	0.916632
H120	H	1.633340	-0.178408	1.416632
H121	H	1.150303	-0.584866	0.845180
H122	H	1.650303	-0.084866	1.345180
O123	O	0.946134	-0.354895	0.375660
O124	O	1.446134	0.145105	0.875660
C125	C	1.093726	-0.314580	0.333038
C126	C	1.593726	0.185420	0.833038
C127	C	1.038403	-0.371620	0.393190
C128	C	1.538403	0.128380	0.893190
H129	H	1.168337	-0.328093	0.347176
H130	H	1.668337	0.171907	0.847176
H131	H	1.074439	-0.249334	0.347896
H132	H	1.574439	0.250666	0.847896
H133	H	1.079351	-0.324123	0.259455
H134	H	1.579351	0.175877	0.759455
H135	H	1.052749	-0.362150	0.466792
H136	H	1.552749	0.137850	0.966792
H137	H	1.057699	-0.436846	0.378255
H138	H	1.557699	0.063154	0.878255
H139	H	1.408475	-0.367547	1.001455
H140	H	1.908475	0.132453	1.501455
H141	H	0.611620	-0.597926	0.631986
H142	H	1.111620	-0.097926	1.131986
H143	H	1.359047	-0.409167	0.857274
H144	H	1.859047	0.090833	1.357274
H145	H	1.398676	-0.375767	1.171805
H146	H	1.898676	0.124233	1.671805
O147	O	1.180594	-0.559518	1.166643
O148	O	1.680594	-0.059518	1.666643
C149	C	1.162328	-0.672776	1.272009
C150	C	1.662328	-0.172776	1.772009
C151	C	1.228551	-0.616998	1.223998
C152	C	1.728551	-0.116998	1.723998
H153	H	1.201074	-0.719252	1.318405
H154	H	1.701074	-0.219252	1.818405
H155	H	1.124071	-0.705051	1.219993
H156	H	1.624071	-0.205051	1.719993
H157	H	1.112796	-0.635274	1.313219
H158	H	1.612796	-0.135274	1.813219
H159	H	1.278138	-0.654441	1.182789
H160	H	1.778138	-0.154441	1.682789
H161	H	1.266742	-0.584720	1.276058
H162	H	1.766742	-0.084720	1.776058
O163	O	0.932851	-0.569439	0.601977
O164	O	1.432851	-0.069439	1.101977
C165	C	0.916392	-0.676874	0.715252
C166	C	1.416392	-0.176874	1.215252
C167	C	0.868422	-0.614199	0.649096
C168	C	1.368422	-0.114199	1.149096
H169	H	0.864323	-0.713090	0.753351
H170	H	1.364323	-0.213090	1.253351
H171	H	0.957641	-0.644627	0.764923
H172	H	1.457641	-0.144627	1.264923
H173	H	0.962740	-0.719343	0.676405
H174	H	1.462740	-0.219343	1.176405
H175	H	0.822030	-0.571712	0.687867
H176	H	1.322030	-0.071712	1.187867
H177	H	0.827230	-0.646499	0.599425
H178	H	1.327230	-0.146499	1.099425
