data_functionalizedCrystal
_audit_creation_method	'MofGen! by Chris Wilmer'
_symmetry_space_group_name_H-M	'P1'
_symmetry_Int_Tables_number	1
_symmetry_cell_setting	triclinic
loop_
_symmetry_equiv_pos_as_xyz
  x,y,z
_cell_length_a	23.532407
_cell_length_b	16.109301
_cell_length_c	14.586319
_cell_angle_alpha	90.000846
_cell_angle_beta	90.001839
_cell_angle_gamma	83.155079
loop_
_atom_site_label
_atom_site_type_symbol
_atom_site_fract_x
_atom_site_fract_y
_atom_site_fract_z
O1	O	0.755631	0.100925	-0.076117
O2	O	0.589822	0.115528	-0.076143
O3	O	0.677281	-0.012841	-0.076134
O4	O	0.668171	0.229293	-0.076126
O5	O	0.677275	-0.012843	0.076347
O6	O	0.589816	0.115526	0.076338
O7	O	0.755625	0.100923	0.076364
Cu8	Cu	0.672720	0.108224	0.090274
Cu9	Cu	0.672727	0.108226	-0.090053
O10	O	0.668165	0.229291	0.076355
C11	C	0.568601	0.115155	0.000094
C12	C	0.505380	0.114037	0.000084
N13	N	0.672719	0.108222	0.217105
C14	C	0.676909	-0.043814	0.000103
C15	C	0.675803	-0.136100	0.000094
C16	C	0.106531	0.182990	0.000128
C17	C	0.047127	0.181951	0.000133
O18	O	0.010619	0.245872	0.000169
N19	N	0.024220	0.105636	0.000129
C20	C	0.060719	0.030355	0.000129
O21	O	0.035780	-0.034652	0.000127
C22	C	0.120122	0.031395	0.000130
C23	C	0.143027	0.107715	0.000125
C24	C	0.129436	0.259304	0.000124
C25	C	0.188836	0.260342	0.000116
C26	C	0.225331	0.185066	0.000113
C27	C	0.202427	0.108753	0.000118
C28	C	0.156621	-0.043886	0.000136
C29	C	0.216027	-0.042840	0.000138
C30	C	0.238932	0.033480	0.000133
C31	C	0.298322	0.034516	0.000107
N32	N	0.321229	0.110831	0.000111
C33	C	0.284734	0.186106	0.000114
C34	C	-0.064031	0.028178	0.000129
C35	C	-0.123433	0.027138	0.000121
C36	C	-0.137021	0.178734	0.000127
C37	C	-0.077618	0.179774	0.000128
C38	C	-0.041123	0.104493	0.000133
C39	C	0.409479	0.188281	0.000098
C40	C	0.468885	0.189312	0.000087
C41	C	0.482468	0.037716	0.000086
C42	C	0.423067	0.036684	0.000092
C43	C	0.386574	0.111973	0.000101
O44	O	0.334865	-0.029371	0.000075
O45	O	0.309682	0.251102	0.000128
C46	C	0.776846	0.101295	0.000125
C47	C	0.840067	0.102414	0.000129
C48	C	0.668537	0.260264	0.000116
C49	C	0.669644	0.352551	0.000119
C50	C	0.620319	0.575211	0.000098
C51	C	0.621363	0.661923	0.000092
C52	C	0.725131	0.641233	0.000112
C53	C	0.724087	0.554522	0.000112
C54	C	0.671679	0.521514	0.000110
C55	C	0.673768	0.694937	0.000103
C56	C	0.674900	0.788954	0.000096
C57	C	0.670546	0.427491	0.000116
N58	N	0.672732	0.108222	-0.216884
C59	C	0.711459	0.051399	0.452116
C60	C	0.711460	0.051397	0.548097
C61	C	0.633988	0.165047	0.548099
C62	C	0.633984	0.165045	0.452119
C63	C	0.672723	0.108222	0.404130
C64	C	0.672728	0.108222	0.596091
C65	C	0.672730	0.108220	0.700158
C66	C	0.672721	0.108222	0.300056
H67	H	0.379772	0.249588	0.000109
H68	H	-0.142076	-0.035010	0.000111
H69	H	0.404418	-0.025462	0.000083
N70	N	0.750999	-0.006659	0.403065
N71	N	0.732907	-0.058110	0.349513
H72	H	0.760825	-0.099119	0.314861
H73	H	-0.034320	-0.033129	0.000124
H74	H	0.577646	0.548339	0.000100
H75	H	0.602438	0.211316	0.413047
H76	H	-0.166747	0.240027	0.000134
N77	N	0.568906	0.716785	0.000093
N78	N	0.569843	0.794203	0.000091
H79	H	0.532793	0.832951	0.000092
N80	N	0.492289	0.267268	0.000098
N81	N	0.545327	0.268191	0.000096
H82	H	0.561856	0.323245	0.000106
N83	N	0.212225	0.338303	0.000145
N84	N	0.243851	0.355797	0.064428
H85	H	0.260366	0.410862	0.064454
N86	N	-0.054215	0.257724	0.000123
N87	N	-0.022584	0.275221	-0.064148
H88	H	-0.006057	0.330277	-0.064151
N89	N	0.751029	-0.006655	0.597098
N90	N	0.785610	-0.057385	0.554236
H91	H	0.813557	-0.098390	0.588842
H92	H	0.137983	-0.106033	0.000141
H93	H	0.245739	-0.104144	0.000142
N94	N	0.519761	-0.039165	0.000075
N95	N	0.572797	-0.038217	0.000071
H96	H	0.599137	-0.092514	0.000067
N97	N	0.594423	0.223081	0.597134
N98	N	0.594432	0.223077	0.682829
H99	H	0.566489	0.264066	0.717461
H100	H	0.767800	0.668119	0.000123
N101	N	0.092164	0.336205	0.000144
N102	N	0.094258	0.387070	0.064420
H103	H	0.067938	0.441387	0.064431
N104	N	0.776558	0.499677	0.000115
N105	N	0.823346	0.529157	0.000121
H106	H	0.860402	0.490424	0.000119
