data_functionalizedCrystal
_audit_creation_method	'MofGen! by Chris Wilmer'
_symmetry_space_group_name_H-M	'P1'
_symmetry_Int_Tables_number	1
_symmetry_cell_setting	triclinic
loop_
_symmetry_equiv_pos_as_xyz
  x,y,z
_cell_length_a	16.992694
_cell_length_b	16.053942
_cell_length_c	16.109301
_cell_angle_alpha	87.425153
_cell_angle_beta	92.935148
_cell_angle_gamma	87.253706
loop_
_atom_site_label
_atom_site_type_symbol
_atom_site_fract_x
_atom_site_fract_y
_atom_site_fract_z
O1	O	1.037050	0.069329	-0.179564
O2	O	0.808764	0.069353	-0.177631
O3	O	0.929179	0.069332	-0.057984
O4	O	0.916636	0.069350	-0.299210
O5	O	0.935770	-0.069526	-0.051421
O6	O	0.815355	-0.069504	-0.171068
O7	O	1.043641	-0.069529	-0.173001
Zn8	Zn	0.930545	-0.091563	-0.170992
Zn9	Zn	0.921861	0.091387	-0.179639
O10	O	0.923227	-0.069507	-0.292647
C11	C	0.782848	-0.000072	-0.171861
C12	C	0.695805	-0.000063	-0.164438
N13	N	0.936477	-0.216422	-0.165091
C14	C	0.967181	-0.740047	-0.134646
C15	C	0.963013	-0.652641	-0.138783
C16	C	0.907595	-0.608944	-0.193806
C17	C	0.856346	-0.652657	-0.244700
C18	C	0.860518	-0.740061	-0.240566
C19	C	0.889401	-0.347539	-0.211851
C20	C	0.885230	-0.260128	-0.215979
C21	C	0.991899	-0.260119	-0.110063
C22	C	0.996064	-0.347525	-0.105931
C23	C	0.944818	-0.391230	-0.156828
N24	N	0.903331	-0.519601	-0.198034
N25	N	0.949085	-0.480571	-0.152603
C26	C	0.645546	-0.000059	-0.236065
C27	C	0.563762	-0.000071	-0.229084
C28	C	0.532238	-0.000082	-0.150477
C29	C	0.582503	-0.000089	-0.078845
C30	C	0.664286	-0.000083	-0.085826
C31	C	0.288649	-0.000106	-0.121543
C32	C	0.206859	-0.000110	-0.114567
C33	C	0.188123	-0.000093	-0.264807
C34	C	0.269908	-0.000082	-0.271781
C35	C	0.320167	-0.000094	-0.200149
N36	N	0.448641	-0.000091	-0.143340
N37	N	0.403762	-0.000090	-0.207287
C38	C	1.069558	-0.000101	-0.178770
C39	C	1.156600	-0.000105	-0.186193
C40	C	0.931966	-0.000097	-0.023694
C41	C	0.930443	-0.000098	0.068703
N42	N	0.915935	0.216246	-0.185534
C43	C	0.920439	-0.000076	-0.326938
C44	C	0.921962	-0.000070	-0.419335
C45	C	0.998352	-0.000092	0.286444
C46	C	0.996915	-0.000085	0.373260
C47	C	0.854047	-0.000073	0.362918
C48	C	0.855486	-0.000074	0.276103
C49	C	0.927641	-0.000088	0.237869
C50	C	0.924765	-0.000080	0.411499
C51	C	0.923205	-0.000072	0.505629
C52	C	0.929200	-0.000094	0.143733
H53	H	1.004743	-0.617056	-0.097346
C54	C	0.304580	-0.000082	-0.358249
H55	H	0.262933	-0.000090	-0.399908
H56	H	0.333791	0.048340	-0.366388
H57	H	0.338397	-0.048511	-0.361800
H58	H	0.811225	-0.617073	-0.289505
C59	C	1.028140	-0.788111	-0.074120
H60	H	1.023282	-0.846426	-0.078939
H61	H	1.079779	-0.773776	-0.087339
H62	H	1.018955	-0.773789	-0.018736
H63	H	0.329560	-0.000116	-0.063214
C64	C	0.804149	-0.788142	-0.296541
H65	H	0.814576	-0.846455	-0.286206
H66	H	0.751141	-0.773831	-0.284680
H67	H	0.811967	-0.773811	-0.353281
H68	H	0.181196	-0.000118	-0.050552
C69	C	1.074698	-0.000095	0.426689
H70	H	1.117874	-0.000110	0.391481
H71	H	1.074811	0.048327	0.458477
H72	H	1.079404	-0.048524	0.463062
C73	C	0.774682	-0.000061	0.404975
H74	H	0.732774	-0.000049	0.363609
H75	H	0.773447	-0.048481	0.440921
H76	H	0.768854	0.048370	0.436332
H77	H	0.556831	-0.000110	-0.014840
C78	C	0.777699	-0.000072	0.222668
H79	H	0.734521	-0.000076	0.257872
H80	H	0.772991	0.048350	0.186293
H81	H	0.777594	-0.048501	0.190881
H82	H	1.041190	-0.383102	-0.061127
C83	C	0.719571	-0.000080	-0.007038
H84	H	0.689084	-0.000078	0.040778
H85	H	0.754172	-0.048499	-0.004347
H86	H	0.749555	0.048353	-0.008930
C87	C	0.680215	-0.000046	-0.322533
H88	H	0.638567	-0.000053	-0.364190
H89	H	0.709424	0.048379	-0.330670
H90	H	0.714034	-0.048473	-0.326090
H91	H	1.033622	-0.224527	-0.068626
H92	H	0.840099	-0.224554	-0.260787
C93	C	0.132839	-0.000091	-0.343594
H94	H	0.079617	-0.000103	-0.328181
H95	H	0.140086	0.048333	-0.377894
H96	H	0.144701	-0.048518	-0.373309
C97	C	0.833048	-0.395603	-0.267853
H98	H	0.799447	-0.357058	-0.301213
H99	H	0.862884	-0.429679	-0.302739
H100	H	0.802038	-0.429720	-0.234159
C101	C	0.508480	-0.000063	-0.307873
H102	H	0.538967	-0.000045	-0.355689
H103	H	0.478494	-0.048488	-0.305990
H104	H	0.473881	0.048363	-0.310558
C105	C	1.077718	-0.000098	0.244387
H106	H	1.119625	-0.000092	0.285753
H107	H	1.083553	-0.048521	0.213028
H108	H	1.078946	0.048331	0.208444
