data_functionalizedCrystal
_audit_creation_method	'MofGen! by Chris Wilmer'
_symmetry_space_group_name_H-M	'P1'
_symmetry_Int_Tables_number	1
_symmetry_cell_setting	triclinic
loop_
_symmetry_equiv_pos_as_xyz
  x,y,z
_cell_length_a	15.995350
_cell_length_b	10.540539
_cell_length_c	9.616153
_cell_angle_alpha	90.000094
_cell_angle_beta	90.003218
_cell_angle_gamma	84.008933
loop_
_atom_site_label
_atom_site_type_symbol
_atom_site_fract_x
_atom_site_fract_y
_atom_site_fract_z
O1	O	-1.111967	-0.163613	-0.115521
O2	O	-0.868313	-0.183817	-0.115549
O3	O	-0.995699	0.011068	-0.115533
O4	O	-0.984581	-0.358498	-0.115537
O5	O	-0.995681	0.011064	0.115759
O6	O	-0.868295	-0.183822	0.115742
O7	O	-1.111950	-0.163617	0.115770
Zn8	Zn	-0.990120	-0.173720	0.152479
Zn9	Zn	-0.990143	-0.173714	-0.152258
O10	O	-0.984563	-0.358502	0.115754
C11	C	-0.994856	0.058357	0.000110
C12	C	-0.992362	0.199271	0.000103
C13	C	-0.837104	-0.182984	0.000093
C14	C	-0.744139	-0.180480	0.000082
C15	C	-1.143158	-0.164450	0.000125
C16	C	-1.236123	-0.166954	0.000127
C17	C	-0.406337	-0.171487	0.000111
C18	C	-0.452942	-0.032693	0.000629
C19	C	-0.549647	-0.035198	0.000098
C20	C	-0.573925	-0.175948	0.000098
C21	C	-0.533257	-0.244403	-0.131976
C22	C	-0.436600	-0.240916	-0.132077
C23	C	-0.436259	-0.243789	0.130944
C24	C	-0.533204	-0.243756	0.132680
C25	C	-0.668637	-0.178476	0.000085
C26	C	-0.311625	-0.168962	0.000114
C27	C	-0.985406	-0.405792	0.000108
C28	C	-0.987900	-0.546705	0.000107
N29	N	-0.990110	-0.173723	0.360453
C30	C	-0.896779	0.381384	-0.000427
C31	C	-0.899307	0.234801	0.000094
C32	C	-1.037134	0.261542	0.132187
C33	C	-1.033958	0.408043	0.132297
C34	C	-1.035871	0.408592	-0.130724
C35	C	-1.036728	0.261622	-0.132470
N36	N	-0.990159	-0.173701	-0.360232
C37	C	-0.921759	-0.277630	0.580815
C38	C	-0.921909	-0.278013	0.419647
C39	C	-1.077651	-0.202653	0.418913
C40	C	-1.077278	-0.203387	0.580130
C41	C	-0.971792	-0.040536	0.580364
C42	C	-0.969783	-0.041429	0.419137
H43	H	-0.577747	0.018612	0.094775
F44	F	-0.852915	0.179577	0.124045
H45	H	-0.549182	-0.346395	0.140658
F46	F	-0.836879	-0.255548	0.367985
H47	H	-0.548001	-0.347808	-0.136888
H48	H	-0.404962	-0.342816	-0.138071
F49	F	-0.937313	-0.407193	0.369215
H50	H	-0.561354	-0.196853	-0.230268
H51	H	-1.000854	0.435785	0.231025
H52	H	-0.415444	-0.198416	0.231054
F53	F	-0.568424	-0.178337	0.260391
H54	H	-0.405109	-0.346120	0.131837
H55	H	-0.434081	0.022785	0.095345
F56	F	-1.125405	0.231176	-0.142894
H57	H	-0.860027	0.409481	-0.095147
H58	H	-0.864077	0.191715	-0.094590
F59	F	-1.123722	0.471528	-0.131878
F60	F	-0.848792	0.420634	0.122336
H61	H	-1.100881	0.456931	0.138297
H62	H	-0.433025	0.022532	-0.093563
F63	F	-1.126455	0.233554	0.138621
F64	F	-0.996510	0.449281	-0.261577
F65	F	-1.030590	0.064394	0.366492
H66	H	-1.021664	0.036804	0.618486
H67	H	-1.006018	0.218513	0.230472
H68	H	-0.909306	-0.012715	0.621094
H69	H	-1.003968	0.220315	-0.230182
H70	H	-0.856510	-0.260674	0.619618
F71	F	-0.585626	0.035328	-0.124061
F72	F	-0.412287	-0.175661	-0.261121
F73	F	-0.936997	-0.406072	0.633726
H74	H	-1.093342	-0.300504	0.617719
H75	H	-1.129808	-0.130676	0.619125
H76	H	-1.129793	-0.128973	0.380567
H77	H	-1.094072	-0.298665	0.378523
H78	H	-0.905383	-0.019473	0.380930
