data_functionalizedCrystal
_audit_creation_method	'MofGen! by Chris Wilmer'
_symmetry_space_group_name_H-M	'P1'
_symmetry_Int_Tables_number	1
_symmetry_cell_setting	triclinic
loop_
_symmetry_equiv_pos_as_xyz
  x,y,z
_cell_length_a	12.645331
_cell_length_b	12.759400
_cell_length_c	12.759393
_cell_angle_alpha	90.031564
_cell_angle_beta	89.982788
_cell_angle_gamma	89.984905
loop_
_atom_site_label
_atom_site_type_symbol
_atom_site_fract_x
_atom_site_fract_y
_atom_site_fract_z
Zn1	Zn	1.620745	0.418193	-0.593945
Zn2	Zn	1.620638	0.593912	-0.418265
Zn3	Zn	1.443462	0.418249	-0.418289
Zn4	Zn	1.443451	0.593832	-0.593911
O5	O	1.532074	0.506046	-0.506103
O6	O	1.769078	0.441513	-0.570646
O7	O	1.597096	0.570666	-0.271247
O8	O	1.467028	0.271220	-0.441614
O9	O	1.769000	0.570612	-0.441575
O10	O	1.597277	0.271179	-0.570668
O11	O	1.466925	0.441608	-0.271264
O12	O	1.295113	0.441530	-0.441581
O13	O	1.467009	0.570476	-0.740937
O14	O	1.295105	0.570530	-0.570610
O15	O	1.597266	0.441435	-0.740962
O16	O	1.597085	0.740922	-0.441541
O17	O	1.466906	0.740863	-0.570587
C18	C	1.256644	0.506028	-0.506094
C19	C	1.138814	0.506046	-0.506116
C20	C	1.093963	0.587338	-0.587169
C21	C	0.971403	0.587672	-0.586928
C22	C	0.970864	0.535627	-0.395259
C23	C	1.093462	0.536201	-0.395728
C24	C	1.093662	0.394999	-0.534951
C25	C	0.971056	0.395612	-0.537392
C26	C	1.532011	0.779014	-0.506081
C27	C	1.532081	0.895790	-0.506106
C28	C	1.532148	0.505940	-0.780136
C29	C	1.532180	0.505895	-0.896913
C30	C	1.808579	0.506065	-0.506111
C31	C	1.926409	0.506073	-0.506115
C32	C	1.532166	0.232013	-0.506148
C33	C	1.532205	0.115236	-0.506167
C34	C	1.599941	0.950648	-0.438987
C35	C	1.600006	1.060372	-0.439019
C36	C	1.464343	1.060371	-0.573294
C37	C	1.464284	0.950649	-0.573266
C38	C	1.667738	0.895789	-0.371827
C39	C	1.735602	0.950647	-0.304701
C40	C	1.735667	1.060371	-0.304733
C41	C	1.667868	1.115237	-0.371892
C42	C	1.600014	0.438697	-0.951790
C43	C	1.600039	0.438659	-1.061514
C44	C	1.464393	0.573026	-1.061474
C45	C	1.464363	0.573058	-0.951752
C46	C	1.667831	0.371534	-0.896950
C47	C	1.735672	0.304331	-0.951827
C48	C	1.735697	0.304293	-1.061551
C49	C	1.667881	0.371458	-1.116398
C50	C	1.532061	0.506076	-0.233135
C51	C	1.532235	0.505825	-0.116359
H52	H	1.124745	0.669156	-0.568270
H53	H	0.942049	0.669965	-0.567798
C54	C	1.810260	0.230454	-0.891501
H55	H	1.800538	0.240106	-0.818294
H56	H	1.794778	0.159856	-0.909496
H57	H	1.881489	0.245840	-0.909486
C58	C	1.132062	0.645840	-0.362816
H59	H	1.072817	0.689612	-0.349290
H60	H	1.173887	0.640235	-0.301242
H61	H	1.173280	0.675324	-0.417629
C62	C	1.810171	0.890300	-0.230829
H63	H	1.800407	0.817096	-0.240413
H64	H	1.881403	0.908205	-0.246260
H65	H	1.794690	0.908358	-0.160230
C66	C	1.135425	0.358544	-0.642339
H67	H	1.180798	0.410712	-0.670593
H68	H	1.173623	0.294961	-0.634137
H69	H	1.077600	0.347503	-0.688557
C70	C	0.931800	0.365480	-0.647596
H71	H	0.888377	0.419980	-0.674441
H72	H	0.990730	0.355434	-0.692688
H73	H	0.892046	0.302439	-0.643641
H74	H	0.940430	0.331849	-0.482708
H75	H	1.409180	0.627708	-1.106140
C76	C	1.389763	1.120721	-0.647153
H77	H	1.399510	1.193924	-0.637548
H78	H	1.405225	1.102674	-0.717753
H79	H	1.318531	1.102807	-0.631704
H80	H	1.667690	0.806447	-0.371790
H81	H	1.790933	1.105034	-0.250083
H82	H	1.667935	1.204582	-0.371921
C83	C	1.389645	0.890301	-0.647101
H84	H	1.349268	0.938686	-0.687095
H85	H	1.430159	0.847433	-0.692895
H86	H	1.343448	0.847565	-0.606862
H87	H	1.123131	0.479522	-0.333265
H88	H	1.667820	0.371560	-0.807607
C89	C	0.931487	0.458109	-0.311428
H90	H	0.887476	0.406912	-0.343368
H91	H	0.990347	0.424603	-0.279553
H92	H	0.892322	0.494991	-0.259653
H93	H	1.790928	0.249566	-1.106229
C94	C	1.667900	0.371414	-1.237093
H95	H	1.617796	0.421035	-1.261894
H96	H	1.736308	0.389576	-1.261920
H97	H	1.649589	0.303601	-1.261923
C98	C	0.930795	0.562765	-0.697950
H99	H	0.989227	0.552356	-0.743606
H100	H	0.888930	0.500989	-0.696052
H101	H	0.889192	0.619601	-0.722695
C102	C	1.133832	0.562723	-0.698542
H103	H	1.178195	0.502653	-0.696612
H104	H	1.075190	0.549496	-0.743138
H105	H	1.172734	0.620833	-0.724582
C106	C	0.929367	0.644075	-0.361771
H107	H	0.884963	0.671486	-0.415190
H108	H	0.890190	0.637525	-0.298579
H109	H	0.987358	0.690132	-0.350908
C110	C	1.389788	0.647015	-0.891384
H111	H	1.349426	0.687032	-0.939757
H112	H	1.343591	0.606868	-0.848569
H113	H	1.430357	0.692797	-0.848592
H114	H	1.122668	0.334437	-0.475922
