data_functionalizedCrystal
_audit_creation_method	'MofGen! by Chris Wilmer'
_symmetry_space_group_name_H-M	'P1'
_symmetry_Int_Tables_number	1
_symmetry_cell_setting	triclinic
loop_
_symmetry_equiv_pos_as_xyz
  x,y,z
_cell_length_a	13.185407
_cell_length_b	13.262508
_cell_length_c	9.130313
_cell_angle_alpha	105.913806
_cell_angle_beta	89.996733
_cell_angle_gamma	68.867216
loop_
_atom_site_label
_atom_site_type_symbol
_atom_site_fract_x
_atom_site_fract_y
_atom_site_fract_z
O1	O	1.445731	-0.273081	-0.230547
O2	O	1.128714	-0.166829	-0.188230
O3	O	1.295200	-0.374996	-0.271146
O4	O	1.279245	-0.064914	-0.147631
O5	O	1.295188	-0.374998	-0.027548
O6	O	1.128703	-0.166830	0.055368
O7	O	1.445719	-0.273082	0.013051
Cu8	Cu	1.287210	-0.219956	0.056452
Cu9	Cu	1.287223	-0.219955	-0.231631
O10	O	1.279233	-0.064915	0.095967
C11	C	1.088128	-0.156058	-0.062141
C12	C	0.967213	-0.123974	-0.049364
C13	C	0.676573	-0.430172	-0.171326
C14	C	0.790179	-0.460319	-0.183322
C15	C	0.834443	-0.376236	-0.149834
C16	C	0.765090	-0.261999	-0.104346
C17	C	0.651473	-0.231848	-0.092337
C18	C	0.809343	-0.177912	-0.070846
C19	C	0.739990	-0.063675	-0.025358
C20	C	0.626384	-0.033530	-0.013351
C21	C	0.582120	-0.117614	-0.046839
C22	C	0.922961	-0.208063	-0.082855
C23	C	0.897860	-0.009740	-0.003866
C24	C	0.784254	0.020408	0.008130
C25	C	1.294301	-0.413848	-0.164826
C26	C	1.291626	-0.529607	-0.210945
C27	C	1.284054	-0.855927	0.190210
C28	C	1.286559	-0.747162	0.233544
C29	C	1.287826	-0.692768	0.122426
C30	C	1.286587	-0.747149	-0.032035
C31	C	1.284074	-0.855921	-0.075373
C32	C	1.287846	-0.692762	-0.143157
C33	C	1.286607	-0.747143	-0.297618
C34	C	1.284094	-0.855905	-0.340948
C35	C	1.282827	-0.910299	-0.229829
C36	C	1.290359	-0.583990	-0.099819
C37	C	1.290379	-0.583985	-0.365402
C38	C	1.287874	-0.692749	-0.408736
C39	C	1.486305	-0.283853	-0.113041
C40	C	1.607220	-0.315937	-0.125828
C41	C	1.280133	-0.026064	-0.010357
C42	C	1.282808	0.089695	0.035753
N43	N	1.287208	-0.219960	0.259073
N44	N	1.287234	-0.219961	-0.434257
C45	C	1.360953	-0.312114	0.299019
C46	C	1.360963	-0.312117	0.452354
C47	C	1.213481	-0.127802	0.525789
C48	C	1.213466	-0.127804	0.372455
H49	H	0.933899	0.058729	0.023407
O50	O	1.141813	-0.038414	0.636043
C51	C	1.074369	-0.075610	0.709923
H52	H	1.117382	-0.169865	0.695347
H53	H	0.993839	-0.060043	0.657056
C54	C	0.998545	0.105818	0.899633
C55	C	1.051379	-0.009946	0.881741
H56	H	0.984359	0.146326	1.005616
H57	H	1.043980	0.130880	0.849856
H58	H	0.931443	0.118775	0.855567
H59	H	1.118485	-0.022902	0.925788
H60	H	1.005955	-0.035008	0.931529
O61	O	0.944806	-0.405574	-0.161781
C62	C	0.989647	-0.470070	-0.313610
H63	H	0.923954	-0.450951	-0.394170
H64	H	1.021000	-0.563890	-0.322448
C65	C	1.165704	-0.463094	-0.259758
C66	C	1.085021	-0.439605	-0.358703
H67	H	1.224538	-0.444307	-0.287573
H68	H	1.135496	-0.419646	-0.157465
H69	H	1.191818	-0.541277	-0.267132
H70	H	1.058899	-0.361421	-0.351314
H71	H	1.115227	-0.483039	-0.460996
O72	O	1.432556	-0.401764	0.490944
C73	C	1.414375	-0.500542	0.414169
H74	H	1.372386	-0.488579	0.307613
H75	H	1.360030	-0.517683	0.493654
C76	C	1.576217	-0.616139	0.497743
C77	C	1.524654	-0.601449	0.366863
H78	H	1.644241	-0.678386	0.468568
H79	H	1.588465	-0.549591	0.549474
H80	H	1.530919	-0.630418	0.563969
H81	H	1.569946	-0.587157	0.300649
H82	H	1.512417	-0.667998	0.315120
H83	H	0.569918	0.059489	0.023703
H84	H	1.153409	-0.052759	0.339932
O85	O	1.282630	-0.908642	0.298219
C86	C	1.189040	-0.843561	0.404943
H87	H	1.123889	-0.786741	0.349884
H88	H	1.211795	-0.789144	0.509438
C89	C	1.224099	-0.992522	0.522368
C90	C	1.144076	-0.922741	0.454739
H91	H	1.196365	-1.041362	0.553091
H92	H	1.287155	-1.036367	0.450470
H93	H	1.243054	-0.947162	0.609439
H94	H	1.125132	-0.968100	0.367660
H95	H	1.081015	-0.878905	0.526624
O96	O	1.290121	-0.587058	0.164725
C97	C	1.196728	-0.512214	0.267333
H98	H	1.163856	-0.562058	0.325006
H99	H	1.131214	-0.465954	0.201810
C100	C	1.267985	-0.364401	0.319188
C101	C	1.227617	-0.425619	0.390032
H102	H	1.287037	-0.310982	0.394871
H103	H	1.330905	-0.414823	0.250055
H104	H	1.213384	-0.325861	0.264588
H105	H	1.282223	-0.464169	0.444615
H106	H	1.164708	-0.375202	0.459178
H107	H	1.280793	-0.998867	-0.265106
O108	O	0.857388	-0.571333	-0.227593
C109	C	0.793962	-0.639082	-0.254539
H110	H	0.709302	-0.588525	-0.280528
H111	H	0.785728	-0.666358	-0.148534
C112	C	0.954146	-0.806634	-0.360142
C113	C	0.850168	-0.744542	-0.392075
H114	H	0.988818	-0.871690	-0.444976
H115	H	0.996879	-0.760991	-0.341983
H116	H	0.947270	-0.829353	-0.271801
H117	H	0.857046	-0.721813	-0.480402
H118	H	0.807437	-0.790184	-0.410252
H119	H	1.287579	-0.702897	0.359304
O120	O	0.633394	-0.511697	-0.203852
C121	C	0.518247	-0.460586	-0.183450
H122	H	0.491954	-0.371252	-0.193994
H123	H	0.486601	-0.456721	-0.065041
C124	C	0.503030	-0.640372	-0.293923
C125	C	0.470735	-0.530653	-0.306886
H126	H	0.473720	-0.683594	-0.370058
H127	H	0.580606	-0.674808	-0.307663
H128	H	0.476655	-0.637136	-0.195243
H129	H	0.497121	-0.533890	-0.405557
H130	H	0.393162	-0.496219	-0.293165
H131	H	0.979418	-0.301076	-0.119894
H132	H	0.489613	-0.093073	-0.037081
O133	O	1.283031	-0.908913	-0.490961
C134	C	1.375806	-1.010310	-0.539292
H135	H	1.406827	-1.039429	-0.435592
H136	H	1.442752	-0.995353	-0.598860
C137	C	1.306712	-1.066176	-0.779069
C138	C	1.344806	-1.101946	-0.651704
H139	H	1.287593	-1.122701	-0.848415
H140	H	1.244209	-0.997861	-0.746511
H141	H	1.362507	-1.053712	-0.828690
H142	H	1.289007	-1.114395	-0.602074
H143	H	1.407300	-1.170265	-0.684256
H144	H	0.727771	0.113421	0.045168
H145	H	1.286864	-0.737042	-0.534501
H146	H	1.291358	-0.539720	0.025945
H147	H	1.420997	-0.387155	0.206704
H148	H	1.291403	-0.539694	-0.455883
