data_functionalizedCrystal
_audit_creation_method	'MofGen! by Chris Wilmer'
_symmetry_space_group_name_H-M	'P1'
_symmetry_Int_Tables_number	1
_symmetry_cell_setting	triclinic
loop_
_symmetry_equiv_pos_as_xyz
  x,y,z
_cell_length_a	23.532407
_cell_length_b	23.532407
_cell_length_c	14.750779
_cell_angle_alpha	77.433997
_cell_angle_beta	102.563622
_cell_angle_gamma	82.848712
loop_
_atom_site_label
_atom_site_type_symbol
_atom_site_fract_x
_atom_site_fract_y
_atom_site_fract_z
O1	O	0.742834	0.081554	-0.079778
O2	O	1.242834	0.581554	0.420222
O3	O	0.576968	0.091560	-0.079794
O4	O	1.076968	0.591560	0.420206
O5	O	0.664906	0.003622	-0.079768
O6	O	1.164906	0.503622	0.420232
O7	O	0.654897	0.169491	-0.079804
O8	O	1.154897	0.669491	0.420196
O9	O	0.689764	-0.021234	0.079890
O10	O	1.189764	0.478766	0.579890
O11	O	0.601827	0.066704	0.079863
O12	O	1.101827	0.566704	0.579863
O13	O	0.767693	0.056698	0.079880
O14	O	1.267693	0.556698	0.579880
Zn15	Zn	0.688707	0.057754	0.105221
Zn16	Zn	1.188707	0.557754	0.605221
Zn17	Zn	0.655954	0.090503	-0.105135
Zn18	Zn	1.155954	0.590503	0.394865
O19	O	0.679756	0.144635	0.079853
O20	O	1.179756	0.644635	0.579853
C21	C	0.568181	0.078877	0.000033
C22	C	1.068181	0.578877	0.500033
C23	C	0.504963	0.078112	0.000027
C24	C	1.004963	0.578112	0.500027
C25	C	0.238802	0.022911	0.000065
C26	C	0.738802	0.522911	0.500065
C27	C	0.298202	0.023622	0.000065
C28	C	0.798202	0.523622	0.500065
O29	O	0.334953	-0.020170	0.000108
O30	O	0.834953	0.479830	0.500108
N31	N	0.320826	0.075901	0.000047
N32	N	0.820826	0.575901	0.500047
C33	C	0.284047	0.127471	0.000039
C34	C	0.784047	0.627471	0.500039
O35	O	0.308744	0.172004	0.000025
O36	O	0.808744	0.672004	0.500025
C37	C	0.224649	0.126758	0.000046
C38	C	0.724649	0.626758	0.500046
C39	C	0.202027	0.074477	0.000055
C40	C	0.702027	0.574477	0.500055
C41	C	0.216180	-0.029366	0.000074
C42	C	0.716180	0.470634	0.500074
C43	C	0.156784	-0.030077	0.000073
C44	C	0.656784	0.469923	0.500073
C45	C	0.120009	0.021489	0.000062
C46	C	0.620009	0.521489	0.500062
C47	C	0.142631	0.073766	0.000053
C48	C	0.642631	0.573766	0.500053
C49	C	0.187872	0.178325	0.000045
C50	C	0.687872	0.678325	0.500045
C51	C	0.128471	0.177608	0.000053
C52	C	0.628471	0.677608	0.500053
C53	C	0.105850	0.125327	0.000062
C54	C	0.605850	0.625327	0.500062
C55	C	0.046460	0.124621	0.000041
C56	C	0.546460	0.624621	0.500041
N57	N	0.023837	0.072342	0.000059
N58	N	0.523837	0.572342	0.500059
C59	C	0.060611	0.020776	0.000070
C60	C	0.560611	0.520776	0.500070
C61	C	0.408787	0.128964	0.000025
C62	C	0.908787	0.628964	0.500025
C63	C	0.468183	0.129679	0.000011
C64	C	0.968183	0.629679	0.500011
C65	C	0.482334	0.025830	0.000039
C66	C	0.982334	0.525830	0.500039
C67	C	0.422937	0.025117	0.000046
C68	C	0.922937	0.525117	0.500046
C69	C	0.386164	0.076685	0.000043
C70	C	0.886164	0.576685	0.500043
C71	C	-0.064126	0.019287	0.000066
C72	C	0.435874	0.519287	0.500066
C73	C	-0.123529	0.018581	0.000061
C74	C	0.376471	0.518581	0.500061
C75	C	-0.137675	0.122429	0.000038
C76	C	0.362325	0.622429	0.500038
C77	C	-0.078278	0.123136	0.000038
C78	C	0.421722	0.623136	0.500038
C79	C	-0.041504	0.071559	0.000056
C80	C	0.458496	0.571559	0.500056
O81	O	0.009675	0.168390	0.000002
O82	O	0.509675	0.668390	0.500002
O83	O	0.035908	-0.023752	0.000097
O84	O	0.535908	0.476248	0.500097
C85	C	0.677081	-0.030022	0.000063
C86	C	1.177081	0.469978	0.500063
C87	C	0.676316	-0.093240	0.000071
C88	C	1.176316	0.406760	0.500071
C89	C	0.723542	-0.492336	0.000023
C90	C	1.223542	0.007664	0.500023
C91	C	0.722829	-0.551735	0.000015
C92	C	1.222829	-0.051735	0.500015
O93	O	0.766610	-0.588475	-0.000016
O94	O	1.266610	-0.088475	0.499984
N95	N	0.670552	-0.574360	0.000011
N96	N	1.170552	-0.074360	0.500011
C97	C	0.618983	-0.537582	0.000004
C98	C	1.118983	-0.037582	0.500004
O99	O	0.574452	-0.562281	-0.000002
O100	O	1.074452	-0.062281	0.499998
C101	C	0.619695	-0.478183	0.000004
C102	C	1.119695	0.021817	0.500004
C103	C	0.671977	-0.455562	0.000019
C104	C	1.171977	0.044438	0.500019
C105	C	0.775819	-0.469715	0.000036
C106	C	1.275819	0.030285	0.500036
C107	C	0.776532	-0.410320	0.000045
C108	C	1.276532	0.089680	0.500045
C109	C	0.724967	-0.373546	0.000041
C110	C	1.224967	0.126454	0.500041
C111	C	0.672690	-0.396168	0.000028
C112	C	1.172690	0.103832	0.500028
C113	C	0.568125	-0.441404	-0.000010
C114	C	1.068125	0.058596	0.499990
C115	C	0.568842	-0.382002	-0.000010
C116	C	1.068842	0.117998	0.499990
C117	C	0.621124	-0.359381	0.000005
C118	C	1.121124	0.140619	0.500005
C119	C	0.621837	-0.299999	0.000033
C120	C	1.121837	0.200001	0.500033
N121	N	0.674115	-0.277374	0.000037
N122	N	1.174115	0.222626	0.500037
C123	C	0.725679	-0.314147	0.000041
C124	C	1.225679	0.185853	0.500041
C125	C	0.617491	-0.662324	0.000001
C126	C	1.117491	-0.162324	0.500001
C127	C	0.616780	-0.721723	0.000007
C128	C	1.116780	-0.221723	0.500007
C129	C	0.720626	-0.735872	0.000017
C130	C	1.220626	-0.235872	0.500017
C131	C	0.721338	-0.676473	0.000018
C132	C	1.221338	-0.176473	0.500018
C133	C	0.669768	-0.639698	0.000006
C134	C	1.169768	-0.139698	0.500006
C135	C	0.727172	-0.189414	0.000061
C136	C	1.227172	0.310586	0.500061
C137	C	0.727881	-0.130014	0.000075
C138	C	1.227881	0.369986	0.500075
C139	C	0.624034	-0.115869	0.000060
C140	C	1.124034	0.384131	0.500060
C141	C	0.623326	-0.175265	0.000052
C142	C	1.123326	0.324735	0.500052
C143	C	0.674899	-0.212036	0.000049
C144	C	1.174899	0.287964	0.500049
O145	O	0.578079	-0.263224	0.000060
O146	O	1.078079	0.236776	0.500060
O147	O	0.770201	-0.289438	0.000034
O148	O	1.270201	0.210562	0.500034
C149	C	0.776480	0.069381	0.000051
C150	C	1.276480	0.569381	0.500051
C151	C	0.839697	0.070147	0.000050
C152	C	1.339697	0.570147	0.500050
C153	C	0.667580	0.178280	0.000020
C154	C	1.167580	0.678280	0.500020
C155	C	0.668344	0.241499	0.000006
C156	C	1.168344	0.741499	0.500006
N157	N	0.711064	0.035404	0.248783
N158	N	1.211064	0.535404	0.748783
N159	N	0.633602	0.112850	-0.248698
N160	N	1.133602	0.612850	0.251302
C161	C	0.571162	0.175247	0.600559
C162	C	1.071162	0.675247	1.100559
C163	C	0.586833	0.159588	0.701063
C164	C	1.086833	0.659588	1.201063
C165	C	0.664717	0.081748	0.701049
C166	C	1.164717	0.581748	1.201049
C167	C	0.649051	0.097398	0.600543
C168	C	1.149051	0.597398	1.100543
C169	C	0.602274	0.144148	0.550306
C170	C	1.102274	0.644148	1.050306
C171	C	0.680163	0.066300	0.550290
C172	C	1.180163	0.566300	1.050290
C173	C	0.664500	0.081950	0.449793
C174	C	1.164500	0.581950	0.949793
C175	C	0.617726	0.128700	0.399549
C176	C	1.117726	0.628700	0.899549
C177	C	0.586611	0.159799	0.449809
C178	C	1.086611	0.659799	0.949809
C179	C	0.726943	0.019553	0.600529
C180	C	1.226943	0.519553	1.100529
C181	C	0.758055	-0.011546	0.550276
C182	C	1.258055	0.488454	1.050276
C183	C	0.742389	0.004102	0.449777
C184	C	1.242389	0.504102	0.949777
C185	C	0.695615	0.050851	0.399533
C186	C	1.195615	0.550851	0.899533
C187	C	0.773504	-0.026997	0.399517
C188	C	1.273504	0.473003	0.899517
C189	C	0.757841	-0.011346	0.299020
C190	C	1.257841	0.488654	0.799020
C191	C	0.679952	0.066502	0.299036
C192	C	1.179952	0.566502	0.799036
H193	H	0.404523	-0.017455	0.000053
H194	H	0.904523	0.482545	0.500053
Br195	Br	0.596472	0.149945	0.263158
Br196	Br	1.096472	0.649945	0.763158
H197	H	0.811594	-0.065058	0.440433
H198	H	1.311594	0.434942	0.940433
Br199	Br	0.498872	0.200638	-0.000024
Br200	Br	0.998872	0.700638	0.499976
Br201	Br	0.547498	-0.612422	-0.000007
Br202	Br	1.047498	-0.112422	0.499993
Br203	Br	0.797165	-0.239308	0.000057
Br204	Br	1.297165	0.260692	0.500057
H205	H	0.246117	-0.071360	0.000086
H206	H	0.746117	0.428640	0.500086
Br207	Br	0.845810	-0.519612	0.000040
Br208	Br	1.345810	-0.019612	0.500040
H209	H	0.098533	0.219601	0.000056
H210	H	0.598533	0.719601	0.500056
Br211	Br	0.497166	-0.472087	-0.000033
Br212	Br	0.997166	0.027913	0.499967
H213	H	0.512287	-0.016158	0.000048
H214	H	1.012287	0.483842	0.500048
Br215	Br	-0.187595	0.192409	0.000016
Br216	Br	0.312405	0.692409	0.500016
Br217	Br	-0.047578	0.194091	0.000012
Br218	Br	0.452422	0.694091	0.500012
H219	H	0.378848	0.170961	0.000016
H220	H	0.878848	0.670961	0.500016
H221	H	0.548516	0.197864	0.408904
H222	H	1.048516	0.697864	0.908904
Br223	Br	0.800069	-0.053549	0.230817
Br224	Br	1.300069	0.446451	0.730817
H225	H	0.533068	0.213311	0.559654
H226	H	1.033068	0.713311	1.059654
H227	H	0.819105	-0.391908	0.000053
H228	H	1.319105	0.108092	0.500053
Br229	Br	0.792294	-0.645780	0.000039
Br230	Br	1.292294	-0.145780	0.500039
H231	H	0.561494	0.184917	0.741974
H232	H	1.061494	0.684917	1.241974
H233	H	-0.141944	-0.023994	0.000065
H234	H	0.358056	0.476006	0.500065
Br235	Br	0.728202	0.018306	0.769234
Br236	Br	1.228202	0.518306	1.269234
H237	H	0.739695	0.006814	0.682360
H238	H	1.239695	0.506814	1.182360
H239	H	-0.034191	-0.022712	0.000080
H240	H	0.465809	0.477288	0.500080
H241	H	0.762612	-0.765823	0.000017
H242	H	1.262612	-0.265823	0.500017
Br243	Br	0.126091	-0.101032	0.000071
Br244	Br	0.626091	0.398968	0.500071
Br245	Br	0.218557	0.249283	0.000032
Br246	Br	0.718557	0.749283	0.500032
H247	H	0.770457	-0.111600	0.000089
H248	H	1.270457	0.388400	0.500089
Br249	Br	0.545826	-0.752418	0.000011
Br250	Br	1.045826	-0.252418	0.500011
H251	H	0.526846	-0.352062	-0.000021
H252	H	1.026846	0.147938	0.499979
H253	H	0.580758	-0.193687	0.000067
H254	H	1.080758	0.306313	0.500067
H255	H	0.582052	-0.085918	0.000060
H256	H	1.082052	0.414082	0.500060
Br257	Br	0.821539	-0.074988	0.618461
Br258	Br	1.321539	0.425012	1.118461
H259	H	0.641857	0.104567	0.258131
H260	H	1.141857	0.604567	0.758131
