data_functionalizedCrystal
_audit_creation_method	'MofGen! by Chris Wilmer'
_symmetry_space_group_name_H-M	'P1'
_symmetry_Int_Tables_number	1
_symmetry_cell_setting	triclinic
loop_
_symmetry_equiv_pos_as_xyz
  x,y,z
_cell_length_a	14.044220
_cell_length_b	15.944499
_cell_length_c	12.503572
_cell_angle_alpha	93.526055
_cell_angle_beta	86.164750
_cell_angle_gamma	88.333243
loop_
_atom_site_label
_atom_site_type_symbol
_atom_site_fract_x
_atom_site_fract_y
_atom_site_fract_z
O1	O	1.263136	0.198064	-0.089192
O2	O	1.763136	0.698064	0.410808
O3	O	0.987169	0.190755	-0.089219
O4	O	1.487169	0.690755	0.410781
O5	O	1.132714	0.072698	-0.089207
O6	O	1.632714	0.572698	0.410793
O7	O	1.117591	0.316121	-0.089205
O8	O	1.617591	0.816121	0.410795
O9	O	1.121768	0.081593	0.089434
O10	O	1.621768	0.581593	0.589434
O11	O	0.976224	0.199650	0.089422
O12	O	1.476224	0.699650	0.589422
O13	O	1.252190	0.206959	0.089449
O14	O	1.752190	0.706959	0.589449
Cu15	Cu	1.113207	0.204117	0.105747
Cu16	Cu	1.613207	0.704117	0.605747
Cu17	Cu	1.126152	0.193598	-0.105517
Cu18	Cu	1.626152	0.693598	0.394483
O19	O	1.106645	0.325016	0.089436
O20	O	1.606645	0.825016	0.589436
C21	C	0.946383	0.192004	0.000097
C22	C	1.446383	0.692004	0.500097
C23	C	0.841159	0.182462	0.000086
C24	C	1.341159	0.682462	0.500086
C25	C	0.648499	0.165019	0.000108
C26	C	1.148499	0.665019	0.500108
C27	C	0.590856	0.232691	0.000113
C28	C	1.090856	0.732691	0.500113
C29	C	0.483653	0.222986	0.000124
C30	C	0.983653	0.722986	0.500124
C31	C	0.755712	0.174723	0.000096
C32	C	1.255712	0.674723	0.500096
C33	C	1.126622	0.045804	0.000111
C34	C	1.626622	0.545804	0.500111
C35	C	1.124767	-0.047583	0.000103
C36	C	1.624767	0.452417	0.500103
C37	C	1.209324	-0.332787	0.000117
C38	C	1.709324	0.167213	0.500117
C39	C	1.159972	-0.270668	0.088196
C40	C	1.659972	0.229332	0.588196
C41	C	1.118022	-0.383724	0.000115
C42	C	1.618022	0.116276	0.500115
C43	C	1.170739	-0.279445	-0.087930
C44	C	1.670739	0.220555	0.412070
C45	C	1.121341	-0.218567	0.000107
C46	C	1.621341	0.281433	0.500107
C47	C	1.068640	-0.322831	0.088266
C48	C	1.568640	0.177169	0.588266
C49	C	1.079425	-0.331618	-0.087939
C50	C	1.579425	0.168382	0.412061
C51	C	1.030005	-0.269520	0.000161
C52	C	1.530005	0.230480	0.500161
C53	C	1.116113	-0.478867	0.000120
C54	C	1.616113	0.021133	0.500120
C55	C	1.123243	-0.123426	0.000109
C56	C	1.623243	0.376574	0.500109
C57	C	1.292977	0.205710	0.000130
C58	C	1.792977	0.705710	0.500130
C59	C	1.398201	0.215252	0.000134
C60	C	1.898201	0.715252	0.500134
C61	C	1.112737	0.351910	0.000116
C62	C	1.612737	0.851910	0.500116
C63	C	1.114593	0.445297	0.000118
C64	C	1.614593	0.945297	0.500118
N65	N	1.104110	0.211515	0.254338
N66	N	1.604110	0.711515	0.754338
N67	N	1.135257	0.186193	-0.254108
N68	N	1.635257	0.686193	0.245892
C69	C	1.090726	0.222406	0.473452
C70	C	1.590726	0.722406	0.973452
C71	C	1.148637	0.175305	0.526784
C72	C	1.648637	0.675305	1.026784
C73	C	1.141191	0.181365	0.648707
C74	C	1.641191	0.681365	1.148707
C75	C	1.098172	0.216347	0.351519
C76	C	1.598172	0.716347	0.851519
H77	H	1.285090	-0.360439	0.000209
H78	H	1.785090	0.139561	0.500209
H79	H	1.194027	-0.243977	0.162665
H80	H	1.694027	0.256023	0.662665
H81	H	1.035559	0.267278	0.519355
H82	H	1.535559	0.767278	1.019355
O83	O	1.227942	-0.253932	-0.186569
O84	O	1.727942	0.246068	0.313431
H85	H	1.302333	-0.279379	-0.186372
H86	H	1.802333	0.220621	0.313628
H87	H	0.617339	0.099800	0.000113
H88	H	1.117339	0.599800	0.500113
H89	H	0.954164	-0.242014	0.000205
H90	H	1.454164	0.257986	0.500205
O91	O	0.632121	0.319092	0.000092
O92	O	1.132121	0.819092	0.500092
H93	H	0.711069	0.313257	0.000072
H94	H	1.211069	0.813257	0.500072
O95	O	1.011489	-0.348198	0.187018
O96	O	1.511489	0.151802	0.687018
H97	H	1.010570	-0.417816	0.186269
H98	H	1.510570	0.082184	0.686269
H99	H	1.203809	0.130431	0.480876
H100	H	1.703809	0.630431	0.980876
H101	H	1.045402	-0.358328	-0.162412
H102	H	1.545402	0.141672	0.337588
