data_functionalizedCrystal
_audit_creation_method	'MofGen! by Chris Wilmer'
_symmetry_space_group_name_H-M	'P1'
_symmetry_Int_Tables_number	1
_symmetry_cell_setting	triclinic
loop_
_symmetry_equiv_pos_as_xyz
  x,y,z
_cell_length_a	21.295418
_cell_length_b	14.908520
_cell_length_c	21.295412
_cell_angle_alpha	86.728936
_cell_angle_beta	90.042690
_cell_angle_gamma	93.337612
loop_
_atom_site_label
_atom_site_type_symbol
_atom_site_fract_x
_atom_site_fract_y
_atom_site_fract_z
Zn1	Zn	0.947938	-0.358808	0.370690
Zn2	Zn	1.281271	-0.025474	0.704023
Zn3	Zn	1.614605	0.307859	1.037357
Zn4	Zn	0.941783	-0.509675	0.271494
Zn5	Zn	1.275116	-0.176342	0.604827
Zn6	Zn	1.608450	0.156991	0.938161
Zn7	Zn	0.842661	-0.358874	0.265402
Zn8	Zn	1.175994	-0.025540	0.598736
Zn9	Zn	1.509327	0.307793	0.932069
Zn10	Zn	0.836571	-0.509669	0.376690
Zn11	Zn	1.169905	-0.176336	0.710023
Zn12	Zn	1.503238	0.156997	1.043357
O13	O	0.892238	-0.434256	0.321069
O14	O	1.225572	-0.100923	0.654402
O15	O	1.558905	0.232410	0.987736
O16	O	1.035212	-0.378795	0.357570
O17	O	1.368545	-0.045462	0.690903
O18	O	1.701879	0.287871	1.024236
O19	O	0.928607	-0.489701	0.182598
O20	O	1.261940	-0.156368	0.515931
O21	O	1.595273	0.176965	0.849264
O22	O	0.861750	-0.232618	0.274309
O23	O	1.195083	0.100716	0.607642
O24	O	1.528417	0.434049	0.940975
O25	O	1.030690	-0.489637	0.284691
O26	O	1.364023	-0.156304	0.618024
O27	O	1.697357	0.177030	0.951357
O28	O	0.939097	-0.232569	0.351663
O29	O	1.272430	0.100764	0.684996
O30	O	1.605764	0.434098	1.018330
O31	O	0.855782	-0.378908	0.178122
O32	O	1.189115	-0.045575	0.511456
O33	O	1.522448	0.287759	0.844789
O34	O	0.753762	-0.378902	0.280127
O35	O	1.087096	-0.045569	0.613460
O36	O	1.420429	0.287764	0.946793
O37	O	0.851372	-0.489627	0.463982
O38	O	1.184705	-0.156294	0.797316
O39	O	1.518039	0.177039	1.130649
O40	O	0.749289	-0.489691	0.361889
O41	O	1.082622	-0.156358	0.695223
O42	O	1.415955	0.176975	1.028556
O43	O	0.933193	-0.378790	0.459574
O44	O	1.266526	-0.045456	0.792907
O45	O	1.599859	0.287877	1.126241
O46	O	0.922702	-0.635922	0.290509
O47	O	1.256035	-0.302588	0.623842
O48	O	1.589369	0.030745	0.957175
O49	O	0.845404	-0.635917	0.367796
O50	O	1.178737	-0.302584	0.701129
O51	O	1.512070	0.030749	1.034463
C52	C	0.882741	-0.668654	0.330478
C53	C	1.216075	-0.335321	0.663811
C54	C	1.549408	-0.001987	0.997145
C55	C	0.878736	-0.768930	0.334524
C56	C	1.212069	-0.435597	0.667858
C57	C	1.545403	-0.102264	1.001191
C58	C	0.728685	-0.434304	0.320999
C59	C	1.062018	-0.100971	0.654332
C60	C	1.395351	0.232363	0.987665
C61	C	0.658715	-0.434346	0.320984
C62	C	0.992048	-0.101013	0.654318
C63	C	1.325382	0.232321	0.987651
C64	C	0.951784	-0.957303	0.261714
C65	C	1.285117	-0.623970	0.595047
C66	C	1.618450	-0.290637	0.928380
C67	C	0.948022	-1.051522	0.265513
C68	C	1.281356	-0.718189	0.598847
C69	C	1.614689	-0.384855	0.932180
C70	C	0.867456	-1.051587	0.345927
C71	C	1.200790	-0.718254	0.679260
C72	C	1.534123	-0.384921	1.012593
C73	C	0.871217	-0.957369	0.342127
C74	C	1.204551	-0.624036	0.675460
C75	C	1.537884	-0.290702	1.008793
C76	C	0.913382	-0.910230	0.300018
C77	C	1.246715	-0.576897	0.633352
C78	C	1.580048	-0.243564	0.966685
C79	C	0.917139	-0.816010	0.296216
C80	C	1.250473	-0.482677	0.629549
C81	C	1.583806	-0.149343	0.962882
C82	C	0.836577	-0.816077	0.376632
C83	C	1.169910	-0.482744	0.709965
C84	C	1.503243	-0.149411	1.043298
C85	C	0.832816	-0.910296	0.380431
C86	C	1.166149	-0.576963	0.713765
C87	C	1.499482	-0.243629	1.047098
C88	C	0.623532	-0.492110	0.363501
C89	C	0.956866	-0.158777	0.696834
C90	C	1.290199	0.174556	1.030168
C91	C	0.557791	-0.492088	0.363528
C92	C	0.891124	-0.158755	0.696862
C93	C	1.224457	0.174579	1.030195
C94	C	0.527234	-0.434311	0.321028
C95	C	0.860567	-0.100978	0.654361
C96	C	1.193900	0.232356	0.987695
C97	C	0.562425	-0.376536	0.278508
C98	C	0.895758	-0.043202	0.611841
C99	C	1.229092	0.290131	0.945175
C100	C	0.628165	-0.376553	0.278486
C101	C	0.961499	-0.043220	0.611820
C102	C	1.294832	0.290114	0.945153
N103	N	0.424242	-0.427262	0.265686
N104	N	0.757575	-0.093929	0.599020
N105	N	1.090909	0.239405	0.932353
N106	N	0.361791	-0.427251	0.265709
N107	N	0.695124	-0.093917	0.599043
N108	N	1.028458	0.239416	0.932376
C109	C	0.329161	-0.434253	0.321093
C110	C	0.662495	-0.100920	0.654426
C111	C	0.995828	0.232413	0.987759
N112	N	0.361341	-0.441286	0.376454
N113	N	0.694675	-0.107952	0.709787
N114	N	1.028008	0.225381	1.043121
N115	N	0.423798	-0.441302	0.376431
N116	N	0.757131	-0.107968	0.709764
N117	N	1.090465	0.225365	1.043097
C118	C	0.455949	-0.434285	0.321047
C119	C	0.789283	-0.100952	0.654381
C120	C	1.122616	0.232381	0.987714
C121	C	0.222694	-0.491997	0.363642
C122	C	0.556027	-0.158663	0.696976
C123	C	0.889361	0.174670	1.030309
C124	C	0.156952	-0.491968	0.363671
C125	C	0.490285	-0.158635	0.697004
C126	C	0.823618	0.174699	1.030337
C127	C	0.161587	-0.376420	0.278645
C128	C	0.494920	-0.043087	0.611978
C129	C	0.828254	0.290246	0.945312
C130	C	0.227328	-0.376444	0.278622
C131	C	0.560662	-0.043111	0.611956
C132	C	0.893995	0.290222	0.945289
C133	C	0.257878	-0.434237	0.321120
C134	C	0.591211	-0.100904	0.654454
C135	C	0.924545	0.232430	0.987787
C136	C	1.056430	-0.434209	0.321140
C137	C	1.389764	-0.100876	0.654474
C138	C	1.723097	0.232457	0.987807
C139	C	1.126399	-0.434189	0.321171
C140	C	1.459733	-0.100856	0.654504
C141	C	1.793066	0.232477	0.987837
C142	C	0.892290	-0.434200	0.485257
C143	C	1.225623	-0.100867	0.818591
C144	C	1.558956	0.232466	1.151924
C145	C	0.892312	-0.434176	0.555224
C146	C	1.225645	-0.100843	0.888558
C147	C	1.558978	0.232490	1.221891
C148	C	0.901789	-0.198944	0.311637
C149	C	1.235123	0.134390	0.644970
C150	C	1.568456	0.467723	0.978304
C151	C	0.905860	-0.098667	0.307618
C152	C	1.239193	0.234666	0.640951
C153	C	1.572526	0.567999	0.974284
C154	C	0.892226	-0.434247	0.157517
C155	C	1.225559	-0.100914	0.490850
C156	C	1.558892	0.232419	0.824184
C157	C	0.892336	-0.434017	0.087540
C158	C	1.225669	-0.100684	0.420874
C159	C	1.559003	0.232650	0.754207
C160	C	0.854403	-0.376480	0.585751
C161	C	1.187736	-0.043146	0.919084
C162	C	1.521069	0.290187	1.252417
C163	C	0.854401	-0.376463	0.651492
C164	C	1.187735	-0.043130	0.984826
C165	C	1.521068	0.290204	1.318159
C166	C	0.892320	-0.434133	0.686705
C167	C	1.225654	-0.100800	1.020039
C168	C	1.558987	0.232533	1.353372
C169	C	0.930231	-0.491841	0.656172
C170	C	1.263565	-0.158508	0.989505
C171	C	1.596898	0.174825	1.322838
C172	C	0.930227	-0.491863	0.590431
C173	C	1.263561	-0.158529	0.923764
C174	C	1.596894	0.174804	1.257098
N175	N	0.947149	-0.441002	0.790239
N176	N	1.280482	-0.107668	1.123572
N177	N	1.613816	0.225665	1.456905
N178	N	0.947151	-0.440976	0.852689
N179	N	1.280485	-0.107643	1.186022
N180	N	1.613818	0.225691	1.519356
C181	C	0.892334	-0.434073	0.884778
C182	C	1.225668	-0.100740	1.218111
C183	C	1.559001	0.232593	1.551444
N184	N	0.837514	-0.427180	0.852056
N185	N	1.170847	-0.093846	1.185389
N186	N	1.504181	0.239487	1.518722
N187	N	0.837513	-0.427201	0.789599
N188	N	1.170846	-0.093868	1.122933
N189	N	1.504179	0.239466	1.456266
C190	C	0.892329	-0.434117	0.757990
C191	C	1.225662	-0.100784	1.091323
C192	C	1.558995	0.232550	1.424657
C193	C	0.854420	-0.376355	0.986589
C194	C	1.187754	-0.043022	1.319922
C195	C	1.521087	0.290311	1.653255
C196	C	0.854417	-0.376345	1.052332
C197	C	1.187751	-0.043012	1.385665
C198	C	1.521084	0.290322	1.718999
C199	C	0.930254	-0.491718	1.057010
C200	C	1.263587	-0.158385	1.390343
C201	C	1.596920	0.174948	1.723676
C202	C	0.930251	-0.491734	0.991268
C203	C	1.263584	-0.158400	1.324601
C204	C	1.596917	0.174933	1.657934
C205	C	0.892335	-0.434047	0.956061
C206	C	1.225668	-0.100714	1.289394
C207	C	1.559002	0.232619	1.622728
H208	H	0.951470	-0.777631	0.261927
H209	H	1.284803	-0.444297	0.595260
H210	H	1.618137	-0.110964	0.928594
H211	H	0.986111	-0.918922	0.227423
H212	H	1.319444	-0.585589	0.560756
H213	H	1.652778	-0.252256	0.894089
H214	H	0.529139	-0.539126	0.398153
H215	H	0.862473	-0.205793	0.731486
H216	H	1.195806	0.127541	1.064819
Cl217	Cl	0.271560	-0.303824	0.225168
Cl218	Cl	0.604894	0.029509	0.558501
Cl219	Cl	0.938227	0.362842	0.891834
H220	H	0.823547	-0.329385	0.957922
H221	H	1.156880	0.003949	1.291255
H222	H	1.490213	0.337282	1.624588
Cl223	Cl	0.806734	-0.303965	0.541494
Cl224	Cl	1.140068	0.029369	0.874828
Cl225	Cl	1.473401	0.362702	1.208161
Cl226	Cl	0.261102	-0.564643	0.417071
Cl227	Cl	0.594436	-0.231310	0.750404
Cl228	Cl	0.927769	0.102023	1.083737
Cl229	Cl	0.806755	-0.303905	0.689876
Cl230	Cl	1.140089	0.029429	1.023209
Cl231	Cl	1.473422	0.362762	1.356543
H232	H	0.979294	-1.089845	0.234323
H233	H	1.312628	-0.756512	0.567656
H234	H	1.645961	-0.423179	0.900990
H235	H	0.961105	-0.538797	0.684846
H236	H	1.294439	-0.205464	1.018179
H237	H	1.627772	0.127870	1.351513
H238	H	0.833132	-1.089984	0.380213
H239	H	1.166466	-0.756651	0.713547
H240	H	1.499799	-0.423317	1.046880
Cl241	Cl	0.788289	-0.756894	0.424780
Cl242	Cl	1.121622	-0.423561	0.758114
Cl243	Cl	1.454956	-0.090228	1.091447
H244	H	0.798488	-0.948689	0.414717
H245	H	1.131822	-0.615356	0.748050
H246	H	1.465155	-0.282022	1.081383
Cl247	Cl	0.661934	-0.564760	0.416930
Cl248	Cl	0.995267	-0.231427	0.750263
Cl249	Cl	1.328601	0.101907	1.083596
Cl250	Cl	0.977915	-0.564265	0.952889
Cl251	Cl	1.311248	-0.230931	1.286223
Cl252	Cl	1.644582	0.102402	1.619556
H253	H	0.961100	-0.538845	0.565577
H254	H	1.294433	-0.205512	0.898911
H255	H	1.627767	0.127821	1.232244
Cl256	Cl	0.524012	-0.303897	0.225082
Cl257	Cl	0.857345	0.029436	0.558416
Cl258	Cl	1.190678	0.362770	0.891749
Cl259	Cl	0.123179	-0.303780	0.225219
Cl260	Cl	0.456512	0.029554	0.558553
Cl261	Cl	0.789846	0.362887	0.891886
H262	H	0.823543	-0.329364	1.077185
H263	H	1.156876	0.003969	1.410518
H264	H	1.490209	0.337302	1.743852
Cl265	Cl	0.977919	-0.564225	1.101271
Cl266	Cl	1.311253	-0.230892	1.434604
Cl267	Cl	1.644586	0.102441	1.767938
Cl268	Cl	0.672397	-0.303929	0.225032
Cl269	Cl	1.005731	0.029404	0.558365
Cl270	Cl	1.339064	0.362738	0.891699
Cl271	Cl	0.112721	-0.564588	0.417129
Cl272	Cl	0.446054	-0.231255	0.750462
Cl273	Cl	0.779388	0.102079	1.083795
