data_functionalizedCrystal
_audit_creation_method	'MofGen! by Chris Wilmer'
_symmetry_space_group_name_H-M	'P1'
_symmetry_Int_Tables_number	1
_symmetry_cell_setting	triclinic
loop_
_symmetry_equiv_pos_as_xyz
  x,y,z
_cell_length_a	19.805407
_cell_length_b	12.645330
_cell_length_c	19.805399
_cell_angle_alpha	90.021721
_cell_angle_beta	90.019573
_cell_angle_gamma	90.017692
loop_
_atom_site_label
_atom_site_type_symbol
_atom_site_fract_x
_atom_site_fract_y
_atom_site_fract_z
Zn1	Zn	1.034777	-0.422064	0.382747
Zn2	Zn	1.034709	-0.599342	0.269571
Zn3	Zn	0.921591	-0.422093	0.269572
Zn4	Zn	0.921572	-0.599286	0.382717
O5	O	0.978162	-0.510696	0.326152
O6	O	1.129484	-0.445592	0.367746
O7	O	1.019683	-0.575865	0.174854
O8	O	0.936642	-0.273742	0.284598
O9	O	1.129434	-0.575837	0.284596
O10	O	1.019799	-0.273721	0.367747
O11	O	0.936576	-0.445641	0.174855
O12	O	0.826872	-0.445587	0.284569
O13	O	0.936609	-0.575741	0.477438
O14	O	0.826858	-0.575769	0.367696
O15	O	1.019780	-0.445537	0.477460
O16	O	1.019664	-0.747682	0.284567
O17	O	0.936543	-0.747641	0.367695
C18	C	0.802306	-0.510676	0.326130
C19	C	0.727074	-0.510693	0.326137
C20	C	0.978113	-0.786126	0.326142
C21	C	0.978154	-0.903956	0.326161
C22	C	0.691740	-0.578581	0.369351
C23	C	0.621052	-0.578583	0.369361
C24	C	0.585699	-0.510701	0.326152
C25	C	0.621037	-0.442805	0.282935
C26	C	0.691725	-0.442799	0.282930
C27	C	0.335964	-0.442829	0.282958
C28	C	0.265272	-0.442843	0.282965
C29	C	0.265292	-0.578613	0.369388
C30	C	0.335979	-0.578606	0.369383
C31	C	0.371311	-0.510707	0.326169
C32	C	0.447960	-0.510705	0.326160
C33	C	0.509051	-0.510708	0.326157
C34	C	0.926078	-1.071538	0.378618
C35	C	0.925811	-0.948979	0.378450
C36	C	0.958847	-0.948544	0.254828
C37	C	0.958530	-1.071142	0.255147
C38	C	1.049854	-1.071047	0.344457
C39	C	1.049415	-0.948440	0.346017
C40	C	1.154705	-0.510717	0.326174
C41	C	1.229937	-0.510726	0.326184
C42	C	0.978200	-0.510629	0.502695
C43	C	0.978216	-0.510601	0.577927
C44	C	0.978230	-0.234191	0.326176
C45	C	0.978259	-0.116361	0.326186
C46	C	0.978163	-0.510686	0.150296
C47	C	0.978278	-0.510416	0.075064
C48	C	1.021524	-0.442800	0.613283
C49	C	1.021531	-0.442770	0.683972
C50	C	0.978233	-0.510546	0.719302
C51	C	0.934920	-0.578349	0.683941
C52	C	0.934910	-0.578374	0.613253
C53	C	0.934958	-0.578250	0.969014
C54	C	0.934973	-0.578223	1.039706
C55	C	1.021579	-0.442646	1.039732
C56	C	1.021570	-0.442671	0.969045
C57	C	0.978255	-0.510470	0.933690
C58	C	0.978247	-0.510501	0.857041
C59	C	0.978244	-0.510521	0.795949
H60	H	0.592286	-0.633865	0.404549
O61	O	0.370394	-0.644397	0.411392
C62	C	0.450204	-0.658821	0.502783
C63	C	0.411286	-0.584199	0.455236
H64	H	0.483264	-0.610180	0.538252
H65	H	0.483324	-0.714171	0.471686
H66	H	0.412793	-0.707365	0.533641
H67	H	0.448648	-0.535587	0.424367
H68	H	0.378156	-0.528919	0.486371
H69	H	1.056799	-0.387562	0.712756
O70	O	0.230903	-0.377051	0.240913
C71	C	0.151038	-0.362624	0.149570
C72	C	0.189928	-0.437242	0.197142
H73	H	0.117889	-0.411257	0.114179
H74	H	0.188407	-0.314117	0.118635
H75	H	0.117989	-0.307240	0.180716
H76	H	0.222977	-0.492690	0.166049
H77	H	0.152522	-0.485674	0.228080
O78	O	0.230864	-0.644464	0.411351
C79	C	0.121976	-0.704699	0.449641
C80	C	0.160878	-0.630051	0.402099
H81	H	0.065386	-0.693087	0.442167
H82	H	0.135853	-0.686196	0.504252
H83	H	0.135896	-0.790140	0.437665
H84	H	0.146979	-0.544584	0.414014
H85	H	0.146998	-0.648645	0.347502
H86	H	0.720492	-0.387512	0.247744
H87	H	1.056830	-0.387484	0.940283
H88	H	0.364723	-0.387549	0.247765
O89	O	1.063490	-0.376906	0.578893
C90	C	1.072613	-0.233757	0.499139
C91	C	1.025013	-0.308340	0.538028
H92	H	1.041523	-0.178288	0.466101
H93	H	1.107980	-0.282377	0.466000
H94	H	1.103579	-0.185341	0.536569
H95	H	0.994003	-0.356772	0.500646
H96	H	0.989690	-0.259658	0.571176
H97	H	1.056846	-0.387437	1.068527
H98	H	0.907057	-0.917931	0.239071
H99	H	0.899664	-0.633530	0.712712
O100	O	0.893005	-0.644176	1.074056
C101	C	0.883875	-0.787231	1.153878
C102	C	0.931475	-0.712625	1.115008
H103	H	0.914958	-0.842576	1.187008
H104	H	0.852926	-0.835770	1.116496
H105	H	0.848491	-0.738520	1.186943
H106	H	0.966900	-0.761254	1.081942
H107	H	0.962376	-0.664083	1.152427
O108	O	0.586593	-0.376959	0.240987
C109	C	0.477689	-0.316741	0.202725
C110	C	0.516611	-0.391385	0.250255
H111	H	0.421102	-0.328363	0.210212
H112	H	0.491510	-0.335237	0.148111
H113	H	0.491648	-0.231297	0.214700
H114	H	0.502673	-0.476853	0.238342
H115	H	0.502787	-0.372798	0.304856
O116	O	1.070904	-1.107660	0.405489
C117	C	1.105364	-1.063352	0.518719
C118	C	1.081555	-1.021743	0.449627
H119	H	1.113969	-0.993911	0.554427
H120	H	1.154538	-1.109062	0.512187
H121	H	1.065161	-1.117906	0.540706
H122	H	1.121711	-0.967148	0.427602
H123	H	1.032365	-0.976094	0.456202
O124	O	0.892854	-0.644195	0.934780
C125	C	0.806897	-0.778586	0.942220
C126	C	0.854566	-0.703983	0.981077
H127	H	0.775919	-0.826929	0.979635
H128	H	0.837903	-0.834114	0.909135
H129	H	0.771545	-0.729882	0.909117
H130	H	0.889928	-0.752602	1.014218
H131	H	0.823519	-0.648452	1.014120
H132	H	0.995649	-0.919382	0.214695
O133	O	1.098285	-0.912059	0.303765
C134	C	1.185007	-0.956825	0.223385
C135	C	1.129697	-0.998168	0.271231
H136	H	1.210409	-1.026422	0.197058
H137	H	1.224212	-0.910828	0.253652
H138	H	1.161309	-0.902601	0.183988
H139	H	1.153335	-1.052434	0.310637
H140	H	1.090499	-1.044105	0.240919
H141	H	0.937890	-0.918829	0.431342
O142	O	0.940272	-1.106495	0.441975
C143	C	0.908762	-1.104756	0.559476
C144	C	0.892618	-1.065063	0.487760
H145	H	0.870235	-1.071293	0.596510
H146	H	0.961545	-1.077610	0.574584
H147	H	0.906434	-1.194824	0.560416
H148	H	0.894909	-0.974998	0.486765
H149	H	0.839844	-1.092289	0.472681
H150	H	0.873332	-1.102438	0.366668
H151	H	0.899638	-0.633574	0.584467
O152	O	0.862463	-0.914270	0.363964
C153	C	0.747618	-0.962257	0.337891
C154	C	0.819335	-1.001708	0.354279
H155	H	0.712726	-1.032930	0.330070
H156	H	0.748898	-0.912475	0.289929
H157	H	0.728127	-0.912148	0.381593
H158	H	0.838869	-1.051860	0.310620
H159	H	0.818013	-1.051433	0.402263
O160	O	1.096236	-1.105806	0.298959
C161	C	1.151069	-1.256463	0.248540
C162	C	1.098540	-1.217234	0.300102
H163	H	1.152939	-1.346557	0.249437
H164	H	1.202884	-1.223382	0.262097
H165	H	1.136236	-1.228484	0.195873
H166	H	1.113310	-1.245199	0.352787
H167	H	1.046738	-1.250306	0.286487
H168	H	0.994887	-1.100796	0.214749
O169	O	0.725975	-0.644556	0.411389
C170	C	0.718525	-0.779264	0.497089
C171	C	0.679674	-0.704587	0.449523
H172	H	0.681108	-0.827834	0.527922
H173	H	0.751623	-0.730714	0.532575
H174	H	0.751616	-0.834585	0.465942
H175	H	0.646546	-0.649251	0.480615
H176	H	0.646619	-0.753203	0.414034
H177	H	0.906193	-1.099832	0.239669
H178	H	1.063974	-0.919294	0.398514
