data_functionalizedCrystal
_audit_creation_method	'MofGen! by Chris Wilmer'
_symmetry_space_group_name_H-M	'P1'
_symmetry_Int_Tables_number	1
_symmetry_cell_setting	triclinic
loop_
_symmetry_equiv_pos_as_xyz
  x,y,z
_cell_length_a	16.120530
_cell_length_b	16.120444
_cell_length_c	21.395355
_cell_angle_alpha	87.118536
_cell_angle_beta	92.920957
_cell_angle_gamma	90.168401
loop_
_atom_site_label
_atom_site_type_symbol
_atom_site_fract_x
_atom_site_fract_y
_atom_site_fract_z
Zn1	Zn	1.254507	-0.395721	0.417087
Zn2	Zn	1.587840	-0.062387	0.750420
Zn3	Zn	1.921173	0.270946	1.083753
Zn4	Zn	1.247338	-0.534754	0.317334
Zn5	Zn	1.580671	-0.201421	0.650667
Zn6	Zn	1.914004	0.131913	0.984001
Zn7	Zn	1.115436	-0.388658	0.306761
Zn8	Zn	1.448769	-0.055325	0.640094
Zn9	Zn	1.782102	0.278009	0.973428
Zn10	Zn	1.108356	-0.527674	0.416515
Zn11	Zn	1.441690	-0.194341	0.749848
Zn12	Zn	1.775023	0.138992	1.083181
O13	O	1.181409	-0.461702	0.364424
O14	O	1.514742	-0.128368	0.697757
O15	O	1.848076	0.204965	1.031091
O16	O	1.369921	-0.420083	0.408518
O17	O	1.703255	-0.086749	0.741852
O18	O	2.036588	0.246584	1.075185
O19	O	1.229803	-0.515381	0.228252
O20	O	1.563136	-0.182048	0.561586
O21	O	1.896470	0.151285	0.894919
O22	O	1.139847	-0.273230	0.317211
O23	O	1.473180	0.060103	0.650544
O24	O	1.806513	0.393436	0.983877
O25	O	1.364655	-0.522230	0.335230
O26	O	1.697988	-0.188896	0.668564
O27	O	2.031321	0.144437	1.001897
O28	O	1.242021	-0.278419	0.398266
O29	O	1.575355	0.054914	0.731600
O30	O	1.908688	0.388247	1.064933
O31	O	1.132895	-0.408045	0.220485
O32	O	1.466229	-0.074712	0.553818
O33	O	1.799562	0.258622	0.887151
O34	O	0.998131	-0.401180	0.316656
O35	O	1.331464	-0.067847	0.649989
O36	O	1.664797	0.265487	0.983323
O37	O	1.127781	-0.510163	0.504270
O38	O	1.461114	-0.176830	0.837603
O39	O	1.794448	0.156503	1.170936
O40	O	0.992930	-0.503315	0.397291
O41	O	1.326263	-0.169981	0.730625
O42	O	1.659596	0.163352	1.063958
O43	O	1.235157	-0.413218	0.504690
O44	O	1.568490	-0.079884	0.838023
O45	O	1.901824	0.253449	1.171357
O46	O	1.222939	-0.650180	0.334676
O47	O	1.556272	-0.316846	0.668009
O48	O	1.889605	0.016487	1.001342
O49	O	1.120830	-0.644978	0.407543
O50	O	1.454163	-0.311645	0.740877
O51	O	1.787496	0.021689	1.074210
C52	C	0.965358	-0.450713	0.355765
C53	C	1.298691	-0.117380	0.689098
C54	C	1.632024	0.215953	1.022431
C55	C	0.872929	-0.446032	0.352076
C56	C	1.206262	-0.112699	0.685409
C57	C	1.539596	0.220634	1.018743
C58	C	0.703701	-0.437467	0.345346
C59	C	1.037035	-0.104134	0.678679
C60	C	1.370368	0.229200	1.012012
C61	C	0.659954	-0.485998	0.383550
C62	C	0.993287	-0.152665	0.716884
C63	C	1.326621	0.180669	1.050217
C64	C	0.565790	-0.481232	0.379806
C65	C	0.899123	-0.147899	0.713139
C66	C	1.232457	0.185435	1.046472
C67	C	0.797874	-0.442232	0.349089
C68	C	1.131207	-0.108898	0.682423
C69	C	1.464541	0.224435	1.015756
C70	C	1.170361	-0.677752	0.372209
C71	C	1.503694	-0.344419	0.705543
C72	C	1.837027	-0.011085	1.038876
C73	C	1.165710	-0.770183	0.375564
C74	C	1.499043	-0.436850	0.708897
C75	C	1.832377	-0.103516	1.042230
C76	C	1.205738	-0.983149	0.347165
C77	C	1.539071	-0.649815	0.680498
C78	C	1.872404	-0.316482	1.013832
C79	C	1.157235	-0.939411	0.381696
C80	C	1.490568	-0.606078	0.715029
C81	C	1.823901	-0.272745	1.048362
C82	C	1.161952	-0.845244	0.378283
C83	C	1.495285	-0.511911	0.711616
C84	C	1.828618	-0.178577	1.044950
C85	C	1.201022	-1.077325	0.350577
C86	C	1.534355	-0.743991	0.683910
C87	C	1.867688	-0.410658	1.017244
C88	C	1.398304	-0.472734	0.373118
C89	C	1.731637	-0.139400	0.706451
C90	C	2.064971	0.193933	1.039784
C91	C	1.490732	-0.477435	0.376822
C92	C	1.824065	-0.144102	0.710156
C93	C	2.157398	0.189232	1.043489
C94	C	1.181479	-0.461688	0.527850
C95	C	1.514812	-0.128355	0.861183
C96	C	1.848146	0.204978	1.194516
C97	C	1.181509	-0.461683	0.597492
C98	C	1.514842	-0.128349	0.930825
C99	C	1.848175	0.204984	1.264158
C100	C	1.192523	-0.244809	0.356623
C101	C	1.525857	0.088524	0.689956
C102	C	1.859190	0.421858	1.023290
C103	C	1.197260	-0.152382	0.353299
C104	C	1.530593	0.180951	0.686632
C105	C	1.863926	0.514284	1.019965
C106	C	1.181390	-0.461657	0.201634
C107	C	1.514724	-0.128324	0.534967
C108	C	1.848057	0.205009	0.868301
C109	C	1.181534	-0.461437	0.131990
C110	C	1.514867	-0.128104	0.465324
C111	C	1.848200	0.205230	0.798657
C112	C	1.237417	-0.411201	0.630425
C113	C	1.570751	-0.077868	0.963758
C114	C	1.904084	0.255466	1.297091
C115	C	1.237418	-0.411165	0.695859
C116	C	1.570751	-0.077832	1.029192
C117	C	1.904085	0.255502	1.362525
C118	C	1.181518	-0.461626	0.728358
C119	C	1.514851	-0.128293	1.061692
C120	C	1.848185	0.205040	1.395025
C121	C	1.125599	-0.512112	0.695417
C122	C	1.458932	-0.178778	1.028751
C123	C	1.792266	0.154555	1.362084
C124	C	1.125594	-0.512140	0.629984
C125	C	1.458928	-0.178806	0.963317
C126	C	1.792261	0.154527	1.296651
C127	C	1.171123	-0.536167	0.834468
C128	C	1.504456	-0.202834	1.167802
C129	C	1.837790	0.130500	1.501135
C130	C	1.171134	-0.536140	0.899901
C131	C	1.504467	-0.202807	1.233234
C132	C	1.837800	0.130526	1.566567
C133	C	1.181528	-0.461539	0.930176
C134	C	1.514861	-0.128206	1.263510
C135	C	1.848194	0.205128	1.596843
C136	C	1.191929	-0.386962	0.895012
C137	C	1.525262	-0.053629	1.228345
C138	C	1.858596	0.279704	1.561679
C139	C	1.191924	-0.386991	0.829579
C140	C	1.525258	-0.053657	1.162912
C141	C	1.858591	0.279676	1.496245
C142	C	1.181517	-0.461601	0.799310
C143	C	1.514850	-0.128268	1.132643
C144	C	1.848183	0.205066	1.465976
C145	C	1.237440	-0.411014	1.034060
C146	C	1.570773	-0.077680	1.367393
C147	C	1.904107	0.255653	1.700727
C148	C	1.237435	-0.410976	1.099495
C149	C	1.570768	-0.077643	1.432828
C150	C	1.904102	0.255690	1.766162
C151	C	1.125620	-0.511930	1.099053
C152	C	1.458953	-0.178597	1.432386
C153	C	1.792287	0.154736	1.765720
C154	C	1.125621	-0.511960	1.033619
C155	C	1.458954	-0.178627	1.366952
C156	C	1.792288	0.154706	1.700285
C157	C	1.181536	-0.461503	1.001127
C158	C	1.514869	-0.128170	1.334460
C159	C	1.848202	0.205163	1.667793
H160	H	0.670437	-0.392343	0.309827
H161	H	1.003770	-0.059010	0.643161
H162	H	1.337104	0.274323	0.976494
C163	C	1.096344	-0.984365	0.425092
C164	C	1.429678	-0.651032	0.758425
C165	C	1.763011	-0.317699	1.091758
N166	N	1.050481	-1.018228	0.457774
N167	N	1.383814	-0.684895	0.791107
N168	N	1.717147	-0.351562	1.124440
H169	H	1.080063	-0.553247	0.603170
H170	H	1.413397	-0.219914	0.936504
H171	H	1.746730	0.113420	1.269837
H172	H	1.250801	-0.949875	0.315041
H173	H	1.584135	-0.616542	0.648375
H174	H	1.917468	-0.283209	0.981708
H175	H	0.693220	-0.531125	0.419072
H176	H	1.026554	-0.197791	0.752405
H177	H	1.359887	0.135542	1.085739
C178	C	1.159691	-0.618175	0.938575
C179	C	1.493025	-0.284842	1.271909
C180	C	1.826358	0.048491	1.605242
N181	N	1.151071	-0.679966	0.967703
N182	N	1.484404	-0.346633	1.301037
N183	N	1.817738	-0.013300	1.634370
C184	C	1.064106	-0.567615	0.731168
C185	C	1.397439	-0.234282	1.064501
C186	C	1.730772	0.099051	1.397835
N187	N	1.017784	-0.609419	0.758095
N188	N	1.351117	-0.276086	1.091428
N189	N	1.684450	0.057247	1.424762
H190	H	1.282946	-0.370114	0.603973
H191	H	1.616280	-0.036780	0.937307
H192	H	1.949613	0.296553	1.270640
C193	C	1.064130	-0.567440	1.134799
C194	C	1.397463	-0.234106	1.468132
C195	C	1.730797	0.099227	1.801466
N196	N	1.017813	-0.609250	1.161726
N197	N	1.351147	-0.275917	1.495059
N198	N	1.684480	0.057417	1.828393
C199	C	1.298929	-0.355634	0.732092
C200	C	1.632262	-0.022301	1.065426
C201	C	1.965595	0.311033	1.398759
N202	N	1.345261	-0.313810	0.759382
N203	N	1.678594	0.019523	1.092715
N204	N	2.011928	0.352856	1.426049
H205	H	1.200391	-0.326268	0.800950
H206	H	1.533725	0.007066	1.134284
H207	H	1.867058	0.340399	1.467617
H208	H	1.200394	-0.326215	0.919660
H209	H	1.533728	0.007119	1.252994
H210	H	1.867061	0.340452	1.586327
H211	H	1.080099	-0.553073	1.006805
H212	H	1.413432	-0.219740	1.340138
H213	H	1.746766	0.113593	1.673472
H214	H	1.282964	-0.369924	1.007603
H215	H	1.616298	-0.036590	1.340936
H216	H	1.949631	0.296743	1.674270
H217	H	1.282961	-0.369863	1.126308
H218	H	1.616295	-0.036530	1.459641
H219	H	1.949628	0.296804	1.792974
C220	C	1.159704	-0.618242	0.801173
C221	C	1.493037	-0.284909	1.134506
C222	C	1.826371	0.048425	1.467840
N223	N	1.151109	-0.680060	0.776096
N224	N	1.484442	-0.346727	1.109429
N225	N	1.817776	-0.013393	1.442763
