data_functionalizedCrystal
_audit_creation_method	'MofGen! by Chris Wilmer'
_symmetry_space_group_name_H-M	'P1'
_symmetry_Int_Tables_number	1
_symmetry_cell_setting	triclinic
loop_
_symmetry_equiv_pos_as_xyz
  x,y,z
_cell_length_a	21.295418
_cell_length_b	21.295418
_cell_length_c	16.625539
_cell_angle_alpha	90.031685
_cell_angle_beta	90.039782
_cell_angle_gamma	90.043213
loop_
_atom_site_label
_atom_site_type_symbol
_atom_site_fract_x
_atom_site_fract_y
_atom_site_fract_z
Zn1	Zn	0.962345	-0.250342	0.456304
Zn2	Zn	1.295678	0.082991	0.789637
Zn3	Zn	1.629011	0.416324	1.122971
Zn4	Zn	0.962260	-0.355616	0.321463
Zn5	Zn	1.295594	-0.022282	0.654796
Zn6	Zn	1.628927	0.311051	0.988130
Zn7	Zn	0.857075	-0.250393	0.321439
Zn8	Zn	1.190409	0.082940	0.654773
Zn9	Zn	1.523742	0.416273	0.988106
Zn10	Zn	0.857043	-0.355607	0.456208
Zn11	Zn	1.190376	-0.022273	0.789541
Zn12	Zn	1.523710	0.311060	1.122874
O13	O	0.909681	-0.302990	0.388854
O14	O	1.243014	0.030344	0.722187
O15	O	1.576348	0.363677	1.055520
O16	O	1.050423	-0.264289	0.438467
O17	O	1.383756	0.069044	0.771801
O18	O	1.717090	0.402377	1.105134
O19	O	0.948285	-0.341683	0.208628
O20	O	1.281619	-0.008350	0.541961
O21	O	1.614952	0.324984	0.875294
O22	O	0.871088	-0.162297	0.339360
O23	O	1.204422	0.171036	0.672693
O24	O	1.537755	0.504369	1.006026
O25	O	1.050361	-0.341633	0.339400
O26	O	1.383694	-0.008300	0.672734
O27	O	1.717027	0.325033	1.006067
O28	O	0.948429	-0.162260	0.438444
O29	O	1.281763	0.171074	0.771777
O30	O	1.615096	0.504407	1.105111
O31	O	0.871006	-0.264377	0.208610
O32	O	1.204340	0.068957	0.541943
O33	O	1.537673	0.402290	0.875277
O34	O	0.768982	-0.264368	0.339266
O35	O	1.102315	0.068966	0.672600
O36	O	1.435648	0.402299	1.005933
O37	O	0.871034	-0.341618	0.569053
O38	O	1.204367	-0.008285	0.902386
O39	O	1.537700	0.325049	1.235720
O40	O	0.768958	-0.341667	0.438280
O41	O	1.102291	-0.008334	0.771614
O42	O	1.435625	0.324999	1.104947
O43	O	0.948398	-0.264281	0.569124
O44	O	1.281732	0.069053	0.902457
O45	O	1.615065	0.402386	1.235790
O46	O	0.948254	-0.443704	0.339307
O47	O	1.281587	-0.110371	0.672640
O48	O	1.614921	0.222963	1.005974
O49	O	0.870952	-0.443697	0.438303
O50	O	1.204285	-0.110364	0.771637
O51	O	1.537618	0.222969	1.104970
C52	C	0.746129	-0.303023	0.388761
C53	C	1.079463	0.030311	0.722094
C54	C	1.412796	0.363644	1.055427
C55	C	0.676161	-0.303052	0.388740
C56	C	1.009494	0.030281	0.722073
C57	C	1.342828	0.363615	1.055407
C58	C	0.643299	-0.343355	0.440220
C59	C	0.976632	-0.010022	0.773553
C60	C	1.309965	0.323311	1.106886
C61	C	0.577556	-0.343340	0.440256
C62	C	0.910889	-0.010006	0.773589
C63	C	1.244223	0.323327	1.106922
C64	C	0.544679	-0.303028	0.388798
C65	C	0.878012	0.030306	0.722131
C66	C	1.211345	0.363639	1.055465
C67	C	0.577549	-0.262716	0.337315
C68	C	0.910882	0.070617	0.670648
C69	C	1.244216	0.403950	1.003982
C70	C	0.643290	-0.262729	0.337286
C71	C	0.976624	0.070605	0.670619
C72	C	1.309957	0.403938	1.003953
N73	N	0.441406	-0.298112	0.318275
N74	N	0.774739	0.035222	0.651609
N75	N	1.108073	0.368555	0.984942
N76	N	0.378955	-0.298104	0.318305
N77	N	0.712288	0.035230	0.651639
N78	N	1.045621	0.368563	0.984972
C79	C	0.346604	-0.302987	0.388884
C80	C	0.679937	0.030346	0.722217
C81	C	1.013271	0.363679	1.055550
N82	N	0.379064	-0.307891	0.459433
N83	N	0.712397	0.025442	0.792766
N84	N	1.045731	0.358775	1.126099
N85	N	0.441521	-0.307903	0.459402
N86	N	0.774854	0.025431	0.792735
N87	N	1.108188	0.358764	1.126068
C88	C	0.473393	-0.303010	0.388824
C89	C	0.806727	0.030324	0.722158
C90	C	1.140060	0.363657	1.055491
C91	C	0.242456	-0.343276	0.440407
C92	C	0.575789	-0.009943	0.773740
C93	C	0.909123	0.323391	1.107073
C94	C	0.176712	-0.343256	0.440444
C95	C	0.510046	-0.009923	0.773778
C96	C	0.843379	0.323411	1.107111
C97	C	0.176706	-0.262636	0.337496
C98	C	0.510040	0.070697	0.670830
C99	C	0.843373	0.404031	1.004163
C100	C	0.242449	-0.262653	0.337466
C101	C	0.575782	0.070681	0.670799
C102	C	0.909116	0.404014	1.004133
C103	C	0.275320	-0.302976	0.388920
C104	C	0.608653	0.030357	0.722253
C105	C	0.941986	0.363691	1.055587
C106	C	0.909607	-0.466541	0.388815
C107	C	1.242941	-0.133208	0.722148
C108	C	1.576274	0.200126	1.055482
C109	C	0.909633	-0.536509	0.388826
C110	C	1.242967	-0.203176	0.722159
C111	C	1.576300	0.130157	1.055492
C112	C	0.950083	-1.035950	0.337436
C113	C	1.283417	-0.702616	0.670770
C114	C	1.616750	-0.369283	1.004103
C115	C	0.950059	-0.970207	0.337417
C116	C	1.283393	-0.636874	0.670751
C117	C	1.616726	-0.303540	1.004084
C118	C	0.909769	-0.937349	0.388910
C119	C	1.243103	-0.604015	0.722243
C120	C	1.576436	-0.270682	1.055577
C121	C	0.869489	-0.970238	0.440411
C122	C	1.202822	-0.636905	0.773745
C123	C	1.536156	-0.303571	1.107078
C124	C	0.869510	-1.035979	0.440423
C125	C	1.202843	-0.702646	0.773756
C126	C	1.536176	-0.369313	1.107090
N127	N	0.904877	-0.834096	0.459463
N128	N	1.238210	-0.500762	0.792796
N129	N	1.571543	-0.167429	1.126130
N130	N	0.904861	-0.771644	0.459449
N131	N	1.238194	-0.438311	0.792783
N132	N	1.571527	-0.104978	1.126116
C133	C	0.909704	-0.739274	0.388876
C134	C	1.243037	-0.405941	0.722209
C135	C	1.576371	-0.072607	1.055543
N136	N	0.914576	-0.771714	0.318316
N137	N	1.247909	-0.438381	0.651649
N138	N	1.581243	-0.105048	0.984982
N139	N	0.914595	-0.834171	0.318330
N140	N	1.247928	-0.500838	0.651663
N141	N	1.581262	-0.167505	0.984997
C142	C	0.909742	-0.866063	0.388903
C143	C	1.243076	-0.532730	0.722236
C144	C	1.576409	-0.199397	1.055569
C145	C	0.949953	-0.635107	0.337354
C146	C	1.283286	-0.301774	0.670687
C147	C	1.616619	0.031560	1.004020
C148	C	0.949924	-0.569363	0.337333
C149	C	1.283258	-0.236030	0.670666
C150	C	1.616591	0.097303	1.004000
C151	C	0.869357	-0.569395	0.440334
C152	C	1.202691	-0.236062	0.773668
C153	C	1.536024	0.097271	1.107001
C154	C	0.869382	-0.635138	0.440348
C155	C	1.202716	-0.301804	0.773681
C156	C	1.536049	0.031529	1.107014
C157	C	0.909683	-0.667990	0.388858
C158	C	1.243017	-0.334656	0.722192
C159	C	1.576350	-0.001323	1.055525
C160	C	1.073871	-0.302957	0.388947
C161	C	1.407204	0.030377	0.722281
C162	C	1.740538	0.363710	1.055614
C163	C	1.143839	-0.302943	0.388987
C164	C	1.477173	0.030391	0.722320
C165	C	1.810506	0.363724	1.055654
C166	C	0.909722	-0.302943	0.599163
C167	C	1.243055	0.030391	0.932496
C168	C	1.576388	0.363724	1.265829
C169	C	0.909739	-0.302923	0.688784
C170	C	1.243073	0.030411	1.022117
C171	C	1.576406	0.363744	1.355450
C172	C	0.909772	-0.138799	0.388910
C173	C	1.243105	0.194534	0.722243
C174	C	1.576439	0.527867	1.055577
C175	C	0.909811	-0.068831	0.388934
C176	C	1.243144	0.264502	0.722267
C177	C	1.576477	0.597836	1.055601
C178	C	0.909676	-0.302991	0.179363
C179	C	1.243010	0.030343	0.512696
C180	C	1.576343	0.363676	0.846029
C181	C	0.909781	-0.302833	0.089742
C182	C	1.243114	0.030500	0.423075
C183	C	1.576448	0.363833	0.756409
C184	C	0.909768	-0.302852	1.016960
C185	C	1.243102	0.030481	1.350293
C186	C	1.576435	0.363815	1.683626
C187	C	0.909758	-0.302874	0.925651
C188	C	1.243092	0.030460	1.258984
C189	C	1.576425	0.363793	1.592318
C190	C	0.909754	-0.302888	0.852875
C191	C	1.243087	0.030445	1.186208
C192	C	1.576421	0.363779	1.519541
C193	C	0.909744	-0.302908	0.761560
C194	C	1.243077	0.030425	1.094894
C195	C	1.576410	0.363758	1.428227
H196	H	0.269206	-0.229836	0.295542
H197	H	0.602539	0.103497	0.628875
H198	H	0.935872	0.436830	0.962208
O199	O	0.542099	-0.386835	0.495750
O200	O	0.875432	-0.053502	0.829084
O201	O	1.208765	0.279831	1.162417
H202	H	0.576001	-0.414886	0.531511
H203	H	0.909334	-0.081553	0.864844
H204	H	1.242667	0.251780	1.198177
O205	O	0.542098	-0.219235	0.281809
O206	O	0.875431	0.114099	0.615142
O207	O	1.208765	0.447432	0.948476
H208	H	0.554666	-0.229969	0.218500
H209	H	0.887999	0.103364	0.551833
H210	H	1.221332	0.436697	0.885166
H211	H	0.982717	-0.542591	0.295393
H212	H	1.316050	-0.209257	0.628726
H213	H	1.649384	0.124076	0.962060
O214	O	0.678741	-0.219269	0.281745
O215	O	1.012075	0.114064	0.615078
O216	O	1.345408	0.447398	0.948411
H217	H	0.644838	-0.191238	0.245961
H218	H	0.978171	0.142095	0.579294
H219	H	1.311504	0.475429	0.912628
H220	H	0.982898	-1.062694	0.295507
H221	H	1.316231	-0.729360	0.628840
H222	H	1.649564	-0.396027	0.962174
O223	O	0.993430	-0.670542	0.281834
O224	O	1.326763	-0.337209	0.615167
O225	O	1.660097	-0.003876	0.948501
H226	H	0.986691	-0.721781	0.290509
H227	H	1.320025	-0.388448	0.623843
H228	H	1.653358	-0.055115	0.957176
H229	H	0.836683	-0.943481	0.482336
H230	H	1.170017	-0.610148	0.815670
H231	H	1.503350	-0.276815	1.149003
O232	O	0.825900	-0.533966	0.495877
O233	O	1.159234	-0.200633	0.829211
O234	O	1.492567	0.132701	1.162544
H235	H	0.832654	-0.482727	0.487222
H236	H	1.165987	-0.149394	0.820555
H237	H	1.499320	0.183940	1.153888
H238	H	0.836715	-1.062751	0.482362
H239	H	1.170048	-0.729418	0.815695
H240	H	1.503382	-0.396084	1.149028
H241	H	0.149938	-0.229810	0.295602
H242	H	0.483272	0.103523	0.628936
H243	H	0.816605	0.436857	0.962269
O244	O	0.993517	-0.934735	0.281891
O245	O	1.326850	-0.601401	0.615224
O246	O	1.660183	-0.268068	0.948558
H247	H	0.986734	-0.883501	0.290538
H248	H	1.320067	-0.550168	0.623872
H249	H	1.653400	-0.216835	0.957205
O250	O	0.825949	-0.670610	0.495896
O251	O	1.159283	-0.337277	0.829229
O252	O	1.492616	-0.003944	1.162563
H253	H	0.836715	-0.657952	0.559195
H254	H	1.170048	-0.324619	0.892528
H255	H	1.503381	0.008714	1.225861
O256	O	0.678750	-0.386837	0.495727
O257	O	1.012083	-0.053504	0.829061
O258	O	1.345416	0.279830	1.162394
H259	H	0.666071	-0.436226	0.481794
H260	H	0.999404	-0.102893	0.815128
H261	H	1.332737	0.230441	1.148461
O262	O	0.277917	-0.386756	0.495910
O263	O	0.611251	-0.053423	0.829243
O264	O	0.944584	0.279911	1.162577
H265	H	0.244018	-0.414772	0.531725
H266	H	0.577351	-0.081438	0.865059
H267	H	0.910685	0.251895	1.198392
H268	H	0.149957	-0.376075	0.482370
H269	H	0.483290	-0.042741	0.815703
H270	H	0.816623	0.290592	1.149037
