data_functionalizedCrystal
_audit_creation_method	'MofGen! by Chris Wilmer'
_symmetry_space_group_name_H-M	'P1'
_symmetry_Int_Tables_number	1
_symmetry_cell_setting	triclinic
loop_
_symmetry_equiv_pos_as_xyz
  x,y,z
_cell_length_a	21.295416
_cell_length_b	21.295418
_cell_length_c	16.959447
_cell_angle_alpha	90.037262
_cell_angle_beta	90.032801
_cell_angle_gamma	90.046144
loop_
_atom_site_label
_atom_site_type_symbol
_atom_site_fract_x
_atom_site_fract_y
_atom_site_fract_z
Zn1	Zn	0.250330	-0.962316	-0.447324
Zn2	Zn	0.355607	-0.962231	-0.315140
Zn3	Zn	0.250385	-0.857051	-0.315115
Zn4	Zn	0.355595	-0.857009	-0.447232
O5	O	0.302979	-0.909652	-0.381203
O6	O	0.264278	-1.050394	-0.429839
O7	O	0.341678	-0.948261	-0.204526
O8	O	0.162288	-0.871068	-0.332681
O9	O	0.341625	-1.050332	-0.332724
O10	O	0.162248	-0.948406	-0.429814
O11	O	0.264371	-0.870986	-0.204507
O12	O	0.264359	-0.768956	-0.332591
O13	O	0.341603	-0.870997	-0.557855
O14	O	0.341656	-0.768925	-0.429657
O15	O	0.264266	-0.948365	-0.557923
O16	O	0.443695	-0.948220	-0.332634
O17	O	0.443686	-0.870914	-0.429681
C18	C	0.466531	-0.909570	-0.381168
C19	C	0.536499	-0.909592	-0.381179
C20	C	0.303013	-0.746100	-0.381112
C21	C	0.303042	-0.676132	-0.381092
C22	C	0.302927	-0.909686	-0.587371
C23	C	0.302905	-0.909700	-0.675228
C24	C	0.569350	-0.949882	-0.330700
C25	C	0.635092	-0.949911	-0.330722
C26	C	0.667982	-0.909641	-0.381214
C27	C	0.635123	-0.869349	-0.431702
C28	C	0.569382	-0.869325	-0.431685
N29	N	0.771262	-0.854573	-0.387215
N30	N	0.833714	-0.854598	-0.387226
C31	C	0.866056	-0.909712	-0.381270
N32	N	0.833588	-0.964801	-0.375286
N33	N	0.771131	-0.964776	-0.375270
C34	C	0.739267	-0.909663	-0.381238
C35	C	0.970192	-0.950036	-0.330811
C36	C	1.035936	-0.950067	-0.330838
C37	C	1.035966	-0.869499	-0.431815
C38	C	0.970223	-0.869474	-0.431792
C39	C	0.937341	-0.909742	-0.381286
C40	C	1.138789	-0.909752	-0.381269
C41	C	1.068821	-0.909797	-0.381332
C42	C	0.302947	-1.073842	-0.381295
C43	C	0.302933	-1.143810	-0.381334
C44	C	0.343344	-0.643266	-0.431558
C45	C	0.343328	-0.577523	-0.431594
C46	C	0.303018	-0.544650	-0.381148
C47	C	0.262708	-0.577524	-0.330678
C48	C	0.262720	-0.643265	-0.330650
N49	N	0.298104	-0.441380	-0.312014
N50	N	0.298096	-0.378929	-0.312043
C51	C	0.302977	-0.346575	-0.381232
N52	N	0.307880	-0.379032	-0.450392
N53	N	0.307891	-0.441489	-0.450362
C54	C	0.302999	-0.473364	-0.381174
C55	C	0.343265	-0.242423	-0.431742
C56	C	0.343245	-0.176680	-0.431778
C57	C	0.262627	-0.176681	-0.330856
C58	C	0.262644	-0.242424	-0.330826
C59	C	0.302966	-0.275291	-0.381268
C60	C	0.262589	-0.869522	-1.046700
C61	C	0.343088	-0.949989	-1.046707
C62	C	0.343103	-0.949978	-0.964161
C63	C	0.302861	-0.909738	-0.922881
C64	C	0.262603	-0.869509	-0.964147
C65	C	0.383364	-0.990202	-0.922889
C66	C	0.383381	-0.990192	-0.840338
C67	C	0.343135	-0.949955	-0.799056
C68	C	0.302875	-0.909724	-0.840327
C69	C	0.262633	-0.869484	-0.799047
C70	C	0.222370	-0.829256	-0.840316
C71	C	0.222357	-0.829271	-0.922865
C72	C	0.343147	-0.949940	-0.716508
C73	C	0.262648	-0.869471	-0.716493
C74	C	0.302986	-0.909655	-0.175837
C75	C	0.302831	-0.909762	-0.087980
H76	H	0.661844	-0.982722	-0.289616
H77	H	0.661906	-0.836561	-0.472815
O78	O	0.537565	-0.830125	-0.480746
C79	C	0.544532	-0.750246	-0.580938
C80	C	0.580644	-0.794599	-0.525406
H81	H	0.579346	-0.721521	-0.617073
H82	H	0.513834	-0.717294	-0.544626
H83	H	0.513675	-0.779127	-0.622269
H84	H	0.611536	-0.765769	-0.484064
H85	H	0.611302	-0.827553	-0.561768
H86	H	0.943418	-0.982827	-0.289689
H87	H	0.376176	-0.670022	-0.472633
H88	H	0.229874	-0.836705	-0.682889
H89	H	0.229829	-0.269184	-0.289727
H90	H	1.062682	-0.982879	-0.289734
H91	H	0.376147	-0.550758	-0.472693
H92	H	0.189607	-0.796490	-0.806695
H93	H	0.229885	-0.550754	-0.289607
H94	H	0.375857	-0.982746	-1.080322
H95	H	0.375925	-0.982697	-0.682910
O96	O	0.183310	-0.790216	-0.963076
C97	C	0.147587	-0.754604	-1.090246
C98	C	0.191849	-0.798854	-1.044803
H99	H	0.154467	-0.761582	-1.156330
H100	H	0.158653	-0.703821	-1.074042
H101	H	0.096836	-0.765681	-1.074000
H102	H	0.242615	-0.787834	-1.061025
H103	H	0.180729	-0.849624	-1.061011
H104	H	0.376062	-0.149921	-0.472879
H105	H	0.229806	-0.836771	-1.080305
O106	O	0.422402	-1.029260	-0.963109
C107	C	0.458093	-1.064898	-1.090289
C108	C	0.413835	-1.020646	-1.044834
H109	H	0.451192	-1.057939	-1.156371
H110	H	0.447043	-1.115679	-1.074157
H111	H	0.508847	-1.053805	-1.073981
H112	H	0.363066	-1.031682	-1.061117
H113	H	0.424939	-0.969878	-1.060970
O114	O	0.422506	-1.029331	-0.800375
C115	C	0.502372	-1.109124	-0.809101
C116	C	0.458088	-1.064839	-0.854458
H117	H	0.531162	-1.137834	-0.852807
H118	H	0.473499	-1.142093	-0.770512
H119	H	0.535273	-1.080191	-0.770396
H120	H	0.425179	-1.093722	-0.893205
H121	H	0.487001	-1.031868	-0.892998
H122	H	1.062744	-0.836713	-0.472930
O123	O	0.537506	-0.989062	-0.281624
C124	C	0.544418	-1.068951	-0.181443
C125	C	0.580560	-1.024620	-0.236991
H126	H	0.579211	-1.097702	-0.145331
H127	H	0.513598	-1.101881	-0.217741
H128	H	0.513679	-1.040053	-0.140092
H129	H	0.611333	-1.053468	-0.278353
H130	H	0.611340	-0.991689	-0.200643
H131	H	0.943475	-0.836664	-0.472893
H132	H	0.229899	-0.670025	-0.289554
O133	O	0.223567	-0.144736	-0.281750
C134	C	0.215003	-0.070433	-0.175084
C135	C	0.259309	-0.106581	-0.230646
H136	H	0.243882	-0.039566	-0.133763
H137	H	0.186223	-0.105202	-0.138948
H138	H	0.182093	-0.039738	-0.211453
H139	H	0.292256	-0.137278	-0.194338
H140	H	0.288044	-0.071779	-0.266784
H141	H	0.376094	-0.269185	-0.472818
