data_functionalizedCrystal
_audit_creation_method	'MofGen! by Chris Wilmer'
_symmetry_space_group_name_H-M	'P1'
_symmetry_Int_Tables_number	1
_symmetry_cell_setting	triclinic
loop_
_symmetry_equiv_pos_as_xyz
  x,y,z
_cell_length_a	12.759401
_cell_length_b	19.121063
_cell_length_c	12.759393
_cell_angle_alpha	92.402864
_cell_angle_beta	89.980163
_cell_angle_gamma	92.470439
loop_
_atom_site_label
_atom_site_type_symbol
_atom_site_fract_x
_atom_site_fract_y
_atom_site_fract_z
Zn1	Zn	1.588322	-0.279543	-0.611808
Zn2	Zn	1.580681	-0.397012	-0.443603
Zn3	Zn	1.412622	-0.279582	-0.436146
Zn4	Zn	1.405081	-0.396960	-0.619237
O5	O	1.496677	-0.338274	-0.527699
O6	O	1.734330	-0.295130	-0.589507
O7	O	1.558346	-0.381472	-0.295595
O8	O	1.442283	-0.181293	-0.453218
O9	O	1.728716	-0.381434	-0.465928
O10	O	1.571369	-0.181264	-0.582276
O11	O	1.434874	-0.295198	-0.290116
O12	O	1.264601	-0.295148	-0.460421
O13	O	1.429430	-0.381346	-0.765270
O14	O	1.259060	-0.381385	-0.594938
O15	O	1.564057	-0.295080	-0.759812
O16	O	1.551034	-0.495289	-0.473131
O17	O	1.422021	-0.495251	-0.602169
C18	C	1.223710	-0.338266	-0.527677
C19	C	1.106932	-0.338279	-0.527694
C20	C	1.049209	-0.383251	-0.597635
C21	C	0.939484	-0.383253	-0.597656
C22	C	0.945217	-0.293310	-0.457786
C23	C	1.054940	-0.293305	-0.457770
C24	C	1.484908	-0.520754	-0.539288
C25	C	1.479970	-0.598820	-0.544281
C26	C	1.544872	-0.635492	-0.479500
C27	C	1.540234	-0.708843	-0.484202
C28	C	1.470687	-0.745521	-0.553682
C29	C	1.405782	-0.708844	-0.618470
C30	C	1.410427	-0.635494	-0.613772
C31	C	1.453306	-0.966989	-0.571229
C32	C	1.448664	-1.040344	-0.575920
C33	C	1.583118	-1.040338	-0.441653
C34	C	1.587751	-0.966987	-0.436957
C35	C	1.522851	-0.930316	-0.501749
C36	C	1.465942	-0.820497	-0.558487
C37	C	1.527602	-0.855341	-0.496948
C38	C	1.770709	-0.338283	-0.527721
C39	C	1.887486	-0.338287	-0.527730
C40	C	1.496755	-0.338203	-0.801727
C41	C	1.496788	-0.338173	-0.918502
C42	C	1.508520	-0.155082	-0.516087
C43	C	1.513566	-0.077016	-0.511138
C44	C	1.432520	-0.293241	-0.970510
C45	C	1.432546	-0.293220	-1.080233
C46	C	1.561116	-0.383063	-1.085930
C47	C	1.561084	-0.383088	-0.976210
C48	C	1.496663	-0.338294	-0.254732
C49	C	1.496846	-0.338127	-0.137946
H50	H	1.101940	-0.256679	-0.400815
N51	N	1.377608	-1.077814	-0.646879
N52	N	1.281180	-1.069684	-0.639306
H53	H	1.230996	-1.096148	-0.689414
H54	H	1.091538	-0.419870	-0.654574
H55	H	1.613464	-0.419631	-1.132929
H56	H	1.357578	-0.605636	-0.666526
H57	H	1.601500	-0.605633	-0.422918
N58	N	0.880505	-0.429197	-0.669079
N59	N	0.782540	-0.429199	-0.669084
H60	H	0.740883	-0.461649	-0.719527
N61	N	1.366919	-0.247308	-1.133354
N62	N	1.406803	-0.202541	-1.191745
H63	H	1.360453	-0.170112	-1.229261
N64	N	0.892090	-0.247377	-0.386371
N65	N	0.794124	-0.247387	-0.386392
H66	H	0.756602	-0.214947	-0.335953
N67	N	1.606553	-0.746291	-0.418038
N68	N	1.668648	-0.713535	-0.356012
H69	H	1.715496	-0.739981	-0.309285
N70	N	1.658794	-0.929535	-0.365975
N71	N	1.716738	-0.962286	-0.308138
H72	H	1.766911	-0.935836	-0.258002
H73	H	1.635958	-1.070203	-0.388904
N74	N	1.387006	-0.929548	-0.637417
N75	N	1.324915	-0.962308	-0.699443
H76	H	1.278086	-0.935863	-0.746192
N77	N	1.334757	-0.746318	-0.689446
N78	N	1.330618	-0.811808	-0.693632
H79	H	1.280454	-0.838274	-0.743760
N80	N	1.598624	-0.817869	-0.425974
N81	N	1.564267	-0.776995	-0.356385
H82	H	1.614422	-0.750524	-0.306255
N83	N	1.394897	-0.857977	-0.629437
N84	N	1.325386	-0.898970	-0.595025
H85	H	1.275212	-0.925444	-0.645133
N86	N	1.366846	-0.247356	-0.911579
N87	N	1.309472	-0.207241	-0.958034
H88	H	1.263086	-0.174832	-0.916417
H89	H	1.613420	-0.419679	-0.933864
