data_functionalizedCrystal
_audit_creation_method	'MofGen! by Chris Wilmer'
_symmetry_space_group_name_H-M	'P1'
_symmetry_Int_Tables_number	1
_symmetry_cell_setting	triclinic
loop_
_symmetry_equiv_pos_as_xyz
  x,y,z
_cell_length_a	18.050589
_cell_length_b	17.077404
_cell_length_c	17.077396
_cell_angle_alpha	89.978543
_cell_angle_beta	90.024642
_cell_angle_gamma	89.972675
loop_
_atom_site_label
_atom_site_type_symbol
_atom_site_fract_x
_atom_site_fract_y
_atom_site_fract_z
Zn1	Zn	-0.295677	-1.200026	0.443905
Zn2	Zn	0.204323	-0.700026	0.943905
Zn3	Zn	-0.419874	-1.199920	0.312647
Zn4	Zn	0.080126	-0.699920	0.812647
Zn5	Zn	-0.295701	-1.068757	0.312648
Zn6	Zn	0.204299	-0.568757	0.812648
Zn7	Zn	-0.419828	-1.068713	0.443866
Zn8	Zn	0.080172	-0.568713	0.943866
O9	O	-0.357770	-1.134354	0.378267
O10	O	0.142230	-0.634354	0.878267
O11	O	-0.312162	-1.309859	0.426509
O12	O	0.187838	-0.809859	0.926509
O13	O	-0.403432	-1.182496	0.202800
O14	O	0.096568	-0.682496	0.702800
O15	O	-0.191773	-1.086233	0.330076
O16	O	0.308227	-0.586233	0.830076
O17	O	-0.403409	-1.309781	0.330075
O18	O	0.096591	-0.809781	0.830075
O19	O	-0.191756	-1.182675	0.426509
O20	O	0.308244	-0.682675	0.926509
O21	O	-0.312202	-1.086131	0.202801
O22	O	0.187798	-0.586131	0.702801
O23	O	-0.312157	-0.958905	0.330039
O24	O	0.187843	-0.458905	0.830039
O25	O	-0.403330	-1.086157	0.553719
O26	O	0.096670	-0.586157	1.053719
O27	O	-0.403353	-0.958872	0.426444
O28	O	0.096647	-0.458872	0.926444
O29	O	-0.312117	-1.182632	0.553747
O30	O	0.187883	-0.682632	1.053747
O31	O	-0.523793	-1.182453	0.330038
O32	O	-0.023793	-0.682453	0.830038
O33	O	-0.523759	-1.086056	0.426444
O34	O	-0.023759	-0.586056	0.926444
C35	C	-0.357753	-0.930406	0.378238
C36	C	0.142247	-0.430406	0.878238
C37	C	-0.357763	-0.843156	0.378244
C38	C	0.142237	-0.343156	0.878244
C39	C	-0.405320	-0.802170	0.428361
C40	C	0.094680	-0.302170	0.928361
C41	C	-0.405320	-0.720189	0.428371
C42	C	0.094680	-0.220189	0.928371
C43	C	-0.357767	-0.679197	0.378259
C44	C	0.142233	-0.179197	0.878259
C45	C	-0.310205	-0.720189	0.328141
C46	C	0.189795	-0.220189	0.828141
C47	C	-0.310202	-0.802168	0.328135
C48	C	0.189798	-0.302168	0.828135
C49	C	-0.310217	-0.549319	0.328154
C50	C	0.189783	-0.049319	0.828154
C51	C	-0.310221	-0.467335	0.328158
C52	C	0.189779	0.032665	0.828158
C53	C	-0.405335	-0.467340	0.428389
C54	C	0.094665	0.032660	0.928389
C55	C	-0.405331	-0.549319	0.428384
C56	C	0.094669	-0.049319	0.928384
C57	C	-0.357770	-0.590306	0.378264
C58	C	0.142230	-0.090306	0.878264
C59	C	-0.550722	-1.134259	0.378254
C60	C	-0.050722	-0.634259	0.878254
C61	C	-0.633268	-1.134291	0.378274
C62	C	-0.133268	-0.634291	0.878274
C63	C	-0.832727	-1.081921	0.430682
C64	C	-0.332727	-0.581921	0.930682
C65	C	-0.882168	-1.062786	0.359052
C66	C	-0.382168	-0.562786	0.859052
C67	C	-0.784398	-1.134368	0.378285
C68	C	-0.284398	-0.634368	0.878285
C69	C	-0.882039	-1.153541	0.449923
C70	C	-0.382039	-0.653541	0.949923
C71	C	-0.930383	-1.134441	0.378301
C72	C	-0.430383	-0.634441	0.878301
C73	C	-0.832752	-1.115195	0.306617
C74	C	-0.332752	-0.615195	0.806617
C75	C	-0.832618	-1.205984	0.397536
C76	C	-0.332618	-0.705984	0.897536
C77	C	-0.882037	-1.186876	0.325857
C78	C	-0.382037	-0.686876	0.825857
C79	C	-0.700300	-1.134324	0.378276
C80	C	-0.200300	-0.634324	0.878276
C81	C	-1.014480	-1.134485	0.378301
C82	C	-0.514480	-0.634485	0.878301
C83	C	-0.164064	-1.134471	0.378297
C84	C	0.335936	-0.634471	0.878297
C85	C	-0.081519	-1.134520	0.378310
C86	C	0.418481	-0.634520	0.878310
C87	C	-0.357715	-1.134402	0.583011
C88	C	0.142285	-0.634402	1.083011
C89	C	-0.357692	-1.134422	0.670261
C90	C	0.142308	-0.634422	1.170261
C91	C	-0.357783	-0.339098	0.378287
C92	C	0.142217	0.160902	0.878287
C93	C	-0.357777	-0.426348	0.378274
C94	C	0.142223	0.073652	0.878274
C95	C	-0.357771	-1.134352	0.174319
C96	C	0.142229	-0.634352	0.674319
C97	C	-0.357585	-1.134484	0.087069
C98	C	0.142415	-0.634484	0.587069
C99	C	-0.310194	-1.184658	0.711267
C100	C	0.189806	-0.684658	1.211267
C101	C	-0.310169	-1.184667	0.793247
C102	C	0.189831	-0.684667	1.293247
C103	C	-0.357647	-1.134444	0.834220
C104	C	0.142353	-0.634444	1.334220
C105	C	-0.405148	-1.084202	0.793209
C106	C	0.094852	-0.584202	1.293209
C107	C	-0.405168	-1.084190	0.711230
C108	C	0.094832	-0.584190	1.211230
C109	C	-0.405103	-1.084234	0.964079
C110	C	0.094897	-0.584234	1.464079
C111	C	-0.405084	-1.084248	1.046063
C112	C	0.094916	-0.584248	1.546063
C113	C	-0.310104	-1.184712	1.046096
C114	C	0.189896	-0.684712	1.546096
C115	C	-0.310124	-1.184699	0.964117
C116	C	0.189876	-0.684699	1.464117
C117	C	-0.357626	-1.134458	0.923111
C118	C	0.142374	-0.634458	1.423111
H119	H	-0.444057	-0.582693	0.469184
H120	H	0.055943	-0.082693	0.969184
H121	H	-0.271425	-1.225619	1.079488
H122	H	0.228575	-0.725619	1.579488
N123	N	-0.258945	-0.423105	0.274109
N124	N	0.241055	0.076895	0.774109
H125	H	-0.205890	-0.437381	0.286389
H126	H	0.294110	0.062619	0.786389
H127	H	-0.266247	-0.364971	0.281752
H128	H	0.233753	0.135029	0.781752
H129	H	-0.444046	-0.686822	0.469180
H130	H	0.055954	-0.186822	0.969180
H131	H	-0.443772	-1.043310	0.930694
H132	H	0.056228	-0.543310	1.430694
H133	H	-0.811192	-1.098937	0.246023
H134	H	-0.311192	-0.598937	0.746023
H135	H	-0.443802	-1.043307	0.826575
H136	H	0.056198	-0.543307	1.326575
H137	H	-0.443743	-1.043350	1.079421
H138	H	0.056257	-0.543350	1.579421
N139	N	-0.910540	-1.245671	0.267112
N140	N	-0.410540	-0.745671	0.767112
H141	H	-0.892514	-1.231116	0.213053
H142	H	-0.392514	-0.731116	0.713053
H143	H	-0.966487	-1.245680	0.267826
H144	H	-0.466487	-0.745680	0.767826
N145	N	-0.803767	-1.286144	0.419123
N146	N	-0.303767	-0.786144	0.919123
H147	H	-0.821661	-1.300554	0.473270
H148	H	-0.321661	-0.800554	0.973270
H149	H	-0.747822	-1.285586	0.418404
H150	H	-0.247822	-0.785586	0.918404
H151	H	-0.443839	-1.043274	0.677844
H152	H	0.056161	-0.543274	1.177844
H153	H	-0.271473	-0.835538	0.287330
H154	H	0.228527	-0.335538	0.787330
N155	N	-0.456615	-0.846380	0.482405
N156	N	0.043385	-0.346380	0.982405
H157	H	-0.486741	-0.807973	0.514155
H158	H	0.013259	-0.307973	1.014155
H159	H	-0.426429	-0.880425	0.518784
H160	H	0.073571	-0.380425	1.018784
H161	H	-0.811075	-1.037504	0.474929
H162	H	-0.311075	-0.537504	0.974929
H163	H	-0.271533	-1.225558	0.677913
H164	H	0.228467	-0.725558	1.177913
N165	N	-0.456635	-0.423140	0.482447
N166	N	0.043365	0.076860	0.982447
H167	H	-0.449421	-0.364986	0.474850
H168	H	0.050579	0.135014	0.974850
H169	H	-0.445148	-0.437502	0.538529
H170	H	0.054852	0.062498	1.038529
H171	H	-0.271481	-0.582688	0.287348
H172	H	0.228519	-0.082688	0.787348
H173	H	-0.903688	-1.169729	0.510500
H174	H	-0.403688	-0.669729	1.010500
H175	H	-0.903949	-1.002257	0.342784
H176	H	-0.403949	-0.502257	0.842784
H177	H	-0.271467	-1.225600	0.930759
H178	H	0.228533	-0.725600	1.430759
H179	H	-0.271492	-1.225577	0.826631
H180	H	0.228508	-0.725577	1.326631
H181	H	-0.271483	-0.686807	0.287343
H182	H	0.228517	-0.186807	0.787343
