data_functionalizedCrystal
_audit_creation_method	'MofGen! by Chris Wilmer'
_symmetry_space_group_name_H-M	'P1'
_symmetry_Int_Tables_number	1
_symmetry_cell_setting	triclinic
loop_
_symmetry_equiv_pos_as_xyz
  x,y,z
_cell_length_a	17.077404
_cell_length_b	19.076808
_cell_length_c	19.076919
_cell_angle_alpha	89.878360
_cell_angle_beta	92.279190
_cell_angle_gamma	92.321597
loop_
_atom_site_label
_atom_site_type_symbol
_atom_site_fract_x
_atom_site_fract_y
_atom_site_fract_z
Zn1	Zn	1.169468	-0.295776	-0.386088
Zn2	Zn	1.502801	0.037557	-0.052755
Zn3	Zn	1.836134	0.370891	0.280578
Zn4	Zn	1.169798	-0.408571	-0.263858
Zn5	Zn	1.503132	-0.075237	0.069475
Zn6	Zn	1.836465	0.258096	0.402809
Zn7	Zn	1.043681	-0.291072	-0.268593
Zn8	Zn	1.377014	0.042262	0.064740
Zn9	Zn	1.710348	0.375595	0.398074
Zn10	Zn	1.033112	-0.413249	-0.381321
Zn11	Zn	1.366445	-0.079915	-0.047988
Zn12	Zn	1.699778	0.253418	0.285346
O13	O	1.104015	-0.352167	-0.324965
O14	O	1.437348	-0.018833	0.008368
O15	O	1.770681	0.314500	0.341702
O16	O	1.279357	-0.310749	-0.369888
O17	O	1.612691	0.022584	-0.036555
O18	O	1.946024	0.355917	0.296779
O19	O	1.157630	-0.389058	-0.166155
O20	O	1.490964	-0.055724	0.167178
O21	O	1.824297	0.277609	0.500512
O22	O	1.064652	-0.193359	-0.288156
O23	O	1.397985	0.139974	0.045177
O24	O	1.731319	0.473308	0.378511
O25	O	1.279600	-0.393619	-0.280086
O26	O	1.612933	-0.060286	0.053248
O27	O	1.946267	0.273047	0.386581
O28	O	1.157067	-0.196815	-0.374479
O29	O	1.490400	0.136518	-0.041146
O30	O	1.823733	0.469851	0.292187
O31	O	1.064973	-0.302731	-0.169634
O32	O	1.398306	0.030602	0.163699
O33	O	1.731639	0.363935	0.497033
O34	O	0.932433	-0.307267	-0.283533
O35	O	1.265767	0.026066	0.049800
O36	O	1.599100	0.359399	0.383134
O37	O	1.046638	-0.401592	-0.480284
O38	O	1.379971	-0.068259	-0.146951
O39	O	1.713305	0.265075	0.186382
O40	O	0.924668	-0.397030	-0.366354
O41	O	1.258001	-0.063697	-0.033020
O42	O	1.591335	0.269636	0.300313
O43	O	1.146818	-0.315285	-0.483787
O44	O	1.480151	0.018048	-0.150454
O45	O	1.813485	0.351381	0.182880
O46	O	1.147382	-0.507528	-0.275463
O47	O	1.480715	-0.174194	0.057870
O48	O	1.814048	0.159139	0.391204
O49	O	1.046959	-0.510965	-0.361762
O50	O	1.380292	-0.177631	-0.028429
O51	O	1.713625	0.155702	0.304904
C52	C	0.900069	-0.352147	-0.324940
C53	C	1.233402	-0.018813	0.008393
C54	C	1.566735	0.314520	0.341726
C55	C	0.812818	-0.352156	-0.324946
C56	C	1.146152	-0.018822	0.008388
C57	C	1.479485	0.314511	0.341721
C58	C	0.436864	-0.309120	-0.371818
C59	C	0.770198	0.024213	-0.038485
C60	C	1.103531	0.357546	0.294848
C61	C	0.518845	-0.309115	-0.371811
C62	C	0.852179	0.024218	-0.038478
C63	C	1.185512	0.357552	0.294856
C64	C	0.559967	-0.352182	-0.324982
C65	C	0.893300	-0.018849	0.008351
C66	C	1.226633	0.314484	0.341684
C67	C	0.519102	-0.395263	-0.278163
C68	C	0.852436	-0.061929	0.055171
C69	C	1.185769	0.271404	0.388504
C70	C	0.437122	-0.395271	-0.278174
C71	C	0.770456	-0.061938	0.055159
C72	C	1.103789	0.271395	0.388492
C73	C	0.689974	-0.395241	-0.278141
C74	C	1.023308	-0.061907	0.055192
C75	C	1.356641	0.271426	0.388526
C76	C	0.771960	-0.395231	-0.278128
C77	C	1.105293	-0.061898	0.055205
C78	C	1.438626	0.271435	0.388538
C79	C	0.771697	-0.309084	-0.371778
C80	C	1.105031	0.024249	-0.038444
C81	C	1.438364	0.357582	0.294889
C82	C	0.689717	-0.309093	-0.371789
C83	C	1.023051	0.024240	-0.038456
C84	C	1.356384	0.357574	0.294877
C85	C	0.648859	-0.352173	-0.324969
C86	C	0.982192	-0.018839	0.008365
C87	C	1.315525	0.314494	0.341698
C88	C	1.096080	-0.534744	-0.317597
C89	C	1.429413	-0.201411	0.015736
C90	C	1.762746	0.131922	0.349070
C91	C	1.092756	-0.612853	-0.314468
C92	C	1.426089	-0.279519	0.018865
C93	C	1.759422	0.053814	0.352199
C94	C	1.139270	-0.651289	-0.357979
C95	C	1.472604	-0.317955	-0.024645
C96	C	1.805937	0.015378	0.308688
C97	C	1.136144	-0.724680	-0.355040
C98	C	1.469477	-0.391346	-0.021707
C99	C	1.802810	-0.058013	0.311627
C100	C	1.086506	-0.759634	-0.308587
C101	C	1.419840	-0.426300	0.024746
C102	C	1.753173	-0.092967	0.358080
C103	C	1.039987	-0.721192	-0.265075
C104	C	1.373320	-0.387859	0.068258
C105	C	1.706653	-0.054526	0.401592
C106	C	1.043110	-0.647803	-0.268017
C107	C	1.376443	-0.314469	0.065316
C108	C	1.709776	0.018864	0.398649
C109	C	1.072008	-0.978939	-0.294967
C110	C	1.405341	-0.645605	0.038367
C111	C	1.738675	-0.312272	0.371700
C112	C	1.068890	-1.052334	-0.292026
C113	C	1.402224	-0.719000	0.041308
C114	C	1.735557	-0.385667	0.374641
C115	C	1.165047	-1.055816	-0.381992
C116	C	1.498380	-0.722483	-0.048659
C117	C	1.831713	-0.389149	0.284674
C118	C	1.168169	-0.982425	-0.384928
C119	C	1.501502	-0.649091	-0.051594
C120	C	1.834835	-0.315758	0.281739
C121	C	1.121646	-0.943990	-0.341418
C122	C	1.454979	-0.610657	-0.008085
C123	C	1.788313	-0.277323	0.325248
N124	N	1.083311	-0.834651	-0.305581
N125	N	1.416645	-0.501318	0.027753
N126	N	1.749978	-0.167984	0.361086
N127	N	1.124837	-0.868974	-0.344429
N128	N	1.458171	-0.535641	-0.011095
N129	N	1.791504	-0.202307	0.322238
C130	C	1.308757	-0.352187	-0.324990
C131	C	1.642090	-0.018854	0.008343
C132	C	1.975423	0.314479	0.341676
C133	C	1.396006	-0.352196	-0.325001
C134	C	1.729339	-0.018863	0.008332
C135	C	2.062672	0.314471	0.341665
C136	C	1.095512	-0.359485	-0.508245
C137	C	1.428845	-0.026152	-0.174911
C138	C	1.762179	0.307181	0.158422
C139	C	1.091889	-0.362604	-0.586348
C140	C	1.425222	-0.029271	-0.253014
C141	C	1.758555	0.304063	0.080319
C142	C	1.112001	-0.168877	-0.332378
C143	C	1.445335	0.164457	0.000956
C144	C	1.778668	0.497790	0.334289
C145	C	1.115405	-0.090770	-0.335536
C146	C	1.448738	0.242564	-0.002203
C147	C	1.782071	0.575897	0.331130
C148	C	1.142342	-0.319136	-0.624865
C149	C	1.475676	0.014197	-0.291532
C150	C	1.809009	0.347531	0.041802
C151	C	1.138928	-0.322064	-0.698251
C152	C	1.472262	0.011269	-0.364918
C153	C	1.805595	0.344603	-0.031585
C154	C	1.085064	-0.368464	-0.733118
C155	C	1.418398	-0.035130	-0.399785
C156	C	1.751731	0.298203	-0.066451
C157	C	1.034605	-0.411933	-0.694595
C158	C	1.367939	-0.078600	-0.361262
C159	C	1.701272	0.254733	-0.027929
C160	C	1.038016	-0.409002	-0.621211
C161	C	1.371349	-0.075668	-0.287877
C162	C	1.704683	0.257665	0.045456
C163	C	1.069267	-0.382047	-0.952399
C164	C	1.402601	-0.048714	-0.619065
C165	C	1.735934	0.284620	-0.285732
C166	C	1.065862	-0.384977	-1.025789
C167	C	1.399195	-0.051644	-0.692455
C168	C	1.732529	0.281690	-0.359122
C169	C	1.170184	-0.295106	-1.029439
C170	C	1.503518	0.038227	-0.696106
C171	C	1.836851	0.371561	-0.362773
C172	C	1.173593	-0.292181	-0.956053
C173	C	1.506927	0.041152	-0.622720
C174	C	1.840260	0.374485	-0.289386
C175	C	1.123132	-0.335649	-0.917537
C176	C	1.456465	-0.002315	-0.584204
C177	C	1.789799	0.331018	-0.250870
N178	N	1.081575	-0.371459	-0.808130
N179	N	1.414908	-0.038126	-0.474797
N180	N	1.748242	0.295208	-0.141464
N181	N	1.126618	-0.332649	-0.842526
N182	N	1.459951	0.000684	-0.509193
N183	N	1.793284	0.334017	-0.175859
C184	C	1.112531	-0.344826	-0.142401
C185	C	1.445865	-0.011492	0.190933
C186	C	1.779198	0.321841	0.524266
C187	C	1.116315	-0.341509	-0.064306
C188	C	1.449649	-0.008176	0.269027
C189	C	1.782982	0.325158	0.602361
H190	H	0.656709	-0.430324	-0.240018
H191	H	0.990043	-0.096991	0.093316
H192	H	1.323376	0.236343	0.426649
Cl193	Cl	1.241312	-0.233848	-0.912226
Cl194	Cl	1.574645	0.099485	-0.578892
Cl195	Cl	1.907978	0.432818	-0.245559
Cl196	Cl	1.210065	-0.260805	-0.581040
Cl197	Cl	1.543398	0.072528	-0.247706
Cl198	Cl	1.876731	0.405861	0.085627
H199	H	1.028189	-0.417451	-0.921047
H200	H	1.361522	-0.084118	-0.587714
H201	H	1.694855	0.249215	-0.254380
H202	H	0.552589	-0.430332	-0.240037
H203	H	0.885923	-0.096998	0.093297
H204	H	1.219256	0.236335	0.426630
H205	H	0.552109	-0.274041	-0.409937
H206	H	0.885442	0.059292	-0.076603
H207	H	1.218775	0.392626	0.256730
H208	H	1.174027	-0.755971	-0.390466
H209	H	1.507361	-0.422638	-0.057132
H210	H	1.840694	-0.089304	0.276201
Cl211	Cl	0.823062	-0.254923	-0.430634
Cl212	Cl	1.156395	0.078411	-0.097301
Cl213	Cl	1.489729	0.411744	0.236033
Cl214	Cl	0.385756	-0.449432	-0.219321
Cl215	Cl	0.719090	-0.116099	0.114012
Cl216	Cl	1.052423	0.217235	0.447345
H217	H	1.034129	-0.947651	-0.259538
H218	H	1.367462	-0.614317	0.073795
H219	H	1.700795	-0.280984	0.407129
Cl220	Cl	1.223525	-1.104138	-0.436690
Cl221	Cl	1.556858	-0.770804	-0.103356
Cl222	Cl	1.890192	-0.437471	0.229977
Cl223	Cl	0.977577	-0.765135	-0.206683
Cl224	Cl	1.310910	-0.431801	0.126650
Cl225	Cl	1.644244	-0.098468	0.459983
Cl226	Cl	1.230571	-0.938488	-0.443329
Cl227	Cl	1.563905	-0.605155	-0.109996
Cl228	Cl	1.897238	-0.271821	0.223337
Cl229	Cl	1.202392	-0.267447	-0.746669
Cl230	Cl	1.535726	0.065887	-0.413336
Cl231	Cl	1.869059	0.399220	-0.080002
H232	H	1.028466	-1.080791	-0.254198
H233	H	1.361799	-0.747457	0.079136
H234	H	1.695132	-0.414124	0.412469
Cl235	Cl	1.233615	-0.240463	-1.077864
Cl236	Cl	1.566948	0.092871	-0.744530
Cl237	Cl	1.900281	0.426204	-0.411197
H238	H	0.805438	-0.430302	-0.239998
H239	H	1.138772	-0.096969	0.093335
H240	H	1.472105	0.236364	0.426668
H241	H	1.179694	-0.622834	-0.395803
H242	H	1.513027	-0.289501	-0.062469
H243	H	1.846360	0.043833	0.270864
H244	H	1.021997	-0.422763	-1.054175
H245	H	1.355330	-0.089430	-0.720842
H246	H	1.688663	0.243904	-0.387508
H247	H	1.005231	-0.616509	-0.232587
H248	H	1.338565	-0.283175	0.100746
H249	H	1.671898	0.050158	0.434079
Cl250	Cl	0.966887	-0.470263	-0.738428
Cl251	Cl	1.300221	-0.136929	-0.405095
Cl252	Cl	1.633554	0.196404	-0.071762
H253	H	0.403390	-0.274046	-0.409948
H254	H	0.736723	0.059288	-0.076615
H255	H	1.070056	0.392621	0.256719
Cl256	Cl	0.638023	-0.254948	-0.430658
Cl257	Cl	0.971356	0.078386	-0.097324
Cl258	Cl	1.304690	0.411719	0.236009
Cl259	Cl	0.974584	-0.463647	-0.572788
Cl260	Cl	1.307917	-0.130314	-0.239455
Cl261	Cl	1.641250	0.203019	0.093878
