data_functionalizedCrystal
_audit_creation_method	'MofGen! by Chris Wilmer'
_symmetry_space_group_name_H-M	'P1'
_symmetry_Int_Tables_number	1
_symmetry_cell_setting	triclinic
loop_
_symmetry_equiv_pos_as_xyz
  x,y,z
_cell_length_a	16.109301
_cell_length_b	16.109301
_cell_length_c	15.186229
_cell_angle_alpha	89.994833
_cell_angle_beta	89.999362
_cell_angle_gamma	83.461481
loop_
_atom_site_label
_atom_site_type_symbol
_atom_site_fract_x
_atom_site_fract_y
_atom_site_fract_z
O1	O	1.103131	0.106866	-0.073176
O2	O	0.861069	0.120165	-0.073190
O3	O	0.988749	-0.007515	-0.073174
O4	O	0.975450	0.234547	-0.073192
O5	O	0.988741	-0.007517	0.073284
O6	O	0.861060	0.120164	0.073267
O7	O	1.103122	0.106864	0.073282
Zn8	Zn	0.982090	0.113514	0.096528
Zn9	Zn	0.982101	0.113516	-0.096436
O10	O	0.975441	0.234545	0.073265
C11	C	0.830090	0.119626	0.000037
C12	C	0.737794	0.118011	0.000032
C13	C	0.515522	0.190018	0.000036
C14	C	0.428801	0.188494	0.000042
C15	C	0.448676	0.037006	0.000050
C16	C	0.535394	0.038530	0.000051
C17	C	0.568815	0.115039	0.000039
C18	C	0.395376	0.111990	0.000045
C19	C	0.301350	0.110337	0.000051
C20	C	0.662847	0.116693	0.000035
C21	C	0.988206	-0.038491	0.000056
C22	C	0.986591	-0.130786	0.000057
C23	C	1.058599	-0.353059	0.000047
C24	C	1.057075	-0.439779	0.000040
C25	C	0.905586	-0.419905	0.000034
C26	C	0.907111	-0.333186	0.000035
C27	C	0.983620	-0.299766	0.000046
C28	C	0.980571	-0.473205	0.000038
C29	C	0.978918	-0.567231	0.000030
C30	C	0.985273	-0.205734	0.000052
C31	C	1.134101	0.107404	0.000053
C32	C	1.226397	0.109019	0.000052
C33	C	0.975984	0.265521	0.000034
C34	C	0.977600	0.357816	0.000027
N35	N	0.982088	0.113511	0.228220
N36	N	0.982109	0.113512	-0.228129
C37	C	1.038644	0.056994	0.453950
C38	C	1.038647	0.056992	0.546140
C39	C	0.925547	0.170032	0.546135
C40	C	0.925541	0.170030	0.453947
C41	C	0.982094	0.113511	0.407857
C42	C	0.982103	0.113512	0.592235
C43	C	0.982105	0.113510	0.692191
C44	C	0.982091	0.113512	0.307894
H45	H	0.421454	-0.025285	0.000065
H46	H	1.084692	0.010972	0.416426
H47	H	1.120897	-0.325851	0.000054
H48	H	1.084694	0.010969	0.583667
C49	C	0.864103	0.231489	0.404054
C50	C	0.814597	0.281006	0.464147
C51	C	0.758000	0.337634	0.418218
H52	H	0.829425	0.201665	0.368096
H53	H	0.893977	0.266151	0.368102
H54	H	0.784725	0.246349	0.500083
H55	H	0.849253	0.310848	0.500107
H56	H	0.787874	0.372295	0.382266
H57	H	0.723327	0.307802	0.382262
H58	H	0.724409	0.371242	0.458984
C59	C	0.825636	-0.275416	-0.000103
C60	C	0.779561	-0.290523	-0.075442
C61	C	0.704501	-0.237330	-0.075597
H62	H	0.837384	-0.218956	-0.000149
H63	H	0.794216	-0.285559	0.050943
H64	H	0.810974	-0.280374	-0.126474
H65	H	0.767790	-0.346974	-0.075411
H66	H	0.673081	-0.247473	-0.024551
H67	H	0.716258	-0.180873	-0.075641
H68	H	0.673227	-0.247578	-0.126709
C69	C	1.138572	-0.497502	0.000089
C70	C	1.205896	-0.449669	0.000120
C71	C	1.280987	-0.502814	0.000175
H72	H	1.141249	-0.531757	-0.050972
H73	H	1.141169	-0.531739	0.051180
H74	H	1.203301	-0.415447	-0.050967
H75	H	1.203247	-0.415416	0.051176
H76	H	1.283584	-0.537051	0.051267
H77	H	1.283656	-0.537066	-0.050886
H78	H	1.326676	-0.470367	0.000204
H79	H	0.879503	0.216049	0.583670
H80	H	0.542730	0.252317	0.000034
H81	H	0.578788	-0.022530	0.000056
C82	C	0.822607	-0.456354	0.000077
C83	C	0.837318	-0.543705	0.000103
C84	C	0.760896	-0.577308	0.000157
H85	H	0.791671	-0.438148	-0.050982
H86	H	0.791729	-0.438108	0.051170
H87	H	0.868183	-0.561943	-0.050986
H88	H	0.868241	-0.561934	0.051158
H89	H	0.730017	-0.559062	0.051251
H90	H	0.729966	-0.559096	-0.050903
H91	H	0.770866	-0.636578	0.000183
C92	C	0.370899	0.269875	0.000214
C93	C	0.320548	0.273437	0.075575
C94	C	0.267206	0.348400	0.075769
H95	H	0.336578	0.272508	-0.050799
H96	H	0.403196	0.315680	0.000254
H97	H	0.288254	0.227644	0.075526
H98	H	0.354847	0.270819	0.126600
H99	H	0.299503	0.394206	0.075809
H100	H	0.232890	0.351027	0.024753
H101	H	0.233042	0.350831	0.126904
