data_functionalizedCrystal
_audit_creation_method	'MofGen! by Chris Wilmer'
_symmetry_space_group_name_H-M	'P1'
_symmetry_Int_Tables_number	1
_symmetry_cell_setting	triclinic
loop_
_symmetry_equiv_pos_as_xyz
  x,y,z
_cell_length_a	18.215407
_cell_length_b	10.685194
_cell_length_c	18.215399
_cell_angle_alpha	94.396576
_cell_angle_beta	90.019833
_cell_angle_gamma	94.377432
loop_
_atom_site_label
_atom_site_type_symbol
_atom_site_fract_x
_atom_site_fract_y
_atom_site_fract_z
Zn1	Zn	1.102699	-0.502407	0.393658
Zn2	Zn	1.093210	-0.713450	0.261159
Zn3	Zn	0.979630	-0.502448	0.270604
Zn4	Zn	0.970203	-0.713379	0.384187
O5	O	1.036436	-0.607921	0.327402
O6	O	1.204424	-0.530414	0.376093
O7	O	1.078117	-0.685507	0.159425
O8	O	1.003872	-0.325846	0.294844
O9	O	1.197452	-0.685467	0.278746
O10	O	1.094291	-0.325815	0.385252
O11	O	0.994671	-0.530485	0.166365
O12	O	0.875396	-0.530417	0.285660
O13	O	0.987805	-0.685347	0.488430
O14	O	0.868470	-0.685387	0.369109
O15	O	1.085150	-0.530346	0.495388
O16	O	1.068976	-0.890038	0.269562
O17	O	0.978604	-0.889986	0.359950
C18	C	0.845230	-0.607900	0.327382
C19	C	0.763430	-0.607921	0.327389
C20	C	1.021757	-0.935802	0.312719
C21	C	1.015545	-1.076070	0.306462
C22	C	0.571644	-0.688740	0.370776
C23	C	0.494785	-0.688744	0.370785
C24	C	0.501978	-0.527125	0.284043
C25	C	0.578836	-0.527115	0.284038
C26	C	0.613667	-0.607930	0.327404
C27	C	0.459950	-0.607944	0.327417
C28	C	0.376616	-0.607947	0.327427
C29	C	0.697006	-0.607925	0.327395
C30	C	1.228387	-0.607944	0.327423
C31	C	1.310186	-0.607953	0.327431
C32	C	1.036484	-0.607834	0.519359
C33	C	1.036505	-0.607797	0.601159
C34	C	1.051191	-0.278760	0.342158
C35	C	1.057480	-0.138492	0.348447
C36	C	1.036433	-0.607917	0.136196
C37	C	1.036571	-0.607598	0.054412
C38	C	1.087213	-0.527013	0.792982
C39	C	1.087223	-0.526976	0.869842
C40	C	0.985858	-0.688386	0.862584
C41	C	0.985845	-0.688416	0.785725
C42	C	1.036526	-0.607731	0.750926
C43	C	1.036550	-0.607665	0.904645
C44	C	1.036561	-0.607625	0.987981
C45	C	1.036515	-0.607768	0.667585
H46	H	0.460573	-0.754546	0.406105
O47	O	1.136387	-0.448604	0.910806
C48	C	1.125543	-0.465890	0.986106
H49	H	1.066900	-0.507217	0.994738
H50	H	1.134772	-0.371347	1.019553
H51	H	1.166189	-0.533081	1.004917
O52	O	0.468185	-0.448451	0.242001
C53	C	0.492614	-0.322708	0.263819
H54	H	0.514042	-0.316459	0.322897
H55	H	0.444858	-0.260352	0.260330
H56	H	0.538692	-0.289633	0.225875
H57	H	0.974880	-1.129945	0.265732
O58	O	1.105890	-1.074098	0.397084
C59	C	1.067299	-0.997886	0.447950
H60	H	1.012397	-0.978375	0.422803
H61	H	1.101332	-0.905093	0.461932
H62	H	1.056963	-1.048560	0.500245
H63	H	0.600000	-0.754542	0.406089
H64	H	0.613053	-0.461302	0.248719
H65	H	0.944597	-0.754079	0.890927
O66	O	0.936578	-0.766951	0.744976
C67	C	0.891840	-0.838146	0.792170
H68	H	0.921795	-0.842501	0.846769
H69	H	0.879532	-0.937582	0.765499
H70	H	0.838020	-0.791927	0.802406
H71	H	1.128479	-0.461311	0.764651
