data_functionalizedCrystal
_audit_creation_method	'MofGen! by Chris Wilmer'
_symmetry_space_group_name_H-M	'P1'
_symmetry_Int_Tables_number	1
_symmetry_cell_setting	triclinic
loop_
_symmetry_equiv_pos_as_xyz
  x,y,z
_cell_length_a	10.654559
_cell_length_b	10.967829
_cell_length_c	9.130313
_cell_angle_alpha	77.870844
_cell_angle_beta	89.999532
_cell_angle_gamma	84.601802
loop_
_atom_site_label
_atom_site_type_symbol
_atom_site_fract_x
_atom_site_fract_y
_atom_site_fract_z
O1	O	1.667801	0.175325	-0.166055
O2	O	1.302321	0.192012	-0.170268
O3	O	1.493491	0.002093	-0.122327
O4	O	1.476631	0.365243	-0.213997
O5	O	1.493489	0.002098	0.121271
O6	O	1.302319	0.192017	0.073330
O7	O	1.667799	0.175330	0.077542
Cu8	Cu	1.485059	0.183674	0.097678
Cu9	Cu	1.485061	0.183668	-0.190404
O10	O	1.476628	0.365249	0.029601
C11	C	1.255523	0.190787	-0.048159
C12	C	1.116080	0.187114	-0.047233
C13	C	1.064558	0.071840	-0.018130
C14	C	0.933536	0.068397	-0.017272
C15	C	0.905570	0.295510	-0.074615
C16	C	1.036589	0.298953	-0.075483
C17	C	1.080703	-0.059282	0.014982
C18	C	0.949682	-0.062726	0.015841
C19	C	1.492263	-0.044404	0.011207
C20	C	1.488592	-0.182960	0.046173
C21	C	1.486957	-0.244729	-0.064430
C22	C	1.483163	-0.387933	-0.028293
C23	C	1.714597	0.176555	-0.044570
C24	C	1.854039	0.180228	-0.045506
C25	C	1.477857	0.411746	-0.103936
C26	C	1.481528	0.550301	-0.138912
N27	N	1.485066	0.183677	0.300300
N28	N	1.485064	0.183654	-0.393023
C29	C	1.569738	0.099610	0.398173
C30	C	1.569734	0.099595	0.551514
C31	C	1.400383	0.267726	0.509092
C32	C	1.400381	0.267734	0.355756
C33	C	1.667515	0.002545	0.422666
C34	C	1.667512	0.002530	0.576006
H35	H	0.920319	-0.113996	0.130730
Cl36	Cl	1.151188	-0.120434	0.192810
H37	H	1.488360	-0.191592	-0.185874
H38	H	1.122460	-0.108698	-0.074483
Cl39	Cl	1.486407	-0.264985	0.233680
Cl40	Cl	0.894672	-0.127201	-0.130272
Cl41	Cl	1.483654	-0.367674	-0.326430
H42	H	1.331424	0.336177	0.276070
Cl43	Cl	1.480978	-0.469954	0.159222
H44	H	1.078533	0.392819	-0.099206
H45	H	1.331434	0.336161	0.554261
H46	H	1.646087	-0.093374	0.405258
H47	H	1.758694	0.032941	0.367434
H48	H	1.764020	0.023914	0.612225
Cl49	Cl	0.805630	0.436099	-0.110130
Cl50	Cl	1.620414	-0.137405	0.684752
