data_functionalizedCrystal
_audit_creation_method	'MofGen! by Chris Wilmer'
_symmetry_space_group_name_H-M	'P1'
_symmetry_Int_Tables_number	1
_symmetry_cell_setting	triclinic
loop_
_symmetry_equiv_pos_as_xyz
  x,y,z
_cell_length_a	10.723023
_cell_length_b	15.625429
_cell_length_c	9.198806
_cell_angle_alpha	71.919667
_cell_angle_beta	89.996191
_cell_angle_gamma	84.344138
loop_
_atom_site_label
_atom_site_type_symbol
_atom_site_fract_x
_atom_site_fract_y
_atom_site_fract_z
O1	O	1.655907	0.126439	-0.187533
O2	O	1.292632	0.138543	-0.193916
O3	O	1.483975	0.001315	-0.121574
O4	O	1.464564	0.263667	-0.259874
O5	O	1.483960	0.001315	0.120211
O6	O	1.292617	0.138543	0.047869
O7	O	1.655892	0.126439	0.054253
Cu8	Cu	1.474253	0.132491	0.073138
Cu9	Cu	1.474271	0.132491	-0.212801
O10	O	1.464549	0.263667	-0.018089
C11	C	1.246134	0.137662	-0.072560
C12	C	1.107606	0.135027	-0.071172
C13	C	1.045854	0.133853	-0.195805
C14	C	0.902679	0.131130	-0.194374
C15	C	1.483089	-0.032277	0.017024
C16	C	1.480456	-0.132373	0.069781
C17	C	1.471800	-0.461575	-0.415641
C18	C	1.469320	-0.555630	-0.366023
C19	C	1.469304	-0.555616	-0.102446
C20	C	1.471790	-0.461561	-0.152041
C21	C	1.473037	-0.414547	-0.308641
C22	C	1.473027	-0.414533	-0.045041
C23	C	1.475506	-0.320484	-0.094634
C24	C	1.476749	-0.273464	-0.251227
C25	C	1.475516	-0.320499	-0.358233
C26	C	1.471771	-0.461547	0.111557
C27	C	1.473008	-0.414519	0.218557
C28	C	1.475496	-0.320470	0.168966
C29	C	1.476739	-0.273449	0.012373
C30	C	1.476729	-0.273435	0.275973
C31	C	1.479209	-0.179386	0.226380
C32	C	1.479219	-0.179401	-0.037220
C33	C	1.702390	0.127320	-0.067107
C34	C	1.840918	0.129955	-0.068504
C35	C	1.465435	0.297260	-0.156691
C36	C	1.468069	0.397355	-0.209457
N37	N	1.474250	0.132490	0.274252
N38	N	1.474284	0.132485	-0.413912
C39	C	1.554592	0.074618	0.376958
C40	C	1.554611	0.074615	0.544371
H41	H	0.894016	0.130961	0.038205
O42	O	1.467985	-0.606336	0.066451
H43	H	1.381883	-0.641683	0.091408
H44	H	1.098982	0.134868	-0.303570
H45	H	0.849574	0.130117	-0.301073
H46	H	1.405475	0.182031	0.310264
H47	H	1.468302	-0.593915	-0.453169
O48	O	1.037012	0.133964	0.071311
H49	H	0.988526	0.071592	0.110596
O50	O	1.645657	0.008959	0.329295
H51	H	1.631338	0.019256	0.205286
H52	H	1.405501	0.182038	0.497889
H53	H	1.480245	-0.141121	-0.164738
H54	H	1.623400	0.025071	0.632575
H55	H	1.478755	-0.196883	-0.291603
H56	H	1.476543	-0.282219	-0.485752
O57	O	1.473141	-0.410857	-0.584547
H58	H	1.557648	-0.436421	-0.634276
O59	O	1.469110	-0.562987	0.165048
H60	H	1.383489	-0.580282	0.117254
O61	O	1.475398	-0.324155	0.444868
H62	H	1.389290	-0.359497	0.469810
O63	O	1.480555	-0.128654	0.341778
H64	H	1.479288	-0.177146	0.459002
H65	H	1.471988	-0.452810	0.346061
