data_functionalizedCrystal
_audit_creation_method	'MofGen! by Chris Wilmer'
_symmetry_space_group_name_H-M	'P1'
_symmetry_Int_Tables_number	1
_symmetry_cell_setting	triclinic
loop_
_symmetry_equiv_pos_as_xyz
  x,y,z
_cell_length_a	11.169417
_cell_length_b	11.169416
_cell_length_c	11.169409
_cell_angle_alpha	90.031365
_cell_angle_beta	90.019824
_cell_angle_gamma	90.011027
loop_
_atom_site_label
_atom_site_type_symbol
_atom_site_fract_x
_atom_site_fract_y
_atom_site_fract_z
Zn1	Zn	1.834964	-0.477682	0.678551
Zn2	Zn	1.834854	-0.678422	0.477871
Zn3	Zn	1.634250	-0.477755	0.477885
Zn4	Zn	1.634258	-0.678325	0.678516
O5	O	1.734581	-0.578046	0.578206
O6	O	2.002899	-0.504321	0.651939
O7	O	1.808194	-0.651875	0.309923
O8	O	1.660918	-0.309796	0.504524
O9	O	2.002818	-0.651804	0.504500
O10	O	1.808381	-0.309742	0.651953
O11	O	1.660811	-0.504445	0.309934
O12	O	1.466301	-0.504351	0.504491
O13	O	1.660931	-0.651637	0.846470
O14	O	1.466307	-0.651708	0.651893
O15	O	1.808389	-0.504226	0.846496
O16	O	1.808202	-0.846359	0.504467
O17	O	1.660825	-0.846287	0.651880
C18	C	1.422757	-0.578028	0.578190
C19	C	1.289357	-0.578049	0.578212
C20	C	1.734535	-0.889871	0.578194
C21	C	1.734625	-1.023271	0.578229
C22	C	2.047624	-0.578065	0.578222
C23	C	2.181024	-0.578073	0.578229
C24	C	1.734674	-0.577913	0.891248
C25	C	1.734713	-0.577856	1.024649
C26	C	1.734661	-0.265004	0.578244
C27	C	1.734695	-0.131604	0.578260
C28	C	1.734559	-0.578092	0.266381
C29	C	1.734752	-0.577811	0.132982
