data_functionalizedCrystal
_audit_creation_method	'MofGen! by Chris Wilmer'
_symmetry_space_group_name_H-M	'P1'
_symmetry_Int_Tables_number	1
_symmetry_cell_setting	triclinic
loop_
_symmetry_equiv_pos_as_xyz
  x,y,z
_cell_length_a	19.188879
_cell_length_b	19.188930
_cell_length_c	16.098538
_cell_angle_alpha	87.256730
_cell_angle_beta	87.296763
_cell_angle_gamma	96.865574
loop_
_atom_site_label
_atom_site_type_symbol
_atom_site_fract_x
_atom_site_fract_y
_atom_site_fract_z
O1	O	-0.084027	0.929278	-0.069542
O2	O	0.249306	1.262612	0.263791
O3	O	0.582640	1.595945	0.597125
O4	O	-0.095764	0.725962	-0.069487
O5	O	0.237569	1.059296	0.263846
O6	O	0.570903	1.392629	0.597179
O7	O	0.011762	0.833505	-0.069490
O8	O	0.345095	1.166838	0.263843
O9	O	0.678428	1.500172	0.597177
O10	O	-0.191552	0.821736	-0.069539
O11	O	0.141781	1.155069	0.263794
O12	O	0.475114	1.488402	0.597127
O13	O	0.005505	0.827223	0.069023
O14	O	0.338838	1.160556	0.402356
O15	O	0.672172	1.493889	0.735690
O16	O	-0.102021	0.719680	0.069026
O17	O	0.231313	1.053014	0.402359
O18	O	0.564646	1.386347	0.735692
O19	O	-0.090283	0.922996	0.068971
O20	O	0.243050	1.256330	0.402304
O21	O	0.576383	1.589663	0.735638
Zn22	Zn	-0.097145	0.820341	0.090990
Zn23	Zn	0.236188	1.153674	0.424324
Zn24	Zn	0.569521	1.487008	0.757657
Zn25	Zn	-0.088902	0.828618	-0.091507
Zn26	Zn	0.244431	1.161951	0.241827
Zn27	Zn	0.577765	1.495284	0.575160
O28	O	-0.197809	0.815454	0.068974
O29	O	0.135524	1.148787	0.402307
O30	O	0.468858	1.482120	0.735641
C31	C	-0.098513	0.696810	-0.000223
C32	C	0.234821	1.030143	0.333110
C33	C	0.568154	1.363477	0.666443
C34	C	-0.097373	0.619305	-0.000201
C35	C	0.235961	0.952638	0.333132
C36	C	0.569294	1.285971	0.666465
C37	C	-0.160464	0.574371	-0.000230
C38	C	0.172869	0.907704	0.333104
C39	C	0.506203	1.241037	0.666437
C40	C	-0.159392	0.501547	-0.000238
C41	C	0.173942	0.834881	0.333095
C42	C	0.507275	1.168214	0.666428
C43	C	-0.095224	0.473662	-0.000236
C44	C	0.238109	0.806996	0.333098
C45	C	0.571442	1.140329	0.666431
C46	C	-0.032125	0.518606	-0.000203
C47	C	0.301208	0.851940	0.333131
C48	C	0.634542	1.185273	0.666464
C49	C	-0.033199	0.591427	-0.000185
C50	C	0.300134	0.924761	0.333148
C51	C	0.633467	1.258094	0.666481
N52	N	-0.044046	0.367830	-0.047399
N53	N	0.289288	0.701164	0.285934
N54	N	0.622621	1.034497	0.619267
N55	N	-0.043029	0.298653	-0.047418
N56	N	0.290304	0.631986	0.285916
N57	N	0.623637	0.965319	0.619249
C58	C	-0.091984	0.254257	-0.000286
C59	C	0.241350	0.587590	0.333047
C60	C	0.574683	0.920923	0.666381
N61	N	-0.142003	0.281651	0.046854
N62	N	0.191330	0.614984	0.380188
N63	N	0.524664	0.948317	0.713521
N64	N	-0.143021	0.350835	0.046869
N65	N	0.190312	0.684168	0.380202
N66	N	0.523645	1.017501	0.713535
C67	C	-0.094052	0.394701	-0.000254
C68	C	0.239281	0.728034	0.333079
C69	C	0.572614	1.061368	0.666413
C70	C	-0.153917	0.130359	-0.000323
C71	C	0.179416	0.463692	0.333011
C72	C	0.512750	0.797025	0.666344
C73	C	-0.152842	0.057534	-0.000326
C74	C	0.180491	0.390868	0.333007
C75	C	0.513824	0.724201	0.666340
C76	C	-0.025573	0.074595	-0.000299
C77	C	0.307760	0.407928	0.333034
C78	C	0.641093	0.741262	0.666368
C79	C	-0.026650	0.147417	-0.000287
C80	C	0.306683	0.480751	0.333046
C81	C	0.640017	0.814084	0.666380
C82	C	-0.090824	0.175295	-0.000303
C83	C	0.242510	0.508628	0.333031
C84	C	0.575843	0.841961	0.666364
C85	C	-0.220692	0.818970	-0.000290
C86	C	0.112641	1.152304	0.333044
C87	C	0.445975	1.485637	0.666377
C88	C	-0.298198	0.820098	-0.000310
C89	C	0.035136	1.153431	0.333023
C90	C	0.368469	1.486765	0.666357
C91	C	-0.337991	0.817220	0.075198
C92	C	-0.004657	1.150553	0.408531
C93	C	0.328676	1.483887	0.741864
C94	C	-0.410814	0.818297	0.075212
C95	C	-0.077481	1.151630	0.408545
C96	C	0.255852	1.484964	0.741878
C97	C	-0.443840	0.822266	-0.000286
C98	C	-0.110507	1.155600	0.333047
C99	C	0.222827	1.488933	0.666381
C100	C	-0.404038	0.825140	-0.075804
C101	C	-0.070705	1.158474	0.257530
C102	C	0.262628	1.491807	0.590863
C103	C	-0.331217	0.824056	-0.075816
C104	C	0.002116	1.157390	0.257518
C105	C	0.335450	1.490723	0.590851
N106	N	-0.550322	0.866251	-0.056477
N107	N	-0.216988	1.199584	0.276856
N108	N	0.116345	1.532918	0.610189
N109	N	-0.619499	0.867282	-0.056461
N110	N	-0.286165	1.200616	0.276873
N111	N	0.047168	1.533949	0.610206
C112	C	-0.663246	0.825531	-0.000254
C113	C	-0.329913	1.158865	0.333079
C114	C	0.003421	1.492198	0.666412
N115	N	-0.635202	0.782719	0.055948
N116	N	-0.301869	1.116052	0.389281
N117	N	0.031464	1.449385	0.722614
N118	N	-0.566019	0.781690	0.055934
N119	N	-0.232685	1.115024	0.389267
N120	N	0.100648	1.448357	0.722600
C121	C	-0.522802	0.823442	-0.000281
C122	C	-0.189469	1.156775	0.333052
C123	C	0.143865	1.490108	0.666385
C124	C	-0.782003	0.823820	0.075274
C125	C	-0.448670	1.157154	0.408607
C126	C	-0.115337	1.490487	0.741941
C127	C	-0.854829	0.824893	0.075285
C128	C	-0.521495	1.158227	0.408618
C129	C	-0.188162	1.491560	0.741952
C130	C	-0.848050	0.831744	-0.075732
C131	C	-0.514717	1.165077	0.257601
C132	C	-0.181384	1.498410	0.590934
C133	C	-0.775227	0.830664	-0.075741
C134	C	-0.441894	1.163997	0.257592
C135	C	-0.108561	1.497330	0.590925
C136	C	-0.742208	0.826705	-0.000236
C137	C	-0.408874	1.160039	0.333098
C138	C	-0.075541	1.493372	0.666431
C139	C	0.034645	0.829988	-0.000229
C140	C	0.367978	1.163322	0.333105
C141	C	0.701311	1.496655	0.666438
C142	C	0.112150	0.828861	-0.000213
C143	C	0.445484	1.162194	0.333120
C144	C	0.778817	1.495528	0.666453
C145	C	-0.087535	0.952149	-0.000295
C146	C	0.245799	1.285482	0.333039
C147	C	0.579132	1.618815	0.666372
C148	C	-0.088674	1.029654	-0.000322
C149	C	0.244659	1.362988	0.333011
C150	C	0.577992	1.696321	0.666344
N151	N	-0.102771	0.814697	0.215540
N152	N	0.230563	1.148031	0.548873
N153	N	0.563896	1.481364	0.882206
N154	N	-0.083271	0.834267	-0.216056
N155	N	0.250062	1.167600	0.117277
N156	N	0.583396	1.500934	0.450611
C157	C	-0.057149	0.860359	0.259124
C158	C	0.276185	1.193692	0.592457
C159	C	0.609518	1.527026	0.925790
C160	C	-0.061090	0.856418	0.346313
C161	C	0.272243	1.189751	0.679646
C162	C	0.605576	1.523084	1.012979
C163	C	-0.110658	0.806817	0.389916
C164	C	0.222675	1.140150	0.723250
C165	C	0.556008	1.473484	1.056583
C166	C	-0.156282	0.761150	0.346326
C167	C	0.177051	1.094484	0.679660
C168	C	0.510384	1.427817	1.012993
C169	C	-0.152337	0.765089	0.259139
C170	C	0.180997	1.098422	0.592472
C171	C	0.514330	1.431756	0.925806
C172	C	-0.124950	0.792539	0.653167
C173	C	0.208384	1.125872	0.986500
C174	C	0.541717	1.459206	1.319833
C175	C	-0.128893	0.788605	0.740360
C176	C	0.204440	1.121938	1.073694
C177	C	0.537773	1.455272	1.407027
C178	C	-0.033700	0.883872	0.740341
C179	C	0.299633	1.217205	1.073674
C180	C	0.632967	1.550539	1.407007
C181	C	-0.029762	0.887809	0.653151
C182	C	0.303572	1.221142	0.986485
C183	C	0.636905	1.554476	1.319818
C184	C	-0.075383	0.842140	0.609569
C185	C	0.257950	1.175473	0.942902
C186	C	0.591283	1.508807	1.276236
C187	C	-0.114690	0.802788	0.479038
C188	C	0.218643	1.136122	0.812371
C189	C	0.551977	1.469455	1.145704
C190	C	-0.071348	0.846166	0.520449
C191	C	0.261986	1.179499	0.853783
C192	C	0.595319	1.512832	1.187116
H193	H	0.026675	0.051894	-0.000348
H194	H	0.360009	0.385228	0.332985
H195	H	0.693342	0.718561	0.666318
H196	H	-0.155050	0.762404	0.514547
H197	H	0.178283	1.095737	0.847880
H198	H	0.511616	1.429070	1.181213
Br199	Br	0.054960	0.480764	-0.000190
Br200	Br	0.388293	0.814097	0.333143
Br201	Br	0.721627	1.147431	0.666476
H202	H	-0.212719	0.597063	-0.000244
H203	H	0.120614	0.930397	0.333089
H204	H	0.453948	1.263730	0.666423
H205	H	-0.210770	0.464955	-0.000259
H206	H	0.122563	0.798288	0.333074
H207	H	0.455897	1.131622	0.666408
Br208	Br	-0.238474	-0.003451	-0.000357
Br209	Br	0.094859	0.329882	0.332976
Br210	Br	0.428192	0.663216	0.666309
Br211	Br	-0.196173	0.721287	0.799531
Br212	Br	0.137161	1.054620	1.132865
Br213	Br	0.470494	1.387953	1.466198
H214	H	-0.311111	0.813996	0.136680
H215	H	0.022222	1.147329	0.470013
H216	H	0.355556	1.480663	0.803347
H217	H	-0.443222	0.815941	0.136701
H218	H	-0.109888	1.149274	0.470034
H219	H	0.223445	1.482607	0.803368
Br220	Br	0.058979	0.208404	-0.000251
Br221	Br	0.392312	0.541737	0.333083
Br222	Br	0.725645	0.875071	0.666416
Br223	Br	-0.892867	0.837096	-0.178196
Br224	Br	-0.559534	1.170430	0.155137
Br225	Br	-0.226201	1.503763	0.488471
Br226	Br	-0.448856	0.830528	-0.178266
Br227	Br	-0.115523	1.163861	0.155068
Br228	Br	0.217810	1.497195	0.488401
Br229	Br	0.000828	0.918386	0.405465
Br230	Br	0.334162	1.251719	0.738798
Br231	Br	0.667495	1.585052	1.072132
H232	H	0.018179	0.628014	-0.000163
H233	H	0.351512	0.961347	0.333170
H234	H	0.684845	1.294680	0.666504
Br235	Br	-0.277208	0.827961	-0.178298
Br236	Br	0.056125	1.161295	0.155035
Br237	Br	0.389459	1.494628	0.488368
H238	H	-0.206171	0.153057	-0.000323
H239	H	0.127162	0.486390	0.333010
H240	H	0.460495	0.819724	0.666343
H241	H	-0.196639	0.720761	0.381833
H242	H	0.136694	1.054094	0.715167
H243	H	0.470028	1.387428	1.048500
Br244	Br	0.028213	0.945847	0.799491
Br245	Br	0.361547	1.279181	1.132824
Br246	Br	0.694880	1.612514	1.466157
Br247	Br	-0.908838	0.820971	0.177769
Br248	Br	-0.575505	1.154304	0.511102
Br249	Br	-0.242171	1.487637	0.844436
H250	H	-0.755118	0.820591	0.136755
H251	H	-0.421785	1.153925	0.470088
H252	H	-0.088452	1.487258	0.803422
Br253	Br	-0.721218	0.834574	-0.178222
Br254	Br	-0.387884	1.167907	0.155111
Br255	Br	-0.054551	1.501240	0.488445
H256	H	-0.016788	0.900752	0.223627
H257	H	0.316545	1.234085	0.556961
H258	H	0.649878	1.567419	0.890294
Br259	Br	0.037506	0.955127	0.593974
Br260	Br	0.370840	1.288460	0.927307
Br261	Br	0.704173	1.621794	1.260640
H262	H	-0.162098	0.755354	0.617689
H263	H	0.171236	1.088688	0.951022
H264	H	0.504569	1.422021	1.284355
H265	H	-0.030987	0.886548	0.484945
H266	H	0.302346	1.219881	0.818278
H267	H	0.635680	1.553215	1.151612
Br268	Br	-0.214251	0.703112	0.199989
Br269	Br	0.119083	1.036445	0.533322
Br270	Br	0.452416	1.369778	0.866656
