data_functionalizedCrystal
_audit_creation_method	'MofGen! by Chris Wilmer'
_symmetry_space_group_name_H-M	'P1'
_symmetry_Int_Tables_number	1
_symmetry_cell_setting	triclinic
loop_
_symmetry_equiv_pos_as_xyz
  x,y,z
_cell_length_a	12.645331
_cell_length_b	12.759399
_cell_length_c	12.759393
_cell_angle_alpha	89.967969
_cell_angle_beta	89.978165
_cell_angle_gamma	90.014095
loop_
_atom_site_label
_atom_site_type_symbol
_atom_site_fract_x
_atom_site_fract_y
_atom_site_fract_z
Zn1	Zn	1.620741	-0.418232	-0.594073
Zn2	Zn	1.620634	-0.593951	-0.418392
Zn3	Zn	1.443459	-0.418284	-0.418402
Zn4	Zn	1.443446	-0.593867	-0.594023
O5	O	1.532070	-0.506084	-0.506223
O6	O	1.769074	-0.441556	-0.570785
O7	O	1.597091	-0.570706	-0.271372
O8	O	1.467026	-0.271256	-0.441730
O9	O	1.768995	-0.570656	-0.441713
O10	O	1.597275	-0.271218	-0.570795
O11	O	1.466922	-0.441644	-0.271380
O12	O	1.295110	-0.441562	-0.441682
O13	O	1.467004	-0.570511	-0.741051
O14	O	1.295100	-0.570561	-0.570710
O15	O	1.597262	-0.441474	-0.741088
O16	O	1.597079	-0.740961	-0.441665
O17	O	1.466900	-0.740899	-0.570700
C18	C	1.532005	-0.779051	-0.506199
C19	C	1.532074	-0.895828	-0.506224
C20	C	1.256640	-0.506059	-0.506192
C21	C	1.138810	-0.506073	-0.506204
C22	C	1.599936	-0.950687	-0.439111
C23	C	1.600004	-1.060411	-0.439146
C24	C	1.464339	-1.060407	-0.573409
C25	C	1.464277	-0.950685	-0.573379
C26	C	1.725132	-1.210293	-0.401763
C27	C	1.792984	-1.265156	-0.334634
C28	C	1.809295	-1.229618	-0.232125
C29	C	1.757737	-1.139219	-0.196723
C30	C	1.689877	-1.084361	-0.263846
C31	C	1.673587	-1.119898	-0.366371
C32	C	1.339148	-0.800801	-0.610751
C33	C	1.271282	-0.745941	-0.677870
C34	C	1.254960	-0.781477	-0.780381
C35	C	1.306499	-0.871880	-0.815779
C36	C	1.374365	-0.926739	-0.748660
C37	C	1.390688	-0.891196	-0.646150
C38	C	0.971217	-0.424546	-0.425480
C39	C	1.093776	-0.424757	-0.425125
C40	C	1.094295	-0.616752	-0.475958
C41	C	0.971697	-0.616306	-0.475408
C42	C	0.971658	-0.477976	-0.617485
C43	C	1.094263	-0.475503	-0.616867
C44	C	1.808575	-0.506109	-0.506254
C45	C	1.926405	-0.506120	-0.506267
C46	C	1.532144	-0.505977	-0.780256
C47	C	1.532175	-0.505932	-0.897033
C48	C	1.532164	-0.232050	-0.506270
C49	C	1.532204	-0.115274	-0.506290
C50	C	1.464420	-0.438717	-0.951898
C51	C	1.464445	-0.438685	-1.061622
C52	C	1.599989	-0.573085	-1.061606
C53	C	1.599958	-0.573122	-0.951884
C54	C	1.339478	-0.401082	-1.211568
C55	C	1.271732	-0.333851	-1.266437
C56	C	1.255483	-0.231347	-1.230848
C57	C	1.306996	-0.196053	-1.140391
C58	C	1.374749	-0.263279	-1.085527
C59	C	1.390978	-0.365798	-1.121115
C60	C	1.724927	-0.610714	-0.801936
C61	C	1.792687	-0.677935	-0.747070
C62	C	1.808946	-0.780441	-0.782658
C63	C	1.757452	-0.815731	-0.873118
C64	C	1.689693	-0.748510	-0.927984
C65	C	1.673432	-0.646005	-0.892389
C66	C	1.532057	-0.506114	-0.233255
C67	C	1.532231	-0.505863	-0.116479
H68	H	1.655141	-0.906025	-0.384431
N69	N	0.934260	-0.321269	-0.448990
N70	N	0.998917	-0.249967	-0.469286
H71	H	0.972809	-0.177024	-0.485892
H72	H	1.647902	-1.010759	-0.235024
N73	N	1.132739	-0.647231	-0.375058
N74	N	1.186580	-0.728811	-0.365416
H75	H	1.213730	-0.750334	-0.294153
H76	H	1.293770	-0.112579	-1.111428
N77	N	1.186287	-0.162682	-1.286910
N78	N	1.140310	-0.194199	-1.367672
H79	H	1.091437	-0.145710	-1.407270
N80	N	0.935305	-0.552487	-0.693019
N81	N	0.962509	-0.544052	-0.786838
H82	H	0.936830	-0.596677	-0.840178
N83	N	1.395066	-1.116428	-0.641991
N84	N	1.334476	-1.067429	-0.701905
H85	H	1.285545	-1.106991	-0.750340
N86	N	1.132695	-0.544652	-0.696386
N87	N	1.229857	-0.552200	-0.712774
H88	H	1.256986	-0.601069	-0.768918
N89	N	1.130914	-0.695047	-0.547433
N90	N	1.184388	-0.770591	-0.514552
H91	H	1.210255	-0.825886	-0.565031
N92	N	0.932880	-0.378501	-0.651986
N93	N	0.871412	-0.327137	-0.595015
H94	H	0.844022	-0.256880	-0.619371
N95	N	1.395184	-0.370076	-0.895885
N96	N	1.334696	-0.310065	-0.944890
H97	H	1.285795	-0.261583	-0.905334
N98	N	1.131529	-0.321794	-0.448893
N99	N	1.107889	-0.279570	-0.534142
H100	H	1.134543	-0.206844	-0.550919
N101	N	1.637068	-0.784544	-1.020380
N102	N	1.576570	-0.724517	-1.069353
H103	H	1.539401	-0.749964	-1.134607
N104	N	1.427477	-0.227254	-0.993191
N105	N	1.488789	-0.150550	-0.998117
H106	H	1.526062	-0.125114	-0.932917
H107	H	1.416335	-1.000347	-0.777492
H108	H	0.942054	-0.679144	-0.531683
H109	H	0.943053	-0.640173	-0.394101
H110	H	1.229791	-0.362597	-1.340088
H111	H	1.123363	-0.394056	-0.639674
H112	H	0.940371	-0.442943	-0.343548
H113	H	1.352689	-0.484554	-1.240546
H114	H	1.123056	-0.443360	-0.342707
H115	H	1.655176	-0.627788	-1.106279
N116	N	1.774067	-0.920443	-0.909463
N117	N	1.834562	-0.980452	-0.860465
H118	H	1.846300	-1.054407	-0.886130
N119	N	1.185623	-0.725434	-0.848926
N120	N	1.139599	-0.644726	-0.817312
H121	H	1.090632	-0.605147	-0.865722
N122	N	1.774394	-1.102946	-0.091998
N123	N	1.834982	-1.151937	-0.032077
H124	H	1.846748	-1.126318	0.041888
H125	H	1.352440	-0.771853	-0.527280
N126	N	1.878152	-0.849100	-0.726591
N127	N	1.924120	-0.817589	-0.645821
H128	H	1.972984	-0.866083	-0.606219
H129	H	1.711868	-1.239230	-0.485238
N130	N	1.845570	-0.641756	-0.654877
N131	N	1.831230	-0.550154	-0.623240
H132	H	1.868684	-0.524559	-0.558205
H133	H	1.834963	-1.338759	-0.363469
N134	N	1.878600	-1.285674	-0.163565
N135	N	1.924617	-1.366385	-0.195179
H136	H	1.973567	-1.405978	-0.146763
N137	N	1.289812	-0.908179	-0.920492
N138	N	1.229216	-0.859190	-0.980408
H139	H	1.217423	-0.884825	-1.054363
N140	N	1.708320	-0.506008	-0.765562
N141	N	1.754310	-0.474511	-0.684798
H142	H	1.742586	-0.400563	-0.659107
N143	N	1.218611	-0.653607	-0.641719
N144	N	1.119839	-0.649922	-0.640637
H145	H	1.082638	-0.584713	-0.615105
