data_functionalizedCrystal
_audit_creation_method	'MofGen! by Chris Wilmer'
_symmetry_space_group_name_H-M	'P1'
_symmetry_Int_Tables_number	1
_symmetry_cell_setting	triclinic
loop_
_symmetry_equiv_pos_as_xyz
  x,y,z
_cell_length_a	17.019383
_cell_length_b	17.019294
_cell_length_c	16.098538
_cell_angle_alpha	88.846036
_cell_angle_beta	83.394151
_cell_angle_gamma	83.133350
loop_
_atom_site_label
_atom_site_type_symbol
_atom_site_fract_x
_atom_site_fract_y
_atom_site_fract_z
O1	O	1.054286	0.092839	-0.151449
O2	O	0.823816	0.106434	-0.135913
O3	O	0.945061	-0.014807	-0.135901
O4	O	0.933041	0.214080	-0.151462
O5	O	0.937978	-0.007752	0.002614
O6	O	0.816733	0.113488	0.002601
O7	O	1.047203	0.099894	-0.012935
Zn8	Zn	0.930844	0.107811	0.016825
Zn9	Zn	0.940175	0.098516	-0.165673
O10	O	0.925958	0.221134	-0.012948
C11	C	0.790777	0.109582	-0.064516
C12	C	0.702884	0.108445	-0.058138
C13	C	0.665445	0.104068	-0.130639
C14	C	0.582858	0.103012	-0.124635
C15	C	0.537712	0.106329	-0.046127
C16	C	0.575156	0.110709	0.026379
C17	C	0.657741	0.111770	0.020374
C18	C	0.288165	0.103323	-0.024217
C19	C	0.205575	0.102260	-0.018217
C20	C	0.213282	0.094564	-0.169231
C21	C	0.295868	0.095621	-0.175230
C22	C	0.333305	0.100005	-0.102723
C23	C	0.453295	0.105248	-0.039988
C24	C	0.417720	0.101092	-0.108864
C25	C	0.940924	-0.040559	-0.064502
C26	C	0.939141	-0.127803	-0.058120
C27	C	0.942165	-0.172631	-0.130625
C28	C	0.940484	-0.254605	-0.124625
C29	C	0.935784	-0.291750	-0.046120
C30	C	0.932757	-0.246915	0.026391
C31	C	0.934432	-0.164942	0.020391
C32	C	0.930527	-0.539063	-0.024226
C33	C	0.928854	-0.621042	-0.018231
C34	C	0.936580	-0.628726	-0.169248
C35	C	0.938260	-0.546752	-0.175241
C36	C	0.935229	-0.501924	-0.102730
C37	C	0.934068	-0.375540	-0.039985
C38	C	0.936939	-0.418134	-0.108865
C39	C	1.080242	0.096745	-0.084334
C40	C	1.168135	0.097882	-0.090718
C41	C	0.930095	0.246886	-0.084349
C42	C	0.931879	0.334130	-0.090736
N43	N	0.924481	0.114154	0.141375
N44	N	0.946545	0.092167	-0.290223
C45	C	0.975961	0.062713	0.184963
C46	C	0.971517	0.067157	0.272151
C47	C	0.915597	0.123048	0.315750
C48	C	0.864111	0.174491	0.272156
C49	C	0.868552	0.170042	0.184970
C50	C	0.899499	0.139162	0.578997
C51	C	0.895064	0.143608	0.666189
C52	C	1.002470	0.036273	0.666178
C53	C	1.006909	0.031832	0.578990
C54	C	0.955420	0.083273	0.535404
C55	C	0.911055	0.127594	0.404870
C56	C	0.959959	0.078723	0.446286
H57	H	0.332622	0.092914	-0.239158
H58	H	0.931958	-0.128442	0.079433
O59	O	0.927692	-0.286985	0.111062
H60	H	0.872250	-0.262162	0.149460
H61	H	1.021501	0.017205	0.149470
O62	O	0.927262	-0.490715	0.053977
H63	H	0.981746	-0.460436	0.051510
O64	O	0.834746	0.203895	0.713211
H65	H	0.840319	0.198352	0.781159
O66	O	0.542496	0.098255	-0.202841
H67	H	0.553287	0.150165	-0.243573
H68	H	0.688222	0.115338	0.079412
O69	O	0.923798	-0.661116	0.066443
H70	H	0.868951	-0.691038	0.076126
H71	H	0.939047	-0.665233	-0.228282
H72	H	0.416528	0.107946	0.023933
H73	H	0.168816	0.104983	0.045715
H74	H	0.940760	-0.387886	-0.172783
H75	H	0.945997	-0.142394	-0.194553
H76	H	0.942950	-0.291101	-0.183667
H77	H	0.942088	-0.516514	-0.239169
H78	H	0.930244	-0.405793	0.023934
H79	H	1.013436	0.025270	0.307640
O80	O	1.067216	-0.028455	0.531966
H81	H	1.102263	-0.063486	0.576924
H82	H	1.044389	-0.005608	0.701674
O83	O	0.843971	0.194648	0.531995
H84	H	0.879415	0.230679	0.487129
O85	O	0.803798	0.234778	0.319173
H86	H	0.809364	0.229238	0.387122
H87	H	0.182791	0.090996	-0.228262
O88	O	0.813032	0.225528	0.137950
H89	H	0.773405	0.265145	0.182911
O90	O	0.328536	0.108080	0.053980
H91	H	0.283266	0.110211	0.109577
H92	H	1.005487	0.033214	0.410786
O93	O	0.850751	0.187884	0.451895
H94	H	0.810172	0.156986	0.496762
H95	H	0.538391	0.113414	0.090301
H96	H	0.454481	0.098396	-0.172785
O97	O	0.714137	0.100493	-0.215315
H98	H	0.674223	0.097280	-0.264721
