data_functionalizedCrystal
_audit_creation_method	'MofGen! by Chris Wilmer'
_symmetry_space_group_name_H-M	'P1'
_symmetry_Int_Tables_number	1
_symmetry_cell_setting	triclinic
loop_
_symmetry_equiv_pos_as_xyz
  x,y,z
_cell_length_a	10.654550
_cell_length_b	11.792254
_cell_length_c	9.730223
_cell_angle_alpha	89.995422
_cell_angle_beta	89.999957
_cell_angle_gamma	84.341764
loop_
_atom_site_label
_atom_site_type_symbol
_atom_site_fract_x
_atom_site_fract_y
_atom_site_fract_z
O1	O	1.667396	0.159419	-0.114188
O2	O	2.167396	0.659419	0.385812
O3	O	1.301875	0.174607	-0.114213
O4	O	1.801875	0.674607	0.385787
O5	O	1.493498	0.001864	-0.114190
O6	O	1.993498	0.501864	0.385810
O7	O	1.475774	0.332162	-0.114211
O8	O	1.975774	0.832162	0.385789
O9	O	1.493485	0.001859	0.114390
O10	O	1.993485	0.501859	0.614390
O11	O	1.301863	0.174602	0.114367
O12	O	1.801863	0.674602	0.614367
O13	O	1.667384	0.159414	0.114392
O14	O	2.167384	0.659414	0.614392
Zn15	Zn	1.484621	0.167007	0.150671
Zn16	Zn	1.984621	0.667007	0.650671
Zn17	Zn	1.484638	0.167014	-0.150493
Zn18	Zn	1.984638	0.667014	0.349507
O19	O	1.475762	0.332157	0.114369
O20	O	1.975762	0.832157	0.614369
C21	C	1.255074	0.173490	0.000073
C22	C	1.755074	0.673490	0.500073
C23	C	1.115640	0.170153	0.000064
C24	C	1.615640	0.670153	0.500064
C25	C	1.035872	0.271862	0.000062
C26	C	1.535872	0.771862	0.500062
C27	C	0.904860	0.268720	0.000086
C28	C	1.404860	0.768720	0.500086
C29	C	0.933397	0.062152	0.000109
C30	C	1.433397	0.562152	0.500109
C31	C	1.064407	0.065295	0.000095
C32	C	1.564407	0.565295	0.500095
C33	C	1.492375	-0.040432	0.000099
C34	C	1.992375	0.459568	0.500099
C35	C	1.489033	-0.166452	0.000098
C36	C	1.989033	0.333548	0.500098
C37	C	1.486318	-0.268795	0.000093
C38	C	1.986318	0.231205	0.500093
C39	C	1.482923	-0.397190	0.000080
C40	C	1.982923	0.102810	0.500080
C41	C	1.714185	0.160532	0.000102
C42	C	2.214185	0.660532	0.500102
C43	C	1.853619	0.163868	0.000102
C44	C	2.353619	0.663868	0.500102
C45	C	1.476884	0.374453	0.000076
C46	C	1.976884	0.874453	0.500076
C47	C	1.480226	0.500474	0.000069
C48	C	1.980226	1.000474	0.500069
N49	N	1.484619	0.167003	0.356208
N50	N	1.984619	0.667003	0.856208
N51	N	1.484650	0.167010	-0.356029
N52	N	1.984650	0.667010	0.143971
C53	C	1.569499	0.090544	0.428144
C54	C	2.069499	0.590544	0.928144
C55	C	1.569511	0.090545	0.572027
C56	C	2.069511	0.590545	1.072027
C57	C	1.399761	0.243472	0.572025
C58	C	1.899761	0.743472	1.072025
C59	C	1.399744	0.243465	0.428144
C60	C	1.899744	0.743465	0.928144
H61	H	1.077582	0.357244	0.000047
H62	H	1.577582	0.857244	0.500047
H63	H	0.891666	-0.023220	0.000142
H64	H	1.391666	0.476780	0.500142
N65	N	0.818823	0.378419	0.000160
N66	N	1.318823	0.878419	0.500160
H67	H	0.871164	0.445318	0.000163
H68	H	1.371164	0.945318	0.500163
H69	H	0.763801	0.381654	-0.084545
H70	H	1.263801	0.881654	0.415455
N71	N	1.661021	0.008075	0.350534
N72	N	2.161021	0.508075	0.850534
H73	H	1.750246	0.021890	0.375551
H74	H	2.250246	0.521890	0.875551
H75	H	1.645900	-0.072568	0.375616
H76	H	2.145900	0.427432	0.875616
N77	N	1.150455	-0.044410	0.000113
N78	N	1.650455	0.455590	0.500113
H79	H	1.098121	-0.111314	0.000128
H80	H	1.598121	0.388686	0.500128
H81	H	1.205432	-0.047608	-0.084625
H82	H	1.705432	0.452392	0.415375
N83	N	1.308232	0.325953	0.649608
N84	N	1.808232	0.825953	1.149608
H85	H	1.219010	0.312130	0.624587
H86	H	1.719010	0.812130	1.124587
H87	H	1.321231	0.314323	0.751648
H88	H	1.821231	0.814323	1.251648
N89	N	1.661077	0.008095	0.649617
N90	N	2.161077	0.508095	1.149617
H91	H	1.714845	-0.040335	0.582208
H92	H	2.214845	0.459665	1.082208
H93	H	1.716885	0.052040	0.709288
H94	H	2.216885	0.552040	1.209288
H95	H	1.330619	0.305727	0.369570
H96	H	1.830619	0.805727	0.869570
