data_functionalizedCrystal
_audit_creation_method	'MofGen! by Chris Wilmer'
_symmetry_space_group_name_H-M	'P1'
_symmetry_Int_Tables_number	1
_symmetry_cell_setting	triclinic
loop_
_symmetry_equiv_pos_as_xyz
  x,y,z
_cell_length_a	14.519709
_cell_length_b	14.044220
_cell_length_c	12.996460
_cell_angle_alpha	89.993022
_cell_angle_beta	90.000034
_cell_angle_gamma	88.434511
loop_
_atom_site_label
_atom_site_type_symbol
_atom_site_fract_x
_atom_site_fract_y
_atom_site_fract_z
O1	O	1.233893	0.124273	-0.085435
O2	O	1.483893	0.374273	0.164565
O3	O	1.733893	0.624273	0.414565
O4	O	1.983893	0.874273	0.664565
O5	O	0.966596	0.138907	-0.085466
O6	O	1.216596	0.388907	0.164534
O7	O	1.466596	0.638907	0.414534
O8	O	1.716596	0.888907	0.664534
O9	O	1.096232	-0.006401	-0.085441
O10	O	1.346232	0.243599	0.164559
O11	O	1.596232	0.493599	0.414559
O12	O	1.846232	0.743599	0.664559
O13	O	1.104256	0.269581	-0.085460
O14	O	1.354256	0.519581	0.164540
O15	O	1.604256	0.769581	0.414540
O16	O	1.854256	1.019581	0.664540
O17	O	1.096217	-0.006409	0.085693
O18	O	1.346217	0.243591	0.335693
O19	O	1.596217	0.493591	0.585693
O20	O	1.846217	0.743591	0.835693
O21	O	0.966581	0.138899	0.085667
O22	O	1.216581	0.388899	0.335667
O23	O	1.466581	0.638899	0.585667
O24	O	1.716581	0.888899	0.835667
O25	O	1.233877	0.124265	0.085699
O26	O	1.483877	0.374265	0.335699
O27	O	1.733877	0.624265	0.585699
O28	O	1.983877	0.874265	0.835699
Cu29	Cu	1.100228	0.131581	0.101309
Cu30	Cu	1.350228	0.381581	0.351309
Cu31	Cu	1.600228	0.631581	0.601309
Cu32	Cu	1.850228	0.881581	0.851309
Cu33	Cu	1.100246	0.131591	-0.101076
Cu34	Cu	1.350246	0.381591	0.148924
Cu35	Cu	1.600246	0.631591	0.398924
Cu36	Cu	1.850246	0.881591	0.648924
O37	O	1.104241	0.269573	0.085674
O38	O	1.354241	0.519573	0.335674
O39	O	1.604241	0.769573	0.585674
O40	O	1.854241	1.019573	0.835674
C41	C	0.932174	0.138221	0.000097
C42	C	1.182174	0.388221	0.250097
C43	C	1.432174	0.638221	0.500097
C44	C	1.682174	0.888221	0.750097
C45	C	0.829628	0.136177	0.000085
C46	C	1.079628	0.386177	0.250085
C47	C	1.329628	0.636177	0.500085
C48	C	1.579628	0.886177	0.750085
C49	C	1.092712	-0.041726	0.000126
C50	C	1.342712	0.208274	0.250126
C51	C	1.592712	0.458274	0.500126
C52	C	1.842712	0.708274	0.750126
C53	C	1.082235	-0.146969	0.000126
C54	C	1.332235	0.103031	0.250126
C55	C	1.582235	0.353031	0.500126
C56	C	1.832235	0.603031	0.750126
C57	C	0.454125	0.128653	0.000132
C58	C	0.704125	0.378653	0.250132
C59	C	0.954125	0.628653	0.500132
C60	C	1.204125	0.878653	0.750132
C61	C	0.558601	0.130743	0.000119
C62	C	0.808601	0.380743	0.250119
C63	C	1.058601	0.630743	0.500119
C64	C	1.308601	0.880743	0.750119
C65	C	0.641873	0.132415	0.000107
C66	C	0.891873	0.382415	0.250107
C67	C	1.141873	0.632415	0.500107
C68	C	1.391873	0.882415	0.750107
C69	C	0.746356	0.134505	0.000096
C70	C	0.996356	0.384505	0.250096
C71	C	1.246356	0.634505	0.500096
C72	C	1.496356	0.884505	0.750096
C73	C	1.063081	-0.339663	0.000109
C74	C	1.313081	-0.089663	0.250109
C75	C	1.563081	0.160337	0.500109
C76	C	1.813081	0.410337	0.750109
C77	C	1.137389	-0.397170	0.000115
C78	C	1.387389	-0.147170	0.250115
C79	C	1.637389	0.102830	0.500115
C80	C	1.887389	0.352830	0.750115
C81	C	1.126731	-0.504392	0.000105
C82	C	1.376731	-0.254392	0.250105
C83	C	1.626731	-0.004392	0.500105
C84	C	1.876731	0.245608	0.750105
C85	C	1.073737	-0.232432	0.000118
C86	C	1.323737	0.017568	0.250118
C87	C	1.573737	0.267568	0.500118
C88	C	1.823737	0.517568	0.750118
C89	C	1.268300	0.124951	0.000134
C90	C	1.518300	0.374951	0.250134
C91	C	1.768300	0.624951	0.500134
C92	C	2.018300	0.874951	0.750134
C93	C	1.370846	0.126995	0.000139
C94	C	1.620846	0.376995	0.250139
C95	C	1.870846	0.626995	0.500139
C96	C	2.120846	0.876995	0.750139
C97	C	1.107761	0.304898	0.000104
C98	C	1.357761	0.554898	0.250104
C99	C	1.607761	0.804898	0.500104
C100	C	1.857761	1.054898	0.750104
C101	C	1.118238	0.410141	0.000098
C102	C	1.368238	0.660141	0.250098
C103	C	1.618238	0.910141	0.500098
C104	C	1.868238	1.160141	0.750098
N105	N	1.100221	0.131574	0.243656
N106	N	1.350221	0.381574	0.493656
N107	N	1.600221	0.631574	0.743656
N108	N	1.850221	0.881574	0.993656
N109	N	1.100259	0.131591	-0.243424
N110	N	1.350259	0.381591	0.006576
N111	N	1.600259	0.631591	0.256576
N112	N	1.850259	0.881591	0.506576
C113	C	1.100245	0.131592	0.663470
C114	C	1.350245	0.381592	0.913470
C115	C	1.600245	0.631592	1.163470
C116	C	1.850245	0.881592	1.413470
C117	C	1.100236	0.131590	0.546665
C118	C	1.350236	0.381590	0.796665
C119	C	1.600236	0.631590	1.046665
C120	C	1.850236	0.881590	1.296665
C121	C	1.100233	0.131584	0.453567
C122	C	1.350233	0.381584	0.703567
C123	C	1.600233	0.631584	0.953567
C124	C	1.850233	0.881584	1.203567
C125	C	1.100224	0.131580	0.336754
C126	C	1.350224	0.381580	0.586754
C127	C	1.600224	0.631580	0.836754
C128	C	1.850224	0.881580	1.086754
H129	H	1.209010	-0.365878	0.000054
H130	H	1.459010	-0.115878	0.250054
H131	H	1.709010	0.134122	0.500054
H132	H	1.959010	0.384122	0.750054
H133	H	0.991465	-0.370954	0.000098
H134	H	1.241465	-0.120954	0.250098
H135	H	1.491465	0.129046	0.500098
H136	H	1.741465	0.379046	0.750098
