data_functionalizedCrystal
_audit_creation_method	'MofGen! by Chris Wilmer'
_symmetry_space_group_name_H-M	'P1'
_symmetry_Int_Tables_number	1
_symmetry_cell_setting	triclinic
loop_
_symmetry_equiv_pos_as_xyz
  x,y,z
_cell_length_a	18.627243
_cell_length_b	18.627245
_cell_length_c	18.627297
_cell_angle_alpha	59.997585
_cell_angle_beta	90.001510
_cell_angle_gamma	119.999685
loop_
_atom_site_label
_atom_site_type_symbol
_atom_site_fract_x
_atom_site_fract_y
_atom_site_fract_z
O1	O	0.611883	-0.513841	0.021357
O2	O	0.507488	-0.366832	-0.021256
O3	O	0.507484	-0.513838	0.125752
O4	O	0.611888	-0.366834	-0.125651
O5	O	0.388083	-0.633240	0.125751
O6	O	0.388087	-0.486233	-0.021256
O7	O	0.492482	-0.633242	0.021356
Zn8	Zn	0.421327	-0.578695	0.000050
Zn9	Zn	0.578643	-0.421379	0.000051
O10	O	0.492486	-0.486235	-0.125651
C11	C	0.386980	-0.226044	-0.030935
C12	C	0.431279	-0.137446	-0.024836
C13	C	0.300580	-0.269040	-0.031540
C14	C	0.386982	-0.356040	-0.030943
C15	C	0.431285	-0.406433	-0.024853
C16	C	0.300583	-0.398838	-0.031548
C17	C	0.256979	-0.356045	-0.030935
C18	C	0.162281	-0.406444	-0.024835
C19	C	0.430386	-0.269035	-0.031548
O20	O	-0.125719	-0.633251	0.021369
O21	O	0.125681	-0.486243	-0.021239
O22	O	-0.021314	-0.633255	0.125767
O23	O	0.021276	-0.486239	-0.125636
O24	O	-0.021317	-0.513858	0.125774
O25	O	0.125678	-0.366846	-0.021231
O26	O	-0.125722	-0.513854	0.021377
Zn27	Zn	-0.000023	-0.421393	0.000074
Zn28	Zn	-0.000019	-0.578704	0.000064
O29	O	0.021272	-0.366842	-0.125629
C30	C	0.612987	-0.356040	-0.386951
C31	C	0.568685	-0.406438	-0.431250
C32	C	0.699386	-0.269033	-0.430357
C33	C	0.612988	-0.356038	-0.256951
C34	C	0.568688	-0.406435	-0.162253
C35	C	0.699387	-0.269032	-0.300554
C36	C	0.742988	-0.226038	-0.386954
C37	C	0.837686	-0.137438	-0.431255
C38	C	0.569583	-0.398836	-0.300552
C39	C	0.742982	-0.644047	0.031065
C40	C	0.837678	-0.593652	0.024971
C41	C	0.699380	-0.731055	0.031674
C42	C	0.612983	-0.644043	0.031058
C43	C	0.568684	-0.593643	0.024957
C44	C	0.569578	-0.731050	0.031667
C45	C	0.612982	-0.774047	0.031064
C46	C	0.568682	-0.862649	0.024970
C47	C	0.699381	-0.601247	0.031668
O48	O	0.492478	0.104346	0.021375
O49	O	0.388078	-0.104446	-0.021232
O50	O	0.388083	-0.104458	0.125773
O51	O	0.492473	0.104358	-0.125630
O52	O	0.507487	-0.104454	0.125766
O53	O	0.507482	-0.104442	-0.021240
O54	O	0.611882	0.104350	0.021368
Zn55	Zn	0.578640	-0.000046	0.000063
Zn56	Zn	0.421320	-0.000051	0.000073
O57	O	0.611877	0.104362	-0.125638
O58	O	1.125688	0.104365	-0.492462
O59	O	0.874289	-0.104433	-0.388057
O60	O	1.021286	-0.104439	-0.388053
O61	O	0.978691	0.104371	-0.492466
O62	O	1.021283	-0.104442	-0.507453
O63	O	0.874286	-0.104436	-0.507457
O64	O	1.125685	0.104362	-0.611862
Zn65	Zn	0.999985	-0.000037	-0.578617
Zn66	Zn	0.999989	-0.000033	-0.421302
O67	O	0.978688	0.104368	-0.611867
O68	O	0.507485	-0.513838	-0.611849
O69	O	0.611885	-0.366837	-0.507452
O70	O	0.611882	-0.513842	-0.507444
O71	O	0.507487	-0.366833	-0.611857
O72	O	0.492480	-0.633244	-0.388041
O73	O	0.492482	-0.486240	-0.388049
O74	O	0.388082	-0.633240	-0.492446
Zn75	Zn	0.421325	-0.578698	-0.421290
Zn76	Zn	0.578642	-0.421380	-0.578608
O77	O	0.388085	-0.486235	-0.492454
C78	C	0.256980	-0.774037	0.387053
C79	C	0.162283	-0.862638	0.431354
C80	C	0.300582	-0.731043	0.430457
C81	C	0.386981	-0.644036	0.257051
C82	C	0.431282	-0.593639	0.162353
C83	C	0.430386	-0.601239	0.300653
C84	C	0.386981	-0.644036	0.387052
C85	C	0.431282	-0.593639	0.431351
C86	C	0.300582	-0.731043	0.300654
C87	C	-0.031002	-0.644069	0.387076
C88	C	-0.024905	-0.593677	0.431380
C89	C	-0.031606	-0.731075	0.430478
C90	C	-0.031005	-0.644060	0.257071
C91	C	-0.024913	-0.593659	0.162373
C92	C	-0.031609	-0.731067	0.300670
C93	C	-0.030998	-0.774065	0.387070
C94	C	-0.024898	-0.862666	0.431367
C95	C	-0.031613	-0.601268	0.300676
C96	C	0.030957	-0.226033	-0.386933
C97	C	0.024857	-0.137433	-0.431231
C98	C	0.031564	-0.269024	-0.430340
C99	C	0.030964	-0.356038	-0.256933
C100	C	0.024871	-0.406439	-0.162235
C101	C	0.031571	-0.398831	-0.300538
C102	C	0.030960	-0.356030	-0.386937
C103	C	0.024864	-0.406423	-0.431240
C104	C	0.031568	-0.269031	-0.300533
C105	C	0.386985	-0.356095	0.387059
C106	C	0.431287	-0.406495	0.431353
C107	C	0.300585	-0.398901	0.430467
C108	C	0.386983	-0.226079	0.257066
C109	C	0.431284	-0.137465	0.162371
C110	C	0.300583	-0.269082	0.300671
C111	C	0.256982	-0.356100	0.387067
C112	C	0.162284	-0.406505	0.431370
C113	C	0.430389	-0.269077	0.300663
O114	O	0.021327	-0.486273	0.611977
O115	O	-0.021299	-0.633279	0.507581
O116	O	0.125711	-0.486272	0.507563
O117	O	-0.125683	-0.633280	0.611996
O118	O	0.125697	-0.366871	0.388165
O119	O	-0.021314	-0.513878	0.388184
O120	O	0.021313	-0.366872	0.492580
Zn121	Zn	-0.000003	-0.421418	0.421425
Zn122	Zn	0.000016	-0.578733	0.578736
O123	O	-0.125697	-0.513879	0.492598
C124	C	0.742978	0.356003	-0.386932
C125	C	0.837676	0.406407	-0.431235
C126	C	0.699375	0.398804	-0.430331
C127	C	0.612977	0.225983	-0.256931
C128	C	0.568677	0.137368	-0.162235
C129	C	0.569571	0.268981	-0.300527
C130	C	0.612976	0.355999	-0.386923
C131	C	0.568674	0.406400	-0.431217
C132	C	0.699377	0.268985	-0.300536
H133	H	0.265581	-0.468849	-0.032526
N134	N	0.254242	-0.778714	0.524500
H135	H	0.251050	-0.728005	0.528117
H136	H	0.287900	-0.799602	0.562814
H137	H	0.265577	-0.233098	0.265664
N138	N	-0.032893	-0.778747	0.524509
H139	H	-0.087390	-0.850749	0.562910
H140	H	-0.033141	-0.738208	0.545434
H141	H	0.032540	-0.233033	-0.501330
N142	N	0.745747	-0.508502	0.032948
H143	H	0.807216	-0.487781	0.033230
H144	H	0.712084	-0.524660	0.087445
H145	H	0.032551	-0.468843	-0.265530
N146	N	0.524416	-0.221377	-0.032842
H147	H	0.562818	-0.149368	-0.087333
H148	H	0.545335	-0.261914	-0.033108
N149	N	0.254216	-0.491641	0.524500
H150	H	0.294966	-0.512360	0.545498
H151	H	0.199899	-0.549086	0.528029
N152	N	0.475609	-0.778592	0.032770
H153	H	0.454628	-0.738083	0.032987
H154	H	0.437152	-0.850626	0.087212
N155	N	0.745758	-0.221372	-0.524386
H156	H	0.807220	-0.159615	-0.545384
H157	H	0.712090	-0.200547	-0.562726
N158	N	0.475554	-0.491577	-0.254174
H159	H	0.454552	-0.512298	-0.294921
H160	H	0.437220	-0.475411	-0.236675
N161	N	0.475535	0.221315	-0.254174
H162	H	0.471931	0.272026	-0.250973
H163	H	0.454581	0.159546	-0.192734
N164	N	0.524432	-0.221381	0.254300
H165	H	0.545432	-0.159608	0.192844
H166	H	0.527991	-0.272134	0.251137
N167	N	0.254215	-0.778692	0.254276
H168	H	0.192746	-0.840440	0.295024
H169	H	0.287877	-0.799528	0.236774
N170	N	0.745741	-0.778726	0.032974
H171	H	0.807209	-0.738260	0.033255
H172	H	0.748869	-0.779123	-0.020945
N173	N	-0.032895	-0.778724	0.254301
H174	H	-0.033178	-0.738254	0.192832
H175	H	-0.087391	-0.850728	0.287966
H176	H	0.032476	-0.233094	-0.265505
N177	N	0.524377	-0.508418	0.254247
H178	H	0.545365	-0.487671	0.192765
H179	H	0.562790	-0.524467	0.287857
H180	H	0.734382	0.468821	-0.501321
H181	H	0.734395	0.233017	-0.265530
N182	N	-0.032902	-0.508526	0.254302
H183	H	-0.033182	-0.487808	0.295052
H184	H	-0.087402	-0.524688	0.236801
H185	H	0.734391	-0.233053	-0.265546
N186	N	0.254210	-0.221375	-0.032846
H187	H	0.294959	-0.159624	-0.033131
H188	H	0.199892	-0.272161	0.021069
