data_functionalizedCrystal
_audit_creation_method	'MofGen! by Chris Wilmer'
_symmetry_space_group_name_H-M	'P1'
_symmetry_Int_Tables_number	1
_symmetry_cell_setting	triclinic
loop_
_symmetry_equiv_pos_as_xyz
  x,y,z
_cell_length_a	14.519731
_cell_length_b	14.853567
_cell_length_c	13.596369
_cell_angle_alpha	89.997808
_cell_angle_beta	89.994584
_cell_angle_gamma	83.661892
loop_
_atom_site_label
_atom_site_type_symbol
_atom_site_fract_x
_atom_site_fract_y
_atom_site_fract_z
O1	O	-1.223808	-0.118272	0.081785
O2	O	-0.723808	0.381728	0.581785
O3	O	-0.955328	-0.132169	0.081785
O4	O	-0.455328	0.367831	0.581785
O5	O	-1.096740	0.006006	0.081788
O6	O	-0.596740	0.506006	0.581788
O7	O	-1.082397	-0.256447	0.081782
O8	O	-0.582397	0.243553	0.581782
O9	O	-1.096726	0.006013	-0.081795
O10	O	-0.596726	0.506013	0.418205
O11	O	-0.955314	-0.132162	-0.081797
O12	O	-0.455314	0.367838	0.418203
O13	O	-1.223794	-0.118265	-0.081798
O14	O	-0.723794	0.381735	0.418202
Zn15	Zn	-1.089552	-0.125212	-0.107770
Zn16	Zn	-0.589552	0.374788	0.392230
Zn17	Zn	-1.089571	-0.125222	0.107758
Zn18	Zn	-0.589571	0.374778	0.607758
O19	O	-1.082383	-0.256440	-0.081801
O20	O	-0.582383	0.243560	0.418199
C21	C	-0.920962	-0.131514	-0.000006
C22	C	-0.420962	0.368486	0.499994
C23	C	-0.818583	-0.129563	-0.000005
C24	C	-0.318583	0.370437	0.499995
C25	C	-1.096083	0.039598	-0.000000
C26	C	-0.596083	0.539598	0.500000
C27	C	-1.094135	0.139683	0.000008
C28	C	-0.594135	0.639683	0.500008
C29	C	-1.258160	-0.118920	-0.000005
C30	C	-0.758160	0.381080	0.499995
C31	C	-1.360540	-0.120871	0.000001
C32	C	-0.860540	0.379129	0.500001
C33	C	-0.735439	-0.127978	-0.000001
C34	C	-0.235439	0.372022	0.499999
C35	C	-0.631131	-0.125996	-0.000001
C36	C	-0.131131	0.374004	0.499999
C37	C	-0.547993	-0.124424	-0.000001
C38	C	-0.047993	0.375576	0.499999
C39	C	-0.443678	-0.122443	0.000001
C40	C	0.056322	0.377557	0.500001
N41	N	-1.089546	-0.125205	-0.254862
N42	N	-0.589546	0.374795	0.245138
C43	C	-1.083040	-0.290032	-0.000010
C44	C	-0.583040	0.209968	0.499990
C45	C	-1.084987	-0.390117	-0.000012
C46	C	-0.584987	0.109883	0.499988
C47	C	-1.001901	0.552260	-0.000010
C48	C	-0.501901	1.052260	0.499990
C49	C	-1.169902	0.573463	-0.000011
C50	C	-0.669902	1.073463	0.499989
C51	C	-1.171733	0.479428	-0.000005
C52	C	-0.671733	0.979428	0.499995
C53	C	-1.088647	0.421805	-0.000003
C54	C	-0.588647	0.921805	0.499997
C55	C	-1.003730	0.458216	-0.000008
C56	C	-0.503730	0.958216	0.499992
C57	C	-1.256648	0.443010	-0.000011
C58	C	-0.756648	0.943010	0.499989
C59	C	-1.258483	0.348970	-0.000006
C60	C	-0.758483	0.848970	0.499994
C61	C	-1.175396	0.291345	0.000003
C62	C	-0.675396	0.791345	0.500003
C63	C	-1.090476	0.327761	-0.000000
C64	C	-0.590476	0.827761	0.500000
C65	C	-1.007390	0.270138	0.000001
C66	C	-0.507390	0.770138	0.500001
C67	C	-0.922469	0.306552	0.000005
C68	C	-0.422469	0.806552	0.500005
C69	C	-0.920643	0.400591	0.000001
C70	C	-0.420643	0.900591	0.500001
C71	C	-1.177221	0.197306	0.000007
C72	C	-0.677221	0.697306	0.500007
C73	C	-1.009219	0.176094	0.000004
C74	C	-0.509219	0.676094	0.500004
C75	C	-1.089569	-0.125223	-0.656153
C76	C	-0.589569	0.374777	-0.156153
C77	C	-1.089560	-0.125221	-0.544501
C78	C	-0.589560	0.374779	-0.044501
C79	C	-1.089558	-0.125215	-0.455511
C80	C	-0.589558	0.374785	0.044489
C81	C	-1.089548	-0.125211	-0.343852
C82	C	-0.589548	0.374789	0.156148
N83	N	-1.089584	-0.125222	0.254849
N84	N	-0.589584	0.374778	0.754849
H85	H	-0.941559	0.129182	0.000009
H86	H	-0.441559	0.629182	0.500009
H87	H	-0.932761	0.581913	-0.000003
H88	H	-0.432761	1.081913	0.499997
C89	C	-1.348036	0.506400	-0.000019
C90	C	-0.848036	1.006400	0.499981
N91	N	-1.416872	0.554150	-0.000025
N92	N	-0.916872	1.054150	0.499975
H93	H	-1.327631	0.319330	-0.000008
H94	H	-0.827631	0.819330	0.499992
C95	C	-0.831077	0.243155	0.000007
C96	C	-0.331077	0.743155	0.500007
N97	N	-0.762244	0.195400	0.000009
N98	N	-0.262244	0.695400	0.500009
C99	C	-1.261290	0.636851	-0.000017
C100	C	-0.761290	1.136851	0.499983
N101	N	-1.330128	0.684599	-0.000021
N102	N	-0.830128	1.184599	0.499979
H103	H	-0.851505	0.430248	0.000003
H104	H	-0.351505	0.930248	0.500003
C105	C	-1.270629	0.157254	0.000002
C106	C	-0.770629	0.657254	0.500002
N107	N	-1.340988	0.127088	0.000002
N108	N	-0.840988	0.627088	0.500002
