data_functionalizedCrystal
_audit_creation_method	'MofGen! by Chris Wilmer'
_symmetry_space_group_name_H-M	'P1'
_symmetry_Int_Tables_number	1
_symmetry_cell_setting	triclinic
loop_
_symmetry_equiv_pos_as_xyz
  x,y,z
_cell_length_a	6.817900
_cell_length_b	17.982959
_cell_length_c	10.992410
_cell_angle_alpha	94.193478
_cell_angle_beta	108.764651
_cell_angle_gamma	102.451857
loop_
_atom_site_label
_atom_site_type_symbol
_atom_site_fract_x
_atom_site_fract_y
_atom_site_fract_z
V1	V	-4.082291	-0.105413	-0.401130
O2	O	-4.073912	0.005065	-0.392942
O3	O	-4.028461	-0.209015	-0.398917
O4	O	-4.060375	-0.103791	-0.575834
O5	O	-4.041777	-0.100887	-0.214800
V6	V	-4.563191	-0.092198	-0.378779
O7	O	-4.349303	-0.134400	-0.450158
O8	O	-4.746375	-0.063211	-0.329750
O9	O	-4.393814	0.011405	-0.380991
O10	O	-4.688967	-0.202676	-0.386967
O11	O	-4.721101	-0.096723	-0.565108
O12	O	-4.361900	-0.093820	-0.204074
C13	C	-3.871284	-0.234271	-0.392726
C14	C	-3.908735	-0.318968	-0.392082
C15	C	-3.911992	-0.100046	-0.618399
C16	C	-3.975320	-0.099406	-0.761224
C17	C	-4.109221	-0.362639	-0.398207
C18	C	-4.144402	-0.442221	-0.397609
C19	C	-3.979090	-0.478130	-0.390877
C20	C	-3.778590	-0.434453	-0.384754
C21	C	-3.743416	-0.354873	-0.385362
C22	C	-3.920439	-0.755389	-0.382307
C23	C	-3.955627	-0.834974	-0.381696
C24	C	-4.321425	-0.842736	-0.394555
C25	C	-4.286251	-0.763157	-0.395162
C26	C	-4.085759	-0.719488	-0.389047
C27	C	-4.047615	-0.633196	-0.389698
C28	C	-4.017227	-0.564419	-0.390216
C29	C	-3.844212	-0.093573	-0.956318
C30	C	-3.778364	-0.094555	-0.807840
C31	C	-4.150562	-0.174528	-0.838711
C32	C	-4.215077	-0.173864	-0.987274
C33	C	-4.136942	-0.028401	-0.948502
C34	C	-4.066341	-0.028045	-0.799487
C35	C	-4.214332	0.036657	-0.387179
C36	C	-4.156121	0.121353	-0.387831
C37	C	-4.173624	-0.097567	-0.161502
C38	C	-4.089534	-0.098203	-0.018676
H39	H	-4.243836	-0.333408	-0.403678
H40	H	-3.580164	-0.319317	-0.380379
O41	O	-3.603421	-0.023006	-0.736795
H42	H	-3.458275	-0.039843	-0.678399
H43	H	-4.208721	-0.027163	-0.766971
O44	O	-3.777320	-0.873706	-0.374446
H45	H	-3.827636	-0.917917	-0.461877
H46	H	-3.705768	-0.145404	-0.783284
H47	H	-4.420866	-0.733924	-0.400638
H48	H	-4.183492	-0.226716	-1.033813
O49	O	-4.372922	-0.032009	-1.002633
H50	H	-4.440519	-0.036434	-0.923307
H51	H	-4.484681	-0.878302	-0.399536
O52	O	-4.360630	-0.489325	-0.404197
H53	H	-4.469660	-0.450984	-0.408958
O54	O	-4.453532	-0.182519	-1.043806
H55	H	-4.522303	-0.187166	-0.965012
O56	O	-4.347242	-0.182838	-0.800602
H57	H	-4.322112	-0.133398	-0.725847
H58	H	-3.757187	-0.719842	-0.377320
O59	O	-3.600283	-0.473178	-0.377505
H60	H	-3.658415	-0.535851	-0.378103
H61	H	-3.743496	-0.039186	-0.974870
H62	H	-3.804069	-0.143726	-1.004566
O63	O	-4.068686	-0.244716	-0.805176
H64	H	-3.903315	-0.226281	-0.733387
H65	H	-3.939934	0.027527	-0.746846
O66	O	-4.023523	0.047168	-0.975066
H67	H	-3.932088	0.035815	-1.038589
