data_functionalizedCrystal
_audit_creation_method	'MofGen! by Chris Wilmer'
_symmetry_space_group_name_H-M	'P1'
_symmetry_Int_Tables_number	1
_symmetry_cell_setting	triclinic
loop_
_symmetry_equiv_pos_as_xyz
  x,y,z
_cell_length_a	19.076808
_cell_length_b	19.077236
_cell_length_c	19.076919
_cell_angle_alpha	90.112677
_cell_angle_beta	90.121640
_cell_angle_gamma	94.519737
loop_
_atom_site_label
_atom_site_type_symbol
_atom_site_fract_x
_atom_site_fract_y
_atom_site_fract_z
Zn1	Zn	-0.255469	1.048453	0.429870
Zn2	Zn	-0.368252	1.048749	0.307652
Zn3	Zn	-0.255100	0.935682	0.307665
Zn4	Zn	-0.377641	0.926207	0.419997
O5	O	-0.314115	0.989773	0.366296
O6	O	-0.266655	1.146971	0.417783
O7	O	-0.349158	1.037840	0.209493
O8	O	-0.156664	0.954483	0.328013
O9	O	-0.349516	1.147189	0.327990
O10	O	-0.156935	1.037335	0.417796
O11	O	-0.266026	0.954771	0.209503
O12	O	-0.275130	0.835946	0.318440
O13	O	-0.365518	0.938333	0.519467
O14	O	-0.365160	0.828985	0.400970
O15	O	-0.275759	1.028147	0.526720
O16	O	-0.467982	1.028652	0.318417
O17	O	-0.474880	0.938621	0.400957
C18	C	-0.321124	0.806931	0.358636
C19	C	-0.324141	0.728709	0.355375
C20	C	-0.282491	0.691842	0.400659
C21	C	-0.285321	0.618344	0.397589
C22	C	-0.329806	0.581715	0.349238
C23	C	-0.371457	0.618588	0.303949
C24	C	-0.368623	0.692084	0.307016
C25	C	-0.342898	0.361918	0.335042
C26	C	-0.345731	0.288416	0.331979
C27	C	-0.259593	0.288178	0.425619
C28	C	-0.256766	0.361676	0.428684
C29	C	-0.298415	0.398542	0.383393
N30	N	-0.332702	0.506589	0.346100
N31	N	-0.295515	0.473667	0.386528
C32	C	-0.496966	0.982659	0.358631
C33	C	-0.575189	0.979679	0.355377
C34	C	-0.612022	1.021380	0.400629
C35	C	-0.685521	1.018577	0.397574
C36	C	-0.722186	0.974076	0.349263
C37	C	-0.685348	0.932370	0.304009
C38	C	-0.611851	0.935170	0.307068
C39	C	-0.941990	0.961078	0.335099
C40	C	-1.015493	0.958283	0.332042
C41	C	-1.015661	1.044489	0.425608
C42	C	-0.942162	1.047288	0.428660
C43	C	-0.905331	1.005579	0.383409
N44	N	-0.797313	0.971212	0.346137
N45	N	-0.830205	1.008441	0.386539
C46	C	-0.130550	0.996933	0.374007
C47	C	-0.052326	0.999984	0.377294
C48	C	-0.321727	0.982150	0.549257
C49	C	-0.324971	0.978902	0.627224
C50	C	-0.307079	1.173328	0.373986
C51	C	-0.304081	1.251549	0.377263
C52	C	-0.306481	0.997408	0.184050
C53	C	-0.303034	1.000801	0.106097
C54	C	-0.279764	1.024134	0.667631
C55	C	-0.282809	1.021074	0.740889
C56	C	-0.331065	0.972783	0.773740
C57	C	-0.376274	0.927546	0.733328
C58	C	-0.373225	0.930604	0.660071
C59	C	-0.345193	0.958621	0.992429
C60	C	-0.348241	0.955568	1.065691
C61	C	-0.254774	1.049095	1.073247
C62	C	-0.251732	1.052152	0.999989
C63	C	-0.296938	1.006912	0.959583
N64	N	-0.334181	0.969655	0.848621
N65	N	-0.293819	1.010037	0.884703
H66	H	-0.376812	0.391925	0.298163
H67	H	-0.410031	0.893763	0.627173
H68	H	-0.220544	0.391494	0.468059
O69	O	-0.244839	0.582639	0.441650
C70	C	-0.159072	0.590161	0.534823
C71	C	-0.204897	0.630683	0.484975
H72	H	-0.126757	0.628988	0.569854
H73	H	-0.194257	0.552993	0.568703
H74	H	-0.122240	0.558498	0.502773
H75	H	-0.241735	0.662386	0.516970
H76	H	-0.169670	0.667809	0.451093
H77	H	-0.581862	0.901211	0.270220
H78	H	-0.240470	1.063460	0.640890
O79	O	-0.409189	0.727861	0.263100
C80	C	-0.526554	0.747102	0.224747
C81	C	-0.480698	0.706548	0.274536
H82	H	-0.584377	0.729875	0.233966
H83	H	-0.516947	0.805929	0.235244
H84	H	-0.512277	0.735489	0.168130
H85	H	-0.494948	0.718102	0.331171
H86	H	-0.490312	0.647733	0.263978
O87	O	-0.423222	0.880732	0.765270
C88	C	-0.522018	0.864104	0.843621
C89	C	-0.468901	0.917196	0.807481
H90	H	-0.558954	0.893563	0.877769
H91	H	-0.553857	0.832307	0.802186
H92	H	-0.492529	0.827125	0.877702
H93	H	-0.498335	0.954220	0.773404
H94	H	-0.437064	0.948942	0.848952
H95	H	-0.225684	0.258154	0.462491
O96	O	-0.238868	1.065087	0.780035
C97	C	-0.145818	1.158153	0.779799
C98	C	-0.195554	1.108358	0.735383
H99	H	-0.110776	1.193140	0.743716
H100	H	-0.178112	1.192305	0.814267
H101	H	-0.111712	1.125837	0.814303
H102	H	-0.229671	1.140618	0.700838
H103	H	-0.163218	1.074204	0.700960
H104	H	-0.212438	1.091477	0.973247
O105	O	-0.576447	1.064527	0.447656
C106	C	-0.557578	1.094497	0.569370
C107	C	-0.597901	1.045576	0.516184
H108	H	-0.574919	1.079203	0.624785
H109	H	-0.498714	1.089331	0.563845
H110	H	-0.569284	1.151213	0.558843
H111	H	-0.586253	0.988840	0.526677
H112	H	-0.656752	1.050803	0.521721
H113	H	-1.045657	1.078445	0.462450
H114	H	-0.217969	1.085926	1.106153
O115	O	-0.395208	0.908688	1.097527
C116	C	-0.517161	0.868939	1.113527
C117	C	-0.464050	0.922057	1.077412
H118	H	-0.572832	0.879739	1.097289
H119	H	-0.506431	0.813263	1.097252
H120	H	-0.511535	0.874523	1.172823
H121	H	-0.469646	0.916537	1.018111
H122	H	-0.474795	0.977712	1.093744
O123	O	-0.906438	1.090496	0.475532
C124	C	-0.793290	1.132976	0.521744
C125	C	-0.833658	1.084023	0.468619
H126	H	-0.734441	1.127749	0.516183
H127	H	-0.804950	1.189713	0.511256
H128	H	-0.810603	1.117670	0.577165
H129	H	-0.816369	1.099266	0.413178
H130	H	-0.821996	1.027299	0.479169
O131	O	-0.389138	0.914775	0.953118
C132	C	-0.481118	0.905028	0.866064
C133	C	-0.431375	0.954769	0.910528
H134	H	-0.515290	0.937343	0.831630
H135	H	-0.448830	0.870927	0.831535
H136	H	-0.516095	0.869982	0.902151
H137	H	-0.396388	0.989859	0.874493
H138	H	-0.463706	0.988821	0.945063
H139	H	-0.246268	0.721660	0.440033
H140	H	-0.407674	0.588759	0.264577
O141	O	-0.721045	0.889101	0.257171
C142	C	-0.807335	0.791304	0.240218
C143	C	-0.766971	0.840266	0.293339
H144	H	-0.844465	0.751799	0.269440
H145	H	-0.839010	0.823821	0.203497
H146	H	-0.768368	0.762012	0.208387
H147	H	-0.805889	0.869568	0.325218
H148	H	-0.735285	0.807710	0.330013
O149	O	-1.051003	0.914987	0.285092
C150	C	-1.043083	0.829802	0.192587
C151	C	-1.002781	0.878786	0.245732
H152	H	-1.004112	0.800530	0.160740
H153	H	-1.080249	0.790287	0.221756
H154	H	-1.074729	0.862367	0.155886
H155	H	-0.971095	0.846278	0.282446
H156	H	-0.965657	0.918303	0.216518
H157	H	-0.381959	0.258595	0.292605
H158	H	-0.715507	1.052540	0.434417
H159	H	-0.912008	0.927118	0.298252
