data_functionalizedCrystal
_audit_creation_method	'MofGen! by Chris Wilmer'
_symmetry_space_group_name_H-M	'P1'
_symmetry_Int_Tables_number	1
_symmetry_cell_setting	triclinic
loop_
_symmetry_equiv_pos_as_xyz
  x,y,z
_cell_length_a	21.295418
_cell_length_b	21.295417
_cell_length_c	21.395356
_cell_angle_alpha	89.969378
_cell_angle_beta	89.957220
_cell_angle_gamma	90.046319
loop_
_atom_site_label
_atom_site_type_symbol
_atom_site_fract_x
_atom_site_fract_y
_atom_site_fract_z
Zn1	Zn	0.962350	-0.250359	-0.354570
Zn2	Zn	1.295683	0.082974	-0.021236
Zn3	Zn	1.629017	0.416307	0.312097
Zn4	Zn	0.962254	-0.355628	-0.249787
Zn5	Zn	1.295587	-0.022294	0.083547
Zn6	Zn	1.628921	0.311039	0.416880
Zn7	Zn	0.857075	-0.250405	-0.249771
Zn8	Zn	1.190408	0.082928	0.083562
Zn9	Zn	1.523741	0.416261	0.416895
Zn10	Zn	0.857042	-0.355624	-0.354492
Zn11	Zn	1.190376	-0.022290	-0.021158
Zn12	Zn	1.523709	0.311043	0.312175
O13	O	0.909680	-0.303004	-0.302155
O14	O	1.243014	0.030329	0.031179
O15	O	1.576347	0.363663	0.364512
O16	O	1.050427	-0.264306	-0.340709
O17	O	1.383760	0.069027	-0.007376
O18	O	1.717093	0.402361	0.325958
O19	O	0.948275	-0.341691	-0.162107
O20	O	1.281609	-0.008357	0.171227
O21	O	1.614942	0.324976	0.504560
O22	O	0.871093	-0.162310	-0.263699
O23	O	1.204427	0.171023	0.069634
O24	O	1.537760	0.504357	0.402968
O25	O	1.050356	-0.341646	-0.263725
O26	O	1.383689	-0.008313	0.069608
O27	O	1.717023	0.325021	0.402941
O28	O	0.948439	-0.162276	-0.340694
O29	O	1.281772	0.171057	-0.007361
O30	O	1.615105	0.504391	0.325973
O31	O	0.871000	-0.264384	-0.162095
O32	O	1.204334	0.068949	0.171238
O33	O	1.537667	0.402282	0.504571
O34	O	0.768981	-0.264380	-0.263624
O35	O	1.102314	0.068953	0.069710
O36	O	1.435648	0.402286	0.403043
O37	O	0.871038	-0.341639	-0.442180
O38	O	1.204372	-0.008306	-0.108847
O39	O	1.537705	0.325027	0.224487
O40	O	0.768957	-0.341684	-0.340561
O41	O	1.102291	-0.008351	-0.007228
O42	O	1.435624	0.324983	0.326105
O43	O	0.948407	-0.264302	-0.442237
O44	O	1.281741	0.069031	-0.108904
O45	O	1.615074	0.402365	0.224430
O46	O	0.948244	-0.443717	-0.263650
O47	O	1.281577	-0.110383	0.069683
O48	O	1.614911	0.222950	0.403017
O49	O	0.870945	-0.443714	-0.340576
O50	O	1.204279	-0.110380	-0.007243
O51	O	1.537612	0.222953	0.326090
C52	C	0.746129	-0.303037	-0.302083
C53	C	1.079462	0.030296	0.031251
C54	C	1.412795	0.363629	0.364584
C55	C	0.676160	-0.303067	-0.302067
C56	C	1.009494	0.030267	0.031267
C57	C	1.342827	0.363600	0.364600
C58	C	0.643298	-0.343372	-0.342068
C59	C	0.976631	-0.010038	-0.008735
C60	C	1.309965	0.323295	0.324598
C61	C	0.577555	-0.343356	-0.342096
C62	C	0.910889	-0.010023	-0.008763
C63	C	1.244222	0.323310	0.324570
C64	C	0.544678	-0.303042	-0.302112
C65	C	0.878011	0.030291	0.031222
C66	C	1.211345	0.363625	0.364555
C67	C	0.577549	-0.262729	-0.262107
C68	C	0.910882	0.070604	0.071226
C69	C	1.244215	0.403938	0.404559
C70	C	0.643290	-0.262741	-0.262085
C71	C	0.976623	0.070592	0.071249
C72	C	1.309956	0.403925	0.404582
N73	N	0.441403	-0.298124	-0.247311
N74	N	0.774736	0.035210	0.086022
N75	N	1.108070	0.368543	0.419355
N76	N	0.378952	-0.298116	-0.247335
N77	N	0.712285	0.035218	0.085999
N78	N	1.045618	0.368551	0.419332
C79	C	0.346603	-0.303002	-0.302178
C80	C	0.679937	0.030331	0.031155
C81	C	1.013270	0.363665	0.364488
N82	N	0.379066	-0.307909	-0.356999
N83	N	0.712399	0.025425	-0.023666
N84	N	1.045733	0.358758	0.309668
N85	N	0.441523	-0.307920	-0.356975
N86	N	0.774856	0.025413	-0.023642
N87	N	1.108190	0.358747	0.309692
C88	C	0.473393	-0.303024	-0.302132
C89	C	0.806726	0.030309	0.031201
C90	C	1.140059	0.363643	0.364535
C91	C	0.242455	-0.343293	-0.342214
C92	C	0.575789	-0.009959	-0.008880
C93	C	0.909122	0.323374	0.324453
C94	C	0.176712	-0.343273	-0.342243
C95	C	0.510045	-0.009939	-0.008910
C96	C	0.843378	0.323394	0.324424
C97	C	0.176706	-0.262649	-0.262248
C98	C	0.510039	0.070685	0.071085
C99	C	0.843373	0.404018	0.404418
C100	C	0.242448	-0.262665	-0.262225
C101	C	0.575782	0.070668	0.071109
C102	C	0.909115	0.404001	0.404442
C103	C	0.275319	-0.302991	-0.302207
C104	C	0.608652	0.030343	0.031127
C105	C	0.941986	0.363676	0.364460
C106	C	0.909598	-0.466556	-0.302120
C107	C	1.242931	-0.133222	0.031213
C108	C	1.576264	0.200111	0.364547
C109	C	0.909620	-0.536524	-0.302126
C110	C	1.242953	-0.203191	0.031207
C111	C	1.576287	0.130143	0.364540
C112	C	0.949905	-0.569371	-0.262112
C113	C	1.283238	-0.236038	0.071222
C114	C	1.616572	0.097296	0.404555
C115	C	0.949935	-0.635114	-0.262126
C116	C	1.283268	-0.301780	0.071208
C117	C	1.616601	0.031553	0.404541
C118	C	0.909668	-0.668006	-0.302148
C119	C	1.243001	-0.334673	0.031186
C120	C	1.576334	-0.001340	0.364519
C121	C	0.869380	-0.635151	-0.342170
C122	C	1.202713	-0.301818	-0.008837
C123	C	1.536047	0.031516	0.324497
C124	C	0.869356	-0.569410	-0.342159
C125	C	1.202689	-0.236077	-0.008826
C126	C	1.536023	0.097257	0.324507
N127	N	0.854601	-0.771287	-0.306900
N128	N	1.187934	-0.437954	0.026433
N129	N	1.521267	-0.104621	0.359767
N130	N	0.854625	-0.833739	-0.306907
N131	N	1.187959	-0.500405	0.026427
N132	N	1.521292	-0.167072	0.359760
C133	C	0.909738	-0.866081	-0.302184
C134	C	1.243072	-0.532748	0.031150
C135	C	1.576405	-0.199414	0.364483
N136	N	0.964827	-0.833612	-0.297442
N137	N	1.298161	-0.500279	0.035892
N138	N	1.631494	-0.166946	0.369225
N139	N	0.964802	-0.771155	-0.297432
N140	N	1.298135	-0.437822	0.035901
N141	N	1.631469	-0.104489	0.369235
C142	C	0.909690	-0.739292	-0.302164
C143	C	1.243023	-0.405958	0.031169
C144	C	1.576356	-0.072625	0.364502
C145	C	0.950059	-0.970214	-0.262182
C146	C	1.283392	-0.636880	0.071151
C147	C	1.616726	-0.303547	0.404484
C148	C	0.950089	-1.035957	-0.262201
C149	C	1.283423	-0.702624	0.071132
C150	C	1.616756	-0.369291	0.404466
C151	C	0.869529	-1.035994	-0.342242
C152	C	1.202862	-0.702660	-0.008909
C153	C	1.536196	-0.369327	0.324425
C154	C	0.869504	-0.970251	-0.342227
C155	C	1.202837	-0.636918	-0.008893
C156	C	1.536171	-0.303585	0.324440
C157	C	0.909768	-0.937365	-0.302194
C158	C	1.243101	-0.604032	0.031140
C159	C	1.576435	-0.270699	0.364473
C160	C	1.073871	-0.302971	-0.302228
C161	C	1.407204	0.030362	0.031106
C162	C	1.740537	0.363695	0.364439
C163	C	1.143839	-0.302957	-0.302259
C164	C	1.477172	0.030376	0.031075
C165	C	1.810505	0.363709	0.364408
C166	C	0.909730	-0.302965	-0.465578
C167	C	1.243063	0.030368	-0.132245
C168	C	1.576396	0.363702	0.201089
C169	C	0.909751	-0.302948	-0.535219
C170	C	1.243084	0.030385	-0.201886
C171	C	1.576418	0.363718	0.131447
C172	C	0.909780	-0.138814	-0.302203
C173	C	1.243114	0.194520	0.031130
C174	C	1.576447	0.527853	0.364463
C175	C	0.909823	-0.068846	-0.302224
C176	C	1.243156	0.264488	0.031109
C177	C	1.576490	0.597821	0.364443
C178	C	0.869525	-0.262690	-0.567917
C179	C	1.202858	0.070643	-0.234583
C180	C	1.536191	0.403976	0.098750
C181	C	0.869523	-0.262679	-0.633352
C182	C	1.202856	0.070655	-0.300019
C183	C	1.536189	0.403988	0.033314
C184	C	0.909758	-0.302918	-0.666088
C185	C	1.243091	0.030415	-0.332755
C186	C	1.576425	0.363748	0.000579
C187	C	0.949987	-0.343184	-0.633383
C188	C	1.283320	-0.009851	-0.300049
C189	C	1.616654	0.323482	0.033284
C190	C	0.949983	-0.343199	-0.567948
C191	C	1.283317	-0.009866	-0.234615
C192	C	1.616650	0.323467	0.098718
C193	C	0.966475	-0.307852	-0.769793
C194	C	1.299808	0.025481	-0.436459
C195	C	1.633142	0.358815	-0.103126
C196	C	0.966479	-0.307832	-0.835226
C197	C	1.299813	0.025501	-0.501892
C198	C	1.633146	0.358834	-0.168559
C199	C	0.909768	-0.302876	-0.867909
C200	C	1.243102	0.030457	-0.534575
C201	C	1.576435	0.363791	-0.201242
C202	C	0.853051	-0.297926	-0.835151
C203	C	1.186384	0.035408	-0.501817
C204	C	1.519718	0.368741	-0.168484
C205	C	0.853047	-0.297941	-0.769716
C206	C	1.186381	0.035393	-0.436383
C207	C	1.519714	0.368726	-0.103050
C208	C	0.909766	-0.302907	-0.737040
C209	C	1.243099	0.030426	-0.403707
C210	C	1.576433	0.363760	-0.070374
C211	C	0.869536	-0.262603	-0.971559
C212	C	1.202870	0.070730	-0.638225
C213	C	1.536203	0.404063	-0.304892
C214	C	0.869533	-0.262596	-1.036995
C215	C	1.202866	0.070737	-0.703662
C216	C	1.536200	0.404071	-0.370329
C217	C	0.950003	-0.343098	-1.037024
C218	C	1.283336	-0.009765	-0.703691
C219	C	1.616670	0.323569	-0.370358
C220	C	0.950001	-0.343109	-0.971589
C221	C	1.283334	-0.009775	-0.638256
C222	C	1.616667	0.323558	-0.304922
C223	C	0.909768	-0.302858	-0.938860
C224	C	1.243101	0.030475	-0.605527
C225	C	1.576435	0.363809	-0.272193
C226	C	0.909667	-0.302998	-0.139367
C227	C	1.243001	0.030336	0.193966
C228	C	1.576334	0.363669	0.527299
C229	C	0.909768	-0.302837	-0.069726
C230	C	1.243101	0.030497	0.263607
C231	C	1.576435	0.363830	0.596940
H232	H	0.149956	-0.376093	-0.374821
H233	H	0.483289	-0.042759	-0.041488
H234	H	0.816623	0.290574	0.291846
N235	N	0.826049	-0.934818	-0.385381
N236	N	1.159382	-0.601485	-0.052048
N237	N	1.492715	-0.268151	0.281286
H238	H	0.800543	-0.965629	-0.410737
H239	H	1.133876	-0.632296	-0.077403
H240	H	1.467209	-0.298963	0.255930
H241	H	0.796922	-0.907595	-0.359833
H242	H	1.130255	-0.574262	-0.026500
H243	H	1.463588	-0.240928	0.306834
N244	N	0.993382	-0.670544	-0.218954
N245	N	1.326715	-0.337211	0.114379
N246	N	1.660049	-0.003877	0.447712
H247	H	0.967816	-0.697867	-0.189896
H248	H	1.301149	-0.364533	0.143438
H249	H	1.634483	-0.031200	0.476771
H250	H	1.022548	-0.697735	-0.244492
H251	H	1.355881	-0.364402	0.088841
H252	H	1.689214	-0.031069	0.422174
N253	N	0.826136	-0.219201	-0.936255
N254	N	1.159469	0.114132	-0.602921
N255	N	1.492802	0.447466	-0.269588
H256	H	0.832240	-0.225316	-0.889840
H257	H	1.165573	0.108017	-0.556507
H258	H	1.498907	0.441351	-0.223173
H259	H	0.835959	-0.174239	-0.947715
H260	H	1.169292	0.159094	-0.614381
H261	H	1.502625	0.492428	-0.281048
H262	H	0.670057	-0.376207	-0.374626
H263	H	1.003391	-0.042874	-0.041292
H264	H	1.336724	0.290460	0.292041
H265	H	0.982743	-0.375981	-0.541327
H266	H	1.316076	-0.042648	-0.207993
H267	H	1.649410	0.290685	0.125340
H268	H	1.012660	-0.311883	-0.743188
H269	H	1.345993	0.021451	-0.409854
H270	H	1.679326	0.354784	-0.076521
H271	H	0.550776	-0.229904	-0.229553
H272	H	0.884109	0.103429	0.103781
H273	H	1.217442	0.436763	0.437114
H274	H	0.836772	-0.229815	-1.063616
H275	H	1.170105	0.103518	-0.730283
H276	H	1.503438	0.436852	-0.396950
N277	N	1.027649	-0.313171	-0.870555
N278	N	1.360982	0.020162	-0.537222
N279	N	1.694316	0.353496	-0.203889
H280	H	1.063574	-0.316322	-0.839923
H281	H	1.396907	0.017011	-0.506590
H282	H	1.730241	0.350344	-0.173257
H283	H	1.026715	-0.351952	-0.897692
H284	H	1.360048	-0.018618	-0.564358
H285	H	1.693382	0.314715	-0.231025
N286	N	0.678739	-0.219263	-0.218943
N287	N	1.012072	0.114070	0.114390
N288	N	1.345406	0.447404	0.447723
H289	H	0.647938	-0.193717	-0.193619
H290	H	0.981272	0.139616	0.139714
H291	H	1.314605	0.472949	0.473047
H292	H	0.705959	-0.244850	-0.189889
H293	H	1.039292	0.088484	0.143445
H294	H	1.372626	0.421817	0.476778
H295	H	0.982898	-1.062701	-0.229618
H296	H	1.316232	-0.729367	0.103716
H297	H	1.649565	-0.396034	0.437049
H298	H	0.149938	-0.229821	-0.229695
H299	H	0.483271	0.103512	0.103638
H300	H	0.816604	0.436845	0.436972
H301	H	0.269205	-0.229848	-0.229648
H302	H	0.602539	0.103486	0.103686
H303	H	0.935872	0.436819	0.437019
H304	H	0.982765	-0.375861	-1.063677
H305	H	1.316098	-0.042527	-0.730344
H306	H	1.649431	0.290806	-0.397010
H307	H	0.982747	-0.375948	-0.660040
H308	H	1.316080	-0.042615	-0.326707
H309	H	1.649413	0.290719	0.006627
H310	H	0.836746	-1.062774	-0.374831
H311	H	1.170079	-0.729441	-0.041498
H312	H	1.503412	-0.396108	0.291835
N313	N	0.542100	-0.386829	-0.385244
N314	N	0.875433	-0.053495	-0.051910
N315	N	1.208767	0.279838	0.281423
H316	H	0.572899	-0.412375	-0.410569
H317	H	0.906233	-0.079041	-0.077235
H318	H	1.239566	0.254292	0.256098
H319	H	0.514767	-0.415918	-0.359690
H320	H	0.848101	-0.082584	-0.026357
H321	H	1.181434	0.250749	0.306976
N322	N	0.826140	-0.219272	-0.532616
N323	N	1.159474	0.114061	-0.199283
N324	N	1.492807	0.447395	0.134050
H325	H	0.800659	-0.193764	-0.563263
H326	H	1.133992	0.139569	-0.229930
H327	H	1.467326	0.472902	0.103403
H328	H	0.796987	-0.244898	-0.505435
H329	H	1.130320	0.088435	-0.172102
H330	H	1.463653	0.421769	0.161231
N331	N	0.277914	-0.386778	-0.385339
N332	N	0.611248	-0.053445	-0.052006
N333	N	0.944581	0.279888	0.281328
H334	H	0.305129	-0.415923	-0.359811
H335	H	0.638462	-0.082590	-0.026478
H336	H	0.971796	0.250743	0.306856
H337	H	0.247077	-0.412264	-0.410679
H338	H	0.580411	-0.078931	-0.077346
H339	H	0.913744	0.254402	0.255987
N340	N	0.826134	-0.219257	-0.668630
N341	N	1.159467	0.114076	-0.335296
N342	N	1.492800	0.447410	-0.001963
H343	H	0.800646	-0.193762	-0.637967
H344	H	1.133979	0.139571	-0.304633
H345	H	1.467312	0.472905	0.028700
H346	H	0.851782	-0.190118	-0.695804
H347	H	1.185115	0.143215	-0.362471
H348	H	1.518449	0.476549	-0.029138
N349	N	0.993340	-0.533901	-0.218944
N350	N	1.326673	-0.200568	0.114389
N351	N	1.660007	0.132765	0.447722
H352	H	1.018868	-0.564690	-0.193600
H353	H	1.352202	-0.231356	0.139733
H354	H	1.685535	0.101977	0.473066
H355	H	1.022447	-0.506578	-0.244487
H356	H	1.355781	-0.173245	0.088846
H357	H	1.689114	0.160089	0.422179
N358	N	0.825950	-0.670624	-0.385339
N359	N	1.159284	-0.337290	-0.052006
N360	N	1.492617	-0.003957	0.281328
H361	H	0.832076	-0.717255	-0.379273
H362	H	1.165410	-0.383922	-0.045940
H363	H	1.498743	-0.050589	0.287394
H364	H	0.780994	-0.659190	-0.375530
H365	H	1.114327	-0.325857	-0.042197
H366	H	1.447660	0.007477	0.291137
H367	H	0.836550	-0.542665	-0.374745
H368	H	1.169884	-0.209332	-0.041411
H369	H	1.503217	0.124002	0.291922
N370	N	0.993485	-0.934738	-0.219008
N371	N	1.326818	-0.601405	0.114325
N372	N	1.660151	-0.268071	0.447658
H373	H	1.019014	-0.965525	-0.193664
H374	H	1.352347	-0.632192	0.139670
H375	H	1.685681	-0.298858	0.473003
H376	H	1.022591	-0.907406	-0.244543
H377	H	1.355925	-0.574073	0.088791
H378	H	1.689258	-0.240739	0.422124
H379	H	0.806866	-0.293911	-0.743047
H380	H	1.140199	0.039422	-0.409714
H381	H	1.473533	0.372756	-0.076381
N382	N	0.791875	-0.292613	-0.870390
N383	N	1.125208	0.040720	-0.537057
N384	N	1.458541	0.374054	-0.203724
H385	H	0.800479	-0.293370	-0.916813
H386	H	1.133812	0.039963	-0.583480
H387	H	1.467146	0.373297	-0.250146
H388	H	0.763734	-0.329038	-0.858904
H389	H	1.097068	0.004296	-0.525570
H390	H	1.430401	0.337629	-0.192237
H391	H	0.982759	-0.375890	-0.944967
H392	H	1.316092	-0.042556	-0.611633
H393	H	1.649425	0.290777	-0.278300
