data_functionalizedCrystal
_audit_creation_method	'MofGen! by Chris Wilmer'
_symmetry_space_group_name_H-M	'P1'
_symmetry_Int_Tables_number	1
_symmetry_cell_setting	triclinic
loop_
_symmetry_equiv_pos_as_xyz
  x,y,z
_cell_length_a	23.532407
_cell_length_b	16.109301
_cell_length_c	14.586319
_cell_angle_alpha	90.000787
_cell_angle_beta	89.991566
_cell_angle_gamma	96.844921
loop_
_atom_site_label
_atom_site_type_symbol
_atom_site_fract_x
_atom_site_fract_y
_atom_site_fract_z
O1	O	0.073202	-1.102555	-0.076192
O2	O	0.082312	-0.860422	-0.076208
O3	O	-0.005148	-0.988790	-0.076183
O4	O	0.160662	-0.974187	-0.076217
O5	O	-0.005149	-0.988781	0.076298
O6	O	0.082311	-0.860413	0.076273
O7	O	0.073201	-1.102546	0.076289
Cu8	Cu	0.077756	-0.981479	0.090204
Cu9	Cu	0.077757	-0.981489	-0.090123
O10	O	0.160660	-0.974178	0.076264
C11	C	-0.026366	-0.988414	0.000060
C12	C	-0.089587	-0.987296	0.000067
C13	C	0.081942	-0.829445	0.000031
C14	C	0.080836	-0.737159	0.000026
C15	C	0.073570	-1.133523	0.000048
C16	C	0.074677	-1.225809	0.000047
C17	C	-0.488436	-1.056249	0.000021
C18	C	-0.547840	-1.055210	0.000014
O19	O	-0.584349	-1.119130	-0.000015
N20	N	-0.570748	-0.978895	0.000010
C21	C	-0.534248	-0.903614	0.000003
O22	O	-0.559187	-0.838607	-0.000002
C23	C	-0.474845	-0.904654	0.000004
C24	C	-0.451941	-0.980973	0.000018
C25	C	-0.465531	-1.132562	0.000034
C26	C	-0.406131	-1.133601	0.000043
C27	C	-0.369636	-1.058325	0.000039
C28	C	-0.392541	-0.982012	0.000026
C29	C	-0.438346	-0.829373	-0.000009
C30	C	-0.378940	-0.830419	-0.000009
C31	C	-0.356036	-0.906739	0.000004
C32	C	-0.296645	-0.907774	0.000031
N33	N	-0.273738	-0.984089	0.000035
C34	C	-0.310233	-1.059365	0.000039
C35	C	-0.658998	-0.901437	0.000001
C36	C	-0.718400	-0.900396	0.000007
C37	C	-0.731988	-1.051993	0.000016
C38	C	-0.672585	-1.053032	0.000017
C39	C	-0.636091	-0.977752	0.000005
C40	C	-0.185488	-1.061539	0.000058
C41	C	-0.126082	-1.062571	0.000071
C42	C	-0.112499	-0.910975	0.000057
C43	C	-0.171900	-0.909943	0.000049
C44	C	-0.208394	-0.985232	0.000047
O45	O	-0.260102	-0.843888	0.000057
O46	O	-0.285285	-1.124361	0.000032
C47	C	0.181878	-0.974554	0.000019
C48	C	0.245100	-0.975672	0.000006
N49	N	0.077754	-0.981477	0.217035
C50	C	0.130160	-0.514498	0.000026
C51	C	0.129116	-0.427786	0.000032
C52	C	0.025348	-0.448476	0.000050
C53	C	0.026393	-0.535187	0.000050
C54	C	0.078801	-0.568195	0.000034
C55	C	0.076712	-0.394773	0.000039
C56	C	0.075580	-0.300755	0.000046
C57	C	0.079933	-0.662218	0.000029
N58	N	0.077754	-0.981497	-0.216954
C59	C	0.039040	-1.038338	0.452053
C60	C	0.039039	-1.038340	0.548034
C61	C	0.116470	-0.924631	0.548021
C62	C	0.116468	-0.924625	0.452042
C63	C	0.077754	-0.981483	0.404060
C64	C	0.077754	-0.981491	0.596021
C65	C	0.077753	-0.981494	0.700088
C66	C	0.077754	-0.981480	0.299986
H67	H	-0.215195	-1.122847	0.000053
H68	H	-0.107437	-1.124722	0.000084
C69	C	-0.347213	-1.222727	-0.078340
C70	C	-0.380960	-1.217495	0.000043
H71	H	-0.331675	-1.274521	-0.078338
H72	H	-0.370099	-1.219166	-0.131503
H73	H	-0.316971	-1.178048	-0.078329
H74	H	-0.411204	-1.262170	0.000028
H75	H	-0.358072	-1.221064	0.053220
C76	C	0.128809	-0.811398	0.655976
C77	C	0.159026	-0.862142	0.600771
H78	H	0.155083	-0.772825	0.688544
H79	H	0.105103	-0.781686	0.618543
H80	H	0.105754	-0.845270	0.698290
H81	H	0.182078	-0.828270	0.558451
H82	H	0.182742	-0.891856	0.638206
C83	C	-0.584320	-0.814644	0.078386
C84	C	-0.618883	-0.818682	0.000002
H85	H	-0.559555	-0.763557	0.078381
H86	H	-0.607782	-0.817388	0.131548
H87	H	-0.562175	-0.860242	0.078378
H88	H	-0.641032	-0.773087	0.000013
H89	H	-0.595419	-0.815929	-0.053174
H90	H	-0.017320	-0.421590	0.000069
C91	C	-0.032635	-0.644702	0.078445
C92	C	-0.030066	-0.594218	0.000058
H93	H	-0.067491	-0.681141	0.078453
H94	H	-0.001278	-0.676766	0.078434
H95	H	-0.030889	-0.610435	0.131611
H96	H	-0.031809	-0.628485	-0.053108
H97	H	-0.061432	-0.562152	0.000061
C98	C	-0.037502	-1.150726	0.461710
C99	C	-0.003520	-1.100827	0.399311
H100	H	-0.063780	-1.189300	0.429149
H101	H	-0.013790	-1.180437	0.499132
H102	H	-0.057990	-1.116280	0.499157
H103	H	0.016972	-1.135272	0.361868
H104	H	-0.027234	-1.071114	0.361872
C105	C	-0.472979	-1.282507	0.000060
C106	C	-0.505641	-1.215315	0.000046
H107	H	-0.497740	-1.333598	0.000079
H108	H	-0.449526	-1.279761	-0.053113
H109	H	-0.449527	-1.279736	0.053234
H110	H	-0.529090	-1.218083	-0.053132
H111	H	-0.529103	-1.218063	0.053225
H112	H	0.007514	-1.084635	0.587107
H113	H	0.170939	-0.384069	0.000028
C114	C	0.215054	-0.874988	0.422456
C115	C	0.159028	-0.862129	0.399281
H116	H	0.241325	-0.836408	0.389879
H117	H	0.220593	-0.866851	0.486477
H118	H	0.221241	-0.930423	0.406716
H119	H	0.152839	-0.806695	0.415028
H120	H	0.153486	-0.870259	0.335246
C121	C	-0.613664	-1.142156	-0.078362
C122	C	-0.647409	-1.136923	0.000022
H123	H	-0.598121	-1.193947	-0.078356
H124	H	-0.636552	-1.138604	-0.131524
H125	H	-0.583425	-1.097473	-0.078357
H126	H	-0.677651	-1.181603	0.000013
H127	H	-0.624520	-1.140484	0.053198
C128	C	-0.829087	-1.117701	-0.000009
C129	C	-0.772112	-1.134739	0.000004
H130	H	-0.853857	-1.168783	-0.000023
H131	H	-0.836033	-1.086396	0.053162
H132	H	-0.836011	-1.086381	-0.053185
H133	H	-0.765186	-1.166055	0.053185
H134	H	-0.765163	-1.166058	-0.053172
C135	C	-0.698987	-0.750657	-0.000004
C136	C	-0.743572	-0.816503	-0.000001
H137	H	-0.714527	-0.698864	-0.000018
H138	H	-0.676111	-0.754215	0.053170
H139	H	-0.676093	-0.754230	-0.053177
H140	H	-0.766464	-0.812934	0.053176
H141	H	-0.766458	-0.812944	-0.053180
C142	C	-0.418923	-0.679638	-0.000046
C143	C	-0.463511	-0.745478	-0.000033
H144	H	-0.434460	-0.627842	-0.000067
H145	H	-0.396046	-0.683192	0.053129
H146	H	-0.396030	-0.683220	-0.053219
H147	H	-0.486402	-0.741900	0.053144
H148	H	-0.486398	-0.741922	-0.053212
H149	H	-0.190549	-0.847797	0.000064
C150	C	-0.304247	-0.743638	-0.078404
C151	C	-0.338826	-0.747666	-0.000021
H152	H	-0.279486	-0.692548	-0.078410
H153	H	-0.282102	-0.789228	-0.078387
H154	H	-0.327703	-0.746393	-0.131573
H155	H	-0.315369	-0.744917	0.053148
H156	H	-0.360972	-0.702063	-0.000029
H157	H	-0.082774	-0.849688	0.000057
H158	H	0.172834	-0.541371	0.000019
