data_functionalizedCrystal
_audit_creation_method	'MofGen! by Chris Wilmer'
_symmetry_space_group_name_H-M	'P1'
_symmetry_Int_Tables_number	1
_symmetry_cell_setting	triclinic
loop_
_symmetry_equiv_pos_as_xyz
  x,y,z
_cell_length_a	15.944545
_cell_length_b	15.021413
_cell_length_c	11.026607
_cell_angle_alpha	90.006856
_cell_angle_beta	83.958906
_cell_angle_gamma	90.004532
loop_
_atom_site_label
_atom_site_type_symbol
_atom_site_fract_x
_atom_site_fract_y
_atom_site_fract_z
O1	O	1.138183	0.073971	-0.156458
O2	O	0.896551	0.073985	-0.175762
O3	O	0.997341	0.073976	0.010544
O4	O	1.037394	0.073980	-0.342764
O5	O	0.997325	-0.074089	0.010518
O6	O	0.896535	-0.074079	-0.175789
O7	O	1.138167	-0.074093	-0.156484
Zn8	Zn	1.017348	-0.097595	-0.166141
Zn9	Zn	1.017370	0.097486	-0.166106
O10	O	1.037377	-0.074084	-0.342791
C11	C	0.865128	-0.000046	-0.174975
C12	C	0.771519	-0.000040	-0.172577
C13	C	0.482346	-0.000051	-0.049929
C14	C	0.541858	-0.073056	-0.109073
C15	C	0.434582	-0.000055	-0.164023
C16	C	0.541860	0.072924	-0.109077
C17	C	0.600130	-0.000046	-0.168219
C18	C	0.492862	-0.073121	-0.223137
C19	C	0.492857	0.072925	-0.223124
C20	C	0.552349	-0.000098	-0.282352
C21	C	0.339214	-0.000061	-0.161602
C22	C	0.695497	-0.000047	-0.170649
N23	N	1.017339	-0.230732	-0.166164
C24	C	0.970719	-0.470412	-0.252271
C25	C	1.050181	-0.529750	-0.275828
C26	C	1.017356	-0.412339	-0.166134
C27	C	0.937919	-0.529743	-0.142604
C28	C	1.017366	-0.587763	-0.166107
C29	C	1.096865	-0.470372	-0.189745
C30	C	0.984546	-0.470359	-0.056473
C31	C	1.064056	-0.529670	-0.079983
C32	C	1.017350	-0.311282	-0.166152
C33	C	1.017381	-0.688819	-0.166088
C34	C	1.169590	-0.000061	-0.157271
C35	C	1.263199	-0.000061	-0.159670
C36	C	0.989944	-0.000055	0.055742
C37	C	0.967917	-0.000051	0.190457
N38	N	1.017384	0.230624	-0.166073
C39	C	1.044774	-0.000052	-0.387988
C40	C	1.066801	-0.000050	-0.522704
C41	C	1.028737	-0.000053	0.264260
C42	C	1.005973	-0.000048	0.403495
H43	H	0.451839	-0.000123	0.048331
C44	C	1.159918	-0.000055	0.423429
H45	H	1.195122	-0.000049	0.487790
H46	H	1.171036	-0.051688	0.374629
H47	H	1.171044	0.051585	0.374649
H48	H	1.103554	-0.555526	-0.007124
C49	C	0.571104	-0.156428	-0.043996
H50	H	0.546963	-0.156340	0.038533
H51	H	0.553549	-0.208271	-0.083719
H52	H	0.630850	-0.156093	-0.046631
C53	C	0.874807	-0.000044	0.244339
H54	H	0.871722	-0.000048	0.330853
H55	H	0.847633	0.051589	0.217712
H56	H	0.847625	-0.051684	0.217705
H57	H	0.956767	-0.444251	0.036223
H58	H	0.471324	-0.134907	-0.271297
H59	H	1.097660	-0.000062	0.224365
H60	H	1.077940	-0.555837	-0.368554
H61	H	0.582706	-0.000140	-0.380687
C62	C	0.463585	0.156304	-0.288142
H63	H	0.480228	0.208127	-0.247462
H64	H	0.488539	0.156829	-0.370257
H65	H	0.403918	0.155407	-0.286792
H66	H	0.937045	-0.000038	0.443384
H67	H	0.870737	-0.555824	-0.122715
H68	H	0.931339	-0.444392	-0.325174
C69	C	0.571087	0.156300	-0.043952
H70	H	0.546928	0.156204	0.038569
H71	H	0.630827	0.155993	-0.046579
H72	H	0.553517	0.208142	-0.083654
H73	H	1.164078	-0.444402	-0.209746
