data_functionalizedCrystal
_audit_creation_method	'MofGen! by Chris Wilmer'
_symmetry_space_group_name_H-M	'P1'
_symmetry_Int_Tables_number	1
_symmetry_cell_setting	triclinic
loop_
_symmetry_equiv_pos_as_xyz
  x,y,z
_cell_length_a	12.759401
_cell_length_b	18.101397
_cell_length_c	12.759393
_cell_angle_alpha	89.957984
_cell_angle_beta	90.018496
_cell_angle_gamma	89.974726
loop_
_atom_site_label
_atom_site_type_symbol
_atom_site_fract_x
_atom_site_fract_y
_atom_site_fract_z
Zn1	Zn	1.606179	0.294783	0.593905
Zn2	Zn	1.606042	0.418644	0.418193
Zn3	Zn	1.430481	0.294822	0.418244
Zn4	Zn	1.430438	0.418587	0.593835
O5	O	1.518285	0.356709	0.506044
O6	O	1.753182	0.311221	0.570604
O7	O	1.582714	0.402259	0.271179
O8	O	1.453864	0.191183	0.441597
O9	O	1.753081	0.402221	0.441510
O10	O	1.582948	0.191155	0.570654
O11	O	1.453730	0.311287	0.271216
O12	O	1.283455	0.311232	0.441529
O13	O	1.453790	0.402124	0.740865
O14	O	1.283423	0.402162	0.570534
O15	O	1.582906	0.311166	0.740917
O16	O	1.582672	0.522270	0.441441
O17	O	1.453657	0.522228	0.570484
C18	C	1.245318	0.356695	0.506030
C19	C	1.128541	0.356707	0.506049
C20	C	1.518173	0.549120	0.505973
C21	C	1.518221	0.631434	0.505977
C22	C	1.073690	0.404131	0.573111
C23	C	0.963966	0.404140	0.573122
C24	C	0.963954	0.309301	0.439001
C25	C	1.073676	0.309288	0.438995
C26	C	1.128555	0.451550	0.640164
C27	C	1.073704	0.498977	0.707231
C28	C	0.963980	0.498987	0.707242
C29	C	0.909107	0.451568	0.640187
C30	C	1.518321	0.930525	0.506041
C31	C	1.599271	0.899195	0.424636
C32	C	1.599561	0.813576	0.424856
C33	C	1.518272	0.782142	0.506008
C34	C	1.548286	0.813140	0.616746
C35	C	1.548903	0.898785	0.616293
C36	C	1.407144	0.899036	0.477669
C37	C	1.407703	0.813387	0.475207
C38	C	1.518242	0.698283	0.505997
C39	C	1.518353	1.014384	0.506059
C40	C	1.792318	0.356723	0.506059
C41	C	1.909095	0.356729	0.506066
C42	C	1.518359	0.356634	0.780078
C43	C	1.518390	0.356602	0.896855
C44	C	1.518397	1.163547	0.506112
C45	C	1.518371	1.081233	0.506072
C46	C	1.518272	0.356730	0.233077
C47	C	1.518445	0.356553	0.116301
C48	C	1.585630	0.309236	0.951745
C49	C	1.585655	0.309209	1.061469
C50	C	1.451197	0.403922	1.061402
C51	C	1.451167	0.403944	0.951680
C52	C	1.652853	0.261894	0.896919
C53	C	1.720099	0.214524	0.951810
C54	C	1.720124	0.214497	1.061534
C55	C	1.652903	0.261840	1.116368
H56	H	1.217898	0.451549	0.640161
H57	H	1.492526	0.919506	0.679036
H58	H	1.118337	0.270667	0.384395
H59	H	1.774822	0.175974	0.907158
H60	H	1.628647	0.791630	0.641190
H61	H	1.118389	0.537579	0.761831
H62	H	1.580783	0.792622	0.342746
H63	H	1.396468	0.442466	1.106056
Br64	Br	0.889484	0.244953	0.348003
H65	H	1.774872	0.175921	1.106224
H66	H	1.580715	0.919845	0.342275
H67	H	1.630169	0.918701	0.640327
Br68	Br	1.652920	0.261790	1.265281
Br69	Br	0.889541	0.563343	0.798270
H70	H	0.819762	0.451573	0.640211
H71	H	1.396398	0.442503	0.906987
Br72	Br	1.735787	0.934969	0.455557
Br73	Br	1.453021	0.779212	0.720567
Br74	Br	1.736831	0.779326	0.456155
H75	H	1.379833	0.920704	0.398316
Br76	Br	1.369970	0.779630	0.339380
Br77	Br	1.301769	0.777737	0.566799
Br78	Br	1.306616	0.932805	0.576488
H79	H	1.652842	0.261912	0.807577
