data_functionalizedCrystal
_audit_creation_method	'MofGen! by Chris Wilmer'
_symmetry_space_group_name_H-M	'P1'
_symmetry_Int_Tables_number	1
_symmetry_cell_setting	triclinic
loop_
_symmetry_equiv_pos_as_xyz
  x,y,z
_cell_length_a	12.759394
_cell_length_b	10.686220
_cell_length_c	10.686551
_cell_angle_alpha	89.691918
_cell_angle_beta	85.593446
_cell_angle_gamma	85.603467
loop_
_atom_site_label
_atom_site_type_symbol
_atom_site_fract_x
_atom_site_fract_y
_atom_site_fract_z
Zn1	Zn	-0.256139	-1.972288	-0.562381
Zn2	Zn	-0.446299	-1.956059	-0.352619
Zn3	Zn	-0.283015	-1.746406	-0.368698
Zn4	Zn	-0.444170	-1.762489	-0.578397
O5	O	-0.357405	-1.859311	-0.465524
O6	O	-0.271007	-2.145677	-0.521124
O7	O	-0.436778	-1.914725	-0.179206
O8	O	-0.132423	-1.776431	-0.394417
O9	O	-0.410717	-2.133754	-0.367013
O10	O	-0.112677	-1.942386	-0.536715
O11	O	-0.316813	-1.760695	-0.191020
O12	O	-0.314749	-1.572998	-0.409947
O13	O	-0.407088	-1.803842	-0.751818
O14	O	-0.433149	-1.584814	-0.564012
O15	O	-0.268943	-1.957980	-0.740052
O16	O	-0.593043	-1.930320	-0.382543
O17	O	-0.591479	-1.788105	-0.548421
C18	C	-0.376635	-1.533390	-0.490463
C19	C	-0.384885	-1.393962	-0.501162
C20	C	-0.630379	-1.859233	-0.465499
C21	C	-0.747149	-1.859318	-0.465522
C22	C	-0.334780	-1.884515	-0.792725
C23	C	-0.325138	-1.895256	-0.932158
C24	C	-0.748709	-2.007536	-0.292904
C25	C	-0.804347	-2.081679	-0.206608
C26	C	-0.914062	-2.081755	-0.206636
C27	C	-0.968141	-2.007683	-0.292973
C28	C	-0.912503	-1.933540	-0.379270
C29	C	-0.802786	-1.933469	-0.379229
C30	C	-0.910942	-1.785331	-0.551891
C31	C	-0.801228	-1.785246	-0.551859
C32	C	-0.965022	-1.711259	-0.638228
C33	C	-0.909384	-1.637107	-0.724521
C34	C	-0.799663	-1.637033	-0.724488
C35	C	-0.745590	-1.711103	-0.638155
C36	C	-0.083362	-1.859425	-0.465573
C37	C	0.033420	-1.859473	-0.465595
C38	C	-0.338102	-2.186504	-0.440489
C39	C	-0.329875	-2.325934	-0.429820
C40	C	-0.379863	-1.834276	-0.139591
C41	C	-0.389194	-1.823778	-0.000139
H42	H	-0.659376	-2.007464	-0.292858
H43	H	-0.438301	-1.345530	-0.570423
H44	H	-0.262921	-1.964678	-0.980633
H45	H	-0.754368	-1.576663	-0.794765
Br46	Br	-0.492905	-1.708090	-0.919359
H47	H	-0.276469	-1.374359	-0.360555
Br48	Br	-1.117115	-2.007156	-0.292467
H49	H	-0.760306	-2.141990	-0.136315
Br50	Br	-1.113995	-1.710729	-0.637726
H51	H	-0.959362	-2.142135	-0.136372
Br52	Br	-0.596640	-1.711442	-0.638476
Br53	Br	-0.982779	-1.536605	-0.841690
