data_functionalizedCrystal
_audit_creation_method	'MofGen! by Chris Wilmer'
_symmetry_space_group_name_H-M	'P1'
_symmetry_Int_Tables_number	1
_symmetry_cell_setting	triclinic
loop_
_symmetry_equiv_pos_as_xyz
  x,y,z
_cell_length_a	6.817900
_cell_length_b	14.858565
_cell_length_c	17.329378
_cell_angle_alpha	91.531133
_cell_angle_beta	103.025558
_cell_angle_gamma	104.523916
loop_
_atom_site_label
_atom_site_type_symbol
_atom_site_fract_x
_atom_site_fract_y
_atom_site_fract_z
V1	V	-4.014702	-0.109647	-0.245216
O2	O	-3.997102	0.024827	-0.240322
O3	O	-3.971441	-0.236221	-0.243756
O4	O	-3.958697	-0.099379	-0.352064
O5	O	-4.009933	-0.112963	-0.131264
V6	V	-4.498650	-0.094576	-0.231560
O7	O	-4.275030	-0.142706	-0.275171
O8	O	-4.688520	-0.061518	-0.201605
O9	O	-4.318704	0.031998	-0.233020
O10	O	-4.633647	-0.229050	-0.236453
O11	O	-4.620816	-0.091260	-0.345511
O12	O	-4.331448	-0.104844	-0.124712
C13	C	-3.817938	-0.267345	-0.239943
C14	C	-3.863803	-0.370766	-0.239461
C15	C	-3.801681	-0.092788	-0.378100
C16	C	-3.837209	-0.085230	-0.465451
C17	C	-4.031673	-0.749473	-0.237708
C18	C	-3.984958	-0.644105	-0.238196
C19	C	-3.947739	-0.560123	-0.238584
C20	C	-3.901022	-0.454748	-0.239073
C21	C	-3.896741	-0.165963	-0.517854
C22	C	-3.930131	-0.158860	-0.599929
C23	C	-3.903973	-0.071024	-0.629598
C24	C	-3.844441	0.009715	-0.577188
C25	C	-3.811066	0.002610	-0.495115
C26	C	-4.002611	-0.045358	-0.876837
C27	C	-4.035985	-0.038259	-0.958917
C28	C	-4.121677	-0.206835	-0.981652
C29	C	-4.088286	-0.213931	-0.899576
C30	C	-4.028768	-0.133193	-0.847173
C31	C	-3.938095	-0.063761	-0.713492
C32	C	-3.994661	-0.140457	-0.763282
C33	C	-4.135550	0.063117	-0.236830
C34	C	-4.068923	0.166537	-0.237317
C35	C	-4.151807	-0.111438	-0.098671
C36	C	-4.095518	-0.118992	-0.011320
H37	H	-3.918031	-0.237488	-0.493704
H38	H	-3.823157	0.081233	-0.601352
H39	H	-4.109598	-0.285456	-0.875426
Br40	Br	-4.010939	-0.268431	-0.671047
H41	H	-4.014723	0.033270	-0.983070
Br42	Br	-4.202497	-0.316402	-1.052774
Br43	Br	-3.921657	0.064221	-0.805725
Br44	Br	-3.730322	0.112179	-0.423995
H45	H	-3.916795	0.007756	-0.737657
H46	H	-4.015967	-0.211973	-0.739122
