data_functionalizedCrystal
_audit_creation_method	'MofGen! by Chris Wilmer'
_symmetry_space_group_name_H-M	'P1'
_symmetry_Int_Tables_number	1
_symmetry_cell_setting	triclinic
loop_
_symmetry_equiv_pos_as_xyz
  x,y,z
_cell_length_a	6.817900
_cell_length_b	11.168129
_cell_length_c	13.212919
_cell_angle_alpha	87.887758
_cell_angle_beta	106.298290
_cell_angle_gamma	108.508637
loop_
_atom_site_label
_atom_site_type_symbol
_atom_site_fract_x
_atom_site_fract_y
_atom_site_fract_z
V1	V	-4.062865	-0.137537	-0.325534
O2	O	-4.023344	0.044854	-0.319327
O3	O	-4.039473	-0.309496	-0.323316
O4	O	-4.018649	-0.118640	-0.467506
O5	O	-4.044313	-0.147322	-0.174139
V6	V	-4.542710	-0.117704	-0.307425
O7	O	-4.332191	-0.181043	-0.365257
O8	O	-4.723581	-0.074198	-0.267701
O9	O	-4.342894	0.054255	-0.309642
O10	O	-4.699627	-0.300095	-0.313631
O11	O	-4.678658	-0.107919	-0.458819
O12	O	-4.363718	-0.136601	-0.165452
C13	C	-3.890423	-0.351940	-0.318183
C14	C	-3.952612	-0.492410	-0.317316
C15	C	-3.936649	-0.548274	-0.226066
C16	C	-4.000924	-0.693458	-0.225169
C17	C	-3.863858	-0.108483	-0.502110
C18	C	-3.909156	-0.094171	-0.618173
C19	C	-4.109585	-0.295166	-0.866110
C20	C	-4.152150	-0.281724	-0.975162
C21	C	-4.036866	-0.053847	-0.945333
C22	C	-3.994302	-0.067289	-0.836281
C23	C	-4.030662	-0.187952	-0.796673
C24	C	-3.988081	-0.201392	-0.687618
C25	C	-3.872814	0.026483	-0.657792
C26	C	-3.915378	0.039925	-0.766844
C27	C	-4.155288	0.096692	-0.314772
C28	C	-4.072337	0.237162	-0.315646
C29	C	-4.181852	-0.146762	-0.130843
C30	C	-4.115791	-0.161069	-0.014778
H31	H	-4.017679	-0.299642	-0.655372
H32	H	-3.875409	-0.488619	-0.148609
H33	H	-3.808523	0.113785	-0.601243
F34	F	-4.236154	-0.395836	-1.049059
H35	H	-4.139167	-0.393414	-0.833861
H36	H	-4.007292	0.044390	-0.977602
H37	H	-3.885790	0.138165	-0.799108
F38	F	-3.983182	-0.756281	-0.123051
F39	F	-4.032686	-0.570379	-0.418564
F40	F	-4.090056	-0.700023	-0.417767
