data_functionalizedCrystal
_audit_creation_method	'MofGen! by Chris Wilmer'
_symmetry_space_group_name_H-M	'P1'
_symmetry_Int_Tables_number	1
_symmetry_cell_setting	triclinic
loop_
_symmetry_equiv_pos_as_xyz
  x,y,z
_cell_length_a	27.440280
_cell_length_b	27.440280
_cell_length_c	20.875641
_cell_angle_alpha	62.433121
_cell_angle_beta	90.005468
_cell_angle_gamma	59.999099
loop_
_atom_site_label
_atom_site_type_symbol
_atom_site_fract_x
_atom_site_fract_y
_atom_site_fract_z
Zr1	Zr	0.471745	0.528895	-0.081230
O2	O	0.396676	0.625072	-0.180058
O3	O	0.494760	0.428904	-0.050920
O4	O	0.498353	0.523383	-0.180021
O5	O	0.390245	0.536271	0.050865
O6	O	0.578556	0.523374	-0.180009
O7	O	0.393082	0.530592	-0.050957
O8	O	0.572127	0.354368	0.050931
O9	O	0.396673	0.705277	-0.180074
O10	O	0.564427	0.471438	-0.038000
O11	O	0.502455	0.475682	0.037978
O12	O	0.506686	0.586919	-0.114022
O13	O	0.444715	0.591163	-0.038044
Zr14	Zr	0.595133	0.537937	0.081184
Zr15	Zr	0.599658	0.528881	-0.081210
Zr16	Zr	0.467220	0.537951	0.081163
Zr17	Zr	0.471741	0.656813	-0.081256
Zr18	Zr	0.595137	0.410019	0.081209
O19	O	0.572118	0.637929	0.050873
O20	O	0.578552	0.625052	-0.180029
O21	O	0.390242	0.637948	0.050844
O22	O	0.670202	0.441761	0.180012
O23	O	0.676636	0.428884	-0.050891
O24	O	0.488326	0.441780	0.179983
O25	O	0.676633	0.530562	-0.050911
O26	O	0.568525	0.543449	0.179975
O27	O	0.488323	0.543458	0.179962
O28	O	0.673796	0.536240	0.050910
O29	O	0.498347	0.705266	-0.180058
O30	O	0.568531	0.361567	0.180012
O31	O	0.670205	0.361556	0.180028
O32	O	0.673802	0.354357	0.050947
O33	O	0.393076	0.712475	-0.050993
O34	O	0.494751	0.712464	-0.050977
O35	O	0.560192	0.479913	0.113976
O36	O	0.622164	0.475669	0.037997
O37	O	0.564423	0.591150	-0.038025
O38	O	0.502451	0.595394	0.037954
C39	C	0.533444	0.373410	0.000009
C40	C	0.533446	0.319106	0.000020
C41	C	0.490816	0.023480	-0.056155
C42	C	0.490816	-0.027538	-0.056163
O43	O	0.454580	-0.019003	-0.103900
N44	N	0.533438	-0.094118	-0.000053
C45	C	0.576066	-0.109681	0.056064
O46	O	0.612320	-0.170997	0.103789
C47	C	0.576068	-0.058664	0.056069
C48	C	0.533440	0.007917	-0.000041
C49	C	0.448192	0.090057	-0.112261
C50	C	0.448191	0.141071	-0.112252
C51	C	0.490815	0.125508	-0.056137
C52	C	0.533440	0.058931	-0.000032
C53	C	0.618699	-0.074227	0.112182
C54	C	0.618698	-0.023203	0.112181
C55	C	0.576069	0.043377	0.056072
C56	C	0.576064	0.094381	0.056091
N57	N	0.533442	0.160961	-0.000019
C58	C	0.490818	0.176525	-0.056133
C59	C	0.576059	-0.216816	0.056051
C60	C	0.576055	-0.267833	0.056050
C61	C	0.490805	-0.185686	-0.056178
C62	C	0.490807	-0.134669	-0.056174
C63	C	0.533437	-0.150236	-0.000060
C64	C	0.490820	0.283654	-0.056110
C65	C	0.490822	0.334669	-0.056094
C66	C	0.576073	0.252518	0.056132
C67	C	0.576070	0.201508	0.056119
C68	C	0.533440	0.217081	-0.000009
O69	O	0.612282	0.085897	0.103802
O70	O	0.454575	0.237841	-0.103856
C71	C	0.373439	0.533433	-0.000049
C72	C	0.319136	0.533439	-0.000057
C73	C	0.012577	0.473126	0.039680
C74	C	-0.038442	0.473122	0.039687
O75	O	-0.039198	0.421858	0.073459
N76	N	-0.094099	0.533402	0.000004
C77	C	-0.098736	0.593689	-0.039683
O78	O	-0.150761	0.644961	-0.073435
C79	C	-0.047718	0.593692	-0.039685
C80	C	0.007938	0.533408	-0.000005
C81	C	0.068230	0.412847	0.079357
C82	C	0.119246	0.412851	0.079349
C83	C	0.114607	0.473133	0.039664
C84	C	0.058953	0.533412	-0.000013
C85	C	-0.052356	0.653978	-0.079366
C86	C	-0.001332	0.653976	-0.079364
C87	C	0.054324	0.593692	-0.039684
C88	C	0.105329	0.593698	-0.039706
N89	N	0.160986	0.533418	-0.000023
C90	C	0.165625	0.473136	0.039662
C91	C	-0.205875	0.593678	-0.039675
C92	C	-0.256892	0.593675	-0.039678
C93	C	-0.196594	0.473109	0.039693
C94	C	-0.145576	0.473112	0.039691
C95	C	-0.150218	0.533399	0.000008
C96	C	0.272758	0.473148	0.039642
C97	C	0.323775	0.473157	0.039628
C98	C	0.263472	0.593723	-0.039740
C99	C	0.212460	0.593715	-0.039729
C100	C	0.217106	0.533422	-0.000033
O101	O	0.106130	0.644936	-0.073458
O102	O	0.217651	0.421873	0.073417
C103	C	0.693439	0.533399	0.000002
C104	C	0.747742	0.533393	0.000011
C105	C	0.539099	0.522088	-0.203153
C106	C	0.541020	0.518244	-0.272093
C107	C	0.533434	0.693422	-0.000056
C108	C	0.533432	0.747726	-0.000067
C109	C	0.511783	0.576716	-0.344164
C110	C	0.513596	0.573100	-0.408938
C111	C	0.544642	0.511010	-0.401639
C112	C	0.573882	0.452534	-0.329561
C113	C	0.572073	0.456151	-0.264788
C114	C	0.553289	0.493729	-0.591103
C115	C	0.555095	0.490116	-0.655883
C116	C	0.494809	0.610683	-0.735256
C117	C	0.492999	0.614294	-0.670478
C118	C	0.522242	0.555818	-0.598406
N119	N	0.546494	0.507312	-0.467848
N120	N	0.520393	0.559516	-0.532199
C121	C	0.527779	0.544744	0.203106
C122	C	0.525858	0.548589	0.272046
C123	C	0.693445	0.373393	0.000035
C124	C	0.747749	0.319083	0.000054
C125	C	0.527784	0.384738	0.203138
C126	C	0.525865	0.334278	0.272090
C127	C	0.687785	0.384721	0.203164
C128	C	0.740168	0.334255	0.272124
C129	C	0.379093	0.682111	-0.203210
C130	C	0.326710	0.732577	-0.272170
C131	C	0.373433	0.693439	-0.000081
C132	C	0.319129	0.747750	-0.000101
C133	C	0.539094	0.682094	-0.203185
C134	C	0.541013	0.732554	-0.272136
C135	C	0.743113	0.291369	-0.039613
C136	C	0.794133	0.240345	-0.039610
C137	C	0.849789	0.217032	0.000066
C138	C	0.854424	0.244751	0.039734
C139	C	0.803404	0.295777	0.039726
C140	C	0.555101	0.312791	0.344147
C141	C	0.553296	0.265386	0.408940
C142	C	0.522257	0.239466	0.401674
C143	C	0.493016	0.260958	0.329610
C144	C	0.494819	0.308365	0.264818
C145	C	0.797122	0.308340	0.264848
C146	C	0.846347	0.260929	0.329637
C147	C	0.838617	0.239430	0.401701
C148	C	0.781657	0.265350	0.408975
C149	C	0.732433	0.312763	0.344187
C150	C	0.269756	0.758498	-0.264894
C151	C	0.220531	0.805925	-0.329683
C152	C	0.228261	0.827427	-0.401747
C153	C	0.285221	0.801504	-0.409022
C154	C	0.334445	0.754081	-0.344233
C155	C	0.323765	0.775468	0.039560
C156	C	0.272745	0.826505	0.039539
C157	C	0.217090	0.849820	-0.000139
C158	C	0.212455	0.822099	-0.039805
C159	C	0.263474	0.771066	-0.039788
C160	C	0.572058	0.758459	-0.264846
C161	C	0.573872	0.805865	-0.329627
C162	C	0.544639	0.827369	-0.401697
C163	C	0.513593	0.801458	-0.408985
C164	C	0.511782	0.754050	-0.344205
H165	H	0.413484	0.195280	-0.157948
Cl166	Cl	0.454000	0.228364	0.320489
Cl167	Cl	0.260023	0.731477	-0.174308
H168	H	0.276531	0.849068	0.071842
H169	H	0.471013	0.325854	0.206148
H170	H	0.380818	0.732976	-0.350167
Cl171	Cl	0.476839	0.828505	-0.499593
H172	H	0.790348	0.217782	-0.071913
Cl173	Cl	0.472745	0.721495	-0.353383
H174	H	0.174157	0.827024	-0.323746
Cl175	Cl	0.546919	0.886972	-0.483128
H176	H	0.413481	0.102741	-0.157960
H177	H	0.369078	0.756490	0.071876
Cl178	Cl	0.612913	0.374478	-0.320385
Cl179	Cl	0.590026	0.420215	-0.500506
H180	H	0.899745	0.225762	0.072037
H181	H	0.188175	0.866042	-0.454496
H182	H	0.892721	0.239830	0.323700
H183	H	0.489790	0.620714	-0.467619
Cl184	Cl	0.673153	0.320668	-0.089501
H185	H	0.175551	0.891375	-0.000147
Cl186	Cl	0.900505	0.179821	0.483143
Cl187	Cl	0.142483	0.851413	-0.089679
Cl188	Cl	0.453941	0.692352	-0.679661
Cl189	Cl	0.437227	0.418371	-0.126636
H190	H	0.259691	0.748498	-0.072082
Cl191	Cl	0.437217	-0.050972	-0.126716
H192	H	0.775372	0.247838	0.467658
Cl193	Cl	0.629653	0.232965	0.126674
H194	H	0.456108	0.296344	-0.101815
H195	H	0.595863	0.740959	-0.206169
H196	H	0.653412	-0.128433	0.157872
Cl197	Cl	0.437222	-0.166130	-0.126725
H198	H	0.610761	-0.322042	0.101747
Cl199	Cl	0.629652	-0.236397	0.126608
Cl200	Cl	0.660836	0.345332	0.353347
H201	H	0.595880	0.408536	-0.206105
H202	H	0.164560	0.363762	0.111657
H203	H	0.610775	0.147294	0.101815
H204	H	0.599152	0.826957	-0.323678
Cl205	Cl	0.294929	0.828539	-0.499622
H206	H	0.471002	0.658291	-0.793942
H207	H	0.369092	0.424065	0.071942
Cl208	Cl	0.278608	0.397350	0.089544
Cl209	Cl	0.672295	-0.042780	0.182728
Cl210	Cl	0.913923	0.152882	0.000070
Cl211	Cl	0.074077	0.337053	0.129256
H212	H	-0.100262	0.424024	0.072009
H213	H	-0.192825	0.424024	0.072005
H214	H	-0.302206	0.642764	-0.071999
H215	H	-0.209663	0.642774	-0.071993
Cl216	Cl	0.806855	0.335362	0.174261
Cl217	Cl	0.594128	0.412055	-0.646703
Cl218	Cl	0.594128	0.345365	0.353300
Cl219	Cl	-0.122315	0.729769	-0.129245
H220	H	-0.005119	0.703071	-0.111670
Cl221	Cl	0.519998	0.179866	0.483135
Cl222	Cl	0.142491	0.669500	-0.089628
H223	H	0.259706	0.642803	-0.072053
Cl224	Cl	0.472751	0.654775	-0.353348
Cl225	Cl	0.809242	0.330607	0.089606
Cl226	Cl	0.590061	0.238375	0.499526
