data_functionalizedCrystal
_audit_creation_method	'MofGen! by Chris Wilmer'
_symmetry_space_group_name_H-M	'P1'
_symmetry_Int_Tables_number	1
_symmetry_cell_setting	triclinic
loop_
_symmetry_equiv_pos_as_xyz
  x,y,z
_cell_length_a	25.639239
_cell_length_b	25.639242
_cell_length_c	25.639234
_cell_angle_alpha	89.969217
_cell_angle_beta	90.024905
_cell_angle_gamma	89.966288
loop_
_atom_site_label
_atom_site_type_symbol
_atom_site_fract_x
_atom_site_fract_y
_atom_site_fract_z
Zn1	Zn	-0.208252	-0.799262	0.295762
Zn2	Zn	0.291748	-0.299262	0.795762
Zn3	Zn	-0.295680	-0.799175	0.208327
Zn4	Zn	0.204320	-0.299175	0.708327
Zn5	Zn	-0.208253	-0.711828	0.208324
Zn6	Zn	0.291747	-0.211828	0.708324
Zn7	Zn	-0.295651	-0.711784	0.295714
Zn8	Zn	0.204349	-0.211784	0.795714
O9	O	-0.251959	-0.755512	0.252032
O10	O	0.248041	-0.255512	0.752032
O11	O	-0.219861	-0.872416	0.284185
O12	O	0.280139	-0.372416	0.784185
O13	O	-0.284096	-0.787570	0.135161
O14	O	0.215904	-0.287570	0.635161
O15	O	-0.135088	-0.723481	0.219942
O16	O	0.364912	-0.223481	0.719942
O17	O	-0.284095	-0.872351	0.219946
O18	O	0.215905	-0.372351	0.719946
O19	O	-0.135087	-0.787719	0.284182
O20	O	0.364913	-0.287719	0.784182
O21	O	-0.219863	-0.723396	0.135159
O22	O	0.280137	-0.223396	0.635159
O23	O	-0.219835	-0.638656	0.219896
O24	O	0.280165	-0.138656	0.719896
O25	O	-0.284044	-0.723406	0.368886
O26	O	0.215956	-0.223406	0.868886
O27	O	-0.284045	-0.638624	0.284101
O28	O	0.215955	-0.138624	0.784101
O29	O	-0.219833	-0.787676	0.368921
O30	O	0.280167	-0.287676	0.868921
O31	O	-0.368841	-0.787527	0.219900
O32	O	0.131159	-0.287527	0.719900
O33	O	-0.368820	-0.723321	0.284103
O34	O	0.131180	-0.223321	0.784103
C35	C	-0.251937	-0.619669	0.251993
C36	C	0.248063	-0.119669	0.751993
C37	C	-0.251940	-0.561555	0.251989
C38	C	0.248060	-0.061555	0.751989
C39	C	-0.387801	-0.755424	0.252008
C40	C	0.112199	-0.255424	0.752008
C41	C	-0.445916	-0.755434	0.252015
C42	C	0.054084	-0.255434	0.752015
C43	C	-0.285444	-0.201184	0.285418
C44	C	0.214556	0.298816	0.785418
C45	C	-0.285447	-0.146580	0.285425
C46	C	0.214553	0.353420	0.785425
O47	O	-0.313910	-0.118337	0.313824
O48	O	0.186090	0.381663	0.813824
N49	N	-0.251968	-0.119273	0.252050
N50	N	0.248032	0.380727	0.752050
C51	C	-0.218480	-0.146573	0.218670
C52	C	0.281520	0.353427	0.718670
O53	O	-0.190003	-0.118332	0.190283
O54	O	0.309997	0.381668	0.690283
C55	C	-0.218475	-0.201176	0.218666
C56	C	0.281525	0.298824	0.718666
C57	C	-0.251960	-0.228481	0.252039
C58	C	0.248040	0.271519	0.752039
C59	C	-0.318927	-0.228489	0.318789
C60	C	0.181073	0.271511	0.818789
C61	C	-0.318924	-0.283089	0.318781
C62	C	0.181076	0.216911	0.818781
C63	C	-0.285440	-0.310385	0.285402
C64	C	0.214560	0.189615	0.785402
C65	C	-0.251958	-0.283081	0.252032
C66	C	0.248042	0.216919	0.752032
C67	C	-0.184984	-0.228475	0.185289
C68	C	0.315016	0.271525	0.685289
C69	C	-0.184982	-0.283082	0.185288
C70	C	0.315018	0.216918	0.685288
C71	C	-0.218467	-0.310387	0.218662
C72	C	0.281533	0.189613	0.718662
C73	C	-0.218471	-0.364978	0.218645
C74	C	0.281529	0.135022	0.718645
N75	N	-0.251951	-0.392285	0.252020
N76	N	0.248049	0.107715	0.752020
C77	C	-0.285435	-0.364989	0.285399
C78	C	0.214565	0.135011	0.785399
C79	C	-0.218492	-0.031902	0.218681
C80	C	0.281508	0.468098	0.718681
C81	C	-0.218499	0.022700	0.218682
C82	C	0.281501	0.522700	0.718682
C83	C	-0.285466	0.022689	0.285438
C84	C	0.214534	0.522689	0.785438
C85	C	-0.285461	-0.031914	0.285434
C86	C	0.214539	0.468086	0.785434
C87	C	-0.251971	-0.059209	0.252056
C88	C	0.248029	0.440791	0.752056
C89	C	-0.285428	-0.479654	0.285380
C90	C	0.214572	0.020346	0.785380
C91	C	-0.285425	-0.534259	0.285367
C92	C	0.214575	-0.034259	0.785367
C93	C	-0.218456	-0.534244	0.218614
C94	C	0.281544	-0.034244	0.718614
C95	C	-0.218461	-0.479643	0.218624
C96	C	0.281539	0.020357	0.718624
C97	C	-0.251949	-0.452349	0.252011
C98	C	0.248051	0.047651	0.752011
O99	O	-0.190021	-0.393256	0.190262
O100	O	0.309979	0.106744	0.690262
O101	O	-0.313902	-0.393236	0.313786
O102	O	0.186098	0.106764	0.813786
C103	C	-0.806277	-0.789031	0.218658
C104	C	-0.306277	-0.289031	0.718658
C105	C	-0.860882	-0.789051	0.218665
C106	C	-0.360882	-0.289051	0.718665
O107	O	-0.889117	-0.817526	0.190277
O108	O	-0.389117	-0.317526	0.690277
N109	N	-0.888198	-0.755604	0.252066
N110	N	-0.388198	-0.255604	0.752066
C111	C	-0.860907	-0.722138	0.285467
C112	C	-0.360907	-0.222138	0.785467
O113	O	-0.889156	-0.693690	0.313878
O114	O	-0.389156	-0.193690	0.813878
C115	C	-0.806304	-0.722120	0.285462
C116	C	-0.306304	-0.222120	0.785462
C117	C	-0.778990	-0.755566	0.252055
C118	C	-0.278990	-0.255566	0.752055
C119	C	-0.778964	-0.822475	0.185254
C120	C	-0.278964	-0.322475	0.685254
C121	C	-0.724363	-0.822454	0.185246
C122	C	-0.224363	-0.322454	0.685246
C123	C	-0.697076	-0.788989	0.218643
C124	C	-0.197076	-0.288989	0.718643
C125	C	-0.724390	-0.755545	0.252047
C126	C	-0.224390	-0.255545	0.752047
C127	C	-0.779014	-0.688657	0.318865
C128	C	-0.279014	-0.188657	0.818865
C129	C	-0.724407	-0.688643	0.318857
C130	C	-0.224407	-0.188643	0.818857
C131	C	-0.697094	-0.722089	0.285450
C132	C	-0.197094	-0.222089	0.785450
C133	C	-0.642502	-0.722059	0.285436
C134	C	-0.142502	-0.222059	0.785436
N135	N	-0.615186	-0.755507	0.252035
N136	N	-0.115186	-0.255507	0.752035
C137	C	-0.642473	-0.788972	0.218638
C138	C	-0.142473	-0.288972	0.718638
C139	C	-0.975578	-0.722177	0.285475
C140	C	-0.475578	-0.222177	0.785475
C141	C	-1.030180	-0.722191	0.285477
C142	C	-0.530180	-0.222191	0.785477
C143	C	-1.030151	-0.789106	0.218676
C144	C	-0.530151	-0.289106	0.718676
C145	C	-0.975547	-0.789089	0.218671
C146	C	-0.475547	-0.289089	0.718671
C147	C	-0.948261	-0.755625	0.252073
C148	C	-0.448261	-0.255625	0.752073
C149	C	-0.527808	-0.788925	0.218625
C150	C	-0.027808	-0.288925	0.718625
C151	C	-0.473202	-0.788899	0.218618
C152	C	0.026798	-0.288899	0.718618
C153	C	-0.473237	-0.721987	0.285421
C154	C	0.026763	-0.221987	0.785421
C155	C	-0.527837	-0.722010	0.285426
C156	C	-0.027837	-0.222010	0.785426
C157	C	-0.555121	-0.755483	0.252026
C158	C	-0.055121	-0.255483	0.752026
O159	O	-0.614232	-0.693601	0.313811
O160	O	-0.114232	-0.193601	0.813811
O161	O	-0.614218	-0.817419	0.190236
O162	O	-0.114218	-0.317419	0.690236
C163	C	-0.115586	-0.755614	0.252067
C164	C	0.384414	-0.255614	0.752067
C165	C	-0.057472	-0.755658	0.252082
C166	C	0.442528	-0.255658	0.752082
C167	C	-0.251935	-0.755546	0.388405
C168	C	0.248065	-0.255546	0.888405
C169	C	-0.251925	-0.755560	0.446519
C170	C	0.248075	-0.255560	0.946519
C171	C	-0.251979	0.108115	0.252065
C172	C	0.248021	0.608115	0.752065
C173	C	-0.251982	0.050001	0.252063
C174	C	0.248018	0.550001	0.752063
C175	C	-0.251945	-0.755508	0.116189
C176	C	0.248055	-0.255508	0.616189
C177	C	-0.251808	-0.755595	0.058076
C178	C	0.248192	-0.255595	0.558076
C179	C	-0.218417	-0.722160	0.806887
C180	C	0.281583	-0.222160	1.306887
C181	C	-0.218407	-0.722163	0.861491
C182	C	0.281593	-0.222163	1.361491
O183	O	-0.189975	-0.693738	0.889732
O184	O	0.310025	-0.193738	1.389732
N185	N	-0.251843	-0.755578	0.888802
N186	N	0.248157	-0.255578	1.388802
C187	C	-0.285294	-0.788989	0.861505
C188	C	0.214706	-0.288989	1.361505
O189	O	-0.313733	-0.817411	0.889749
O190	O	0.186267	-0.317411	1.389749
C191	C	-0.285306	-0.788983	0.806902
C192	C	0.214694	-0.288983	1.306902
C193	C	-0.251864	-0.755569	0.779594
C194	C	0.248136	-0.255569	1.279594
C195	C	-0.184978	-0.688749	0.779579
C196	C	0.315022	-0.188749	1.279579
C197	C	-0.184987	-0.688747	0.724978
C198	C	0.315013	-0.188747	1.224978
C199	C	-0.218435	-0.722156	0.697686
C200	C	0.281565	-0.222156	1.197686
C201	C	-0.251873	-0.755567	0.724993
C202	C	0.248127	-0.255567	1.224993
C203	C	-0.318759	-0.822390	0.779606
C204	C	0.181241	-0.322390	1.279606
C205	C	-0.318768	-0.822381	0.724999
C206	C	0.181232	-0.322381	1.224999
C207	C	-0.285326	-0.788968	0.697691
C208	C	0.214674	-0.288968	1.197691
C209	C	-0.285329	-0.788974	0.643100
C210	C	0.214671	-0.288974	1.143100
N211	N	-0.251894	-0.755559	0.615789
N212	N	0.248106	-0.255559	1.115789
C213	C	-0.218446	-0.722150	0.643082
C214	C	0.281554	-0.222150	1.143082
C215	C	-0.285267	-0.788998	0.976176
C216	C	0.214733	-0.288998	1.476176
C217	C	-0.285253	-0.789006	1.030778
C218	C	0.214747	-0.289006	1.530778
C219	C	-0.218367	-0.722180	1.030760
C220	C	0.281633	-0.222180	1.530760
C221	C	-0.218379	-0.722174	0.976157
C222	C	0.281621	-0.222174	1.476157
C223	C	-0.251832	-0.755583	0.948865
C224	C	0.248168	-0.255583	1.448865
C225	C	-0.218467	-0.722149	0.528417
C226	C	0.281533	-0.222149	1.028417
C227	C	-0.218478	-0.722151	0.473812
C228	C	0.281522	-0.222151	0.973812
C229	C	-0.285365	-0.788976	0.473834
C230	C	0.214635	-0.288976	0.973834
C231	C	-0.285353	-0.788975	0.528435
C232	C	0.214647	-0.288975	1.028435
C233	C	-0.251902	-0.755558	0.555725
C234	C	0.248098	-0.255558	1.055725
O235	O	-0.313748	-0.817383	0.614825
O236	O	0.186252	-0.317383	1.114825
O237	O	-0.190017	-0.693728	0.614832
O238	O	0.309983	-0.193728	1.114832
H239	H	-0.312695	-0.556488	0.312544
H240	H	0.187305	-0.056488	0.812544
O241	O	-0.697846	-0.656108	0.351232
O242	O	-0.197846	-0.156108	0.851232
C243	C	-0.666320	-0.622331	0.321429
C244	C	-0.166320	-0.122331	0.821429
H245	H	-0.658140	-0.640787	0.281824
H246	H	-0.158140	-0.140787	0.781824
H247	H	-0.627920	-0.615296	0.342716
H248	H	-0.127920	-0.115296	0.842716
H249	H	-0.687407	-0.583597	0.315645
H250	H	-0.187407	-0.083597	0.815645
H251	H	-0.346191	-0.305316	0.345958
H252	H	0.153809	0.194684	0.845958
H253	H	-0.157707	-0.305303	0.158110
H254	H	0.342293	0.194697	0.658110
O255	O	-0.152479	-0.202029	0.152791
O256	O	0.347521	0.297971	0.652791
C257	C	-0.163848	-0.215341	0.100664
C258	C	0.336152	0.284659	0.600664
H259	H	-0.183958	-0.254968	0.099558
H260	H	0.316042	0.245032	0.599558
H261	H	-0.126082	-0.217239	0.077288
H262	H	0.373918	0.282761	0.577288
H263	H	-0.190695	-0.184582	0.082995
H264	H	0.309305	0.315418	0.582995
O265	O	-0.186004	-0.560824	0.186167
O266	O	0.313996	-0.060824	0.686167
C267	C	-0.215724	-0.592363	0.152334
C268	C	0.284276	-0.092363	0.652334
H269	H	-0.255374	-0.600526	0.170698
H270	H	0.244626	-0.100526	0.670698
H271	H	-0.194420	-0.630771	0.145369
H272	H	0.305580	-0.130771	0.645369
H273	H	-0.221410	-0.571297	0.113575
H274	H	0.278590	-0.071297	0.613575
H275	H	-0.157758	-0.661536	0.702749
H276	H	0.342242	-0.161536	1.202749
H277	H	-0.550077	-0.694777	0.312630
H278	H	-0.050077	-0.194777	0.812630
H279	H	-1.052378	-0.816357	0.191485
H280	H	-0.552378	-0.316357	0.691485
H281	H	-0.801175	-0.849729	0.158058
H282	H	-0.301175	-0.349729	0.658058
O283	O	-0.351282	-0.854884	0.698569
O284	O	0.148718	-0.354884	1.198569
C285	C	-0.380803	-0.884362	0.734386
C286	C	0.119197	-0.384362	1.234386
H287	H	-0.359379	-0.886192	0.773314
H288	H	0.140621	-0.386192	1.273314
H289	H	-0.386396	-0.925551	0.718629
H290	H	0.113604	-0.425551	1.218629
H291	H	-0.420505	-0.865181	0.740175
H292	H	0.079495	-0.365181	1.240175
H293	H	-0.451011	-0.694738	0.312611
H294	H	0.048989	-0.194738	0.812611
O295	O	-0.185976	-0.689641	0.447366
O296	O	0.314024	-0.189641	0.947366
C297	C	-0.156446	-0.660163	0.483169
C298	C	0.343554	-0.160163	0.983169
H299	H	-0.177857	-0.658341	0.522085
H300	H	0.322143	-0.158341	1.022085
H301	H	-0.150865	-0.618971	0.467376
H302	H	0.349135	-0.118971	0.967376
H303	H	-0.116739	-0.679339	0.488997
H304	H	0.383261	-0.179339	0.988997
H305	H	-0.953312	-0.816324	0.191469
H306	H	-0.453312	-0.316324	0.691469
H307	H	-0.312729	0.044924	0.312618
H308	H	0.187271	0.544924	0.812618
H309	H	-1.052414	-0.694951	0.312676
H310	H	-0.552414	-0.194951	0.812676
O311	O	-0.185947	-0.689762	0.554980
O312	O	0.314053	-0.189762	1.054980
C313	C	-0.152166	-0.719555	0.586577
C314	C	0.347834	-0.219555	1.086577
H315	H	-0.170612	-0.759162	0.594778
H316	H	0.329388	-0.259162	1.094778
H317	H	-0.145143	-0.698262	0.624962
H318	H	0.354857	-0.198262	1.124962
H319	H	-0.113427	-0.725332	0.565542
H320	H	0.386573	-0.225332	1.065542
O321	O	-0.317911	-0.821351	0.447291
O322	O	0.182089	-0.321351	0.947291
C323	C	-0.351665	-0.791546	0.415676
C324	C	0.148335	-0.291546	0.915676
H325	H	-0.354881	-0.750368	0.432118
H326	H	0.145119	-0.250368	0.932118
H327	H	-0.391908	-0.810420	0.415047
H328	H	0.108092	-0.310420	0.915047
H329	H	-0.335502	-0.789749	0.374298
H330	H	0.164498	-0.289749	0.874298
O331	O	-0.152434	-0.656277	0.806005
O332	O	0.347566	-0.156277	1.306005
C333	C	-0.122938	-0.626781	0.770183
C334	C	0.377062	-0.126781	1.270183
H335	H	-0.121150	-0.648199	0.731272
H336	H	0.378850	-0.148199	1.231272
H337	H	-0.081736	-0.621239	0.785957
H338	H	0.418264	-0.121239	1.285957
H339	H	-0.142077	-0.587056	0.764353
H340	H	0.357923	-0.087056	1.264353
O341	O	-0.317930	-0.058412	0.317930
O342	O	0.182070	0.441588	0.817930
C343	C	-0.306583	-0.045091	0.370060
C344	C	0.193417	0.454909	0.870060
H345	H	-0.264819	-0.030105	0.372774
H346	H	0.235181	0.469895	0.872774
H347	H	-0.311121	-0.081011	0.395884
H348	H	0.188879	0.418989	0.895884
H349	H	-0.334635	-0.013388	0.383674
H350	H	0.165365	0.486612	0.883674
H351	H	-0.312696	-0.457438	0.312568
H352	H	0.187304	0.042562	0.812568
H353	H	-0.346194	-0.206270	0.345973
H354	H	0.153806	0.293730	0.845973
H355	H	-0.953364	-0.694922	0.312673
H356	H	-0.453364	-0.194922	0.812673
H357	H	-0.191237	0.044927	0.191501
H358	H	0.308763	0.544927	0.691501
H359	H	-0.702128	-0.849690	0.158045
H360	H	-0.202128	-0.349690	0.658045
O361	O	-0.554245	-0.821514	0.186204
O362	O	-0.054245	-0.321514	0.686204
C363	C	-0.540845	-0.873611	0.197697
C364	C	-0.040845	-0.373611	0.697697
H365	H	-0.501191	-0.874659	0.217801
H366	H	-0.001191	-0.374659	0.717801
H367	H	-0.538961	-0.897074	0.159989
H368	H	-0.038961	-0.397074	0.659989
H369	H	-0.571546	-0.891225	0.224594
H370	H	-0.071546	-0.391225	0.724594
H371	H	-0.191221	-0.054123	0.191497
H372	H	0.308779	0.445877	0.691497
O373	O	-0.805457	-0.656152	0.351368
O374	O	-0.305457	-0.156152	0.851368
C375	C	-0.769653	-0.626610	0.380832
C376	C	-0.269653	-0.126610	0.880832
H377	H	-0.730711	-0.648016	0.382652
H378	H	-0.230711	-0.148016	0.882652
H379	H	-0.785404	-0.621018	0.422026
H380	H	-0.285404	-0.121018	0.922026
H381	H	-0.763892	-0.586908	0.361645
H382	H	-0.263892	-0.086908	0.861645
H383	H	-0.312505	-0.816209	0.953958
H384	H	0.187495	-0.316209	1.453958
O385	O	-0.185881	-0.689664	0.949713
O386	O	0.314119	-0.189664	1.449713
C387	C	-0.156350	-0.660190	0.985518
C388	C	0.343650	-0.160190	1.485518
H389	H	-0.177758	-0.658374	1.024436
H390	H	0.322242	-0.158374	1.524436
H391	H	-0.150770	-0.618996	0.969731
H392	H	0.349230	-0.118996	1.469731
H393	H	-0.116642	-0.679367	0.991342
H394	H	0.383358	-0.179367	1.491342
H395	H	-0.312479	-0.816221	1.053007
H396	H	0.187521	-0.316221	1.553007
O397	O	-0.185956	-0.689662	1.057299
O398	O	0.314044	-0.189662	1.557299
C399	C	-0.215720	-0.655886	1.088867
C400	C	0.284280	-0.155886	1.588867
H401	H	-0.256900	-0.652632	1.072396
H402	H	0.243100	-0.152632	1.572396
H403	H	-0.196810	-0.615660	1.089474
H404	H	0.303190	-0.115660	1.589474
H405	H	-0.217517	-0.672053	1.130257
H406	H	0.282483	-0.172053	1.630257
O407	O	-0.351168	-0.854909	0.806143
O408	O	0.148832	-0.354909	1.306143
C409	C	-0.321407	-0.888703	0.837757
C410	C	0.178593	-0.388703	1.337757
H411	H	-0.280228	-0.891955	0.821321
H412	H	0.219772	-0.391955	1.321321
H413	H	-0.340322	-0.928926	0.838374
H414	H	0.159678	-0.428926	1.338374
H415	H	-0.319605	-0.872554	0.879138
H416	H	0.180395	-0.372554	1.379138
H417	H	-0.191196	-0.457411	0.191448
H418	H	0.308804	0.042589	0.691448
O419	O	-0.317883	-0.821453	0.554884
O420	O	0.182117	-0.321453	1.054884
C421	C	-0.347393	-0.850952	0.519083
C422	C	0.152607	-0.350952	1.019083
H423	H	-0.349204	-0.829535	0.480147
H424	H	0.150796	-0.329535	0.980147
H425	H	-0.388587	-0.856499	0.534848
H426	H	0.111413	-0.356499	1.034848
H427	H	-0.328254	-0.890675	0.513303
H428	H	0.171746	-0.390675	1.013303
H429	H	-0.450965	-0.816135	0.191412
H430	H	0.049035	-0.316135	0.691412
