data_functionalizedCrystal
_audit_creation_method	'MofGen! by Chris Wilmer'
_symmetry_space_group_name_H-M	'P1'
_symmetry_Int_Tables_number	1
_symmetry_cell_setting	triclinic
loop_
_symmetry_equiv_pos_as_xyz
  x,y,z
_cell_length_a	14.519731
_cell_length_b	11.792241
_cell_length_c	10.868271
_cell_angle_alpha	90.000107
_cell_angle_beta	89.993880
_cell_angle_gamma	96.058865
loop_
_atom_site_label
_atom_site_type_symbol
_atom_site_fract_x
_atom_site_fract_y
_atom_site_fract_z
O1	O	0.126403	-1.506220	-0.102206
O2	O	0.376403	-1.256220	0.147794
O3	O	0.626403	-1.006220	0.397794
O4	O	0.876403	-0.756220	0.647794
O5	O	0.139430	-1.175807	-0.102235
O6	O	0.389430	-0.925807	0.147765
O7	O	0.639430	-0.675807	0.397765
O8	O	0.889430	-0.425807	0.647765
O9	O	-0.001288	-1.349761	-0.102208
O10	O	0.248712	-1.099761	0.147792
O11	O	0.498712	-0.849761	0.397792
O12	O	0.748712	-0.599761	0.647792
O13	O	0.267122	-1.332266	-0.102232
O14	O	0.517122	-1.082266	0.147768
O15	O	0.767122	-0.832266	0.397768
O16	O	1.017122	-0.582266	0.647768
O17	O	-0.001294	-1.349747	0.102436
O18	O	0.248706	-1.099747	0.352436
O19	O	0.498706	-0.849747	0.602436
O20	O	0.748706	-0.599747	0.852436
O21	O	0.139425	-1.175793	0.102410
O22	O	0.389425	-0.925793	0.352410
O23	O	0.639425	-0.675793	0.602410
O24	O	0.889425	-0.425793	0.852410
O25	O	0.126398	-1.506205	0.102439
O26	O	0.376398	-1.256205	0.352439
O27	O	0.626398	-1.006205	0.602439
O28	O	0.876398	-0.756205	0.852439
Zn29	Zn	0.132910	-1.340997	0.134916
Zn30	Zn	0.382910	-1.090997	0.384916
Zn31	Zn	0.632910	-0.840997	0.634916
Zn32	Zn	0.882910	-0.590997	0.884916
Zn33	Zn	0.132918	-1.341016	-0.134712
Zn34	Zn	0.382918	-1.091016	0.115288
Zn35	Zn	0.632918	-0.841016	0.365288
Zn36	Zn	0.882918	-0.591016	0.615288
O37	O	0.267116	-1.332251	0.102412
O38	O	0.517116	-1.082251	0.352412
O39	O	0.767116	-0.832251	0.602412
O40	O	1.017116	-0.582251	0.852412
C41	C	0.138609	-1.133514	0.000084
C42	C	0.388609	-0.883514	0.250084
C43	C	0.638609	-0.633514	0.500084
C44	C	0.888609	-0.383514	0.750084
C45	C	0.136160	-1.007513	0.000073
C46	C	0.386160	-0.757513	0.250073
C47	C	0.636160	-0.507513	0.500073
C48	C	0.886160	-0.257513	0.750073
C49	C	-0.035654	-1.348934	0.000114
C50	C	0.214346	-1.098934	0.250114
C51	C	0.464346	-0.848934	0.500114
C52	C	0.714346	-0.598934	0.750114
C53	C	-0.138043	-1.346478	0.000115
C54	C	0.111957	-1.096478	0.250115
C55	C	0.361957	-0.846478	0.500115
C56	C	0.611957	-0.596478	0.750115
C57	C	0.127219	-1.548499	0.000117
C58	C	0.377219	-1.298499	0.250117
C59	C	0.627219	-1.048499	0.500117
C60	C	0.877219	-0.798499	0.750117
C61	C	0.129668	-1.674499	0.000120
C62	C	0.379668	-1.424499	0.250120
C63	C	0.629668	-1.174499	0.500120
C64	C	0.879668	-0.924499	0.750120
C65	C	-0.221194	-1.344482	0.000112
C66	C	0.028806	-1.094482	0.250112
C67	C	0.278806	-0.844482	0.500112
C68	C	0.528806	-0.594482	0.750112
C69	C	-0.325512	-1.341988	0.000102
C70	C	-0.075512	-1.091988	0.250102
C71	C	0.174488	-0.841988	0.500102
C72	C	0.424488	-0.591988	0.750102
C73	C	-0.408658	-1.340008	0.000094
C74	C	-0.158658	-1.090008	0.250094
C75	C	0.091342	-0.840008	0.500094
C76	C	0.341342	-0.590008	0.750094
C77	C	-0.512983	-1.337514	0.000087
C78	C	-0.262983	-1.087514	0.250087
C79	C	-0.012983	-0.837514	0.500087
C80	C	0.237017	-0.587514	0.750087
C81	C	0.301482	-1.333078	0.000087
C82	C	0.551482	-1.083078	0.250087
C83	C	0.801482	-0.833078	0.500087
C84	C	1.051482	-0.583078	0.750087
C85	C	0.403871	-1.335535	0.000079
C86	C	0.653871	-1.085535	0.250079
C87	C	0.903871	-0.835535	0.500079
C88	C	1.153871	-0.585535	0.750079
N89	N	0.132905	-1.340992	0.318930
N90	N	0.382905	-1.090992	0.568930
N91	N	0.632905	-0.840992	0.818930
N92	N	0.882905	-0.590992	1.068930
C93	C	0.131656	-0.776826	0.000109
C94	C	0.381656	-0.526826	0.250109
C95	C	0.631656	-0.276826	0.500109
C96	C	0.881656	-0.026826	0.750109
C97	C	0.134159	-0.905197	0.000089
C98	C	0.384159	-0.655197	0.250089
C99	C	0.634159	-0.405197	0.500089
C100	C	0.884159	-0.155197	0.750089
N101	N	0.132916	-1.341029	-0.318726
N102	N	0.382916	-1.091029	-0.068726
N103	N	0.632916	-0.841029	0.181274
N104	N	0.882916	-0.591029	0.431274
C105	C	0.132916	-1.341010	0.569936
C106	C	0.382916	-1.091010	0.819936
C107	C	0.632916	-0.841010	1.069936
C108	C	0.882916	-0.591010	1.319936
C109	C	0.132912	-1.340996	0.430259
C110	C	0.382912	-1.090996	0.680259
C111	C	0.632912	-0.840996	0.930259
C112	C	0.882912	-0.590996	1.180259
