data_functionalizedCrystal
_audit_creation_method	'MofGen! by Chris Wilmer'
_symmetry_space_group_name_H-M	'P1'
_symmetry_Int_Tables_number	1
_symmetry_cell_setting	triclinic
loop_
_symmetry_equiv_pos_as_xyz
  x,y,z
_cell_length_a	10.489741
_cell_length_b	10.489716
_cell_length_c	12.996460
_cell_angle_alpha	89.997908
_cell_angle_beta	89.997126
_cell_angle_gamma	84.534155
loop_
_atom_site_label
_atom_site_type_symbol
_atom_site_fract_x
_atom_site_fract_y
_atom_site_fract_z
O1	O	1.694040	0.179972	-0.085493
O2	O	1.322842	0.196865	-0.085508
O3	O	1.516904	0.002819	-0.085504
O4	O	1.499978	0.374019	-0.085497
O5	O	1.516883	0.002808	0.085630
O6	O	1.322822	0.196854	0.085626
O7	O	1.694019	0.179961	0.085641
Cu8	Cu	1.508419	0.188407	0.101259
Cu9	Cu	1.508443	0.188420	-0.101126
O10	O	1.499958	0.374008	0.085637
C11	C	1.275301	0.195584	0.000057
C12	C	1.133672	0.191767	0.000051
C13	C	1.065542	0.068301	0.000058
C14	C	0.973420	0.126630	-0.084317
C15	C	0.973434	0.126649	0.084408
C16	C	1.043415	0.250147	-0.084394
C17	C	1.043438	0.250148	0.084406
C18	C	0.951344	0.308568	0.000011
C19	C	1.515622	-0.044719	0.000060
C20	C	1.511817	-0.186350	0.000050
C21	C	1.630822	-0.284024	0.000064
C22	C	1.567947	-0.361379	-0.084313
C23	C	1.567899	-0.361354	0.084411
C24	C	1.448992	-0.261839	-0.084397
C25	C	1.448962	-0.261809	0.084403
C26	C	1.386000	-0.339115	0.000005
C27	C	1.741561	0.181243	0.000074
C28	C	1.883190	0.185060	0.000073
C29	C	1.501240	0.421545	0.000071
C30	C	1.505044	0.563176	0.000073
N31	N	1.508411	0.188397	0.243606
N32	N	1.508461	0.188420	-0.243474
C33	C	1.508441	0.188421	0.663420
C34	C	1.508429	0.188419	0.546615
C35	C	1.508427	0.188410	0.453517
C36	C	1.508413	0.188406	0.336704
H37	H	1.074247	0.302352	-0.155807
C38	C	1.224080	-0.444619	-0.087614
C39	C	1.246161	-0.372112	-0.000057
H40	H	1.137752	-0.464996	-0.087651
H41	H	1.239557	-0.396634	-0.147558
H42	H	1.279943	-0.521411	-0.087004
H43	H	1.190304	-0.295315	-0.000672
H44	H	1.230670	-0.420097	0.059902
H45	H	0.942419	0.074394	-0.155653
C46	C	0.919916	0.510051	-0.088465
C47	C	0.884596	0.445723	-0.000045
H48	H	0.878699	0.594719	-0.088504
H49	H	1.010105	0.513210	-0.089028
H50	H	0.894875	0.465857	-0.147829
H51	H	0.909644	0.489912	0.059320
H52	H	0.794387	0.442570	0.000527
C53	C	1.574719	-0.367875	-0.268922
C54	C	1.635772	-0.420091	-0.180610
H55	H	1.616605	-0.404113	-0.328367
H56	H	1.487823	-0.386364	-0.269012
H57	H	1.578346	-0.277734	-0.269284
H58	H	1.632137	-0.510232	-0.180244
H59	H	1.722690	-0.401611	-0.180520
H60	H	0.942452	0.074381	0.155740
C61	C	1.050411	0.255764	0.268987
C62	C	1.085355	0.320603	0.180708
H63	H	1.076301	0.299250	0.328444
H64	H	0.960156	0.253177	0.270026
H65	H	1.091099	0.170894	0.268366
H66	H	1.044659	0.405470	0.181326
H67	H	1.175627	0.323204	0.179669
C68	C	1.792350	-0.177976	-0.087574
C69	C	1.770535	-0.250636	-0.000039
H70	H	1.878593	-0.157340	-0.087636
H71	H	1.776983	-0.225971	-0.147532
H72	H	1.736278	-0.101327	-0.086909
H73	H	1.826601	-0.327290	-0.000708
H74	H	1.785915	-0.202640	0.059934
C75	C	1.385535	-0.070384	-0.179984
C76	C	1.381253	-0.203390	-0.180821
H77	H	1.343730	-0.034303	-0.239518
H78	H	1.343550	-0.035437	-0.120156
H79	H	1.472233	-0.051210	-0.179729
H80	H	1.294554	-0.222565	-0.181069
H81	H	1.423236	-0.238349	-0.240665
H82	H	1.115241	-0.033196	-0.000049
C83	C	1.443722	-0.253514	0.268983
C84	C	1.381197	-0.203052	0.180701
H85	H	1.401896	-0.217231	0.328438
H86	H	1.441451	-0.343808	0.270021
H87	H	1.530218	-0.233704	0.268369
H88	H	1.294702	-0.222870	0.181312
H89	H	1.383454	-0.112737	0.179664
C90	C	1.763827	-0.392768	0.180543
C91	C	1.635727	-0.420035	0.180716
H92	H	1.805702	-0.428989	0.239998
H93	H	1.805227	-0.428197	0.120635
H94	H	1.767425	-0.302623	0.180897
H95	H	1.632129	-0.510181	0.180355
H96	H	1.594316	-0.384612	0.240640
