data_functionalizedCrystal
_audit_creation_method	'MofGen! by Chris Wilmer'
_symmetry_space_group_name_H-M	'P1'
_symmetry_Int_Tables_number	1
_symmetry_cell_setting	triclinic
loop_
_symmetry_equiv_pos_as_xyz
  x,y,z
_cell_length_a	12.837932
_cell_length_b	13.339070
_cell_length_c	11.892095
_cell_angle_alpha	94.950121
_cell_angle_beta	85.688545
_cell_angle_gamma	105.229499
loop_
_atom_site_label
_atom_site_type_symbol
_atom_site_fract_x
_atom_site_fract_y
_atom_site_fract_z
O1	O	1.458159	0.264501	-0.093999
O2	O	1.152509	0.251137	-0.094001
O3	O	1.270255	0.107174	-0.093996
O4	O	1.340413	0.408464	-0.094003
O5	O	1.260432	0.119157	0.094011
O6	O	1.142686	0.263120	0.094007
O7	O	1.448335	0.276484	0.094009
Zn8	Zn	1.293951	0.271704	0.123858
Zn9	Zn	1.306894	0.255916	-0.123850
O10	O	1.330590	0.420447	0.094004
C11	C	1.107679	0.252615	0.000003
C12	C	0.988729	0.239152	0.000002
C13	C	1.253493	0.074334	0.000005
C14	C	1.218168	-0.041374	0.000001
C15	C	0.806522	0.126627	0.000006
C16	C	0.918284	0.139270	0.000006
C17	C	0.947405	0.326397	0.000002
C18	C	0.835642	0.313754	0.000003
C19	C	0.765204	0.213866	0.000003
C20	C	0.653440	0.201223	-0.000004
C21	C	0.682562	0.388350	0.000001
C22	C	0.794325	0.400992	-0.000000
C23	C	1.492835	-0.379688	0.000003
C24	C	1.526028	-0.270974	0.000014
C25	C	1.449065	-0.213569	0.000010
C26	C	1.338905	-0.264888	-0.000004
C27	C	1.305709	-0.373611	-0.000006
C28	C	1.261940	-0.207492	0.000002
C29	C	1.151780	-0.258811	-0.000012
C30	C	1.118589	-0.367524	-0.000015
C31	C	1.195551	-0.424929	-0.000011
C32	C	1.295136	-0.098769	0.000004
C33	C	1.108010	-0.092692	-0.000005
C34	C	1.074818	-0.201405	-0.000016
C35	C	1.493166	0.275006	0.000003
C36	C	1.612116	0.288469	-0.000004
C37	C	1.347352	0.453287	-0.000000
C38	C	1.382677	0.568994	-0.000003
N39	N	1.285126	0.282479	0.292912
N40	N	1.315725	0.245134	-0.292904
C41	C	1.377119	0.170097	0.529563
C42	C	1.370960	0.177637	0.647904
C43	C	1.266643	0.305093	0.647939
C44	C	1.272802	0.297553	0.529597
C45	C	1.328043	0.230054	0.470413
C46	C	1.334208	0.222520	0.352069
C47	C	1.229884	0.349970	0.352106
C48	C	1.223725	0.357510	0.470447
H49	H	0.596091	0.119889	-0.000008
C50	C	0.940855	-0.365367	-0.000018
C51	C	0.953730	-0.257822	-0.000019
H52	H	0.866101	-0.400193	-0.000013
H53	H	0.977281	-0.388599	-0.065576
H54	H	0.970437	-0.380243	0.065549
H55	H	0.924155	-0.242945	-0.065591
H56	H	0.917290	-0.234581	0.065545
H57	H	0.951920	0.068231	0.000008
C58	C	1.429109	0.065181	0.000016
C59	C	1.416218	-0.042366	0.000012
H60	H	1.503866	0.099999	0.000027
H61	H	1.399542	0.080067	-0.065543
H62	H	1.392676	0.088416	0.065582
H63	H	1.452644	-0.065603	-0.065558
H64	H	1.445799	-0.057259	0.065579
C65	C	1.041824	0.026926	-0.096667
C66	C	1.023400	-0.029606	-0.000017
H67	H	0.989589	0.065871	-0.096673
H68	H	1.112171	0.073044	-0.096656
H69	H	1.036189	-0.019802	-0.162220
H70	H	1.029043	0.017122	0.065537
H71	H	0.953036	-0.075729	-0.000017
C72	C	0.658885	0.010006	0.096642
C73	C	0.729089	0.016835	-0.000002
H74	H	0.611079	-0.057775	0.096630
H75	H	0.699664	0.022993	0.162193
H76	H	0.618287	0.060159	0.096635
H77	H	0.769692	-0.033313	0.000010
H78	H	0.688305	0.003836	-0.065569
H79	H	1.189927	0.398794	0.303933
H80	H	1.379192	0.167562	0.303883
H81	H	1.221657	0.360042	0.696142
H82	H	0.851690	0.482319	0.000004
C83	C	1.479622	0.044875	0.541410
C84	C	1.437841	0.095908	0.464500
H85	H	1.517104	-0.000930	0.501242
H86	H	1.528030	0.094845	0.587555
H87	H	1.422061	0.006087	0.587581
H88	H	1.495403	0.134703	0.418334
H89	H	1.389430	0.045932	0.418335
H90	H	1.004773	0.407722	0.000012
H91	H	1.410921	0.128813	0.696061
C92	C	1.078179	0.374510	0.603574
C93	C	1.163010	0.431702	0.535514
H94	H	1.040703	0.420318	0.643747
H95	H	1.029771	0.324557	0.557414
H96	H	1.106537	0.339881	0.655733
H97	H	1.134651	0.466325	0.483350
H98	H	1.211426	0.481675	0.581679
C99	C	0.578828	0.476531	-0.096658
C100	C	0.637146	0.484252	-0.000007
H101	H	0.550786	0.535733	-0.096662
H102	H	0.625252	0.473396	-0.162204
H103	H	0.520881	0.415234	-0.096644
H104	H	0.695098	0.545546	-0.000025
H105	H	0.590718	0.487398	0.065556
C106	C	1.707652	-0.287909	0.000024
C107	C	1.647109	-0.214569	0.000026
H108	H	1.782406	-0.253084	0.000024
H109	H	1.687384	-0.326010	0.065579
H110	H	1.694236	-0.334363	-0.065546
H111	H	1.660518	-0.168119	0.065600
H112	H	1.667384	-0.176450	-0.065536
C113	C	1.102127	-0.585161	-0.096684
C114	C	1.159072	-0.544434	-0.000030
H115	H	1.079617	-0.658939	-0.096699
H116	H	1.040527	-0.558330	-0.096670
H117	H	1.147629	-0.565847	-0.162235
H118	H	1.113567	-0.563741	0.065521
H119	H	1.220681	-0.571275	-0.000034
H120	H	1.476097	-0.125050	0.000019
H121	H	1.028890	-0.409303	-0.000018
H122	H	1.555485	-0.426436	0.000015
