data_functionalizedCrystal
_audit_creation_method	'MofGen! by Chris Wilmer'
_symmetry_space_group_name_H-M	'P1'
_symmetry_Int_Tables_number	1
_symmetry_cell_setting	triclinic
loop_
_symmetry_equiv_pos_as_xyz
  x,y,z
_cell_length_a	13.262390
_cell_length_b	16.109295
_cell_length_c	14.586319
_cell_angle_alpha	90.002929
_cell_angle_beta	105.923165
_cell_angle_gamma	96.034104
loop_
_atom_site_label
_atom_site_type_symbol
_atom_site_fract_x
_atom_site_fract_y
_atom_site_fract_z
O1	O	1.392677	-0.111956	0.423508
O2	O	1.087079	-0.124137	0.347306
O3	O	1.248276	0.002954	0.387502
O4	O	1.231480	-0.239047	0.383311
O5	O	1.248256	0.002946	0.235016
O6	O	1.087059	-0.124145	0.194820
O7	O	1.392657	-0.111963	0.271022
Cu8	Cu	1.239856	-0.118055	0.218998
Cu9	Cu	1.239880	-0.118046	0.399330
O10	O	1.231460	-0.239055	0.230826
C11	C	1.047964	-0.123459	0.261312
C12	C	0.931444	-0.121418	0.232258
C13	C	0.603043	-0.115636	0.482852
C14	C	0.712521	-0.117550	0.510152
C15	C	0.767257	-0.118517	0.440680
C16	C	0.712505	-0.117570	0.343905
C17	C	0.603018	-0.115649	0.316603
C18	C	0.767231	-0.118531	0.274431
C19	C	0.712479	-0.117583	0.177656
C20	C	0.603003	-0.115664	0.150358
C21	C	0.548267	-0.114696	0.219829
C22	C	0.876718	-0.120451	0.301733
C23	C	0.876693	-0.120465	0.135484
C24	C	0.767215	-0.118551	0.108184
C25	C	1.247587	0.033928	0.311092
C26	C	1.245550	0.126231	0.310591
C27	C	1.431772	-0.112641	0.357018
C28	C	1.548292	-0.114683	0.386078
C29	C	1.336464	0.348171	0.333294
C30	C	1.334542	0.434899	0.332830
C31	C	1.143291	0.415724	0.285136
C32	C	1.145213	0.328998	0.285607
C33	C	1.241803	0.295224	0.309682
C34	C	1.237958	0.468678	0.308747
C35	C	1.235874	0.562712	0.308244
C36	C	1.243888	0.201184	0.310188
N37	N	1.239848	-0.118061	0.092164
C38	C	1.232156	0.729972	0.307261
C39	C	1.234211	0.637671	0.307839
C40	C	1.303504	-0.168722	-0.126970
C41	C	1.303515	-0.168716	-0.222948
C42	C	1.176238	-0.067366	-0.254694
C43	C	1.176233	-0.067368	-0.158716
C44	C	1.239864	-0.118051	-0.094857
C45	C	1.239880	-0.118043	-0.286813
C46	C	1.239891	-0.118037	-0.390878
C47	C	1.239855	-0.118057	0.009215
N48	N	1.239897	-0.118034	0.526166
H49	H	0.921286	-0.121224	0.380529
N50	N	1.440637	0.311741	0.359261
H51	H	1.500311	0.358446	0.374150
H52	H	1.445606	0.276173	0.417022
N53	N	1.436639	0.492007	0.358298
H54	H	1.498116	0.457448	0.373619
H55	H	1.439999	0.528411	0.302614
N56	N	1.043104	0.271891	0.260130
H57	H	1.039637	0.235483	0.202738
H58	H	1.039701	0.235533	0.315840
H59	H	1.064650	0.443233	0.265533
H60	H	1.355317	-0.209991	-0.074978
H61	H	1.355338	-0.209977	-0.249089
N62	N	0.885337	-0.120573	0.470120
H63	H	0.911717	-0.121025	0.541968
H64	H	0.903099	-0.172516	0.441878
N65	N	0.708151	-0.117519	0.003810
H66	H	0.734719	-0.065784	-0.025346
H67	H	0.719873	-0.168792	-0.030087
N68	N	1.107609	-0.012704	-0.323570
H69	H	1.117266	-0.020392	-0.389246
H70	H	1.031267	-0.028834	-0.325839
H71	H	1.124409	-0.026101	-0.132570
H72	H	0.558468	-0.114840	0.539405
N73	N	0.771574	-0.118562	0.614522
H74	H	0.720290	-0.117657	0.654390
H75	H	0.808477	-0.170834	0.627353
H76	H	0.558429	-0.114877	0.071558
N77	N	0.430186	-0.112622	0.190383
H78	H	0.395287	-0.163633	0.214317
H79	H	0.412446	-0.060646	0.218578
H80	H	0.921259	-0.121251	0.078915
