data_functionalizedCrystal
_audit_creation_method	'MofGen! by Chris Wilmer'
_symmetry_space_group_name_H-M	'P1'
_symmetry_Int_Tables_number	1
_symmetry_cell_setting	triclinic
loop_
_symmetry_equiv_pos_as_xyz
  x,y,z
_cell_length_a	16.956984
_cell_length_b	27.732064
_cell_length_c	15.455313
_cell_angle_alpha	92.647044
_cell_angle_beta	87.518126
_cell_angle_gamma	79.351421
loop_
_atom_site_label
_atom_site_type_symbol
_atom_site_fract_x
_atom_site_fract_y
_atom_site_fract_z
O1	O	1.061317	0.017782	-0.072133
O2	O	1.561317	0.517782	0.427867
O3	O	0.828952	0.034760	-0.072131
O4	O	1.328952	0.534760	0.427869
O5	O	0.952345	-0.044381	-0.072135
O6	O	1.452345	0.455619	0.427865
O7	O	0.937925	0.096923	-0.072128
O8	O	1.437925	0.596923	0.427872
O9	O	0.945289	-0.039873	0.072127
O10	O	1.445289	0.460127	0.572127
O11	O	0.821896	0.039268	0.072131
O12	O	1.321896	0.539268	0.572131
O13	O	1.054261	0.022290	0.072130
O14	O	1.554261	0.522290	0.572130
Cu15	Cu	0.937434	0.031191	0.085303
Cu16	Cu	1.437434	0.531191	0.585303
Cu17	Cu	0.945779	0.025859	-0.085304
Cu18	Cu	1.445779	0.525859	0.414696
O19	O	0.930869	0.101431	0.072134
O20	O	1.430869	0.601431	0.572134
C21	C	0.795705	0.037884	0.000000
C22	C	1.295705	0.537884	0.500000
C23	C	0.707153	0.040469	0.000000
C24	C	1.207153	0.540469	0.500000
C25	C	0.675597	-0.002750	-0.000000
C26	C	1.175597	0.497250	0.500000
C27	C	0.592392	-0.000318	-0.000006
C28	C	1.092392	0.499682	0.499994
C29	C	0.540745	0.045332	-0.000006
C30	C	1.040745	0.545332	0.499994
C31	C	0.572306	0.088553	-0.000008
C32	C	1.072306	0.588553	0.499992
C33	C	0.655509	0.086121	-0.000008
C34	C	1.155509	0.586121	0.499992
C35	C	0.290825	0.057370	-0.000011
C36	C	0.790825	0.557370	0.499989
C37	C	0.207617	0.059799	-0.000009
C38	C	0.707617	0.559799	0.499991
C39	C	0.227709	-0.029073	-0.000009
C40	C	0.727709	0.470927	0.499991
C41	C	0.310913	-0.031501	-0.000004
C42	C	0.810913	0.468499	0.499996
C43	C	0.342467	0.011721	-0.000010
C44	C	0.842467	0.511721	0.499990
N45	N	0.455696	0.047819	-0.000009
N46	N	0.955696	0.547819	0.499991
N47	N	0.427515	0.009233	-0.000013
N48	N	0.927515	0.509233	0.499987
C49	C	0.948512	-0.060123	-0.000007
C50	C	1.448512	0.439877	0.499993
C51	C	0.947595	-0.113745	-0.000015
C52	C	1.447595	0.386255	0.499985
C53	C	0.868430	-0.488013	-0.000018
C54	C	1.368430	0.011987	0.499982
C55	C	0.871807	-0.286472	-0.000019
C56	C	1.371807	0.213528	0.499981
O57	O	0.810379	-0.253044	-0.000053
O58	O	1.310379	0.246956	0.499947
N59	N	0.944976	-0.269937	-0.000019
N60	N	1.444976	0.230063	0.499981
C61	C	1.017307	-0.303791	-0.000025
C62	C	1.517307	0.196209	0.499975
O63	O	1.079620	-0.285103	-0.000035
O64	O	1.579620	0.214897	0.499965
C65	C	1.013929	-0.505331	-0.000030
C66	C	1.513929	-0.005331	0.499970
C67	C	0.940755	-0.521863	-0.000021
C68	C	1.440755	-0.021863	0.499979
C69	C	0.795261	-0.504545	-0.000010
C70	C	1.295261	-0.004545	0.499990
C71	C	0.794417	-0.554927	-0.000004
C72	C	1.294417	-0.054927	0.499996
C73	C	0.866742	-0.588777	-0.000008
C74	C	1.366742	-0.088777	0.499992
C75	C	0.939911	-0.572245	-0.000016
C76	C	1.439911	-0.072245	0.499984
C77	C	1.086260	-0.539184	-0.000043
C78	C	1.586260	-0.039184	0.499957
C79	C	1.085409	-0.589572	-0.000046
C80	C	1.585409	-0.089572	0.499954
C81	C	1.012234	-0.606103	-0.000037
C82	C	1.512234	-0.106103	0.499963
C83	C	1.011392	-0.656477	-0.000014
C84	C	1.511392	-0.156477	0.499986
N85	N	0.938223	-0.673012	-0.000014
N86	N	1.438223	-0.173012	0.499986
C87	C	0.865898	-0.639162	-0.000011
C88	C	1.365898	-0.139162	0.499989
C89	C	1.019075	-0.197980	-0.000021
C90	C	1.519075	0.302020	0.499979
C91	C	1.019920	-0.147595	-0.000018
C92	C	1.519920	0.352405	0.499982
C93	C	0.874419	-0.130279	-0.000013
C94	C	1.374419	0.369721	0.499987
C95	C	0.873575	-0.180665	-0.000010
C96	C	1.373575	0.319335	0.499990
C97	C	0.945906	-0.214514	-0.000021
C98	C	1.445906	0.285486	0.499979
C99	C	0.864131	-0.744968	0.000001
C100	C	1.364131	-0.244968	0.500001
C101	C	0.863294	-0.795355	0.000009
C102	C	1.363294	-0.295355	0.500009
C103	C	1.008794	-0.812667	-0.000000
C104	C	1.508794	-0.312667	0.500000
C105	C	1.009632	-0.762284	-0.000004
C106	C	1.509632	-0.262284	0.499996
C107	C	0.937294	-0.728435	-0.000007
C108	C	1.437294	-0.228435	0.499993
O109	O	1.072788	-0.689932	0.000010
O110	O	1.572788	-0.189932	0.500010
O111	O	0.803595	-0.657860	-0.000020
O112	O	1.303595	-0.157860	0.499980
C113	C	0.869274	-0.437631	-0.000023
C114	C	1.369274	0.062369	0.499977
C115	C	0.942442	-0.421099	-0.000031
C116	C	1.442442	0.078901	0.499969
C117	C	1.014767	-0.454948	-0.000035
C118	C	1.514767	0.045052	0.499965
C119	C	0.943287	-0.370714	-0.000028
C120	C	1.443287	0.129286	0.499972
C121	C	0.870962	-0.336864	-0.000025
C122	C	1.370962	0.163136	0.499975
C123	C	0.797792	-0.353399	-0.000025
C124	C	1.297792	0.146601	0.499975
C125	C	0.796949	-0.403781	-0.000020
C126	C	1.296949	0.096219	0.499980
C127	C	1.087937	-0.438413	-0.000035
C128	C	1.587937	0.061587	0.499965
C129	C	1.088774	-0.388031	-0.000039
C130	C	1.588774	0.111969	0.499961
C131	C	1.016450	-0.354181	-0.000036
C132	C	1.516450	0.145819	0.499964
C133	C	1.087508	0.019166	-0.000003
C134	C	1.587508	0.519166	0.499997
C135	C	1.176061	0.016581	-0.000009
C136	C	1.676061	0.516581	0.499991
C137	C	0.934701	0.117173	0.000004
C138	C	1.434701	0.617173	0.500004
C139	C	0.935619	0.170795	0.000006
C140	C	1.435619	0.670795	0.500006
N141	N	0.931571	0.034940	0.205299
N142	N	1.431571	0.534940	0.705299
N143	N	0.951648	0.022106	-0.205300
N144	N	1.451648	0.522106	0.294700
C145	C	0.984011	0.001329	0.250691
C146	C	1.484011	0.501329	0.750691
C147	C	0.979584	0.004169	0.341499
C148	C	1.479584	0.504169	0.841499
C149	C	0.922721	0.040622	0.386913
C150	C	1.422721	0.540622	0.886913
C151	C	0.870276	0.074234	0.341514
C152	C	1.370276	0.574234	0.841514
C153	C	0.874699	0.071392	0.250708
C154	C	1.374699	0.571392	0.750708
C155	C	0.903627	0.052876	0.658495
C156	C	1.403627	0.552876	1.158495
C157	C	0.899209	0.055717	0.749308
C158	C	1.399209	0.555717	1.249308
C159	C	1.008517	-0.014350	0.749286
C160	C	1.508517	0.485650	1.249286
C161	C	1.012938	-0.017187	0.658478
C162	C	1.512938	0.482813	1.158478
C163	C	0.960491	0.016424	0.613087
C164	C	1.460491	0.516424	1.113087
N165	N	0.918196	0.043526	0.479733
N166	N	1.418196	0.543526	0.979733
N167	N	0.965012	0.013517	0.520269
N168	N	1.465012	0.513517	1.020269
H169	H	0.681200	0.121314	-0.000004
H170	H	1.181200	0.621314	0.499996
O171	O	0.151901	0.109037	-0.000010
O172	O	0.651901	0.609037	0.499990
H173	H	0.165917	0.128038	-0.058815
H174	H	0.665917	0.628038	0.441185
H175	H	0.566704	-0.035511	-0.000008
H176	H	1.066704	0.464489	0.499992
O177	O	0.324854	0.103986	0.000007
O178	O	0.824854	0.603986	0.500007
H179	H	0.274959	0.136137	0.000025
H180	H	0.774959	0.636137	0.500025
H181	H	1.146834	-0.465970	-0.000039
H182	H	1.646834	0.034030	0.499961
O183	O	1.045339	-0.037990	0.201709
O184	O	1.545339	0.462010	0.701709
H185	H	1.081053	-0.060888	0.248533
H186	H	1.581053	0.439112	0.748533
O187	O	1.065083	-0.050600	0.798242
O188	O	1.565083	0.449400	1.298242
H189	H	1.056238	-0.088443	0.780816
H190	H	1.556238	0.411557	1.280816
O191	O	1.165185	-0.521362	-0.000074
O192	O	1.665185	-0.021362	0.499926
H193	H	1.215328	-0.553372	-0.000094
H194	H	1.715328	-0.053372	0.499906
H195	H	0.852902	0.085404	0.786280
H196	H	1.352902	0.585404	1.286280
O197	O	0.784367	-0.813187	0.000017
O198	O	1.284367	-0.313187	0.500017
H199	H	0.734220	-0.781181	0.000009
H200	H	1.234220	-0.281181	0.500009
H201	H	0.717644	-0.039923	0.000003
H202	H	1.217644	0.460077	0.500003
H203	H	1.022284	-0.023200	0.378457
H204	H	1.522284	0.476800	0.878457
H205	H	0.860923	0.080245	0.621545
H206	H	1.360923	0.580245	1.121545
H207	H	0.530248	0.125723	-0.000013
H208	H	1.030248	0.625723	0.499987
O209	O	1.097094	-0.234487	-0.000027
O210	O	1.597094	0.265513	0.499973
H211	H	1.097314	-0.256021	0.058768
H212	H	1.597314	0.243979	0.558768
H213	H	1.144311	-0.617131	-0.000059
H214	H	1.644311	-0.117131	0.499941
H215	H	0.805227	-0.717414	-0.000002
H216	H	1.305227	-0.217414	0.499998
O217	O	0.366619	-0.080737	0.000002
O218	O	0.866619	0.419263	0.500002
H219	H	0.330697	-0.110382	-0.000003
H220	H	0.830697	0.389618	0.499997
H221	H	0.823973	0.103914	0.378495
H222	H	1.323973	0.603914	0.878495
O223	O	0.818144	0.107646	0.201742
O224	O	1.318144	0.607646	0.701742
H225	H	0.777866	0.133475	0.248575
H226	H	1.277866	0.633475	0.748575
O227	O	1.086800	-0.849180	-0.000002
O228	O	1.586800	-0.349180	0.499998
H229	H	1.073913	-0.886992	-0.000006
H230	H	1.573913	-0.386992	0.499994
O231	O	1.074262	-0.056508	0.609495
O232	O	1.574262	0.443492	1.109495
H233	H	1.109979	-0.079407	0.656316
H234	H	1.609979	0.420593	1.156316
H235	H	0.734831	-0.568382	-0.000004
H236	H	1.234831	-0.068382	0.499996
O237	O	0.717243	-0.468041	0.000009
O238	O	1.217243	0.031959	0.500009
H239	H	0.685062	-0.475400	-0.058780
H240	H	1.185062	0.024600	0.441220
O241	O	0.193678	-0.075689	-0.000009
O242	O	0.693678	0.424311	0.499991
H243	H	0.127145	-0.066331	-0.000015
H244	H	0.627145	0.433669	0.499985
H245	H	0.813990	-0.194120	0.000001
H246	H	1.313990	0.305880	0.500001
H247	H	0.815529	-0.102710	-0.000007
H248	H	1.315529	0.397290	0.499993
O249	O	1.098846	-0.129769	-0.000029
O250	O	1.598846	0.370231	0.499971
H251	H	1.130701	-0.141760	0.058761
H252	H	1.630701	0.358240	0.558761
O253	O	1.088552	-0.744448	-0.000011
O254	O	1.588552	-0.244448	0.499989
H255	H	1.138702	-0.776453	-0.000016
H256	H	1.638702	-0.276453	0.499984
H257	H	0.738903	-0.325829	-0.000016
H258	H	1.238903	0.174171	0.499984
O259	O	0.718025	-0.421609	-0.000010
O260	O	1.218025	0.078391	0.499990
H261	H	0.686181	-0.409626	-0.058811
H262	H	1.186181	0.090374	0.441189
O263	O	1.167704	-0.370202	-0.000059
O264	O	1.667704	0.129798	0.499941
H265	H	1.217850	-0.402210	-0.000073
H266	H	1.717850	0.097790	0.499927
