data_functionalizedCrystal
_audit_creation_method	'MofGen! by Chris Wilmer'
_symmetry_space_group_name_H-M	'P1'
_symmetry_Int_Tables_number	1
_symmetry_cell_setting	triclinic
loop_
_symmetry_equiv_pos_as_xyz
  x,y,z
_cell_length_a	17.077404
_cell_length_b	11.169416
_cell_length_c	17.077404
_cell_angle_alpha	90.005128
_cell_angle_beta	90.008318
_cell_angle_gamma	90.010565
loop_
_atom_site_label
_atom_site_type_symbol
_atom_site_fract_x
_atom_site_fract_y
_atom_site_fract_z
Zn1	Zn	1.200036	-0.478008	0.443874
Zn2	Zn	1.700036	0.021992	0.943874
Zn3	Zn	1.199998	-0.678658	0.312622
Zn4	Zn	1.699998	-0.178658	0.812622
Zn5	Zn	1.068794	-0.477988	0.312622
Zn6	Zn	1.568794	0.022012	0.812622
Zn7	Zn	1.068765	-0.678648	0.443845
Zn8	Zn	1.568765	-0.178648	0.943845
O9	O	1.134398	-0.578326	0.378241
O10	O	1.634398	-0.078326	0.878241
O11	O	1.309878	-0.504637	0.426475
O12	O	1.809878	-0.004637	0.926475
O13	O	1.182589	-0.652035	0.202775
O14	O	1.682589	-0.152035	0.702775
O15	O	1.086232	-0.310041	0.330046
O16	O	1.586232	0.189959	0.830046
O17	O	1.309850	-0.652053	0.330044
O18	O	1.809850	-0.152053	0.830044
O19	O	1.182655	-0.310055	0.426476
O20	O	1.682655	0.189945	0.926476
O21	O	1.086194	-0.504604	0.202775
O22	O	1.586194	-0.004604	0.702775
O23	O	0.958943	-0.504594	0.330017
O24	O	1.458943	-0.004594	0.830017
O25	O	1.086182	-0.652037	0.553696
O26	O	1.586182	-0.152037	1.053696
O27	O	0.958922	-0.652018	0.426426
O28	O	1.458922	-0.152018	0.926426
O29	O	1.182627	-0.504627	0.553717
O30	O	1.682627	-0.004627	1.053717
O31	O	1.182561	-0.846606	0.330016
O32	O	1.682561	-0.346606	0.830016
O33	O	1.086145	-0.846599	0.426426
O34	O	1.586145	-0.346599	0.926426
C35	C	0.930450	-0.578304	0.378219
C36	C	1.430450	-0.078304	0.878219
C37	C	0.843201	-0.578323	0.378228
C38	C	1.343201	-0.078323	0.878228
C39	C	1.134367	-0.890150	0.378235
C40	C	1.634367	-0.390150	0.878235
C41	C	1.134426	-1.023550	0.378258
C42	C	1.634426	-0.523550	0.878258
C43	C	0.802220	-0.655203	0.428348
C44	C	1.302220	-0.155203	0.928348
C45	C	0.720240	-0.655205	0.428361
C46	C	1.220240	-0.155205	0.928361
C47	C	0.679241	-0.578334	0.378249
C48	C	1.179241	-0.078334	0.878249
C49	C	0.720228	-0.501446	0.328127
C50	C	1.220228	-0.001446	0.828127
C51	C	0.802207	-0.501438	0.328119
C52	C	1.302207	-0.001438	0.828119
C53	C	0.549358	-0.501470	0.328146
C54	C	1.049358	-0.001470	0.828146
C55	C	0.467373	-0.501479	0.328153
C56	C	0.967373	-0.001479	0.828153
C57	C	0.467391	-0.655237	0.428388
C58	C	0.967391	-0.155237	0.928388
C59	C	0.549369	-0.655229	0.428380
C60	C	1.049369	-0.155229	0.928380
C61	C	0.590350	-0.578342	0.378256
C62	C	1.090350	-0.078342	0.878256
C63	C	1.339142	-0.578348	0.378263
C64	C	1.839142	-0.078348	0.878263
C65	C	1.426392	-0.578358	0.378272
C66	C	1.926392	-0.078358	0.878272
C67	C	1.134406	-0.578333	0.582985
C68	C	1.634406	-0.078333	1.082985
C69	C	1.134409	-0.578336	0.670235
C70	C	1.634409	-0.078336	1.170235
C71	C	1.134451	-0.265283	0.378264
C72	C	1.634451	0.234717	0.878264
C73	C	1.134473	-0.131883	0.378274
C74	C	1.634473	0.368117	0.878274
C75	C	1.184621	-0.501593	0.711237
C76	C	1.684621	-0.001593	1.211237
C77	C	1.184615	-0.501591	0.793218
C78	C	1.684615	-0.001591	1.293218
C79	C	1.134399	-0.578340	0.834194
C80	C	1.634399	-0.078340	1.334194
C81	C	1.084181	-0.655087	0.793186
C82	C	1.584181	-0.155087	1.293186
C83	C	1.084184	-0.655081	0.711207
C84	C	1.584184	-0.155081	1.211207
C85	C	1.084179	-0.655095	0.964056
C86	C	1.584179	-0.155095	1.464056
C87	C	1.084177	-0.655102	1.046041
C88	C	1.584177	-0.155102	1.546041
C89	C	1.184610	-0.501604	1.046067
C90	C	1.684610	-0.001604	1.546067
C91	C	1.184613	-0.501599	0.964088
C92	C	1.684613	-0.001599	1.464088
C93	C	1.134396	-0.578348	0.923085
C94	C	1.634396	-0.078348	1.423085
C95	C	1.134387	-0.578349	1.174293
C96	C	1.634387	-0.078349	1.674293
C97	C	1.134390	-0.578358	1.087043
C98	C	1.634390	-0.078358	1.587043
H99	H	0.835595	-0.717805	0.469152
H100	H	1.335595	-0.217805	0.969152
Cl101	Cl	0.600909	-0.751877	0.491373
Cl102	Cl	1.100909	-0.251877	0.991373
Cl103	Cl	0.415833	-0.404844	0.265151
Cl104	Cl	0.915833	0.095156	0.765151
Cl105	Cl	1.247758	-0.405109	0.659732
Cl106	Cl	1.747758	0.094891	1.159732
H107	H	0.434020	-0.717837	0.469202
H108	H	0.934020	-0.217837	0.969202
H109	H	0.686877	-0.717809	0.469172
H110	H	1.186877	-0.217809	0.969172
Cl111	Cl	0.668687	-0.404799	0.265134
Cl112	Cl	1.168687	0.095201	0.765134
H113	H	0.582722	-0.438850	0.287338
H114	H	1.082722	0.061150	0.787338
Cl115	Cl	0.853725	-0.404783	0.265111
Cl116	Cl	1.353725	0.095217	0.765111
H117	H	1.225505	-0.439102	0.826598
H118	H	1.725505	0.060898	1.326598
Cl119	Cl	1.021047	-0.751579	0.912511
Cl120	Cl	1.521047	-0.251579	1.412511
Cl121	Cl	1.247747	-0.405120	0.912575
Cl122	Cl	1.747747	0.094880	1.412575
Cl123	Cl	1.247741	-0.405122	1.097612
Cl124	Cl	1.747741	0.094878	1.597612
H125	H	1.043285	-0.717595	1.079401
H126	H	1.543285	-0.217595	1.579401
Cl127	Cl	1.021050	-0.751567	0.844699
Cl128	Cl	1.521050	-0.251567	1.344699
H129	H	1.043288	-0.717562	0.677824
H130	H	1.543288	-0.217562	1.177824
