data_functionalizedCrystal
_audit_creation_method	'MofGen! by Chris Wilmer'
_symmetry_space_group_name_H-M	'P1'
_symmetry_Int_Tables_number	1
_symmetry_cell_setting	triclinic
loop_
_symmetry_equiv_pos_as_xyz
  x,y,z
_cell_length_a	27.732064
_cell_length_b	27.731996
_cell_length_c	14.048226
_cell_angle_alpha	89.987595
_cell_angle_beta	90.001165
_cell_angle_gamma	82.635407
loop_
_atom_site_label
_atom_site_type_symbol
_atom_site_fract_x
_atom_site_fract_y
_atom_site_fract_z
O1	O	0.640912	0.057558	-0.079003
O2	O	0.500118	0.066295	-0.079044
O3	O	0.574901	-0.008472	-0.079002
O4	O	0.566129	0.132325	-0.079045
O5	O	0.574892	-0.008476	0.079320
O6	O	0.500110	0.066291	0.079277
O7	O	0.640903	0.057553	0.079318
Zn8	Zn	0.570505	0.061921	0.104435
Zn9	Zn	0.570517	0.061927	-0.104160
O10	O	0.566121	0.132320	0.079276
C11	C	0.482107	0.066108	0.000112
C12	C	0.428453	0.065552	0.000097
C13	C	0.051389	0.017584	0.000166
C14	C	0.253049	0.019630	0.000141
O15	O	0.284309	-0.017592	0.000188
N16	N	0.272168	0.063966	0.000123
C17	C	0.240869	0.107792	0.000118
O18	O	0.261758	0.145549	0.000111
C19	C	0.039210	0.105746	0.000150
C20	C	0.020094	0.061407	0.000158
C21	C	0.032272	-0.026751	0.000176
C22	C	-0.018140	-0.027262	0.000177
C23	C	-0.049435	0.016562	0.000169
C24	C	-0.030318	0.060896	0.000159
C25	C	0.007912	0.149572	0.000151
C26	C	-0.042506	0.149057	0.000162
C27	C	-0.061622	0.104718	0.000170
C28	C	-0.112026	0.104209	0.000152
N29	N	-0.131145	0.059873	0.000170
C30	C	-0.099849	0.016050	0.000178
C31	C	0.346743	0.108864	0.000099
C32	C	0.397158	0.109376	0.000089
C33	C	0.409334	0.021213	0.000114
C34	C	0.358919	0.020702	0.000117
C35	C	0.327624	0.064529	0.000117
C36	C	-0.205719	0.014980	0.000180
C37	C	-0.256136	0.014473	0.000177
C38	C	-0.268308	0.102635	0.000157
C39	C	-0.217895	0.103142	0.000155
C40	C	-0.186601	0.059311	0.000170
O41	O	-0.143313	0.141411	0.000116
O42	O	-0.120748	-0.021702	0.000206
C43	C	0.101801	0.018095	0.000165
C44	C	0.120918	0.062430	0.000156
C45	C	0.089623	0.106253	0.000147
C46	C	0.171332	0.062941	0.000146
C47	C	0.202628	0.019118	0.000154
C48	C	0.183508	-0.025218	0.000172
C49	C	0.133096	-0.025729	0.000173
C50	C	0.108742	0.150589	0.000129
C51	C	0.159154	0.151096	0.000127
C52	C	0.190450	0.107273	0.000136
C53	C	0.574717	-0.026482	0.000162
C54	C	0.574174	-0.080138	0.000172
C55	C	0.570764	-0.412852	-0.086177
C56	C	0.568703	-0.614510	-0.086194
O57	O	0.568420	-0.640579	-0.159590
N58	N	0.568442	-0.639730	0.000106
C59	C	0.568693	-0.614531	0.086417
O60	O	0.568419	-0.640608	0.159820
C61	C	0.570751	-0.412873	0.086433
C62	C	0.571017	-0.387657	0.000127
C63	C	0.571029	-0.387636	-0.172475
C64	C	0.571547	-0.337224	-0.172470
C65	C	0.571800	-0.312030	-0.086166
C66	C	0.571535	-0.337246	0.000133
C67	C	0.570999	-0.387675	0.172743
C68	C	0.571512	-0.337257	0.172739
C69	C	0.571778	-0.312041	0.086433
C70	C	0.572305	-0.261640	0.086442
N71	N	0.572566	-0.236420	0.000142
C72	C	0.572313	-0.261615	-0.086162
C73	C	0.567614	-0.720405	0.086402
C74	C	0.567101	-0.770819	0.086398
C75	C	0.567109	-0.770794	-0.086213
C76	C	0.567626	-0.720380	-0.086208
C77	C	0.567875	-0.695185	0.000102
C78	C	0.573401	-0.155748	-0.086145
C79	C	0.573921	-0.105333	-0.086132
C80	C	0.573910	-0.105361	0.086478
C81	C	0.573393	-0.155773	0.086466
C82	C	0.573137	-0.180965	0.000147
O83	O	0.572583	-0.235539	0.159799
O84	O	0.572577	-0.235528	-0.159554
C85	C	0.570246	-0.463263	-0.086182
C86	C	0.569981	-0.488479	0.000117
C87	C	0.570234	-0.463285	0.086421
C88	C	0.569467	-0.538894	0.000113
C89	C	0.569215	-0.564089	-0.086191
C90	C	0.569476	-0.538869	-0.172491
C91	C	0.569993	-0.488458	-0.172486
C92	C	0.569973	-0.488504	0.172721
C93	C	0.569455	-0.538915	0.172709
C94	C	0.569203	-0.564110	0.086405
C95	C	0.658915	0.057740	0.000161
C96	C	0.712569	0.058296	0.000169
C97	C	0.566305	0.150330	0.000110
C98	C	0.566848	0.203986	0.000094
N99	N	0.570501	0.061917	0.246796
N100	N	0.570525	0.061927	-0.246521
C101	C	0.603625	0.028824	0.296632
C102	C	0.603628	0.028824	0.396290
C103	C	0.570509	0.061919	0.446109
C104	C	0.537381	0.095014	0.396265
C105	C	0.537376	0.095012	0.296609
C106	C	0.537395	0.095018	0.603980
C107	C	0.537401	0.095021	0.703642
C108	C	0.603647	0.028829	0.703660
C109	C	0.603642	0.028827	0.604004
C110	C	0.570515	0.061923	0.554167
H111	H	0.083265	0.186276	0.000124
H112	H	0.321266	0.144555	0.000097
H113	H	-0.293798	0.138315	0.000146
N114	N	0.113582	-0.071024	0.000178
N115	N	0.141537	-0.110145	0.000185
H116	H	0.127759	-0.142138	0.000189
H117	H	0.208998	-0.060900	0.000173
H118	H	0.571707	-0.316745	0.243025
N119	N	0.503558	0.128818	0.553057
N120	N	0.473670	0.113685	0.497459
H121	H	0.449775	0.137557	0.461493
N122	N	0.573114	-0.181534	0.174621
N123	N	0.538733	-0.204949	0.193858
H124	H	0.538531	-0.223141	0.256118
N125	N	0.573139	-0.181484	-0.174307
N126	N	0.538768	-0.204901	-0.193590
H127	H	0.538585	-0.223079	-0.255854
N128	N	0.637427	-0.005005	0.245731
N129	N	0.637074	-0.049677	0.256891
H130	H	0.660936	-0.073576	0.220933
N131	N	0.567882	-0.694674	0.174571
N132	N	0.602256	-0.671259	0.193845
H133	H	0.602447	-0.653088	0.256116
N134	N	0.064235	-0.071520	0.000200
N135	N	0.062682	-0.101095	0.066944
H136	H	0.085253	-0.132717	0.066957
N137	N	0.178669	0.196395	0.000107
N138	N	0.150716	0.235517	0.000101
H139	H	0.164496	0.267509	0.000093
H140	H	0.510432	0.121970	0.744200
N141	N	0.569190	-0.564663	0.260883
N142	N	0.569415	-0.542156	0.337930
H143	H	0.569225	-0.560338	0.400202
N144	N	0.569228	-0.564611	-0.260651
N145	N	0.603029	-0.597452	-0.279892
H146	H	0.602853	-0.615634	-0.342151
H147	H	0.510413	0.121960	0.436834
N148	N	0.503536	0.128817	0.245714
N149	N	0.473967	0.158365	0.290203
H150	H	0.450064	0.182240	0.254260
H151	H	0.574118	-0.084839	0.156745
H152	H	0.574139	-0.084804	-0.156416
N153	N	0.637465	-0.004986	0.447182
N154	N	0.667034	-0.034532	0.402690
H155	H	0.690933	-0.058412	0.438631
H156	H	0.630612	0.001880	0.563442
N157	N	-0.275653	-0.030824	0.000179
N158	N	-0.247702	-0.069948	0.000187
H159	H	-0.261484	-0.101939	0.000189
N160	N	0.571817	-0.311478	-0.260639
N161	N	0.571589	-0.333987	-0.337682
H162	H	0.571778	-0.315807	-0.399957
H163	H	0.570179	-0.467996	0.243001
N164	N	0.566854	-0.796526	-0.174383
N165	N	0.600998	-0.795600	-0.232167
H166	H	0.600815	-0.813773	-0.294436
N167	N	0.570732	-0.413417	0.260912
N168	N	0.570956	-0.390906	0.337954
H169	H	0.570767	-0.409086	0.400230
N170	N	-0.198359	0.148428	0.000129
N171	N	-0.171585	0.158553	-0.066606
H172	H	-0.157790	0.190537	-0.066617
H173	H	-0.180245	-0.020712	0.000192
N174	N	0.637468	-0.004989	0.754576
N175	N	0.637458	-0.004996	0.843554
H176	H	0.661338	-0.028884	0.879519
H177	H	-0.033699	-0.063367	0.000188
N178	N	0.570267	-0.462712	-0.260654
N179	N	0.570041	-0.485222	-0.337698
H180	H	0.570234	-0.467042	-0.399973
N181	N	0.570768	-0.413359	-0.260649
N182	N	0.571003	-0.390828	-0.337687
H183	H	0.570821	-0.408992	-0.399966
H184	H	0.566892	-0.791347	0.156677
N185	N	0.339402	-0.024592	0.000124
N186	N	0.367356	-0.063715	0.000126
H187	H	0.353576	-0.095707	0.000131
H188	H	0.567842	-0.699852	-0.156486
H189	H	0.412717	0.145480	0.000069
N190	N	0.441314	-0.023548	0.000120
N191	N	0.486324	-0.023079	0.000114
H192	H	0.508912	-0.054689	0.000124
H193	H	-0.067984	0.184746	0.000166
N194	N	0.027422	0.194868	0.000137
N195	N	-0.000535	0.233988	0.000134
H196	H	0.013242	0.265981	0.000124
