data_functionalizedCrystal
_audit_creation_method	'MofGen! by Chris Wilmer'
_symmetry_space_group_name_H-M	'P1'
_symmetry_Int_Tables_number	1
_symmetry_cell_setting	triclinic
loop_
_symmetry_equiv_pos_as_xyz
  x,y,z
_cell_length_a	14.044209
_cell_length_b	11.792241
_cell_length_c	10.868271
_cell_angle_alpha	90.005281
_cell_angle_beta	89.998683
_cell_angle_gamma	88.690684
loop_
_atom_site_label
_atom_site_type_symbol
_atom_site_fract_x
_atom_site_fract_y
_atom_site_fract_z
O1	O	-1.259115	-0.273758	-0.102175
O2	O	-0.925781	0.059575	0.231159
O3	O	-0.592448	0.392908	0.564492
O4	O	-0.983094	-0.263882	-0.102210
O5	O	-0.649761	0.069451	0.231124
O6	O	-0.316428	0.402785	0.564457
O7	O	-1.127803	-0.104278	-0.102183
O8	O	-0.794469	0.229055	0.231151
O9	O	-0.461136	0.562388	0.564484
O10	O	-1.114406	-0.433362	-0.102202
O11	O	-0.781073	-0.100029	0.231132
O12	O	-0.447740	0.233305	0.564465
O13	O	-1.127791	-0.104270	0.102462
O14	O	-0.794457	0.229063	0.435795
O15	O	-0.461124	0.562396	0.769129
O16	O	-0.983082	-0.263874	0.102435
O17	O	-0.649749	0.069459	0.435768
O18	O	-0.316416	0.402793	0.769102
O19	O	-1.259103	-0.273750	0.102470
O20	O	-0.925769	0.059583	0.435803
O21	O	-0.592436	0.392916	0.769137
Zn22	Zn	-1.121091	-0.268811	0.134944
Zn23	Zn	-0.787757	0.064522	0.468278
Zn24	Zn	-0.454424	0.397856	0.801611
Zn25	Zn	-1.121106	-0.268821	-0.134684
Zn26	Zn	-0.787773	0.064512	0.198649
Zn27	Zn	-0.454440	0.397845	0.531983
O28	O	-1.114394	-0.433354	0.102443
O29	O	-0.781061	-0.100021	0.435776
O30	O	-0.447728	0.233313	0.769110
C31	C	-0.947752	-0.259554	0.000108
C32	C	-0.614418	0.073779	0.333442
C33	C	-0.281085	0.407113	0.666775
C34	C	-0.842459	-0.246656	0.000095
C35	C	-0.509126	0.086677	0.333428
C36	C	-0.175793	0.420011	0.666762
N37	N	-1.121087	-0.268804	0.318958
N38	N	-0.787753	0.064530	0.652292
N39	N	-0.454420	0.397863	0.985625
C40	C	-1.126955	-0.061905	0.000139
C41	C	-0.793622	0.271429	0.333472
C42	C	-0.460289	0.604762	0.666806
C43	C	-1.124436	0.064346	0.000138
C44	C	-0.791103	0.397679	0.333471
C45	C	-0.457770	0.731012	0.666804
C46	C	-0.649677	-0.223076	0.000118
C47	C	-0.316343	0.110258	0.333451
C48	C	0.016990	0.443591	0.666785
C49	C	-0.592514	-0.314561	0.000117
C50	C	-0.259180	0.018772	0.333451
C51	C	0.074153	0.352105	0.666784
C52	C	-0.485243	-0.301441	0.000130
C53	C	-0.151909	0.031893	0.333463
C54	C	0.181424	0.365226	0.666797
C55	C	-0.756958	-0.236194	0.000105
C56	C	-0.423624	0.097139	0.333439
C57	C	-0.090291	0.430472	0.666772
C58	C	-0.294445	-0.278081	0.000146
C59	C	0.038888	0.055252	0.333479
C60	C	0.372222	0.388586	0.666813
C61	C	-0.399736	-0.290986	0.000140
C62	C	-0.066403	0.042347	0.333474
C63	C	0.266930	0.375681	0.666807
C64	C	-1.115242	-0.475728	0.000119
C65	C	-0.781908	-0.142395	0.333452
C66	C	-0.448575	0.190939	0.666785
C67	C	-1.117760	-0.601978	0.000112
C68	C	-0.784427	-0.268645	0.333445
C69	C	-0.451094	0.064689	0.666779
C70	C	-1.119805	0.295493	0.000116
C71	C	-0.786472	0.628826	0.333450
C72	C	-0.453138	0.962159	0.666783
C73	C	-1.122378	0.166866	0.000128
C74	C	-0.789045	0.500199	0.333461
C75	C	-0.455712	0.833532	0.666795
N76	N	-1.121118	-0.268820	-0.318698
N77	N	-0.787784	0.064513	0.014635
N78	N	-0.454451	0.397846	0.347969
C79	C	-1.121101	-0.268819	0.569964
C80	C	-0.787768	0.064515	0.903298
C81	C	-0.454435	0.397848	1.236631
C82	C	-1.121090	-0.268813	0.430287
C83	C	-0.787757	0.064520	0.763620
C84	C	-0.454424	0.397853	1.096954
H85	H	-0.624138	-0.402738	0.000107
H86	H	-0.290804	-0.069405	0.333440
H87	H	0.042529	0.263929	0.666773
Br88	Br	-0.596970	-0.076116	0.000132
Br89	Br	-0.263637	0.257217	0.333465
Br90	Br	0.069696	0.590551	0.666799
