data_functionalizedCrystal
_audit_creation_method	'MofGen! by Chris Wilmer'
_symmetry_space_group_name_H-M	'P1'
_symmetry_Int_Tables_number	1
_symmetry_cell_setting	triclinic
loop_
_symmetry_equiv_pos_as_xyz
  x,y,z
_cell_length_a	13.032831
_cell_length_b	13.031981
_cell_length_c	13.032268
_cell_angle_alpha	89.068348
_cell_angle_beta	90.886977
_cell_angle_gamma	89.102241
loop_
_atom_site_label
_atom_site_type_symbol
_atom_site_fract_x
_atom_site_fract_y
_atom_site_fract_z
Zn1	Zn	1.423902	-0.684142	-0.684409
Zn2	Zn	1.923902	-0.184142	-0.184409
Zn3	Zn	1.429191	-0.835076	-0.491156
Zn4	Zn	1.929191	-0.335076	0.008844
Zn5	Zn	1.278373	-0.641823	-0.496615
Zn6	Zn	1.778373	-0.141823	0.003385
Zn7	Zn	1.236036	-0.829599	-0.642053
Zn8	Zn	1.736036	-0.329599	-0.142053
O9	O	1.341876	-0.747660	-0.578558
O10	O	1.841876	-0.247660	-0.078558
O11	O	1.566344	-0.724167	-0.674215
O12	O	2.066344	-0.224167	-0.174215
O13	O	1.429117	-0.794022	-0.350137
O14	O	1.929117	-0.294022	0.149863
O15	O	1.313183	-0.505686	-0.541537
O16	O	1.813183	-0.005686	-0.041537
O17	O	1.570230	-0.835057	-0.532233
O18	O	2.070230	-0.335057	-0.032233
O19	O	1.420102	-0.536778	-0.679509
O20	O	1.920102	-0.036778	-0.179509
O21	O	1.318311	-0.652040	-0.354147
O22	O	1.818311	-0.152040	0.145853
O23	O	1.131017	-0.646729	-0.500466
O24	O	1.631017	-0.146729	-0.000466
O25	O	1.241025	-0.825722	-0.789415
O26	O	1.741025	-0.325722	-0.289415
O27	O	1.099912	-0.784687	-0.607319
O28	O	1.599912	-0.284687	-0.107319
O29	O	1.379049	-0.718856	-0.820534
O30	O	1.879049	-0.218856	-0.320534
O31	O	1.388064	-0.976100	-0.491162
O32	O	1.888064	-0.476100	0.008838
O33	O	1.246154	-0.972076	-0.602026
O34	O	1.746154	-0.472076	-0.102026
C35	C	1.078713	-0.710522	-0.549889
C36	C	1.578713	-0.210522	-0.049889
C37	C	0.966125	-0.694662	-0.537645
C38	C	1.466125	-0.194662	-0.037645
C39	C	0.900569	-0.755938	-0.584949
C40	C	1.400569	-0.255938	-0.084949
C41	C	0.784203	-0.739547	-0.572295
C42	C	1.284203	-0.239547	-0.072295
C43	C	1.313113	-1.010849	-0.541431
C44	C	1.813113	-0.510849	-0.041431
C45	C	1.300896	-1.123459	-0.525591
C46	C	1.800896	-0.623459	-0.025591
C47	C	1.348303	-1.188965	-0.586851
C48	C	1.848303	-0.688965	-0.086851
C49	C	1.335677	-1.305354	-0.570482
C50	C	1.835677	-0.805354	-0.070482
C51	C	1.606066	-0.784944	-0.607340
C52	C	2.106066	-0.284944	-0.107340
C53	C	1.718648	-0.800832	-0.619605
C54	C	2.218648	-0.300832	-0.119605
C55	C	1.304725	-0.776399	-0.842755
C56	C	1.804725	-0.276399	-0.342755
C57	C	1.288893	-0.788645	-0.955340
C58	C	1.788893	-0.288645	-0.455340
C59	C	1.370775	-0.483450	-0.615856
C60	C	1.870775	0.016550	-0.115856
C61	C	1.383090	-0.370859	-0.631750
C62	C	1.883090	0.129141	-0.131750
C63	C	1.350126	-0.741230	-1.020931
C64	C	1.850126	-0.241230	-0.520931
C65	C	1.333765	-0.753886	-1.137293
C66	C	1.833765	-0.253886	-0.637293
C67	C	1.378948	-0.718969	-0.315406
C68	C	1.878948	-0.218969	0.184594
C69	C	1.395007	-0.706464	-0.202883
C70	C	1.895007	-0.206464	0.297117
H71	H	0.936100	-0.630062	-0.487783
H72	H	1.436100	-0.130062	0.012217
F73	F	1.204532	-0.853947	-0.994536
F74	F	1.704532	-0.353947	-0.494536
H75	H	0.748666	-0.865427	-0.669482
H76	H	1.248666	-0.365427	-0.169482
H77	H	1.250958	-1.153542	-0.461030
H78	H	1.750958	-0.653542	0.038970
H79	H	1.285735	-1.335432	-0.505916
H80	H	1.785735	-0.835432	-0.005916
H81	H	1.459544	-0.656490	-1.172898
H82	H	1.959544	-0.156490	-0.672898
H83	H	1.414660	-0.691262	-0.990939
H84	H	1.914660	-0.191262	-0.490939
F85	F	0.939807	-0.840374	-0.650126
F86	F	1.439807	-0.340374	-0.150126
F87	F	1.249400	-0.819192	-1.176484
F88	F	1.749400	-0.319192	-0.676484
H89	H	0.754183	-0.674943	-0.522429
H90	H	1.254183	-0.174943	-0.022429
H91	H	1.398232	-1.158884	-0.651421
H92	H	1.898232	-0.658884	-0.151421
H93	H	1.433023	-1.340782	-0.696324
H94	H	1.933023	-0.840782	-0.196324
