data_functionalizedCrystal
_audit_creation_method	'MofGen! by Chris Wilmer'
_symmetry_space_group_name_H-M	'P1'
_symmetry_Int_Tables_number	1
_symmetry_cell_setting	triclinic
loop_
_symmetry_equiv_pos_as_xyz
  x,y,z
_cell_length_a	9.065215
_cell_length_b	14.044190
_cell_length_c	7.540329
_cell_angle_alpha	89.991504
_cell_angle_beta	89.997574
_cell_angle_gamma	89.103237
loop_
_atom_site_label
_atom_site_type_symbol
_atom_site_fract_x
_atom_site_fract_y
_atom_site_fract_z
O1	O	1.975825	0.139128	-0.147485
O2	O	1.547805	0.150544	-0.147495
O3	O	1.755385	0.006796	-0.147455
O4	O	1.768245	0.282876	-0.147525
O5	O	1.755371	0.006794	0.147510
O6	O	1.547791	0.150542	0.147470
O7	O	1.975811	0.139126	0.147480
Cu8	Cu	1.761800	0.144834	0.174408
Cu9	Cu	1.761816	0.144836	-0.174423
O10	O	1.768231	0.282874	0.147440
C11	C	1.492690	0.149446	-0.000013
C12	C	1.328483	0.146168	-0.000016
C13	C	1.749752	-0.028568	0.000032
C14	C	1.732971	-0.133938	0.000047
C15	C	1.821307	-0.383466	-0.000020
C16	C	1.702315	-0.326858	-0.000011
C17	C	1.719376	-0.219507	0.000022
C18	C	1.804249	-0.490827	-0.000052
C19	C	2.030926	0.140224	-0.000006
C20	C	2.195133	0.143502	-0.000015
C21	C	1.773864	0.318238	-0.000051
C22	C	1.790645	0.423608	-0.000078
N23	N	1.761799	0.144832	0.419756
N24	N	1.761827	0.144831	-0.419771
H25	H	1.587630	-0.359017	-0.000023
H26	H	1.935983	-0.351309	0.000001
