data_functionalizedCrystal
_audit_creation_method	'MofGen! by Chris Wilmer'
_symmetry_space_group_name_H-M	'P1'
_symmetry_Int_Tables_number	1
_symmetry_cell_setting	triclinic
loop_
_symmetry_equiv_pos_as_xyz
  x,y,z
_cell_length_a	29.839131
_cell_length_b	13.897449
_cell_length_c	13.897441
_cell_angle_alpha	90.018596
_cell_angle_beta	89.965828
_cell_angle_gamma	89.957300
loop_
_atom_site_label
_atom_site_type_symbol
_atom_site_fract_x
_atom_site_fract_y
_atom_site_fract_z
Zn1	Zn	-0.178828	-1.474523	-0.545351
Zn2	Zn	0.321172	-0.974523	-0.045351
Zn3	Zn	-0.253962	-1.474356	-0.384039
Zn4	Zn	0.246038	-0.974356	0.115961
Zn5	Zn	-0.178848	-1.313218	-0.384069
Zn6	Zn	0.321152	-0.813218	0.115931
Zn7	Zn	-0.253933	-1.313127	-0.545292
Zn8	Zn	0.246067	-0.813127	-0.045292
O9	O	-0.216393	-1.393806	-0.464688
O10	O	0.283607	-0.893806	0.035312
O11	O	-0.188798	-1.609483	-0.523965
O12	O	0.311202	-1.109483	-0.023965
O13	O	-0.244018	-1.452949	-0.249061
O14	O	0.255982	-0.952949	0.250939
O15	O	-0.115978	-1.334724	-0.405500
O16	O	0.384022	-0.834724	0.094500
O17	O	-0.243998	-1.609360	-0.405450
O18	O	0.256002	-1.109360	0.094550
O19	O	-0.115964	-1.453234	-0.523993
O20	O	0.384036	-0.953234	-0.023993
O21	O	-0.188832	-1.334562	-0.249083
O22	O	0.311168	-0.834562	0.250917
O23	O	-0.188805	-1.178225	-0.405443
O24	O	0.311195	-0.678225	0.094557
O25	O	-0.243950	-1.334569	-0.680281
O26	O	0.256050	-0.834569	-0.180281
O27	O	-0.243970	-1.178158	-0.523893
O28	O	0.256030	-0.678158	-0.023893
O29	O	-0.188771	-1.453145	-0.680325
O30	O	0.311229	-0.953145	-0.180325
O31	O	-0.316825	-1.452861	-0.405393
O32	O	0.183175	-0.952861	0.094607
O33	O	-0.316804	-1.334407	-0.523864
O34	O	0.183196	-0.834407	-0.023864
C35	C	-0.216387	-1.143192	-0.464666
C36	C	0.283613	-0.643192	0.035334
C37	C	-0.216395	-1.035978	-0.464679
C38	C	0.283605	-0.535978	0.035321
C39	C	-0.333115	-1.393632	-0.464640
C40	C	0.166885	-0.893632	0.035360
C41	C	-0.383050	-1.393646	-0.464652
C42	C	0.116950	-0.893646	0.035348
C43	C	-0.216355	-1.393865	-0.716281
C44	C	0.283645	-0.893865	-0.216281
C45	C	-0.216339	-1.393891	-0.823495
C46	C	0.283661	-0.893891	-0.323495
C47	C	-0.692691	-1.455598	-0.403090
C48	C	-0.192691	-0.955598	0.096910
C49	C	-0.880364	-1.455717	-0.403127
C50	C	-0.380364	-0.955717	0.096873
O51	O	-0.904628	-1.508252	-0.350748
O52	O	-0.404628	-1.008252	0.149252
N53	N	-0.903835	-1.394006	-0.464760
N54	N	-0.403835	-0.894006	0.035240
C55	C	-0.880384	-1.332266	-0.526393
C56	C	-0.380384	-0.832266	-0.026393
O57	O	-0.904653	-1.279788	-0.578824
O58	O	-0.404653	-0.779788	-0.078824
C59	C	-0.692712	-1.332153	-0.526360
C60	C	-0.192712	-0.832153	-0.026360
C61	C	-0.669244	-1.393860	-0.464716
C62	C	-0.169244	-0.893860	0.035284
C63	C	-0.669223	-1.517301	-0.341451
C64	C	-0.169223	-1.017301	0.158549
C65	C	-0.622308	-1.517267	-0.341439
C66	C	-0.122308	-1.017267	0.158561
C67	C	-0.598860	-1.455529	-0.403065
C68	C	-0.098860	-0.955529	0.096935
C69	C	-0.622328	-1.393826	-0.464703
C70	C	-0.122328	-0.893826	0.035297
C71	C	-0.669262	-1.270418	-0.587997
C72	C	-0.169262	-0.770418	-0.087997
C73	C	-0.622341	-1.270397	-0.587985
C74	C	-0.122341	-0.770397	-0.087985
C75	C	-0.598873	-1.332105	-0.526341
C76	C	-0.098873	-0.832105	-0.026341
C77	C	-0.551966	-1.332055	-0.526317
C78	C	-0.051966	-0.832055	-0.026317
N79	N	-0.528495	-1.393765	-0.464684
N80	N	-0.028495	-0.893765	0.035316
C81	C	-0.551943	-1.455503	-0.403057
C82	C	-0.051943	-0.955503	0.096943
C83	C	-0.978915	-1.332329	-0.526405
C84	C	-0.478915	-0.832329	-0.026405
C85	C	-1.025833	-1.332356	-0.526412
C86	C	-0.525833	-0.832356	-0.026412
C87	C	-1.025810	-1.455808	-0.403147
C88	C	-0.525810	-0.955808	0.096853
C89	C	-0.978891	-1.455775	-0.403136
C90	C	-0.478891	-0.955775	0.096864
C91	C	-0.955444	-1.394039	-0.464772
C92	C	-0.455444	-0.894039	0.035228
C93	C	-0.453417	-1.455426	-0.403035
C94	C	0.046583	-0.955426	0.096965
C95	C	-0.406497	-1.455383	-0.403026
C96	C	0.093503	-0.955383	0.096974
C97	C	-0.406524	-1.331935	-0.526294
C98	C	0.093476	-0.831935	-0.026294
C99	C	-0.453440	-1.331974	-0.526301
C100	C	0.046560	-0.831974	-0.026301
C101	C	-0.476885	-1.393727	-0.464668
C102	C	0.023115	-0.893727	0.035332
O103	O	-0.527674	-1.279555	-0.578676
O104	O	-0.027674	-0.779555	-0.078676
O105	O	-0.527665	-1.507988	-0.350650
O106	O	-0.027665	-1.007988	0.149350
C107	C	-0.739607	-1.455632	-0.403102
C108	C	-0.239607	-0.955632	0.096898
C109	C	-0.763075	-1.393929	-0.464741
C110	C	-0.263075	-0.893929	0.035259
C111	C	-0.739627	-1.332191	-0.526367
C112	C	-0.239627	-0.832191	-0.026367
C113	C	-0.809993	-1.393955	-0.464748
C114	C	-0.309993	-0.893955	0.035252
C115	C	-0.833440	-1.455693	-0.403122
C116	C	-0.333440	-0.955693	0.096878
C117	C	-0.809970	-1.517403	-0.341489
C118	C	-0.309970	-1.017403	0.158511
C119	C	-0.763054	-1.517369	-0.341476
C120	C	-0.263054	-1.017369	0.158524
C121	C	-0.763098	-1.270481	-0.588000
C122	C	-0.263098	-0.770481	-0.088000
C123	C	-0.810013	-1.270519	-0.588007
C124	C	-0.310013	-0.770519	-0.088007
C125	C	-0.833461	-1.332256	-0.526381
C126	C	-0.333461	-0.832256	-0.026381
C127	C	-0.099214	-1.394007	-0.464757
C128	C	0.400786	-0.894007	0.035243
C129	C	-0.049280	-1.394093	-0.464786
C130	C	0.450720	-0.894093	0.035214
C131	C	-0.216399	-1.645399	-0.464710
C132	C	0.283601	-1.145399	0.035290
C133	C	-0.216402	-1.752613	-0.464720
C134	C	0.283598	-1.252613	0.035280
C135	C	-0.216397	-0.839683	-0.464704
C136	C	0.283603	-0.339683	0.035296
C137	C	-0.216394	-0.948915	-0.464688
C138	C	0.283606	-0.448915	0.035312
C139	C	-0.216326	-1.393910	-0.910565
C140	C	0.283674	-0.893910	-0.410565
C141	C	-0.216306	-1.393938	-1.019797
C142	C	0.283694	-0.893938	-0.519797
C143	C	-0.216398	-1.393803	-0.214073
C144	C	0.283602	-0.893803	0.285927
C145	C	-0.216287	-1.393965	-0.106860
C146	C	0.283713	-0.893965	0.393140
H147	H	-0.472500	-1.505713	-0.352851
H148	H	0.027500	-1.005713	0.147149
H149	H	-0.829069	-1.567669	-0.291308
H150	H	-0.329069	-1.067669	0.208692
H151	H	-1.044908	-1.506077	-0.352969
H152	H	-0.544908	-1.006077	0.147031
H153	H	-0.959828	-1.282054	-0.576598
H154	H	-0.459828	-0.782054	-0.076598
O155	O	-1.048557	-1.272375	-0.586377
O156	O	-0.548557	-0.772375	-0.086377
C157	C	-1.017795	-1.217867	-0.640748
C158	C	-0.517795	-0.717867	-0.140748
H159	H	-0.984332	-1.257360	-0.644110
H160	H	-0.484332	-0.757360	-0.144110
H161	H	-1.031328	-1.207542	-0.716743
H162	H	-0.531328	-0.707542	-0.216743
H163	H	-1.012850	-1.144626	-0.605358
H164	H	-0.512850	-0.644626	-0.105358
H165	H	-0.387391	-1.505633	-0.352824
H166	H	0.112609	-1.005633	0.147176
O167	O	-0.476170	-1.271999	-0.586268
O168	O	0.023830	-0.771999	-0.086268
C169	C	-0.445411	-1.217481	-0.640637
C170	C	0.054589	-0.717481	-0.140637
H171	H	-0.411944	-1.256960	-0.643992
H172	H	0.088056	-0.756960	-0.143992
H173	H	-0.458943	-1.207164	-0.716634
H174	H	0.041057	-0.707164	-0.216634
H175	H	-0.440474	-1.144236	-0.605250
H176	H	0.059526	-0.644236	-0.105250
H177	H	-0.387426	-1.281666	-0.576466
H178	H	0.112574	-0.781666	-0.076466
H179	H	-0.603203	-1.567517	-0.291246
H180	H	-0.103203	-1.067517	0.208754
O181	O	-0.599518	-1.210375	-0.647726
O182	O	-0.099518	-0.710375	-0.147726
C183	C	-0.572436	-1.148063	-0.592754
C184	C	-0.072436	-0.648063	-0.092754
H185	H	-0.565410	-1.182114	-0.519683
H186	H	-0.065410	-0.682114	-0.019683
H187	H	-0.539439	-1.135088	-0.632032
H188	H	-0.039439	-0.635088	-0.132032
H189	H	-0.590559	-1.076602	-0.582098
H190	H	-0.090559	-0.576602	-0.082098
O191	O	-0.740330	-1.577408	-0.281568
O192	O	-0.240330	-1.077408	0.218432
C193	C	-0.771094	-1.631881	-0.227169
C194	C	-0.271094	-1.131881	0.272831
H195	H	-0.804523	-1.635209	-0.266696
H196	H	-0.304523	-1.135209	0.233304
H197	H	-0.757510	-1.707882	-0.216943
H198	H	-0.257510	-1.207882	0.283057
H199	H	-0.776127	-1.596604	-0.153880
H200	H	-0.276127	-1.096604	0.346120
H201	H	-0.829117	-1.220261	-0.638204
H202	H	-0.329117	-0.720261	-0.138204
O203	O	-0.691926	-1.577306	-0.281489
O204	O	-0.191926	-1.077306	0.218511
C205	C	-0.661143	-1.631770	-0.227111
C206	C	-0.161143	-1.131770	0.272889
H207	H	-0.627720	-1.592235	-0.223749
H208	H	-0.127720	-1.092235	0.276251
H209	H	-0.674710	-1.642108	-0.151117
H210	H	-0.174710	-1.142108	0.348883
H211	H	-0.656106	-1.705008	-0.262495
H212	H	-0.156106	-1.205008	0.237505
H213	H	-0.959786	-1.506023	-0.352940
H214	H	-0.459786	-1.006023	0.147060
H215	H	-0.688362	-1.220165	-0.638190
H216	H	-0.188362	-0.720165	-0.138190
H217	H	-0.744011	-1.220208	-0.638185
H218	H	-0.244011	-0.720208	-0.138185
