data_functionalizedCrystal
_audit_creation_method	'MofGen! by Chris Wilmer'
_symmetry_space_group_name_H-M	'P1'
_symmetry_Int_Tables_number	1
_symmetry_cell_setting	triclinic
loop_
_symmetry_equiv_pos_as_xyz
  x,y,z
_cell_length_a	10.654553
_cell_length_b	15.625429
_cell_length_c	9.130313
_cell_angle_alpha	71.921598
_cell_angle_beta	89.999282
_cell_angle_gamma	84.352800
loop_
_atom_site_label
_atom_site_type_symbol
_atom_site_fract_x
_atom_site_fract_y
_atom_site_fract_z
O1	O	1.666511	0.126632	-0.189062
O2	O	1.300907	0.138692	-0.195466
O3	O	1.493480	0.001488	-0.122596
O4	O	1.473937	0.263836	-0.261932
O5	O	1.493478	0.001492	0.121001
O6	O	1.300904	0.138696	0.048131
O7	O	1.666508	0.126635	0.054535
Cu8	Cu	1.483706	0.132666	0.073575
Cu9	Cu	1.483709	0.132662	-0.214506
O10	O	1.473935	0.263839	-0.018335
C11	C	1.254117	0.137808	-0.073197
C12	C	1.114701	0.135157	-0.071788
C13	C	0.918199	0.131416	0.062974
C14	C	1.049194	0.133913	0.061656
C15	C	1.049206	0.133914	-0.203929
C16	C	0.918213	0.131424	-0.202614
C17	C	0.918194	0.131412	0.216310
C18	C	1.049188	0.133908	0.214992
C19	C	1.492596	-0.032102	0.017040
C20	C	1.489948	-0.132197	0.070193
C21	C	1.481211	-0.461409	-0.418866
C22	C	1.478718	-0.555463	-0.368876
C23	C	1.478716	-0.555445	-0.103324
C24	C	1.481215	-0.461389	-0.153291
C25	C	1.482462	-0.414379	-0.311064
C26	C	1.482466	-0.414360	-0.045489
C27	C	1.484958	-0.320312	-0.095454
C28	C	1.486201	-0.273294	-0.253220
C29	C	1.484954	-0.320331	-0.361028
C30	C	1.481210	-0.461371	0.112283
C31	C	1.482461	-0.414341	0.220084
C32	C	1.484962	-0.320293	0.170121
C33	C	1.486205	-0.273275	0.012355
C34	C	1.486209	-0.273256	0.277930
C35	C	1.488702	-0.179208	0.227965
C36	C	1.488698	-0.179227	-0.037609
C37	C	1.713298	0.127520	-0.067737
C38	C	1.852713	0.130171	-0.069155
C39	C	1.474819	0.297430	-0.157975
C40	C	1.477467	0.397525	-0.211136
N41	N	1.483713	0.132669	0.276197
N42	N	1.483712	0.132652	-0.417124
C43	C	1.569006	0.071936	0.385104
C44	C	1.569003	0.071925	0.538447
C45	C	1.398409	0.193388	0.473956
C46	C	1.398408	0.193394	0.320619
C47	C	1.667501	0.001812	0.422337
C48	C	1.667498	0.001801	0.575680
H49	H	1.102551	0.134936	-0.312587
H50	H	1.488217	-0.196713	-0.293899
H51	H	0.889306	0.065662	0.298802
Cl52	Cl	1.807918	0.035724	0.330887
Cl53	Cl	1.635511	-0.105167	0.414885
Cl54	Cl	1.478073	-0.579604	0.175094
Cl55	Cl	1.621433	-0.099290	0.702792
Cl56	Cl	1.816252	0.025642	0.627281
H57	H	0.864897	0.130421	-0.310212
Cl58	Cl	1.121659	0.037721	0.356962
Cl59	Cl	1.093786	0.235422	0.234540
H60	H	0.871259	0.193712	0.242097
H61	H	1.489724	-0.140949	-0.166083
Cl62	Cl	1.477139	-0.614583	-0.504418
Cl63	Cl	1.484617	-0.332364	0.476263
H64	H	1.482237	-0.423131	-0.547340
H65	H	1.481441	-0.452630	0.348544
H66	H	1.477696	-0.593734	0.025135
H67	H	1.489693	-0.140913	0.315748
H68	H	1.328944	0.242840	0.231950
H69	H	1.328955	0.242828	0.510143
Cl70	Cl	1.486540	-0.261226	-0.559375
