data_functionalizedCrystal
_audit_creation_method	'MofGen! by Chris Wilmer'
_symmetry_space_group_name_H-M	'P1'
_symmetry_Int_Tables_number	1
_symmetry_cell_setting	triclinic
loop_
_symmetry_equiv_pos_as_xyz
  x,y,z
_cell_length_a	25.639239
_cell_length_b	12.645331
_cell_length_c	12.645323
_cell_angle_alpha	89.981990
_cell_angle_beta	89.968126
_cell_angle_gamma	90.039097
loop_
_atom_site_label
_atom_site_type_symbol
_atom_site_fract_x
_atom_site_fract_y
_atom_site_fract_z
Zn1	Zn	-0.208141	1.620577	-0.599263
Zn2	Zn	-0.295580	1.620393	-0.421981
Zn3	Zn	-0.208161	1.443291	-0.422021
Zn4	Zn	-0.295548	1.443208	-0.599211
O5	O	-0.251857	1.531867	-0.510619
O6	O	-0.219745	1.768899	-0.575751
O7	O	-0.284005	1.596858	-0.273639
O8	O	-0.134993	1.466920	-0.445571
O9	O	-0.283986	1.768765	-0.445503
O10	O	-0.134978	1.597171	-0.575790
O11	O	-0.219779	1.466742	-0.273669
O12	O	-0.219748	1.294933	-0.445521
O13	O	-0.283931	1.466778	-0.747565
O14	O	-0.283951	1.294872	-0.575702
O15	O	-0.219714	1.597090	-0.747603
O16	O	-0.368741	1.596778	-0.445452
O17	O	-0.368717	1.466600	-0.575662
C18	C	-0.251848	1.256438	-0.510611
C19	C	-0.251857	1.138607	-0.510632
C20	C	-0.292316	1.093723	-0.592409
C21	C	-0.292482	0.971162	-0.592166
C22	C	-0.266573	0.970643	-0.398772
C23	C	-0.266859	1.093241	-0.399246
C24	C	-0.196596	1.093502	-0.539739
C25	C	-0.196901	0.970897	-0.542202
C26	C	-0.387700	1.531689	-0.510570
C27	C	-0.445814	1.531710	-0.510585
C28	C	-0.806177	1.599827	-0.442934
C29	C	-0.860781	1.599868	-0.442948
O30	O	-0.889017	1.657600	-0.385376
N31	N	-0.888096	1.532054	-0.510689
C32	C	-0.860805	1.464201	-0.578428
O33	O	-0.889053	1.406523	-0.636049
C34	C	-0.806201	1.464166	-0.578418
C35	C	-0.778889	1.531978	-0.510665
C36	C	-0.778864	1.667635	-0.375188
C37	C	-0.724263	1.667592	-0.375172
C38	C	-0.696976	1.599742	-0.442904
C39	C	-0.724288	1.531935	-0.510650
C40	C	-0.778911	1.396319	-0.646162
C41	C	-0.724304	1.396290	-0.646147
C42	C	-0.696991	1.464102	-0.578394
C43	C	-0.642400	1.464042	-0.578366
N44	N	-0.615084	1.531857	-0.510625
C45	C	-0.642372	1.599707	-0.442894
C46	C	-0.975475	1.464281	-0.578444
C47	C	-1.030078	1.464309	-0.578449
C48	C	-1.030050	1.599979	-0.442971
C49	C	-0.975447	1.599944	-0.442961
C50	C	-0.948160	1.532095	-0.510703
C51	C	-0.527707	1.599611	-0.442866
C52	C	-0.473102	1.599560	-0.442854
C53	C	-0.473134	1.463894	-0.578336
C54	C	-0.527735	1.463942	-0.578345
C55	C	-0.555020	1.531809	-0.510606
O56	O	-0.614129	1.406343	-0.635912
O57	O	-0.614118	1.657385	-0.385293
C58	C	-0.115484	1.532075	-0.510691
C59	C	-0.057370	1.532164	-0.510722
C60	C	-0.251817	1.531945	-0.787124
C61	C	-0.251800	1.531979	-0.904955
C62	C	-0.251867	1.808372	-0.510628
C63	C	-0.251871	1.926202	-0.510632
C64	C	-0.292009	1.449747	-1.072495
C65	C	-0.292208	1.449962	-0.949935
C66	C	-0.266752	1.643667	-0.949462
C67	C	-0.267005	1.643216	-1.072060
C68	C	-0.196413	1.503578	-1.072168
C69	C	-0.196745	1.501086	-0.949562
C70	C	-0.251860	1.531850	-0.235189
C71	C	-0.251730	1.532023	-0.117360
H72	H	-0.283250	1.123248	-0.675595
C73	C	-0.279565	1.338073	-0.909278
N74	N	-0.270045	1.253793	-0.878661
C75	C	-0.279895	0.930569	-0.704108
N76	N	-0.270344	0.899999	-0.788395
C77	C	-0.443107	1.389267	-0.652841
N78	N	-0.420489	1.333064	-0.708965
H79	H	-0.333032	1.124470	-0.573332
H80	H	-0.549916	1.654878	-0.387710
H81	H	-0.282742	1.366679	-1.101977
C82	C	-0.321635	1.675785	-1.110698
N83	N	-0.362785	1.700313	-1.139795
C84	C	-0.347066	1.474871	-1.114098
N85	N	-0.388535	1.493802	-1.145428
H86	H	-0.953212	1.655163	-0.387792
H87	H	-0.450866	1.654780	-0.387678
C88	C	-0.320811	1.676804	-0.907995
N89	N	-0.361530	1.701755	-0.876765
H90	H	-0.238343	1.706611	-0.920328
C91	C	-0.347806	0.931455	-0.566060
N92	N	-0.389477	0.901548	-0.546387
C93	C	-0.557779	1.389342	-0.652872
N94	N	-0.580406	1.333160	-0.709016
C95	C	-0.321422	1.131792	-0.366019
N96	N	-0.362521	1.160824	-0.340996
H97	H	-0.306522	0.939884	-0.373754
H98	H	-1.052278	1.655230	-0.387824
H99	H	-0.183162	1.124468	-0.619933
H100	H	-1.052311	1.409080	-0.633611
C101	C	-0.347611	1.475306	-0.910312
N102	N	-0.389346	1.494376	-0.880470
C103	C	-0.228767	1.133356	-0.314079
N104	N	-0.200079	1.163566	-0.249926
H105	H	-0.238010	0.941521	-0.336168
H106	H	-0.238941	1.706594	-1.101740
C107	C	-0.808942	1.321722	-0.720700
N108	N	-0.831561	1.265533	-0.776848
C109	C	-0.945465	1.389641	-0.652975
N110	N	-0.922863	1.333429	-0.709118
H111	H	-0.166404	1.563505	-1.101185
H112	H	-0.185469	1.418893	-0.920472
H113	H	-0.702089	1.341041	-0.701314
H114	H	-0.165167	0.940296	-0.487030
H115	H	-0.185810	0.941857	-0.624524
C116	C	-0.155874	1.132742	-0.459297
N117	N	-0.125206	1.162309	-0.398710
C118	C	-0.178003	1.395464	-1.113920
N119	N	-0.164142	1.314027	-1.145366
H120	H	-0.702029	1.722813	-0.320005
H121	H	-0.801076	1.722892	-0.320032
C122	C	-0.154056	1.576118	-0.908180
N123	N	-0.121904	1.632635	-0.877003
