data_functionalizedCrystal
_audit_creation_method	'MofGen! by Chris Wilmer'
_symmetry_space_group_name_H-M	'P1'
_symmetry_Int_Tables_number	1
_symmetry_cell_setting	triclinic
loop_
_symmetry_equiv_pos_as_xyz
  x,y,z
_cell_length_a	12.811438
_cell_length_b	12.837938
_cell_length_c	14.586319
_cell_angle_alpha	90.000630
_cell_angle_beta	95.434965
_cell_angle_gamma	89.411872
loop_
_atom_site_label
_atom_site_type_symbol
_atom_site_fract_x
_atom_site_fract_y
_atom_site_fract_z
O1	O	-1.406645	-0.139685	-0.193179
O2	O	-0.906645	0.360315	0.306821
O3	O	-1.102580	-0.154874	-0.167901
O4	O	-0.602580	0.345126	0.332099
O5	O	-1.247871	0.003653	-0.179980
O6	O	-0.747871	0.503653	0.320020
O7	O	-1.261354	-0.298211	-0.181100
O8	O	-0.761354	0.201789	0.318900
O9	O	-1.247859	0.003655	-0.027498
O10	O	-0.747859	0.503655	0.472502
O11	O	-1.102568	-0.154871	-0.015419
O12	O	-0.602568	0.345129	0.484581
O13	O	-1.406634	-0.139683	-0.040697
O14	O	-0.906634	0.360317	0.459303
Cu15	Cu	-1.254600	-0.147277	-0.014135
Cu16	Cu	-0.754600	0.352723	0.485865
Cu17	Cu	-1.254614	-0.147280	-0.194463
Cu18	Cu	-0.754614	0.352720	0.305537
O19	O	-1.261343	-0.298209	-0.028618
O20	O	-0.761343	0.201791	0.471382
C21	C	-1.063385	-0.154021	-0.088402
C22	C	-0.563385	0.345979	0.411598
C23	C	-0.946612	-0.151472	-0.078695
C24	C	-0.446612	0.348528	0.421305
C25	C	-1.243310	0.042294	-0.103362
C26	C	-0.743310	0.542294	0.396638
C27	C	-1.229724	0.157430	-0.102239
C28	C	-0.729724	0.657430	0.397761
C29	C	-1.445829	-0.140535	-0.120198
C30	C	-0.945829	0.359465	0.379802
C31	C	-1.562602	-0.143084	-0.129912
C32	C	-1.062602	0.356916	0.370088
C33	C	-0.782020	-0.147879	0.018100
C34	C	-0.282020	0.352121	0.518100
C35	C	-0.891738	-0.150274	0.008983
C36	C	-0.391738	0.349726	0.508983
C37	C	-0.891759	-0.150278	-0.157262
C38	C	-0.391759	0.349722	0.342738
C39	C	-0.782041	-0.147882	-0.148145
C40	C	-0.282041	0.352118	0.351855
C41	C	-0.727175	-0.146681	-0.060461
C42	C	-0.227175	0.353319	0.439539
C43	C	-0.617455	-0.144278	-0.051345
C44	C	-0.117455	0.355722	0.448655
C45	C	-0.617477	-0.144289	-0.217589
C46	C	-0.117477	0.355711	0.282411
C47	C	-0.727196	-0.146685	-0.226706
C48	C	-0.227196	0.353315	0.273294
C49	C	-1.393054	0.397684	-0.115846
C50	C	-0.893054	0.897684	0.384154
C51	C	-1.380294	0.505865	-0.114791
C52	C	-0.880294	1.005865	0.385209
C53	C	-1.191444	0.481975	-0.099081
C54	C	-0.691444	0.981975	0.400919
C55	C	-1.204204	0.373794	-0.100136
C56	C	-0.704204	0.873794	0.399864
C57	C	-1.305013	0.331652	-0.108517
C58	C	-0.805013	0.831652	0.391483
C59	C	-1.317772	0.223469	-0.109566
C60	C	-0.817772	0.723469	0.390434
C61	C	-1.128923	0.199582	-0.093862
C62	C	-0.628923	0.699582	0.406138
C63	C	-1.116163	0.307763	-0.092808
C64	C	-0.616163	0.807763	0.407192
N65	N	-1.254598	-0.147274	0.112696
N66	N	-0.754598	0.352726	0.612696
C67	C	-1.265905	0.663150	-0.105248
C68	C	-0.765905	1.163150	0.394752
C69	C	-1.279492	0.548014	-0.106408
C70	C	-0.779492	1.048014	0.393592
N71	N	-1.254623	-0.147274	-0.321295
N72	N	-0.754623	0.352726	0.178705
C73	C	-1.318959	-0.077102	0.342352
C74	C	-0.818959	0.422898	0.842352
C75	C	-1.318962	-0.077100	0.438333
C76	C	-0.818962	0.422900	0.938333
C77	C	-1.190255	-0.217449	0.449043
C78	C	-0.690255	0.282551	0.949043
C79	C	-1.190247	-0.217446	0.353064
C80	C	-0.690247	0.282554	0.853064
C81	C	-1.254605	-0.147274	0.299721
C82	C	-0.754605	0.352726	0.799721
C83	C	-1.254616	-0.147274	0.491681
C84	C	-0.754616	0.352726	0.991681
C85	C	-1.254618	-0.147272	0.595747
C86	C	-0.754618	0.352728	1.095747
C87	C	-1.254602	-0.147274	0.195647
C88	C	-0.754602	0.352726	0.695647
H89	H	-0.572784	-0.143308	0.020052
H90	H	-0.072784	0.356692	0.520052
H91	H	-0.737347	-0.146907	0.089496
H92	H	-0.237347	0.353093	0.589496
Br93	Br	-1.009430	0.109962	-0.083899
Br94	Br	-0.509430	0.609962	0.416101
Br95	Br	-0.966238	-0.151910	-0.276251
Br96	Br	-0.466238	0.348090	0.223749
H97	H	-1.371362	-0.019963	0.298922
H98	H	-0.871362	0.480037	0.798922
H99	H	-0.771882	-0.147667	-0.298095
H100	H	-0.271882	0.352333	0.201905
Br101	Br	-1.406296	0.018141	0.496189
Br102	Br	-0.906296	0.518141	0.996189
H103	H	-1.137858	-0.274583	0.492484
H104	H	-0.637858	0.225417	0.992484
H105	H	-1.399855	0.189160	-0.116387
H106	H	-0.899855	0.689160	0.383613
H107	H	-1.109371	0.516306	-0.092267
H108	H	-0.609371	1.016306	0.407733
H109	H	-1.034087	0.342089	-0.085987
H110	H	-0.534087	0.842089	0.414013
H111	H	-1.475136	0.363372	-0.122661
H112	H	-0.975136	0.863372	0.377339
H113	H	-0.572811	-0.143318	-0.281559
H114	H	-0.072811	0.356682	0.218441
H115	H	-1.451987	0.559624	-0.120762
H116	H	-0.951987	1.059624	0.379238
H117	H	-1.137838	-0.274588	0.318352
H118	H	-0.637838	0.225412	0.818352
H119	H	-0.936389	-0.151253	0.072956
H120	H	-0.436389	0.348747	0.572956
