data_functionalizedCrystal
_audit_creation_method	'MofGen! by Chris Wilmer'
_symmetry_space_group_name_H-M	'P1'
_symmetry_Int_Tables_number	1
_symmetry_cell_setting	triclinic
loop_
_symmetry_equiv_pos_as_xyz
  x,y,z
_cell_length_a	16.120490
_cell_length_b	16.120484
_cell_length_c	11.169409
_cell_angle_alpha	87.139270
_cell_angle_beta	92.919204
_cell_angle_gamma	90.164100
loop_
_atom_site_label
_atom_site_type_symbol
_atom_site_fract_x
_atom_site_fract_y
_atom_site_fract_z
Zn1	Zn	1.254512	-0.395595	0.798882
Zn2	Zn	1.504512	-0.145595	1.048882
Zn3	Zn	1.754512	0.104405	1.298882
Zn4	Zn	2.004512	0.354405	1.548882
Zn5	Zn	1.247346	-0.534674	0.607804
Zn6	Zn	1.497346	-0.284674	0.857804
Zn7	Zn	1.747346	-0.034674	1.107804
Zn8	Zn	1.997346	0.215326	1.357804
Zn9	Zn	1.115442	-0.388576	0.587559
Zn10	Zn	1.365442	-0.138576	0.837559
Zn11	Zn	1.615442	0.111424	1.087559
Zn12	Zn	1.865442	0.361424	1.337559
Zn13	Zn	1.108364	-0.527541	0.797789
Zn14	Zn	1.358364	-0.277541	1.047789
Zn15	Zn	1.608364	-0.027541	1.297789
Zn16	Zn	1.858364	0.222459	1.547789
O17	O	1.181416	-0.461597	0.698009
O18	O	1.431416	-0.211597	0.948009
O19	O	1.681416	0.038403	1.198009
O20	O	1.931416	0.288403	1.448009
O21	O	1.369927	-0.419968	0.782466
O22	O	1.619927	-0.169968	1.032466
O23	O	1.869927	0.080032	1.282466
O24	O	2.119927	0.330032	1.532466
O25	O	1.229812	-0.515342	0.437169
O26	O	1.479812	-0.265342	0.687169
O27	O	1.729812	-0.015342	0.937169
O28	O	1.979812	0.234658	1.187169
O29	O	1.139850	-0.273145	0.607576
O30	O	1.389850	-0.023145	0.857576
O31	O	1.639850	0.226855	1.107576
O32	O	1.889850	0.476855	1.357576
O33	O	1.364663	-0.522148	0.642081
O34	O	1.614663	-0.272148	0.892081
O35	O	1.864663	-0.022148	1.142081
O36	O	2.114663	0.227852	1.392081
O37	O	1.242025	-0.278302	0.762835
O38	O	1.492025	-0.028302	1.012835
O39	O	1.742025	0.221698	1.262835
O40	O	1.992025	0.471698	1.512835
O41	O	1.132902	-0.408004	0.422295
O42	O	1.382902	-0.158004	0.672295
O43	O	1.632902	0.091996	0.922295
O44	O	1.882902	0.341996	1.172295
O45	O	0.998137	-0.401087	0.606516
O46	O	1.248137	-0.151087	0.856516
O47	O	1.498137	0.098913	1.106516
O48	O	1.748137	0.348913	1.356516
O49	O	1.127788	-0.509990	0.965883
O50	O	1.377788	-0.259990	1.215883
O51	O	1.627788	-0.009990	1.465883
O52	O	1.877788	0.240010	1.715883
O53	O	0.992937	-0.503184	0.760971
O54	O	1.242937	-0.253184	1.010971
O55	O	1.492937	-0.003184	1.260971
O56	O	1.742937	0.246816	1.510971
O57	O	1.235162	-0.413050	0.966686
O58	O	1.485162	-0.163050	1.216686
O59	O	1.735162	0.086950	1.466686
O60	O	1.985162	0.336950	1.716686
O61	O	1.222949	-0.650090	0.641021
O62	O	1.472949	-0.400090	0.891021
O63	O	1.722949	-0.150090	1.141021
O64	O	1.972949	0.099910	1.391021
O65	O	1.120839	-0.644849	0.780602
O66	O	1.370839	-0.394849	1.030602
O67	O	1.620839	-0.144849	1.280602
O68	O	1.870839	0.105151	1.530602
C69	C	0.965364	-0.450600	0.681429
C70	C	1.215364	-0.200600	0.931429
C71	C	1.465364	0.049400	1.181429
C72	C	1.715364	0.299400	1.431429
C73	C	0.872935	-0.445916	0.674365
C74	C	1.122935	-0.195916	0.924365
C75	C	1.372935	0.054084	1.174365
C76	C	1.622935	0.304084	1.424365
C77	C	1.170371	-0.677642	0.712918
C78	C	1.420371	-0.427642	0.962918
C79	C	1.670371	-0.177642	1.212918
C80	C	1.920371	0.072358	1.462918
C81	C	1.165722	-0.770071	0.719342
C82	C	1.415722	-0.520071	0.969342
C83	C	1.665722	-0.270071	1.219342
C84	C	1.915722	-0.020071	1.469342
C85	C	0.659968	-0.485888	0.734648
C86	C	0.909968	-0.235888	0.984648
C87	C	1.159968	0.014112	1.234648
C88	C	1.409968	0.264112	1.484648
C89	C	0.703711	-0.437371	0.661469
C90	C	0.953711	-0.187371	0.911469
C91	C	1.203711	0.062629	1.161469
C92	C	1.453711	0.312629	1.411469
C93	C	0.797876	-0.442127	0.668647
C94	C	1.047876	-0.192127	0.918647
C95	C	1.297876	0.057873	1.168647
C96	C	1.547876	0.307873	1.418647
C97	C	0.565795	-0.481134	0.727471
C98	C	0.815795	-0.231134	0.977471
C99	C	1.065795	0.018866	1.227471
C100	C	1.315795	0.268866	1.477471
C101	C	1.157240	-0.939300	0.731096
C102	C	1.407240	-0.689300	0.981096
C103	C	1.657240	-0.439300	1.231096
C104	C	1.907240	-0.189300	1.481096
C105	C	1.205741	-0.983060	0.664953
C106	C	1.455741	-0.733060	0.914953
C107	C	1.705741	-0.483060	1.164953
C108	C	1.955741	-0.233060	1.414953
C109	C	1.201022	-1.077225	0.671492
C110	C	1.451022	-0.827225	0.921492
C111	C	1.701022	-0.577225	1.171492
C112	C	1.951022	-0.327225	1.421492
C113	C	1.161958	-0.845127	0.724557
C114	C	1.411958	-0.595127	0.974557
C115	C	1.661958	-0.345127	1.224557
C116	C	1.911958	-0.095127	1.474557
C117	C	1.398311	-0.472636	0.714654
C118	C	1.648311	-0.222636	0.964654
C119	C	1.898311	0.027364	1.214654
C120	C	2.148311	0.277364	1.464654
C121	C	1.490739	-0.477341	0.721747
C122	C	1.740739	-0.227341	0.971747
C123	C	1.990739	0.022659	1.221747
C124	C	2.240739	0.272659	1.471747
C125	C	1.181485	-0.461508	1.011050
C126	C	1.431485	-0.211508	1.261050
C127	C	1.681485	0.038492	1.511050
C128	C	1.931485	0.288492	1.761050
C129	C	1.181514	-0.461470	1.144449
C130	C	1.431514	-0.211470	1.394449
C131	C	1.681514	0.038530	1.644449
C132	C	1.931514	0.288530	1.894449
C133	C	1.192526	-0.244709	0.683069
C134	C	1.442526	0.005291	0.933069
C135	C	1.692526	0.255291	1.183069
C136	C	1.942526	0.505291	1.433069
C137	C	1.197261	-0.152284	0.676703
C138	C	1.447261	0.097716	0.926703
C139	C	1.697261	0.347716	1.176703
C140	C	1.947261	0.597716	1.426703
C141	C	1.181399	-0.461628	0.386185
C142	C	1.431399	-0.211628	0.636185
C143	C	1.681399	0.038372	0.886185
C144	C	1.931399	0.288372	1.136185
C145	C	1.181542	-0.461440	0.252782
C146	C	1.431542	-0.211440	0.502782
C147	C	1.681542	0.038560	0.752782
C148	C	1.931542	0.288560	1.002782
H149	H	0.670441	-0.392263	0.593428
H150	H	0.920441	-0.142263	0.843428
H151	H	1.170441	0.107737	1.093428
H152	H	1.420441	0.357737	1.343428
H153	H	0.693237	-0.530993	0.802682
H154	H	0.943237	-0.280993	1.052682
H155	H	1.193237	-0.030993	1.302682
H156	H	1.443237	0.219007	1.552682
N157	N	1.262262	-0.941355	0.587714
N158	N	1.512262	-0.691355	0.837714
N159	N	1.762262	-0.441355	1.087714
N160	N	2.012262	-0.191355	1.337714
N161	N	1.256290	-0.950782	0.477205
N162	N	1.506290	-0.700782	0.727205
N163	N	1.756290	-0.450782	0.977205
N164	N	2.006290	-0.200782	1.227205
H165	H	1.296202	-0.921327	0.422648
H166	H	1.546202	-0.671327	0.672648
H167	H	1.796202	-0.421327	0.922648
H168	H	2.046202	-0.171327	1.172648
N169	N	1.100698	-0.980997	0.808298
N170	N	1.350698	-0.730997	1.058298
N171	N	1.600698	-0.480997	1.308298
N172	N	1.850698	-0.230997	1.558298
N173	N	1.106638	-0.971586	0.918812
N174	N	1.356638	-0.721586	1.168812
N175	N	1.606638	-0.471586	1.418812
N176	N	1.856638	-0.221586	1.668812
H177	H	1.066703	-1.001041	0.973334
H178	H	1.316703	-0.751041	1.223334
H179	H	1.566703	-0.501041	1.473334
H180	H	1.816703	-0.251041	1.723334
