data_functionalizedCrystal
_audit_creation_method	'MofGen! by Chris Wilmer'
_symmetry_space_group_name_H-M	'P1'
_symmetry_Int_Tables_number	1
_symmetry_cell_setting	triclinic
loop_
_symmetry_equiv_pos_as_xyz
  x,y,z
_cell_length_a	14.908571
_cell_length_b	29.839131
_cell_length_c	14.908308
_cell_angle_alpha	93.261283
_cell_angle_beta	90.175053
_cell_angle_gamma	86.737317
loop_
_atom_site_label
_atom_site_type_symbol
_atom_site_fract_x
_atom_site_fract_y
_atom_site_fract_z
Zn1	Zn	1.345126	-0.234441	-0.587534
Zn2	Zn	1.353655	-0.305498	-0.437159
Zn3	Zn	1.203447	-0.225812	-0.428533
Zn4	Zn	1.194683	-0.304964	-0.578811
O5	O	1.274228	-0.267679	-0.508009
O6	O	1.472080	-0.247701	-0.574847
O7	O	1.340967	-0.291540	-0.310191
O8	O	1.222340	-0.164094	-0.449665
O9	O	1.478346	-0.299907	-0.464367
O10	O	1.326430	-0.170433	-0.566482
O11	O	1.230610	-0.232995	-0.303854
O12	O	1.076461	-0.232477	-0.441208
O13	O	1.207402	-0.298997	-0.705792
O14	O	1.070022	-0.290630	-0.551616
O15	O	1.317932	-0.247184	-0.712201
O16	O	1.332468	-0.368290	-0.455909
O17	O	1.215672	-0.367898	-0.559980
C18	C	1.040617	-0.260560	-0.494530
C19	C	0.940676	-0.257526	-0.488784
C20	C	0.746229	-0.312463	-0.592802
C21	C	0.652326	-0.309614	-0.587407
C22	C	0.658964	-0.248976	-0.472604
C23	C	0.752867	-0.251825	-0.477999
C24	C	0.796497	-0.283570	-0.538099
C25	C	0.890402	-0.286422	-0.543489
C26	C	0.897038	-0.225781	-0.428692
C27	C	0.803135	-0.222932	-0.423297
C28	C	1.274068	-0.384395	-0.507955
C29	C	1.274080	-0.434330	-0.507967
C30	C	1.335143	-0.744176	-0.453910
C31	C	1.335252	-0.931853	-0.453951
O32	O	1.387043	-0.956286	-0.407948
N33	N	1.274410	-0.955128	-0.508088
C34	C	1.213541	-0.931481	-0.562223
O35	O	1.161800	-0.955585	-0.608278
C36	C	1.213437	-0.743805	-0.562186
C37	C	1.274276	-0.720532	-0.508038
C38	C	1.395978	-0.720903	-0.399768
C39	C	1.395947	-0.673987	-0.399754
C40	C	1.335081	-0.650343	-0.453883
C41	C	1.274245	-0.673615	-0.508025
C42	C	1.152572	-0.720159	-0.616325
C43	C	1.152553	-0.673237	-0.616312
C44	C	1.213393	-0.649964	-0.562165
C45	C	1.213348	-0.603055	-0.562140
N46	N	1.274189	-0.579780	-0.508003
C47	C	1.335056	-0.603424	-0.453875
C48	C	1.213598	-1.030014	-0.562237
C49	C	1.213623	-1.076933	-0.562245
C50	C	1.335336	-1.077302	-0.453975
C51	C	1.335306	-1.030382	-0.453962
C52	C	1.274440	-1.006739	-0.508100
C53	C	1.334986	-0.504895	-0.453850
C54	C	1.334947	-0.457974	-0.453839
C55	C	1.213238	-0.457609	-0.562112
C56	C	1.213273	-0.504526	-0.562121
C57	C	1.274154	-0.528168	-0.507987
O58	O	1.161590	-0.578594	-0.608127
O59	O	1.386803	-0.579313	-0.407842
C60	C	1.335174	-0.791093	-0.453923
C61	C	1.274339	-0.814366	-0.508065
C62	C	1.213472	-0.790722	-0.562194
C63	C	1.274363	-0.861284	-0.508074
C64	C	1.335230	-0.884928	-0.453945
C65	C	1.396072	-0.861654	-0.399808
C66	C	1.396041	-0.814737	-0.399794
C67	C	1.152630	-0.813996	-0.616331
C68	C	1.152666	-0.860913	-0.616339
C69	C	1.213532	-0.884557	-0.562211
C70	C	1.508750	-0.274826	-0.521542
C71	C	1.608690	-0.277872	-0.527309
C72	C	1.260738	-0.273993	-0.742533
C73	C	1.254989	-0.276684	-0.842474
C74	C	1.274411	-0.150508	-0.508085
C75	C	1.274490	-0.100577	-0.508117
C76	C	1.359279	-0.227777	-1.036946
C77	C	1.353881	-0.230304	-1.130849
C78	C	1.238790	-0.284262	-1.124184
C79	C	1.244189	-0.281735	-1.030281
C80	C	1.304436	-0.253492	-0.986666
C81	C	1.309839	-0.250968	-0.892761
C82	C	1.194744	-0.304924	-0.886097
C83	C	1.189345	-0.307450	-0.980000
C84	C	1.287717	-0.261358	-0.274401
C85	C	1.293639	-0.258546	-0.174471
H86	H	0.937977	-0.202255	-0.384147
H87	H	1.384490	-0.439027	-0.409742
H88	H	0.781753	-0.338314	-0.641733
C89	C	1.376107	-0.219901	-0.844782
C90	C	1.450387	-0.239776	-0.784289
C91	C	1.516655	-0.208707	-0.736313
C92	C	1.508643	-0.157762	-0.748830
C93	C	1.434360	-0.137884	-0.809325
C94	C	1.368092	-0.168954	-0.857301
H95	H	1.456320	-0.277491	-0.775021
H96	H	1.571644	-0.223422	-0.691531
H97	H	1.557698	-0.134763	-0.713315
H98	H	1.428426	-0.100170	-0.818593
H99	H	1.313103	-0.154238	-0.902084
H100	H	1.102990	-0.653989	-0.660401
H101	H	1.384847	-1.011436	-0.409871
H102	H	1.103066	-0.794749	-0.660410
C103	C	1.425554	-0.196714	-0.988965
C104	C	1.499826	-0.216596	-0.928472
C105	C	1.566103	-0.185533	-0.880493
C106	C	1.558108	-0.134588	-0.893007
C107	C	1.483833	-0.114703	-0.953503
C108	C	1.417556	-0.145766	-1.001482
H109	H	1.505747	-0.254311	-0.919206
H110	H	1.621087	-0.200253	-0.835709
H111	H	1.607171	-0.111593	-0.857490
H112	H	1.477912	-0.076988	-0.962769
H113	H	1.362573	-0.131046	-1.046265
H114	H	1.445548	-0.740149	-0.355689
C115	C	1.146285	-0.431597	-0.621653
C116	C	1.147668	-0.440996	-0.724296
C117	C	1.080718	-0.414983	-0.783842
C118	C	1.012387	-0.379570	-0.740745
C119	C	1.011002	-0.370170	-0.638097
C120	C	1.077951	-0.396183	-0.578551
H121	H	1.198253	-0.467211	-0.756203
H122	H	1.081744	-0.421942	-0.859829
H123	H	0.962827	-0.360314	-0.784824
H124	H	0.960416	-0.343954	-0.606189
H125	H	1.076925	-0.389224	-0.502563
C126	C	1.414212	-0.202018	-1.186159
C127	C	1.480479	-0.170953	-1.138180
C128	C	1.540811	-0.142666	-1.193490
C129	C	1.534877	-0.145443	-1.296780
C130	C	1.468607	-0.176509	-1.344765
C131	C	1.408275	-0.204796	-1.289455
H132	H	1.484874	-0.168896	-1.061714
H133	H	1.589869	-0.119668	-1.157968
H134	H	1.579539	-0.124502	-1.337724
H135	H	1.464212	-0.178566	-1.421231
H136	H	1.359217	-0.227793	-1.324977
C137	C	1.146692	-1.102529	-0.621801
C138	C	1.079747	-1.076515	-0.681342
C139	C	1.012817	-1.102110	-0.740905
C140	C	1.012833	-1.153719	-0.740926
C141	C	1.079780	-1.179736	-0.681382
C142	C	1.146710	-1.154141	-0.621820
H143	H	1.079734	-1.038309	-0.681329
H144	H	0.963259	-1.082850	-0.784983
H145	H	0.963287	-1.172665	-0.785017
H146	H	1.079793	-1.217942	-0.681396
H147	H	1.196268	-1.173401	-0.577742
H148	H	0.925924	-0.312271	-0.592424
H149	H	0.611401	-0.333141	-0.631953
H150	H	1.189739	-0.307256	-1.159711
H151	H	1.384563	-0.524139	-0.409771
H152	H	1.140292	-0.330444	-1.015524
C153	C	1.146636	-1.004012	-0.621791
C154	C	1.044859	-1.007210	-0.608469
C155	C	0.977894	-0.981211	-0.668021
C156	C	1.012705	-0.952013	-0.740897
C157	C	1.114487	-0.948813	-0.754223
C158	C	1.181453	-0.974813	-0.694670
H159	H	1.019085	-1.028825	-0.554519
H160	H	0.902548	-0.983580	-0.658156
H161	H	0.963133	-0.932767	-0.784981
H162	H	1.140261	-0.927198	-0.808172
H163	H	1.256798	-0.972444	-0.704536
H164	H	0.623424	-0.223127	-0.423680
H165	H	0.767599	-0.197085	-0.374367
C166	C	1.146348	-0.530127	-0.621683
C167	C	1.181218	-0.565428	-0.694567
C168	C	1.114300	-0.591025	-0.754141
C169	C	1.012512	-0.581320	-0.740830
C170	C	0.977636	-0.546017	-0.667943
C171	C	1.044554	-0.520420	-0.608369
H172	H	1.256573	-0.572614	-0.704424
H173	H	1.140118	-0.617158	-0.808097
H174	H	0.962975	-0.600268	-0.784931
H175	H	0.902282	-0.538831	-0.658087
H176	H	1.018737	-0.494286	-0.554413
C177	C	1.085649	-0.745749	-0.675896
C178	C	0.983863	-0.736033	-0.662590
C179	C	0.916936	-0.761621	-0.722168
C180	C	0.951796	-0.796925	-0.795053
C181	C	1.053587	-0.806643	-0.808362
C182	C	1.120514	-0.781055	-0.748783
H183	H	0.958053	-0.709897	-0.608634
H184	H	0.841583	-0.754427	-0.712316
H185	H	0.902252	-0.815867	-0.839156
H186	H	1.079397	-0.832779	-0.862318
H187	H	1.195867	-0.788249	-0.758636
H188	H	1.384896	-1.096561	-0.409901
H189	H	1.445491	-0.655041	-0.355666
C190	C	1.462971	-0.789142	-0.340236
C191	C	1.461604	-0.792649	-0.237598
C192	C	1.528540	-0.767058	-0.178037
C193	C	1.596844	-0.737960	-0.221114
C194	C	1.598215	-0.734451	-0.323757
C195	C	1.531278	-0.760042	-0.383318
H196	H	1.411038	-0.814191	-0.205706
H197	H	1.527525	-0.769656	-0.102054
H198	H	1.646395	-0.719016	-0.177023
H199	H	1.648780	-0.712909	-0.355650
H200	H	1.532293	-0.757444	-0.459301
C201	C	1.463028	-0.887668	-0.340267
C202	C	1.428204	-0.916876	-0.267415
C203	C	1.495159	-0.942893	-0.207882
C204	C	1.596939	-0.939703	-0.221202
C205	C	1.631768	-0.910494	-0.294058
C206	C	1.564812	-0.884476	-0.353590
H207	H	1.352856	-0.919238	-0.257552
H208	H	1.469376	-0.964515	-0.153949
H209	H	1.646503	-0.958962	-0.177132
H210	H	1.707115	-0.908131	-0.303921
H211	H	1.590595	-0.862854	-0.407523
H212	H	1.103115	-0.879858	-0.660431
H213	H	1.150089	-0.325864	-0.845148
