data_functionalizedCrystal
_audit_creation_method	'MofGen! by Chris Wilmer'
_symmetry_space_group_name_H-M	'P1'
_symmetry_Int_Tables_number	1
_symmetry_cell_setting	triclinic
loop_
_symmetry_equiv_pos_as_xyz
  x,y,z
_cell_length_a	16.109301
_cell_length_b	9.130307
_cell_length_c	16.109301
_cell_angle_alpha	89.995285
_cell_angle_beta	96.538519
_cell_angle_gamma	89.998800
loop_
_atom_site_label
_atom_site_type_symbol
_atom_site_fract_x
_atom_site_fract_y
_atom_site_fract_z
O1	O	1.103128	0.121711	-0.106866
O2	O	1.603128	0.621711	0.393134
O3	O	0.861066	0.121735	-0.120165
O4	O	1.361066	0.621735	0.379835
O5	O	0.988747	0.121708	0.007516
O6	O	1.488747	0.621708	0.507516
O7	O	0.975448	0.121739	-0.234546
O8	O	1.475448	0.621739	0.265454
O9	O	0.988743	-0.121891	0.007517
O10	O	1.488743	0.378109	0.507517
O11	O	0.861062	-0.121864	-0.120164
O12	O	1.361062	0.378136	0.379836
O13	O	1.103124	-0.121888	-0.106865
O14	O	1.603124	0.378112	0.393135
Cu15	Cu	0.982093	-0.144118	-0.113514
Cu16	Cu	1.482093	0.355882	0.386486
Cu17	Cu	0.982098	0.143966	-0.113516
Cu18	Cu	1.482098	0.643966	0.386484
O19	O	0.975444	-0.121860	-0.234545
O20	O	1.475444	0.378140	0.265455
C21	C	0.830090	-0.000061	-0.119626
C22	C	1.330090	0.499939	0.380374
C23	C	0.737794	-0.000053	-0.118011
C24	C	1.237794	0.499947	0.381989
N25	N	0.982096	-0.346741	-0.113513
N26	N	1.482096	0.153259	0.386487
C27	C	0.515522	-0.000060	-0.190018
C28	C	1.015522	0.499940	0.309982
C29	C	0.428801	-0.000070	-0.188494
C30	C	0.928801	0.499930	0.311506
C31	C	0.448676	-0.000083	-0.037006
C32	C	0.948676	0.499917	0.462994
C33	C	0.535394	-0.000084	-0.038530
C34	C	1.035394	0.499916	0.461470
C35	C	0.568815	-0.000065	-0.115039
C36	C	1.068815	0.499935	0.384961
C37	C	0.395376	-0.000074	-0.111990
C38	C	0.895376	0.499926	0.388010
C39	C	0.301350	-0.000084	-0.110337
C40	C	0.801350	0.499916	0.389663
C41	C	0.662847	-0.000058	-0.116693
C42	C	1.162847	0.499942	0.383307
C43	C	1.095203	-0.346755	-0.000484
C44	C	1.595203	0.153245	0.499516
C45	C	1.151762	-0.423429	0.056028
C46	C	1.651762	0.076571	0.556028
C47	C	1.151770	-0.576763	0.056029
C48	C	1.651770	-0.076763	0.556029
C49	C	1.095211	-0.653426	-0.000487
C50	C	1.595211	-0.153426	0.499513
C51	C	1.038652	-0.576752	-0.056999
C52	C	1.538652	-0.076752	0.443001
C53	C	1.038652	-0.423415	-0.056995
C54	C	1.538652	0.076585	0.443005
C55	C	0.925543	-0.576737	-0.170022
C56	C	1.425543	-0.076737	0.329978
C57	C	0.925537	-0.423404	-0.170028
C58	C	1.425537	0.076596	0.329972
C59	C	0.868984	-0.653400	-0.226538
C60	C	1.368984	-0.153400	0.273462
C61	C	0.812428	-0.576727	-0.283056
C62	C	1.312428	-0.076727	0.216944
C63	C	0.812423	-0.423384	-0.283055
C64	C	1.312423	0.076616	0.216945
C65	C	0.868978	-0.346730	-0.226540
C66	C	1.368978	0.153270	0.273460
C67	C	1.134101	-0.000088	-0.107404
C68	C	1.634101	0.499912	0.392596
C69	C	1.226397	-0.000087	-0.109019
C70	C	1.726397	0.499913	0.390981
C71	C	0.988206	-0.000092	0.038491
C72	C	1.488206	0.499908	0.538491
C73	C	0.986591	-0.000094	0.130786
C74	C	1.486591	0.499906	0.630786
N75	N	0.982102	0.346589	-0.113510
N76	N	1.482102	0.846589	0.386490
C77	C	0.975984	-0.000057	-0.265521
C78	C	1.475984	0.499943	0.234479
C79	C	0.977600	-0.000045	-0.357816
C80	C	1.477600	0.499955	0.142184
C81	C	1.058599	-0.000078	0.353059
C82	C	1.558599	0.499922	0.853059
C83	C	1.057075	-0.000066	0.439779
C84	C	1.557075	0.499934	0.939779
C85	C	0.905586	-0.000057	0.419905
C86	C	1.405586	0.499943	0.919905
C87	C	0.907111	-0.000058	0.333186
C88	C	1.407111	0.499942	0.833186
C89	C	0.983620	-0.000077	0.299766
C90	C	1.483620	0.499923	0.799766
C91	C	0.980571	-0.000063	0.473205
C92	C	1.480571	0.499937	0.973205
C93	C	0.978918	-0.000050	0.567231
C94	C	1.478918	0.499950	1.067231
C95	C	0.985273	-0.000087	0.205734
C96	C	1.485273	0.499913	0.705734
H97	H	0.542730	-0.000056	-0.252317
H98	H	1.042730	0.499944	0.247683
F99	F	0.592117	-0.000099	0.041277
F100	F	1.092117	0.499901	0.541277
H101	H	0.766378	-0.639155	-0.329063
H102	H	1.266378	-0.139155	0.170937
H103	H	1.118130	-0.000064	0.483168
H104	H	1.618130	0.499936	0.983168
H105	H	0.385413	-0.000069	-0.249550
H106	H	0.885413	0.499931	0.250450
H107	H	1.197810	-0.360997	0.102045
H108	H	1.697810	0.139003	0.602045
H109	H	1.095208	-0.221903	-0.000485
H110	H	1.595208	0.278097	0.499515
F111	F	0.413100	-0.000097	0.044416
F112	F	0.913100	0.499903	0.544416
H113	H	1.197822	-0.639191	0.102049
H114	H	1.697822	-0.139191	0.602049
F115	F	1.095213	-0.816617	-0.000476
F116	F	1.595213	-0.316617	0.499524
F117	F	0.827304	-0.000046	0.276464
F118	F	1.327304	0.499954	0.776464
H119	H	0.868990	-0.778253	-0.226532
H120	H	1.368990	-0.278253	0.273468
F121	F	0.752219	-0.341794	-0.343200
F122	F	1.252219	0.158206	0.156800
F123	F	0.868981	-0.183539	-0.226537
F124	F	1.368981	0.316461	0.273463
H125	H	0.843295	-0.000045	0.447127
H126	H	1.343295	0.499955	0.947127
F127	F	1.140026	-0.000096	0.317493
F128	F	1.640026	0.499904	0.817493
