data_functionalizedCrystal
_audit_creation_method	'MofGen! by Chris Wilmer'
_symmetry_space_group_name_H-M	'P1'
_symmetry_Int_Tables_number	1
_symmetry_cell_setting	triclinic
loop_
_symmetry_equiv_pos_as_xyz
  x,y,z
_cell_length_a	10.540510
_cell_length_b	23.532407
_cell_length_c	9.616153
_cell_angle_alpha	90.012091
_cell_angle_beta	89.997384
_cell_angle_gamma	83.680994
loop_
_atom_site_label
_atom_site_type_symbol
_atom_site_fract_x
_atom_site_fract_y
_atom_site_fract_z
O1	O	1.683264	0.080176	0.115670
O2	O	1.313597	0.087755	0.115673
O3	O	1.509578	0.001107	0.115646
O4	O	1.487283	0.166824	0.115697
O5	O	1.509590	0.001098	-0.115646
O6	O	1.313609	0.087746	-0.115619
O7	O	1.683276	0.080167	-0.115621
Zn8	Zn	1.498444	0.083955	-0.152342
Zn9	Zn	1.498429	0.083967	0.152394
O10	O	1.487295	0.166815	-0.115594
C11	C	1.266318	0.087186	0.000027
C12	C	1.125424	0.085496	0.000027
C13	C	0.905993	0.145690	0.000577
C14	C	1.052529	0.147493	0.000047
C15	C	1.081712	0.053755	-0.132059
C16	C	0.934996	0.052391	-0.132161
C17	C	0.935219	0.051110	0.130860
C18	C	1.081463	0.054051	0.132598
C19	C	1.509016	-0.020117	-0.000003
C20	C	1.507309	-0.083346	-0.000014
C21	C	1.612580	-0.481758	0.000061
C22	C	1.610995	-0.541169	0.000072
O23	O	1.708582	-0.577274	0.000123
N24	N	1.494484	-0.564559	0.000072
C25	C	1.379552	-0.528535	0.000075
O26	O	1.280305	-0.553886	0.000077
C27	C	1.381139	-0.469126	0.000074
C28	C	1.497657	-0.445739	0.000061
C29	C	1.729089	-0.458371	0.000049
C30	C	1.730674	-0.398964	0.000036
C31	C	1.615750	-0.362945	0.000035
C32	C	1.499242	-0.386332	0.000047
C33	C	1.266208	-0.433103	0.000088
C34	C	1.267805	-0.373690	0.000088
C35	C	1.384323	-0.350303	0.000074
C36	C	1.385904	-0.290907	0.000033
N37	N	1.502414	-0.267516	0.000034
C38	C	1.617337	-0.303536	0.000035
C39	C	1.376228	-0.653300	0.000079
C40	C	1.374640	-0.712708	0.000069
C41	C	1.606083	-0.725338	0.000069
C42	C	1.607670	-0.665928	0.000068
C43	C	1.492738	-0.629909	0.000079
C44	C	1.620658	-0.178777	0.000006
C45	C	1.622233	-0.119365	-0.000013
C46	C	1.390790	-0.106740	-0.000005
C47	C	1.389214	-0.166147	0.000006
C48	C	1.504159	-0.202165	0.000016
O49	O	1.288367	-0.254767	-0.000012
O50	O	1.716568	-0.278177	0.000051
C51	C	1.730555	0.080736	0.000028
C52	C	1.871449	0.082426	0.000037
C53	C	1.487857	0.188039	0.000058
C54	C	1.489564	0.251268	0.000078
N55	N	1.498419	0.083970	0.360368
N56	N	1.498464	0.083947	-0.360317
C57	C	1.393709	0.130365	0.580753
C58	C	1.393314	0.130256	0.419585
C59	C	1.470589	0.024387	0.418824
C60	C	1.469864	0.024645	0.580042
C61	C	1.631360	0.096585	0.580259
C62	C	1.630430	0.097945	0.419033
H63	H	1.130600	0.008114	-0.136985
H64	H	0.861702	0.169701	-0.093598
C65	C	1.119106	0.085247	0.264611
N66	N	1.147470	0.108743	0.364042
C67	C	1.122408	0.083529	-0.264839
N68	N	1.153054	0.105959	-0.364846
H69	H	1.658382	0.139135	0.620957
H70	H	0.892024	0.070665	0.230973
H71	H	1.409850	0.174774	0.619562
C72	C	1.338968	0.009745	0.630846
N73	N	1.240373	-0.001475	0.669104
H74	H	1.132016	0.008789	0.140560
H75	H	1.651562	0.141785	0.380854
C76	C	1.855525	-0.497984	0.000035
N77	N	1.950766	-0.527817	0.000010
C78	C	1.141368	-0.334072	0.000095
N79	N	1.046135	-0.304234	0.000095
C80	C	1.249786	-0.613683	0.000072
N81	N	1.154549	-0.583847	0.000069
C82	C	1.569085	-0.023469	0.632705
N83	N	1.643811	-0.059712	0.672364
C84	C	1.735847	-0.640209	0.000065
N85	N	1.832396	-0.620840	0.000068
C86	C	0.848231	0.178328	0.128545
N87	N	0.804717	0.202911	0.224935
H88	H	1.544895	-0.011007	0.380462
H89	H	1.825555	-0.379929	0.000030
H90	H	1.709304	0.062745	0.618372
H91	H	0.914592	0.004563	0.131738
H92	H	1.294661	0.122117	0.381021
H93	H	1.279759	-0.731744	0.000057
H94	H	1.081055	0.172324	0.094735
H95	H	1.374810	0.013106	0.378437
H96	H	1.171327	-0.452133	0.000107
H97	H	1.294336	-0.185190	-0.000021
H98	H	1.080118	0.172468	-0.094781
C99	C	0.879704	0.081698	-0.265516
N100	N	0.838063	0.103776	-0.365956
C101	C	1.750416	-0.093644	-0.000024
N102	N	1.846962	-0.074273	-0.000029
H103	H	1.409729	0.174525	0.380066
H104	H	1.297223	-0.077403	-0.000011
C105	C	0.905983	-0.010251	-0.140292
N106	N	0.884135	-0.057432	-0.146425
C107	C	1.747102	-0.218388	0.000004
N108	N	1.842341	-0.248223	-0.000009
H109	H	1.699660	-0.754676	0.000075
H110	H	1.295620	0.122333	0.621268
C111	C	1.740554	0.055309	0.364584
N112	N	1.823498	0.023190	0.323576
