data_functionalizedCrystal
_audit_creation_method	'MofGen! by Chris Wilmer'
_symmetry_space_group_name_H-M	'P1'
_symmetry_Int_Tables_number	1
_symmetry_cell_setting	triclinic
loop_
_symmetry_equiv_pos_as_xyz
  x,y,z
_cell_length_a	14.044220
_cell_length_b	14.044190
_cell_length_c	13.101039
_cell_angle_alpha	93.663707
_cell_angle_beta	86.340132
_cell_angle_gamma	93.190328
loop_
_atom_site_label
_atom_site_type_symbol
_atom_site_fract_x
_atom_site_fract_y
_atom_site_fract_z
O1	O	1.281975	0.225348	-0.085126
O2	O	1.781975	0.725348	0.414874
O3	O	1.005305	0.217041	-0.085151
O4	O	1.505305	0.717041	0.414849
O5	O	1.139483	0.082859	-0.085118
O6	O	1.639483	0.582859	0.414882
O7	O	1.147797	0.359530	-0.085158
O8	O	1.647797	0.859530	0.414842
O9	O	1.129857	0.092504	0.085309
O10	O	1.629857	0.592504	0.585309
O11	O	0.995679	0.226686	0.085277
O12	O	1.495679	0.726686	0.585277
O13	O	1.272349	0.234993	0.085302
O14	O	1.772349	0.734993	0.585302
Zn15	Zn	1.132486	0.232371	0.112348
Zn16	Zn	1.632486	0.732371	0.612348
Zn17	Zn	1.145168	0.219663	-0.112197
Zn18	Zn	1.645168	0.719663	0.387803
O19	O	1.138172	0.369174	0.085270
O20	O	1.638172	0.869174	0.585270
C21	C	0.964870	0.218228	0.000060
C22	C	1.464870	0.718228	0.500060
C23	C	0.858728	0.207382	0.000051
C24	C	1.358728	0.707382	0.500051
C25	C	1.131033	0.052060	0.000098
C26	C	1.631033	0.552060	0.500098
C27	C	1.120185	-0.054083	0.000106
C28	C	1.620185	0.445917	0.500106
C29	C	0.664388	0.187557	0.000075
C30	C	1.164388	0.687557	0.500075
C31	C	0.613261	0.264472	0.000068
C32	C	1.113261	0.764472	0.500068
C33	C	0.505123	0.253441	0.000081
C34	C	1.005123	0.753441	0.500081
C35	C	0.772535	0.198587	0.000062
C36	C	1.272535	0.698587	0.500062
C37	C	1.177288	-0.299543	0.000071
C38	C	1.677288	0.200457	0.500071
C39	C	1.100371	-0.248418	0.000071
C40	C	1.600371	0.251582	0.500071
C41	C	1.111398	-0.140280	0.000091
C42	C	1.611398	0.359720	0.500091
C43	C	1.166262	-0.407691	0.000052
C44	C	1.666262	0.092309	0.500052
C45	C	1.312784	0.233806	0.000089
C46	C	1.812784	0.733806	0.500089
C47	C	1.418927	0.244651	0.000091
C48	C	1.918927	0.744651	0.500091
C49	C	1.146621	0.399974	0.000051
C50	C	1.646621	0.899974	0.500051
C51	C	1.157470	0.506116	0.000036
C52	C	1.657470	1.006116	0.500036
N53	N	1.123838	0.241043	0.265595
N54	N	1.623838	0.741043	0.765595
N55	N	1.153824	0.210984	-0.265444
N56	N	1.653824	0.710984	0.234556
C57	C	1.112072	0.252851	0.474635
C58	C	1.612072	0.752851	0.974635
C59	C	1.165586	0.199179	0.525523
C60	C	1.665586	0.699179	1.025523
C61	C	1.159040	0.205749	0.641840
C62	C	1.659040	0.705749	1.141840
C63	C	1.118618	0.246282	0.358307
C64	C	1.618618	0.746282	0.858307
H65	H	0.650703	0.338605	0.000052
H66	H	1.150703	0.838605	0.500052
H67	H	0.626948	0.113431	0.000091
H68	H	1.126948	0.613431	0.500091
H69	H	1.026240	-0.285862	0.000059
H70	H	1.526240	0.214138	0.500059
O71	O	1.044889	0.320261	0.532635
O72	O	1.544889	0.820261	1.032635
H73	H	1.064620	0.394553	0.512097
H74	H	1.564620	0.894553	1.012097
O75	O	1.275481	-0.249956	0.000100
O76	O	1.775481	0.250044	0.500100
H77	H	1.268840	-0.171570	0.000123
H78	H	1.768840	0.328430	0.500123
O79	O	1.232790	0.131778	0.467523
O80	O	1.732790	0.631778	0.967523
H81	H	1.270979	0.093470	0.522748
H82	H	1.770979	0.593470	1.022748
