data_functionalizedCrystal
_audit_creation_method	'MofGen! by Chris Wilmer'
_symmetry_space_group_name_H-M	'P1'
_symmetry_Int_Tables_number	1
_symmetry_cell_setting	triclinic
loop_
_symmetry_equiv_pos_as_xyz
  x,y,z
_cell_length_a	16.625546
_cell_length_b	12.827893
_cell_length_c	12.827885
_cell_angle_alpha	90.021379
_cell_angle_beta	89.964876
_cell_angle_gamma	89.979323
loop_
_atom_site_label
_atom_site_type_symbol
_atom_site_fract_x
_atom_site_fract_y
_atom_site_fract_z
Zn1	Zn	-0.321001	-1.597620	-0.590863
Zn2	Zn	0.012332	-1.264287	-0.257530
Zn3	Zn	0.345666	-0.930954	0.075803
Zn4	Zn	-0.455855	-1.597492	-0.416107
Zn5	Zn	-0.122522	-1.264159	-0.082774
Zn6	Zn	0.210811	-0.930825	0.250559
Zn7	Zn	-0.321036	-1.422861	-0.416131
Zn8	Zn	0.012297	-1.089528	-0.082798
Zn9	Zn	0.345630	-0.756194	0.250536
Zn10	Zn	-0.455791	-1.422825	-0.590801
Zn11	Zn	-0.122458	-1.089492	-0.257468
Zn12	Zn	0.210875	-0.756159	0.075865
O13	O	-0.388421	-1.510200	-0.503476
O14	O	-0.055088	-1.176866	-0.170142
O15	O	0.278246	-0.843533	0.163191
O16	O	-0.338902	-1.743839	-0.567698
O17	O	-0.005569	-1.410506	-0.234364
O18	O	0.327765	-1.077173	0.098969
O19	O	-0.438013	-1.574288	-0.269874
O20	O	-0.104679	-1.240955	0.063459
O21	O	0.228654	-0.907622	0.396792
O22	O	-0.208199	-1.446112	-0.439346
O23	O	0.125134	-1.112778	-0.106012
O24	O	0.458468	-0.779445	0.227321
O25	O	-0.437979	-1.743745	-0.439305
O26	O	-0.104645	-1.410412	-0.105972
O27	O	0.228688	-1.077078	0.227362
O28	O	-0.208173	-1.574507	-0.567721
O29	O	0.125160	-1.241173	-0.234387
O30	O	0.458493	-0.907840	0.098946
O31	O	-0.338962	-1.445988	-0.269892
O32	O	-0.005628	-1.112654	0.063442
O33	O	0.327705	-0.779321	0.396775
O34	O	-0.338900	-1.276620	-0.439286
O35	O	-0.005566	-0.943287	-0.105952
O36	O	0.327767	-0.609954	0.227381
O37	O	-0.437869	-1.446051	-0.737046
O38	O	-0.104536	-1.112717	-0.403712
O39	O	0.228797	-0.779384	-0.070379
O40	O	-0.437904	-1.276594	-0.567615
O41	O	-0.104570	-0.943261	-0.234282
O42	O	0.228763	-0.609927	0.099052
O43	O	-0.338840	-1.574472	-0.737091
O44	O	-0.005506	-1.241139	-0.403758
O45	O	0.327827	-0.907805	-0.070425
O46	O	-0.568679	-1.574254	-0.439245
O47	O	-0.235346	-1.240920	-0.105912
O48	O	0.097987	-0.907587	0.227422
O49	O	-0.568632	-1.445927	-0.567592
O50	O	-0.235299	-1.112593	-0.234259
O51	O	0.098035	-0.779260	0.099075
C52	C	-0.388399	-1.238690	-0.503447
C53	C	-0.055066	-0.905356	-0.170114
C54	C	0.278268	-0.572023	0.163220
C55	C	-0.388409	-1.122537	-0.503459
C56	C	-0.055076	-0.789203	-0.170126
C57	C	0.278258	-0.455870	0.163207
C58	C	-0.339468	-1.070798	-0.567089
C59	C	-0.006135	-0.737465	-0.233756
C60	C	0.327198	-0.404132	0.099578
C61	C	-0.339477	-0.950748	-0.567103
C62	C	-0.006144	-0.617415	-0.233770
C63	C	0.327189	-0.284081	0.099563
C64	C	-0.597912	-1.510101	-0.503432
C65	C	-0.264579	-1.176767	-0.170099
C66	C	0.068755	-0.843434	0.163235
C67	C	-0.687533	-1.510154	-0.503448
C68	C	-0.354200	-1.176821	-0.170115
C69	C	-0.020866	-0.843487	0.163218
C70	C	-1.015708	-1.510336	-0.503557
C71	C	-0.682375	-1.177003	-0.170224
C72	C	-0.349042	-0.843670	0.163110
C73	C	-0.924400	-1.510282	-0.503530
C74	C	-0.591067	-1.176949	-0.170196
C75	C	-0.257733	-0.843616	0.163137
C76	C	-0.851624	-1.510244	-0.503502
C77	C	-0.518290	-1.176911	-0.170169
C78	C	-0.184957	-0.843578	0.163164
C79	C	-0.760309	-1.510192	-0.503476
C80	C	-0.426976	-1.176859	-0.170143
C81	C	-0.093643	-0.843525	0.163191
C82	C	-0.178112	-1.510327	-0.503543
C83	C	0.155221	-1.176994	-0.170209
C84	C	0.488555	-0.843661	0.163124
C85	C	-0.088491	-1.510382	-0.503571
C86	C	0.244842	-1.177048	-0.170238
C87	C	0.578176	-0.843715	0.163096
C88	C	-0.388344	-1.510272	-0.776046
C89	C	-0.055010	-1.176938	-0.442713
C90	C	0.278323	-0.843605	-0.109379
C91	C	-0.388311	-1.510302	-0.892199
C92	C	-0.054977	-1.176969	-0.558866
C93	C	0.278356	-0.843636	-0.225533
C94	C	-0.388437	-0.782770	-0.503497
C95	C	-0.055104	-0.449436	-0.170164
C96	C	0.278230	-0.116103	0.163170
C97	C	-0.388427	-0.898923	-0.503485
C98	C	-0.055094	-0.565590	-0.170151
C99	C	0.278240	-0.232256	0.163182
C100	C	-0.339287	-1.446835	-0.943993
C101	C	-0.005954	-1.113502	-0.610659
C102	C	0.327379	-0.780169	-0.277326
C103	C	-0.339252	-1.446866	-1.064043
C104	C	-0.005919	-1.113532	-0.730710
C105	C	0.327415	-0.780199	-0.397377
C106	C	-0.388440	-1.510188	-0.231966
C107	C	-0.055107	-1.176855	0.101367
C108	C	0.278227	-0.843521	0.434701
C109	C	-0.388246	-1.510360	-0.115813
C110	C	-0.054912	-1.177026	0.217520
C111	C	0.278421	-0.843693	0.550853
H112	H	-0.297580	-0.906254	-0.621583
H113	H	0.035753	-0.572921	-0.288249
H114	H	0.369087	-0.239587	0.045084
N115	N	-0.441006	-0.954707	-0.435137
N116	N	-0.107672	-0.621373	-0.101804
N117	N	0.225661	-0.288040	0.231529
N118	N	-0.515423	-0.942572	-0.441883
N119	N	-0.182089	-0.609239	-0.108550
N120	N	0.151244	-0.275906	0.224783
H121	H	-0.552558	-0.981975	-0.393612
H122	H	-0.219224	-0.648642	-0.060279
H123	H	0.114109	-0.315308	0.273055
H124	H	-0.430314	-1.077955	-0.448992
H125	H	-0.096981	-0.744622	-0.115658
H126	H	0.236353	-0.411288	0.217675
H127	H	-0.297346	-1.392472	-0.899458
H128	H	0.035987	-1.059139	-0.566125
H129	H	0.369320	-0.725806	-0.232792
H130	H	-0.297278	-1.392534	-1.108584
H131	H	0.036055	-1.059200	-0.775251
H132	H	0.369389	-0.725867	-0.441918
N133	N	-0.440889	-1.578551	-1.059956
N134	N	-0.107556	-1.245218	-0.726623
N135	N	0.225777	-0.911885	-0.393290
N136	N	-0.412496	-1.645093	-0.999055
N137	N	-0.079163	-1.311760	-0.665721
N138	N	0.254170	-0.978426	-0.332388
H139	H	-0.449675	-1.693257	-0.959600
H140	H	-0.116341	-1.359924	-0.626266
H141	H	0.216992	-1.026590	-0.292933
N142	N	-0.286892	-1.126731	-0.635405
N143	N	0.046441	-0.793397	-0.302072
N144	N	0.379775	-0.460064	0.031262
N145	N	-0.286956	-1.224172	-0.635293
N146	N	0.046377	-0.890839	-0.301960
N147	N	0.379710	-0.557506	0.031374
H148	H	-0.249822	-1.263675	-0.683542
H149	H	0.083511	-0.930341	-0.350209
H150	H	0.416844	-0.597008	-0.016875
N151	N	-0.440928	-1.578519	-0.948041
N152	N	-0.107594	-1.245186	-0.614707
N153	N	0.225739	-0.911852	-0.281374
N154	N	-0.487012	-1.638195	-0.899408
N155	N	-0.153679	-1.304862	-0.566074
N156	N	0.179655	-0.971529	-0.232741
H157	H	-0.524173	-1.686379	-0.938842
H158	H	-0.190840	-1.353046	-0.605509
H159	H	0.142494	-1.019712	-0.272176
