data_functionalizedCrystal
_audit_creation_method	'MofGen! by Chris Wilmer'
_symmetry_space_group_name_H-M	'P1'
_symmetry_Int_Tables_number	1
_symmetry_cell_setting	triclinic
loop_
_symmetry_equiv_pos_as_xyz
  x,y,z
_cell_length_a	14.853567
_cell_length_b	19.188930
_cell_length_c	13.930277
_cell_angle_alpha	89.990320
_cell_angle_beta	89.995755
_cell_angle_gamma	83.389856
loop_
_atom_site_label
_atom_site_type_symbol
_atom_site_fract_x
_atom_site_fract_y
_atom_site_fract_z
O1	O	1.195862	0.091155	-0.079776
O2	O	1.695862	0.591155	0.420224
O3	O	0.933342	0.102014	-0.079794
O4	O	1.433342	0.602014	0.420206
O5	O	1.072177	-0.005046	-0.079766
O6	O	1.572177	0.494954	0.420234
O7	O	1.057026	0.198215	-0.079804
O8	O	1.557026	0.698215	0.420196
O9	O	1.072158	-0.005048	0.079896
O10	O	1.572158	0.494952	0.579896
O11	O	0.933322	0.102012	0.079868
O12	O	1.433322	0.602012	0.579868
O13	O	1.195842	0.091153	0.079886
O14	O	1.695842	0.591153	0.579886
Zn15	Zn	1.064579	0.096582	0.105227
Zn16	Zn	1.564579	0.596582	0.605227
Zn17	Zn	1.064605	0.096585	-0.105135
Zn18	Zn	1.564605	0.596585	0.394865
O19	O	1.057007	0.198213	0.079858
O20	O	1.557007	0.698213	0.579858
C21	C	0.899746	0.101521	0.000035
C22	C	1.399746	0.601521	0.500035
C23	C	0.799671	0.100046	0.000029
C24	C	1.299671	0.600046	0.500029
C25	C	0.387525	0.030218	0.000064
C26	C	0.887525	0.530218	0.500064
C27	C	0.365537	0.157407	0.000039
C28	C	0.865537	0.657407	0.500039
C29	C	0.459563	0.158794	0.000036
C30	C	0.959563	0.658794	0.500036
C31	C	0.517574	0.095891	0.000045
C32	C	1.017574	0.595891	0.500045
C33	C	0.481560	0.031602	0.000058
C34	C	0.981560	0.531602	0.500058
C35	C	0.495585	0.223081	0.000013
C36	C	0.995585	0.723081	0.500013
C37	C	0.589616	0.224470	0.000009
C38	C	1.089616	0.724470	0.500009
C39	C	0.647629	0.161567	0.000025
C40	C	1.147629	0.661567	0.500025
C41	C	0.611610	0.097276	0.000039
C42	C	1.111610	0.597276	0.500039
C43	C	0.669621	0.034373	0.000048
C44	C	1.169621	0.534373	0.500048
C45	C	0.633603	-0.029919	0.000069
C46	C	1.133603	0.470081	0.500069
C47	C	0.539574	-0.031301	0.000074
C48	C	1.039574	0.468699	0.500074
C49	C	0.741659	0.162949	0.000020
C50	C	1.241659	0.662949	0.500020
C51	C	0.763656	0.035757	0.000042
C52	C	1.263656	0.535757	0.500042
C53	C	1.071677	-0.031060	0.000068
C54	C	1.571677	0.468940	0.500068
C55	C	1.070204	-0.108569	0.000076
C56	C	1.570204	0.391431	0.500076
C57	C	1.151668	-0.153221	0.000086
C58	C	1.651668	0.346779	0.500086
C59	C	1.150285	-0.226050	0.000071
C60	C	1.650285	0.273950	0.500071
C61	C	1.067432	-0.254223	0.000065
C62	C	1.567432	0.245777	0.500065
C63	C	0.985957	-0.209561	0.000049
C64	C	1.485957	0.290439	0.500049
C65	C	0.987343	-0.136734	0.000055
C66	C	1.487343	0.363266	0.500055
N67	N	1.004095	-0.362440	0.054396
N68	N	1.504095	0.137560	0.554396
N69	N	1.002783	-0.431623	0.054393
N70	N	1.502783	0.068377	0.554393
C71	C	1.063251	-0.473645	0.000045
C72	C	1.563251	0.026355	0.500045
N73	N	1.125093	-0.443873	-0.054287
N74	N	1.625093	0.056127	0.445713
N75	N	1.126407	-0.374684	-0.054279
N76	N	1.626407	0.125316	0.445721
C77	C	1.065920	-0.333190	0.000058
C78	C	1.565920	0.166810	0.500058
C79	C	1.143220	-0.597267	0.000037
C80	C	1.643220	-0.097267	0.500037
C81	C	1.141833	-0.670096	0.000015
C82	C	1.641833	-0.170096	0.500015
C83	C	0.977503	-0.653606	0.000003
C84	C	1.477503	-0.153606	0.500003
C85	C	0.978893	-0.580778	0.000015
C86	C	1.478893	-0.080778	0.500015
C87	C	1.061754	-0.552613	0.000036
C88	C	1.561754	-0.052613	0.500036
C89	C	1.229438	0.091646	0.000055
C90	C	1.729438	0.591646	0.500055
C91	C	1.329513	0.093120	0.000055
C92	C	1.829513	0.593120	0.500055
C93	C	1.057507	0.224226	0.000022
C94	C	1.557507	0.724226	0.500022
C95	C	1.058980	0.301736	0.000008
C96	C	1.558980	0.801736	0.500008
N97	N	1.064569	0.096579	0.248793
N98	N	1.564569	0.596579	0.748793
N99	N	1.064623	0.096582	-0.248701
N100	N	1.564623	0.596582	0.251299
C101	C	1.003126	0.143972	0.701050
C102	C	1.503126	0.643972	1.201050
C103	C	1.126108	0.049192	0.701044
C104	C	1.626108	0.549192	1.201044
C105	C	1.126098	0.049190	0.600548
C106	C	1.626098	0.549190	1.100548
C107	C	1.064601	0.096580	0.550299
C108	C	1.564601	0.596580	1.050299
C109	C	1.003115	0.143973	0.600545
C110	C	1.503115	0.643973	1.100545
C111	C	1.187588	0.001803	0.550295
C112	C	1.687588	0.501803	1.050295
C113	C	1.187581	0.001799	0.449793
C114	C	1.687581	0.501799	0.949793
C115	C	1.126079	0.049187	0.399541
C116	C	1.626079	0.549187	0.899541
C117	C	1.064590	0.096581	0.449794
C118	C	1.564590	0.596581	0.949794
C119	C	1.003094	0.143971	0.399544
C120	C	1.503094	0.643971	0.899544
C121	C	0.941600	0.191363	0.449794
C122	C	1.441600	0.691363	0.949794
C123	C	0.941614	0.191361	0.550293
C124	C	1.441614	0.691361	1.050293
C125	C	1.126065	0.049189	0.299043
C126	C	1.626065	0.549189	0.799043
C127	C	1.003083	0.143972	0.299039
C128	C	1.503083	0.643972	0.799039
H129	H	0.680849	-0.081134	0.000070
H130	H	1.180849	0.418866	0.500070
N131	N	0.899479	-0.088562	0.000051
N132	N	1.399479	0.411438	0.500051
H133	H	0.863323	-0.097618	-0.059140
H134	H	1.363323	0.402382	0.440860
H135	H	0.863381	-0.097664	0.059273
H136	H	1.363381	0.402336	0.559273
H137	H	0.891548	0.229946	0.591213
H138	H	1.391548	0.729946	1.091213
H139	H	0.891532	0.229951	0.408870
H140	H	1.391532	0.729951	0.908870
H141	H	1.210691	-0.574334	0.000050
H142	H	1.710691	-0.074334	0.500050
N143	N	1.241042	-0.122852	0.000103
N144	N	1.741042	0.377148	0.500103
H145	H	1.276726	-0.139125	-0.059082
H146	H	1.776726	0.360875	0.440918
H147	H	1.229493	-0.069945	0.000141
H148	H	1.729493	0.430055	0.500141
N149	N	0.936797	0.195082	0.755239
N150	N	1.436797	0.695082	1.255239
H151	H	0.946129	0.187891	0.826531
H152	H	1.446129	0.687891	1.326531
H153	H	0.947009	0.244628	0.737661
H154	H	1.447009	0.744628	1.237661
N155	N	1.253901	-0.049313	0.395598
N156	N	1.753901	0.450687	0.895598
H157	H	1.292860	-0.079334	0.442682
H158	H	1.792860	0.420666	0.942682
H159	H	1.219506	-0.080230	0.353918
H160	H	1.719506	0.419770	0.853918
N161	N	0.628451	0.293813	-0.000016
N162	N	1.128451	0.793813	0.499984
H163	H	0.607274	0.321374	0.059165
H164	H	1.107274	0.821374	0.559165
H165	H	0.696815	0.285094	-0.000053
H166	H	1.196815	0.785094	0.499947
H167	H	0.448345	0.274293	-0.000004
H168	H	0.948345	0.774293	0.499996
H169	H	0.318299	0.208620	0.000023
H170	H	0.818299	0.708620	0.500023
H171	H	0.912556	-0.544421	0.000012
H172	H	1.412556	-0.044421	0.500012
H173	H	1.208174	-0.706452	0.000018
H174	H	1.708174	-0.206452	0.500018
H175	H	0.953001	0.182561	0.258132
H176	H	1.453001	0.682561	0.758132
H177	H	0.358195	-0.022127	0.000085
H178	H	0.858195	0.477873	0.500085
N179	N	0.780503	0.232285	-0.000011
N180	N	1.280503	0.732285	0.499989
H181	H	0.759329	0.259851	0.059167
H182	H	1.259329	0.759851	0.559167
H183	H	0.848867	0.223562	-0.000048
H184	H	1.348867	0.723562	0.499952
N185	N	1.238152	-0.274223	0.000080
N186	N	1.738152	0.225777	0.500080
H187	H	1.290853	-0.245329	0.000092
H188	H	1.790853	0.254671	0.500092
H189	H	1.241140	-0.304805	0.059268
H190	H	1.741140	0.195195	0.559268
H191	H	0.910043	-0.676543	-0.000007
H192	H	1.410043	-0.176543	0.499993
H193	H	1.176181	0.010611	0.741960
H194	H	1.676181	0.510611	1.241960
H195	H	1.176137	0.010607	0.258133
H196	H	1.676137	0.510607	0.758133
H197	H	1.237662	-0.036778	0.591211
H198	H	1.737662	0.463222	1.091211
N199	N	0.896590	-0.239937	0.000044
N200	N	1.396590	0.260063	0.500044
H201	H	0.892359	-0.269779	-0.059143
H202	H	1.392359	0.230221	0.440857
H203	H	0.892396	-0.269757	0.059269
H204	H	1.392396	0.230243	0.559269
N205	N	0.826224	-0.032089	0.000063
N206	N	1.326224	0.467911	0.500063
H207	H	0.789136	-0.073023	0.000079
H208	H	1.289136	0.426977	0.500079
H209	H	0.865717	-0.034288	-0.059128
H210	H	1.365717	0.465712	0.440872
H211	H	0.510239	-0.083644	0.000114
H212	H	1.010239	0.416356	0.500114
