data_functionalizedCrystal
_audit_creation_method	'MofGen! by Chris Wilmer'
_symmetry_space_group_name_H-M	'P1'
_symmetry_Int_Tables_number	1
_symmetry_cell_setting	triclinic
loop_
_symmetry_equiv_pos_as_xyz
  x,y,z
_cell_length_a	16.959455
_cell_length_b	16.959454
_cell_length_c	16.959447
_cell_angle_alpha	90.021714
_cell_angle_beta	89.976354
_cell_angle_gamma	90.004016
loop_
_atom_site_label
_atom_site_type_symbol
_atom_site_fract_x
_atom_site_fract_y
_atom_site_fract_z
Zn1	Zn	-1.208489	-0.314771	0.447153
Zn2	Zn	-0.708489	0.185229	0.947153
Zn3	Zn	-1.208455	-0.446964	0.314994
Zn4	Zn	-0.708455	0.053036	0.814994
Zn5	Zn	-1.076317	-0.314792	0.314969
Zn6	Zn	-0.576317	0.185208	0.814969
Zn7	Zn	-1.076326	-0.446900	0.447111
Zn8	Zn	-0.576326	0.053100	0.947111
O9	O	-1.142397	-0.380857	0.381057
O10	O	-0.642397	0.119143	0.881057
O11	O	-1.319095	-0.332325	0.429649
O12	O	-0.819095	0.167675	0.929649
O13	O	-1.190909	-0.429466	0.204380
O14	O	-0.690909	0.070534	0.704380
O15	O	-1.093860	-0.204178	0.332510
O16	O	-0.593860	0.295822	0.832510
O17	O	-1.319071	-0.429446	0.332553
O18	O	-0.819071	0.070554	0.832553
O19	O	-1.190966	-0.204163	0.429625
O20	O	-0.690966	0.295837	0.929625
O21	O	-1.093828	-0.332360	0.204361
O22	O	-0.593828	0.167640	0.704361
O23	O	-0.965707	-0.332298	0.332470
O24	O	-0.465707	0.167702	0.832470
O25	O	-1.093875	-0.429338	0.557727
O26	O	-0.593875	0.070662	1.057727
O27	O	-0.965714	-0.429358	0.429554
O28	O	-0.465714	0.070642	0.929554
O29	O	-1.190975	-0.332263	0.557758
O30	O	-0.690975	0.167737	1.057758
O31	O	-1.190918	-0.557566	0.332513
O32	O	-0.690918	-0.057566	0.832513
O33	O	-1.093843	-0.557520	0.429579
O34	O	-0.593843	-0.057520	0.929579
C35	C	-0.937030	-0.380824	0.381005
C36	C	-0.437030	0.119176	0.881005
C37	C	-0.849174	-0.380829	0.381002
C38	C	-0.349174	0.119171	0.881002
C39	C	-0.477675	-0.431354	0.330435
C40	C	0.022325	0.068646	0.830435
C41	C	-0.477722	-0.330378	0.431699
C42	C	0.022278	0.169622	0.931699
C43	C	-0.560268	-0.330368	0.431684
C44	C	-0.060268	0.169632	0.931684
C45	C	-0.601521	-0.380853	0.381045
C46	C	-0.101521	0.119147	0.881045
C47	C	-0.560228	-0.431347	0.330420
C48	C	-0.060228	0.068653	0.830420
C49	C	-0.601566	-0.279880	0.482314
C50	C	-0.101566	0.220120	0.982314
C51	C	-0.684117	-0.279868	0.482302
C52	C	-0.184117	0.220132	0.982302
C53	C	-0.725372	-0.330349	0.431658
C54	C	-0.225372	0.169651	0.931658
C55	C	-0.684074	-0.380846	0.381031
C56	C	-0.184074	0.119154	0.881031
C57	C	-0.725328	-0.431330	0.330391
C58	C	-0.225328	0.068670	0.830391
C59	C	-0.684032	-0.481823	0.279759
C60	C	-0.184032	0.018177	0.779759
C61	C	-0.601483	-0.481829	0.279776
C62	C	-0.101483	0.018171	0.779776
C63	C	-0.807921	-0.330344	0.431641
C64	C	-0.307921	0.169656	0.931641
C65	C	-0.807881	-0.431323	0.330377
C66	C	-0.307881	0.068677	0.830377
C67	C	-1.142399	-0.586223	0.381061
C68	C	-0.642399	-0.086223	0.881061
C69	C	-1.142472	-0.674080	0.381090
C70	C	-0.642472	-0.174080	0.881090
C71	C	-1.142430	-0.380791	0.587225
C72	C	-0.642430	0.119209	1.087225
C73	C	-1.142444	-0.380764	0.675081
C74	C	-0.642444	0.119236	1.175081
C75	C	-0.348565	-0.380882	0.381094
C76	C	0.151435	0.119118	0.881094
C77	C	-0.436422	-0.380870	0.381074
C78	C	0.063578	0.119130	0.881074
C79	C	-1.142416	-0.174689	0.381069
C80	C	-0.642416	0.325311	0.881069
C81	C	-1.142424	-0.086832	0.381075
C82	C	-0.642424	0.413168	0.881075
C83	C	-1.193027	0.284654	0.431651
C84	C	-0.693027	0.784654	0.931651
C85	C	-1.091910	0.284633	0.330525
C86	C	-0.591910	0.784633	0.830525
C87	C	-1.091898	0.202087	0.330522
C88	C	-0.591898	0.702087	0.830522
C89	C	-1.142452	0.160821	0.381084
C90	C	-0.642452	0.660821	0.881084
C91	C	-1.193018	0.202100	0.431648
C92	C	-0.693018	0.702100	0.931648
C93	C	-1.041339	0.160802	0.279952
C94	C	-0.541339	0.660802	0.779952
C95	C	-1.041326	0.078251	0.279947
C96	C	-0.541326	0.578251	0.779947
C97	C	-1.091877	0.036983	0.330513
C98	C	-0.591877	0.536983	0.830513
C99	C	-1.142444	0.078267	0.381081
C100	C	-0.642444	0.578267	0.881081
C101	C	-1.192998	0.037001	0.431642
C102	C	-0.692998	0.537001	0.931642
C103	C	-1.243562	0.078284	0.482215
C104	C	-0.743562	0.578284	0.982215
C105	C	-1.243569	0.160832	0.482215
C106	C	-0.743569	0.660832	0.982215
C107	C	-1.091870	-0.045565	0.330513
C108	C	-0.591870	0.454435	0.830513
C109	C	-1.192990	-0.045553	0.431639
C110	C	-0.692990	0.454447	0.931639
C111	C	-1.142409	-0.380865	0.175690
C112	C	-0.642409	0.119135	0.675690
C113	C	-1.142549	-0.380670	0.087834
C114	C	-0.642549	0.119330	0.587834
C115	C	-1.091983	-0.431222	1.046544
C116	C	-0.591983	0.068778	1.546544
C117	C	-1.193093	-0.330138	1.046571
C118	C	-0.693093	0.169862	1.546571
C119	C	-1.193072	-0.330155	0.964025
C120	C	-0.693072	0.169845	1.464025
C121	C	-1.142507	-0.380707	0.922735
C122	C	-0.642507	0.119293	1.422735
C123	C	-1.091962	-0.431242	0.963990
C124	C	-0.591962	0.068758	1.463990
C125	C	-1.243622	-0.279626	0.922763
C126	C	-0.743622	0.220374	1.422763
C127	C	-1.243603	-0.279641	0.840212
C128	C	-0.743603	0.220359	1.340212
C129	C	-1.193033	-0.330190	0.798920
C130	C	-0.693033	0.169810	1.298920
C131	C	-1.142486	-0.380727	0.840181
C132	C	-0.642486	0.119273	1.340181
C133	C	-1.091920	-0.431279	0.798891
C134	C	-0.591920	0.068721	1.298891
C135	C	-1.041368	-0.481812	0.840150
C136	C	-0.541368	0.018188	1.340150
C137	C	-1.041391	-0.481791	0.922699
C138	C	-0.541391	0.018209	1.422699
C139	C	-1.193009	-0.330211	0.716372
C140	C	-0.693009	0.169789	1.216372
C141	C	-1.091899	-0.431299	0.716337
C142	C	-0.591899	0.068701	1.216337
H143	H	-0.717631	-0.522932	0.238533
H144	H	-0.217631	-0.022932	0.738533
H145	H	-1.234266	-0.288985	1.080194
H146	H	-0.734266	0.211015	1.580194
O147	O	-1.298130	-0.225075	0.967293
O148	O	-0.798130	0.274925	1.467293
H149	H	-1.289633	-0.233534	1.031625
H150	H	-0.789633	0.266466	1.531625
O151	O	-1.247565	0.329178	0.486189
O152	O	-0.747565	0.829178	0.986189
H153	H	-1.282714	0.286612	0.521346
H154	H	-0.782714	0.786612	1.021346
O155	O	-1.298120	-0.225138	0.795712
O156	O	-0.798120	0.274862	1.295712
H157	H	-1.333282	-0.189981	0.838293
H158	H	-0.833282	0.310019	1.338293
O159	O	-1.298081	0.033768	0.536753
O160	O	-0.798081	0.533768	1.036753
H161	H	-1.338283	-0.003864	0.501383
H162	H	-0.838283	0.496136	1.001383
O163	O	-1.247528	-0.275720	0.671866
O164	O	-0.747528	0.224280	1.171866
H165	H	-1.233984	-0.213675	0.687710
H166	H	-0.733984	0.286325	1.187710
H167	H	-1.000183	0.194404	0.238782
H168	H	-0.500183	0.694404	0.738782
H169	H	-1.234152	-0.079146	0.472820
H170	H	-0.734152	0.420854	0.972820
H171	H	-0.444048	-0.472462	0.289209
H172	H	0.055952	0.027538	0.789209
H173	H	-1.000237	-0.522935	0.956299
H174	H	-0.500237	-0.022935	1.456299
O175	O	-1.037342	-0.485806	0.671802
O176	O	-0.537342	0.014194	1.171802
H177	H	-1.002194	-0.520935	0.714362
H178	H	-0.502194	-0.020935	1.214362
H179	H	-1.050704	-0.079174	0.289335
H180	H	-0.550704	0.420826	0.789335
H181	H	-1.284737	0.194450	0.523388
H182	H	-0.784737	0.694450	1.023388
O183	O	-0.556945	-0.536288	0.225172
O184	O	-0.056945	-0.036288	0.725172
H185	H	-0.492614	-0.527816	0.233697
H186	H	0.007386	-0.027816	0.733697
O187	O	-1.037386	0.329136	0.275989
O188	O	-0.537386	0.829136	0.775989
H189	H	-1.045885	0.393473	0.284488
H190	H	-0.545885	0.893473	0.784488
O191	O	-0.433227	-0.275934	0.486316
O192	O	0.066773	0.224066	0.986316
H193	H	-0.475810	-0.240825	0.521520
H194	H	0.024190	0.259175	1.021520
O195	O	-0.852376	-0.485773	0.275756
O196	O	-0.352376	0.014227	0.775756
H197	H	-0.809791	-0.520885	0.240558
H198	H	-0.309791	-0.020885	0.740558
O199	O	-0.986786	0.033725	0.225412
O200	O	-0.486786	0.533725	0.725412
H201	H	-0.951631	0.076290	0.190258
H202	H	-0.451631	0.576290	0.690258
H203	H	-1.050822	-0.472363	1.080141
H204	H	-0.550822	0.027637	1.580141
O205	O	-0.557069	-0.225427	0.536920
O206	O	-0.057069	0.274573	1.036920
H207	H	-0.519477	-0.260856	0.577075
H208	H	-0.019477	0.239144	1.077075
O209	O	-0.728652	-0.225397	0.536898
O210	O	-0.228652	0.274603	1.036898
H211	H	-0.712846	-0.239021	0.598917
H212	H	-0.212846	0.260979	1.098917
O213	O	-0.852465	-0.275889	0.486240
O214	O	-0.352465	0.224111	0.986240
H215	H	-0.809910	-0.240783	0.521452
H216	H	-0.309910	0.259217	1.021452
O217	O	-0.986820	-0.536331	0.795618
O218	O	-0.486820	-0.036331	1.295618
H219	H	-1.022180	-0.576562	0.758004
H220	H	-0.522180	-0.076562	1.258004
