data_functionalizedCrystal
_audit_creation_method	'MofGen! by Chris Wilmer'
_symmetry_space_group_name_H-M	'P1'
_symmetry_Int_Tables_number	1
_symmetry_cell_setting	triclinic
loop_
_symmetry_equiv_pos_as_xyz
  x,y,z
_cell_length_a	17.699099
_cell_length_b	9.130313
_cell_length_c	17.699083
_cell_angle_alpha	90.000743
_cell_angle_beta	83.286183
_cell_angle_gamma	90.002419
loop_
_atom_site_label
_atom_site_type_symbol
_atom_site_fract_x
_atom_site_fract_y
_atom_site_fract_z
O1	O	1.004067	0.121782	0.095762
O2	O	0.783691	0.121789	0.108202
O3	O	0.900105	0.121772	-0.008207
O4	O	0.887653	0.121799	0.212171
O5	O	0.900097	-0.121827	-0.008200
O6	O	0.783683	-0.121809	0.108209
O7	O	1.004059	-0.121817	0.095769
Cu8	Cu	0.893870	-0.144056	0.101990
Cu9	Cu	0.893880	0.144028	0.101981
O10	O	0.887645	-0.121800	0.212178
C11	C	0.755490	-0.000009	0.107758
C12	C	0.671472	-0.000007	0.106414
N13	N	0.893869	-0.346679	0.101995
C14	C	0.899655	-0.000027	-0.036400
C15	C	0.898316	-0.000028	-0.120419
C16	C	1.032260	-0.000016	0.096213
C17	C	1.116278	-0.000009	0.097556
C18	C	1.155749	0.132779	0.098185
C19	C	1.234693	0.132781	0.099440
C20	C	1.274164	-0.000006	0.100073
C21	C	1.234687	-0.132804	0.099443
C22	C	1.155745	-0.132804	0.098182
C23	C	1.553052	-0.132806	0.104528
C24	C	1.631999	-0.132796	0.105792
C25	C	1.632000	0.132779	0.105787
C26	C	1.553058	0.132779	0.104526
C27	C	1.513588	-0.000018	0.103891
C28	C	1.427988	-0.000018	0.102528
C29	C	1.359762	-0.000008	0.101442
C30	C	0.939685	-0.423340	0.147841
C31	C	0.939696	-0.576677	0.147827
C32	C	0.848070	-0.576677	0.056119
C33	C	0.848063	-0.423343	0.056129
C34	C	0.985491	-0.346676	0.193706
C35	C	1.031309	-0.423338	0.239557
C36	C	1.031321	-0.576675	0.239543
C37	C	0.985513	-0.653350	0.193678
N38	N	0.893887	0.346651	0.101970
C39	C	0.966649	-0.000032	-0.169036
C40	C	0.965387	-0.000019	-0.247979
C41	C	0.895791	-0.000012	-0.278304
C42	C	0.827453	-0.000003	-0.229680
C43	C	0.828716	-0.000006	-0.150739
C44	C	0.822358	0.000009	-0.548044
C45	C	0.821100	0.000007	-0.626992
C46	C	0.959029	-0.000005	-0.645284
C47	C	0.960292	-0.000007	-0.566342
C48	C	0.891954	0.000009	-0.517726
C49	C	0.893324	-0.000002	-0.432127
C50	C	0.894421	-0.000011	-0.363902
C51	C	0.888095	0.000003	0.240371
C52	C	0.889434	0.000013	0.324389
H53	H	1.266828	0.240910	0.099947
C54	C	1.432050	-0.250747	0.102568
C55	C	1.509674	-0.278773	0.103821
H56	H	1.405271	-0.340868	0.102122
H57	H	1.413257	-0.196212	0.146479
H58	H	1.424979	-0.196173	0.058242
H59	H	1.516746	-0.333338	0.148150
H60	H	1.528473	-0.333331	0.059905
H61	H	0.810774	-0.639118	0.018779
C62	C	1.082578	0.125178	-0.287864
C63	C	1.040504	-0.000033	-0.301415
H64	H	1.128956	0.125162	-0.320849
H65	H	1.054043	0.210117	-0.297048
H66	H	1.093278	0.125154	-0.236505
H67	H	1.029799	-0.000004	-0.352772
H68	H	1.069045	-0.084995	-0.292236
H69	H	1.068608	-0.360900	0.276894
C70	C	1.163668	-0.395322	0.098320
C71	C	1.112355	-0.278769	0.097495
H72	H	1.136879	-0.485435	0.097898
H73	H	1.200308	-0.389803	0.054697
H74	H	1.188606	-0.389784	0.142935
H75	H	1.087420	-0.284300	0.052877
H76	H	1.075700	-0.284291	0.141122
H77	H	0.985485	-0.221822	0.193725
C78	C	1.072029	-0.811724	0.280236
C79	C	1.081688	-0.660947	0.289933
H80	H	1.103128	-0.863744	0.311344
H81	H	1.020228	-0.836866	0.294359
H82	H	1.086194	-0.836818	0.228428
H83	H	1.067518	-0.635851	0.341740
H84	H	1.133501	-0.635794	0.275815
H85	H	0.810755	-0.360923	0.018799
C86	C	1.048090	0.125182	-0.090869
C87	C	1.043151	-0.000039	-0.135703
H88	H	1.095318	0.125174	-0.070289
H89	H	1.044735	0.210115	-0.121285
H90	H	1.007570	0.125164	-0.050617
H91	H	1.083668	-0.000015	-0.175958
H92	H	1.046513	-0.084994	-0.105286
C93	C	1.096507	-0.000000	-0.592356
C94	C	1.036794	-0.000008	-0.533011
H95	H	1.143736	0.000013	-0.571777
H96	H	1.093147	-0.084944	-0.622764
H97	H	1.093141	0.084953	-0.622767
H98	H	1.040156	-0.084967	-0.502603
H99	H	1.040156	0.084945	-0.502590
H100	H	0.766713	0.000022	-0.508469
C101	C	0.703154	0.125273	-0.635714
C102	C	0.744595	0.000033	-0.660328
H103	H	0.655929	0.125290	-0.656300
H104	H	0.694123	0.125265	-0.581748
H105	H	0.731302	0.210202	-0.652415
H106	H	0.716449	-0.084897	-0.643623
H107	H	0.753624	0.000027	-0.714305
C108	C	0.935643	-0.873005	0.143726
C109	C	0.985526	-0.821902	0.193659
H110	H	0.935654	-0.977059	0.143715
H111	H	0.885743	-0.838340	0.159762
H112	H	0.951711	-0.838291	0.093834
H113	H	0.969455	-0.856607	0.243553
H114	H	1.035437	-0.856582	0.177627
H115	H	1.014673	-0.000011	-0.684878
C116	C	0.764270	-0.000011	-0.342568
C117	C	0.750951	-0.000001	-0.263011
H118	H	0.717039	-0.000023	-0.363142
H119	H	0.792396	0.084931	-0.359261
H120	H	0.792399	-0.084966	-0.359256
H121	H	0.722826	0.084960	-0.246323
H122	H	0.722813	-0.084952	-0.246312
H123	H	0.773072	-0.000002	-0.111155
C124	C	1.122828	0.359159	0.162828
C125	C	1.112367	0.278746	0.097491
H126	H	1.096050	0.449278	0.162395
H127	H	1.104034	0.304605	0.206734
H128	H	1.175495	0.378150	0.163660
H129	H	1.059700	0.259745	0.096662
H130	H	1.131156	0.333312	0.053574
H131	H	1.520924	0.240908	0.104014
H132	H	1.664145	0.240909	0.106300
H133	H	1.266831	-0.240922	0.099953
C134	C	1.624076	-0.395328	0.105649
C135	C	1.675388	-0.278767	0.106478
H136	H	1.650865	-0.485437	0.106068
H137	H	1.587435	-0.389818	0.149273
H138	H	1.599137	-0.389791	0.061035
H139	H	1.700323	-0.284297	0.151095
H140	H	1.712042	-0.284280	0.062850
