data_functionalizedCrystal
_audit_creation_method	'MofGen! by Chris Wilmer'
_symmetry_space_group_name_H-M	'P1'
_symmetry_Int_Tables_number	1
_symmetry_cell_setting	triclinic
loop_
_symmetry_equiv_pos_as_xyz
  x,y,z
_cell_length_a	12.827893
_cell_length_b	12.827892
_cell_length_c	11.169409
_cell_angle_alpha	90.033276
_cell_angle_beta	90.021188
_cell_angle_gamma	90.015362
loop_
_atom_site_label
_atom_site_type_symbol
_atom_site_fract_x
_atom_site_fract_y
_atom_site_fract_z
Zn1	Zn	1.597689	-0.415949	0.678579
Zn2	Zn	2.097689	0.084051	1.178579
Zn3	Zn	1.597578	-0.590737	0.477892
Zn4	Zn	2.097578	-0.090737	0.977892
Zn5	Zn	1.422925	-0.416010	0.477908
Zn6	Zn	1.922925	0.083990	0.977908
Zn7	Zn	1.422916	-0.590649	0.678532
Zn8	Zn	1.922916	-0.090649	1.178532
O9	O	1.510277	-0.503336	0.578228
O10	O	2.010277	-0.003336	1.078228
O11	O	1.743911	-0.439146	0.651970
O12	O	2.243911	0.060854	1.151970
O13	O	1.574367	-0.567621	0.309944
O14	O	2.074367	-0.067621	0.809944
O15	O	1.446158	-0.269766	0.504554
O16	O	1.946158	0.230234	1.004554
O17	O	1.743828	-0.567562	0.504526
O18	O	2.243828	-0.067562	1.004526
O19	O	1.574557	-0.269721	0.651985
O20	O	2.074557	0.230279	1.151985
O21	O	1.446050	-0.439250	0.309956
O22	O	1.946050	0.060750	0.809956
O23	O	1.276688	-0.439165	0.504509
O24	O	1.776688	0.060835	1.004509
O25	O	1.446143	-0.567412	0.846488
O26	O	1.946143	-0.067412	1.346488
O27	O	1.276681	-0.567471	0.651906
O28	O	1.776681	-0.067471	1.151906
O29	O	1.574548	-0.439061	0.846522
O30	O	2.074548	0.060939	1.346522
O31	O	1.574358	-0.736961	0.504481
O32	O	2.074358	-0.236961	1.004481
O33	O	1.446035	-0.736897	0.651891
O34	O	1.946035	-0.236897	1.151891
C35	C	1.238767	-0.503316	0.578205
C36	C	1.738767	-0.003316	1.078205
C37	C	1.122614	-0.503333	0.578224
C38	C	1.622614	-0.003333	1.078224
C39	C	0.950761	-0.439777	0.505437
C40	C	1.450761	0.060223	1.005437
C41	C	1.070811	-0.439758	0.505416
C42	C	1.570811	0.060242	1.005416
C43	C	1.510212	-0.774846	0.578206
C44	C	2.010212	-0.274846	1.078206
C45	C	1.510279	-0.890999	0.578236
C46	C	2.010279	-0.390999	1.078236
C47	C	1.573787	-0.942678	0.651256
C48	C	2.073787	-0.442678	1.151256
C49	C	1.573858	-1.062729	0.651289
C50	C	2.073858	-0.562729	1.151289
C51	C	1.782847	-0.503357	0.578251
C52	C	2.282847	-0.003357	1.078251
C53	C	1.899000	-0.503366	0.578262
C54	C	2.399000	-0.003366	1.078262
C55	C	1.510357	-0.503220	0.891270
C56	C	2.010357	-0.003220	1.391270
C57	C	1.510391	-0.503171	1.024670
C58	C	2.010391	-0.003171	1.524670
C59	C	1.510371	-0.230766	0.578276
C60	C	2.010371	0.269234	1.078276
C61	C	1.510411	-0.114613	0.578297
C62	C	2.010411	0.385387	1.078297
C63	C	1.510257	-0.503376	0.266403
C64	C	2.010257	-0.003376	0.766403
C65	C	1.510425	-0.503131	0.133004
C66	C	2.010425	-0.003131	0.633004
H67	H	1.115324	-0.385321	0.443064
H68	H	1.615324	0.114679	0.943064
O69	O	0.952268	-0.568155	0.652688
O70	O	1.452268	-0.068155	1.152688
C71	C	1.015423	-0.508665	0.730266
C72	C	1.515423	-0.008665	1.230266
H73	H	1.031657	-0.429412	0.688073
H74	H	1.531657	0.070588	1.188073
H75	H	1.092222	-0.551164	0.746176
H76	H	1.592222	-0.051164	1.246176
H77	H	0.973462	-0.497316	0.819280
H78	H	1.473462	0.002684	1.319280
O79	O	1.445394	-1.061722	0.503771
O80	O	1.945394	-0.561722	1.003771
C81	C	1.341220	-1.088367	0.529897
C82	C	1.841220	-0.588367	1.029897
H83	H	1.339009	-1.167611	0.575971
H84	H	1.839009	-0.667611	1.075971
H85	H	1.294397	-1.092092	0.443230
H86	H	1.794397	-0.592092	0.943230
H87	H	1.306016	-1.026947	0.591614
H88	H	1.806016	-0.526947	1.091614
H89	H	0.906198	-0.385346	0.443109
H90	H	1.406198	0.114654	0.943109
O91	O	1.445376	-0.944074	0.503643
O92	O	1.945376	-0.444074	1.003643
C93	C	1.386332	-0.872714	0.435720
C94	C	1.886332	-0.372714	0.935720
H95	H	1.382575	-0.794849	0.484771
H96	H	1.882575	-0.294849	0.984771
H97	H	1.304050	-0.904411	0.422874
H98	H	1.804050	-0.404411	0.922874
H99	H	1.424626	-0.861178	0.344593
H100	H	1.924626	-0.361178	0.844593
H101	H	1.078108	-0.557780	0.640571
H102	H	1.578108	-0.057780	1.140571
O103	O	1.638558	-0.889281	0.725697
O104	O	2.138558	-0.389281	1.225697
C105	C	1.624054	-0.781304	0.709106
C106	C	2.124054	-0.281304	1.209106
H107	H	1.589848	-0.766598	0.616430
H108	H	2.089848	-0.266598	1.116430
H109	H	1.702263	-0.739675	0.717271
H110	H	2.202263	-0.239675	1.217271
H111	H	1.568326	-0.750327	0.780198
H112	H	2.068326	-0.250327	1.280198
H113	H	1.628233	-1.107172	0.713799
H114	H	2.128233	-0.607172	1.213799
