data_functionalizedCrystal
_audit_creation_method	'MofGen! by Chris Wilmer'
_symmetry_space_group_name_H-M	'P1'
_symmetry_Int_Tables_number	1
_symmetry_cell_setting	triclinic
loop_
_symmetry_equiv_pos_as_xyz
  x,y,z
_cell_length_a	16.992694
_cell_length_b	27.731996
_cell_length_c	15.455313
_cell_angle_alpha	87.363736
_cell_angle_beta	92.857794
_cell_angle_gamma	86.644806
loop_
_atom_site_label
_atom_site_type_symbol
_atom_site_fract_x
_atom_site_fract_y
_atom_site_fract_z
O1	O	1.042576	0.100468	0.072041
O2	O	1.542576	0.600468	0.572041
O3	O	0.814306	0.099344	0.072066
O4	O	1.314306	0.599344	0.572066
O5	O	0.935551	0.029815	0.072034
O6	O	1.435551	0.529815	0.572034
O7	O	0.921331	0.169996	0.072073
O8	O	1.421331	0.669996	0.572073
O9	O	0.928618	0.033774	-0.072226
O10	O	1.428618	0.533774	0.427774
O11	O	0.807373	0.103302	-0.072194
O12	O	1.307373	0.603302	0.427806
O13	O	1.035643	0.104427	-0.072219
O14	O	1.535643	0.604427	0.427781
Cu15	Cu	0.920875	0.104226	-0.085379
Cu16	Cu	1.420875	0.604226	0.414621
Cu17	Cu	0.929074	0.099544	0.085226
Cu18	Cu	1.429074	0.599544	0.585226
O19	O	0.914398	0.173955	-0.072187
O20	O	1.414398	0.673955	0.427813
C21	C	0.781645	0.099877	-0.000061
C22	C	1.281645	0.599877	0.499939
C23	C	0.694655	0.095563	-0.000052
C24	C	1.194655	0.595563	0.499948
C25	C	0.931792	0.013775	-0.000099
C26	C	1.431792	0.513775	0.499901
C27	C	0.930912	-0.039919	-0.000108
C28	C	1.430912	0.460081	0.499892
C29	C	0.643898	0.137186	-0.000041
C30	C	1.143898	0.637186	0.499959
C31	C	0.562161	0.133130	-0.000054
C32	C	1.062161	0.633130	0.499946
C33	C	0.531183	0.087450	-0.000072
C34	C	1.031183	0.587450	0.499928
C35	C	0.581946	0.045824	-0.000086
C36	C	1.081946	0.545824	0.499914
C37	C	0.663681	0.049880	-0.000079
C38	C	1.163681	0.549880	0.499921
C39	C	0.287793	0.070637	-0.000100
C40	C	0.787793	0.570637	0.499900
C41	C	0.206051	0.066584	-0.000104
C42	C	0.706051	0.566584	0.499896
C43	C	0.186272	0.153891	-0.000075
C44	C	0.686272	0.653891	0.499925
C45	C	0.268009	0.157943	-0.000063
C46	C	0.768009	0.657943	0.499937
C47	C	0.318765	0.116317	-0.000081
C48	C	0.818765	0.616317	0.499919
N49	N	0.447635	0.083303	-0.000083
N50	N	0.947635	0.583303	0.499917
N51	N	0.402311	0.120464	-0.000076
N52	N	0.902311	0.620464	0.499924
C53	C	0.929157	-0.375034	0.078571
C54	C	1.429157	0.124966	0.578571
C55	C	0.925816	-0.576837	0.078587
C56	C	1.425816	-0.076837	0.578587
O57	O	0.928564	-0.604763	0.145465
O58	O	1.428564	-0.104763	0.645465
N59	N	0.921622	-0.599915	-0.000048
N60	N	1.421622	-0.099915	0.499952
C61	C	0.918257	-0.572538	-0.078693
C62	C	1.418257	-0.072538	0.421307
O63	O	0.914605	-0.596796	-0.145577
O64	O	1.414605	-0.096796	0.354423
C65	C	0.921592	-0.370735	-0.078708
C66	C	1.421592	0.129265	0.421292
C67	C	0.925795	-0.347661	-0.000068
C68	C	1.425795	0.152339	0.499932
C69	C	0.933358	-0.351960	0.157206
C70	C	1.433358	0.148040	0.657206
C71	C	0.934197	-0.301512	0.157201
C72	C	1.434197	0.198488	0.657201
C73	C	0.930835	-0.274139	0.078562
C74	C	1.430835	0.225861	0.578562
C75	C	0.926634	-0.297213	-0.000072
C76	C	1.426634	0.202787	0.499928
C77	C	0.918222	-0.343359	-0.157352
C78	C	1.418222	0.156641	0.342648
C79	C	0.919055	-0.292905	-0.157349
C80	C	1.419055	0.207095	0.342651
C81	C	0.923257	-0.269831	-0.078708
C82	C	1.423257	0.230169	0.421292
C83	C	0.924112	-0.219393	-0.078716
C84	C	1.424112	0.280607	0.421284
N85	N	0.928306	-0.196315	-0.000080
N86	N	1.428306	0.303685	0.499920
C87	C	0.931668	-0.223688	0.078559
C88	C	1.431668	0.276312	0.578559
C89	C	0.916508	-0.678487	-0.078680
C90	C	1.416508	-0.178487	0.421320
C91	C	0.915676	-0.728937	-0.078677
C92	C	1.415676	-0.228937	0.421323
C93	C	0.923233	-0.733234	0.078604
C94	C	1.423233	-0.233234	0.578604
C95	C	0.924071	-0.682782	0.078600
C96	C	1.424071	-0.182782	0.578600
C97	C	0.920702	-0.655410	-0.000045
C98	C	1.420702	-0.155410	0.499955
C99	C	0.933431	-0.117745	0.078543
C100	C	1.433431	0.382255	0.578543
C101	C	0.934273	-0.067293	0.078531
C102	C	1.434273	0.432707	0.578531
C103	C	0.926712	-0.063001	-0.078749
C104	C	1.426712	0.436999	0.421251
C105	C	0.925874	-0.113449	-0.078738
C106	C	1.425874	0.386551	0.421262
C107	C	0.929231	-0.140819	-0.000085
C108	C	1.429231	0.359181	0.499915
O109	O	0.921357	-0.191436	-0.145558
O110	O	1.421357	0.308564	0.354442
O111	O	0.935302	-0.199420	0.145433
O112	O	1.435302	0.300580	0.645433
C113	C	0.928317	-0.425482	0.078576
C114	C	1.428317	0.074518	0.578576
C115	C	0.924116	-0.448556	-0.000058
C116	C	1.424116	0.051444	0.499942
C117	C	0.920754	-0.421183	-0.078697
C118	C	1.420754	0.078817	0.421303
C119	C	0.923284	-0.499007	-0.000055
C120	C	1.423284	0.000993	0.499945
C121	C	0.926645	-0.526380	0.078584
C122	C	1.426645	-0.026380	0.578584
C123	C	0.930840	-0.503302	0.157220
C124	C	1.430840	-0.003302	0.657220
C125	C	0.931679	-0.452855	0.157215
C126	C	1.431679	0.047145	0.657215
C127	C	0.916560	-0.444260	-0.157333
C128	C	1.416560	0.055740	0.342667
C129	C	0.915722	-0.494708	-0.157321
C130	C	1.415722	0.005292	0.342679
C131	C	0.919084	-0.522081	-0.078682
C132	C	1.419084	-0.022081	0.421318
C133	C	1.068304	0.103893	-0.000090
C134	C	1.568304	0.603893	0.499910
C135	C	1.155294	0.108207	-0.000093
C136	C	1.655294	0.608207	0.499907
C137	C	0.918157	0.189996	-0.000052
C138	C	1.418157	0.689996	0.499948
C139	C	0.919037	0.243689	-0.000038
C140	C	1.419037	0.743689	0.499962
N141	N	0.915114	0.107518	-0.205373
N142	N	1.415114	0.607518	0.294627
C143	C	0.966640	0.077992	-0.250781
C144	C	1.466640	0.577992	0.249219
C145	C	0.962291	0.080487	-0.341587
C146	C	1.462291	0.580487	0.158413
C147	C	0.906417	0.112511	-0.386985
C148	C	1.406417	0.612511	0.113015
C149	C	0.854885	0.142037	-0.341571
C150	C	1.354885	0.642037	0.158429
C151	C	0.859232	0.139540	-0.250765
C152	C	1.359232	0.639540	0.249235
C153	C	0.887656	0.123278	-0.658561
C154	C	1.387656	0.623278	-0.158561
C155	C	0.883315	0.125774	-0.749373
C156	C	1.383315	0.625774	-0.249373
C157	C	0.990720	0.064223	-0.749383
C158	C	1.490720	0.564223	-0.249383
C159	C	0.995065	0.061730	-0.658576
C160	C	1.495065	0.561730	-0.158576
C161	C	0.943530	0.091255	-0.613170
C162	C	1.443530	0.591255	-0.113170
N163	N	0.901971	0.115062	-0.479804
N164	N	1.401971	0.615062	0.020196
N165	N	0.947972	0.088701	-0.520353
N166	N	1.447972	0.588701	-0.020353
N167	N	0.934841	0.096248	0.205220
N168	N	1.434841	0.596248	0.705220
H169	H	0.520837	0.167025	-0.000044
H170	H	1.020837	0.667025	0.499956
O171	O	0.928590	-0.657895	0.163417
O172	O	1.428590	-0.157895	0.663417
H173	H	0.930781	-0.685410	0.218096
H174	H	1.430781	-0.185410	0.718096
O175	O	0.936207	-0.427971	0.242035
O176	O	1.436207	0.072029	0.742035
H177	H	0.883335	-0.402839	0.245803
H178	H	1.383335	0.097161	0.745803
O179	O	0.936977	-0.381473	0.242038
O180	O	1.436977	0.118527	0.742038
H181	H	0.990211	-0.406810	0.245810
H182	H	1.490211	0.093190	0.745810
H183	H	0.817272	0.163582	-0.213795
H184	H	1.317272	0.663582	0.286205
O185	O	1.046294	0.032378	-0.798364
O186	O	1.546294	0.532378	-0.298364
H187	H	1.108143	0.040441	-0.780928
H188	H	1.608143	0.540441	-0.280928
H189	H	0.837813	0.151853	-0.786331
H190	H	1.337813	0.651853	-0.286331
H191	H	0.329109	0.036742	-0.000116
H192	H	0.829109	0.536742	0.499884
O193	O	0.921353	-0.138346	-0.163550
O194	O	1.421353	0.361654	0.336450
H195	H	0.866264	-0.125387	-0.201252
H196	H	1.366264	0.374613	0.298748
H197	H	0.705007	0.015986	-0.000087
H198	H	1.205007	0.515986	0.499913
O199	O	0.934453	-0.532828	0.242042
O200	O	1.434453	-0.032828	0.742042
H201	H	0.987682	-0.558170	0.245804
H202	H	1.487682	-0.058170	0.745804
H203	H	0.912306	-0.513491	-0.221365
H204	H	1.412306	-0.013491	0.278635
O205	O	0.926849	-0.762761	0.163426
O206	O	1.426849	-0.262761	0.663426
H207	H	0.925556	-0.801717	0.150208
H208	H	1.425556	-0.301717	0.650208
O209	O	1.017879	0.048651	-0.390567
O210	O	1.517879	0.548651	0.109433
H211	H	1.057473	0.025972	-0.343744
H212	H	1.557473	0.525972	0.156256
H213	H	0.936161	-0.140024	0.142589
H214	H	1.436161	0.359976	0.642589
O215	O	0.911150	-0.753824	-0.163495
O216	O	1.411150	-0.253824	0.336505
H217	H	0.908944	-0.726308	-0.218173
H218	H	1.408944	-0.226308	0.281827
O219	O	0.677307	0.186456	-0.000020
O220	O	1.177307	0.686456	0.499980
H221	H	0.711261	0.192003	-0.058811
H222	H	1.211261	0.692003	0.441189
O223	O	0.912948	-0.414740	-0.242154
O224	O	1.412948	0.085260	0.257846
H225	H	0.909900	-0.439267	-0.296826
H226	H	1.409900	0.060733	0.203174
O227	O	0.913682	-0.368235	-0.242177
O228	O	1.413682	0.131765	0.257823
H229	H	0.966557	-0.393362	-0.245965
H230	H	1.466557	0.106638	0.254035
O231	O	0.832082	0.155126	-0.609591
O232	O	1.332082	0.655126	-0.109591
H233	H	0.792508	0.177817	-0.656417
H234	H	1.292508	0.677817	-0.156417
O235	O	0.794627	0.176580	-0.390535
O236	O	1.294627	0.676580	0.109465
H237	H	0.759525	0.196690	-0.343702
H238	H	1.259525	0.696690	0.156298
H239	H	1.012142	0.051918	-0.213824
H240	H	1.512142	0.551918	0.286176
H241	H	0.293225	0.195140	-0.000038
H242	H	0.793225	0.695140	0.499962
H243	H	0.144938	0.187781	-0.000062
H244	H	0.644938	0.687781	0.499938
H245	H	0.180833	0.029384	-0.000118
H246	H	0.680833	0.529384	0.499882
O247	O	0.548540	-0.003447	-0.000108
O248	O	1.048540	0.496553	0.499892
H249	H	0.483178	0.000723	-0.000103
H250	H	0.983178	0.500723	0.499897
H251	H	0.916300	-0.270620	-0.221392
H252	H	1.416300	0.229380	0.278608
H253	H	0.937698	-0.048508	0.142573
H254	H	1.437698	0.451492	0.642573
O255	O	1.055321	0.027187	-0.609611
O256	O	1.555321	0.527187	-0.109611
H257	H	1.090416	0.007070	-0.656443
H258	H	1.590416	0.507070	-0.156443
H259	H	0.937616	-0.282729	0.221238
H260	H	1.437616	0.217271	0.721238
H261	H	0.913768	-0.656205	-0.142726
H262	H	1.413768	-0.156205	0.357274
H263	H	0.923979	-0.040705	-0.142775
H264	H	1.423979	0.459295	0.357225
