data_functionalizedCrystal
_audit_creation_method	'MofGen! by Chris Wilmer'
_symmetry_space_group_name_H-M	'P1'
_symmetry_Int_Tables_number	1
_symmetry_cell_setting	triclinic
loop_
_symmetry_equiv_pos_as_xyz
  x,y,z
_cell_length_a	12.759401
_cell_length_b	17.640280
_cell_length_c	12.759393
_cell_angle_alpha	78.768122
_cell_angle_beta	89.981504
_cell_angle_gamma	78.801088
loop_
_atom_site_label
_atom_site_type_symbol
_atom_site_fract_x
_atom_site_fract_y
_atom_site_fract_z
Zn1	Zn	1.690815	-0.314620	-0.509515
Zn2	Zn	1.726240	-0.446817	-0.298344
Zn3	Zn	1.515128	-0.314662	-0.333843
Zn4	Zn	1.550620	-0.446756	-0.474002
O5	O	1.620701	-0.380714	-0.403926
O6	O	1.842537	-0.332165	-0.481509
O7	O	1.698207	-0.429329	-0.156021
O8	O	1.508755	-0.204049	-0.386865
O9	O	1.868564	-0.429289	-0.326362
O10	O	1.637831	-0.204019	-0.515931
O11	O	1.543105	-0.332235	-0.182102
O12	O	1.372813	-0.332176	-0.352430
O13	O	1.569245	-0.429185	-0.625745
O14	O	1.398888	-0.429226	-0.455404
O15	O	1.672246	-0.332106	-0.651837
O16	O	1.732622	-0.557416	-0.291927
O17	O	1.603595	-0.557371	-0.420982
C18	C	1.347729	-0.380699	-0.403916
C19	C	1.230956	-0.380712	-0.403931
C20	C	1.675832	-0.586073	-0.348771
C21	C	1.699514	-0.673926	-0.325211
C22	C	1.189721	-0.431327	-0.457417
C23	C	1.079999	-0.431337	-0.457425
C24	C	1.052758	-0.330115	-0.350454
C25	C	1.162476	-0.330102	-0.350453
C26	C	1.258201	-0.481937	-0.510895
C27	C	1.216967	-0.532556	-0.564384
C28	C	1.107245	-0.532566	-0.564393
C29	C	1.038758	-0.481957	-0.510913
C30	C	1.441225	-0.962886	-0.583293
C31	C	1.463480	-1.045438	-0.561121
C32	C	1.597919	-1.045419	-0.426872
C33	C	1.575680	-0.962866	-0.449037
C34	C	1.497331	-0.921606	-0.527247
C35	C	1.631785	-0.921585	-0.392991
C36	C	1.609543	-0.839039	-0.415150
C37	C	1.531196	-0.797773	-0.493355
C38	C	1.475089	-0.839060	-0.549406
C39	C	1.710129	-0.962847	-0.314775
C40	C	1.766234	-0.921566	-0.258729
C41	C	1.743998	-0.839018	-0.280893
C42	C	1.665650	-0.797753	-0.359098
C43	C	1.800105	-0.797732	-0.224841
C44	C	1.777863	-0.715186	-0.247000
C45	C	1.643408	-0.715207	-0.381257
C46	C	1.894738	-0.380729	-0.403937
C47	C	2.011516	-0.380736	-0.403942
C48	C	1.620753	-0.380634	-0.677981
C49	C	1.620775	-0.380600	-0.794767
C50	C	1.565383	-0.174553	-0.459319
C51	C	1.541809	-0.086700	-0.482925
C52	C	1.674416	-0.330046	-0.863218
C53	C	1.674433	-0.330017	-0.972949
C54	C	1.567168	-0.431104	-0.945768
C55	C	1.567145	-0.431128	-0.836040
C56	C	1.728046	-0.279518	-0.821945
C57	C	1.781692	-0.228960	-0.890397
C58	C	1.781709	-0.228932	-1.000128
C59	C	1.728080	-0.279461	-1.041408
C60	C	1.620694	-0.380736	-0.130953
C61	C	1.620815	-0.380548	-0.014227
H62	H	1.272734	-0.573755	-0.607934
O63	O	1.202560	-0.280854	-0.298664
C64	C	1.252372	-0.229861	-0.372281
H65	H	1.218047	-0.225056	-0.456331
H66	H	1.342093	-0.254293	-0.369280
C67	C	1.274111	-0.153551	-0.239980
C68	C	1.231946	-0.147643	-0.343211
H69	H	1.261516	-0.102836	-0.222047
H70	H	1.240555	-0.187907	-0.190382
H71	H	1.348875	-0.173913	-0.237493
H72	H	1.157181	-0.127291	-0.345694
H73	H	1.265488	-0.113281	-0.392810
O74	O	1.514993	-0.480215	-0.985695
C75	C	1.467666	-0.524858	-0.901743
H76	H	1.455320	-0.492500	-0.832227
H77	H	1.522247	-0.584891	-0.873935
C78	C	1.374079	-0.575979	-1.026885
C79	C	1.358907	-0.536233	-0.941508
H80	H	1.306994	-0.583000	-1.051414
H81	H	1.405967	-0.545906	-1.083446
H82	H	1.419567	-0.626003	-1.003700
H83	H	1.313432	-0.486207	-0.964697
H84	H	1.327009	-0.566299	-0.884952
O85	O	1.409042	-1.085660	-0.615439
C86	C	1.445489	-1.167366	-0.579132
H87	H	1.482990	-1.178655	-0.495054
H88	H	1.507695	-1.190732	-0.635230
C89	C	1.304556	-1.195937	-0.680534
C90	C	1.350607	-1.209803	-0.577264
H91	H	1.246031	-1.222115	-0.679387
H92	H	1.280003	-1.140890	-0.704999
H93	H	1.356405	-1.215409	-0.727272
H94	H	1.298763	-1.190322	-0.530533
H95	H	1.375149	-1.264848	-0.552792
H96	H	1.825346	-0.187816	-0.856780
H97	H	1.579616	-0.681611	-0.444952
H98	H	1.523446	-0.472282	-0.780308
O99	O	1.833715	-0.179842	-1.066780
C100	C	1.822255	-0.190662	-1.172479
H101	H	1.748123	-0.216541	-1.180503
H102	H	1.895873	-0.232748	-1.192314
C103	C	1.901481	-0.078889	-1.240451
C104	C	1.810425	-0.110667	-1.250308
H105	H	1.894189	-0.029546	-1.288461
H106	H	1.909206	-0.071601	-1.169239
H107	H	1.962820	-0.113968	-1.256978
H108	H	1.749090	-0.075594	-1.233768
H109	H	1.802690	-0.117948	-1.321519
H110	H	1.347543	-0.481936	-0.510892
H111	H	1.728040	-0.279537	-0.732597
O112	O	1.509581	-0.717588	-0.514692
C113	C	1.475214	-0.690065	-0.421373
H114	H	1.506021	-0.737647	-0.348096
H115	H	1.384108	-0.675473	-0.422987
C116	C	1.481287	-0.556996	-0.506241
C117	C	1.519133	-0.615434	-0.416241
H118	H	1.508373	-0.510958	-0.503076
H119	H	1.504437	-0.575537	-0.569113
H120	H	1.405367	-0.544845	-0.507576
H121	H	1.595050	-0.627590	-0.414914
H122	H	1.495996	-0.596893	-0.353368
O123	O	1.067370	-0.581806	-0.616367
C124	C	1.151339	-0.626454	-0.663589
H125	H	1.230257	-0.629142	-0.619819
H126	H	1.155286	-0.597582	-0.751200
C127	C	1.034197	-0.707293	-0.709705
C128	C	1.131124	-0.710601	-0.655941
H129	H	1.021727	-0.759198	-0.704993
H130	H	0.977624	-0.677211	-0.677895
H131	H	1.037499	-0.683230	-0.782710
H132	H	1.127816	-0.734655	-0.582936
H133	H	1.187697	-0.740689	-0.687739
H134	H	1.661708	-1.079024	-0.363190
H135	H	1.411297	-0.805464	-0.613101
H136	H	0.949415	-0.481962	-0.510935
O137	O	1.365065	-0.922922	-0.659283
C138	C	1.320339	-0.977055	-0.704036
H139	H	1.332565	-1.035917	-0.645199
H140	H	1.361138	-0.985781	-0.781510
C141	C	1.184839	-0.872592	-0.800008
C142	C	1.199847	-0.944885	-0.727740
H143	H	1.110515	-0.852747	-0.814635
H144	H	1.214973	-0.836120	-0.769861
H145	H	1.218846	-0.879873	-0.864562
H146	H	1.165852	-0.937601	-0.663184
H147	H	1.169704	-0.981355	-0.757877
H148	H	1.830023	-0.955171	-0.195047
H149	H	1.728238	-1.030061	-0.296739
H150	H	1.728084	-0.279424	-1.130763
H151	H	0.996988	-0.288912	-0.306912
O152	O	1.876319	-0.837855	-0.149002
C153	C	1.956977	-0.885565	-0.196056
H154	H	1.956726	-0.860654	-0.285497
H155	H	1.941335	-0.948138	-0.182850
C156	C	2.066859	-0.917403	-0.034623
C157	C	2.066557	-0.886803	-0.144474
H158	H	2.134453	-0.918171	-0.002803
H159	H	2.012517	-0.885263	-0.002920
H160	H	2.053819	-0.969545	-0.023633
H161	H	2.079583	-0.834659	-0.155463
H162	H	2.120904	-0.918934	-0.176179
H163	H	1.823549	-0.681575	-0.201360
