data_functionalizedCrystal
_audit_creation_method	'MofGen! by Chris Wilmer'
_symmetry_space_group_name_H-M	'P1'
_symmetry_Int_Tables_number	1
_symmetry_cell_setting	triclinic
loop_
_symmetry_equiv_pos_as_xyz
  x,y,z
_cell_length_a	14.519709
_cell_length_b	12.837942
_cell_length_c	11.892095
_cell_angle_alpha	94.302569
_cell_angle_beta	86.099364
_cell_angle_gamma	89.254543
loop_
_atom_site_label
_atom_site_type_symbol
_atom_site_fract_x
_atom_site_fract_y
_atom_site_fract_z
O1	O	1.240918	0.129302	-0.093854
O2	O	1.740918	0.629302	0.406146
O3	O	0.973826	0.145304	-0.093888
O4	O	1.473826	0.645304	0.406112
O5	O	1.101449	-0.013610	-0.093865
O6	O	1.601449	0.486390	0.406135
O7	O	1.113295	0.288216	-0.093877
O8	O	1.613295	0.788216	0.406123
O9	O	1.090807	-0.000381	0.094141
O10	O	1.590807	0.499619	0.594141
O11	O	0.963184	0.158534	0.094118
O12	O	1.463184	0.658534	0.594118
O13	O	1.230275	0.142531	0.094152
O14	O	1.730275	0.642531	0.594152
Zn15	Zn	1.095040	0.152633	0.123985
Zn16	Zn	1.595040	0.652633	0.623985
Zn17	Zn	1.109062	0.135203	-0.123721
Zn18	Zn	1.609062	0.635203	0.376279
O19	O	1.102652	0.301446	0.094129
O20	O	1.602652	0.801446	0.594129
C21	C	0.934081	0.151173	0.000110
C22	C	1.434081	0.651173	0.500110
C23	C	0.831507	0.148937	0.000097
C24	C	1.331507	0.648937	0.500097
C25	C	1.092127	-0.045624	0.000137
C26	C	1.592127	0.454376	0.500137
C27	C	1.080193	-0.160723	0.000134
C28	C	1.580193	0.339277	0.500134
C29	C	1.223663	-0.401416	0.000129
C30	C	1.723663	0.098584	0.500129
C31	C	1.212455	-0.509563	0.000125
C32	C	1.712455	-0.009563	0.500125
C33	C	1.046568	-0.485166	0.000116
C34	C	1.546568	0.014834	0.500116
C35	C	1.057777	-0.377019	0.000119
C36	C	1.557777	0.122981	0.500119
C37	C	1.146327	-0.335148	0.000127
C38	C	1.646327	0.164852	0.500127
C39	C	1.157535	-0.226999	0.000139
C40	C	1.657535	0.273001	0.500139
C41	C	0.991649	-0.202605	0.000121
C42	C	1.491649	0.297395	0.500121
C43	C	0.980440	-0.310752	0.000118
C44	C	1.480440	0.189248	0.500118
C45	C	0.455897	0.140712	0.000149
C46	C	0.955897	0.640712	0.500149
C47	C	0.560404	0.142996	0.000134
C48	C	1.060404	0.642996	0.500134
C49	C	0.643699	0.144824	0.000122
C50	C	1.143699	0.644824	0.500122
C51	C	0.748212	0.147109	0.000110
C52	C	1.248212	0.647109	0.500110
C53	C	1.270021	0.136663	0.000151
C54	C	1.770021	0.636663	0.500151
C55	C	1.372595	0.138898	0.000157
C56	C	1.872595	0.638898	0.500157
C57	C	1.111975	0.333459	0.000124
C58	C	1.611975	0.833459	0.500124
C59	C	1.123910	0.448558	0.000120
C60	C	1.623910	0.948558	0.500120
N61	N	1.085477	0.164528	0.293037
N62	N	1.585477	0.664528	0.793037
N63	N	1.118632	0.123299	-0.292773
N64	N	1.618632	0.623299	0.207227
C65	C	1.185172	0.040467	0.529703
C66	C	1.685172	0.540467	1.029703
C67	C	1.178494	0.048789	0.648044
C68	C	1.678494	0.548789	1.148044
C69	C	1.065441	0.189489	0.648061
C70	C	1.565441	0.689489	1.148061
C71	C	1.072118	0.181167	0.529721
C72	C	1.572118	0.681167	1.029721
C73	C	1.131986	0.106655	0.470546
C74	C	1.631986	0.606655	0.970546
C75	C	1.138668	0.098338	0.352203
C76	C	1.638668	0.598338	0.852203
C77	C	1.025610	0.239032	0.352222
C78	C	1.525610	0.739032	0.852222
C79	C	1.018933	0.247355	0.470563
C80	C	1.518933	0.747355	0.970563
H81	H	1.229637	-0.192909	0.000149
H82	H	1.729637	0.307091	0.500149
Cl83	Cl	1.245357	-0.034424	0.722410
Cl84	Cl	1.745357	0.465576	1.222410
Cl85	Cl	0.869126	-0.363401	0.000098
Cl86	Cl	1.369126	0.136599	0.500098
Cl87	Cl	1.260443	-0.053193	0.455310
Cl88	Cl	1.760443	0.446807	0.955310
H89	H	1.187418	0.037669	0.304024
H90	H	1.687418	0.537669	0.804024
H91	H	0.928675	-0.148637	0.000129
H92	H	1.428675	0.351363	0.500129
H93	H	0.970186	0.308019	0.518757
H94	H	1.470186	0.808019	1.018757
Cl95	Cl	0.990172	0.283146	0.722464
Cl96	Cl	1.490172	0.783146	1.222464
H97	H	1.295764	-0.367323	0.000146
H98	H	1.795764	0.132677	0.500146
Cl99	Cl	1.309682	-0.592868	0.000124
Cl100	Cl	1.809682	-0.092868	0.500124
H101	H	0.982306	0.292930	0.304043
H102	H	1.482306	0.792930	0.804043
H103	H	0.974474	-0.519278	0.000097
H104	H	1.474474	-0.019278	0.500097
