data_functionalizedCrystal
_audit_creation_method	'MofGen! by Chris Wilmer'
_symmetry_space_group_name_H-M	'P1'
_symmetry_Int_Tables_number	1
_symmetry_cell_setting	triclinic
loop_
_symmetry_equiv_pos_as_xyz
  x,y,z
_cell_length_a	13.897449
_cell_length_b	12.759400
_cell_length_c	13.897441
_cell_angle_alpha	90.028817
_cell_angle_beta	89.979267
_cell_angle_gamma	89.984036
loop_
_atom_site_label
_atom_site_type_symbol
_atom_site_fract_x
_atom_site_fract_y
_atom_site_fract_z
Zn1	Zn	1.474723	0.418197	-0.545393
Zn2	Zn	1.974723	0.918197	-0.045393
Zn3	Zn	1.474625	0.593907	-0.384100
Zn4	Zn	1.974625	1.093907	0.115900
Zn5	Zn	1.313412	0.418247	-0.384111
Zn6	Zn	1.813412	0.918247	0.115889
Zn7	Zn	1.313402	0.593838	-0.545352
Zn8	Zn	1.813402	1.093838	-0.045352
O9	O	1.394040	0.506047	-0.464739
O10	O	1.894040	1.006047	0.035261
O11	O	1.609691	0.441513	-0.524009
O12	O	2.109691	0.941513	-0.024009
O13	O	1.453203	0.570655	-0.249119
O14	O	1.953203	1.070655	0.250881
O15	O	1.334855	0.271219	-0.405528
O16	O	1.834855	0.771219	0.094472
O17	O	1.609620	0.570607	-0.405508
O18	O	2.109620	1.070607	0.094492
O19	O	1.453369	0.271183	-0.524021
O20	O	1.953369	0.771183	-0.024021
O21	O	1.334760	0.441598	-0.249128
O22	O	1.834760	0.941598	0.250872
O23	O	1.178429	0.441532	-0.405488
O24	O	1.678429	0.941532	0.094512
O25	O	1.334838	0.570489	-0.680339
O26	O	1.834838	1.070489	-0.180339
O27	O	1.178422	0.570538	-0.523951
O28	O	1.678422	1.070538	-0.023951
O29	O	1.453360	0.441446	-0.680369
O30	O	1.953360	0.941446	-0.180369
O31	O	1.453194	0.740919	-0.405468
O32	O	1.953194	1.240919	0.094532
O33	O	1.334744	0.740869	-0.523939
O34	O	1.834744	1.240869	-0.023939
C35	C	1.143426	0.506033	-0.464717
C36	C	1.643426	1.006033	0.035283
C37	C	1.036212	0.506053	-0.464731
C38	C	1.536212	1.006053	0.035269
C39	C	1.393983	0.779015	-0.464719
C40	C	1.893983	1.279015	0.035281
C41	C	1.394047	0.895791	-0.464743
C42	C	1.894047	1.395791	0.035257
C43	C	1.394109	0.505955	-0.716332
C44	C	1.894109	1.005955	-0.216332
C45	C	1.394138	0.505915	-0.823546
C46	C	1.894138	1.005915	-0.323546
C47	C	0.839917	0.506056	-0.464756
C48	C	1.339917	1.006056	0.035244
C49	C	0.949150	0.506051	-0.464739
C50	C	1.449150	1.006051	0.035261
C51	C	1.645633	0.506062	-0.464762
C52	C	2.145633	1.006062	0.035238
C53	C	1.752847	0.506069	-0.464771
C54	C	2.252847	1.006069	0.035229
C55	C	1.394124	0.232014	-0.464780
C56	C	1.894124	0.732014	0.035220
C57	C	1.394160	0.115237	-0.464798
C58	C	1.894160	0.615237	0.035202
C59	C	1.455792	0.950645	-0.403123
C60	C	1.955792	1.450645	0.096877
C61	C	1.455852	1.060369	-0.403152
C62	C	1.955852	1.560369	0.096848
C63	C	1.332412	1.060376	-0.526425
C64	C	1.832412	1.560376	-0.026425
C65	C	1.332358	0.950654	-0.526399
C66	C	1.832358	1.450654	-0.026399
C67	C	1.517481	0.895782	-0.341466
C68	C	2.017481	1.395782	0.158534
C69	C	1.579231	0.950636	-0.279840
C70	C	2.079231	1.450636	0.220160
C71	C	1.579290	1.060360	-0.279870
C72	C	2.079290	1.560360	0.220130
C73	C	1.517600	1.115230	-0.341526
C74	C	2.017600	1.615230	0.158474
C75	C	1.394164	0.505844	-1.019841
C76	C	1.894164	1.005844	-0.519841
C77	C	1.394147	0.505886	-0.910609
C78	C	1.894147	1.005886	-0.410609
C79	C	1.394028	0.506064	-0.214125
C80	C	1.894028	1.006064	0.285875
C81	C	1.394186	0.505808	-0.106911
C82	C	1.894186	1.005808	0.393089
H83	H	1.629463	0.905955	-0.229648
H84	H	2.129463	1.405955	0.270352
H85	H	1.517437	0.806439	-0.341432
H86	H	2.017437	1.306439	0.158568
N87	N	1.642378	1.116377	-0.216930
N88	N	2.142378	1.616377	0.283070
N89	N	1.697453	1.067375	-0.161892
N90	N	2.197453	1.567375	0.338108
H91	H	1.742010	1.106934	-0.117435
H92	H	2.242010	1.606934	0.382565
H93	H	1.517660	1.204575	-0.341552
H94	H	2.017660	1.704575	0.158448
H95	H	1.282186	1.105060	-0.576621
H96	H	1.782186	1.605060	-0.076621
H97	H	1.282080	0.905992	-0.576577
H98	H	1.782080	1.405992	-0.076577
