data_functionalizedCrystal
_audit_creation_method	'MofGen! by Chris Wilmer'
_symmetry_space_group_name_H-M	'P1'
_symmetry_Int_Tables_number	1
_symmetry_cell_setting	triclinic
loop_
_symmetry_equiv_pos_as_xyz
  x,y,z
_cell_length_a	11.026607
_cell_length_b	9.616153
_cell_length_c	10.967829
_cell_angle_alpha	102.130112
_cell_angle_beta	96.380563
_cell_angle_gamma	90.006666
loop_
_atom_site_label
_atom_site_type_symbol
_atom_site_fract_x
_atom_site_fract_y
_atom_site_fract_z
O1	O	1.614539	0.241101	0.523507
O2	O	1.260735	0.226817	0.463895
O3	O	1.445793	0.190861	0.313884
O4	O	1.429480	0.277057	0.673517
O5	O	1.445768	-0.040431	0.313883
O6	O	1.260709	-0.004475	0.463893
O7	O	1.614513	0.009809	0.523505
Zn8	Zn	1.437607	-0.034055	0.493699
Zn9	Zn	1.437641	0.270681	0.493701
O10	O	1.429454	0.045765	0.673516
C11	C	1.215419	0.108536	0.452897
C12	C	1.080432	0.100680	0.420113
N13	N	1.437593	-0.242030	0.493699
C14	C	1.007382	0.122377	0.510634
C15	C	0.867865	0.114258	0.476753
C16	C	1.338297	-0.443263	0.573539
C17	C	1.338515	-0.281993	0.573965
C18	C	1.564692	-0.286822	0.550688
C19	C	1.564151	-0.447896	0.551289
C20	C	1.411056	-0.494750	0.356810
C21	C	1.408138	-0.333470	0.357032
C22	C	1.659828	0.128093	0.534504
C23	C	1.794816	0.135958	0.567287
C24	C	1.444592	0.064012	0.267127
C25	C	1.441035	0.030628	0.127805
N26	N	1.437664	0.478654	0.493694
C27	C	1.439462	0.135562	0.065697
C28	C	1.435786	0.101061	-0.078300
C29	C	1.430656	0.172618	0.720273
C30	C	1.434213	0.206010	0.859596
H31	H	1.048130	0.146955	0.613215
Br32	Br	1.436449	0.398333	-0.051373
H33	H	1.640459	-0.499908	0.496951
Br34	Br	1.438728	-0.161687	0.038758
Br35	Br	1.433479	-0.091262	-0.167342
H36	H	1.355172	-0.459701	0.673926
Br37	Br	1.441782	0.327878	0.154744
H38	H	1.039684	0.076129	0.317532
H39	H	1.314638	-0.305476	0.314446
Br40	Br	0.799968	0.073260	0.305764
H41	H	0.835557	0.160537	0.669876
Br42	Br	1.181087	-0.231347	0.510447
H43	H	1.355612	-0.219210	0.674951
Br44	Br	1.180386	-0.523072	0.510267
H45	H	1.587431	-0.461349	0.651987
Br46	Br	1.690947	-0.245052	0.458326
H47	H	1.475720	-0.308613	0.292626
H48	H	1.588492	-0.222529	0.650418
Br49	Br	1.259827	-0.581657	0.277280
H50	H	1.483507	-0.547189	0.297056
