data_functionalizedCrystal
_audit_creation_method	'MofGen! by Chris Wilmer'
_symmetry_space_group_name_H-M	'P1'
_symmetry_Int_Tables_number	1
_symmetry_cell_setting	triclinic
loop_
_symmetry_equiv_pos_as_xyz
  x,y,z
_cell_length_a	9.065218
_cell_length_b	10.654550
_cell_length_c	7.540329
_cell_angle_alpha	89.996554
_cell_angle_beta	89.996962
_cell_angle_gamma	84.750408
loop_
_atom_site_label
_atom_site_type_symbol
_atom_site_fract_x
_atom_site_fract_y
_atom_site_fract_z
O1	O	1.959392	0.184158	-0.147487
O2	O	1.530024	0.199263	-0.147489
O3	O	1.754580	0.009010	-0.147477
O4	O	1.734836	0.374410	-0.147499
O5	O	1.754567	0.009008	0.147488
O6	O	1.530011	0.199261	0.147476
O7	O	1.959378	0.184155	0.147478
Cu8	Cu	1.744693	0.191708	0.174410
Cu9	Cu	1.744709	0.191711	-0.174421
O10	O	1.734823	0.374408	0.147466
C11	C	1.475039	0.197810	-0.000007
C12	C	1.311220	0.193469	-0.000008
C13	C	1.753124	-0.037795	0.000005
C14	C	1.748786	-0.177255	0.000002
C15	C	1.881001	-0.256217	0.000002
C16	C	1.876917	-0.387254	-0.000019
C17	C	1.608391	-0.360354	-0.000034
C18	C	1.612477	-0.229320	-0.000025
C19	C	2.032639	-0.582481	-0.103368
C20	C	2.164861	-0.661449	-0.103337
C21	C	2.284719	-0.630803	0.000031
C22	C	2.272361	-0.521192	0.103411
C23	C	2.140137	-0.442232	0.103397
C24	C	2.020284	-0.472876	-0.000013
C25	C	1.456764	-0.034091	0.103338
C26	C	1.324539	0.044872	0.103336
C27	C	1.204668	0.014230	-0.000021
C28	C	1.217012	-0.095383	-0.103375
C29	C	1.349237	-0.174347	-0.103373
C30	C	1.469109	-0.143695	-0.000019
C31	C	2.014364	0.185608	-0.000008
C32	C	2.178183	0.189949	-0.000019
C33	C	1.736279	0.421213	-0.000020
C34	C	1.740616	0.560673	-0.000028
N35	N	1.744693	0.191705	0.419758
N36	N	1.744721	0.191703	-0.419769
H37	H	1.991993	-0.213831	0.000020
C38	C	1.546628	0.005610	0.395681
C39	C	1.588554	-0.000422	0.216935
H40	H	1.627996	0.026385	0.465805
H41	H	1.466139	0.068328	0.410487
H42	H	1.517338	-0.073803	0.431981
H43	H	1.617834	0.078995	0.180631
H44	H	1.669068	-0.063143	0.202119
C45	C	2.259669	-0.311523	0.307758
C46	C	2.126543	-0.321749	0.217009
H47	H	2.251281	-0.237134	0.377884
H48	H	2.280120	-0.382883	0.382257
H49	H	2.337886	-0.307597	0.224671
H50	H	2.048328	-0.325685	0.300097
H51	H	2.106074	-0.250371	0.142504
H52	H	2.369960	-0.496258	0.187596
C53	C	2.156541	-0.749784	-0.395722
C54	C	2.178456	-0.781923	-0.216984
H55	H	2.164947	-0.824162	-0.465872
H56	H	2.060650	-0.707153	-0.410527
H57	H	2.229184	-0.696256	-0.431992
H58	H	2.105806	-0.835444	-0.180711
H59	H	2.274360	-0.824573	-0.202170
C60	C	1.127219	-0.135134	-0.395734
C61	C	1.085255	-0.129079	-0.217000
H62	H	1.045875	-0.155944	-0.465872
H63	H	1.156494	-0.055733	-0.432049
H64	H	1.207734	-0.197851	-0.410496
H65	H	1.004746	-0.066356	-0.202235
H66	H	1.055959	-0.208492	-0.180673
H67	H	2.392377	-0.695107	0.000053
C68	C	1.482896	-0.549278	-0.000031
C69	C	1.458565	-0.417589	-0.000037
H70	H	1.390396	-0.584607	-0.000018
H71	H	1.537384	-0.576266	-0.102887
H72	H	1.537391	-0.576270	0.102836
H73	H	1.404080	-0.390597	-0.102912
H74	H	1.404055	-0.390590	0.102829
C75	C	1.195670	0.159545	0.339414
C76	C	1.310960	0.165363	0.216944
H77	H	1.187295	0.233929	0.409550
H78	H	1.105371	0.152591	0.277858
H79	H	1.216174	0.088176	0.413912
H80	H	1.290452	0.236727	0.142438
H81	H	1.401280	0.172331	0.278505
H82	H	1.359288	-0.263590	-0.187556
H83	H	1.935056	-0.607436	-0.187564
H84	H	1.096996	0.078524	0.000009
