data_functionalizedCrystal
_audit_creation_method	'MofGen! by Chris Wilmer'
_symmetry_space_group_name_H-M	'P1'
_symmetry_Int_Tables_number	1
_symmetry_cell_setting	triclinic
loop_
_symmetry_equiv_pos_as_xyz
  x,y,z
_cell_length_a	16.992694
_cell_length_b	12.996460
_cell_length_c	16.992695
_cell_angle_alpha	89.999594
_cell_angle_beta	89.331777
_cell_angle_gamma	90.000812
loop_
_atom_site_label
_atom_site_type_symbol
_atom_site_fract_x
_atom_site_fract_y
_atom_site_fract_z
O1	O	1.050853	0.085439	-0.166911
O2	O	0.822453	0.085469	-0.165080
O3	O	0.935737	0.085446	-0.051796
O4	O	0.937568	0.085462	-0.280196
O5	O	0.935722	-0.085688	-0.051802
O6	O	0.822438	-0.085665	-0.165086
O7	O	1.050838	-0.085695	-0.166917
Cu8	Cu	0.936636	-0.101306	-0.166002
Cu9	Cu	0.936654	0.101080	-0.165995
O10	O	0.937553	-0.085672	-0.280202
C11	C	0.793085	-0.000094	-0.162727
C12	C	0.705600	-0.000083	-0.155699
N13	N	0.936629	-0.243653	-0.166007
C14	C	0.659610	-0.000079	-0.223517
C15	C	0.577409	-0.000093	-0.216908
C16	C	0.541201	-0.000105	-0.142480
C17	C	0.587198	-0.000112	-0.074657
C18	C	0.669397	-0.000104	-0.081267
C19	C	0.295886	-0.000134	-0.115086
C20	C	0.213681	-0.000138	-0.108481
C21	C	0.203898	-0.000122	-0.250732
C22	C	0.286099	-0.000108	-0.257336
C23	C	0.332089	-0.000121	-0.189512
N24	N	0.457178	-0.000116	-0.135723
N25	N	0.416110	-0.000116	-0.196270
C26	C	0.936633	-0.336759	-0.166009
C27	C	0.936640	-0.453564	-0.166005
C28	C	0.936649	-0.546662	-0.165997
C29	C	0.936658	-0.663475	-0.165993
C30	C	1.080205	-0.000130	-0.169270
C31	C	1.167690	-0.000134	-0.176299
C32	C	0.933374	-0.000121	-0.022439
C33	C	0.926345	-0.000119	0.065046
N34	N	0.936667	0.243427	-0.165984
C35	C	0.939917	-0.000103	-0.309559
C36	C	0.946945	-0.000097	-0.397044
C37	C	0.994163	-0.000129	0.111037
C38	C	0.987554	-0.000119	0.193238
C39	C	0.913127	-0.000105	0.229446
C40	C	0.845303	-0.000092	0.183449
C41	C	0.851913	-0.000096	0.101250
C42	C	0.885732	-0.000088	0.474760
C43	C	0.879127	-0.000087	0.556966
C44	C	1.021379	-0.000112	0.566749
C45	C	1.027982	-0.000121	0.484547
C46	C	0.960159	-0.000103	0.438558
N47	N	0.906369	-0.000098	0.313468
N48	N	0.966917	-0.000103	0.354537
H49	H	0.689084	-0.000069	-0.284124
H50	H	1.088589	-0.000132	0.455073
H51	H	0.315574	-0.000087	-0.317942
H52	H	1.076596	-0.000125	0.604202
H53	H	0.166444	-0.000114	-0.305950
H54	H	1.042779	-0.000129	0.230680
H55	H	0.184203	-0.000146	-0.047870
H56	H	0.333322	-0.000145	-0.059859
H57	H	0.784703	-0.000075	0.212936
H58	H	0.706842	-0.000107	-0.026042
H59	H	1.054770	-0.000147	0.081563
H60	H	0.796688	-0.000087	0.063804
H61	H	0.818516	-0.000093	0.586443
H62	H	0.557710	-0.000135	-0.014056
H63	H	0.830505	-0.000073	0.437325
H64	H	0.539966	-0.000089	-0.272133
