data_functionalizedCrystal
_audit_creation_method	'MofGen! by Chris Wilmer'
_symmetry_space_group_name_H-M	'P1'
_symmetry_Int_Tables_number	1
_symmetry_cell_setting	triclinic
loop_
_symmetry_equiv_pos_as_xyz
  x,y,z
_cell_length_a	21.395362
_cell_length_b	18.215405
_cell_length_c	21.395355
_cell_angle_alpha	89.980149
_cell_angle_beta	89.956060
_cell_angle_gamma	90.040762
loop_
_atom_site_label
_atom_site_type_symbol
_atom_site_fract_x
_atom_site_fract_y
_atom_site_fract_z
Zn1	Zn	0.957885	-0.292758	-0.354580
Zn2	Zn	1.291218	0.040576	-0.021246
Zn3	Zn	1.624551	0.373909	0.312087
Zn4	Zn	0.957798	-0.415806	-0.249800
Zn5	Zn	1.291131	-0.082473	0.083533
Zn6	Zn	1.624465	0.250861	0.416867
Zn7	Zn	0.853100	-0.292792	-0.249781
Zn8	Zn	1.186433	0.040541	0.083552
Zn9	Zn	1.519766	0.373875	0.416886
Zn10	Zn	0.853080	-0.415821	-0.354505
Zn11	Zn	1.186413	-0.082488	-0.021171
Zn12	Zn	1.519746	0.250846	0.312162
O13	O	0.905466	-0.354294	-0.302166
O14	O	1.238799	-0.020961	0.031167
O15	O	1.572132	0.312373	0.364500
O16	O	1.045551	-0.309060	-0.340720
O17	O	1.378885	0.024274	-0.007387
O18	O	1.712218	0.357607	0.325947
O19	O	0.943882	-0.399496	-0.162119
O20	O	1.277215	-0.066163	0.171214
O21	O	1.610548	0.267171	0.504547
O22	O	0.867045	-0.189803	-0.263706
O23	O	1.200378	0.143530	0.069627
O24	O	1.533711	0.476864	0.402960
O25	O	1.045487	-0.399463	-0.263739
O26	O	1.378821	-0.066129	0.069595
O27	O	1.712154	0.267204	0.402928
O28	O	0.944030	-0.189778	-0.340702
O29	O	1.277363	0.143555	-0.007368
O30	O	1.610696	0.476889	0.325965
O31	O	0.866960	-0.309118	-0.162106
O32	O	1.200294	0.024215	0.171228
O33	O	1.533627	0.357549	0.504561
O34	O	0.765419	-0.309133	-0.263634
O35	O	1.098753	0.024201	0.069700
O36	O	1.432086	0.357534	0.403033
O37	O	0.867010	-0.399488	-0.442193
O38	O	1.200343	-0.066155	-0.108859
O39	O	1.533677	0.267178	0.224474
O40	O	0.765404	-0.399522	-0.340573
O41	O	1.098738	-0.066188	-0.007240
O42	O	1.432071	0.267145	0.326093
O43	O	0.944010	-0.309074	-0.442248
O44	O	1.277343	0.024259	-0.108914
O45	O	1.610677	0.357592	0.224419
O46	O	0.943862	-0.518792	-0.263666
O47	O	1.277195	-0.185459	0.069668
O48	O	1.610529	0.147874	0.403001
O49	O	0.866926	-0.518803	-0.340592
O50	O	1.200259	-0.185470	-0.007258
O51	O	1.533593	0.147863	0.326075
C52	C	0.742678	-0.354333	-0.302094
C53	C	1.076011	-0.021000	0.031240
C54	C	1.409345	0.312334	0.364573
C55	C	0.673037	-0.354367	-0.302077
C56	C	1.006370	-0.021034	0.031256
C57	C	1.339703	0.312299	0.364589
C58	C	0.640332	-0.401495	-0.342080
C59	C	0.973665	-0.068162	-0.008747
C60	C	1.306999	0.265171	0.324587
C61	C	0.574897	-0.401477	-0.342108
C62	C	0.908230	-0.068144	-0.008775
C63	C	1.241563	0.265189	0.324559
C64	C	0.542168	-0.354339	-0.302122
C65	C	0.875502	-0.021006	0.031211
C66	C	1.208835	0.312328	0.364545
C67	C	0.574881	-0.307202	-0.262117
C68	C	0.908214	0.026131	0.071217
C69	C	1.241547	0.359465	0.404550
C70	C	0.640315	-0.307216	-0.262094
C71	C	0.973648	0.026117	0.071239
C72	C	1.306981	0.359450	0.404572
C73	C	0.438443	-0.348410	-0.245717
C74	C	0.771776	-0.015077	0.087616
C75	C	1.105110	0.318256	0.420950
C76	C	0.373010	-0.348401	-0.245738
C77	C	0.706343	-0.015068	0.087595
C78	C	1.039677	0.318265	0.420928
C79	C	0.340348	-0.354291	-0.302191
C80	C	0.673681	-0.020958	0.031142
C81	C	1.007014	0.312376	0.364475
C82	C	0.373126	-0.360205	-0.358625
C83	C	0.706459	-0.026872	-0.025291
C84	C	1.039793	0.306462	0.308042
C85	C	0.438560	-0.360219	-0.358602
C86	C	0.771894	-0.026886	-0.025269
C87	C	1.105227	0.306447	0.308064
C88	C	0.471216	-0.354318	-0.302142
C89	C	0.804549	-0.020985	0.031191
C90	C	1.137883	0.312349	0.364525
C91	C	0.236691	-0.401402	-0.342228
C92	C	0.570024	-0.068069	-0.008894
C93	C	0.903357	0.265265	0.324439
C94	C	0.171254	-0.401379	-0.342256
C95	C	0.504587	-0.068045	-0.008923
C96	C	0.837921	0.265288	0.324410
C97	C	0.171239	-0.307107	-0.262260
C98	C	0.504573	0.026226	0.071074
C99	C	0.837906	0.359559	0.404407
C100	C	0.236675	-0.307127	-0.262236
C101	C	0.570008	0.026207	0.071097
C102	C	0.903341	0.359540	0.404430
C103	C	0.269396	-0.354278	-0.302219
C104	C	0.602730	-0.020945	0.031114
C105	C	0.936063	0.312389	0.364447
C106	C	0.905399	-0.545500	-0.302136
C107	C	1.238733	-0.212167	0.031197
C108	C	1.572066	0.121166	0.364530
C109	C	0.905428	-0.627299	-0.302144
C110	C	1.238762	-0.293966	0.031189
C111	C	1.572095	0.039367	0.364522
C112	C	0.945583	-0.815463	-0.262163
C113	C	1.278916	-0.482130	0.071171
C114	C	1.612250	-0.148796	0.404504
C115	C	0.945611	-0.892322	-0.262178
C116	C	1.278944	-0.558988	0.071156
C117	C	1.612278	-0.225655	0.404489
C118	C	0.865428	-0.892373	-0.342215
C119	C	1.198761	-0.559040	-0.008882
C120	C	1.532095	-0.225707	0.324452
C121	C	0.865404	-0.815516	-0.342203
C122	C	1.198737	-0.482183	-0.008869
C123	C	1.532070	-0.148849	0.324464
C124	C	0.905480	-0.777063	-0.302173
C125	C	1.238814	-0.443729	0.031160
C126	C	1.572147	-0.110396	0.364494
C127	C	0.905533	-0.930779	-0.302200
C128	C	1.238866	-0.597445	0.031133
C129	C	1.572199	-0.264112	0.364466
C130	C	0.905563	-1.014112	-0.302217
C131	C	1.238896	-0.680779	0.031116
C132	C	1.572229	-0.347446	0.364449
C133	C	0.905451	-0.693724	-0.302157
C134	C	1.238785	-0.360390	0.031177
C135	C	1.572118	-0.027057	0.364510
C136	C	1.068889	-0.354256	-0.302240
C137	C	1.402222	-0.020922	0.031094
C138	C	1.735556	0.312411	0.364427
C139	C	1.138530	-0.354239	-0.302271
C140	C	1.471863	-0.020906	0.031062
C141	C	1.805197	0.312428	0.364396
C142	C	0.905518	-0.354279	-0.465590
C143	C	1.238851	-0.020946	-0.132256
C144	C	1.572184	0.312387	0.201077
C145	C	0.905540	-0.354273	-0.535231
C146	C	1.238873	-0.020940	-0.201898
C147	C	1.572206	0.312394	0.131436
C148	C	0.905549	-0.162341	-0.302210
C149	C	1.238882	0.170992	0.031123
C150	C	1.572216	0.504326	0.364456
C151	C	0.905585	-0.080542	-0.302229
C152	C	1.238918	0.252791	0.031104
C153	C	1.572251	0.586124	0.364438
C154	C	0.945632	-0.307192	-0.567974
C155	C	1.278965	0.026141	-0.234641
C156	C	1.612299	0.359474	0.098693
C157	C	0.945631	-0.307161	-0.633409
C158	C	1.278964	0.026173	-0.300076
C159	C	1.612298	0.359506	0.033257
C160	C	0.905545	-0.354223	-0.666099
C161	C	1.238878	-0.020889	-0.332766
C162	C	1.572211	0.312444	0.000567
C163	C	0.865445	-0.401307	-0.633349
C164	C	1.198778	-0.067973	-0.300015
C165	C	1.532111	0.265360	0.033318
C166	C	0.865442	-0.401332	-0.567914
C167	C	1.198776	-0.067998	-0.234581
C168	C	1.532109	0.265335	0.098752
C169	C	0.900574	-0.420488	-0.769762
C170	C	1.233908	-0.087155	-0.436429
C171	C	1.567241	0.246178	-0.103095
C172	C	0.900581	-0.420465	-0.835195
C173	C	1.233915	-0.087131	-0.501862
C174	C	1.567248	0.246202	-0.168528
C175	C	0.905548	-0.354145	-0.867920
C176	C	1.238882	-0.020812	-0.534587
C177	C	1.572215	0.312522	-0.201254
C178	C	0.910522	-0.287847	-0.835205
C179	C	1.243855	0.045486	-0.501871
C180	C	1.577189	0.378820	-0.168538
C181	C	0.910520	-0.287872	-0.769770
C182	C	1.243853	0.045461	-0.436437
C183	C	1.577186	0.378794	-0.103104
C184	C	0.905542	-0.354200	-0.737052
C185	C	1.238876	-0.020867	-0.403718
C186	C	1.572209	0.312466	-0.070385
C187	C	0.945642	-0.307026	-0.971616
C188	C	1.278975	0.026307	-0.638282
C189	C	1.612309	0.359641	-0.304949
C190	C	0.945637	-0.306993	-1.037052
C191	C	1.278970	0.026340	-0.703719
C192	C	1.612303	0.359674	-0.370386
C193	C	0.865454	-0.401146	-1.036990
C194	C	1.198787	-0.067812	-0.703657
C195	C	1.532120	0.265521	-0.370324
C196	C	0.865455	-0.401172	-0.971555
C197	C	1.198789	-0.067839	-0.638222
C198	C	1.532122	0.265495	-0.304888
C199	C	0.905553	-0.354113	-0.938872
C200	C	1.238886	-0.020780	-0.605538
C201	C	1.572220	0.312553	-0.272205
C202	C	0.905450	-0.354256	-0.139379
C203	C	1.238783	-0.020923	0.193955
C204	C	1.572116	0.312411	0.527288
C205	C	0.905549	-0.354055	-0.069738
C206	C	1.238882	-0.020722	0.263595
C207	C	1.572216	0.312612	0.596929
H208	H	0.263334	-0.439792	-0.374787
H209	H	0.596668	-0.106458	-0.041454
H210	H	0.930001	0.226875	0.291879
H211	H	0.832747	-0.784248	-0.374787
H212	H	1.166080	-0.450915	-0.041453
H213	H	1.499414	-0.117582	0.291880
C214	C	0.676326	-0.453372	-0.386046
C215	C	1.009659	-0.120039	-0.052713
C216	C	1.342992	0.213294	0.280621
H217	H	0.719981	-0.446642	-0.380297
H218	H	1.053314	-0.113309	-0.046963
H219	H	1.386647	0.220024	0.286370
H220	H	0.665664	-0.442694	-0.428169
H221	H	0.998997	-0.109361	-0.094836
H222	H	1.332331	0.223972	0.238497
H223	H	0.665545	-0.502796	-0.376781
H224	H	0.998878	-0.169463	-0.043448
H225	H	1.332212	0.163870	0.289885
C226	C	0.989716	-0.934562	-0.218161
C227	C	1.323049	-0.601229	0.115173
C228	C	1.656383	-0.267896	0.448506
H229	H	0.983995	-0.985843	-0.223902
H230	H	1.317329	-0.652510	0.109431
H231	H	1.650662	-0.319177	0.442764
H232	H	0.980559	-0.922003	-0.176051
H233	H	1.313892	-0.588669	0.157282
H234	H	1.647225	-0.255336	0.490616
H235	H	1.031809	-0.921908	-0.227381
H236	H	1.365142	-0.588574	0.105953
H237	H	1.698475	-0.255241	0.439286
C238	C	0.821350	-0.453076	-0.669302
C239	C	1.154684	-0.119742	-0.335968
C240	C	1.488017	0.213591	-0.002635
H241	H	0.797468	-0.481116	-0.640427
H242	H	1.130801	-0.147783	-0.307094
H243	H	1.464135	0.185550	0.026240
H244	H	0.845304	-0.485127	-0.694844
H245	H	1.178637	-0.151793	-0.361511
H246	H	1.511970	0.181540	-0.028178
H247	H	0.794063	-0.424915	-0.694808
H248	H	1.127396	-0.091582	-0.361475
H249	H	1.460729	0.241751	-0.028141
H250	H	0.548264	-0.439854	-0.374685
H251	H	0.881597	-0.106521	-0.041352
H252	H	1.214930	0.226813	0.291981
C253	C	0.135279	-0.453233	-0.386253
C254	C	0.468612	-0.119899	-0.052920
C255	C	0.801946	0.213434	0.280414
H256	H	0.164141	-0.481322	-0.410053
H257	H	0.497474	-0.147988	-0.076720
H258	H	0.830808	0.185345	0.256613
H259	H	0.109801	-0.425136	-0.413611
H260	H	0.443135	-0.091803	-0.080278
H261	H	0.776468	0.241531	0.253056
H262	H	0.109706	-0.485246	-0.362230
H263	H	0.443039	-0.151913	-0.028896
H264	H	0.776373	0.181421	0.304437
H265	H	0.144592	-0.268723	-0.229705
H266	H	0.477926	0.064610	0.103628
H267	H	0.811259	0.397944	0.436961
C268	C	0.272651	-0.255295	-0.218225
C269	C	0.605985	0.078039	0.115108
C270	C	0.939318	0.411372	0.448442
H271	H	0.243789	-0.227222	-0.194410
H272	H	0.577123	0.106111	0.138923
H273	H	0.910456	0.439445	0.472257
H274	H	0.298230	-0.223276	-0.242230
H275	H	0.631564	0.110057	0.091103
H276	H	0.964897	0.443391	0.424437
H277	H	0.298123	-0.283413	-0.190871
H278	H	0.631456	0.049921	0.142462
H279	H	0.964789	0.383254	0.475795
C280	C	0.821344	-0.934671	-0.386243
C281	C	1.154677	-0.601337	-0.052909
C282	C	1.488010	-0.268004	0.280424
H283	H	0.797461	-0.900791	-0.410074
H284	H	1.130794	-0.567457	-0.076741
H285	H	1.464127	-0.234124	0.256593
H286	H	0.794066	-0.964703	-0.362246
H287	H	1.127399	-0.631370	-0.028913
H288	H	1.460733	-0.298037	0.304421
H289	H	0.845311	-0.964603	-0.413580
H290	H	1.178644	-0.631270	-0.080247
H291	H	1.511978	-0.297937	0.253086
H292	H	0.978282	-0.268872	-0.541367
H293	H	1.311615	0.064461	-0.208034
H294	H	1.644948	0.397794	0.125300
H295	H	0.465246	-0.365033	-0.404553
H296	H	0.798579	-0.031699	-0.071219
H297	H	1.131912	0.301634	0.262114
C298	C	0.336957	-0.341948	-0.183663
C299	C	0.670290	-0.008615	0.149670
C300	C	1.003623	0.324718	0.483004
H301	H	0.293309	-0.342808	-0.191759
H302	H	0.626642	-0.009475	0.141575
H303	H	0.959976	0.323859	0.474908
H304	H	0.347675	-0.297124	-0.163668
H305	H	0.681008	0.036209	0.169665
H306	H	1.014342	0.369542	0.502998
H307	H	0.347638	-0.381959	-0.157266
H308	H	0.680972	-0.048626	0.176067
H309	H	1.014305	0.284708	0.509400
C310	C	0.989739	-0.255376	-0.669434
C311	C	1.323072	0.077958	-0.336101
C312	C	1.656406	0.411291	-0.002768
H313	H	1.013622	-0.227357	-0.640597
H314	H	1.346955	0.105976	-0.307264
H315	H	1.680288	0.439309	0.026069
H316	H	0.965792	-0.223304	-0.694947
H317	H	1.299125	0.110029	-0.361613
H318	H	1.632459	0.443362	-0.028280
H319	H	1.017025	-0.283525	-0.694976
H320	H	1.350359	0.049808	-0.361642
H321	H	1.683692	0.383142	-0.028309
H322	H	0.914568	-0.233890	-0.743136
H323	H	1.247901	0.099443	-0.409803
H324	H	1.581234	0.432776	-0.076469
H325	H	0.978217	-0.784156	-0.229569
H326	H	1.311550	-0.450823	0.103765
H327	H	1.644883	-0.117490	0.437098
H328	H	0.914568	-0.233843	-0.861848
H329	H	1.247901	0.099490	-0.528515
H330	H	1.581235	0.432823	-0.195181
C331	C	0.895110	-0.493443	-0.733767
C332	C	1.228444	-0.160109	-0.400434
C333	C	1.561777	0.173224	-0.067101
H334	H	0.895815	-0.483963	-0.690112
H335	H	1.229148	-0.150630	-0.356779
H336	H	1.562482	0.182704	-0.023445
H337	H	0.929180	-0.524387	-0.744515
H338	H	1.262514	-0.191053	-0.411182
H339	H	1.595847	0.142280	-0.077848
H340	H	0.856953	-0.516979	-0.744463
H341	H	1.190286	-0.183645	-0.411129
H342	H	1.523620	0.149688	-0.077796
C343	C	0.474366	-0.341891	-0.183618
C344	C	0.807699	-0.008558	0.149716
C345	C	1.141032	0.324776	0.483049
H346	H	0.445474	-0.338365	-0.150013
H347	H	0.778807	-0.005032	0.183320
H348	H	1.112141	0.328301	0.516654
H349	H	0.499913	-0.299230	-0.184510
H350	H	0.833246	0.034104	0.148823
H351	H	1.166580	0.367437	0.482156
H352	H	0.499865	-0.384055	-0.178017
H353	H	0.833198	-0.050721	0.155317
H354	H	1.166531	0.282612	0.488650
H355	H	0.978288	-0.268704	-0.945003
H356	H	1.311621	0.064630	-0.611670
H357	H	1.644955	0.397963	-0.278337
H358	H	0.978283	-0.268650	-1.063711
H359	H	1.311617	0.064683	-0.730377
H360	H	1.644950	0.398017	-0.397044
C361	C	0.895108	-0.493387	-0.871176
C362	C	1.228442	-0.160054	-0.537843
C363	C	1.561775	0.173279	-0.204510
H364	H	0.892137	-0.532887	-0.842316
H365	H	1.225471	-0.199554	-0.508983
H366	H	1.558804	0.133780	-0.175649
H367	H	0.931013	-0.499845	-0.896729
H368	H	1.264346	-0.166512	-0.563395
H369	H	1.597679	0.166821	-0.230062
H370	H	0.858787	-0.492422	-0.896675
H371	H	1.192120	-0.159089	-0.563341
H372	H	1.525453	0.174244	-0.230008
H373	H	0.832808	-0.439457	-1.063606
H374	H	1.166141	-0.106124	-0.730273
H375	H	1.499475	0.227209	-0.396939
C376	C	0.538882	-0.255351	-0.218133
C377	C	0.872216	0.077982	0.115200
C378	C	1.205549	0.411315	0.448533
H379	H	0.495228	-0.262097	-0.223871
H380	H	0.828561	0.071236	0.109462
H381	H	1.161894	0.404569	0.442795
H382	H	0.549653	-0.205923	-0.227377
H383	H	0.882986	0.127410	0.105957
H384	H	1.216319	0.460744	0.439290
H385	H	0.549552	-0.266054	-0.176013
H386	H	0.882885	0.067279	0.157320
H387	H	1.216219	0.400612	0.490654
C388	C	0.676291	-0.255377	-0.218086
C389	C	1.009624	0.077956	0.115247
C390	C	1.342958	0.411289	0.448581
H391	H	0.647430	-0.227302	-0.194273
H392	H	0.980763	0.106032	0.139060
H393	H	1.314097	0.439365	0.472394
H394	H	0.701871	-0.223362	-0.242093
H395	H	1.035205	0.109972	0.091240
H396	H	1.368538	0.443305	0.424573
H397	H	0.701762	-0.283494	-0.190731
H398	H	1.035095	0.049839	0.142603
H399	H	1.368428	0.383173	0.475936
H400	H	0.832812	-0.439515	-0.944895
H401	H	1.166145	-0.106181	-0.611562
H402	H	1.499478	0.227152	-0.278229
H403	H	0.832791	-0.439669	-0.541255
H404	H	1.166125	-0.106336	-0.207922
H405	H	1.499458	0.226997	0.125411
H406	H	0.346534	-0.365000	-0.404594
H407	H	0.679867	-0.031666	-0.071261
H408	H	1.013200	0.301667	0.262072
