data_functionalizedCrystal
_audit_creation_method	'MofGen! by Chris Wilmer'
_symmetry_space_group_name_H-M	'P1'
_symmetry_Int_Tables_number	1
_symmetry_cell_setting	triclinic
loop_
_symmetry_equiv_pos_as_xyz
  x,y,z
_cell_length_a	14.044220
_cell_length_b	14.586319
_cell_length_c	16.109301
_cell_angle_alpha	89.994786
_cell_angle_beta	88.325179
_cell_angle_gamma	90.001391
loop_
_atom_site_label
_atom_site_type_symbol
_atom_site_fract_x
_atom_site_fract_y
_atom_site_fract_z
O1	O	1.257643	-0.076149	0.200436
O2	O	0.981677	-0.076172	0.193203
O3	O	1.127241	-0.076150	0.076352
O4	O	1.112079	-0.076170	0.317286
O5	O	1.127231	0.076331	0.076350
O6	O	0.981666	0.076309	0.193200
O7	O	1.257633	0.076332	0.200433
Cu8	Cu	1.119649	0.090243	0.196816
Cu9	Cu	1.119661	-0.090083	0.196820
O10	O	1.112069	0.076311	0.317284
C11	C	0.946358	0.000066	0.190036
C12	C	0.841135	0.000058	0.180592
N13	N	1.119647	0.217075	0.196814
N14	N	1.119670	-0.216915	0.196816
C15	C	0.648479	0.000077	0.163326
C16	C	0.590825	0.000075	0.230306
C17	C	0.483625	0.000086	0.220699
C18	C	0.755690	0.000066	0.172932
C19	C	1.292952	0.000093	0.203600
C20	C	1.398175	0.000095	0.213044
C21	C	1.126622	0.000091	0.045330
C22	C	1.124781	0.000092	-0.047102
C23	C	1.184125	0.452091	0.145093
C24	C	1.184128	0.548072	0.145092
C25	C	1.055186	0.548063	0.248539
C26	C	1.055179	0.452083	0.248536
C27	C	1.119654	0.404100	0.196814
C28	C	1.119663	0.596061	0.196816
C29	C	1.119666	0.700128	0.196814
C30	C	1.119651	0.300026	0.196815
C31	C	1.206874	0.000084	-0.263266
C32	C	1.205137	0.000076	-0.350116
C33	C	1.032429	0.000066	-0.343091
C34	C	1.034168	0.000067	-0.256243
C35	C	1.121393	0.000081	-0.216333
C36	C	1.117917	0.000072	-0.390031
C37	C	1.116032	0.000064	-0.484197
C38	C	1.123278	0.000087	-0.122161
C39	C	1.112688	0.000068	0.348306
C40	C	1.114529	0.000061	0.440738
H41	H	0.621976	0.000066	0.294863
C42	C	0.606767	0.000035	0.077321
C43	C	0.507190	0.000017	0.084773
C44	C	0.468720	-0.000038	0.005564
H45	H	0.627467	0.053191	0.047893
H46	H	0.627508	-0.053162	0.047965
H47	H	0.486457	0.053209	0.114116
H48	H	0.486464	-0.053135	0.114186
H49	H	0.489461	-0.053235	-0.023792
H50	H	0.489427	0.053120	-0.023858
H51	H	0.401154	-0.000058	0.010609
C52	C	0.985084	0.599996	0.304722
C53	C	0.928602	0.537420	0.349999
C54	C	0.864003	0.585224	0.401756
H55	H	1.019055	0.637435	0.341950
H56	H	0.945590	0.637423	0.271885
H57	H	0.968090	0.500009	0.382834
H58	H	0.894609	0.499979	0.312792
H59	H	0.824510	0.622652	0.368919
H60	H	0.897983	0.622662	0.438979
H61	H	0.825667	0.542775	0.432477
H62	H	0.961413	0.000056	-0.375597
C63	C	1.254159	0.400160	0.088844
C64	C	1.310602	0.462737	0.043532
C65	C	1.375118	0.414934	-0.008305
H66	H	1.293694	0.362708	0.121602
H67	H	1.220095	0.362745	0.051645
H68	H	1.344663	0.500136	0.080726
H69	H	1.271093	0.500190	0.010757
H70	H	1.341054	0.377519	-0.045503
H71	H	1.414647	0.377484	0.024460
H72	H	1.413416	0.457385	-0.039060
H73	H	1.236624	0.587144	0.102975
H74	H	1.002675	0.413006	0.290653
C75	C	1.301669	0.000039	-0.220088
C76	C	1.376157	0.000013	-0.279784
C77	C	1.463497	-0.000045	-0.240042
H78	H	1.306078	0.053197	-0.186361
H79	H	1.305986	-0.053156	-0.186371
H80	H	1.371842	0.053203	-0.313487
H81	H	1.371780	-0.053141	-0.313514
H82	H	1.467814	-0.053241	-0.206325
H83	H	1.467896	0.053114	-0.206316
H84	H	1.514048	-0.000071	-0.280539
H85	H	1.274744	0.000077	-0.388326
C86	C	0.941251	0.000110	-0.205426
C87	C	0.864491	0.000129	-0.258964
C88	C	0.778887	0.000177	-0.212181
H89	H	0.938209	-0.053050	-0.171388
H90	H	0.938287	0.053304	-0.171420
H91	H	0.867453	-0.053059	-0.292955
H92	H	0.867501	0.053285	-0.293003
H93	H	0.775923	0.053372	-0.178175
H94	H	0.775854	-0.052983	-0.178145
H95	H	0.726795	0.000199	-0.248499
