data_functionalizedCrystal
_audit_creation_method	'MofGen! by Chris Wilmer'
_symmetry_space_group_name_H-M	'P1'
_symmetry_Int_Tables_number	1
_symmetry_cell_setting	triclinic
loop_
_symmetry_equiv_pos_as_xyz
  x,y,z
_cell_length_a	14.971486
_cell_length_b	12.996460
_cell_length_c	14.971486
_cell_angle_alpha	89.999503
_cell_angle_beta	96.385871
_cell_angle_gamma	90.001258
loop_
_atom_site_label
_atom_site_type_symbol
_atom_site_fract_x
_atom_site_fract_y
_atom_site_fract_z
O1	O	1.186948	0.085449	-0.116557
O2	O	1.520281	0.418782	0.216777
O3	O	1.853614	0.752116	0.550110
O4	O	0.926547	0.085477	-0.130515
O5	O	1.259881	0.418810	0.202818
O6	O	1.593214	0.752144	0.536151
O7	O	1.063727	0.085455	0.006664
O8	O	1.397060	0.418788	0.339997
O9	O	1.730394	0.752122	0.673331
O10	O	1.049768	0.085471	-0.253736
O11	O	1.383101	0.418804	0.079597
O12	O	1.716435	0.752138	0.412931
O13	O	1.063709	-0.085679	0.006656
O14	O	1.397043	0.247655	0.339989
O15	O	1.730376	0.580988	0.673323
O16	O	0.926530	-0.085657	-0.130523
O17	O	1.259863	0.247677	0.202810
O18	O	1.593196	0.581010	0.536143
O19	O	1.186930	-0.085685	-0.116565
O20	O	1.520263	0.247649	0.216769
O21	O	1.853597	0.580982	0.550102
Cu22	Cu	1.056728	-0.101297	-0.123545
Cu23	Cu	1.390062	0.232037	0.209789
Cu24	Cu	1.723395	0.565370	0.543122
Cu25	Cu	1.056749	0.101089	-0.123535
Cu26	Cu	1.390082	0.434422	0.209798
Cu27	Cu	1.723416	0.767756	0.543131
O28	O	1.049750	-0.085663	-0.253744
O29	O	1.383084	0.247671	0.079589
O30	O	1.716417	0.581004	0.412923
C31	C	0.893214	-0.000086	-0.129895
C32	C	1.226547	0.333247	0.203438
C33	C	1.559881	0.666580	0.536772
C34	C	0.793917	-0.000076	-0.128024
C35	C	1.127250	0.333258	0.205309
C36	C	1.460583	0.666591	0.538642
N37	N	1.056720	-0.243644	-0.123551
N38	N	1.390053	0.089690	0.209783
N39	N	1.723387	0.423023	0.543116
C40	C	0.736692	-0.000072	-0.208614
C41	C	1.070025	0.333261	0.124720
C42	C	1.403358	0.666594	0.458053
C43	C	0.643392	-0.000088	-0.206850
C44	C	0.976725	0.333246	0.126483
C45	C	1.310059	0.666579	0.459816
C46	C	0.607320	-0.000099	-0.124497
C47	C	0.940653	0.333234	0.208836
C48	C	1.273986	0.666567	0.542169
C49	C	0.664552	-0.000106	-0.043902
C50	C	0.997886	0.333227	0.289431
C51	C	1.331219	0.666561	0.622765
C52	C	0.757850	-0.000098	-0.045666
C53	C	1.091183	0.333236	0.287667
C54	C	1.424517	0.666569	0.621001
C55	C	0.470090	-0.000120	-0.040231
C56	C	0.803423	0.333213	0.293103
C57	C	1.136757	0.666546	0.626436
C58	C	0.376786	-0.000126	-0.038466
C59	C	0.710119	0.333207	0.294867
C60	C	1.043453	0.666540	0.628200
C61	C	0.355632	-0.000110	-0.201415
C62	C	0.688965	0.333223	0.131918
C63	C	1.022299	0.666557	0.465251
C64	C	0.448930	-0.000102	-0.203179
C65	C	0.782263	0.333231	0.130154
C66	C	1.115596	0.666565	0.463487
C67	C	0.506156	-0.000107	-0.122584
C68	C	0.839489	0.333227	0.210750
C69	C	1.172822	0.666560	0.544083
C70	C	1.056724	-0.336750	-0.123553
C71	C	1.390057	-0.003416	0.209780
C72	C	1.723391	0.329917	0.543114
C73	C	1.056732	-0.453555	-0.123547
C74	C	1.390066	-0.120221	0.209786
C75	C	1.723399	0.213112	0.543120
C76	C	1.056744	-0.546653	-0.123537
C77	C	1.390077	-0.213320	0.209796
C78	C	1.723410	0.120014	0.543130
C79	C	1.056753	-0.663466	-0.123532
C80	C	1.390086	-0.330132	0.209801
C81	C	1.723420	0.003201	0.543135
C82	C	1.220263	-0.000119	-0.117185
C83	C	1.553597	0.333214	0.216149
C84	C	1.886930	0.666548	0.549482
C85	C	1.319561	-0.000123	-0.119056
C86	C	1.652894	0.333210	0.214278
C87	C	1.986227	0.666544	0.547611
C88	C	1.063094	-0.000112	0.039985
C89	C	1.396427	0.333222	0.373318
C90	C	1.729761	0.666555	0.706651
C91	C	1.061223	-0.000110	0.139282
C92	C	1.394556	0.333223	0.472615
C93	C	1.727890	0.666556	0.805949
N94	N	1.056764	0.243436	-0.123522
N95	N	1.390098	0.576769	0.209811
N96	N	1.723431	0.910103	0.543145
C97	C	1.050384	-0.000094	-0.287065
C98	C	1.383717	0.333239	0.046269
C99	C	1.717050	0.666573	0.379602
C100	C	1.052254	-0.000088	-0.386362
C101	C	1.385588	0.333245	-0.053028
C102	C	1.718921	0.666578	0.280305
C103	C	1.141812	-0.000120	0.196507
C104	C	1.475146	0.333213	0.529841
C105	C	1.808479	0.666547	0.863174
C106	C	1.140049	-0.000109	0.289807
C107	C	1.473383	0.333224	0.623140
C108	C	1.806716	0.666557	0.956473
C109	C	1.057696	-0.000097	0.325879
C110	C	1.391029	0.333237	0.659212
C111	C	1.724363	0.666570	0.992546
C112	C	0.977101	-0.000084	0.268646
C113	C	1.310434	0.333249	0.601980
C114	C	1.643767	0.666582	0.935313
C115	C	0.978865	-0.000087	0.175349
C116	C	1.312198	0.333246	0.508682
C117	C	1.645531	0.666579	0.842015
C118	C	0.973430	-0.000080	0.463109
C119	C	1.306763	0.333253	0.796442
C120	C	1.640096	0.666587	1.129776
C121	C	0.971665	-0.000079	0.556413
C122	C	1.304998	0.333255	0.889746
C123	C	1.638332	0.666588	1.223080
C124	C	1.134614	-0.000102	0.577567
C125	C	1.467947	0.333231	0.910900
C126	C	1.801281	0.666565	1.244233
C127	C	1.136378	-0.000105	0.484269
C128	C	1.469712	0.333228	0.817603
C129	C	1.803045	0.666561	1.150936
C130	C	1.055782	-0.000095	0.427043
C131	C	1.389116	0.333239	0.760376
C132	C	1.722449	0.666572	1.093710
H133	H	0.766054	-0.000062	-0.275675
H134	H	1.099387	0.333271	0.057658
H135	H	1.432720	0.666605	0.390992
C136	C	1.301291	-0.000157	0.301345
C137	C	1.634625	0.333177	0.634678
C138	C	1.967958	0.666510	0.968011
C139	C	1.228636	-0.000131	0.352709
C140	C	1.561969	0.333202	0.686042
C141	C	1.895302	0.666535	1.019376
H142	H	1.355982	-0.000177	0.340180
H143	H	1.689316	0.333156	0.673513
H144	H	2.022649	0.666489	1.006847
H145	H	1.298603	0.059517	0.264517
H146	H	1.631937	0.392851	0.597851
H147	H	1.965270	0.726184	0.931184
H148	H	1.298569	-0.059839	0.264513
H149	H	1.631902	0.273494	0.597846
H150	H	1.965236	0.606827	0.931180
H151	H	1.231354	0.059556	0.389536
H152	H	1.564688	0.392889	0.722870
H153	H	1.898021	0.726222	1.056203
H154	H	1.231325	-0.059812	0.389552
H155	H	1.564659	0.273522	0.722885
H156	H	1.897992	0.606855	1.056219
C157	C	0.817621	-0.000072	0.163804
C158	C	1.150954	0.333261	0.497138
C159	C	1.484287	0.666595	0.830471
C160	C	0.890278	-0.000080	0.112443
C161	C	1.223612	0.333254	0.445776
C162	C	1.556945	0.666587	0.779109
H163	H	0.762931	-0.000069	0.124967
H164	H	1.096264	0.333264	0.458301
H165	H	1.429597	0.666597	0.791634
H166	H	0.820330	0.059602	0.200632
H167	H	1.153663	0.392935	0.533966
H168	H	1.486996	0.726268	0.867299
H169	H	0.820320	-0.059755	0.200636
H170	H	1.153653	0.273578	0.533969
H171	H	1.486986	0.606912	0.867302
H172	H	0.887583	0.059608	0.075616
H173	H	1.220916	0.392941	0.408949
H174	H	1.554250	0.726274	0.742283
H175	H	0.887568	-0.059760	0.075599
H176	H	1.220901	0.273574	0.408932
H177	H	1.554235	0.606907	0.742266
H178	H	1.203437	-0.000123	0.454903
H179	H	1.536771	0.333210	0.788236
H180	H	1.870104	0.666544	1.121569
H181	H	0.635175	-0.000130	0.023152
H182	H	0.968508	0.333203	0.356485
H183	H	1.301842	0.666537	0.689818
H184	H	0.347419	-0.000137	0.028593
H185	H	0.680753	0.333196	0.361926
H186	H	1.014086	0.666529	0.695260
C187	C	0.631854	-0.000057	-0.368093
C188	C	0.965187	0.333277	-0.034759
C189	C	1.298521	0.666610	0.298574
C190	C	0.580490	-0.000079	-0.295437
C191	C	0.913823	0.333254	0.037896
C192	C	1.247156	0.666588	0.371230
H193	H	0.593019	-0.000046	-0.422784
H194	H	0.926352	0.333287	-0.089450
H195	H	1.259685	0.666620	0.243883
H196	H	0.668685	-0.059726	-0.365397
H197	H	1.002019	0.273607	-0.032064
H198	H	1.335352	0.606940	0.301269
H199	H	0.668682	0.059630	-0.365378
H200	H	1.002015	0.392964	-0.032044
H201	H	1.335349	0.726297	0.301289
H202	H	0.543666	-0.059770	-0.298149
H203	H	0.877000	0.273563	0.035185
H204	H	1.210333	0.606897	0.368518
H205	H	0.543643	0.059597	-0.298134
H206	H	0.876976	0.392930	0.035200
H207	H	1.210309	0.726264	0.368533
H208	H	0.516682	-0.000126	0.025399
H209	H	0.850015	0.333208	0.358732
H210	H	1.183348	0.666541	0.692066
H211	H	0.804443	-0.000100	0.019958
H212	H	1.137776	0.333233	0.353292
H213	H	1.471109	0.666567	0.686625
H214	H	1.200238	-0.000107	0.624165
H215	H	1.533572	0.333226	0.957499
H216	H	1.866905	0.666559	1.290832
H217	H	0.478296	-0.000083	-0.270239
H218	H	0.811630	0.333251	0.063095
H219	H	1.144963	0.666584	0.396428
H220	H	0.904606	-0.000085	0.585780
H221	H	1.237939	0.333248	0.919113
H222	H	1.571273	0.666582	1.252446
C223	C	1.238332	0.087836	0.103855
C224	C	1.571665	0.421170	0.437188
C225	C	1.904999	0.754503	0.770522
C226	C	1.232337	-0.000133	0.156857
C227	C	1.565670	0.333201	0.490191
C228	C	1.899004	0.666534	0.823524
H229	H	1.294218	0.087826	0.079375
H230	H	1.627551	0.421159	0.412708
H231	H	1.960884	0.754492	0.746042
H232	H	1.234266	0.147505	0.139812
H233	H	1.567600	0.480838	0.473145
H234	H	1.900933	0.814171	0.806478
H235	H	1.190583	0.087827	0.056422
H236	H	1.523917	0.421161	0.389756
H237	H	1.857250	0.754494	0.723089
H238	H	1.280082	-0.000120	0.204294
H239	H	1.613415	0.333213	0.537627
H240	H	1.946749	0.666547	0.870961
H241	H	1.236412	-0.059816	0.120899
H242	H	1.569745	0.273517	0.454232
H243	H	1.903078	0.606850	0.787565
H244	H	0.309033	-0.000111	-0.267039
H245	H	0.642367	0.333222	0.066294
H246	H	0.975700	0.666556	0.399627
H247	H	0.907800	-0.000069	0.416517
H248	H	1.241133	0.333265	0.749850
H249	H	1.574466	0.666598	1.083184
H250	H	0.910047	-0.000067	0.298024
H251	H	1.243380	0.333266	0.631357
H252	H	1.576714	0.666599	0.964690
