data_functionalizedCrystal
_audit_creation_method	'MofGen! by Chris Wilmer'
_symmetry_space_group_name_H-M	'P1'
_symmetry_Int_Tables_number	1
_symmetry_cell_setting	triclinic
loop_
_symmetry_equiv_pos_as_xyz
  x,y,z
_cell_length_a	10.685727
_cell_length_b	10.686285
_cell_length_c	10.686551
_cell_angle_alpha	99.084519
_cell_angle_beta	99.074299
_cell_angle_gamma	80.939845
loop_
_atom_site_label
_atom_site_type_symbol
_atom_site_fract_x
_atom_site_fract_y
_atom_site_fract_z
Zn1	Zn	-2.038245	0.595594	-0.823884
Zn2	Zn	-1.538245	1.095594	-0.323884
Zn3	Zn	-2.038142	0.824167	-0.595374
Zn4	Zn	-1.538142	1.324167	-0.095374
Zn5	Zn	-1.809683	0.595640	-0.595400
Zn6	Zn	-1.309683	1.095640	-0.095400
Zn7	Zn	-1.840094	0.793653	-0.793501
Zn8	Zn	-1.340094	1.293653	-0.293501
O9	O	-1.931541	0.702263	-0.702040
O10	O	-1.431541	1.202263	-0.202040
O11	O	-2.216770	0.638666	-0.806276
O12	O	-1.716770	1.138666	-0.306276
O13	O	-1.995066	0.806641	-0.416839
O14	O	-1.495066	1.306641	0.083161
O15	O	-1.827318	0.417106	-0.638435
O16	O	-1.327318	0.917106	-0.138435
O17	O	-2.216694	0.806597	-0.638391
O18	O	-1.716694	1.306597	-0.138391
O19	O	-1.995242	0.417072	-0.806301
O20	O	-1.495242	0.917072	-0.306301
O21	O	-1.827218	0.638743	-0.416858
O22	O	-1.327218	1.138743	0.083142
O23	O	-1.635179	0.609156	-0.608973
O24	O	-1.135179	1.109156	-0.108973
O25	O	-1.879149	0.754591	-0.976069
O26	O	-1.379149	1.254591	-0.476069
O27	O	-1.657522	0.754635	-0.754517
O28	O	-1.157522	1.254635	-0.254517
O29	O	-2.024730	0.609078	-0.998391
O30	O	-1.524730	1.109078	-0.498391
O31	O	-2.024554	0.998646	-0.608930
O32	O	-1.524554	1.498646	-0.108930
O33	O	-1.879049	0.976228	-0.754492
O34	O	-1.379049	1.476228	-0.254492
C35	C	-1.600057	0.678590	-0.678452
C36	C	-1.100057	1.178590	-0.178452
C37	C	-1.458252	0.668491	-0.668389
C38	C	-0.958252	1.168491	-0.168389
C39	C	-1.955127	1.033728	-0.678442
C40	C	-1.455127	1.533728	-0.178442
C41	C	-1.965337	1.175535	-0.668397
C42	C	-1.465337	1.675535	-0.168397
C43	C	-1.955343	0.678425	-1.034818
C44	C	-1.455343	1.178425	-0.534818
C45	C	-1.965486	0.668267	-1.176628
C46	C	-1.465486	1.168267	-0.676628
C47	C	-1.264318	0.726016	-0.725715
C48	C	-0.764318	1.226016	-0.225715
C49	C	-1.406123	0.736103	-0.735789
C50	C	-0.906123	1.236103	-0.235789
C51	C	-1.907900	0.369505	-0.725760
C52	C	-1.407900	0.869505	-0.225760
C53	C	-1.897825	0.227703	-0.735868
C54	C	-1.397825	0.727703	-0.235868
C55	C	-1.907898	0.725922	-0.370568
C56	C	-1.407898	1.225922	0.129432
C57	C	-1.897977	0.735738	-0.228802
C58	C	-1.397977	1.235738	0.271198
H59	H	-1.394388	0.602871	-0.602985
H60	H	-0.894388	1.102871	-0.102985
H61	H	-1.832422	0.801278	-1.164981
H62	H	-1.332422	1.301278	-0.664981
H63	H	-1.832215	1.163880	-0.801319
H64	H	-1.332215	1.663880	-0.301319
H65	H	-2.030942	1.239366	-0.602934
H66	H	-1.530942	1.739366	-0.102934
H67	H	-2.031055	0.602732	-1.240455
H68	H	-1.531055	1.102732	-0.740455
H69	H	-1.469980	0.801707	-0.801200
H70	H	-0.969980	1.301707	-0.301200
