data_functionalizedCrystal
_audit_creation_method	'MofGen! by Chris Wilmer'
_symmetry_space_group_name_H-M	'P1'
_symmetry_Int_Tables_number	1
_symmetry_cell_setting	triclinic
loop_
_symmetry_equiv_pos_as_xyz
  x,y,z
_cell_length_a	14.044191
_cell_length_b	12.503572
_cell_length_c	10.654550
_cell_angle_alpha	86.442489
_cell_angle_beta	88.838354
_cell_angle_gamma	93.837835
loop_
_atom_site_label
_atom_site_type_symbol
_atom_site_fract_x
_atom_site_fract_y
_atom_site_fract_z
O1	O	1.265120	0.089268	0.296375
O2	O	1.765120	0.589268	0.796375
O3	O	0.989079	0.089281	0.285431
O4	O	1.489079	0.589281	0.785431
O5	O	1.133445	0.089267	0.108802
O6	O	1.633445	0.589267	0.608802
O7	O	1.120753	0.089282	0.473004
O8	O	1.620753	0.589282	0.973004
O9	O	1.122588	-0.089373	0.122110
O10	O	1.622588	0.410627	0.622110
O11	O	0.978222	-0.089360	0.298739
O12	O	1.478222	0.410640	0.798739
O13	O	1.254262	-0.089373	0.309682
O14	O	1.754262	0.410627	0.809682
Cu15	Cu	1.115251	-0.105678	0.305426
Cu16	Cu	1.615251	0.394322	0.805426
Cu17	Cu	1.128091	0.105586	0.289688
Cu18	Cu	1.628091	0.605586	0.789688
O19	O	1.109896	-0.089359	0.486311
O20	O	1.609896	0.410641	0.986311
C21	C	0.948304	-0.000037	0.287298
C22	C	1.448304	0.499963	0.787298
C23	C	0.842985	-0.000032	0.273018
C24	C	1.342985	0.499968	0.773018
N25	N	1.106227	-0.254269	0.316495
N26	N	1.606227	0.245731	0.816495
C27	C	0.593192	-0.000040	0.348184
C28	C	1.093192	0.499960	0.848184
C29	C	0.650155	-0.000042	0.246934
C30	C	1.150155	0.499958	0.746934
C31	C	0.757456	-0.000037	0.261451
C32	C	1.257456	0.499963	0.761451
C33	C	0.485882	-0.000046	0.333670
C34	C	0.985882	0.499954	0.833670
C35	C	1.092952	-0.473383	0.332788
C36	C	1.592952	0.026617	0.832788
C37	C	1.150393	-0.526716	0.262320
C38	C	1.650393	-0.026716	0.762320
C39	C	1.143007	-0.648638	0.271386
C40	C	1.643007	-0.148638	0.771386
C41	C	1.100337	-0.351450	0.323724
C42	C	1.600337	0.148550	0.823724
C43	C	1.295037	-0.000052	0.307816
C44	C	1.795037	0.499948	0.807816
C45	C	1.400357	-0.000050	0.322095
C46	C	1.900357	0.499950	0.822095
C47	C	1.127085	-0.000052	0.068564
C48	C	1.627085	0.499948	0.568564
C49	C	1.124297	-0.000051	-0.071159
C50	C	1.624297	0.499949	0.428841
N51	N	1.137122	0.254177	0.278610
N52	N	1.637122	0.754177	0.778610
C53	C	1.209298	-0.000054	-0.142100
C54	C	1.709298	0.499946	0.357900
C55	C	1.206673	-0.000041	-0.273386
C56	C	1.706673	0.499959	0.226614
C57	C	1.034038	-0.000025	-0.262778
C58	C	1.534038	0.499975	0.237222
C59	C	1.036664	-0.000030	-0.131495
C60	C	1.536664	0.499970	0.368505
C61	C	1.310588	0.062546	-0.463829
C62	C	1.810588	0.562546	0.036171
C63	C	1.395592	0.062523	-0.534773
C64	C	1.895592	0.562523	-0.034773
C65	C	1.468847	-0.000083	-0.492191
C66	C	1.968847	0.499917	0.007809
C67	C	1.457100	-0.062694	-0.378665
C68	C	1.957100	0.437306	0.121335
C69	C	1.372093	-0.062681	-0.307727
C70	C	1.872093	0.437319	0.192273
C71	C	1.298843	-0.000049	-0.350310
C72	C	1.798843	0.499951	0.149690
C73	C	0.932755	-0.062626	0.058951
C74	C	1.432755	0.437374	0.558951
C75	C	0.847747	-0.062621	0.129892
C76	C	1.347747	0.437379	0.629892
C77	C	0.774483	-0.000021	0.087314
C78	C	1.274483	0.499979	0.587314
C79	C	0.786220	0.062573	-0.026214
C80	C	1.286220	0.562573	0.473786
C81	C	0.871228	0.062568	-0.097156
C82	C	1.371228	0.562568	0.402844
C83	C	0.944492	-0.000030	-0.054568
C84	C	1.444492	0.499970	0.445432
C85	C	1.116257	-0.000037	0.526549
C86	C	1.616257	0.499963	1.026549
C87	C	1.119045	-0.000032	0.666272
C88	C	1.619045	0.499968	1.166272
H89	H	0.618343	0.000030	0.149343
H90	H	1.118343	0.500030	0.649343
O91	O	0.635329	-0.000033	0.477443
O92	O	1.135329	0.499967	0.977443
H93	H	0.615753	0.072778	0.523785
H94	H	1.115753	0.572778	1.023785
H95	H	1.205118	-0.480808	0.195182
H96	H	1.705118	0.019192	0.695182
H97	H	1.280654	-0.000069	-0.092979
H98	H	1.780654	0.499931	0.407021
H99	H	1.038233	-0.519285	0.399924
H100	H	1.538233	-0.019285	0.899924
O101	O	1.359415	-0.130191	-0.185283
O102	O	1.859415	0.369809	0.314717
H103	H	1.424637	-0.173730	-0.167584
H104	H	1.924637	0.326270	0.332416
H105	H	1.516750	-0.113682	-0.344011
H106	H	2.016750	0.386318	0.155989
H107	H	1.538060	-0.000100	-0.549963
H108	H	2.038060	0.499900	-0.049963
O109	O	1.408270	0.130053	-0.657212
O110	O	1.908270	0.630053	-0.157212
H111	H	1.343057	0.173611	-0.674897
H112	H	1.843057	0.673611	-0.174897
H113	H	1.250948	0.113541	-0.498504
H114	H	1.750948	0.613541	0.001496
O115	O	0.939521	-0.000026	-0.327850
O116	O	1.439521	0.499974	0.172150
H117	H	0.951972	-0.000039	-0.431057
H118	H	1.451972	0.499961	0.068943
H119	H	0.880786	0.113552	-0.189589
H120	H	1.380786	0.613552	0.310411
H121	H	0.726553	0.113525	-0.060901
H122	H	1.226553	0.613525	0.439099
O123	O	0.835081	-0.130130	0.252346
O124	O	1.335081	0.369870	0.752346
H125	H	0.900313	-0.173650	0.270051
H126	H	1.400313	0.326350	0.770051
O127	O	1.011780	-0.130151	0.104870
O128	O	1.511780	0.369849	0.604870
H129	H	0.989329	-0.173691	0.195719
H130	H	1.489329	0.326309	0.695719
H131	H	0.705260	-0.000037	0.145078
H132	H	1.205260	0.499963	0.645078
