data_functionalizedCrystal
_audit_creation_method	'MofGen! by Chris Wilmer'
_symmetry_space_group_name_H-M	'P1'
_symmetry_Int_Tables_number	1
_symmetry_cell_setting	triclinic
loop_
_symmetry_equiv_pos_as_xyz
  x,y,z
_cell_length_a	10.489741
_cell_length_b	22.610064
_cell_length_c	10.489741
_cell_angle_alpha	89.995598
_cell_angle_beta	84.539174
_cell_angle_gamma	90.005618
loop_
_atom_site_label
_atom_site_type_symbol
_atom_site_fract_x
_atom_site_fract_y
_atom_site_fract_z
O1	O	1.694062	0.049148	0.179951
O2	O	1.322867	0.049157	0.196844
O3	O	1.516911	0.049148	0.002799
O4	O	1.500018	0.049156	0.373995
O5	O	1.516877	-0.049221	0.002828
O6	O	1.322832	-0.049212	0.196872
O7	O	1.694028	-0.049222	0.179979
Zn8	Zn	1.508425	-0.064835	0.188430
Zn9	Zn	1.508470	0.064770	0.188393
O10	O	1.499984	-0.049213	0.374023
C11	C	1.275318	-0.000027	0.195582
C12	C	1.133688	-0.000023	0.191765
C13	C	1.065548	-0.000031	0.068300
C14	C	0.973438	0.048470	0.126609
C15	C	0.973439	-0.048514	0.126667
C16	C	1.043444	0.048518	0.250125
C17	C	1.043454	-0.048510	0.250165
C18	C	0.951371	0.000003	0.308564
N19	N	1.508403	-0.153288	0.188455
C20	C	1.594397	-0.561933	0.102483
C21	C	1.594403	-0.623853	0.102474
O22	O	1.667464	-0.655875	0.029396
N23	N	1.508469	-0.654825	0.188366
C24	C	1.422513	-0.623874	0.274264
O25	O	1.349419	-0.655904	0.347321
C26	C	1.422502	-0.561955	0.274266
C27	C	1.508451	-0.530986	0.188377
C28	C	1.680338	-0.530964	0.016600
C29	C	1.680333	-0.469048	0.016611
C30	C	1.594387	-0.438101	0.102505
C31	C	1.508446	-0.469070	0.188388
C32	C	1.336541	-0.531005	0.360157
C33	C	1.336537	-0.469082	0.360151
C34	C	1.422485	-0.438113	0.274262
C35	C	1.422494	-0.376208	0.274294
N36	N	1.508429	-0.345236	0.188402
C37	C	1.594375	-0.376183	0.102507
C38	C	1.422543	-0.753907	0.274252
C39	C	1.422559	-0.815825	0.274257
C40	C	1.594448	-0.815800	0.102465
C41	C	1.594436	-0.753881	0.102467
C42	C	1.508477	-0.722935	0.188360
C43	C	1.594358	-0.246155	0.102538
C44	C	1.594349	-0.184234	0.102560
C45	C	1.422457	-0.184265	0.274348
C46	C	1.422470	-0.246181	0.274330
C47	C	1.508425	-0.277124	0.188415
O48	O	1.349467	-0.344147	0.347331
O49	O	1.667446	-0.344145	0.029452
C50	C	1.741577	-0.000037	0.181241
C51	C	1.883206	-0.000036	0.185058
C52	C	1.515618	-0.000036	-0.044718
C53	C	1.511801	-0.000035	-0.186348
N54	N	1.508502	0.153223	0.188358
C55	C	1.388336	-0.000027	-0.254488
C56	C	1.446643	-0.048530	-0.346596
C57	C	1.446706	0.048455	-0.346599
C58	C	1.570158	-0.048577	-0.276591
C59	C	1.570204	0.048451	-0.276584
C60	C	1.628600	-0.000064	-0.368665
C61	C	1.501277	-0.000028	0.421541
C62	C	1.505094	-0.000025	0.563170
H63	H	1.664344	-0.159021	0.032619
H64	H	1.750316	-0.443837	-0.053330
N65	N	1.682177	-0.277758	0.014800
N66	N	1.761734	-0.312304	0.056039
H67	H	1.823761	-0.334624	-0.005921
H68	H	1.266534	-0.443889	0.430095
N69	N	1.381090	-0.099960	-0.385521
N70	N	1.368503	-0.108400	-0.501418
H71	H	1.322200	-0.144721	-0.528907
N72	N	1.082103	0.100025	0.315576
N73	N	1.000149	0.136705	0.359313
H74	H	1.027453	0.173083	0.405533
H75	H	0.901947	0.000031	0.410168
N76	N	1.635717	0.099882	-0.237629
N77	N	1.735001	0.094512	-0.181523
H78	H	1.781265	0.130839	-0.154009
N79	N	1.768140	-0.562559	-0.071161
N80	N	1.844856	-0.534889	-0.147830
H81	H	1.906878	-0.557199	-0.209813
H82	H	1.074485	-0.089515	0.302375
N83	N	0.934561	-0.099950	0.061107
N84	N	0.975690	-0.108579	-0.053156
H85	H	0.948236	-0.144903	-0.099468
H86	H	1.352495	-0.271396	0.344281
H87	H	1.394464	0.089464	-0.377575
N88	N	0.934520	0.099900	0.061054
N89	N	0.818625	0.108341	0.048459
H90	H	0.791142	0.144661	0.002152
H91	H	1.115238	0.000027	-0.033196
H92	H	1.352484	-0.159059	0.344286
N93	N	1.260988	-0.000087	-0.192212
N94	N	1.186458	-0.041667	-0.210885
H95	H	1.096520	-0.041711	-0.166902
N96	N	1.682173	-0.722259	0.014660
N97	N	1.758859	-0.749905	-0.062061
H98	H	1.820801	-0.727575	-0.124106
N99	N	1.682208	-0.847427	0.014705
N100	N	1.682174	-0.902711	0.014703
H101	H	1.744141	-0.925050	-0.047282
H102	H	1.622339	-0.089628	-0.245747
H103	H	1.352586	-0.841036	0.344209
N104	N	1.334727	-0.722309	0.362009
N105	N	1.258012	-0.749976	0.438686
H106	H	1.195991	-0.727663	0.500664
H107	H	1.730204	-0.000093	-0.418089
H108	H	1.266554	-0.556212	0.430095
