data_functionalizedCrystal
_audit_creation_method	'MofGen! by Chris Wilmer'
_symmetry_space_group_name_H-M	'P1'
_symmetry_Int_Tables_number	1
_symmetry_cell_setting	triclinic
loop_
_symmetry_equiv_pos_as_xyz
  x,y,z
_cell_length_a	10.654559
_cell_length_b	12.837942
_cell_length_c	9.130313
_cell_angle_alpha	89.998975
_cell_angle_beta	89.999532
_cell_angle_gamma	89.658812
loop_
_atom_site_label
_atom_site_type_symbol
_atom_site_fract_x
_atom_site_fract_y
_atom_site_fract_z
O1	O	1.683734	0.145764	-0.121807
O2	O	1.319771	0.159638	-0.121808
O3	O	1.493682	0.001740	-0.121798
O4	O	1.509823	0.303662	-0.121816
O5	O	1.493680	0.001744	0.121801
O6	O	1.319769	0.159642	0.121791
O7	O	1.683732	0.145769	0.121792
Cu8	Cu	1.501750	0.152706	0.144034
Cu9	Cu	1.501752	0.152701	-0.144050
O10	O	1.509821	0.303666	0.121783
C11	C	1.272861	0.158619	-0.000009
C12	C	1.133085	0.155566	-0.000009
C13	C	1.071087	0.059728	0.000001
C14	C	0.939752	0.056865	-0.000010
C15	C	0.932425	0.245686	-0.000034
C16	C	1.063757	0.248548	-0.000033
C17	C	1.075316	-0.049287	0.000021
C18	C	0.943981	-0.052150	0.000010
C19	C	1.488228	-0.036918	0.000000
C20	C	1.471966	-0.152112	-0.000002
C21	C	1.667470	-0.391660	-0.000032
C22	C	1.652196	-0.499896	-0.000035
C23	C	1.426144	-0.476822	-0.000020
C24	C	1.441418	-0.368586	-0.000018
C25	C	1.562085	-0.326009	-0.000021
C26	C	1.577358	-0.217771	-0.000008
C27	C	1.351308	-0.194700	-0.000004
C28	C	1.336034	-0.302936	-0.000007
C29	C	1.730642	0.146787	-0.000010
C30	C	1.870418	0.149841	-0.000020
C31	C	1.515274	0.342324	-0.000019
C32	C	1.531537	0.457519	-0.000026
N33	N	1.501758	0.152709	0.346657
N34	N	1.501754	0.152690	-0.346672
C35	C	1.578790	0.082816	0.423313
C36	C	1.578785	0.082803	0.576650
C37	C	1.424713	0.222586	0.576661
C38	C	1.424712	0.222593	0.423327
C39	C	1.667747	0.002116	0.423308
C40	C	1.667742	0.002103	0.576645
H41	H	0.909960	-0.094776	0.101959
H42	H	1.675611	-0.183107	-0.000006
F43	F	1.795890	-0.346343	-0.000006
H44	H	1.738011	-0.553345	-0.000048
F45	F	1.297732	-0.522155	-0.000052
F46	F	1.628345	-0.102116	0.368906
F47	F	0.858631	0.344639	-0.000063
F48	F	1.239142	-0.124822	0.000022
F49	F	1.342718	0.296957	0.658270
F50	F	0.892453	-0.097532	-0.137465
F51	F	1.790528	0.035158	0.361136
F52	F	1.617103	-0.096392	0.638806
F53	F	1.124031	-0.102989	-0.133212
H54	H	1.117363	-0.082220	0.105205
F55	F	1.207618	-0.348262	-0.000015
H56	H	1.766193	0.019882	0.618260
F57	F	1.129735	0.350551	-0.000072
H58	H	1.361974	0.279496	0.360914
