data_functionalizedCrystal
_audit_creation_method	'MofGen! by Chris Wilmer'
_symmetry_space_group_name_H-M	'P1'
_symmetry_Int_Tables_number	1
_symmetry_cell_setting	triclinic
loop_
_symmetry_equiv_pos_as_xyz
  x,y,z
_cell_length_a	10.967874
_cell_length_b	15.021413
_cell_length_c	10.967829
_cell_angle_alpha	102.123825
_cell_angle_beta	82.165976
_cell_angle_gamma	102.136084
loop_
_atom_site_label
_atom_site_type_symbol
_atom_site_fract_x
_atom_site_fract_y
_atom_site_fract_z
O1	O	1.657247	0.355110	0.174956
O2	O	2.157247	0.855110	0.674956
O3	O	1.294085	0.301970	0.191720
O4	O	1.794085	0.801970	0.691720
O5	O	1.484038	0.301965	0.001765
O6	O	1.984038	0.801965	0.501765
O7	O	1.467294	0.355115	0.364911
O8	O	1.967294	0.855115	0.864911
O9	O	1.484007	0.153900	0.001792
O10	O	1.984007	0.653900	0.501792
O11	O	1.294055	0.153906	0.191747
O12	O	1.794055	0.653906	0.691747
O13	O	1.657217	0.207045	0.174983
O14	O	2.157217	0.707045	0.674983
Zn15	Zn	1.475631	0.156967	0.183369
Zn16	Zn	1.975631	0.656967	0.683369
Zn17	Zn	1.475671	0.352048	0.183334
Zn18	Zn	1.975671	0.852048	0.683334
O19	O	1.467264	0.207050	0.364938
O20	O	1.967264	0.707050	0.864938
C21	C	1.247569	0.220618	0.190516
C22	C	1.747569	0.720618	0.690516
C23	C	1.109011	0.198803	0.186873
C24	C	1.609011	0.698803	0.686873
N25	N	1.475613	0.023830	0.183393
N26	N	1.975613	0.523830	0.683393
C27	C	1.047253	0.265779	0.185234
C28	C	1.547253	0.765779	0.685234
C29	C	0.904046	0.243234	0.181469
C30	C	1.404046	0.743234	0.681469
C31	C	1.387765	-0.215859	0.271187
C32	C	1.887765	0.284141	0.771187
C33	C	1.500738	-0.253999	0.296368
C34	C	2.000738	0.246001	0.796368
C35	C	1.475645	-0.157777	0.183362
C36	C	1.975645	0.342223	0.683362
C37	C	1.362702	-0.296370	0.158208
C38	C	1.862702	0.203630	0.658208
C39	C	1.475665	-0.333202	0.183335
C40	C	1.975665	0.166798	0.683335
C41	C	1.588675	-0.194593	0.208601
C42	C	2.088675	0.305407	0.708601
C43	C	1.450565	-0.236977	0.070391
C44	C	1.950565	0.263023	0.570391
C45	C	1.563619	-0.275085	0.095526
C46	C	2.063619	0.224915	0.595526
C47	C	1.475631	-0.056719	0.183381
C48	C	1.975631	0.443281	0.683381
C49	C	1.475692	-0.434256	0.183315
C50	C	1.975692	0.065744	0.683315
C51	C	1.703733	0.288400	0.176187
C52	C	2.203733	0.788400	0.676187
C53	C	1.842291	0.310220	0.179830
C54	C	2.342291	0.810220	0.679830
C55	C	1.482802	0.220613	-0.044720
C56	C	1.982802	0.720613	0.455280
C57	C	1.479150	0.198800	-0.183271
C58	C	1.979150	0.698800	0.316729
N59	N	1.475699	0.485185	0.183300
N60	N	1.975699	0.985185	0.683300
C61	C	1.477538	0.265778	-0.245050
C62	C	1.977538	0.765778	0.254950
C63	C	1.473764	0.243235	-0.388250
C64	C	1.973764	0.743235	0.111750
C65	C	1.468500	0.288404	0.411423
C66	C	1.968500	0.788404	0.911423
C67	C	1.472152	0.310223	0.549975
C68	C	1.972152	0.810223	1.049975
H69	H	1.100400	0.339811	0.186626
H70	H	1.600400	0.839811	0.686626
O71	O	1.479402	0.363843	-0.174688
O72	O	1.979402	0.863843	0.325312
H73	H	1.477636	0.409476	-0.241724
H74	H	1.977636	0.909476	0.258276
O75	O	1.471909	0.145164	-0.458598
O76	O	1.971909	0.645164	0.041402
H77	H	1.469253	0.142850	-0.560035
H78	H	1.969253	0.642850	-0.060035
O79	O	1.662169	-0.309318	-0.002877
O80	O	2.162169	0.190682	0.497123
H81	H	1.660934	-0.383372	-0.002738
H82	H	2.160934	0.116628	0.497262
O83	O	1.038420	0.100803	0.185170
O84	O	1.538420	0.600803	0.685170
H85	H	1.073537	0.054430	0.100975
H86	H	1.573537	0.554430	0.600975
H87	H	1.521969	-0.262173	0.391894
H88	H	2.021969	0.237827	0.891894
O89	O	0.912666	0.408293	0.181654
O90	O	1.412666	0.908293	0.681654
H91	H	1.014104	0.410612	0.184312
H92	H	1.514104	0.910612	0.684312
H93	H	1.473551	0.384258	-0.396906
H94	H	1.973551	0.884258	0.103094
H95	H	1.429298	-0.228783	-0.025104
H96	H	1.929298	0.271217	0.474896
H97	H	1.477729	0.124768	-0.236395
H98	H	1.977729	0.624768	0.263605
H99	H	1.684219	-0.150683	0.229978
H100	H	2.184219	0.349317	0.729978
O101	O	1.236180	-0.354659	0.130029
O102	O	1.736180	0.145341	0.630029
H103	H	1.172881	-0.309396	0.116885
H104	H	1.672881	0.190604	0.616885
O105	O	0.833608	0.145230	0.180140
O106	O	1.333608	0.645230	0.680140
H107	H	0.732151	0.142936	0.177647
H108	H	1.232151	0.642936	0.677647
H109	H	1.313524	-0.189828	0.345518
H110	H	1.813524	0.310172	0.845518
