data_functionalizedCrystal
_audit_creation_method	'MofGen! by Chris Wilmer'
_symmetry_space_group_name_H-M	'P1'
_symmetry_Int_Tables_number	1
_symmetry_cell_setting	triclinic
loop_
_symmetry_equiv_pos_as_xyz
  x,y,z
_cell_length_a	13.897449
_cell_length_b	13.897447
_cell_length_c	12.827885
_cell_angle_alpha	90.031004
_cell_angle_beta	90.022760
_cell_angle_gamma	90.020357
loop_
_atom_site_label
_atom_site_type_symbol
_atom_site_fract_x
_atom_site_fract_y
_atom_site_fract_z
Zn1	Zn	1.474684	-0.383947	0.590937
Zn2	Zn	1.808018	-0.050614	0.924270
Zn3	Zn	2.141351	0.282720	1.257604
Zn4	Zn	1.474575	-0.545273	0.416194
Zn5	Zn	1.807908	-0.211940	0.749527
Zn6	Zn	2.141242	0.121393	1.082860
Zn7	Zn	1.313375	-0.383996	0.416200
Zn8	Zn	1.646709	-0.050663	0.749533
Zn9	Zn	1.980042	0.282670	1.082867
Zn10	Zn	1.313350	-0.545204	0.590883
Zn11	Zn	1.646683	-0.211871	0.924216
Zn12	Zn	1.980017	0.121463	1.257550
O13	O	1.393996	-0.464605	0.503553
O14	O	1.727329	-0.131272	0.836887
O15	O	2.060663	0.202062	1.170220
O16	O	1.609651	-0.405356	0.567777
O17	O	1.942985	-0.072022	0.901110
O18	O	2.276318	0.261311	1.234444
O19	O	1.453156	-0.523929	0.269958
O20	O	1.786490	-0.190596	0.603292
O21	O	2.119823	0.142737	0.936625
O22	O	1.334830	-0.249008	0.439405
O23	O	1.668163	0.084325	0.772738
O24	O	2.001496	0.417659	1.106071
O25	O	1.609571	-0.523881	0.439394
O26	O	1.942904	-0.190548	0.772727
O27	O	2.276238	0.142785	1.106060
O28	O	1.453343	-0.248972	0.567783
O29	O	1.786676	0.084362	0.901117
O30	O	2.120009	0.417695	1.234450
O31	O	1.334723	-0.405440	0.269963
O32	O	1.668057	-0.072106	0.603296
O33	O	2.001390	0.261227	0.936630
O34	O	1.178390	-0.405372	0.439352
O35	O	1.511724	-0.072039	0.772686
O36	O	1.845057	0.261294	1.106019
O37	O	1.334787	-0.523763	0.737126
O38	O	1.668120	-0.190430	1.070460
O39	O	2.001453	0.142904	1.403793
O40	O	1.178372	-0.523811	0.567691
O41	O	1.511705	-0.190478	0.901024
O42	O	1.845038	0.142856	1.234358
O43	O	1.453318	-0.405288	0.737166
O44	O	1.786652	-0.071955	1.070499
O45	O	2.119985	0.261378	1.403833
O46	O	1.453132	-0.680246	0.439341
O47	O	1.786465	-0.346912	0.772675
O48	O	2.119798	-0.013579	1.106008
O49	O	1.334680	-0.680195	0.567685
O50	O	1.668014	-0.346861	0.901018
O51	O	2.001347	-0.013528	1.234351
C52	C	1.143382	-0.464590	0.503517
C53	C	1.476715	-0.131257	0.836850
C54	C	1.810048	0.202076	1.170184
C55	C	1.036168	-0.464607	0.503526
C56	C	1.369501	-0.131274	0.836860
C57	C	1.702835	0.202060	1.170193
C58	C	0.949098	-0.464610	0.503544
C59	C	1.282431	-0.131277	0.836877
C60	C	1.615765	0.202056	1.170210
C61	C	0.839866	-0.464617	0.503575
C62	C	1.173199	-0.131284	0.836909
C63	C	1.506532	0.202050	1.170242
C64	C	1.393918	-0.715219	0.503529
C65	C	1.727251	-0.381886	0.836863
C66	C	2.060584	-0.048553	1.170196
C67	C	1.393972	-0.822433	0.503554
C68	C	1.727306	-0.489100	0.836887
C69	C	2.060639	-0.155767	1.170221
C70	C	1.394019	-0.909503	0.503578
C71	C	1.727352	-0.576170	0.836911
C72	C	2.060686	-0.242836	1.170244
C73	C	1.394087	-1.018736	0.503605
C74	C	1.727420	-0.685402	0.836938
C75	C	2.060753	-0.352069	1.170271
C76	C	1.645589	-0.464621	0.503591
C77	C	1.978922	-0.131287	0.836924
C78	C	2.312256	0.202046	1.170257
C79	C	1.752803	-0.464627	0.503607
C80	C	2.086136	-0.131294	0.836940
C81	C	2.419470	0.202039	1.170273
C82	C	1.394062	-0.464512	0.776124
C83	C	1.727395	-0.131179	1.109457
C84	C	2.060728	0.202154	1.442790
C85	C	1.394090	-0.464473	0.892277
C86	C	1.727423	-0.131140	1.225610
C87	C	2.060756	0.202194	1.558944
C88	C	1.394101	-0.213012	0.503601
C89	C	1.727434	0.120321	0.836934
C90	C	2.060768	0.453655	1.170267
C91	C	1.394146	-0.105798	0.503621
C92	C	1.727479	0.227535	0.836954
C93	C	2.060813	0.560869	1.170287
C94	C	1.393986	-0.464628	0.232044
C95	C	1.727320	-0.131294	0.565377
C96	C	2.060653	0.202039	0.898710
C97	C	1.394145	-0.464395	0.115891
C98	C	1.727478	-0.131062	0.449224
C99	C	2.060812	0.202271	0.782558
C100	C	1.452749	-0.405836	0.944081
C101	C	1.786083	-0.072503	1.277415
C102	C	2.119416	0.260830	1.610748
C103	C	1.452780	-0.405794	1.064132
C104	C	1.786113	-0.072461	1.397465
C105	C	2.119446	0.260872	1.730799
H106	H	1.503003	-0.355596	1.108682
H107	H	1.836337	-0.022263	1.442016
H108	H	2.169670	0.311070	1.775349
H109	H	1.502944	-0.355663	0.899556
H110	H	1.836277	-0.022330	1.232890
H111	H	2.169611	0.311003	1.566223
H112	H	1.343925	-0.514603	1.071347
H113	H	1.677259	-0.181269	1.404681
H114	H	2.010592	0.152064	1.738014
H115	H	1.343885	-0.514636	0.936802
H116	H	1.677219	-0.181303	1.270135
H117	H	2.010552	0.152030	1.603469
