data_functionalizedCrystal
_audit_creation_method	'MofGen! by Chris Wilmer'
_symmetry_space_group_name_H-M	'P1'
_symmetry_Int_Tables_number	1
_symmetry_cell_setting	triclinic
loop_
_symmetry_equiv_pos_as_xyz
  x,y,z
_cell_length_a	19.121063
_cell_length_b	13.897449
_cell_length_c	19.121595
_cell_angle_alpha	87.542018
_cell_angle_beta	90.075983
_cell_angle_gamma	92.469882
loop_
_atom_site_label
_atom_site_type_symbol
_atom_site_fract_x
_atom_site_fract_y
_atom_site_fract_z
Zn1	Zn	-0.262198	1.483152	-0.408323
Zn2	Zn	0.071135	1.816486	-0.074990
Zn3	Zn	0.404468	2.149819	0.258343
Zn4	Zn	-0.384438	1.469293	-0.296079
Zn5	Zn	-0.051105	1.802626	0.037254
Zn6	Zn	0.282228	2.135960	0.370587
Zn7	Zn	-0.267220	1.314692	-0.291096
Zn8	Zn	0.066114	1.648025	0.042237
Zn9	Zn	0.399447	1.981359	0.375570
Zn10	Zn	-0.379404	1.315218	-0.413274
Zn11	Zn	-0.046071	1.648551	-0.079940
Zn12	Zn	0.287263	1.981885	0.253393
O13	O	-0.323315	1.395589	-0.352193
O14	O	0.010018	1.728922	-0.018860
O15	O	0.343352	2.062255	0.314473
O16	O	-0.278419	1.616296	-0.393448
O17	O	0.054914	1.949629	-0.060114
O18	O	0.388247	2.282962	0.273219
O19	O	-0.373098	1.442765	-0.197312
O20	O	-0.039764	1.776098	0.136021
O21	O	0.293569	2.109431	0.469354
O22	O	-0.168446	1.342619	-0.302490
O23	O	0.164887	1.675952	0.030843
O24	O	0.498221	2.009285	0.364177
O25	O	-0.368229	1.606114	-0.310982
O26	O	-0.034895	1.939447	0.022351
O27	O	0.298438	2.272780	0.355684
O28	O	-0.164757	1.466386	-0.388616
O29	O	0.168576	1.799719	-0.055283
O30	O	0.501910	2.133052	0.278051
O31	O	-0.286977	1.329180	-0.193651
O32	O	0.046356	1.662513	0.139682
O33	O	0.379689	1.995847	0.473015
O34	O	-0.282096	1.179780	-0.307290
O35	O	0.051238	1.513113	0.026043
O36	O	0.384571	1.846446	0.359377
O37	O	-0.359648	1.343515	-0.510723
O38	O	-0.026315	1.676848	-0.177390
O39	O	0.307019	2.010182	0.155944
O40	O	-0.364517	1.180166	-0.397053
O41	O	-0.031184	1.513499	-0.063720
O42	O	0.302150	1.846833	0.269614
O43	O	-0.273537	1.466896	-0.507086
O44	O	0.059796	1.800229	-0.173753
O45	O	0.393129	2.133562	0.159581
O46	O	-0.481878	1.443275	-0.315782
O47	O	-0.148545	1.776608	0.017551
O48	O	0.184789	2.109941	0.350884
O49	O	-0.478179	1.330076	-0.401884
O50	O	-0.144846	1.663410	-0.068551
O51	O	0.188487	1.996743	0.264782
C52	C	-0.323305	1.144974	-0.352168
C53	C	0.010028	1.478307	-0.018835
C54	C	0.343361	1.811640	0.314498
C55	C	-0.323317	1.037759	-0.352175
C56	C	0.010016	1.371093	-0.018842
C57	C	0.343349	1.704426	0.314492
C58	C	-0.323319	0.950690	-0.352187
C59	C	0.010014	1.284023	-0.018853
C60	C	0.343348	1.617357	0.314480
C61	C	-0.323323	0.841459	-0.352208
C62	C	0.010010	1.174792	-0.018875
C63	C	0.343343	1.508125	0.314458
C64	C	-0.505466	1.385256	-0.359927
C65	C	-0.172133	1.718589	-0.026593
C66	C	0.161200	2.051922	0.306740
C67	C	-0.583390	1.380925	-0.363258
C68	C	-0.250057	1.714258	-0.029925
C69	C	0.083276	2.047591	0.303408
C70	C	-0.621900	1.437877	-0.320032
C71	C	-0.288567	1.771210	0.013301
C72	C	0.044767	2.104543	0.346635
C73	C	-0.695118	1.433809	-0.323170
C74	C	-0.361784	1.767143	0.010164
C75	C	-0.028451	2.100476	0.343497
C76	C	-0.729824	1.372785	-0.369531
C77	C	-0.396491	1.706118	-0.036197
C78	C	-0.063158	2.039451	0.297136
C79	C	-0.691309	1.315831	-0.412762
C80	C	-0.357976	1.649164	-0.079428
C81	C	-0.024642	1.982497	0.253905
C82	C	-0.618093	1.319904	-0.409627
C83	C	-0.284759	1.653237	-0.076294
C84	C	0.048574	1.986570	0.257040
C85	C	-0.950795	1.357541	-0.381239
C86	C	-0.617462	1.690874	-0.047906
C87	C	-0.284128	2.024207	0.285427
C88	C	-1.024017	1.353470	-0.384369
C89	C	-0.690684	1.686803	-0.051036
C90	C	-0.357350	2.020136	0.282297
C91	C	-1.027820	1.471450	-0.294778
C92	C	-0.694487	1.804784	0.038555
C93	C	-0.361154	2.138117	0.371889
C94	C	-0.954602	1.475514	-0.291644
C95	C	-0.621269	1.808847	0.041689
C96	C	-0.287936	2.142180	0.375022
C97	C	-0.916094	1.418564	-0.334878
C98	C	-0.582760	1.751897	-0.001545
C99	C	-0.249427	2.085230	0.331789
C100	C	-0.804664	1.368624	-0.372738
C101	C	-0.471331	1.701957	-0.039404
C102	C	-0.137998	2.035290	0.293929
C103	C	-0.841255	1.422730	-0.331674
C104	C	-0.507921	1.756064	0.001659
C105	C	-0.174588	2.089397	0.334992
C106	C	-0.140452	1.405990	-0.344445
C107	C	0.192881	1.739323	-0.011112
C108	C	0.526215	2.072656	0.322222
C109	C	-0.062527	1.410422	-0.341143
C110	C	0.270807	1.743755	-0.007810
C111	C	0.604140	2.077088	0.325524
C112	C	-0.315471	1.406810	-0.535054
C113	C	0.017862	1.740143	-0.201720
C114	C	0.351196	2.073476	0.131613
C115	C	-0.312128	1.411592	-0.612978
C116	C	0.021205	1.744925	-0.279644
C117	C	0.354538	2.078258	0.053689
C118	C	-0.323325	1.647183	-0.352219
C119	C	0.010008	1.980516	-0.018885
C120	C	0.343341	2.313849	0.314448
C121	C	-0.323330	1.754397	-0.352229
C122	C	0.010004	2.087730	-0.018896
C123	C	0.343337	2.421064	0.314437
C124	C	-0.355387	1.349602	-0.651481
C125	C	-0.022054	1.682935	-0.318148
C126	C	0.311279	2.016269	0.015185
C127	C	-0.352247	1.354103	-0.724699
C128	C	-0.018913	1.687436	-0.391366
C129	C	0.314420	2.020769	-0.058033
C130	C	-0.305842	1.420589	-0.759412
C131	C	0.027491	1.753923	-0.426079
C132	C	0.360824	2.087256	-0.092746
C133	C	-0.262581	1.482586	-0.720904
C134	C	0.070752	1.815919	-0.387570
C135	C	0.404085	2.149252	-0.054237
C136	C	-0.265726	1.478089	-0.647687
C137	C	0.067607	1.811422	-0.314354
C138	C	0.400940	2.144755	0.018979
C139	C	-0.294107	1.437385	-0.980385
C140	C	0.039226	1.770719	-0.647051
C141	C	0.372559	2.104052	-0.313718
C142	C	-0.290964	1.441876	-1.053606
C143	C	0.042369	1.775209	-0.720273
C144	C	0.375703	2.108542	-0.386940
C145	C	-0.380631	1.313393	-1.057397
C146	C	-0.047297	1.646727	-0.724064
C147	C	0.286036	1.980060	-0.390730
C148	C	-0.383768	1.308898	-0.984179
C149	C	-0.050435	1.642232	-0.650845
C150	C	0.282898	1.975565	-0.317512
C151	C	-0.340510	1.370898	-0.945676
C152	C	-0.007177	1.704231	-0.612343
C153	C	0.326157	2.037565	-0.279010
C154	C	-0.302629	1.425190	-0.834253
C155	C	0.030704	1.758523	-0.500920
C156	C	0.364037	2.091856	-0.167586
C157	C	-0.343727	1.366302	-0.870837
C158	C	-0.010394	1.699635	-0.537504
C159	C	0.322939	2.032969	-0.204171
C160	C	-0.331078	1.384470	-0.170042
C161	C	0.002255	1.717803	0.163291
C162	C	0.335589	2.051136	0.496625
C163	C	-0.334223	1.379886	-0.092110
C164	C	-0.000890	1.713219	0.241224
C165	C	0.332443	2.046553	0.574557
H166	H	-0.593647	1.487565	-0.282277
H167	H	-0.260314	1.820898	0.051056
H168	H	0.073020	2.154232	0.384390
H169	H	-0.726469	1.480185	-0.287970
H170	H	-0.393136	1.813518	0.045364
H171	H	-0.059803	2.146852	0.378697
H172	H	-0.926346	1.525205	-0.253894
H173	H	-0.593013	1.858538	0.079440
H174	H	-0.259679	2.191872	0.412773
H175	H	-1.059182	1.517817	-0.259581
H176	H	-0.725849	1.851151	0.073753
H177	H	-0.392515	2.184484	0.407086
H178	H	-0.586738	1.273529	-0.444827
H179	H	-0.253405	1.606862	-0.111494
H180	H	0.079928	1.940195	0.221839
H181	H	-0.812994	1.472421	-0.293930
H182	H	-0.479661	1.805754	0.039404
H183	H	-0.146328	2.139087	0.372737
H184	H	-1.052272	1.303788	-0.422134
H185	H	-0.718939	1.637122	-0.088801
H186	H	-0.385606	1.970455	0.244532
H187	H	-0.919447	1.311168	-0.416441
H188	H	-0.586114	1.644501	-0.083107
H189	H	-0.252780	1.977834	0.250226
H190	H	-0.253170	1.496014	-1.081867
H191	H	0.080164	1.829348	-0.748534
H192	H	0.413497	2.162681	-0.415201
H193	H	-0.387474	1.303625	-0.756046
H194	H	-0.054140	1.636959	-0.422713
H195	H	0.279193	1.970292	-0.089379
H196	H	-0.719573	1.266147	-0.450513
H197	H	-0.386240	1.599481	-0.117180
H198	H	-0.052906	1.932814	0.216154
H199	H	-0.832931	1.318935	-0.410483
H200	H	-0.499597	1.652268	-0.077150
H201	H	-0.166264	1.985602	0.256183
H202	H	-0.224801	1.536725	-0.749173
H203	H	0.108532	1.870058	-0.415840
H204	H	0.441866	2.203392	-0.082506
H205	H	-0.258883	1.487870	-0.949045
H206	H	0.074450	1.821204	-0.615711
H207	H	0.407783	2.154537	-0.282378
H208	H	-0.264846	1.479322	-0.862525
H209	H	0.068488	1.812656	-0.529191
H210	H	0.401821	2.145989	-0.195858
H211	H	-0.393167	1.295450	-0.623223
H212	H	-0.059833	1.628783	-0.289890
H213	H	0.273500	1.962117	0.043444
H214	H	-0.230500	1.528567	-0.616338
H215	H	0.102834	1.861901	-0.283005
H216	H	0.436167	2.195234	0.050328
H217	H	-0.421567	1.254773	-0.955921
H218	H	-0.088233	1.588106	-0.622588
H219	H	0.245100	1.921439	-0.289254
H220	H	-0.415849	1.262917	-1.088753
H221	H	-0.082516	1.596250	-0.755420
H222	H	0.250817	1.929584	-0.422087
H223	H	-0.381512	1.312172	-0.842571
H224	H	-0.048179	1.645506	-0.509238
H225	H	0.285155	1.978839	-0.175904
