data_functionalizedCrystal
_audit_creation_method	'MofGen! by Chris Wilmer'
_symmetry_space_group_name_H-M	'P1'
_symmetry_Int_Tables_number	1
_symmetry_cell_setting	triclinic
loop_
_symmetry_equiv_pos_as_xyz
  x,y,z
_cell_length_a	19.288864
_cell_length_b	13.339070
_cell_length_c	18.366186
_cell_angle_alpha	89.997828
_cell_angle_beta	89.977106
_cell_angle_gamma	99.382770
loop_
_atom_site_label
_atom_site_type_symbol
_atom_site_fract_x
_atom_site_fract_y
_atom_site_fract_z
O1	O	0.945923	0.126087	-0.060787
O2	O	1.445923	0.626087	0.439213
O3	O	0.746977	0.143095	-0.060738
O4	O	1.246977	0.643095	0.439262
O5	O	0.823618	-0.012569	-0.060755
O6	O	1.323618	0.487431	0.439245
O7	O	0.869283	0.281750	-0.060770
O8	O	1.369283	0.781750	0.439230
O9	O	0.823598	-0.012576	0.060345
O10	O	1.323598	0.487424	0.560345
O11	O	0.746958	0.143088	0.060362
O12	O	1.246958	0.643088	0.560362
O13	O	0.945904	0.126079	0.060312
O14	O	1.445904	0.626079	0.560312
Zn15	Zn	0.846427	0.134582	0.079564
Zn16	Zn	1.346427	0.634582	0.579564
Zn17	Zn	0.846453	0.134592	-0.079989
Zn18	Zn	1.346453	0.634592	0.420011
O19	O	0.869263	0.281743	0.060329
O20	O	1.369263	0.781743	0.560329
C21	C	0.720984	0.142544	-0.000182
C22	C	1.220984	0.642544	0.499818
C23	C	0.643560	0.140901	-0.000162
C24	C	1.143560	0.640901	0.499838
C25	C	0.616663	0.232238	-0.000179
C26	C	1.116663	0.732238	0.499821
C27	C	0.543915	0.230694	-0.000187
C28	C	1.043915	0.730694	0.499813
C29	C	0.498067	0.137809	-0.000193
C30	C	0.998067	0.637809	0.499807
C31	C	0.524972	0.046461	-0.000173
C32	C	1.024972	0.546461	0.499827
C33	C	0.597719	0.048007	-0.000157
C34	C	1.097719	0.548007	0.499843
C35	C	0.375583	0.064794	-0.042640
C36	C	0.875583	0.564794	0.457360
C37	C	0.302838	0.063252	-0.042660
C38	C	0.802838	0.563252	0.457340
C39	C	0.273691	0.133037	-0.000237
C40	C	0.773691	0.633037	0.499763
C41	C	0.317301	0.204382	0.042197
C42	C	0.817301	0.704382	0.542197
C43	C	0.390048	0.205928	0.042212
C44	C	0.890048	0.705928	0.542212
C45	C	0.419184	0.136123	-0.000209
C46	C	0.919184	0.636123	0.499791
C47	C	0.167913	0.222706	-0.000261
C48	C	0.667913	0.722706	0.499739
C49	C	0.095163	0.221159	-0.000264
C50	C	0.595163	0.721159	0.499736
C51	C	0.076222	0.036923	-0.000257
C52	C	0.576222	0.536923	0.499743
C53	C	0.148970	0.038473	-0.000247
C54	C	0.648970	0.538473	0.499753
C55	C	0.194812	0.131367	-0.000252
C56	C	0.694812	0.631367	0.499748
C57	C	0.815894	-0.050226	-0.000204
C58	C	1.315894	0.449774	0.499796
C59	C	0.792901	-0.162423	-0.000201
C60	C	1.292901	0.337577	0.499799
C61	C	0.971681	-0.528031	-0.000245
C62	C	1.471681	-0.028031	0.499755
C63	C	0.993286	-0.422617	-0.000244
C64	C	1.493286	0.077383	0.499756
C65	C	0.943192	-0.357563	-0.000233
C66	C	1.443192	0.142437	0.499767
C67	C	0.871489	-0.397934	-0.000224
C68	C	1.371489	0.102066	0.499776
C69	C	0.849881	-0.503359	-0.000220
C70	C	1.349881	-0.003359	0.499780
C71	C	0.821392	-0.332891	-0.000208
C72	C	1.321392	0.167109	0.499792
C73	C	0.749689	-0.373262	-0.000198
C74	C	1.249689	0.126738	0.499802
C75	C	0.728085	-0.478677	-0.000195
C76	C	1.228085	0.021323	0.499805
C77	C	0.778180	-0.543730	-0.000205
C78	C	1.278180	-0.043730	0.499795
C79	C	0.842999	-0.227467	-0.000212
C80	C	1.342999	0.272533	0.499788
C81	C	0.721199	-0.202795	-0.000187
C82	C	1.221199	0.297205	0.499813
C83	C	0.699594	-0.308209	-0.000188
C84	C	1.199594	0.191791	0.499812
C85	C	0.971897	0.126630	-0.000245
C86	C	1.471897	0.626630	0.499755
C87	C	1.049320	0.128273	-0.000269
C88	C	1.549320	0.628273	0.499731
C89	C	0.876987	0.319401	-0.000223
C90	C	1.376987	0.819401	0.499777
C91	C	0.899980	0.431598	-0.000231
C92	C	1.399980	0.931598	0.499769
N93	N	0.846415	0.134575	0.188455
N94	N	1.346415	0.634575	0.688455
N95	N	0.846470	0.134592	-0.188881
N96	N	1.346470	0.634592	0.311119
C97	C	0.880373	0.065680	0.226548
C98	C	1.380373	0.565680	0.726548
C99	C	0.880377	0.065676	0.302776
C100	C	1.380377	0.565676	0.802776
C101	C	0.846432	0.134583	0.340908
C102	C	1.346432	0.634583	0.840908
C103	C	0.812466	0.203482	0.302806
C104	C	1.312466	0.703482	0.802806
C105	C	0.812457	0.203478	0.226580
C106	C	1.312457	0.703478	0.726580
C107	C	0.855080	0.226676	0.461665
C108	C	1.355080	0.726676	0.961665
C109	C	0.855093	0.226682	0.537890
C110	C	1.355093	0.726682	1.037890
C111	C	0.846454	0.134596	0.576016
C112	C	1.346454	0.634596	1.076016
C113	C	0.837815	0.042500	0.537907
C114	C	1.337815	0.542500	1.037907
C115	C	0.837806	0.042496	0.461681
C116	C	1.337806	0.542496	0.961681
C117	C	0.846437	0.134595	0.423563
C118	C	1.346437	0.634595	0.923563
C119	C	0.880418	0.065691	0.696763
C120	C	1.380418	0.565691	1.196763
C121	C	0.880416	0.065685	0.772993
C122	C	1.380416	0.565685	1.272993
C123	C	0.812510	0.203500	0.773021
C124	C	1.312510	0.703500	1.273021
C125	C	0.812507	0.203497	0.696793
C126	C	1.312507	0.703497	1.196793
C127	C	0.846464	0.134594	0.658669
C128	C	1.346464	0.634594	1.158669
H129	H	0.205239	0.298346	-0.000254
H130	H	0.705239	0.798346	0.499746
N131	N	0.626735	-0.050510	-0.000136
N132	N	1.126735	0.449490	0.499864
H133	H	0.586654	-0.109589	-0.000138
H134	H	1.086654	0.390411	0.499862
H135	H	0.656530	-0.053881	-0.045023
H136	H	1.156530	0.446119	0.454977
N137	N	1.025706	-0.598191	-0.000243
N138	N	1.525706	-0.098191	0.499757
H139	H	1.001136	-0.671098	-0.000235
H140	H	1.501136	-0.171098	0.499765
H141	H	1.056089	-0.585158	-0.045140
H142	H	1.556089	-0.085158	0.454860
H143	H	0.862104	0.301669	0.430629
H144	H	1.362104	0.801669	0.930629
H145	H	0.760592	-0.629568	-0.000209
H146	H	1.260592	-0.129568	0.499791
H147	H	0.901380	-0.194607	-0.000219
H148	H	1.401380	0.305393	0.499781
N149	N	0.255806	-0.013691	-0.088426
N150	N	0.755806	0.486309	0.411574
H151	H	0.285306	-0.057674	-0.115291
H152	H	0.785306	0.442326	0.384709
H153	H	0.221148	-0.057667	-0.055884
H154	H	0.721148	0.442333	0.444116
N155	N	0.917059	-0.008609	0.814083
N156	N	1.417059	0.491391	1.314083
H157	H	0.938576	-0.052248	0.778361
H158	H	1.438576	0.447752	1.278361
H159	H	0.955196	0.030003	0.845681
H160	H	1.455196	0.530003	1.345681
N161	N	0.775880	0.277812	0.655709
N162	N	1.275880	0.777812	1.155709
H163	H	0.797696	0.349520	0.668960
H164	H	1.297696	0.849520	1.168960
H165	H	0.781030	0.267268	0.601646
H166	H	1.281030	0.767268	1.101646
H167	H	0.399307	0.007964	-0.077190
H168	H	0.899307	0.507964	0.422810
H169	H	0.908021	0.009573	0.195510
H170	H	1.408021	0.509573	0.695510
N171	N	0.514895	0.329213	-0.000216
N172	N	1.014895	0.829213	0.499784
H173	H	0.461854	0.314135	-0.000227
H174	H	0.961854	0.814135	0.499773
H175	H	0.531718	0.369717	0.044674
H176	H	1.031718	0.869717	0.544674
H177	H	0.862132	0.301671	0.568912
H178	H	1.362132	0.801671	1.068912
N179	N	0.066149	0.319677	-0.000224
N180	N	0.566149	0.819677	0.499776
H181	H	0.106231	0.378755	-0.000209
H182	H	0.606231	0.878755	0.499791
H183	H	0.036386	0.323096	-0.045104
H184	H	0.536386	0.823096	0.454896
H185	H	0.653984	0.307880	-0.000184
H186	H	1.153984	0.807880	0.499816
H187	H	0.908031	0.009572	0.333797
H188	H	1.408031	0.509572	0.833797
N189	N	1.070615	-0.379065	-0.000267
N190	N	1.570615	0.120935	0.499733
H191	H	1.082287	-0.335881	0.044621
H192	H	1.582287	0.164119	0.544621
H193	H	1.099025	-0.436319	-0.000305
H194	H	1.599025	0.063681	0.499695
H195	H	0.425551	0.264016	0.076765
H196	H	0.925551	0.764016	0.576765
N197	N	0.650750	-0.522224	-0.000164
N198	N	1.150750	-0.022224	0.499836
H199	H	0.622293	-0.465020	-0.000156
H200	H	1.122293	0.034980	0.499844
H201	H	0.639135	-0.565425	-0.045051
H202	H	1.139135	-0.065425	0.454949
H203	H	0.641212	-0.341094	-0.000180
H204	H	1.141212	0.158906	0.499820
N205	N	0.285878	0.279663	0.087953
N206	N	0.785878	0.779663	0.587953
H207	H	0.233176	0.267859	0.081509
H208	H	0.733176	0.767859	0.581509
H209	H	0.297595	0.270483	0.140876
H210	H	0.797595	0.770483	0.640876
H211	H	0.830780	-0.032485	0.568947
H212	H	1.330780	0.467515	1.068947
N213	N	0.667162	-0.132643	-0.000167
N214	N	1.167162	0.367357	0.499833
H215	H	0.691729	-0.059736	-0.000171
H216	H	1.191729	0.440264	0.499829
H217	H	0.636797	-0.145673	-0.045051
H218	H	1.136797	0.354327	0.454949
H219	H	0.038893	-0.038706	-0.000308
H220	H	0.538893	0.461294	0.499692
N221	N	0.966491	-0.243866	-0.000236
N222	N	1.466491	0.256134	0.499764
H223	H	1.019515	-0.228162	-0.000247
H224	H	1.519515	0.271838	0.499753
H225	H	0.947748	-0.213705	-0.045129
H226	H	1.447748	0.286295	0.454871
H227	H	0.170869	-0.035904	-0.000237
H228	H	0.670869	0.464096	0.499763
H229	H	0.830770	-0.032491	0.430656
H230	H	1.330770	0.467509	0.930656
N231	N	0.917039	-0.008624	0.655637
N232	N	1.417039	0.491376	1.155637
H233	H	0.938548	-0.052276	0.691339
H234	H	1.438548	0.447724	1.191339
H235	H	0.881856	-0.053209	0.624027
H236	H	1.381856	0.446791	1.124027
N237	N	0.775890	0.277816	0.814138
N238	N	1.275890	0.777816	1.314138
H239	H	0.781046	0.267364	0.868208
H240	H	1.281046	0.767364	1.368208
H241	H	0.797721	0.349491	0.800801
H242	H	1.297721	0.849491	1.300801
H243	H	0.784803	0.259581	0.195564
H244	H	1.284803	0.759581	0.695564
N245	N	0.475527	-0.053724	-0.000171
N246	N	0.975527	0.446276	0.499829
H247	H	0.425360	-0.040845	-0.000184
H248	H	0.925360	0.459155	0.499816
H249	H	0.484131	-0.093682	-0.045057
H250	H	0.984131	0.406318	0.454943
N251	N	0.775848	0.277800	0.343928
N252	N	1.275848	0.777800	0.843928
H253	H	0.781008	0.267350	0.397999
H254	H	1.281008	0.767350	0.897999
H255	H	0.797677	0.349474	0.330589
H256	H	1.297677	0.849474	0.830589
