data_functionalizedCrystal
_audit_creation_method	'MofGen! by Chris Wilmer'
_symmetry_space_group_name_H-M	'P1'
_symmetry_Int_Tables_number	1
_symmetry_cell_setting	triclinic
loop_
_symmetry_equiv_pos_as_xyz
  x,y,z
_cell_length_a	12.594516
_cell_length_b	12.759395
_cell_length_c	12.759387
_cell_angle_alpha	90.022941
_cell_angle_beta	89.971510
_cell_angle_gamma	89.985694
loop_
_atom_site_label
_atom_site_type_symbol
_atom_site_fract_x
_atom_site_fract_y
_atom_site_fract_z
Zn1	Zn	-0.423736	-1.606259	-0.594090
Zn2	Zn	-0.601753	-1.606145	-0.418418
Zn3	Zn	-0.423783	-1.430557	-0.418419
Zn4	Zn	-0.601667	-1.430545	-0.594049
O5	O	-0.512735	-1.518377	-0.506244
O6	O	-0.447366	-1.753265	-0.570803
O7	O	-0.578201	-1.582811	-0.271397
O8	O	-0.274831	-1.453917	-0.441740
O9	O	-0.578154	-1.753181	-0.441737
O10	O	-0.274796	-1.583004	-0.570805
O11	O	-0.447447	-1.453807	-0.271398
O12	O	-0.447364	-1.283534	-0.441701
O13	O	-0.578008	-1.453897	-0.741076
O14	O	-0.578054	-1.283526	-0.570735
O15	O	-0.447283	-1.582993	-0.741106
O16	O	-0.750687	-1.582799	-0.441698
O17	O	-0.750624	-1.453787	-0.570733
C18	C	-0.512706	-1.245409	-0.506214
C19	C	-0.512719	-1.128632	-0.506227
C20	C	-0.376763	-0.909284	-0.640868
C21	C	-0.308769	-0.964194	-0.708164
C22	C	-0.308756	-1.073916	-0.708149
C23	C	-0.376746	-1.128730	-0.640833
C24	C	-0.444739	-1.073820	-0.573537
C25	C	-0.444743	-0.964096	-0.573557
C26	C	-0.580713	-1.073723	-0.438931
C27	C	-0.580722	-0.964001	-0.438938
C28	C	-0.648703	-1.128537	-0.371615
C29	C	-0.716692	-1.073628	-0.304312
C30	C	-0.716702	-0.963899	-0.304329
C31	C	-0.648716	-0.909091	-0.371642
C32	C	-0.789276	-1.518308	-0.506234
C33	C	-0.907581	-1.518374	-0.506265
C34	C	-0.976839	-1.448198	-0.576398
C35	C	-1.047707	-1.422596	-0.480530
C36	C	-1.047512	-1.544072	-0.602149
C37	C	-0.976891	-1.492722	-0.410346
C38	C	-0.976690	-1.614242	-0.532030
C39	C	-1.047526	-1.588677	-0.436096
C40	C	-0.235114	-1.518474	-0.506277
C41	C	-0.116808	-1.518516	-0.506292
C42	C	-0.512630	-1.518456	-0.780278
C43	C	-0.512586	-1.518490	-0.897054
C44	C	-0.512753	-0.792410	-0.506266
C45	C	-0.512733	-0.909187	-0.506254
C46	C	-0.376470	-1.652927	-0.897106
C47	C	-0.308397	-1.720160	-0.951992
C48	C	-0.308358	-1.720185	-1.061714
C49	C	-0.376398	-1.652968	-1.116551
C50	C	-0.444472	-1.585735	-1.061665
C51	C	-0.444505	-1.585719	-0.951941
C52	C	-0.580580	-1.451295	-1.061614
C53	C	-0.580626	-1.451273	-0.951892
C54	C	-0.648620	-1.384078	-1.116452
C55	C	-0.716701	-1.316848	-1.061566
C56	C	-0.716738	-1.316826	-0.951837
C57	C	-0.648700	-1.384040	-0.897006
C58	C	-0.512762	-1.518358	-0.233277
C59	C	-0.512506	-1.518528	-0.116500
H60	H	-0.376744	-0.819943	-0.640863
H61	H	-0.772076	-0.919198	-0.249532
H62	H	-0.648580	-1.384099	-1.205793
H63	H	-0.253416	-0.919552	-0.762973
H64	H	-0.945475	-1.695232	-0.553846
H65	H	-0.376351	-1.652986	-1.205893
H66	H	-0.252920	-1.774926	-1.106402
H67	H	-0.648704	-0.819750	-0.371649
H68	H	-0.945800	-1.388745	-0.635621
H69	H	-0.252998	-1.774884	-0.907331
H70	H	-1.078925	-1.341588	-0.458760
H71	H	-0.772088	-1.262120	-1.106223
H72	H	-0.945998	-1.470951	-0.329246
H73	H	-1.078368	-1.648084	-0.376729
H74	H	-1.078533	-1.565749	-0.683226
H75	H	-0.648693	-1.217878	-0.371614
H76	H	-0.772049	-1.118266	-0.249514
H77	H	-0.376505	-1.652922	-0.807764
H78	H	-0.376738	-1.218071	-0.640837
H79	H	-0.648727	-1.384033	-0.807665
H80	H	-0.253391	-1.118623	-0.762949
H81	H	-0.772160	-1.262065	-0.907155
