data_functionalizedCrystal
_audit_creation_method	'MofGen! by Chris Wilmer'
_symmetry_space_group_name_H-M	'P1'
_symmetry_Int_Tables_number	1
_symmetry_cell_setting	triclinic
loop_
_symmetry_equiv_pos_as_xyz
  x,y,z
_cell_length_a	12.759401
_cell_length_b	12.759399
_cell_length_c	12.759393
_cell_angle_alpha	89.968645
_cell_angle_beta	89.979434
_cell_angle_gamma	90.021845
loop_
_atom_site_label
_atom_site_type_symbol
_atom_site_fract_x
_atom_site_fract_y
_atom_site_fract_z
Zn1	Zn	-1.606201	0.418266	0.594003
Zn2	Zn	-1.606065	0.593981	0.418321
Zn3	Zn	-1.430500	0.418311	0.418340
Zn4	Zn	-1.430464	0.593898	0.593959
O5	O	-1.518308	0.506114	0.506156
O6	O	-1.753204	0.441591	0.570709
O7	O	-1.582734	0.570732	0.271302
O8	O	-1.453879	0.271284	0.441668
O9	O	-1.753104	0.570688	0.441636
O10	O	-1.582966	0.271251	0.570728
O11	O	-1.453747	0.441669	0.271316
O12	O	-1.283474	0.441587	0.441625
O13	O	-1.453818	0.570546	0.740986
O14	O	-1.283448	0.570590	0.570652
O15	O	-1.582931	0.441510	0.741019
O16	O	-1.582699	0.740991	0.441593
O17	O	-1.453686	0.740930	0.570634
C18	C	-1.245340	0.506085	0.506137
C19	C	-1.128564	0.506098	0.506153
C20	C	-1.518203	0.779081	0.506130
C21	C	-1.518254	0.895858	0.506154
C22	C	-1.073754	0.438997	0.573465
C23	C	-0.964030	0.439003	0.573470
C24	C	-0.963934	0.573222	0.438850
C25	C	-1.073656	0.573210	0.438840
C26	C	-1.518386	0.506013	0.780189
C27	C	-1.518420	0.505970	0.896966
C28	C	-0.792341	0.506134	0.506172
C29	C	-0.909117	0.506117	0.506168
C30	C	-1.585431	0.950613	0.573411
C31	C	-1.585473	1.060337	0.573436
C32	C	-1.451157	1.060542	0.438939
C33	C	-1.451110	0.950820	0.438919
C34	C	-1.518402	1.232081	0.506198
C35	C	-1.518342	1.115304	0.506199
C36	C	-1.518290	0.506139	0.233188
C37	C	-1.518460	0.505886	0.116412
C38	C	-1.585654	0.438770	0.951847
C39	C	-1.585672	0.438725	1.061571
C40	C	-1.451218	0.573089	1.061524
C41	C	-1.451196	0.573128	0.951802
H42	H	-1.118457	0.384347	0.628272
H43	H	-1.396438	0.627849	0.907117
Br44	Br	-1.676552	0.876025	0.664658
H45	H	-1.640389	0.384083	0.907202
Br46	Br	-1.676930	0.347529	1.136048
H47	H	-0.919409	0.384361	0.628280
Br48	Br	-0.889411	0.664299	0.347502
Br49	Br	-1.359994	0.664230	1.135951
Br50	Br	-1.676638	1.134643	0.664726
H51	H	-1.396493	1.105305	0.384197
Br52	Br	-1.148047	0.664268	0.347468
H53	H	-1.396401	0.906236	0.384151
