data_functionalizedCrystal
_audit_creation_method	'MofGen! by Chris Wilmer'
_symmetry_space_group_name_H-M	'P1'
_symmetry_Int_Tables_number	1
_symmetry_cell_setting	triclinic
loop_
_symmetry_equiv_pos_as_xyz
  x,y,z
_cell_length_a	15.944551
_cell_length_b	16.776229
_cell_length_c	17.699083
_cell_angle_alpha	90.007545
_cell_angle_beta	96.609124
_cell_angle_gamma	89.997350
loop_
_atom_site_label
_atom_site_type_symbol
_atom_site_fract_x
_atom_site_fract_y
_atom_site_fract_z
O1	O	1.114322	-0.066207	-0.097616
O2	O	0.869747	-0.066227	-0.109651
O3	O	0.998944	-0.066209	0.006544
O4	O	0.985125	-0.066224	-0.213811
O5	O	0.998927	0.066367	0.006551
O6	O	0.869730	0.066350	-0.109643
O7	O	1.114305	0.066370	-0.097609
Zn8	Zn	0.992015	0.087409	-0.103625
Zn9	Zn	0.992037	-0.087266	-0.103634
O10	O	0.985107	0.066352	-0.213803
C11	C	0.838445	0.000059	-0.109147
C12	C	0.745203	0.000052	-0.107650
N13	N	0.992005	0.206620	-0.103618
N14	N	0.992053	-0.206477	-0.103635
C15	C	0.530505	0.000072	-0.032046
C16	C	0.469419	-0.065297	-0.067158
C17	C	0.574482	0.000061	-0.104940
C18	C	0.469425	0.065413	-0.067168
C19	C	0.409575	0.000074	-0.102317
C20	C	0.514625	-0.065362	-0.140071
C21	C	0.514637	0.065406	-0.140071
C22	C	0.453569	0.000021	-0.175235
C23	C	0.669481	0.000053	-0.106449
C24	C	0.314577	0.000076	-0.100814
C25	C	1.145606	0.000082	-0.098112
C26	C	1.238849	0.000084	-0.099610
C27	C	0.998440	0.000079	0.034746
C28	C	0.996955	0.000079	0.118766
C29	C	1.049231	0.248345	-0.052188
C30	C	1.049236	0.331797	-0.052187
C31	C	0.992018	0.373523	-0.103621
C32	C	0.934786	0.331793	-0.155053
C33	C	0.934778	0.248342	-0.155050
C34	C	0.934816	0.668340	-0.155068
C35	C	0.934830	0.751796	-0.155069
C36	C	1.049274	0.751795	-0.052206
C37	C	1.049266	0.668345	-0.052202
C38	C	0.992032	0.626621	-0.103632
C39	C	0.992026	0.536133	-0.103631
C40	C	0.992027	0.464010	-0.103626
C41	C	0.985611	0.000062	-0.242005
C42	C	0.987097	0.000057	-0.326026
C43	C	1.072791	0.000087	0.167258
C44	C	1.071390	0.000080	0.246203
C45	C	0.994152	0.000071	0.276656
C46	C	0.918310	0.000061	0.228158
C47	C	0.919712	0.000063	0.149214
C48	C	0.912656	0.000054	0.546531
C49	C	0.911260	0.000055	0.625481
C50	C	1.064334	0.000071	0.643520
C51	C	1.065735	0.000073	0.564576
C52	C	0.989894	0.000059	0.516085
C53	C	0.991414	0.000065	0.430484
C54	C	0.992632	0.000070	0.362256
H55	H	0.563965	-0.000004	0.028449
H56	H	0.534696	0.120670	-0.170873
H57	H	1.095861	0.634374	-0.010323
H58	H	1.126087	0.000078	0.683011
H59	H	0.888194	0.365771	-0.196929
H60	H	0.449381	-0.120559	-0.036330
H61	H	1.135687	0.000099	0.142470
H62	H	0.420283	-0.000020	-0.235793
H63	H	0.888234	0.785768	-0.196954
H64	H	0.848360	0.000049	0.650272
H65	H	0.850901	0.000043	0.507059
H66	H	1.133144	0.000087	0.285683
H67	H	1.128630	0.000084	0.539786
H68	H	0.888178	0.214370	-0.196928
H69	H	0.449396	0.120676	-0.036320
H70	H	0.855422	0.000049	0.252959
H71	H	0.534555	-0.120688	-0.170882
H72	H	1.095833	0.365770	-0.010309
H73	H	1.095828	0.214378	-0.010308
H74	H	0.888215	0.634375	-0.196945
H75	H	1.095875	0.785775	-0.010327
H76	H	0.857958	0.000056	0.109733
