data_functionalizedCrystal
_audit_creation_method	'MofGen! by Chris Wilmer'
_symmetry_space_group_name_H-M	'P1'
_symmetry_Int_Tables_number	1
_symmetry_cell_setting	triclinic
loop_
_symmetry_equiv_pos_as_xyz
  x,y,z
_cell_length_a	21.395362
_cell_length_b	21.295417
_cell_length_c	21.395356
_cell_angle_alpha	89.969378
_cell_angle_beta	89.957023
_cell_angle_gamma	90.046383
loop_
_atom_site_label
_atom_site_type_symbol
_atom_site_fract_x
_atom_site_fract_y
_atom_site_fract_z
Zn1	Zn	0.957854	-0.250358	-0.354573
Zn2	Zn	1.457854	0.249642	0.145427
Zn3	Zn	0.957759	-0.355627	-0.249790
Zn4	Zn	1.457759	0.144373	0.250210
Zn5	Zn	0.853071	-0.250404	-0.249774
Zn6	Zn	1.353071	0.249596	0.250226
Zn7	Zn	0.853039	-0.355623	-0.354495
Zn8	Zn	1.353039	0.144377	0.145505
O9	O	0.905431	-0.303003	-0.302158
O10	O	1.405431	0.196997	0.197842
O11	O	1.045520	-0.264305	-0.340713
O12	O	1.545520	0.235695	0.159287
O13	O	0.943846	-0.341690	-0.162110
O14	O	1.443846	0.158310	0.337890
O15	O	0.867024	-0.162309	-0.263702
O16	O	1.367024	0.337691	0.236298
O17	O	1.045450	-0.341645	-0.263729
O18	O	1.545450	0.158355	0.236271
O19	O	0.944008	-0.162275	-0.340697
O20	O	1.444008	0.337725	0.159303
O21	O	0.866932	-0.264383	-0.162098
O22	O	1.366932	0.235617	0.337902
O23	O	0.765389	-0.264380	-0.263626
O24	O	1.265389	0.235620	0.236374
O25	O	0.866969	-0.341638	-0.442183
O26	O	1.366969	0.158362	0.057817
O27	O	0.765365	-0.341683	-0.340564
O28	O	1.265365	0.158317	0.159436
O29	O	0.943977	-0.264301	-0.442240
O30	O	1.443977	0.235699	0.057760
O31	O	0.943814	-0.443716	-0.263653
O32	O	1.443814	0.056284	0.236347
O33	O	0.866877	-0.443713	-0.340579
O34	O	1.366877	0.056287	0.159421
C35	C	0.742643	-0.303036	-0.302085
C36	C	1.242643	0.196964	0.197915
C37	C	0.673002	-0.303066	-0.302069
C38	C	1.173002	0.196934	0.197931
C39	C	0.640293	-0.343371	-0.342070
C40	C	1.140293	0.156629	0.157930
C41	C	0.574858	-0.343356	-0.342098
C42	C	1.074858	0.156644	0.157902
C43	C	0.542134	-0.303042	-0.302114
C44	C	1.042134	0.196958	0.197886
C45	C	0.574851	-0.262728	-0.262109
C46	C	1.074851	0.237272	0.237891
C47	C	0.640285	-0.262741	-0.262087
C48	C	1.140285	0.237259	0.237913
C49	C	0.438410	-0.297979	-0.245709
C50	C	0.938410	0.202021	0.254291
C51	C	0.372977	-0.297972	-0.245730
C52	C	0.872977	0.202028	0.254270
C53	C	0.340313	-0.303000	-0.302183
C54	C	0.840313	0.197000	0.197817
C55	C	0.373090	-0.308050	-0.358616
C56	C	0.873090	0.191950	0.141384
C57	C	0.438524	-0.308062	-0.358594
C58	C	0.938524	0.191938	0.141406
C59	C	0.471181	-0.303024	-0.302134
C60	C	0.971181	0.196976	0.197866
C61	C	0.236651	-0.343291	-0.342218
C62	C	0.736651	0.156709	0.157782
C63	C	0.171215	-0.343271	-0.342247
C64	C	0.671215	0.156729	0.157753
C65	C	0.171209	-0.262647	-0.262252
C66	C	0.671209	0.237353	0.237748
C67	C	0.236645	-0.262664	-0.262229
C68	C	0.736645	0.237336	0.237771
C69	C	0.269362	-0.302989	-0.302211
C70	C	0.769362	0.197011	0.197789
C71	C	0.905349	-0.466555	-0.302123
C72	C	1.405349	0.033445	0.197877
C73	C	0.905371	-0.536523	-0.302129
C74	C	1.405371	-0.036523	0.197871
C75	C	0.945468	-0.569370	-0.262115
C76	C	1.445468	-0.069370	0.237885
C77	C	0.945497	-0.635113	-0.262129
C78	C	1.445497	-0.135113	0.237871
C79	C	0.905418	-0.668005	-0.302151
C80	C	1.405418	-0.168005	0.197849
C81	C	0.865319	-0.635150	-0.342173
C82	C	1.365319	-0.135150	0.157827
C83	C	0.865295	-0.569409	-0.342162
C84	C	1.365295	-0.069409	0.157838
N85	N	0.850609	-0.771286	-0.306903
N86	N	1.350609	-0.271286	0.193097
N87	N	0.850633	-0.833738	-0.306910
N88	N	1.350633	-0.333738	0.193090
C89	C	0.905489	-0.866080	-0.302187
C90	C	1.405489	-0.366080	0.197813
N91	N	0.960320	-0.833611	-0.297445
N92	N	1.460320	-0.333611	0.202555
N93	N	0.960295	-0.771154	-0.297435
N94	N	1.460295	-0.271154	0.202565
C95	C	0.905440	-0.739291	-0.302167
C96	C	1.405440	-0.239291	0.197833
C97	C	0.945621	-0.970213	-0.262186
C98	C	1.445621	-0.470213	0.237814
C99	C	0.945651	-1.035956	-0.262204
C100	C	1.445651	-0.535956	0.237796
C101	C	0.865467	-1.035993	-0.342245
C102	C	1.365467	-0.535993	0.157755
C103	C	0.865442	-0.970250	-0.342230
C104	C	1.365442	-0.470250	0.157770
C105	C	0.905518	-0.937364	-0.302197
C106	C	1.405518	-0.437364	0.197803
C107	C	1.068854	-0.302970	-0.302231
C108	C	1.568854	0.197030	0.197769
C109	C	1.138496	-0.302956	-0.302262
C110	C	1.638496	0.197044	0.197738
C111	C	0.905480	-0.302964	-0.465581
C112	C	1.405480	0.197036	0.034419
C113	C	0.905501	-0.302947	-0.535223
C114	C	1.405501	0.197053	-0.035223
C115	C	0.905530	-0.138813	-0.302206
C116	C	1.405530	0.361187	0.197794
C117	C	0.905573	-0.068845	-0.302227
C118	C	1.405573	0.431155	0.197773
C119	C	0.865463	-0.262689	-0.567920
C120	C	1.365463	0.237311	-0.067920
C121	C	0.865461	-0.262678	-0.633355
C122	C	1.365461	0.237322	-0.133355
C123	C	0.905508	-0.302917	-0.666091
C124	C	1.405508	0.197083	-0.166091
C125	C	0.945549	-0.343183	-0.633386
C126	C	1.445549	0.156817	-0.133386
C127	C	0.945546	-0.343198	-0.567952
C128	C	1.445546	0.156802	-0.067952
C129	C	0.961960	-0.307851	-0.769796
C130	C	1.461960	0.192149	-0.269796
C131	C	0.961965	-0.307831	-0.835229
C132	C	1.461965	0.192169	-0.335229
C133	C	0.905518	-0.302875	-0.867912
C134	C	1.405518	0.197125	-0.367912
C135	C	0.849066	-0.297925	-0.835153
C136	C	1.349066	0.202075	-0.335153
C137	C	0.849063	-0.297940	-0.769719
C138	C	1.349063	0.202060	-0.269719
C139	C	0.905516	-0.302906	-0.737043
C140	C	1.405516	0.197094	-0.237043
C141	C	0.865474	-0.262602	-0.971562
C142	C	1.365474	0.237398	-0.471562
C143	C	0.865471	-0.262595	-1.036998
C144	C	1.365471	0.237405	-0.536998
C145	C	0.945565	-0.343097	-1.037028
C146	C	1.445565	0.156903	-0.537028
C147	C	0.945563	-0.343108	-0.971592
C148	C	1.445563	0.156892	-0.471592
C149	C	0.905518	-0.302857	-0.938863
C150	C	1.405518	0.197143	-0.438863
C151	C	0.905418	-0.302997	-0.139370
C152	C	1.405418	0.197003	0.360630
C153	C	0.905518	-0.302836	-0.069729
C154	C	1.405518	0.197164	0.430271
H155	H	0.464999	-0.293882	-0.199735
H156	H	0.964999	0.206118	0.300265
C157	C	0.821183	-0.533275	-0.386176
C158	C	1.321183	-0.033275	0.113824
H159	H	0.797315	-0.562278	-0.410013
H160	H	1.297315	-0.062278	0.089987
H161	H	0.845126	-0.507579	-0.413500
H162	H	1.345126	-0.007579	0.086500
H163	H	0.793883	-0.507682	-0.362164
H164	H	1.293883	-0.007682	0.137836
H165	H	0.548203	-0.229903	-0.229555
H166	H	1.048203	0.270097	0.270445
H167	H	0.346497	-0.312144	-0.404586
H168	H	0.846497	0.187856	0.095414
C169	C	0.821232	-0.671329	-0.386195
C170	C	1.321232	-0.171329	0.113805
H171	H	0.826984	-0.715187	-0.380466
H172	H	1.326984	-0.215187	0.119534
H173	H	0.830376	-0.660517	-0.428302
H174	H	1.330376	-0.160517	0.071698
H175	H	0.779133	-0.660610	-0.376966
H176	H	1.279133	-0.160610	0.123034
H177	H	0.666927	-0.376206	-0.374628
H178	H	1.166927	0.123794	0.125372
H179	H	0.978174	-0.375860	-1.063680
H180	H	1.478174	0.124140	-0.563680
C181	C	0.821382	-1.072164	-0.386271
C182	C	1.321382	-0.572164	0.113729
H183	H	0.797499	-1.043182	-0.410103
H184	H	1.297499	-0.543182	0.089897
H185	H	0.794104	-1.097861	-0.362276
H186	H	1.294104	-0.597861	0.137724
H187	H	0.845351	-1.097759	-0.413608
H188	H	1.345351	-0.597759	0.086392
H189	H	0.832853	-0.229916	-0.541276
H190	H	1.332853	0.270084	-0.041276
H191	H	0.832789	-0.943504	-0.374811
H192	H	1.332789	-0.443504	0.125189
C193	C	0.989601	-0.671252	-0.218107
C194	C	1.489601	-0.171252	0.281893
H195	H	1.013461	-0.642251	-0.194261
H196	H	1.513461	-0.142251	0.305739
H197	H	1.016899	-0.696852	-0.242107
H198	H	1.516899	-0.196852	0.257893
H199	H	0.965645	-0.696941	-0.190783
H200	H	1.465645	-0.196941	0.309217
H201	H	0.263291	-0.376123	-0.374777
H202	H	0.763291	0.123877	0.125223
C203	C	0.821414	-0.218344	-0.935557
C204	C	1.321414	0.281656	-0.435557
H205	H	0.797558	-0.194375	-0.964405
H206	H	1.297558	0.305625	-0.464405
H207	H	0.845388	-0.190913	-0.910053
H208	H	1.345388	0.309087	-0.410053
H209	H	0.794101	-0.242448	-0.910008
H210	H	1.294101	0.257552	-0.410008
H211	H	0.978255	-0.943436	-0.229590
H212	H	1.478255	-0.443436	0.270410
H213	H	0.666916	-0.229917	-0.229513
H214	H	1.166916	0.270083	0.270487
C215	C	0.786972	-0.292502	-0.733684
C216	C	1.286972	0.207498	-0.233684
H217	H	0.795057	-0.293217	-0.690034
H218	H	1.295057	0.206783	-0.190034
H219	H	0.760596	-0.326748	-0.744378
H220	H	1.260596	0.173252	-0.244378
H221	H	0.766961	-0.254177	-0.744403
H222	H	1.266961	0.245823	-0.244403
H223	H	0.978307	-1.062699	-0.229621
H224	H	1.478307	-0.562699	0.270379
H225	H	0.832858	-0.229892	-0.659982
H226	H	1.332858	0.270108	-0.159982
C227	C	0.786970	-0.292491	-0.871095
C228	C	1.286970	0.207509	-0.371095
H229	H	0.795054	-0.293203	-0.914757
H230	H	1.295054	0.206797	-0.414757
H231	H	0.766947	-0.254179	-0.860378
H232	H	1.266947	0.245821	-0.360378
H233	H	0.760605	-0.326752	-0.860333
H234	H	1.260605	0.173248	-0.360333
C235	C	0.474580	-0.313614	-0.420663
C236	C	0.974580	0.186386	0.079337
H237	H	0.518227	-0.312906	-0.412561
H238	H	1.018227	0.187094	0.087439
H239	H	0.463922	-0.279405	-0.447088
H240	H	0.963922	0.220595	0.052912
H241	H	0.463841	-0.351966	-0.440628
H242	H	0.963841	0.148034	0.059372
C243	C	0.989593	-0.387480	-0.531983
C244	C	1.489593	0.112520	-0.031983
H245	H	1.013447	-0.411443	-0.560849
H246	H	1.513447	0.088557	-0.060849
H247	H	0.965609	-0.414916	-0.506429
H248	H	1.465609	0.085084	-0.006429
H249	H	1.016910	-0.363394	-0.506488
H250	H	1.516910	0.136606	-0.006488
C251	C	0.821427	-0.218308	-1.072965
C252	C	1.321427	0.281692	-0.572965
H253	H	0.797584	-0.194336	-1.044099
H254	H	1.297584	0.305664	-0.544099
H255	H	0.794111	-0.242384	-1.098464
H256	H	1.294111	0.257616	-0.598464
H257	H	0.845420	-0.190871	-1.098517
H258	H	1.345420	0.309129	-0.598517
H259	H	0.144584	-0.376091	-0.374825
H260	H	0.644584	0.123909	0.125175
H261	H	0.978168	-0.375889	-0.944970
H262	H	1.478168	0.124111	-0.444970
C263	C	1.024059	-0.313275	-0.871257
C264	C	1.524059	0.186725	-0.371257
H265	H	1.057674	-0.316240	-0.842423
H266	H	1.557674	0.183760	-0.342423
H267	H	1.029593	-0.277192	-0.896797
H268	H	1.529593	0.222808	-0.396797
H269	H	1.023220	-0.349762	-0.896772
H270	H	1.523220	0.150238	-0.396772
C271	C	1.024055	-0.313299	-0.733851
C272	C	1.524055	0.186701	-0.233851
H273	H	1.057676	-0.316235	-0.762731
H274	H	1.557676	0.183765	-0.262731
H275	H	1.023223	-0.349793	-0.708311
H276	H	1.523223	0.150207	-0.208311
H277	H	1.029579	-0.277221	-0.708343
H278	H	1.529579	0.222779	-0.208343
H279	H	0.978156	-0.375947	-0.660043
H280	H	1.478156	0.124053	-0.160043
C281	C	0.989556	-0.533199	-0.218088
C282	C	1.489556	-0.033199	0.281912
H283	H	1.013445	-0.562181	-0.194263
H284	H	1.513445	-0.062181	0.305737
H285	H	0.965597	-0.507598	-0.190754
H286	H	1.465597	-0.007598	0.309246
H287	H	1.016838	-0.507508	-0.242091
H288	H	1.516838	-0.007508	0.257909
H289	H	0.144566	-0.229820	-0.229699
H290	H	0.644566	0.270180	0.270301
C291	C	0.538870	-0.387656	-0.386138
C292	C	1.038870	0.112344	0.113862
H293	H	0.567727	-0.411664	-0.409955
H294	H	1.067727	0.088336	0.090045
H295	H	0.513416	-0.363574	-0.413478
H296	H	1.013416	0.136426	0.086522
H297	H	0.513273	-0.415060	-0.362156
H298	H	1.013273	0.084940	0.137844
H299	H	0.346295	-0.293864	-0.199778
H300	H	0.846295	0.206136	0.300222
C301	C	0.272626	-0.218336	-0.218219
C302	C	0.772626	0.281664	0.281781
H303	H	0.243767	-0.194327	-0.194405
H304	H	0.743767	0.305673	0.305595
H305	H	0.298208	-0.190944	-0.242225
H306	H	0.798208	0.309056	0.257775
H307	H	0.298096	-0.242391	-0.190864
H308	H	0.798096	0.257609	0.309136
