data_functionalizedCrystal
_audit_creation_method	'MofGen! by Chris Wilmer'
_symmetry_space_group_name_H-M	'P1'
_symmetry_Int_Tables_number	1
_symmetry_cell_setting	triclinic
loop_
_symmetry_equiv_pos_as_xyz
  x,y,z
_cell_length_a	16.120542
_cell_length_b	16.120297
_cell_length_c	16.120484
_cell_angle_alpha	95.614431
_cell_angle_beta	90.163235
_cell_angle_gamma	90.127087
loop_
_atom_site_label
_atom_site_type_symbol
_atom_site_fract_x
_atom_site_fract_y
_atom_site_fract_z
Zn1	Zn	-1.224986	0.554845	0.422355
Zn2	Zn	-0.974986	0.804845	0.672355
Zn3	Zn	-0.724986	1.054845	0.922355
Zn4	Zn	-0.474986	1.304845	1.172355
Zn5	Zn	-1.224881	0.422150	0.555039
Zn6	Zn	-0.974881	0.672150	0.805039
Zn7	Zn	-0.724881	0.922150	1.055039
Zn8	Zn	-0.474881	1.172150	1.305039
Zn9	Zn	-1.093725	0.408084	0.408261
Zn10	Zn	-0.843725	0.658084	0.658261
Zn11	Zn	-0.593725	0.908084	0.908261
Zn12	Zn	-0.343725	1.158084	1.158261
Zn13	Zn	-1.078879	0.554078	0.554261
Zn14	Zn	-0.828879	0.804078	0.804261
Zn15	Zn	-0.578879	1.054078	1.054261
Zn16	Zn	-0.328879	1.304078	1.304261
O17	O	-1.155618	0.484789	0.484979
O18	O	-0.905618	0.734789	0.734979
O19	O	-0.655618	0.984789	0.984979
O20	O	-0.405618	1.234789	1.234979
O21	O	-1.341008	0.543450	0.446180
O22	O	-1.091008	0.793450	0.696180
O23	O	-0.841008	1.043450	0.946180
O24	O	-0.591008	1.293450	1.196180
O25	O	-1.213653	0.303651	0.529996
O26	O	-0.963653	0.553651	0.779996
O27	O	-0.713653	0.803651	1.029996
O28	O	-0.463653	1.053651	1.279996
O29	O	-1.117394	0.421986	0.293500
O30	O	-0.867394	0.671986	0.543500
O31	O	-0.617394	0.921986	0.793500
O32	O	-0.367394	1.171986	1.043500
O33	O	-1.340931	0.445959	0.543662
O34	O	-1.090931	0.695959	0.793662
O35	O	-0.840931	0.945959	1.043662
O36	O	-0.590931	1.195959	1.293662
O37	O	-1.213831	0.529811	0.303855
O38	O	-0.963831	0.779811	0.553855
O39	O	-0.713831	1.029811	0.803855
O40	O	-0.463831	1.279811	1.053855
O41	O	-1.117293	0.293317	0.422159
O42	O	-0.867293	0.543317	0.672159
O43	O	-0.617293	0.793317	0.922159
O44	O	-0.367293	1.043317	1.172159
O45	O	-0.975720	0.421243	0.421404
O46	O	-0.725720	0.671243	0.671404
O47	O	-0.475720	0.921243	0.921404
O48	O	-0.225720	1.171243	1.171404
O49	O	-1.092091	0.670813	0.542336
O50	O	-0.842091	0.920813	0.792336
O51	O	-0.592091	1.170813	1.042336
O52	O	-0.342091	1.420813	1.292336
O53	O	-0.964813	0.528505	0.528669
O54	O	-0.714813	0.778505	0.778669
O55	O	-0.464813	1.028505	1.028669
O56	O	-0.214813	1.278505	1.278669
O57	O	-1.199435	0.671376	0.445425
O58	O	-0.949435	0.921376	0.695425
O59	O	-0.699435	1.171376	0.945425
O60	O	-0.449435	1.421376	1.195425
O61	O	-1.199257	0.445216	0.671566
O62	O	-0.949257	0.695216	0.921566
O63	O	-0.699257	0.945216	1.171566
O64	O	-0.449257	1.195216	1.421566
O65	O	-1.091989	0.542144	0.670994
O66	O	-0.841989	0.792144	0.920994
O67	O	-0.591989	1.042144	1.170994
O68	O	-0.341989	1.292144	1.420994
C69	C	-0.940180	0.473265	0.473423
C70	C	-0.690180	0.723265	0.723423
C71	C	-0.440180	0.973265	0.973423
C72	C	-0.190180	1.223265	1.223423
C73	C	-0.848012	0.468356	0.468501
C74	C	-0.598012	0.718356	0.718501
C75	C	-0.348012	0.968356	0.968501
C76	C	-0.098012	1.218356	1.218501
C77	C	-0.632818	0.510209	0.510486
C78	C	-0.382818	0.760209	0.760486
C79	C	-0.132818	1.010209	1.010486
C80	C	0.117182	1.260209	1.260486
C81	C	-0.679265	0.459392	0.459521
C82	C	-0.429265	0.709392	0.709521
C83	C	-0.179265	0.959392	0.959521
C84	C	0.070735	1.209392	1.209521
C85	C	-0.773165	0.464381	0.464519
C86	C	-0.523165	0.714381	0.714519
C87	C	-0.273165	0.964381	0.964519
C88	C	-0.023165	1.214381	1.214519
C89	C	-0.538910	0.505221	0.505490
C90	C	-0.288910	0.755221	0.755490
C91	C	-0.038910	1.005221	1.005490
C92	C	0.211090	1.255221	1.255490
C93	C	-1.144022	0.495142	0.701523
C94	C	-0.894022	0.745142	0.951523
C95	C	-0.644022	0.995142	1.201523
C96	C	-0.394022	1.245142	1.451523
C97	C	-1.139136	0.499603	0.794167
C98	C	-0.889136	0.749603	1.044167
C99	C	-0.639136	0.999603	1.294167
C100	C	-0.389136	1.249603	1.544167
C101	C	-1.144118	0.702181	0.495366
C102	C	-0.894118	0.952181	0.745366
C103	C	-0.644118	1.202181	0.995366
C104	C	-0.394118	1.452181	1.245366
C105	C	-1.139218	0.794821	0.499792
C106	C	-0.889218	1.044821	0.749792
C107	C	-0.639218	1.294821	0.999792
C108	C	-0.389218	1.544821	1.249792
C109	C	-0.371898	0.496347	0.496575
C110	C	-0.121898	0.746347	0.746575
C111	C	0.128102	0.996347	0.996575
C112	C	0.378102	1.246347	1.246575
C113	C	-0.464066	0.501242	0.501504
C114	C	-0.214066	0.751242	0.751504
C115	C	0.035934	1.001242	1.001504
C116	C	0.285934	1.251242	1.251504
C117	C	-1.167124	0.268243	0.474575
C118	C	-0.917124	0.518243	0.724575
C119	C	-0.667124	0.768243	0.974575
C120	C	-0.417124	1.018243	1.224575
C121	C	-1.172197	0.175601	0.469922
C122	C	-0.922197	0.425601	0.719922
C123	C	-0.672197	0.675601	0.969922
C124	C	-0.422197	0.925601	1.219922
C125	C	-1.130242	0.964432	0.507853
C126	C	-0.880242	1.214432	0.757853
C127	C	-0.630242	1.464432	1.007853
C128	C	-0.380242	1.714432	1.257853
C129	C	-1.181171	1.005995	0.461864
C130	C	-0.931171	1.255995	0.711864
C131	C	-0.681171	1.505995	0.961864
C132	C	-0.431171	1.755995	1.211864
C133	C	-1.176176	1.100373	0.466349
C134	C	-0.926176	1.350373	0.716349
C135	C	-0.676176	1.600373	0.966349
C136	C	-0.426176	1.850373	1.216349
C137	C	-1.135235	0.870046	0.503369
C138	C	-0.885235	1.120046	0.753369
C139	C	-0.635235	1.370046	1.003369
C140	C	-0.385235	1.620046	1.253369
C141	C	-1.167280	0.474415	0.267591
C142	C	-0.917280	0.724415	0.517591
C143	C	-0.667280	0.974415	0.767591
C144	C	-0.417280	1.224415	1.017591
C145	C	-1.172250	0.469994	0.174954
C146	C	-0.922250	0.719994	0.424954
C147	C	-0.672250	0.969994	0.674954
C148	C	-0.422250	1.219994	0.924954
C149	C	-1.130219	0.507765	0.963789
C150	C	-0.880219	0.757765	1.213789
C151	C	-0.630219	1.007765	1.463789
C152	C	-0.380219	1.257765	1.713789
C153	C	-1.181165	0.461834	1.005337
C154	C	-0.931165	0.711834	1.255337
C155	C	-0.681165	0.961834	1.505337
C156	C	-0.431165	1.211834	1.755337
C157	C	-1.176203	0.466376	1.099720
C158	C	-0.926203	0.716376	1.349720
C159	C	-0.676203	0.966376	1.599720
C160	C	-0.426203	1.216376	1.849720
C161	C	-1.135179	0.503225	0.869397
C162	C	-0.885179	0.753225	1.119397
C163	C	-0.635179	1.003225	1.369397
C164	C	-0.385179	1.253225	1.619397
H165	H	-0.663572	0.557457	0.557869
H166	H	-0.413572	0.807457	0.807869
H167	H	-0.163572	1.057457	1.057869
H168	H	0.086428	1.307457	1.307869
H169	H	-1.228523	0.970699	0.419122
H170	H	-0.978523	1.220699	0.669122
H171	H	-0.728523	1.470699	0.919122
H172	H	-0.478523	1.720699	1.169122
Br173	Br	-1.051323	1.023258	0.579090
Br174	Br	-0.801323	1.273258	0.829090
Br175	Br	-0.551323	1.523258	1.079090
Br176	Br	-0.301323	1.773258	1.329090
H177	H	-1.082880	0.550495	0.999102
H178	H	-0.832880	0.800495	1.249102
H179	H	-0.582880	1.050495	1.499102
H180	H	-0.332880	1.300495	1.749102
Br181	Br	-0.628008	0.380630	0.380543
Br182	Br	-0.378008	0.630630	0.630543
Br183	Br	-0.128008	0.880630	0.880543
Br184	Br	0.121992	1.130630	1.130543
Br185	Br	-1.260071	0.390606	0.946481
Br186	Br	-1.010071	0.640606	1.196481
Br187	Br	-0.760071	0.890606	1.446481
Br188	Br	-0.510071	1.140606	1.696481
