data_functionalizedCrystal
_audit_creation_method	'MofGen! by Chris Wilmer'
_symmetry_space_group_name_H-M	'P1'
_symmetry_Int_Tables_number	1
_symmetry_cell_setting	triclinic
loop_
_symmetry_equiv_pos_as_xyz
  x,y,z
_cell_length_a	19.188930
_cell_length_b	15.995350
_cell_length_c	15.072220
_cell_angle_alpha	89.998899
_cell_angle_beta	90.026362
_cell_angle_gamma	83.318578
loop_
_atom_site_label
_atom_site_type_symbol
_atom_site_fract_x
_atom_site_fract_y
_atom_site_fract_z
O1	O	-0.926420	-0.104528	-0.074063
O2	O	-0.723144	-0.118600	-0.074002
O3	O	-0.830339	0.010344	-0.074034
O4	O	-0.819225	-0.233472	-0.074032
O5	O	-0.830312	0.010337	0.073531
O6	O	-0.723118	-0.118607	0.073563
O7	O	-0.926393	-0.104535	0.073502
Zn8	Zn	-0.824751	-0.111572	0.096961
Zn9	Zn	-0.824786	-0.111563	-0.097462
O10	O	-0.819199	-0.233479	0.073533
C11	C	-0.697119	-0.118148	-0.000212
C12	C	-0.619611	-0.116780	-0.000188
C13	C	-0.829866	0.041533	-0.000253
C14	C	-0.828489	0.134479	-0.000257
C15	C	-0.952419	-0.104987	-0.000291
C16	C	-1.029927	-0.106355	-0.000320
C17	C	-0.574880	-0.192440	-0.000202
C18	C	-0.502052	-0.191155	-0.000212
C19	C	-0.473960	-0.114205	-0.000226
C20	C	-0.518701	-0.038535	-0.000207
C21	C	-0.591526	-0.039823	-0.000189
N22	N	-0.365839	-0.055384	-0.050485
N23	N	-0.296657	-0.054167	-0.050504
C24	C	-0.254541	-0.110322	-0.000280
N25	N	-0.284219	-0.167754	0.049953
N26	N	-0.353407	-0.168974	0.049969
C27	C	-0.394994	-0.112801	-0.000245
C28	C	-0.130842	-0.184594	-0.000303
C29	C	-0.058014	-0.183306	-0.000307
C30	C	-0.074664	-0.030684	-0.000312
C31	C	-0.147491	-0.031974	-0.000299
C32	C	-0.175575	-0.108932	-0.000298
C33	C	-0.819671	-0.264669	-0.000250
C34	C	-0.821049	-0.357614	-0.000251
N35	N	-0.824733	-0.111578	0.229650
C36	C	-0.823542	0.472208	-0.000253
C37	C	-0.747200	0.424495	-0.000561
C38	C	-0.748578	0.327809	-0.000228
C39	C	-0.825996	0.304657	-0.000255
C40	C	-0.863635	0.345868	0.083999
C41	C	-0.861717	0.442497	0.084070
C42	C	-0.863324	0.442869	-0.083740
C43	C	-0.863306	0.345923	-0.084854
C44	C	-0.827386	0.209964	-0.000254
C45	C	-0.822153	0.566901	-0.000248
N46	N	-0.824810	-0.111550	-0.230151
C47	C	-0.824785	-0.111560	0.588852
C48	C	-0.767235	-0.180325	0.551262
C49	C	-0.767366	-0.180575	0.448436
C50	C	-0.824758	-0.111569	0.410648
C51	C	-0.897609	-0.130384	0.447917
C52	C	-0.897286	-0.130872	0.550775
C53	C	-0.810134	-0.023774	0.550957
C54	C	-0.808463	-0.024366	0.448094
C55	C	-0.824748	-0.111572	0.309934
C56	C	-0.824800	-0.111558	0.689565
H57	H	-0.465625	-0.252768	-0.000220
H58	H	-0.716698	0.442918	-0.060980
O59	O	-0.955693	-0.065793	0.415490
H60	H	-1.006584	-0.080514	0.442765
H61	H	-0.910827	-0.193666	0.422143
H62	H	-0.835787	0.318577	-0.147183
O63	O	-0.938094	0.325860	-0.091626
H64	H	-0.949893	0.285990	-0.034543
H65	H	-0.716812	0.443974	0.059540
O66	O	-0.914386	-0.215665	0.582539
H67	H	-0.914330	-0.216853	0.656170
O68	O	-0.695633	-0.165802	0.415056
H69	H	-0.700156	-0.107806	0.374012
H70	H	-0.712908	-0.169342	0.576040
O71	O	-0.709109	0.290741	0.079942
H72	H	-0.688968	0.341884	0.118630
O73	O	-0.779448	-0.266144	0.585474
H74	H	-0.832014	-0.280748	0.563930
H75	H	-0.776722	-0.245725	0.423819
H76	H	-0.051792	0.031970	-0.000378
O77	O	-0.639777	0.041787	-0.000172
H78	H	-0.673389	0.044854	-0.060306
H79	H	-0.852103	0.027396	0.575263
O80	O	-0.009767	-0.264918	-0.000319
H81	H	0.023834	-0.267992	0.059825
O82	O	-0.935954	0.485495	0.089130
H83	H	-0.973064	0.437243	0.091522
H84	H	-0.847656	0.029183	0.422374
O85	O	-0.195744	0.049631	-0.000292
H86	H	-0.163977	0.103356	-0.000309
O87	O	-0.488408	0.044463	-0.000223
H88	H	-0.430252	0.032648	-0.000247
H89	H	-0.758165	-0.005615	0.576963
H90	H	-0.153710	-0.247257	-0.000290
O91	O	-0.709372	0.290008	-0.080215
H92	H	-0.689254	0.340780	-0.119482
O93	O	-0.955720	-0.067045	0.583716
H94	H	-0.947330	-0.003602	0.559053
O95	O	-0.605173	-0.275440	-0.000176
H96	H	-0.561828	-0.327836	-0.000174
H97	H	-0.919611	0.474836	-0.084326
H98	H	-0.920511	0.331950	0.087112
O99	O	-0.825325	0.466612	0.167512
H100	H	-0.809256	0.409283	0.207431
H101	H	-0.837471	0.317388	0.146716
O102	O	-0.830279	0.469947	-0.168337
H103	H	-0.785126	0.504623	-0.151817
H104	H	-0.754873	-0.010081	0.423738
