data_functionalizedCrystal
_audit_creation_method	'MofGen! by Chris Wilmer'
_symmetry_space_group_name_H-M	'P1'
_symmetry_Int_Tables_number	1
_symmetry_cell_setting	triclinic
loop_
_symmetry_equiv_pos_as_xyz
  x,y,z
_cell_length_a	19.805407
_cell_length_b	12.827892
_cell_length_c	19.805399
_cell_angle_alpha	90.019631
_cell_angle_beta	89.982197
_cell_angle_gamma	89.985353
loop_
_atom_site_label
_atom_site_type_symbol
_atom_site_fract_x
_atom_site_fract_y
_atom_site_fract_z
Zn1	Zn	1.034778	0.416132	-0.382725
Zn2	Zn	1.034711	0.590887	-0.269553
Zn3	Zn	0.921593	0.416153	-0.269553
Zn4	Zn	0.921574	0.590824	-0.382703
O5	O	0.978164	0.503499	-0.326133
O6	O	1.129486	0.439332	-0.367722
O7	O	1.019685	0.567744	-0.174836
O8	O	0.936643	0.269914	-0.284575
O9	O	1.129437	0.567724	-0.284574
O10	O	1.019800	0.269899	-0.367722
O11	O	0.936578	0.439367	-0.174836
O12	O	0.826874	0.439305	-0.284554
O13	O	0.936612	0.567615	-0.477422
O14	O	0.826860	0.567635	-0.367684
O15	O	1.019782	0.439270	-0.477439
O16	O	1.019667	0.737115	-0.284553
O17	O	0.936546	0.737068	-0.367684
C18	C	0.802308	0.503466	-0.326117
C19	C	0.727076	0.503477	-0.326126
C20	C	0.691758	0.436742	-0.369487
C21	C	0.621070	0.436747	-0.369489
C22	C	0.585701	0.503494	-0.326134
C23	C	0.621023	0.570233	-0.282769
C24	C	0.691711	0.570221	-0.282763
C25	C	0.335950	0.570280	-0.282789
C26	C	0.265258	0.570288	-0.282800
C27	C	0.265310	0.436806	-0.369516
C28	C	0.335997	0.436794	-0.369510
C29	C	0.371313	0.503528	-0.326142
C30	C	0.447962	0.503520	-0.326139
C31	C	0.509054	0.503509	-0.326140
C32	C	0.978116	0.775009	-0.326130
C33	C	0.978157	0.891162	-0.326152
C34	C	1.019336	0.942935	-0.285063
C35	C	1.019379	1.062986	-0.285084
C36	C	1.154707	0.503533	-0.326150
C37	C	1.229939	0.503547	-0.326157
C38	C	0.978202	0.503433	-0.502676
C39	C	0.978218	0.503405	-0.577908
C40	C	0.978226	1.230929	-0.326159
C41	C	0.978238	1.114776	-0.326192
C42	C	1.021526	0.436572	-0.613262
C43	C	1.021533	0.436542	-0.683950
C44	C	0.978235	0.503350	-0.719284
C45	C	0.934923	0.570186	-0.683925
C46	C	0.934913	0.570210	-0.613238
C47	C	0.934961	0.570089	-0.968999
C48	C	0.934975	0.570061	-1.039691
C49	C	1.021581	0.436420	-1.039711
C50	C	1.021571	0.436445	-0.969024
C51	C	0.978257	0.503276	-0.933671
C52	C	0.978249	0.503307	-0.857023
C53	C	0.978246	0.503326	-0.795931
C54	C	0.978165	0.503489	-0.150277
C55	C	0.978280	0.503223	-0.075046
H56	H	0.720551	0.382391	-0.404793
H57	H	1.056831	0.382046	-0.940259
Br58	Br	1.080366	0.345717	-1.087693
Br59	Br	0.876211	0.660738	-1.087643
H60	H	0.899701	0.624522	-0.940223
H61	H	0.899666	0.624579	-0.712699
Br62	Br	1.080296	0.345907	-0.565316
Br63	Br	0.919453	0.965407	-0.384818
Br64	Br	0.573023	0.660811	-0.223923
H65	H	0.364696	0.624620	-0.247477
Br66	Br	0.876131	0.660909	-0.565257
H67	H	1.056800	0.382123	-0.712732
Br68	Br	1.078138	1.137187	-0.226444
H69	H	0.592317	0.382407	-0.404799
H70	H	0.364791	0.382446	-0.404817
H71	H	0.942979	1.070260	-0.361368
Br72	Br	1.078052	0.868691	-0.226409
Br73	Br	0.217257	0.660880	-0.223956
Br74	Br	0.217376	0.346236	-0.428373
H75	H	0.720465	0.624563	-0.247454
