data_functionalizedCrystal
_audit_creation_method	'MofGen! by Chris Wilmer'
_symmetry_space_group_name_H-M	'P1'
_symmetry_Int_Tables_number	1
_symmetry_cell_setting	triclinic
loop_
_symmetry_equiv_pos_as_xyz
  x,y,z
_cell_length_a	12.827892
_cell_length_b	12.827893
_cell_length_c	12.827885
_cell_angle_alpha	90.019272
_cell_angle_beta	89.970214
_cell_angle_gamma	89.984638
loop_
_atom_site_label
_atom_site_type_symbol
_atom_site_fract_x
_atom_site_fract_y
_atom_site_fract_z
Zn1	Zn	-0.415983	-1.597670	-0.590849
Zn2	Zn	0.084017	-1.097670	-0.090849
Zn3	Zn	-0.590761	-1.597564	-0.416109
Zn4	Zn	-0.090761	-1.097564	0.083891
Zn5	Zn	-0.416034	-1.422911	-0.416122
Zn6	Zn	0.083966	-0.922911	0.083878
Zn7	Zn	-0.590683	-1.422896	-0.590809
Zn8	Zn	-0.090683	-0.922896	-0.090809
O9	O	-0.503365	-1.510260	-0.503472
O10	O	-0.003365	-1.010260	-0.003472
O11	O	-0.439179	-1.743892	-0.567680
O12	O	0.060821	-1.243892	-0.067680
O13	O	-0.567637	-1.574357	-0.269875
O14	O	-0.067637	-1.074357	0.230125
O15	O	-0.269791	-1.446144	-0.439322
O16	O	0.230209	-0.946144	0.060678
O17	O	-0.567587	-1.743814	-0.439300
O18	O	-0.067587	-1.243814	0.060700
O19	O	-0.269754	-1.574538	-0.567693
O20	O	0.230246	-1.074538	-0.067693
O21	O	-0.439266	-1.446041	-0.269884
O22	O	0.060734	-0.946041	0.230116
O23	O	-0.439190	-1.276673	-0.439284
O24	O	0.060810	-0.776673	0.060716
O25	O	-0.567455	-1.446118	-0.737050
O26	O	-0.067455	-0.946118	-0.237050
O27	O	-0.567504	-1.276662	-0.567625
O28	O	-0.067504	-0.776662	-0.067625
O29	O	-0.439104	-1.574524	-0.737080
O30	O	0.060896	-1.074524	-0.237080
O31	O	-0.736986	-1.574343	-0.439261
O32	O	-0.236986	-1.074343	0.060739
O33	O	-0.736929	-1.446016	-0.567612
O34	O	-0.236929	-0.946016	-0.067612
C35	C	-0.503345	-1.238750	-0.503452
C36	C	-0.003345	-0.738750	-0.003452
C37	C	-0.503362	-1.122597	-0.503469
C38	C	-0.003362	-0.622597	-0.003469
C39	C	-0.774875	-1.510195	-0.503454
C40	C	-0.274875	-1.010195	-0.003454
C41	C	-0.891028	-1.510262	-0.503481
C42	C	-0.391028	-1.010262	-0.003481
C43	C	-0.503265	-1.510331	-0.776043
C44	C	-0.003265	-1.010331	-0.276043
C45	C	-0.503222	-1.510362	-0.892196
C46	C	-0.003222	-1.010362	-0.392196
C47	C	-0.942807	-1.573838	-0.440039
C48	C	-0.442807	-1.073838	0.059961
C49	C	-1.062857	-1.573910	-0.440066
C50	C	-0.562857	-1.073910	0.059934
C51	C	-0.230795	-1.510354	-0.503514
C52	C	0.269205	-1.010354	-0.003514
C53	C	-0.114642	-1.510394	-0.503531
C54	C	0.385358	-1.010394	-0.003531
C55	C	-0.503386	-1.782830	-0.503493
C56	C	-0.003386	-1.282830	-0.003493
C57	C	-0.503395	-1.898983	-0.503502
C58	C	-0.003395	-1.398983	-0.003502
C59	C	-0.566954	-1.070835	-0.566878
C60	C	-0.066954	-0.570835	-0.066878
C61	C	-0.566973	-0.950784	-0.566896
C62	C	-0.066973	-0.450784	-0.066896
C63	C	-0.439697	-1.573907	-0.943995
C64	C	0.060303	-1.073907	-0.443995
C65	C	-0.439652	-1.573940	-1.064045
C66	C	0.060348	-1.073940	-0.564045
C67	C	-0.503390	-1.510249	-0.231962
C68	C	-0.003390	-1.010249	0.268038
C69	C	-0.503138	-1.510422	-0.115810
C70	C	-0.003138	-1.010422	0.384190
H71	H	-0.898262	-1.628220	-0.385708
H72	H	-0.398262	-1.128220	0.114292
Cl73	Cl	-1.131599	-1.657944	-0.356197
Cl74	Cl	-0.631599	-1.157944	0.143803
H75	H	-0.621420	-0.906270	-0.621181
H76	H	-0.121420	-0.406270	-0.121181
Cl77	Cl	-0.419336	-0.967698	-0.419673
Cl78	Cl	0.080664	-0.467698	0.080327
Cl79	Cl	-1.045907	-1.426346	-0.587391
Cl80	Cl	-0.545907	-0.926346	-0.087391
Cl81	Cl	-0.355752	-1.657844	-0.875254
Cl82	Cl	0.144248	-1.157844	-0.375254
H83	H	-0.557567	-1.455975	-0.936725
H84	H	-0.057567	-0.955975	-0.436725
H85	H	-0.935576	-1.455890	-0.557819
H86	H	-0.435576	-0.955890	-0.057819
Cl87	Cl	-0.651000	-1.139624	-0.650672
Cl88	Cl	-0.151000	-0.639624	-0.150672
H89	H	-0.448927	-1.078036	-0.449199
H90	H	0.051073	-0.578036	0.050801
H91	H	-0.385270	-1.628348	-1.108591
H92	H	0.114730	-1.128348	-0.608591
H93	H	-0.557531	-1.456019	-1.071270
H94	H	-0.057531	-0.956019	-0.571270
