data_functionalizedCrystal
_audit_creation_method	'MofGen! by Chris Wilmer'
_symmetry_space_group_name_H-M	'P1'
_symmetry_Int_Tables_number	1
_symmetry_cell_setting	triclinic
loop_
_symmetry_equiv_pos_as_xyz
  x,y,z
_cell_length_a	10.654550
_cell_length_b	19.188930
_cell_length_c	9.130313
_cell_angle_alpha	89.990369
_cell_angle_beta	89.999724
_cell_angle_gamma	83.814856
loop_
_atom_site_label
_atom_site_type_symbol
_atom_site_fract_x
_atom_site_fract_y
_atom_site_fract_z
O1	O	1.665764	0.098062	-0.121709
O2	O	2.165764	0.598062	0.378291
O3	O	1.300088	0.107405	-0.121737
O4	O	1.800088	0.607405	0.378263
O5	O	1.493479	0.001147	-0.121693
O6	O	1.993479	0.501147	0.378307
O7	O	1.472374	0.204320	-0.121752
O8	O	1.972374	0.704320	0.378248
O9	O	1.493466	0.001143	0.121905
O10	O	1.993466	0.501143	0.621905
O11	O	1.300075	0.107401	0.121862
O12	O	1.800075	0.607401	0.621862
O13	O	1.665751	0.098059	0.121890
O14	O	2.165751	0.598059	0.621890
Cu15	Cu	1.482912	0.102730	0.144118
Cu16	Cu	1.982912	0.602730	0.644118
Cu17	Cu	1.482928	0.102734	-0.143965
Cu18	Cu	1.982928	0.602734	0.356035
O19	O	1.472361	0.204317	0.121847
O20	O	1.972361	0.704317	0.621847
C21	C	1.253298	0.106717	0.000059
C22	C	1.753298	0.606717	0.500059
C23	C	1.113898	0.104665	0.000049
C24	C	1.613898	0.604665	0.500049
C25	C	1.033089	0.167228	0.000035
C26	C	1.533089	0.667228	0.500035
C27	C	0.902109	0.165295	0.000061
C28	C	1.402109	0.665295	0.500061
C29	C	0.932761	0.038231	0.000109
C30	C	1.432761	0.538231	0.500109
C31	C	1.063738	0.040164	0.000094
C32	C	1.563738	0.540164	0.500094
C33	C	1.492789	-0.024870	0.000110
C34	C	1.992789	0.475130	0.500110
C35	C	1.490737	-0.102388	0.000123
C36	C	1.990737	0.397612	0.500123
C37	C	1.604213	-0.146570	0.000138
C38	C	2.104213	0.353430	0.500138
C39	C	1.602285	-0.219407	0.000115
C40	C	2.102285	0.280593	0.500115
C41	C	1.486876	-0.248058	0.000105
C42	C	1.986876	0.251942	0.500105
C43	C	1.373386	-0.203866	0.000081
C44	C	1.873386	0.296134	0.500081
C45	C	1.375316	-0.131032	0.000090
C46	C	1.875316	0.368968	0.500090
N47	N	1.398655	-0.356641	0.082999
N48	N	1.898655	0.143359	0.582999
N49	N	1.396828	-0.425831	0.082994
N50	N	1.896828	0.074169	0.582994
C51	C	1.481052	-0.467505	0.000075
C52	C	1.981052	0.032495	0.500075
N53	N	1.567190	-0.437375	-0.082821
N54	N	2.067190	0.062625	0.417179
N55	N	1.569020	-0.368178	-0.082809
N56	N	2.069020	0.131822	0.417191
C57	C	1.484770	-0.327034	0.000094
C58	C	1.984770	0.172966	0.500094
C59	C	1.592445	-0.590665	0.000063
C60	C	2.092445	-0.090665	0.500063
C61	C	1.590513	-0.663502	0.000030
C62	C	2.090513	-0.163502	0.500030
C63	C	1.361610	-0.647960	0.000011
C64	C	1.861610	-0.147960	0.500011
C65	C	1.363545	-0.575124	0.000029
C66	C	1.863545	-0.075124	0.500029
C67	C	1.478966	-0.546481	0.000062
C68	C	1.978966	-0.046481	0.500062
C69	C	1.712541	0.098746	0.000091
C70	C	2.212541	0.598746	0.500091
C71	C	1.851941	0.100799	0.000091
C72	C	2.351941	0.600799	0.500091
C73	C	1.473051	0.230334	0.000040
C74	C	1.973051	0.730334	0.500040
C75	C	1.475102	0.307852	0.000018
C76	C	1.975102	0.807852	0.500018
N77	N	1.482910	0.102727	0.346741
N78	N	1.982910	0.602727	0.846741
N79	N	1.482939	0.102731	-0.346588
N80	N	1.982939	0.602731	0.153412
C81	C	1.568572	0.055696	0.423412
C82	C	2.068572	0.555696	0.923412
C83	C	1.568584	0.055696	0.576749
C84	C	2.068584	0.555696	1.076749
C85	C	1.397268	0.149764	0.576730
C86	C	1.897268	0.649764	1.076730
C87	C	1.397251	0.149760	0.423396
C88	C	1.897251	0.649760	0.923396
H89	H	0.891904	-0.014283	0.000154
H90	H	1.391904	0.485717	0.500154
O91	O	1.142067	-0.020679	0.000040
O92	O	1.642067	0.479321	0.500040
C93	C	1.069712	-0.078023	0.000107
C94	C	1.569712	0.421977	0.500107
H95	H	0.971850	-0.060780	-0.046010
H96	H	1.471850	0.439220	0.453990
H97	H	1.118275	-0.121897	-0.070602
H98	H	1.618275	0.378103	0.429398
H99	H	1.060504	-0.097762	0.116983
H100	H	1.560504	0.402238	0.616983
H101	H	1.698197	-0.123254	0.000160
H102	H	2.198197	0.376746	0.500160
O103	O	1.261198	-0.231612	0.000267
O104	O	1.761198	0.268388	0.500267
C105	C	1.192046	-0.209113	0.126438
C106	C	1.692046	0.290887	0.626438
H107	H	1.225987	-0.158443	0.168508
H108	H	1.725987	0.341557	0.668508
H109	H	1.087416	-0.199510	0.098048
H110	H	1.587416	0.300490	0.598048
H111	H	1.206816	-0.251191	0.214780
H112	H	1.706816	0.248809	0.714780
O113	O	0.823433	0.226003	0.000102
O114	O	1.323433	0.726003	0.500102
C115	C	0.697070	0.210470	0.000090
C116	C	1.197070	0.710470	0.500090
H117	H	0.692353	0.155609	0.046241
H118	H	1.192353	0.655609	0.546241
H119	H	0.637512	0.250314	0.070798
H120	H	1.137512	0.750314	0.570798
H121	H	0.659166	0.212928	-0.116773
H122	H	1.159166	0.712928	0.383227
O123	O	1.249610	-0.675899	0.000059
O124	O	1.749610	-0.175899	0.500059
C125	C	1.272235	-0.749659	0.000007
C126	C	1.772235	-0.249659	0.500007
H127	H	1.370324	-0.766291	0.046139
H128	H	1.870324	-0.266291	0.546139
H129	H	1.198402	-0.772387	0.070711
H130	H	1.698402	-0.272387	0.570711
H131	H	1.266275	-0.769945	-0.116866
H132	H	1.766275	-0.269945	0.383134
O133	O	1.712636	-0.262235	0.000200
O134	O	2.212636	0.237765	0.500200
C135	C	1.814921	-0.221335	0.000188
C136	C	2.314921	0.278665	0.500188
H137	H	1.782745	-0.167141	0.046302
H138	H	2.282745	0.332859	0.546302
H139	H	1.894394	-0.247822	0.070926
H140	H	2.394394	0.252178	0.570926
H141	H	1.850334	-0.215969	-0.116671
H142	H	2.350334	0.284031	0.383329
H143	H	1.073924	0.219748	0.000010
H144	H	1.573924	0.719748	0.500010
O145	O	1.651572	0.009947	0.348820
O146	O	2.151572	0.509947	0.848820
C147	C	1.584508	-0.033485	0.260233
C148	C	2.084508	0.466515	0.760233
H149	H	1.486115	-0.006160	0.237229
H150	H	1.986115	0.493840	0.737229
H151	H	1.636970	-0.044308	0.152419
H152	H	2.136970	0.455692	0.652419
H153	H	1.576208	-0.085107	0.319413
H154	H	2.076208	0.414893	0.819413
O155	O	1.314021	0.195357	0.651361
O156	O	1.814021	0.695357	1.151361
C157	C	1.236754	0.157567	0.740063
C158	C	1.736754	0.657567	1.240063
H159	H	1.287078	0.103192	0.763050
H160	H	1.787078	0.603192	1.263050
H161	H	1.216742	0.186608	0.847878
H162	H	1.716742	0.686608	1.347878
H163	H	1.143966	0.152342	0.680992
H164	H	1.643966	0.652342	1.180992
H165	H	1.686428	-0.567342	0.000083
H166	H	2.186428	-0.067342	0.500083
H167	H	1.682922	-0.699475	0.000035
H168	H	2.182922	-0.199475	0.500035
H169	H	1.271141	-0.539150	0.000024
H170	H	1.771141	-0.039150	0.500024
O171	O	1.265114	-0.088081	-0.000177
O172	O	1.765114	0.411919	0.499823
C173	C	1.259407	-0.045457	-0.126311
C174	C	1.759407	0.454543	0.373689
H175	H	1.323777	-0.071805	-0.214490
H176	H	1.823777	0.428195	0.285510
H177	H	1.158210	-0.037752	-0.168671
H178	H	1.658210	0.462248	0.331329
H179	H	1.291618	0.007652	-0.097771
H180	H	1.791618	0.507652	0.402229
H181	H	1.638336	0.017398	0.639171
H182	H	2.138336	0.517398	1.139171
H183	H	1.327489	0.188059	0.360966
H184	H	1.827489	0.688059	0.860966
