data_functionalizedCrystal
_audit_creation_method	'MofGen! by Chris Wilmer'
_symmetry_space_group_name_H-M	'P1'
_symmetry_Int_Tables_number	1
_symmetry_cell_setting	triclinic
loop_
_symmetry_equiv_pos_as_xyz
  x,y,z
_cell_length_a	11.792254
_cell_length_b	11.792241
_cell_length_c	9.730223
_cell_angle_alpha	89.998500
_cell_angle_beta	89.999834
_cell_angle_gamma	84.196007
loop_
_atom_site_label
_atom_site_type_symbol
_atom_site_fract_x
_atom_site_fract_y
_atom_site_fract_z
O1	O	1.506894	0.155631	-0.114289
O2	O	1.176554	0.171649	-0.114292
O3	O	1.349740	-0.001530	-0.114281
O4	O	1.333708	0.328811	-0.114301
O5	O	1.349738	-0.001525	0.114299
O6	O	1.176552	0.171654	0.114288
O7	O	1.506892	0.155636	0.114291
Zn8	Zn	1.341722	0.163645	0.150581
Zn9	Zn	1.341724	0.163640	-0.150583
O10	O	1.333706	0.328815	0.114279
C11	C	1.134263	0.170642	-0.000003
C12	C	1.008250	0.167622	-0.000004
C13	C	1.348732	-0.043819	0.000008
C14	C	1.345718	-0.169832	0.000007
C15	C	0.905913	0.165168	-0.000009
C16	C	0.777527	0.162100	-0.000010
C17	C	1.340175	-0.400545	-0.000016
C18	C	1.343255	-0.272160	-0.000003
C19	C	1.549183	0.156643	-0.000002
C20	C	1.675196	0.159663	-0.000010
C21	C	1.334714	0.371104	-0.000013
C22	C	1.337728	0.497118	-0.000021
N23	N	1.341728	0.163649	0.356117
N24	N	1.341727	0.163627	-0.356119
C25	C	1.418435	0.086991	0.428048
C26	C	1.418432	0.086977	0.571931
C27	C	1.265012	0.240289	0.571940
C28	C	1.265010	0.240296	0.428059
C29	C	1.495152	0.010344	0.356107
C30	C	1.571866	-0.066319	0.428038
C31	C	1.571863	-0.066333	0.571921
C32	C	1.495147	0.010316	0.643873
H33	H	1.634320	-0.128731	0.369447
H34	H	1.202553	0.302694	0.630532
H35	H	1.634319	-0.128762	0.630486
H36	H	1.495143	0.010291	0.761032
H37	H	1.202548	0.302717	0.369493
H38	H	1.495164	0.010350	0.238950
