data_functionalizedCrystal
_audit_creation_method	'MofGen! by Chris Wilmer'
_symmetry_space_group_name_H-M	'P1'
_symmetry_Int_Tables_number	1
_symmetry_cell_setting	triclinic
loop_
_symmetry_equiv_pos_as_xyz
  x,y,z
_cell_length_a	12.759401
_cell_length_b	12.759393
_cell_length_c	12.759399
_cell_angle_alpha	90.032185
_cell_angle_beta	89.985840
_cell_angle_gamma	89.982549
loop_
_atom_site_label
_atom_site_type_symbol
_atom_site_fract_x
_atom_site_fract_y
_atom_site_fract_z
Zn1	Zn	1.606241	-0.593980	0.418229
Zn2	Zn	2.106241	-0.093980	0.918229
Zn3	Zn	1.606137	-0.418299	0.593949
Zn4	Zn	2.106137	0.081701	1.093949
Zn5	Zn	1.430546	-0.418319	0.418281
Zn6	Zn	1.930546	0.081681	0.918281
Zn7	Zn	1.430530	-0.593940	0.593864
Zn8	Zn	1.930530	-0.093940	1.093864
O9	O	1.518364	-0.506135	0.506081
O10	O	2.018364	-0.006135	1.006081
O11	O	1.753248	-0.570684	0.441552
O12	O	2.253248	-0.070684	0.941552
O13	O	1.582808	-0.271281	0.570703
O14	O	2.082808	0.228719	1.070703
O15	O	1.453902	-0.441646	0.271253
O16	O	1.953902	0.058354	0.771253
O17	O	1.753172	-0.441612	0.570653
O18	O	2.253172	0.058388	1.070653
O19	O	1.582985	-0.570704	0.271215
O20	O	2.082985	-0.070704	0.771215
O21	O	1.453802	-0.271296	0.441641
O22	O	1.953802	0.228704	0.941641
O23	O	1.283523	-0.441608	0.441559
O24	O	1.783523	0.058392	0.941559
O25	O	1.453875	-0.740967	0.570508
O26	O	1.953875	-0.240967	1.070508
O27	O	1.283511	-0.570636	0.570559
O28	O	1.783511	-0.070636	1.070559
O29	O	1.582969	-0.740996	0.441470
O30	O	2.082969	-0.240996	0.941470
O31	O	1.582793	-0.441573	0.740958
O32	O	2.082793	0.058427	1.240958
O33	O	1.453775	-0.570616	0.740896
O34	O	1.953775	-0.070616	1.240896
C35	C	1.245396	-0.506120	0.506056
C36	C	1.745396	-0.006120	1.006056
C37	C	1.128620	-0.506139	0.506071
C38	C	1.628620	-0.006139	1.006071
C39	C	1.073790	-0.573451	0.438975
C40	C	1.573790	-0.073451	0.938975
C41	C	0.964066	-0.573458	0.438995
C42	C	1.464066	-0.073458	0.938995
C43	C	0.964011	-0.438837	0.573216
C44	C	1.464011	0.061163	1.073216
C45	C	1.073733	-0.438826	0.573189
C46	C	1.573733	0.061174	1.073189
C47	C	1.128677	-0.640764	0.371856
C48	C	1.628677	-0.140764	0.871856
C49	C	1.073848	-0.708082	0.304756
C50	C	1.573848	-0.208082	0.804756
C51	C	0.964124	-0.708089	0.304776
C52	C	1.464124	-0.208089	0.804776
C53	C	0.909229	-0.640777	0.371896
C54	C	1.409229	-0.140777	0.871896
C55	C	1.518432	-0.780168	0.505974
C56	C	2.018432	-0.280168	1.005974
C57	C	1.518461	-0.896945	0.505928
C58	C	2.018461	-0.396945	1.005928
C59	C	1.451316	-0.951821	0.438713
C60	C	1.951316	-0.451821	0.938713
C61	C	1.451348	-1.061545	0.438682
C62	C	1.951348	-0.561545	0.938682
C63	C	1.585678	-1.061508	0.573083
C64	C	2.085678	-0.561508	1.073083
C65	C	1.585641	-0.951786	0.573119
C66	C	2.085641	-0.451786	1.073119
C67	C	1.384136	-0.896980	0.371522
C68	C	1.884136	-0.396980	0.871522
C69	C	1.316987	-0.951856	0.304301
C70	C	1.816987	-0.451856	0.804301
C71	C	1.317018	-1.061580	0.304269
C72	C	1.817018	-0.561580	0.804269
C73	C	1.384200	-1.116429	0.371459
C74	C	1.884200	-0.616429	0.871459
C75	C	1.792397	-0.506150	0.506106
C76	C	2.292397	-0.006150	1.006106
C77	C	1.909173	-0.506157	0.506117
C78	C	2.409173	-0.006157	1.006117
C79	C	1.518299	-0.506111	0.779048
C80	C	2.018299	-0.006111	1.279048
C81	C	1.518368	-0.506136	0.895825
C82	C	2.018368	-0.006136	1.395825
C83	C	1.518356	-0.233167	0.506111
C84	C	2.018356	0.266833	1.006111
C85	C	1.518531	-0.116391	0.505861
C86	C	2.018531	0.383609	1.005861
C87	C	1.518457	-0.506182	0.232047
C88	C	2.018457	-0.006182	0.732047
C89	C	1.518497	-0.506202	0.115271
C90	C	2.018497	-0.006202	0.615271
C91	C	1.585624	-0.439020	0.950684
C92	C	2.085624	0.060980	1.450684
C93	C	1.585691	-0.439055	1.060408
C94	C	2.085691	0.060945	1.560408
C95	C	1.451237	-0.573325	1.060403
C96	C	1.951237	-0.073325	1.560403
C97	C	1.451176	-0.573295	0.950681
C98	C	1.951176	-0.073295	1.450681
H99	H	1.118550	-0.762878	0.250103
H100	H	1.618550	-0.262878	0.750103
H101	H	1.640337	-0.384336	0.906022
H102	H	2.140337	0.115664	1.406022
C103	C	1.134049	-0.364797	0.647005
C104	C	1.634049	0.135203	1.147005
H105	H	1.085647	-0.324723	0.686996
H106	H	1.585647	0.175277	1.186996
H107	H	1.176839	-0.319085	0.606758
H108	H	1.676839	0.180915	1.106758
H109	H	1.176861	-0.404919	0.692819
H110	H	1.676861	0.095081	1.192819
C111	C	0.903814	-0.782133	0.230970
C112	C	1.403814	-0.282133	0.730970
H113	H	0.952220	-0.822223	0.191002
H114	H	1.452220	-0.322223	0.691002
H115	H	0.860995	-0.742033	0.185151
H116	H	1.360995	-0.242033	0.685151
H117	H	0.861030	-0.827845	0.271233
H118	H	1.361030	-0.327845	0.771233
C119	C	1.249369	-0.640757	0.371836
C120	C	1.749369	-0.140757	0.871836
H121	H	1.274163	-0.591031	0.421415
H122	H	1.774163	-0.091031	0.921415
H123	H	1.274194	-0.622713	0.304012
H124	H	1.774194	-0.122713	0.804012
H125	H	1.274209	-0.708525	0.390094
H126	H	1.774209	-0.208525	0.890094
H127	H	1.396408	-0.627954	0.906012
H128	H	1.896408	-0.127954	1.406012
H129	H	0.819884	-0.640765	0.371885
H130	H	1.319884	-0.140765	0.871885
C131	C	0.903629	-0.364813	0.647051
C132	C	1.403629	0.135187	1.147051
H133	H	0.830430	-0.374468	0.637465
H134	H	1.330430	0.125532	1.137465
H135	H	0.921578	-0.294245	0.631595
H136	H	1.421578	0.205755	1.131595
H137	H	0.921619	-0.380075	0.717658
H138	H	1.421619	0.119925	1.217658
C139	C	1.243158	-1.121941	0.230332
C140	C	1.743158	-0.621941	0.730332
H141	H	1.203151	-1.073562	0.190319
H142	H	1.703151	-0.573562	0.690319
H143	H	1.197377	-1.164736	0.270498
H144	H	1.697377	-0.664736	0.770498
H145	H	1.283388	-1.164753	0.184545
H146	H	1.783388	-0.664753	0.684545
C147	C	1.384094	-0.776288	0.371558
C148	C	1.884094	-0.276288	0.871558
H149	H	1.334463	-0.751484	0.321922
H150	H	1.834463	-0.251484	0.821922
H151	H	1.451892	-0.751468	0.353413
H152	H	1.951892	-0.251468	0.853413
H153	H	1.365880	-0.751453	0.439365
H154	H	1.865880	-0.251453	0.939365
H155	H	1.262284	-0.907192	0.249603
H156	H	1.762284	-0.407192	0.749603
H157	H	1.640330	-0.907105	0.627837
H158	H	2.140330	-0.407105	1.127837
C159	C	1.384232	-1.237123	0.371426
C160	C	1.884232	-0.737123	0.871426
H161	H	1.334623	-1.261952	0.321769
H162	H	1.834623	-0.761952	0.821769
H163	H	1.366050	-1.261928	0.439214
H164	H	1.866050	-0.761928	0.939214
H165	H	1.452049	-1.261946	0.353249
H166	H	1.952049	-0.761946	0.853249
H167	H	1.640377	-1.106174	0.627784
H168	H	2.140377	-0.606174	1.127784
C169	C	1.659668	-0.365222	1.120749
C170	C	2.159668	0.134778	1.620749
H171	H	1.699668	-0.325218	1.072361
H172	H	2.199668	0.174782	1.572361
H173	H	1.705451	-0.405458	1.163481
H174	H	2.205451	0.094542	1.663481
H175	H	1.619519	-0.319422	1.163622
H176	H	2.119519	0.180578	1.663622
H177	H	1.396531	-0.628002	1.105081
H178	H	1.896531	-0.128002	1.605081
