data_functionalizedCrystal
_audit_creation_method	'MofGen! by Chris Wilmer'
_symmetry_space_group_name_H-M	'P1'
_symmetry_Int_Tables_number	1
_symmetry_cell_setting	triclinic
loop_
_symmetry_equiv_pos_as_xyz
  x,y,z
_cell_length_a	11.792241
_cell_length_b	11.792241
_cell_length_c	9.730223
_cell_angle_alpha	90.003985
_cell_angle_beta	89.996370
_cell_angle_gamma	95.806585
loop_
_atom_site_label
_atom_site_type_symbol
_atom_site_fract_x
_atom_site_fract_y
_atom_site_fract_z
O1	O	-0.155563	1.506902	-0.114140
O2	O	0.344437	2.006902	0.385860
O3	O	-0.171596	1.176561	-0.114170
O4	O	0.328404	1.676561	0.385830
O5	O	0.001591	1.349748	-0.114163
O6	O	0.501591	1.849748	0.385837
O7	O	-0.328750	1.333715	-0.114148
O8	O	0.171250	1.833715	0.385852
O9	O	0.001587	1.349746	0.114417
O10	O	0.501587	1.849746	0.614417
O11	O	-0.171600	1.176559	0.114409
O12	O	0.328400	1.676559	0.614409
O13	O	-0.155567	1.506900	0.114440
O14	O	0.344433	2.006900	0.614440
Zn15	Zn	-0.163584	1.341729	0.150717
Zn16	Zn	0.336416	1.841729	0.650717
Zn17	Zn	-0.163579	1.341732	-0.150447
Zn18	Zn	0.336421	1.841732	0.349553
O19	O	-0.328754	1.333713	0.114432
O20	O	0.171246	1.833713	0.614432
C21	C	-0.170591	1.134269	0.000115
C22	C	0.329409	1.634269	0.500115
C23	C	-0.167576	1.008255	0.000103
C24	C	0.332424	1.508255	0.500103
C25	C	-0.162034	0.777543	0.000142
C26	C	0.337966	1.277543	0.500142
C27	C	-0.165113	0.905928	0.000121
C28	C	0.334887	1.405928	0.500121
C29	C	-0.371043	1.334721	0.000144
C30	C	0.128957	1.834721	0.500144
C31	C	-0.497057	1.337736	0.000151
C32	C	0.002943	1.837736	0.500151
C33	C	-0.727769	1.343279	0.000116
C34	C	-0.227769	1.843279	0.500116
C35	C	-0.599384	1.340199	0.000135
C36	C	-0.099384	1.840199	0.500135
C37	C	0.043880	1.348740	0.000122
C38	C	0.543880	1.848740	0.500122
C39	C	0.169894	1.345726	0.000107
C40	C	0.669894	1.845726	0.500107
C41	C	-0.156572	1.549192	0.000151
C42	C	0.343428	2.049192	0.500151
C43	C	-0.159587	1.675206	0.000154
C44	C	0.340413	2.175206	0.500154
N45	N	-0.163588	1.341736	0.356253
N46	N	0.336412	1.841736	0.856253
N47	N	-0.163566	1.341734	-0.355984
N48	N	0.336434	1.841734	0.144016
C49	C	-0.086927	1.418443	0.428182
C50	C	0.413073	1.918443	0.928182
C51	C	-0.086913	1.418440	0.572065
C52	C	0.413087	1.918440	1.072065
C53	C	-0.240231	1.265019	0.572077
C54	C	0.259769	1.765019	1.072077
C55	C	-0.240239	1.265018	0.428196
C56	C	0.259761	1.765018	0.928196
C57	C	-0.010276	1.495161	0.356239
C58	C	0.489724	1.995161	0.856239
C59	C	0.066391	1.571875	0.428169
C60	C	0.566391	2.071875	0.928169
C61	C	0.066405	1.571872	0.572052
C62	C	0.566405	2.071872	1.072052
C63	C	-0.010248	1.495155	0.644005
C64	C	0.489752	1.995155	1.144005
H65	H	-0.010282	1.495173	0.239082
H66	H	0.489718	1.995173	0.739082
H67	H	0.128806	1.634329	0.369577
H68	H	0.628806	2.134329	0.869577
H69	H	0.128837	1.634328	0.630615
H70	H	0.628837	2.134328	1.130615
C71	C	-0.010228	1.495156	0.802281
C72	C	0.489772	1.995156	1.302281
N73	N	-0.010218	1.495164	0.921494
N74	N	0.489782	1.995164	1.421494
H75	H	-0.302640	1.202560	0.630671
H76	H	0.197360	1.702560	1.130671
C77	C	-0.324545	1.180611	0.349070
C78	C	0.175455	1.680611	0.849070
N79	N	-0.388035	1.117022	0.289471
N80	N	0.111965	1.617022	0.789471
