data_functionalizedCrystal
_audit_creation_method	'MofGen! by Chris Wilmer'
_symmetry_space_group_name_H-M	'P1'
_symmetry_Int_Tables_number	1
_symmetry_cell_setting	triclinic
loop_
_symmetry_equiv_pos_as_xyz
  x,y,z
_cell_length_a	19.288865
_cell_length_b	10.654545
_cell_length_c	9.130313
_cell_angle_alpha	89.994938
_cell_angle_beta	89.988256
_cell_angle_gamma	83.809663
loop_
_atom_site_label
_atom_site_type_symbol
_atom_site_fract_x
_atom_site_fract_y
_atom_site_fract_z
O1	O	0.097542	1.665758	-0.121804
O2	O	0.597542	2.165758	0.378196
O3	O	0.106839	1.300080	-0.121812
O4	O	0.606839	1.800080	0.378188
O5	O	0.001129	1.493485	-0.121778
O6	O	0.501129	1.993485	0.378222
O7	O	0.203252	1.472353	-0.121837
O8	O	0.703252	1.972353	0.378163
O9	O	0.001122	1.493466	0.121821
O10	O	0.501122	1.993466	0.621821
O11	O	0.106832	1.300060	0.121787
O12	O	0.606832	1.800060	0.621787
O13	O	0.097535	1.665738	0.121795
O14	O	0.597535	2.165738	0.621795
Cu15	Cu	0.102183	1.482898	0.144034
Cu16	Cu	0.602183	1.982898	0.644034
Cu17	Cu	0.102191	1.482921	-0.144050
Cu18	Cu	0.602191	1.982921	0.355950
O19	O	0.203245	1.472333	0.121762
O20	O	0.703245	1.972333	0.621762
C21	C	0.106154	1.253287	-0.000013
C22	C	0.606154	1.753287	0.499987
C23	C	0.104113	1.113887	-0.000014
C24	C	0.604113	1.613887	0.499986
C25	C	0.103149	1.048392	0.132772
C26	C	0.603149	1.548392	0.632772
C27	C	0.101220	0.917414	0.132773
C28	C	0.601220	1.417414	0.632773
C29	C	0.101223	0.917436	-0.132812
C30	C	0.601223	1.417436	0.367188
C31	C	0.103147	1.048413	-0.132811
C32	C	0.603147	1.548413	0.367189
C33	C	-0.024755	1.492796	0.000025
C34	C	0.475245	1.992796	0.500025
C35	C	-0.101872	1.490754	0.000038
C36	C	0.398128	1.990754	0.500038
C37	C	-0.145826	1.604236	0.000048
C38	C	0.354174	2.104236	0.500048
C39	C	-0.218286	1.602318	0.000025
C40	C	0.281714	2.102318	0.500025
C41	C	-0.246788	1.486913	0.000021
C42	C	0.253212	1.986913	0.500021
C43	C	-0.202824	1.373416	0.000003
C44	C	0.297176	1.873416	0.500003
C45	C	-0.130366	1.375337	0.000012
C46	C	0.369634	1.875337	0.500012
C47	C	-0.355671	1.396183	0.085347
C48	C	0.144329	1.896183	0.585347
C49	C	-0.428128	1.394267	0.085347
C50	C	0.071872	1.894267	0.585347
C51	C	-0.470272	1.480983	-0.000012
C52	C	0.029728	1.980983	0.499988
C53	C	-0.439952	1.569637	-0.085352
C54	C	0.060048	2.069637	0.414648
C55	C	-0.367494	1.571558	-0.085344
C56	C	0.132506	2.071558	0.414656
C57	C	-0.325356	1.484817	0.000011
C58	C	0.174644	1.984817	0.500011
C59	C	-0.592796	1.592393	-0.000029
C60	C	-0.092796	2.092393	0.499971
C61	C	-0.665257	1.590471	-0.000062
C62	C	-0.165257	2.090471	0.499938
C63	C	-0.649793	1.361565	-0.000068
C64	C	-0.149793	1.861565	0.499932
C65	C	-0.577334	1.363491	-0.000051
C66	C	-0.077334	1.863491	0.499949
C67	C	-0.548840	1.478908	-0.000024
C68	C	-0.048840	1.978908	0.499976
C69	C	0.229129	1.473023	-0.000045
C70	C	0.729129	1.973023	0.499955
C71	C	0.306246	1.475064	-0.000067
C72	C	0.806246	1.975064	0.499933
C73	C	0.098220	1.712532	-0.000007
C74	C	0.598220	2.212532	0.499993
C75	C	0.100261	1.851932	-0.000015
C76	C	0.600261	2.351932	0.499985
N77	N	0.102177	1.482890	0.346656
N78	N	0.602177	1.982890	0.846656
C79	C	0.059671	1.406998	0.576714
C80	C	0.559671	1.906998	1.076714
C81	C	0.059662	1.406985	0.423377
C82	C	0.559662	1.906985	0.923377
C83	C	0.144699	1.558824	0.423281
C84	C	0.644699	2.058824	0.923281
C85	C	0.144705	1.558844	0.576615
C86	C	0.644705	2.058844	1.076615
N87	N	0.102192	1.482924	0.653327
N88	N	0.602192	1.982924	1.153327
H89	H	0.100437	0.864111	-0.240930
H90	H	0.600437	1.364111	0.259070
H91	H	0.025037	1.345160	0.361005
H92	H	0.525037	1.845160	0.861005
H93	H	-0.672999	1.267600	-0.000078
H94	H	-0.172999	1.767600	0.499922
Br95	Br	-0.554121	1.749026	0.000021
Br96	Br	-0.054121	2.249026	0.500021
Br97	Br	0.202410	1.661903	0.680600
Br98	Br	0.702410	2.161903	1.180600
Br99	Br	-0.724912	1.744496	-0.000064
Br100	Br	-0.224912	2.244496	0.499936
H101	H	0.179312	1.620634	0.360802
H102	H	0.679312	2.120634	0.860802
Br103	Br	-0.517678	1.209471	-0.000062
Br104	Br	-0.017678	1.709471	0.499938
H105	H	0.100435	0.864094	0.240901
H106	H	0.600435	1.364094	0.740901
H107	H	0.103936	1.101697	0.240904
H108	H	0.603936	1.601697	0.740904
H109	H	0.103930	1.101741	-0.240948
H110	H	0.603930	1.601741	0.259052
Br111	Br	-0.469270	1.273962	0.201174
Br112	Br	0.030730	1.773962	0.701174
Br113	Br	-0.107159	1.760873	0.000043
Br114	Br	0.392841	2.260873	0.500043
H115	H	-0.254080	1.694731	0.000027
H116	H	0.245920	2.194731	0.500027
H117	H	-0.226035	1.279452	-0.000003
H118	H	0.273965	1.779452	0.499997
H119	H	-0.094578	1.282924	0.000005
H120	H	0.405422	1.782924	0.500005
H121	H	0.025054	1.345180	0.639169
H122	H	0.525054	1.845180	1.139169
H123	H	-0.342811	1.643740	-0.154833
H124	H	0.157189	2.143740	0.345167
H125	H	-0.474265	1.640249	-0.154860
H126	H	0.025735	2.140249	0.345140
H127	H	-0.321362	1.325565	0.154864
H128	H	0.178638	1.825565	0.654864
