data_functionalizedCrystal
_audit_creation_method	'MofGen! by Chris Wilmer'
_symmetry_space_group_name_H-M	'P1'
_symmetry_Int_Tables_number	1
_symmetry_cell_setting	triclinic
loop_
_symmetry_equiv_pos_as_xyz
  x,y,z
_cell_length_a	17.637651
_cell_length_b	12.759401
_cell_length_c	12.759393
_cell_angle_alpha	89.977503
_cell_angle_beta	101.248903
_cell_angle_gamma	78.780394
loop_
_atom_site_label
_atom_site_type_symbol
_atom_site_fract_x
_atom_site_fract_y
_atom_site_fract_z
Zn1	Zn	-0.314714	-1.521701	0.509390
Zn2	Zn	-0.446950	-1.486060	0.298132
Zn3	Zn	-0.314754	-1.345989	0.333709
Zn4	Zn	-0.446893	-1.310475	0.473779
O5	O	-0.380827	-1.416056	0.403753
O6	O	-0.332262	-1.663993	0.481380
O7	O	-0.429454	-1.467426	0.155819
O8	O	-0.204107	-1.399077	0.386806
O9	O	-0.429415	-1.637807	0.326169
O10	O	-0.204077	-1.528172	0.515878
O11	O	-0.332331	-1.364517	0.181958
O12	O	-0.332276	-1.194259	0.352276
O13	O	-0.429318	-1.338548	0.625535
O14	O	-0.429357	-1.168167	0.455185
O15	O	-0.332207	-1.493735	0.651698
O16	O	-0.557584	-1.432989	0.291639
O17	O	-0.557542	-1.303988	0.420687
C18	C	-0.380815	-1.143092	0.403728
C19	C	-0.380829	-1.026312	0.403737
C20	C	-0.586251	-1.360796	0.348461
C21	C	-0.674132	-1.337251	0.324843
C22	C	-0.431456	-0.957871	0.457194
C23	C	-0.431458	-0.848146	0.457211
C24	C	-0.330204	-0.875314	0.350306
C25	C	-0.330199	-0.985038	0.350296
C26	C	-0.459827	-0.690627	0.573435
C27	C	-0.510466	-0.622179	0.626879
C28	C	-0.587627	-0.637043	0.622068
C29	C	-0.614164	-0.720350	0.563792
C30	C	-0.563529	-0.788791	0.510339
C31	C	-0.486357	-0.773932	0.515173
C32	C	-0.301838	-1.142556	0.234068
C33	C	-0.251206	-1.210999	0.180608
C34	C	-0.174044	-1.196137	0.185409
C35	C	-0.147510	-1.112826	0.243665
C36	C	-0.198142	-1.044384	0.297125
C37	C	-0.275303	-1.059253	0.292326
C38	C	-0.962790	-1.595605	0.583512
C39	C	-1.045368	-1.573448	0.561301
C40	C	-1.045506	-1.439111	0.426769
C41	C	-0.962927	-1.461260	0.448965
C42	C	-0.921575	-1.539508	0.527339
C43	C	-0.921712	-1.405163	0.392792
C44	C	-0.839140	-1.427307	0.414991
C45	C	-0.797782	-1.505549	0.493364
C46	C	-0.839003	-1.561652	0.549538
C47	C	-0.963065	-1.326911	0.314424
C48	C	-0.921850	-1.270813	0.258251
C49	C	-0.839276	-1.292962	0.280444
C50	C	-0.797919	-1.371204	0.358817
C51	C	-0.798056	-1.236859	0.224270
C52	C	-0.715483	-1.259004	0.246469
C53	C	-0.715347	-1.393348	0.381016
C54	C	-0.174602	-1.471561	0.459283
C55	C	-0.086721	-1.495214	0.482947
C56	C	-0.380752	-1.416155	0.677807
C57	C	-0.380719	-1.416198	0.794592
C58	C	-0.380838	-0.690087	0.403772
C59	C	-0.380837	-0.806864	0.403764
C60	C	-0.380846	-1.416033	0.130780
C61	C	-0.380656	-1.416255	0.014055
C62	C	-0.330145	-1.497011	0.863081
C63	C	-0.330111	-1.497038	0.972814
C64	C	-0.431232	-1.335433	0.945558
C65	C	-0.431261	-1.335403	0.835828
C66	C	-0.236827	-1.559716	1.147891
C67	C	-0.186260	-1.640543	1.216382
C68	C	-0.174137	-1.746314	1.184055
C69	C	-0.212592	-1.771274	1.083236
C70	C	-0.263165	-1.690450	1.014750
C71	C	-0.275273	-1.584669	1.047079
C72	C	-0.524546	-1.272736	0.660749
C73	C	-0.575124	-1.191915	0.592259
C74	C	-0.587255	-1.086141	0.624581
C75	C	-0.548814	-1.061181	0.725400
C76	C	-0.498236	-1.142001	0.793890
C77	C	-0.486104	-1.247775	0.761560
H78	H	-0.472681	-0.991472	0.500712
H79	H	-0.466935	-1.121670	0.875982
H80	H	-1.078922	-1.619120	0.607065
H81	H	-0.288988	-1.562796	0.829511
H82	H	-0.514667	-1.358864	0.634418
O83	O	-0.592139	-0.878642	0.447491
H84	H	-0.554786	-0.956255	0.480810
O85	O	-0.616585	-1.218803	0.483502
H86	H	-0.654293	-1.276950	0.493171
O87	O	-0.966459	-1.186437	0.173708
H88	H	-1.004090	-1.122868	0.210553
O89	O	-0.642251	-0.563223	0.679706
H90	H	-0.616468	-0.568079	0.766593
O91	O	-1.090106	-1.354734	0.342223
H92	H	-1.154449	-1.348767	0.336212
O93	O	-0.670743	-1.477751	0.465545
H94	H	-0.633126	-1.541317	0.428677
O95	O	-0.481853	-0.532328	0.689737
H96	H	-0.430524	-0.566014	0.753793
O97	O	-1.052126	-1.303039	0.290471
H98	H	-1.073873	-1.275949	0.363850
O99	O	-0.144779	-1.613627	1.325117
H100	H	-0.080007	-1.636069	1.331013
O101	O	-0.697397	-0.736363	0.558589
H102	H	-0.707343	-0.805780	0.509080
O103	O	-0.376608	-0.674575	0.578593
H104	H	-0.366675	-0.605130	0.628065
H105	H	-0.831736	-1.173143	0.160465
O106	O	-0.275623	-0.830792	0.292625
H107	H	-0.284144	-0.742992	0.301591
O108	O	-0.279826	-1.300855	0.117770
H109	H	-0.242466	-1.378468	0.151078
O110	O	-0.708721	-1.529447	0.517304
H111	H	-0.686971	-1.456027	0.544302
H112	H	-0.176529	-0.976555	0.344570
H113	H	-0.681926	-1.213322	0.200727
H114	H	-0.929120	-1.659330	0.647325
O115	O	-0.304637	-1.717352	0.906011
H116	H	-0.287710	-1.804482	0.895032
H117	H	-0.202723	-1.857406	1.056928
H118	H	-0.084683	-1.100713	0.247557
H119	H	-0.132963	-1.812124	1.239828
H120	H	-0.132823	-1.251867	0.141866
O121	O	-0.485745	-1.248294	0.990033
H122	H	-0.477234	-1.261894	1.077840
H123	H	-0.364668	-1.154671	0.230162
H124	H	-0.805333	-1.625377	0.613351
O125	O	-0.561887	-0.947095	0.760272
H126	H	-0.603506	-0.895087	0.695706
H127	H	-0.246687	-1.473590	1.174218
O128	O	-0.641806	-0.998964	0.550713
H129	H	-0.666502	-1.034084	0.475175
