data_functionalizedCrystal
_audit_creation_method	'MofGen! by Chris Wilmer'
_symmetry_space_group_name_H-M	'P1'
_symmetry_Int_Tables_number	1
_symmetry_cell_setting	triclinic
loop_
_symmetry_equiv_pos_as_xyz
  x,y,z
_cell_length_a	15.995350
_cell_length_b	27.732048
_cell_length_c	15.072220
_cell_angle_alpha	89.993868
_cell_angle_beta	89.991149
_cell_angle_gamma	83.067515
loop_
_atom_site_label
_atom_site_type_symbol
_atom_site_fract_x
_atom_site_fract_y
_atom_site_fract_z
O1	O	1.110190	0.062301	-0.073717
O2	O	0.866315	0.069995	-0.073737
O3	O	0.995827	-0.004216	-0.073709
O4	O	0.980678	0.136512	-0.073744
O5	O	0.995795	-0.004212	0.073856
O6	O	0.866283	0.069999	0.073828
O7	O	1.110158	0.062305	0.073848
Zn8	Zn	0.988215	0.066153	0.097267
Zn9	Zn	0.988257	0.066148	-0.097156
O10	O	0.980646	0.136516	0.073821
C11	C	0.835108	0.069679	0.000044
C12	C	0.742170	0.068726	0.000037
C13	C	0.404467	0.065301	0.000056
C14	C	0.452585	0.012449	0.000399
C15	C	0.549263	0.013403	0.000060
C16	C	0.572006	0.067000	0.000047
C17	C	0.530599	0.093065	-0.084223
C18	C	0.433981	0.091738	-0.084287
C19	C	0.433592	0.092834	0.083522
C20	C	0.530537	0.092822	0.084630
C21	C	0.666691	0.067962	0.000039
C22	C	0.309782	0.064340	0.000058
C23	C	0.995493	-0.022222	0.000076
C24	C	0.994535	-0.075881	0.000083
C25	C	1.065040	-0.414392	0.000043
C26	C	1.061487	-0.616067	0.000030
O27	O	1.125959	-0.647045	-0.000004
N28	N	0.984692	-0.635522	0.000025
C29	C	0.908780	-0.604555	0.000017
O30	O	0.843380	-0.625730	0.000003
C31	C	0.912334	-0.402881	0.000023
C32	C	0.989134	-0.383429	0.000037
C33	C	1.141834	-0.394940	0.000056
C34	C	1.142721	-0.344524	0.000064
C35	C	1.066815	-0.313561	0.000059
C36	C	0.990021	-0.333013	0.000045
C37	C	0.836422	-0.371914	0.000009
C38	C	0.837317	-0.321493	0.000008
C39	C	0.914117	-0.302041	0.000023
C40	C	0.915002	-0.251634	0.000048
N41	N	0.991797	-0.232179	0.000053
C42	C	1.067703	-0.263142	0.000059
C43	C	0.906920	-0.710437	0.000015
C44	C	0.906031	-0.760855	0.000015
C45	C	1.058739	-0.772364	0.000027
C46	C	1.059627	-0.721945	0.000033
C47	C	0.983715	-0.690982	0.000021
C48	C	1.069561	-0.157265	0.000076
C49	C	1.070442	-0.106844	0.000088
C50	C	0.917734	-0.095340	0.000072
C51	C	0.916853	-0.145756	0.000065
C52	C	0.992773	-0.176718	0.000064
O53	O	0.850565	-0.220628	0.000072
O54	O	1.133094	-0.241958	0.000053
C55	C	1.064153	-0.464808	0.000035
C56	C	0.987359	-0.484260	0.000022
C57	C	0.911452	-0.453297	0.000016
C58	C	0.986470	-0.534679	0.000022
C59	C	1.062377	-0.565642	0.000027
C60	C	1.139172	-0.546187	0.000032
C61	C	1.140059	-0.495771	0.000040
C62	C	0.834657	-0.472752	0.000011
C63	C	0.833776	-0.523168	0.000004
C64	C	0.909683	-0.554132	0.000009
C65	C	1.141364	0.062621	0.000066
C66	C	1.234302	0.063575	0.000066
C67	C	0.980980	0.154523	0.000034
C68	C	0.981938	0.208182	0.000021
N69	N	0.988193	0.066156	0.229956
N70	N	0.988287	0.066140	-0.229845
C71	C	0.988256	0.066146	0.589158
C72	C	0.918727	0.105721	0.551536
C73	C	0.918884	0.105866	0.448710
C74	C	0.988224	0.066151	0.410954
C75	C	1.075446	0.077167	0.448249
C76	C	1.075056	0.077448	0.551106
C77	C	0.971342	0.015437	0.551269
C78	C	0.969333	0.015775	0.448405
C79	C	0.988211	0.066153	0.310240
C80	C	0.988274	0.066145	0.689871
H81	H	0.545395	0.131906	0.089710
H82	H	0.558086	0.073794	0.146972
H83	H	0.909157	0.004845	0.577257
H84	H	1.120545	-0.797583	0.000032
H85	H	1.203650	-0.420146	0.000057
H86	H	0.853661	0.099266	0.576294
H87	H	1.132984	-0.091010	0.000102
H88	H	0.775499	-0.296285	-0.000003
C89	C	0.882655	0.004482	0.415482
N90	N	0.817367	-0.004022	0.390681
H91	H	0.772844	-0.447546	0.000005
C92	C	0.406142	0.069491	0.169814
N93	N	0.385468	0.051903	0.234805
C94	C	0.933019	0.156273	0.586430
N95	N	0.943786	0.194347	0.612713
C96	C	0.389735	0.144157	-0.089484
N97	N	0.356414	0.183638	-0.093408
H98	H	0.577401	-0.007228	-0.060444
H99	H	0.854317	-0.161595	0.000078
C100	C	0.933388	0.156702	0.415443
N101	N	0.944317	0.194993	0.390387
C102	C	1.095309	0.127411	0.583496
N103	N	1.110557	0.165046	0.607887
C104	C	1.144112	-0.700553	0.000041
N105	N	1.207749	-0.684443	0.000044
C106	C	0.821545	-0.782246	0.000011
N107	N	0.757908	-0.798356	0.000001
H108	H	0.854029	0.099303	0.423496
C109	C	1.147022	0.040000	0.584728
N110	N	1.201236	0.011801	0.610048
H111	H	1.128393	0.049109	0.423790
H112	H	0.434323	-0.008675	0.060832
C113	C	0.823405	-0.676383	0.000002
N114	N	0.760501	-0.650736	-0.000005
H115	H	0.773883	-0.387743	-0.000008
C116	C	0.834241	-0.061271	0.000060
N117	N	0.771354	-0.035609	0.000042
H118	H	1.090825	0.113727	0.422472
C119	C	0.749284	-0.544559	-0.000011
N120	N	0.685646	-0.560668	-0.000031
C121	C	0.426488	-0.015967	-0.080770
N122	N	0.406828	-0.037369	-0.141906
C123	C	1.224546	-0.474381	0.000050
N124	N	1.288186	-0.458274	0.000055
C125	C	1.222669	-0.580256	0.000036
N126	N	1.285555	-0.605920	0.000034
C127	C	0.548998	0.146260	-0.088474
N128	N	0.562858	0.186326	-0.091676
C129	C	1.033384	-0.025875	0.413708
N130	N	1.081639	-0.057244	0.387582
C131	C	1.039846	-0.024350	0.584143
N132	N	1.091445	-0.054315	0.608909
C133	C	0.569259	0.068601	-0.168938
N134	N	0.598376	0.050171	-0.232744
H135	H	0.401326	0.131802	0.084083
H136	H	0.415932	0.072726	-0.147272
C137	C	1.153077	-0.191316	0.000084
N138	N	1.215982	-0.216963	0.000097
C139	C	1.227208	-0.323134	0.000070
N140	N	1.290848	-0.307026	0.000071
C141	C	0.588013	-0.014282	0.081665
N142	N	0.617196	-0.035137	0.143130
