data_functionalizedCrystal
_audit_creation_method	'MofGen! by Chris Wilmer'
_symmetry_space_group_name_H-M	'P1'
_symmetry_Int_Tables_number	1
_symmetry_cell_setting	triclinic
loop_
_symmetry_equiv_pos_as_xyz
  x,y,z
_cell_length_a	14.908520
_cell_length_b	19.805407
_cell_length_c	19.805399
_cell_angle_alpha	89.982197
_cell_angle_beta	93.270609
_cell_angle_gamma	93.317992
loop_
_atom_site_label
_atom_site_type_symbol
_atom_site_fract_x
_atom_site_fract_y
_atom_site_fract_z
Zn1	Zn	-0.359245	1.019201	-0.398241
Zn2	Zn	-0.510110	1.012592	-0.291584
Zn3	Zn	-0.359263	0.906015	-0.285069
Zn4	Zn	-0.510055	0.899457	-0.404732
O5	O	-0.434668	0.959316	-0.344906
O6	O	-0.379273	1.113040	-0.384102
O7	O	-0.490130	0.998432	-0.196004
O8	O	-0.233015	0.926539	-0.294639
O9	O	-0.490113	1.108184	-0.305742
O10	O	-0.233002	1.009697	-0.377785
O11	O	-0.379303	0.920131	-0.191218
O12	O	-0.379250	0.810429	-0.300933
O13	O	-0.490019	0.915363	-0.498586
O14	O	-0.490037	0.805611	-0.388849
O15	O	-0.379220	1.003338	-0.493817
O16	O	-0.636348	0.992074	-0.312036
O17	O	-0.636307	0.908955	-0.395165
C18	C	-0.434640	0.783461	-0.344889
C19	C	-0.434650	0.708229	-0.344898
C20	C	-0.377037	0.675409	-0.385771
C21	C	-0.377042	0.604721	-0.385773
C22	C	-0.434664	0.566853	-0.344907
C23	C	-0.492279	0.599677	-0.304030
C24	C	-0.492269	0.670365	-0.304024
C25	C	-0.492320	0.314602	-0.304052
C26	C	-0.492327	0.243910	-0.304063
C27	C	-0.377092	0.248958	-0.385802
C28	C	-0.377082	0.319646	-0.385796
C29	C	-0.434694	0.352464	-0.344917
C30	C	-0.434687	0.429113	-0.344913
C31	C	-0.434676	0.490205	-0.344914
C32	C	-0.669061	0.949104	-0.355027
C33	C	-0.769336	0.944797	-0.359379
C34	C	-0.957743	1.023345	-0.281064
C35	C	-1.051960	1.019301	-0.285151
C36	C	-1.051988	0.932668	-0.371643
C37	C	-0.957771	0.936712	-0.367556
C38	C	-0.910652	0.982052	-0.322264
C39	C	-0.816433	0.986092	-0.318174
C40	C	-0.816463	0.899463	-0.404669
C41	C	-0.910680	0.895419	-0.408756
C42	C	-0.199360	0.969587	-0.334761
C43	C	-0.099085	0.973963	-0.330438
C44	C	-0.434611	0.959357	-0.521447
C45	C	-0.434587	0.959374	-0.596678
C46	C	-0.434697	1.135858	-0.344925
C47	C	-0.434709	1.211089	-0.344932
C48	C	-0.376891	1.005183	-0.629540
C49	C	-0.376865	1.005191	-0.700227
C50	C	-0.434540	0.959393	-0.738051
C51	C	-0.492239	0.913578	-0.705185
C52	C	-0.492260	0.913567	-0.634498
C53	C	-0.492155	0.913620	-0.990254
C54	C	-0.492131	0.913636	-1.060946
C55	C	-0.376760	1.005244	-1.055983
C56	C	-0.376781	1.005233	-0.985297
C57	C	-0.434476	0.959417	-0.952436
C58	C	-0.434502	0.959408	-0.875789
C59	C	-0.434519	0.959404	-0.814698
C60	C	-0.434660	0.959318	-0.169050
C61	C	-0.434430	0.959443	-0.093809
H62	H	-0.330163	0.350474	-0.419076
H63	H	-0.329885	1.042496	-0.726980
H64	H	-0.330179	0.222229	-0.419085
H65	H	-0.778070	1.023008	-0.281294
H66	H	-0.539196	0.876286	-0.735987
C67	C	-0.555618	0.863218	-0.954117
N68	N	-0.603421	0.825252	-0.926896
C69	C	-1.103757	1.064725	-0.239825
N70	N	-1.142770	1.098939	-0.205683
H71	H	-0.539233	0.876258	-0.607743
H72	H	-0.539231	0.341314	-0.270766
C73	C	-0.905910	1.073217	-0.231242
N74	N	-0.866871	1.110782	-0.193716
C75	C	-0.555712	0.202256	-0.259099
N76	N	-0.603449	0.170883	-0.225232
H77	H	-1.090368	0.895759	-0.408521
C78	C	-0.313666	0.568622	-0.430739
N79	N	-0.265929	0.541434	-0.464609
C80	C	-0.555663	0.558020	-0.259075
N81	N	-0.603408	0.526644	-0.225216
H82	H	-0.539182	0.697085	-0.270741
C83	C	-0.962521	0.845544	-0.458570
N84	N	-1.001568	0.807975	-0.496088
H85	H	-0.539099	0.876338	-1.091741
H86	H	-0.778111	0.865837	-0.438215
C87	C	-0.313441	1.055566	-0.587939
N88	N	-0.265646	1.093514	-0.556607
C89	C	-0.313330	1.055613	-0.943694
N90	N	-0.265533	1.093557	-0.912359
C91	C	-0.313282	1.055636	-1.092136
N92	N	-0.265472	1.093590	-1.119365
H93	H	-0.330117	0.706237	-0.419051
