data_functionalizedCrystal
_audit_creation_method	'MofGen! by Chris Wilmer'
_symmetry_space_group_name_H-M	'P1'
_symmetry_Int_Tables_number	1
_symmetry_cell_setting	triclinic
loop_
_symmetry_equiv_pos_as_xyz
  x,y,z
_cell_length_a	15.538191
_cell_length_b	16.098538
_cell_length_c	17.038272
_cell_angle_alpha	87.079695
_cell_angle_beta	69.191825
_cell_angle_gamma	91.654063
loop_
_atom_site_label
_atom_site_type_symbol
_atom_site_fract_x
_atom_site_fract_y
_atom_site_fract_z
O1	O	1.233865	0.069263	-0.252876
O2	O	0.966680	0.069263	-0.164606
O3	O	1.098684	0.069256	-0.322106
O4	O	1.101861	0.069270	-0.095377
O5	O	1.090971	-0.069256	-0.312932
O6	O	0.958967	-0.069249	-0.155433
O7	O	1.226152	-0.069250	-0.243703
Zn8	Zn	1.091335	-0.091241	-0.198111
Zn9	Zn	1.101497	0.091255	-0.210198
O10	O	1.094148	-0.069243	-0.086203
C11	C	0.928468	0.000007	-0.150784
C12	C	0.826099	0.000007	-0.123275
N13	N	1.084406	-0.215790	-0.189865
C14	C	0.516406	0.000004	-0.396570
C15	C	0.420214	0.000006	-0.370702
C16	C	0.409432	0.000015	-0.225200
C17	C	0.505625	0.000008	-0.251056
C18	C	0.559105	0.000004	-0.336742
C19	C	0.548324	0.000008	-0.191227
C20	C	0.644509	0.000006	-0.217081
C21	C	0.697996	0.000005	-0.302764
C22	C	0.655290	0.000002	-0.362596
C23	C	0.494843	0.000018	-0.105542
C24	C	0.537542	0.000018	-0.045713
C25	C	0.633728	0.000011	-0.071567
C26	C	0.687215	0.000009	-0.157249
C27	C	0.676434	0.000013	-0.011735
C28	C	0.772619	0.000011	-0.037589
C29	C	0.783400	0.000007	-0.183104
C30	C	1.140457	-0.259378	-0.256703
C31	C	1.135619	-0.346567	-0.250929
C32	C	1.074734	-0.390166	-0.178315
C33	C	1.018676	-0.346572	-0.111473
C34	C	1.023510	-0.259385	-0.117250
C35	C	1.057209	-0.653415	-0.157387
C36	C	1.052382	-0.740608	-0.151614
C37	C	1.169323	-0.740597	-0.291072
C38	C	1.174156	-0.653408	-0.296840
C39	C	1.118095	-0.609822	-0.230000
C40	C	1.069789	-0.479287	-0.172411
C41	C	1.123036	-0.520703	-0.235907
C42	C	1.264364	0.000008	-0.257525
C43	C	1.366733	0.000014	-0.285034
C44	C	1.091939	0.000000	-0.345828
C45	C	1.083321	0.000000	-0.430177
N46	N	1.108433	0.215804	-0.218452
C47	C	1.162444	-0.000001	-0.502728
C48	C	1.154342	0.000007	-0.581982
C49	C	1.067115	0.000010	-0.588682
C50	C	0.987985	0.000014	-0.516123
C51	C	0.996089	0.000012	-0.436872
C52	C	1.038486	0.000022	-0.826322
C53	C	1.030388	0.000021	-0.905581
C54	C	1.196745	0.000016	-0.971435
C55	C	1.204841	0.000009	-0.892179
C56	C	1.125712	0.000017	-0.819627
C57	C	1.058830	0.000016	-0.669690
C58	C	1.133997	0.000018	-0.738621
C59	C	1.100893	0.000015	-0.062481
C60	C	1.109511	0.000020	0.021868
H61	H	0.826947	-0.000001	-0.252877
H62	H	0.959352	0.000010	-0.911027
F63	F	0.480615	0.000028	0.045477
F64	F	1.228981	-0.786990	-0.362204
H65	H	0.974053	0.000028	-0.767258
F66	F	0.392473	0.000021	-0.078027
H67	H	0.559953	-0.000004	-0.466344
F68	F	1.238557	0.000005	-0.659195
H69	H	1.223733	-0.617912	-0.355968
F70	F	0.965999	0.000023	-0.676829
F71	F	0.800366	0.000008	-0.330281
F72	F	0.374774	-0.000004	-0.434386
F73	F	0.712213	-0.000012	-0.453793
F74	F	0.911875	0.000016	-0.359656
H75	H	0.365876	0.000021	-0.155434
F76	F	1.195274	-0.392957	-0.322066
F77	F	0.895151	0.000027	-0.523256
F78	F	0.953872	-0.392974	-0.034193
H79	H	0.632876	0.000025	0.058030
F80	F	1.226828	0.000019	-0.731488
F81	F	1.187828	-0.474300	-0.313188
F82	F	0.818065	0.000013	0.026087
H83	H	1.020217	-0.514793	-0.113286
H84	H	1.002799	-0.776103	-0.092479
F85	F	1.255284	-0.000012	-0.495607
H86	H	1.190040	-0.223885	-0.315831
F87	F	0.997548	-0.607034	-0.086251
F88	F	0.963849	-0.212997	-0.046113
H89	H	1.275871	0.000007	-0.886733
H90	H	1.261167	0.000011	-1.030513
