data_functionalizedCrystal
_audit_creation_method	'MofGen! by Chris Wilmer'
_symmetry_space_group_name_H-M	'P1'
_symmetry_Int_Tables_number	1
_symmetry_cell_setting	triclinic
loop_
_symmetry_equiv_pos_as_xyz
  x,y,z
_cell_length_a	16.992694
_cell_length_b	16.109301
_cell_length_c	15.186229
_cell_angle_alpha	89.999641
_cell_angle_beta	89.998303
_cell_angle_gamma	87.064851
loop_
_atom_site_label
_atom_site_type_symbol
_atom_site_fract_x
_atom_site_fract_y
_atom_site_fract_z
O1	O	1.040346	0.176289	0.073103
O2	O	0.812061	0.174355	0.073129
O3	O	0.932474	0.054709	0.073120
O4	O	0.919932	0.295934	0.073113
O5	O	0.932465	0.054706	-0.073337
O6	O	0.812052	0.174351	-0.073328
O7	O	1.040336	0.176285	-0.073354
Zn8	Zn	0.926193	0.175317	-0.096594
Zn9	Zn	0.926205	0.175322	0.096370
O10	O	0.919923	0.295931	-0.073345
C11	C	0.782844	0.171865	-0.000096
C12	C	0.695802	0.164441	-0.000085
C13	C	0.645543	0.236067	-0.000088
C14	C	0.563758	0.229087	-0.000100
C15	C	0.532234	0.150481	-0.000103
C16	C	0.582499	0.078849	-0.000103
C17	C	0.664282	0.085830	-0.000097
C18	C	0.288644	0.121548	-0.000125
C19	C	0.206854	0.114572	-0.000128
C20	C	0.188119	0.264811	-0.000128
C21	C	0.269904	0.271785	-0.000117
C22	C	0.320163	0.200154	-0.000121
N23	N	0.448637	0.143344	-0.000112
N24	N	0.403758	0.207291	-0.000118
C25	C	0.931962	0.023699	-0.000105
C26	C	0.930439	-0.068698	-0.000096
C27	C	1.069553	0.178775	-0.000127
C28	C	1.156595	0.186198	-0.000131
N29	N	0.926190	0.175314	-0.228287
C30	C	0.920435	0.326941	-0.000117
C31	C	0.921959	0.419338	-0.000121
C32	C	0.854049	0.637079	-0.000100
C33	C	0.855487	0.723895	-0.000094
C34	C	0.998353	0.713554	-0.000114
C35	C	0.996915	0.626740	-0.000114
C36	C	0.924761	0.588504	-0.000112
C37	C	0.927636	0.762135	-0.000105
C38	C	0.929195	0.856265	-0.000098
C39	C	0.923202	0.494368	-0.000117
C40	C	0.979531	0.122355	-0.546209
C41	C	0.979528	0.122356	-0.454020
C42	C	0.872870	0.228284	-0.454022
C43	C	0.872877	0.228287	-0.546210
C44	C	0.926206	0.175318	-0.592301
C45	C	0.926197	0.175315	-0.407923
C46	C	0.926195	0.175316	-0.307967
C47	C	0.926210	0.175319	-0.692264
N48	N	0.926214	0.175319	0.228062
H49	H	0.147190	0.323129	-0.000126
Br50	Br	0.759517	0.789815	-0.000070
H51	H	1.022956	0.079226	-0.583735
Br52	Br	1.051904	0.050479	-0.391468
H53	H	0.556826	0.014846	-0.000117
Br54	Br	1.096272	0.765450	-0.000119
Br55	Br	0.164072	0.007884	-0.000151
H56	H	1.054501	0.587188	-0.000120
Br57	Br	0.800496	0.300166	-0.391466
H58	H	0.829453	0.271420	-0.583740
Br59	Br	0.756127	0.585190	-0.000095
H60	H	0.671204	0.300077	-0.000085
Br61	Br	0.495552	0.326299	-0.000101
H62	H	0.329554	0.063220	-0.000130
H63	H	0.705203	0.027504	-0.000094
H64	H	0.295565	0.335795	-0.000105
