data_functionalizedCrystal
_audit_creation_method	'MofGen! by Chris Wilmer'
_symmetry_space_group_name_H-M	'P1'
_symmetry_Int_Tables_number	1
_symmetry_cell_setting	triclinic
loop_
_symmetry_equiv_pos_as_xyz
  x,y,z
_cell_length_a	14.044220
_cell_length_b	14.853567
_cell_length_c	13.930277
_cell_angle_alpha	90.005533
_cell_angle_beta	89.985405
_cell_angle_gamma	91.588096
loop_
_atom_site_label
_atom_site_type_symbol
_atom_site_fract_x
_atom_site_fract_y
_atom_site_fract_z
O1	O	1.257974	-0.217365	0.079714
O2	O	0.981994	-0.209521	0.079739
O3	O	1.127356	-0.082797	0.079728
O4	O	1.112612	-0.344088	0.079724
O5	O	1.127382	-0.082808	-0.079934
O6	O	0.982020	-0.209531	-0.079923
O7	O	1.258000	-0.217375	-0.079948
Zn8	Zn	1.120014	-0.213455	-0.105286
Zn9	Zn	1.119980	-0.213441	0.105076
O10	O	1.112638	-0.344099	-0.079938
C11	C	0.946688	-0.206092	-0.000089
C12	C	0.841449	-0.195851	-0.000079
N13	N	1.119957	-0.213425	0.248642
C14	C	1.126701	-0.049161	-0.000100
C15	C	1.124699	0.051082	-0.000091
C16	C	0.648763	-0.177127	-0.000098
C17	C	0.591225	-0.249765	-0.000103
C18	C	0.484008	-0.239347	-0.000114
C19	C	0.755990	-0.187544	-0.000088
C20	C	1.293306	-0.220803	-0.000118
C21	C	1.398545	-0.231045	-0.000122
C22	C	1.113293	-0.377735	-0.000108
C23	C	1.115295	-0.477978	-0.000110
C24	C	1.029888	0.471127	-0.000101
C25	C	1.202581	0.478726	-0.000116
C26	C	1.204464	0.384543	-0.000111
C27	C	1.119057	0.333648	-0.000102
C28	C	1.031768	0.376935	-0.000098
C29	C	1.291751	0.341248	-0.000124
C30	C	1.293637	0.247060	-0.000120
C31	C	1.208229	0.196163	-0.000104
C32	C	1.120937	0.239456	-0.000099
C33	C	1.035530	0.188561	-0.000090
C34	C	0.948237	0.231852	-0.000079
C35	C	0.946360	0.326038	-0.000083
C36	C	1.210105	0.101977	-0.000100
C37	C	1.037410	0.094369	-0.000088
N38	N	1.120044	-0.213465	-0.248852
C39	C	1.055545	-0.269441	0.700916
C40	C	1.184524	-0.157481	0.700876
C41	C	1.184509	-0.157473	0.600380
C42	C	1.120010	-0.213449	0.550148
C43	C	1.055526	-0.269432	0.600411
C44	C	1.248986	-0.101483	0.550110
C45	C	1.248972	-0.101473	0.449608
C46	C	1.184477	-0.157454	0.399373
C47	C	1.119991	-0.213441	0.449643
C48	C	1.055492	-0.269417	0.399410
C49	C	0.991010	-0.325409	0.449677
C50	C	0.991031	-0.325414	0.550176
C51	C	1.184456	-0.157449	0.298875
C52	C	1.055473	-0.269409	0.298905
H53	H	0.617501	-0.107120	-0.000102
N54	N	0.950175	0.042371	-0.000089
N55	N	0.951863	-0.041723	-0.000094
H56	H	0.890254	-0.078449	-0.000096
N57	N	0.630434	-0.337599	-0.000112
N58	N	0.683175	-0.361026	-0.067408
H59	H	0.710870	-0.423057	-0.067414
N60	N	0.925136	-0.382596	0.398362
N61	N	0.926377	-0.466050	0.409555
H62	H	0.879855	-0.506438	0.373311
H63	H	0.958816	0.506379	-0.000088
N64	N	1.250302	-0.100265	0.247510
N65	N	1.220261	-0.041808	0.191449
H66	H	1.266768	-0.001420	0.155170
N67	N	0.861007	0.179846	-0.000082
N68	N	0.862708	0.095753	-0.000090
H69	H	0.801104	0.059019	-0.000094
H70	H	1.364716	0.211820	-0.000128
N71	N	0.857208	0.370274	-0.000068
N72	N	0.855546	0.454369	-0.000073
H73	H	0.792583	0.485615	-0.000065
H74	H	1.301477	-0.055882	0.408686
N75	N	1.289808	0.530724	-0.000136
N76	N	1.288117	0.614817	-0.000145
H77	H	1.349724	0.651546	-0.000158
H78	H	1.281178	0.066733	-0.000116
N79	N	0.989573	-0.326586	0.247612
N80	N	0.901978	-0.318100	0.258886
H81	H	0.855433	-0.358481	0.222661
N82	N	1.378977	0.393248	-0.000142
N83	N	1.377282	0.477341	-0.000139
H84	H	1.438888	0.514072	-0.000149
N85	N	0.925176	-0.382598	0.601537
N86	N	0.925202	-0.382592	0.691268
H87	H	0.878691	-0.422976	0.727547
H88	H	1.003047	-0.315031	0.741846
H89	H	1.301494	-0.055904	0.591013
N90	N	1.250390	-0.100303	0.752198
N91	N	1.250392	-0.100313	0.841929
H92	H	1.296912	-0.059929	0.878180
