data_functionalizedCrystal
_audit_creation_method	'MofGen! by Chris Wilmer'
_symmetry_space_group_name_H-M	'P1'
_symmetry_Int_Tables_number	1
_symmetry_cell_setting	triclinic
loop_
_symmetry_equiv_pos_as_xyz
  x,y,z
_cell_length_a	27.354012
_cell_length_b	27.353283
_cell_length_c	27.349551
_cell_angle_alpha	60.005606
_cell_angle_beta	60.011434
_cell_angle_gamma	59.993282
loop_
_atom_site_label
_atom_site_type_symbol
_atom_site_fract_x
_atom_site_fract_y
_atom_site_fract_z
O1	O	0.067635	-0.714267	0.597330
O2	O	0.567635	-0.214267	1.097330
O3	O	0.025429	-0.556105	0.481282
O4	O	0.525429	-0.056105	0.981282
O5	O	0.125575	-0.656186	0.481214
O6	O	0.625575	-0.156186	0.981214
O7	O	-0.032512	-0.614186	0.597397
O8	O	0.467488	-0.114186	1.097397
O9	O	0.158797	-0.622968	0.514367
O10	O	0.658797	-0.122968	1.014367
O11	O	0.058650	-0.522887	0.514434
O12	O	0.558650	-0.022887	1.014434
O13	O	0.100856	-0.681048	0.630482
O14	O	0.600856	-0.181048	1.130482
Zn15	Zn	0.085028	-0.596693	0.577722
Zn16	Zn	0.585028	-0.096693	1.077722
Zn17	Zn	0.041257	-0.640460	0.534042
Zn18	Zn	0.541257	-0.140460	1.034042
O19	O	0.000709	-0.580967	0.630549
O20	O	0.500709	-0.080967	1.130549
N21	N	0.114901	-0.566828	0.607534
N22	N	0.614901	-0.066828	1.107534
N23	N	0.011389	-0.670331	0.504229
N24	N	0.511389	-0.170331	1.004229
C25	C	0.179404	-0.338196	0.672015
C26	C	0.679404	0.161804	1.172015
C27	C	0.179501	-0.502386	0.836160
C28	C	0.679501	-0.002386	1.336160
C29	C	0.179415	-0.502363	0.671996
C30	C	0.679415	-0.002363	1.171996
C31	C	0.343611	-0.502373	0.671960
C32	C	0.843611	-0.002373	1.171960
C33	C	0.197478	-0.392371	0.690061
C34	C	0.697478	0.107629	1.190061
C35	C	0.197534	-0.484321	0.781984
C36	C	0.697534	0.015679	1.281984
C37	C	0.289434	-0.484312	0.690032
C38	C	0.789434	0.015688	1.190032
C39	C	0.197486	-0.484308	0.690051
C40	C	0.697486	0.015692	1.190051
C41	C	0.156398	-0.269238	0.649045
C42	C	0.656398	0.230762	1.149045
C43	C	0.156418	-0.525342	0.649015
C44	C	0.656418	-0.025342	1.149015
C45	C	0.220484	-0.461329	0.713032
C46	C	0.720484	0.038671	1.213032
C47	C	0.443889	-0.485097	0.619172
C48	C	0.943889	0.014903	1.119172
C49	C	0.506571	-0.505993	0.598266
C50	C	1.006571	-0.005993	1.098266
C51	C	0.506589	-0.607412	0.636940
C52	C	1.006589	-0.107412	1.136940
C53	C	0.443909	-0.586515	0.657848
C54	C	0.943909	-0.086515	1.157848
C55	C	0.171510	-0.237888	0.587422
C56	C	0.671510	0.262112	1.087422
C57	C	0.150593	-0.175201	0.566543
C58	C	0.650593	0.324799	1.066543
C59	C	0.099458	-0.175218	0.668913
C60	C	0.599458	0.324782	1.168913
C61	C	0.120375	-0.237905	0.689792
C62	C	0.620375	0.262095	1.189792
C63	C	0.094789	-0.510201	0.664176
C64	C	0.594789	-0.010201	1.164176
C65	C	0.073888	-0.531091	0.643278
C66	C	0.573888	-0.031091	1.143278
C67	C	0.176239	-0.582263	0.592072
C68	C	0.676239	-0.082263	1.092072
C69	C	0.197142	-0.561373	0.612963
C70	C	0.697142	-0.061373	1.112963
C71	C	0.094933	-0.510244	0.936476
C72	C	0.594933	-0.010244	1.436476
C73	C	0.074073	-0.531151	0.999161
C74	C	0.574073	-0.031151	1.499161
C75	C	0.176453	-0.582335	0.999126
C76	C	0.676453	-0.082335	1.499126
C77	C	0.197312	-0.561429	0.936439
C78	C	0.697312	-0.061429	1.436439
C79	C	0.156551	-0.525382	0.905116
C80	C	0.656551	-0.025382	1.405116
C81	C	0.412561	-0.525357	0.648961
C82	C	0.912561	-0.025357	1.148961
C83	C	-0.098513	-0.688235	0.485867
C84	C	0.401487	-0.188235	0.985867
C85	C	-0.006461	-0.688368	0.394066
C86	C	0.493539	-0.188368	0.894066
C87	C	-0.006645	-0.780264	0.486040
C88	C	0.493355	-0.280264	0.986040
C89	C	-0.006630	-0.688361	0.486097
C90	C	0.493370	-0.188361	0.986097
C91	C	-0.029562	-0.711308	0.463018
C92	C	0.470438	-0.211308	0.963018
N93	N	0.537030	-0.566846	0.607436
N94	N	1.037030	-0.066846	1.107436
O95	O	0.741877	-0.576849	0.459995
O96	O	1.241877	-0.076849	0.959995
O97	O	0.742050	-0.693241	0.618010
O98	O	1.242050	-0.193241	1.118010
O99	O	0.741986	-0.692977	0.517791
O100	O	1.241986	-0.192977	1.017791
O101	O	0.741941	-0.577114	0.560214
O102	O	1.241941	-0.077114	1.060214
O103	O	0.642405	-0.659839	0.551046
O104	O	1.142405	-0.159839	1.051046
O105	O	0.642469	-0.660104	0.651265
O106	O	1.142469	-0.160104	1.151265
O107	O	0.642296	-0.543712	0.493251
O108	O	1.142296	-0.043712	0.993251
Zn109	Zn	0.626572	-0.596646	0.577538
Zn110	Zn	1.126572	-0.096646	1.077538
Zn111	Zn	0.757774	-0.640307	0.533723
Zn112	Zn	1.257774	-0.140307	1.033723
O113	O	0.642360	-0.543976	0.593469
O114	O	1.142360	-0.043976	1.093469
N115	N	0.847316	-0.670107	0.503818
N116	N	1.347316	-0.170107	1.003818
N117	N	0.114877	-0.144758	0.607577
N118	N	0.614877	0.355242	1.107577
O119	O	-0.032498	0.060193	0.597441
O120	O	0.467502	0.560193	1.097441
O121	O	0.125523	0.060193	0.481067
O122	O	0.625523	0.560193	0.981067
O123	O	0.025289	0.060179	0.481345
O124	O	0.525289	0.560179	0.981345
O125	O	0.067736	0.060207	0.597163
O126	O	0.567736	0.560207	1.097163
O127	O	0.058511	-0.039410	0.514543
O128	O	0.558511	0.460590	1.014543
O129	O	0.158745	-0.039397	0.514265
O130	O	0.658745	0.460603	1.014265
O131	O	0.000724	-0.039396	0.630638
O132	O	0.500724	0.460604	1.130638
Zn133	Zn	0.085009	-0.055208	0.577722
Zn134	Zn	0.585009	0.444792	1.077722
Zn135	Zn	0.041238	0.076005	0.533983
Zn136	Zn	0.541238	0.576005	1.033983
O137	O	0.100958	-0.039382	0.630360
O138	O	0.600958	0.460618	1.130360
N139	N	0.011362	0.165555	0.504130
N140	N	0.511362	0.665555	1.004130
N141	N	0.115121	-0.566884	1.029592
N142	N	0.615121	-0.066884	1.529592
O143	O	0.104990	-0.714248	1.234528
O144	O	0.604990	-0.214248	1.734528
O145	O	-0.011371	-0.556177	1.234539
O146	O	0.488629	-0.056177	1.734539
O147	O	-0.011103	-0.656395	1.234497
O148	O	0.488897	-0.156395	1.734497
O149	O	0.104722	-0.614030	1.234569
O150	O	0.604722	-0.114030	1.734569
O151	O	0.022090	-0.623190	1.134913
O152	O	0.522090	-0.123190	1.634913
O153	O	0.021822	-0.522972	1.134954
O154	O	0.521822	-0.022972	1.634954
O155	O	0.138182	-0.681044	1.134943
O156	O	0.638182	-0.181044	1.634943
Zn157	Zn	0.085272	-0.596736	1.119137
Zn158	Zn	0.585272	-0.096736	1.619137
Zn159	Zn	0.041539	-0.640484	1.250344
Zn160	Zn	0.541539	-0.140484	1.750344
O161	O	0.137914	-0.580826	1.134984
O162	O	0.637914	-0.080826	1.634984
N163	N	0.011689	-0.670343	1.339890
N164	N	0.511689	-0.170343	1.839890
C165	C	0.038085	-0.519567	0.481870
C166	C	0.538085	-0.019567	0.981870
C167	C	0.162104	-0.643505	0.481786
C168	C	0.662104	-0.143505	0.981786
C169	C	0.088200	-0.717587	0.629893
C170	C	0.588200	-0.217587	1.129893
C171	C	-0.035819	-0.593649	0.629977
C172	C	0.464181	-0.093649	1.129977
C173	C	0.692280	-0.692701	0.654545
C174	C	1.192280	-0.192701	1.154545
C175	C	0.692203	-0.692374	0.530435
C176	C	1.192203	-0.192374	1.030435
C177	C	0.692063	-0.544251	0.456717
C178	C	1.192063	-0.044251	0.956717
C179	C	0.692144	-0.544580	0.580825
C180	C	1.192144	-0.044580	1.080825
C181	C	0.162000	0.010521	0.481600
C182	C	0.662000	0.510521	0.981600
C183	C	0.037914	0.010381	0.481984
C184	C	0.537914	0.510381	0.981984
C185	C	-0.035795	0.010399	0.630065
C186	C	0.464205	0.510399	1.130065
C187	C	0.088333	0.010415	0.629722
C188	C	0.588333	0.510415	1.129722
C189	C	-0.010799	-0.519660	1.184747
C190	C	0.489201	-0.019660	1.684747
C191	C	-0.010461	-0.643761	1.184677
C192	C	0.489539	-0.143761	1.684677
C193	C	0.137610	-0.717561	1.184734
C194	C	0.637610	-0.217561	1.684734
C195	C	0.137280	-0.593452	1.184783
C196	C	0.637280	-0.093452	1.684783
H197	H	0.023897	-0.518815	1.024687
H198	H	0.523897	-0.018815	1.524687
H199	H	0.692005	-0.507708	0.411338
H200	H	1.192005	-0.007708	0.911338
O201	O	0.216052	0.010880	0.437957
O202	O	0.716052	0.510880	0.937957
C203	C	0.314538	0.011343	0.409962
C204	C	0.814538	0.511343	0.909962
C205	C	0.253348	0.010951	0.459435
C206	C	0.753348	0.510951	0.959435
H207	H	0.344714	0.011388	0.427312
H208	H	0.844714	0.511388	0.927312
H209	H	0.308033	0.053120	0.369253
H210	H	0.808033	0.553120	0.869253
H211	H	0.336182	-0.030235	0.396705
H212	H	0.836182	0.469765	0.896705
H213	H	0.231672	0.052500	0.472742
H214	H	0.731672	0.552500	0.972742
H215	H	0.259893	-0.030854	0.500111
H216	H	0.759893	0.469146	1.000111
O217	O	0.098954	-0.771743	0.673431
O218	O	0.598954	-0.271743	1.173431
C219	C	0.104425	-0.825349	0.773202
C220	C	0.604425	-0.325349	1.273202
C221	C	0.092244	-0.763982	0.723943
C222	C	0.592244	-0.263982	1.223943
H223	H	0.098992	-0.819093	0.814058
H224	H	0.598992	-0.319093	1.314058
H225	H	0.152000	-0.855463	0.755765
H226	H	0.652000	-0.355463	1.255765
H227	H	0.071256	-0.846920	0.786263
H228	H	0.571256	-0.346920	1.286263
H229	H	0.125375	-0.742359	0.710860
H230	H	0.625375	-0.242359	1.210860
H231	H	0.044653	-0.733909	0.741407
H232	H	0.544653	-0.233909	1.241407
O233	O	-0.089963	-0.583081	0.673562
O234	O	0.410037	-0.083081	1.173562
C235	C	-0.151393	-0.622482	0.774514
C236	C	0.348607	-0.122482	1.274514
C237	C	-0.090055	-0.634534	0.725202
C238	C	0.409945	-0.134534	1.225202
H239	H	-0.151484	-0.664068	0.816281
H240	H	0.348516	-0.164068	1.316281
H241	H	-0.187961	-0.611144	0.758053
H242	H	0.312039	-0.111144	1.258053
H243	H	-0.160132	-0.583287	0.785725
H244	H	0.339868	-0.083287	1.285725
H245	H	-0.081259	-0.673736	0.713969
H246	H	0.418741	-0.173736	1.213969
H247	H	-0.053521	-0.645836	0.741689
H248	H	0.446479	-0.145836	1.241689
H249	H	0.207509	-0.652460	0.445301
H250	H	0.707509	-0.152460	0.945301
H251	H	-0.046832	-0.652809	1.184615
H252	H	0.453168	-0.152809	1.684615
H253	H	0.028825	0.010378	0.445599
H254	H	0.528825	0.510378	0.945599
H255	H	0.097420	0.010424	0.666105
H256	H	0.597420	0.510424	1.166105
H257	H	0.418403	-0.619300	0.682106
H258	H	0.918403	-0.119300	1.182106
O259	O	0.180767	-0.582688	1.184719
O260	O	0.680767	-0.082688	1.684719
C261	C	0.280454	-0.577064	1.133129
C262	C	0.780454	-0.077064	1.633129
C263	C	0.231262	-0.589284	1.133134
C264	C	0.731262	-0.089284	1.633134
H265	H	0.321286	-0.582380	1.091420
H266	H	0.821286	-0.082380	1.591420
H267	H	0.293595	-0.610230	1.174778
H268	H	0.793595	-0.110230	1.674778
H269	H	0.262876	-0.529490	1.133167
H270	H	0.762876	-0.029490	1.633167
H271	H	0.248798	-0.636841	1.133074
H272	H	0.748798	-0.136841	1.633074
H273	H	0.218127	-0.556081	1.091488
H274	H	0.718127	-0.056081	1.591488
H275	H	-0.047330	-0.474261	1.184750
H276	H	0.452670	0.025739	1.684750
O277	O	-0.089892	0.010376	0.673728
O278	O	0.410108	0.510376	1.173728
C279	C	-0.151225	0.010427	0.774659
C280	C	0.348775	0.510427	1.274659
C281	C	-0.089930	0.010440	0.725269
C282	C	0.410070	0.510440	1.225269
H283	H	-0.151280	0.010491	0.816337
H284	H	0.348720	0.510491	1.316337
H285	H	-0.160005	-0.031264	0.786024
H286	H	0.339995	0.468736	1.286024
H287	H	-0.187788	0.052092	0.758160
H288	H	0.312212	0.552092	1.258160
H289	H	-0.053329	-0.031197	0.741727
H290	H	0.446671	0.468803	1.241727
H291	H	-0.081202	0.052159	0.713912
H292	H	0.418798	0.552159	1.213912
O293	O	0.692101	-0.501213	0.591758
O294	O	1.192101	-0.001213	1.091758
C295	C	0.692172	-0.473835	0.662883
C296	C	1.192172	0.026165	1.162883
C297	C	0.692207	-0.522995	0.650586
C298	C	1.192207	-0.022995	1.150586
H299	H	0.692270	-0.491432	0.710440
H300	H	1.192270	0.008568	1.210440
H301	H	0.650459	-0.432978	0.657599
H302	H	1.150459	0.067022	1.157599
H303	H	0.733808	-0.460710	0.629692
H304	H	1.233808	0.039290	1.129692
H305	H	0.650599	-0.536170	0.683766
H306	H	1.150599	-0.036170	1.183766
H307	H	0.733947	-0.563820	0.655850
H308	H	1.233947	-0.063820	1.155850
O309	O	0.181122	-0.771760	1.184755
O310	O	0.681122	-0.271760	1.684755
C311	C	0.208972	-0.870387	1.184682
C312	C	0.708972	-0.370387	1.684682
C313	C	0.159638	-0.809039	1.184674
C314	C	0.659638	-0.309039	1.684674
H315	H	0.191625	-0.900539	1.184604
H316	H	0.691625	-0.400539	1.684604
H317	H	0.222025	-0.891941	1.226376
H318	H	0.722025	-0.391941	1.726376
H319	H	0.249809	-0.864079	1.143024
H320	H	0.749809	-0.364079	1.643024
H321	H	0.118768	-0.815295	1.226304
H322	H	0.618768	-0.315295	1.726304
H323	H	0.146635	-0.787505	1.142952
H324	H	0.646635	-0.287505	1.642952
H325	H	0.209648	-0.611676	1.024626
H326	H	0.709648	-0.111676	1.524626
O327	O	0.055254	-0.475253	0.906144
O328	O	0.555254	0.024747	1.406144
C329	C	-0.048496	-0.426660	0.912800
C330	C	0.451504	0.073340	1.412800
C331	C	-0.003627	-0.466299	0.947226
C332	C	0.496373	0.033701	1.447226
H333	H	-0.096111	-0.419398	0.946000
H334	H	0.403889	0.080602	1.446000
H335	H	-0.041336	-0.449612	0.883466
H336	H	0.458664	0.050388	1.383466
H337	H	-0.041254	-0.381584	0.883442
H338	H	0.458746	0.118416	1.383442
H339	H	-0.010842	-0.511382	0.976616
H340	H	0.489158	-0.011382	1.476616
H341	H	-0.010798	-0.443300	0.976522
H342	H	0.489202	0.056700	1.476522
H343	H	0.692323	-0.729239	0.699929
H344	H	1.192323	-0.229239	1.199929
O345	O	0.105765	-0.268314	0.749662
O346	O	0.605765	0.231686	1.249662
C347	C	0.110555	-0.287426	0.843526
C348	C	0.610555	0.212574	1.343526
C349	C	0.127154	-0.252972	0.775724
C350	C	0.627154	0.247028	1.275724
H351	H	0.127829	-0.275026	0.864619
H352	H	0.627829	0.224974	1.364619
H353	H	0.131701	-0.337625	0.851513
H354	H	0.631701	0.162375	1.351513
H355	H	0.059801	-0.275105	0.864646
H356	H	0.559801	0.224895	1.364646
H357	H	0.177899	-0.265243	0.754559
H358	H	0.677899	0.234757	1.254559
H359	H	0.105965	-0.202782	0.767780
H360	H	0.605965	0.297218	1.267780
O361	O	0.257185	-0.576240	0.906044
O362	O	0.757185	-0.076240	1.406044
C363	C	0.351071	-0.655709	0.886806
C364	C	0.851071	-0.155709	1.386806
C365	C	0.283277	-0.639021	0.921273
C366	C	0.783277	-0.139021	1.421273
H367	H	0.372184	-0.706467	0.899096
H368	H	0.872184	-0.206467	1.399096
H369	H	0.372242	-0.638456	0.899140
H370	H	0.872242	-0.138456	1.399140
H371	H	0.358967	-0.634549	0.836626
H372	H	0.858967	-0.134549	1.336626
H373	H	0.275327	-0.660176	0.971461
H374	H	0.775327	-0.160176	1.471461
H375	H	0.262140	-0.656263	0.908889
H376	H	0.762140	-0.156263	1.408889
O377	O	0.055148	-0.475181	0.699163
O378	O	0.555148	0.024819	1.199163
C379	C	-0.048579	-0.426651	0.747772
C380	C	0.451421	0.073349	1.247772
C381	C	-0.003751	-0.466304	0.708131
C382	C	0.496249	0.033696	1.208131
H383	H	-0.096208	-0.419473	0.755045
H384	H	0.403792	0.080527	1.255045
H385	H	-0.041412	-0.381538	0.724816
H386	H	0.458588	0.118462	1.224816
H387	H	-0.041298	-0.449626	0.792840
H388	H	0.458702	0.050374	1.292840
H389	H	-0.011004	-0.443382	0.663056
H390	H	0.488996	0.056618	1.163056
H391	H	-0.010928	-0.511416	0.731133
H392	H	0.489072	-0.011416	1.231133
O393	O	0.014037	-0.516493	0.658025
O394	O	0.514037	-0.016493	1.158025
C395	C	-0.068937	-0.552521	0.706292
C396	C	0.431063	-0.052521	1.206292
C397	C	-0.001148	-0.569136	0.689618
C398	C	0.498852	-0.069136	1.189618
H399	H	-0.081236	-0.595072	0.731848
H400	H	0.418764	-0.095072	1.231848
H401	H	-0.081322	-0.527019	0.663780
H402	H	0.418678	-0.027019	1.163780
H403	H	-0.094445	-0.523162	0.735628
H404	H	0.405555	-0.023162	1.235628
H405	H	0.024408	-0.598514	0.660297
H406	H	0.524408	-0.098514	1.160297
H407	H	0.011192	-0.594608	0.732155
H408	H	0.511192	-0.094608	1.232155
H409	H	0.209407	-0.611608	0.562721
H410	H	0.709407	-0.111608	1.062721
O411	O	0.027227	-0.465343	0.438442
O412	O	0.527227	0.034657	0.938442
C413	C	-0.043805	-0.366752	0.410897
C414	C	0.456195	0.133248	0.910897
C415	C	-0.031593	-0.428137	0.460127
C416	C	0.468407	0.071863	0.960127
H417	H	-0.091356	-0.336649	0.428416
H418	H	0.408644	0.163351	0.928416
H419	H	-0.038477	-0.372945	0.370051
H420	H	0.461523	0.127055	0.870051
H421	H	-0.010599	-0.345204	0.397791
H422	H	0.489401	0.154796	0.897791
H423	H	-0.064788	-0.449718	0.473285
H424	H	0.435212	0.050282	0.973285
H425	H	-0.036901	-0.421904	0.500941
H426	H	0.463099	0.078096	1.000941
H427	H	0.692221	-0.728771	0.521355
H428	H	1.192221	-0.228771	1.021355
H429	H	0.247325	-0.573698	0.600612
H430	H	0.747325	-0.073698	1.100612
H431	H	0.162897	-0.149674	0.516363
H432	H	0.662897	0.350326	1.016363
O433	O	0.536976	-0.666823	0.645534
O434	O	1.036976	-0.166823	1.145534
C435	C	0.556181	-0.753286	0.627123
C436	C	1.056181	-0.253286	1.127123
C437	C	0.521717	-0.686005	0.617359
C438	C	1.021717	-0.186005	1.117359
H439	H	0.543867	-0.768813	0.604339
H440	H	1.043867	-0.268813	1.104339
H441	H	0.543869	-0.779552	0.677140
H442	H	1.043869	-0.279552	1.177140
H443	H	0.606359	-0.761294	0.607083
H444	H	1.106359	-0.261294	1.107083
H445	H	0.471531	-0.677941	0.637364
H446	H	0.971531	-0.177941	1.137364
H447	H	0.534079	-0.659774	0.567335
H448	H	1.034079	-0.159774	1.067335
O449	O	0.536981	-0.466848	0.569236
O450	O	1.036981	0.033152	1.069236
C451	C	0.556096	-0.379940	0.484764
C452	C	1.056096	0.120060	0.984764
C453	C	0.521630	-0.424237	0.517577
C454	C	1.021630	0.075763	1.017577
H455	H	0.543688	-0.345470	0.442998
H456	H	1.043688	0.154530	0.942998
H457	H	0.606288	-0.405347	0.471298
H458	H	1.106288	0.094653	0.971298
H459	H	0.543796	-0.356184	0.515734
H460	H	1.043796	0.143816	1.015734
H461	H	0.533880	-0.448005	0.486640
H462	H	1.033880	0.051995	0.986640
H463	H	0.471447	-0.398797	0.531053
H464	H	0.971447	0.101203	1.031053
O465	O	0.413343	-0.425703	0.610570
O466	O	0.913343	0.074297	1.110570
C467	C	0.316773	-0.348562	0.625666
C468	C	0.816773	0.151438	1.125666
C469	C	0.351288	-0.415838	0.635438
C470	C	0.851288	0.084162	1.135438
H471	H	0.266595	-0.340566	0.645777
H472	H	0.766595	0.159434	1.145777
H473	H	0.329033	-0.322307	0.575646
H474	H	0.829033	0.177693	1.075646
H475	H	0.329146	-0.333012	0.648378
H476	H	0.829146	0.166988	1.148378
H477	H	0.338933	-0.431443	0.612762
H478	H	0.838933	0.068557	1.112762
H479	H	0.339025	-0.442053	0.685467
H480	H	0.839025	0.057947	1.185467
O481	O	0.206473	-0.268230	0.547758
O482	O	0.706473	0.231770	1.047758
C483	C	0.255007	-0.261597	0.444015
C484	C	0.755007	0.238403	0.944015
C485	C	0.215395	-0.227158	0.488866
C486	C	0.715395	0.272842	0.988866
H487	H	0.262243	-0.228405	0.396392
H488	H	0.762243	0.271595	0.896392
H489	H	0.232051	-0.290931	0.451198
H490	H	0.732051	0.209069	0.951198
H491	H	0.300092	-0.290960	0.451257
H492	H	0.800092	0.209040	0.951257
H493	H	0.170303	-0.197762	0.481651
H494	H	0.670303	0.302238	0.981651
H495	H	0.238398	-0.197862	0.481672
H496	H	0.738398	0.302138	0.981672
H497	H	0.070133	-0.149706	0.702094
H498	H	0.570133	0.350294	1.202094
