data_functionalizedCrystal
_audit_creation_method	'MofGen! by Chris Wilmer'
_symmetry_space_group_name_H-M	'P1'
_symmetry_Int_Tables_number	1
_symmetry_cell_setting	triclinic
loop_
_symmetry_equiv_pos_as_xyz
  x,y,z
_cell_length_a	15.625950
_cell_length_b	15.712078
_cell_length_c	9.730223
_cell_angle_alpha	89.999452
_cell_angle_beta	108.073200
_cell_angle_gamma	101.032433
loop_
_atom_site_label
_atom_site_type_symbol
_atom_site_fract_x
_atom_site_fract_y
_atom_site_fract_z
O1	O	1.233340	0.112987	0.500178
O2	O	0.975317	0.126416	0.371625
O3	O	1.070003	-0.006170	0.418807
O4	O	1.138654	0.245573	0.452996
O5	O	1.070002	-0.006167	0.647386
O6	O	0.975317	0.126419	0.600205
O7	O	1.233339	0.112990	0.728757
Zn8	Zn	1.104328	0.119705	0.700773
Zn9	Zn	1.104329	0.119701	0.399610
O10	O	1.138654	0.245576	0.681576
C11	C	0.941531	0.125805	0.469082
C12	C	0.840855	0.123972	0.418923
C13	C	1.058787	-0.038386	0.527508
C14	C	1.025358	-0.134384	0.510849
C15	C	0.509667	0.117997	0.876791
C16	C	0.415071	0.116291	0.829597
C17	C	0.415118	0.116288	0.580432
C18	C	0.509717	0.117998	0.627605
C19	C	0.556984	0.118852	0.775786
C20	C	0.557035	0.118853	0.526601
C21	C	0.651625	0.120559	0.573770
C22	C	0.698898	0.121410	0.721944
C23	C	0.651575	0.120557	0.822955
C24	C	0.509765	0.117994	0.378420
C25	C	0.557082	0.118849	0.277415
C26	C	0.651675	0.120560	0.324585
C27	C	0.698948	0.121411	0.472759
C28	C	0.698998	0.121413	0.223573
C29	C	0.793588	0.123118	0.270743
C30	C	0.793538	0.123117	0.519928
C31	C	1.309178	-0.501118	0.652241
C32	C	1.277745	-0.591320	0.636581
C33	C	1.120246	-0.570905	0.558111
C34	C	1.151665	-0.480699	0.573771
C35	C	1.246132	-0.445813	0.620835
C36	C	1.088619	-0.425395	0.542364
C37	C	1.120037	-0.335197	0.558016
C38	C	1.214499	-0.300304	0.605074
C39	C	1.277549	-0.355616	0.636486
C40	C	0.994153	-0.460283	0.495291
C41	C	0.931107	-0.404978	0.463884
C42	C	0.962524	-0.314779	0.479546
C43	C	1.056987	-0.279886	0.526604
C44	C	0.899474	-0.259467	0.448134
C45	C	0.930891	-0.169270	0.463785
C46	C	1.088404	-0.189688	0.542255
C47	C	1.267125	0.113601	0.631298
C48	C	1.367801	0.115434	0.681447
C49	C	1.149869	0.277792	0.572872
C50	C	1.183298	0.373790	0.589522
N51	N	1.104334	0.119708	0.906313
N52	N	1.104327	0.119691	0.194073
C53	C	1.146283	0.061018	0.999141
C54	C	1.146277	0.061008	1.143022
C55	C	1.062373	0.178384	1.101231
C56	C	1.062374	0.178389	0.957351
C57	C	1.194727	-0.006745	1.023272
C58	C	1.194722	-0.006756	1.167152
H59	H	0.832028	0.123825	0.640593
H60	H	1.152731	-0.069414	1.190850
Cl61	Cl	1.308760	0.015356	1.284269
Cl62	Cl	1.009621	0.252160	0.840642
Cl63	Cl	0.851633	-0.099740	0.424303
H64	H	1.028209	0.226160	1.142802
Cl65	Cl	0.355586	0.115201	0.956591
Cl66	Cl	1.138116	-0.109197	0.934765
H67	H	1.043330	-0.599322	0.519785
H68	H	1.266780	0.013854	1.014543
Cl69	Cl	1.427939	-0.457254	0.711454
H70	H	1.329092	-0.636347	0.662151
H71	H	0.432744	0.116609	0.340020
Cl72	Cl	0.954657	-0.573676	0.475727
H73	H	0.775919	0.122798	0.760347
H74	H	0.548157	0.118705	0.997455
Cl75	Cl	0.711005	0.121641	1.009245
H76	H	0.376620	0.115589	0.459783
Cl77	Cl	0.639559	0.120304	0.037293
H78	H	0.518583	0.118150	0.156765
H79	H	0.832116	0.123819	0.188495
Cl80	Cl	0.812353	-0.448844	0.404709
H81	H	1.165328	-0.161283	0.580594
H82	H	1.240078	-0.226859	0.617817
H83	H	1.354473	-0.327210	0.674825
H84	H	0.822559	-0.287886	0.409800
