data_functionalizedCrystal
_audit_creation_method	'MofGen! by Chris Wilmer'
_symmetry_space_group_name_H-M	'P1'
_symmetry_Int_Tables_number	1
_symmetry_cell_setting	triclinic
loop_
_symmetry_equiv_pos_as_xyz
  x,y,z
_cell_length_a	11.792241
_cell_length_b	10.268362
_cell_length_c	14.519709
_cell_angle_alpha	89.993769
_cell_angle_beta	96.063220
_cell_angle_gamma	90.000374
loop_
_atom_site_label
_atom_site_type_symbol
_atom_site_fract_x
_atom_site_fract_y
_atom_site_fract_z
O1	O	-1.506208	-0.108177	0.126405
O2	O	-1.172875	0.225157	0.459738
O3	O	-0.839541	0.558490	0.793071
O4	O	-1.175795	-0.108207	0.139432
O5	O	-0.842461	0.225126	0.472765
O6	O	-0.509128	0.558459	0.806099
O7	O	-1.349762	-0.108180	-0.001288
O8	O	-1.016429	0.225154	0.332045
O9	O	-0.683095	0.558487	0.665378
O10	O	-1.332241	-0.108205	0.267125
O11	O	-0.998908	0.225129	0.600458
O12	O	-0.665574	0.558462	0.933791
O13	O	-1.349747	0.108421	-0.001294
O14	O	-1.016413	0.441754	0.332039
O15	O	-0.683080	0.775088	0.665373
O16	O	-1.175780	0.108393	0.139426
O17	O	-0.842446	0.441726	0.472759
O18	O	-0.509113	0.775060	0.806093
O19	O	-1.506193	0.108424	0.126399
O20	O	-1.172860	0.441757	0.459732
O21	O	-0.839526	0.775090	0.793065
Cu22	Cu	-1.340985	0.128186	0.132912
Cu23	Cu	-1.007652	0.461519	0.466245
Cu24	Cu	-0.674318	0.794853	0.799578
Cu25	Cu	-1.341003	-0.127969	0.132919
Cu26	Cu	-1.007669	0.205364	0.466252
Cu27	Cu	-0.674336	0.538697	0.799585
O28	O	-1.332226	0.108396	0.267119
O29	O	-0.998893	0.441729	0.600452
O30	O	-0.665559	0.775063	0.933785
C31	C	-1.133501	0.000089	0.138611
C32	C	-0.800167	0.333422	0.471944
C33	C	-0.466834	0.666756	0.805277
C34	C	-1.007501	0.000078	0.136161
C35	C	-0.674167	0.333411	0.469495
C36	C	-0.340834	0.666744	0.802828
C37	C	-1.348938	0.000121	-0.035654
C38	C	-1.015604	0.333454	0.297679
C39	C	-0.682271	0.666788	0.631013
C40	C	-1.346491	0.000121	-0.138044
C41	C	-1.013158	0.333455	0.195289
C42	C	-0.679824	0.666788	0.528623
C43	C	-1.548487	0.000124	0.127220
C44	C	-1.215154	0.333458	0.460553
C45	C	-0.881820	0.666791	0.793887
C46	C	-1.674487	0.000127	0.129669
C47	C	-1.341154	0.333461	0.463003
C48	C	-1.007820	0.666794	0.796336
N49	N	-1.340981	0.308352	0.132906
N50	N	-1.007647	0.641685	0.466240
N51	N	-0.674314	0.975018	0.799573
C52	C	-0.776813	0.000116	0.131657
C53	C	-0.443480	0.333449	0.464991
C54	C	-0.110147	0.666782	0.798324
C55	C	-0.905185	0.000095	0.134160
C56	C	-0.571851	0.333428	0.467493
C57	C	-0.238518	0.666761	0.800827
N58	N	-1.341016	-0.308135	0.132917
N59	N	-1.007683	0.025198	0.466250
N60	N	-0.674349	0.358531	0.799584
C61	C	-1.340997	0.574022	0.132917
C62	C	-1.007664	0.907356	0.466250
C63	C	-0.674330	1.240689	0.799584
C64	C	-1.340984	0.426184	0.132914
C65	C	-1.007651	0.759518	0.466247
C66	C	-0.674318	1.092851	0.799580
C67	C	-1.337483	0.000087	-0.512973
C68	C	-1.004149	0.333420	-0.179640
C69	C	-0.670816	0.666753	0.153694
C70	C	-1.339984	0.000097	-0.408656
C71	C	-1.006651	0.333430	-0.075322
C72	C	-0.673318	0.666763	0.258011
C73	C	-1.341987	0.000105	-0.325512
C74	C	-1.008653	0.333439	0.007822
C75	C	-0.675320	0.666772	0.341155
C76	C	-1.344489	0.000113	-0.221188
C77	C	-1.011155	0.333446	0.112145
C78	C	-0.677822	0.666780	0.445479
C79	C	-1.333050	0.000093	0.301484
C80	C	-0.999717	0.333426	0.634818
C81	C	-0.666383	0.666759	0.968151
C82	C	-1.335497	0.000084	0.403875
C83	C	-1.002164	0.333417	0.737208
C84	C	-0.668830	0.666750	1.070541
