data_functionalizedCrystal
_audit_creation_method	'MofGen! by Chris Wilmer'
_symmetry_space_group_name_H-M	'P1'
_symmetry_Int_Tables_number	1
_symmetry_cell_setting	triclinic
loop_
_symmetry_equiv_pos_as_xyz
  x,y,z
_cell_length_a	12.759401
_cell_length_b	12.759400
_cell_length_c	12.759393
_cell_angle_alpha	90.031564
_cell_angle_beta	90.019613
_cell_angle_gamma	90.014916
loop_
_atom_site_label
_atom_site_type_symbol
_atom_site_fract_x
_atom_site_fract_y
_atom_site_fract_z
Zn1	Zn	1.606256	-0.418198	0.594013
Zn2	Zn	1.606150	-0.593917	0.418333
Zn3	Zn	1.430557	-0.418253	0.418349
Zn4	Zn	1.430546	-0.593836	0.593971
O5	O	1.518377	-0.506051	0.506166
O6	O	1.753263	-0.441518	0.570719
O7	O	1.582818	-0.570671	0.271314
O8	O	1.453913	-0.271225	0.441675
O9	O	1.753185	-0.570618	0.441648
O10	O	1.582998	-0.271184	0.570735
O11	O	1.453811	-0.441612	0.271325
O12	O	1.283535	-0.441534	0.441634
O13	O	1.453894	-0.570480	0.740998
O14	O	1.283527	-0.570534	0.570663
O15	O	1.582987	-0.441440	0.741028
O16	O	1.582807	-0.740927	0.441607
O17	O	1.453791	-0.740868	0.570648
C18	C	1.245410	-0.506032	0.506147
C19	C	1.128633	-0.506049	0.506163
C20	C	1.073734	-0.573164	0.438864
C21	C	0.964010	-0.573182	0.438882
C22	C	0.964094	-0.438962	0.573502
C23	C	1.073816	-0.438950	0.573488
C24	C	1.073685	-0.650651	0.361139
C25	C	0.963961	-0.650670	0.361158
C26	C	1.518315	-0.779018	0.506144
C27	C	1.518384	-0.895795	0.506170
C28	C	1.585637	-0.950653	0.439053
C29	C	1.585702	-1.060377	0.439085
C30	C	1.451252	-1.060375	0.573355
C31	C	1.451193	-0.950653	0.573327
C32	C	1.652828	-0.895795	0.371896
C33	C	1.720086	-0.950653	0.304773
C34	C	1.720150	-1.060377	0.304805
C35	C	1.652957	-1.115243	0.371961
C36	C	1.792411	-0.506071	0.506187
C37	C	1.909187	-0.506079	0.506195
C38	C	1.518451	-0.505945	0.780200
C39	C	1.518482	-0.505900	0.896976
C40	C	1.518468	-0.232018	0.506211
C41	C	1.518507	-0.115241	0.506230
C42	C	1.518364	-0.506081	0.233199
C43	C	1.518537	-0.505830	0.116423
C44	C	1.585710	-0.438702	0.951856
C45	C	1.585735	-0.438664	1.061580
C46	C	1.451301	-0.573031	1.061535
C47	C	1.451272	-0.573063	0.951813
C48	C	1.663328	-0.361129	0.951883
C49	C	1.663353	-0.361091	1.061607
H50	H	0.929934	-0.728007	0.390169
C51	C	0.903791	-0.365153	0.647547
H52	H	0.830581	-0.374767	0.637914
H53	H	0.921806	-0.380607	0.718108
H54	H	0.921774	-0.294538	0.632283
C55	C	1.793988	-0.890305	0.230904
H56	H	1.784311	-0.817101	0.240488
H57	H	1.864583	-0.908211	0.246338
H58	H	1.778645	-0.908364	0.160304
H59	H	1.103459	-0.732044	0.382785
C60	C	0.923677	-0.621092	0.251300
H61	H	0.981567	-0.608905	0.206110
H62	H	0.882297	-0.676751	0.224169
H63	H	0.882325	-0.559353	0.255849
C64	C	1.119631	-0.611152	0.256793
H65	H	1.193993	-0.612482	0.260344
H66	H	1.096610	-0.655147	0.201284
H67	H	1.096648	-0.541439	0.244388
H68	H	1.396579	-0.627710	1.106197
C69	C	1.623982	-0.256678	1.107616
H70	H	1.625315	-0.260225	1.181976
H71	H	1.668028	-0.201226	1.084664
H72	H	1.554280	-0.244189	1.084606
H73	H	1.396546	-1.105056	0.628029
C74	C	1.652764	-0.775102	0.371861
H75	H	1.702416	-0.750286	0.322260
H76	H	1.584960	-0.750351	0.353635
H77	H	1.670895	-0.750212	0.439671
H78	H	1.774922	-1.105039	0.250158
H79	H	1.396431	-0.905987	0.627981
H80	H	1.396525	-0.627778	0.907134
C81	C	1.653034	-1.235937	0.372000
H82	H	1.702709	-1.260753	0.322407
H83	H	1.671178	-1.260686	0.439822
H84	H	1.585256	-1.260830	0.353772
C85	C	1.633906	-0.251224	0.911677
H86	H	1.621816	-0.206003	0.969599
H87	H	1.689589	-0.224202	0.870325
H88	H	1.572141	-0.255665	0.870312
C89	C	1.767715	-0.400518	0.905897
H90	H	1.814223	-0.418032	0.961345
H91	H	1.755200	-0.460785	0.863974
H92	H	1.798132	-0.347024	0.864013
H93	H	1.744723	-0.382884	1.091387
H94	H	1.118510	-0.384309	0.628300
