data_functionalizedCrystal
_audit_creation_method	'MofGen! by Chris Wilmer'
_symmetry_space_group_name_H-M	'P1'
_symmetry_Int_Tables_number	1
_symmetry_cell_setting	triclinic
loop_
_symmetry_equiv_pos_as_xyz
  x,y,z
_cell_length_a	21.295417
_cell_length_b	13.032831
_cell_length_c	13.032268
_cell_angle_alpha	90.886977
_cell_angle_beta	82.859352
_cell_angle_gamma	97.165621
loop_
_atom_site_label
_atom_site_type_symbol
_atom_site_fract_x
_atom_site_fract_y
_atom_site_fract_z
Zn1	Zn	-0.425102	-1.498336	0.780728
Zn2	Zn	0.074898	-0.998336	1.280728
Zn3	Zn	-0.518887	-1.520047	0.608724
Zn4	Zn	-0.018887	-1.020047	1.108724
Zn5	Zn	-0.398806	-1.348204	0.586976
Zn6	Zn	0.101194	-0.848204	1.086976
Zn7	Zn	-0.515483	-1.326296	0.758850
Zn8	Zn	-0.015483	-0.826296	1.258850
O9	O	-0.464570	-1.423221	0.683820
O10	O	0.035430	-0.923221	1.183820
O11	O	-0.449972	-1.645133	0.776169
O12	O	0.050028	-1.145133	1.276169
O13	O	-0.493377	-1.515506	0.461925
O14	O	0.006623	-1.015506	0.961925
O15	O	-0.314216	-1.368201	0.612731
O16	O	0.185784	-0.868201	1.112731
O17	O	-0.518875	-1.661084	0.649799
O18	O	-0.018875	-1.161084	1.149799
O19	O	-0.333535	-1.478503	0.755080
O20	O	0.166465	-0.978503	1.255080
O21	O	-0.405155	-1.389253	0.445946
O22	O	0.094845	-0.889253	0.945946
O23	O	-0.401855	-1.201381	0.591517
O24	O	0.098145	-0.701381	1.091517
O25	O	-0.513075	-1.330864	0.905667
O26	O	-0.013075	-0.830864	1.405667
O27	O	-0.487577	-1.185286	0.717793
O28	O	0.012423	-0.685286	1.217793
O29	O	-0.446672	-1.457261	0.921740
O30	O	0.053328	-0.957261	1.421740
O31	O	-0.606514	-1.494263	0.628585
O32	O	-0.106514	-0.994263	1.128585
O33	O	-0.604014	-1.351916	0.738882
O34	O	-0.104014	-0.851916	1.238882
C35	C	-0.441494	-1.156018	0.649922
C36	C	0.058506	-0.656018	1.149922
C37	C	-0.431638	-1.041704	0.635445
C38	C	0.068362	-0.541704	1.135445
C39	C	-0.628106	-1.423093	0.683746
C40	C	-0.128106	-0.923093	1.183746
C41	C	-0.698078	-1.423128	0.683760
C42	C	-0.198078	-0.923128	1.183760
C43	C	-0.482427	-1.389197	0.952062
C44	C	0.017573	-0.889197	1.452062
C45	C	-0.490036	-1.374697	1.066371
C46	C	0.009964	-0.874697	1.566371
C47	C	-0.732235	-1.497299	0.626403
C48	C	-0.232235	-0.997299	1.126403
C49	C	-0.797983	-1.497344	0.626433
C50	C	-0.297983	-0.997344	1.126433
C51	C	-0.829569	-1.423202	0.683806
C52	C	-0.329569	-0.923202	1.183806
C53	C	-0.795405	-1.349025	0.741175
C54	C	-0.295405	-0.849025	1.241175
C55	C	-0.729659	-1.348989	0.741152
C56	C	-0.229659	-0.848989	1.241152
N57	N	-0.925592	-1.332239	0.680232
N58	N	-0.425592	-0.832239	1.180232
N59	N	-0.988048	-1.332278	0.680248
N60	N	-0.488048	-0.832278	1.180248
C61	C	-1.027658	-1.423310	0.683879
C62	C	-0.527658	-0.923310	1.183879
N63	N	-1.002451	-1.514306	0.687474
N64	N	-0.502451	-1.014306	1.187474
N65	N	-0.939990	-1.514267	0.687452
N66	N	-0.439990	-1.014267	1.187452
C67	C	-0.900860	-1.423234	0.683837
C68	C	-0.400860	-0.923234	1.183837
C69	C	-1.133107	-1.497535	0.626551
C70	C	-0.633107	-0.997535	1.126551
C71	C	-1.198857	-1.497581	0.626588
C72	C	-0.698857	-0.997581	1.126588
C73	C	-1.196276	-1.349254	0.741323
C74	C	-0.696276	-0.849254	1.241323
C75	C	-1.130528	-1.349216	0.741293
C76	C	-0.630528	-0.849216	1.241293
C77	C	-1.098947	-1.423356	0.683901
C78	C	-0.598947	-0.923356	1.183901
C79	C	-0.300399	-1.423374	0.683920
C80	C	0.199601	-0.923374	1.183920
C81	C	-0.230439	-1.423439	0.683963
C82	C	0.269561	-0.923439	1.183963
C83	C	-0.487736	-1.691467	0.717850
C84	C	0.012264	-1.191467	1.217850
C85	C	-0.497609	-1.805778	0.732352
C86	C	0.002391	-1.305778	1.232352
C87	C	-0.469713	-0.982815	0.691375
C88	C	0.030287	-0.482815	1.191375
C89	C	-0.459528	-0.864665	0.676414
C90	C	0.040472	-0.364665	1.176414
C91	C	-0.446742	-1.457172	0.416628
C92	C	0.053258	-0.957172	0.916628
C93	C	-0.438972	-1.471870	0.302345
C94	C	0.061028	-0.971870	0.802345
C95	C	-0.460574	-1.430772	1.125287
C96	C	0.039426	-0.930772	1.625287
C97	C	-0.468438	-1.415788	1.243431
C98	C	0.031562	-0.915788	1.743431
H99	H	-0.706524	-1.557670	0.579675
H100	H	-0.206524	-1.057670	1.079675
C101	C	-0.397028	-1.551716	1.252343
C102	C	0.102972	-1.051716	1.752343
H103	H	-0.397247	-1.551319	1.179497
H104	H	0.102753	-1.051319	1.679497
H105	H	-0.354599	-1.534496	1.268016
H106	H	0.145401	-1.034496	1.768016
H107	H	-0.413373	-1.618601	1.278658
H108	H	0.086627	-1.118601	1.778658
C109	C	-0.510385	-1.335947	1.293436
C110	C	-0.010385	-0.835947	1.793436
H111	H	-0.510172	-1.336356	1.366283
H112	H	-0.010172	-0.836356	1.866283
H113	H	-0.494050	-1.269064	1.267123
H114	H	0.005950	-0.769064	1.767123
H115	H	-0.552817	-1.353182	1.277766
H116	H	-0.052817	-0.853182	1.777766
C117	C	-0.531977	-1.294854	1.116375
C118	C	-0.031977	-0.794854	1.616375
H119	H	-0.549438	-1.261611	1.064091
H120	H	-0.049438	-0.761611	1.564091
H121	H	-0.565568	-1.328890	1.163260
H122	H	-0.065568	-0.828890	1.663260
H123	H	-0.506794	-1.244785	1.152609
H124	H	-0.006794	-0.744785	1.652609
C125	C	-0.551847	-0.855818	0.811989
C126	C	-0.051847	-0.355818	1.311989
H127	H	-0.551586	-0.928665	0.811586
H128	H	-0.051586	-0.428665	1.311586
H129	H	-0.545816	-0.829524	0.878919
H130	H	-0.045816	-0.329524	1.378919
H131	H	-0.591607	-0.840151	0.794569
H132	H	-0.091607	-0.340151	1.294569
H133	H	-0.419386	-0.827617	0.617453
H134	H	0.080614	-0.327617	1.117453
H135	H	-0.825800	-1.557746	0.579727
H136	H	-0.325800	-1.057746	1.079727
H137	H	-0.701847	-1.288589	0.787860
H138	H	-0.201847	-0.788589	1.287860
H139	H	-0.391498	-1.004651	0.576488
H140	H	0.108502	-0.504651	1.076488
C141	C	-0.830146	-1.267470	0.804281
C142	C	-0.330146	-0.767470	1.304281
H143	H	-0.874193	-1.278107	0.796072
H144	H	-0.374193	-0.778107	1.296072
H145	H	-0.825240	-1.273691	0.875291
H146	H	-0.325240	-0.773691	1.375291
H147	H	-0.812442	-1.200290	0.780399
H148	H	-0.312442	-0.700290	1.280399
H149	H	-1.107393	-1.557907	0.579823
H150	H	-0.607393	-1.057907	1.079823
H151	H	-0.429526	-1.489869	1.088260
H152	H	0.070474	-0.989869	1.588260
C153	C	-0.523936	-1.032859	0.771029
C154	C	-0.023936	-0.532859	1.271029
H155	H	-0.523671	-1.105705	0.770631
H156	H	-0.023671	-0.605705	1.270631
H157	H	-0.517892	-1.006556	0.837951
H158	H	-0.017892	-0.506556	1.337951
H159	H	-0.563704	-1.017202	0.753632
H160	H	-0.063704	-0.517202	1.253632
H161	H	-1.221993	-1.288890	0.788043
H162	H	-0.721993	-0.788890	1.288043
C163	C	-1.236430	-1.579172	0.563491
C164	C	-0.736430	-1.079172	1.063491
H165	H	-1.208202	-1.623312	0.529303
H166	H	-0.708202	-1.123312	1.029303
H167	H	-1.268528	-1.618977	0.608553
H168	H	-0.768528	-1.118977	1.108553
H169	H	-1.255734	-1.545559	0.513673
H170	H	-0.755734	-1.045559	1.013673
C171	C	-1.092952	-1.267617	0.804372
C172	C	-0.592952	-0.767617	1.304372
H173	H	-1.121177	-1.223460	0.838539
H174	H	-0.621177	-0.723460	1.338539
H175	H	-1.073645	-1.301214	0.854191
H176	H	-0.573645	-0.801214	1.354191
H177	H	-1.060855	-1.227817	0.759294
H178	H	-0.560855	-0.727817	1.259294
