data_functionalizedCrystal
_audit_creation_method	'MofGen! by Chris Wilmer'
_symmetry_space_group_name_H-M	'P1'
_symmetry_Int_Tables_number	1
_symmetry_cell_setting	triclinic
loop_
_symmetry_equiv_pos_as_xyz
  x,y,z
_cell_length_a	14.908742
_cell_length_b	14.908178
_cell_length_c	12.827885
_cell_angle_alpha	93.331370
_cell_angle_beta	86.718487
_cell_angle_gamma	90.210560
loop_
_atom_site_label
_atom_site_type_symbol
_atom_site_fract_x
_atom_site_fract_y
_atom_site_fract_z
Zn1	Zn	1.353954	-0.437239	0.470924
Zn2	Zn	1.345178	-0.587629	0.286702
Zn3	Zn	1.203590	-0.428610	0.306842
Zn4	Zn	1.194899	-0.578894	0.472049
O5	O	1.274405	-0.508093	0.384129
O6	O	1.478610	-0.464455	0.437587
O7	O	1.326361	-0.566580	0.143137
O8	O	1.230847	-0.303921	0.336566
O9	O	1.472162	-0.574946	0.302240
O10	O	1.341318	-0.310260	0.457116
O11	O	1.222337	-0.449749	0.157934
O12	O	1.076617	-0.441279	0.337657
O13	O	1.216034	-0.560059	0.618136
O14	O	1.070232	-0.551692	0.459033
O15	O	1.332891	-0.455985	0.617310
O16	O	1.317933	-0.712304	0.303331
O17	O	1.207524	-0.705887	0.439504
C18	C	1.040801	-0.494602	0.400653
C19	C	0.940863	-0.488852	0.407745
C20	C	0.803352	-0.423323	0.488299
C21	C	0.897253	-0.428718	0.481641
C22	C	0.890564	-0.543598	0.340505
C23	C	0.796663	-0.538203	0.347163
C24	C	0.753060	-0.478062	0.421061
C25	C	0.659157	-0.472664	0.427714
C26	C	0.652470	-0.587548	0.286583
C27	C	0.746372	-0.592943	0.279925
C28	C	1.260858	-0.741724	0.369375
C29	C	1.255144	-0.841677	0.363093
C30	C	1.359354	-1.035946	0.476965
C31	C	1.353989	-1.129861	0.471065
C32	C	1.239044	-1.123424	0.345399
C33	C	1.244409	-1.029509	0.351299
C34	C	1.304568	-0.985773	0.417083
C35	C	1.309937	-0.891857	0.422977
C36	C	1.194988	-0.885421	0.297317
C37	C	1.189623	-0.979336	0.291417
C38	C	1.508922	-0.521638	0.367542
C39	C	1.608859	-0.527409	0.360473
C40	C	1.274472	-0.508010	0.656701
C41	C	1.274500	-0.507975	0.772855
C42	C	1.288031	-0.273551	0.398962
C43	C	1.293837	-0.173603	0.405283
C44	C	1.274395	-0.508114	0.112619
C45	C	1.274556	-0.507906	-0.003531
C46	C	1.332331	-0.456466	0.824231
C47	C	1.332361	-0.456428	0.944282
H48	H	0.938197	-0.384143	0.536393
H49	H	1.358923	-0.856249	0.476538
H50	H	0.767850	-0.374345	0.548461
Cl51	Cl	1.422865	-1.192933	0.546351
Cl52	Cl	0.589242	-0.656363	0.202045
H53	H	1.150379	-0.844560	0.248554
Cl54	Cl	0.945395	-0.619205	0.247621
Cl55	Cl	1.434990	-0.980962	0.559649
Cl56	Cl	1.163402	-1.178420	0.262734
H57	H	1.381817	-0.412391	0.779339
Cl58	Cl	1.113993	-1.034326	0.208730
H59	H	1.381876	-0.412332	0.988465
H60	H	0.781886	-0.641909	0.219761
Cl61	Cl	1.198112	-0.576003	0.928265
H62	H	0.623658	-0.423690	0.487881
Cl63	Cl	1.198084	-0.576016	0.842156
