data_functionalizedCrystal
_audit_creation_method	'MofGen! by Chris Wilmer'
_symmetry_space_group_name_H-M	'P1'
_symmetry_Int_Tables_number	1
_symmetry_cell_setting	triclinic
loop_
_symmetry_equiv_pos_as_xyz
  x,y,z
_cell_length_a	14.971491
_cell_length_b	9.730217
_cell_length_c	14.971486
_cell_angle_alpha	90.003462
_cell_angle_beta	83.615182
_cell_angle_gamma	90.003259
loop_
_atom_site_label
_atom_site_type_symbol
_atom_site_fract_x
_atom_site_fract_y
_atom_site_fract_z
O1	O	1.186938	0.114349	0.116583
O2	O	0.926538	0.114339	0.130537
O3	O	1.063718	0.114335	-0.006640
O4	O	1.049759	0.114354	0.253760
O5	O	1.063713	-0.114245	-0.006641
O6	O	0.926534	-0.114241	0.130536
O7	O	1.186934	-0.114231	0.116582
Zn8	Zn	1.056733	-0.150528	0.123559
Zn9	Zn	1.056739	0.150636	0.123560
O10	O	1.049755	-0.114226	0.253759
C11	C	0.893212	0.000048	0.129912
C12	C	0.793915	0.000044	0.128039
C13	C	0.366212	0.124674	0.119959
C14	C	0.459512	0.124669	0.121716
C15	C	0.506155	0.000065	0.122600
C16	C	0.459495	-0.124541	0.121717
C17	C	0.366197	-0.124535	0.119954
C18	C	0.653957	-0.124546	0.125395
C19	C	0.747261	-0.124553	0.127160
C20	C	0.747271	0.124658	0.127157
C21	C	0.653974	0.124664	0.125393
C22	C	0.607319	0.000057	0.124513
N23	N	1.056736	-0.356064	0.123557
C24	C	1.178258	-0.356059	0.002122
C25	C	1.239024	-0.427996	-0.058593
C26	C	1.239034	-0.571876	-0.058594
C27	C	1.178268	-0.643822	0.002126
C28	C	1.117501	-0.571884	0.062840
C29	C	1.117500	-0.428001	0.062836
C30	C	0.995976	-0.571890	0.184270
C31	C	0.995970	-0.428010	0.184276
C32	C	0.935211	-0.643836	0.244989
C33	C	0.874447	-0.571898	0.305710
C34	C	0.874441	-0.428010	0.305709
C35	C	0.935203	-0.356073	0.244991
C36	C	1.220261	0.000064	0.117207
C37	C	1.319557	0.000077	0.119080
C38	C	1.063091	0.000045	-0.039965
C39	C	1.061221	0.000046	-0.139262
N40	N	1.056743	0.356173	0.123555
C41	C	1.141810	0.000049	-0.196486
C42	C	1.140046	0.000062	-0.289786
C43	C	1.057693	0.000064	-0.325859
C44	C	0.977098	0.000066	-0.268628
C45	C	0.978862	0.000062	-0.175331
C46	C	0.973427	0.000071	-0.463091
C47	C	0.971663	0.000072	-0.556395
C48	C	1.134611	0.000071	-0.577546
C49	C	1.136375	0.000067	-0.484248
C50	C	1.055780	0.000067	-0.427023
C51	C	1.050381	0.000067	0.287084
C52	C	1.052252	0.000074	0.386381
H53	H	0.615972	-0.226015	0.124688
C54	C	0.807610	-0.651036	0.372494
C55	C	0.807755	-0.809298	0.372635
C56	C	0.740917	-0.888441	0.439422
C57	C	0.673934	-0.809321	0.506068
C58	C	0.673786	-0.651049	0.505930
C59	C	0.740624	-0.571907	0.439143
H60	H	0.857342	-0.867876	0.323298
H61	H	0.741027	-1.005604	0.439524
H62	H	0.624457	-0.867907	0.555508
H63	H	0.624199	-0.592472	0.555267
H64	H	0.740514	-0.454744	0.439040
H65	H	0.935217	-0.760990	0.244982
H66	H	1.288512	-0.630447	-0.108036
C67	C	0.798583	0.261733	0.128118
C68	C	0.795826	0.364524	0.050268
C69	C	0.847139	0.501595	0.051234
C70	C	0.901210	0.535876	0.130052
C71	C	0.903969	0.433082	0.207908
C72	C	0.852656	0.296011	0.206942
H73	H	0.755798	0.339150	-0.008083
H74	H	0.845096	0.577689	-0.006401
H75	H	0.939195	0.637344	0.130767
H76	H	0.943998	0.458457	0.266259
H77	H	0.854699	0.219917	0.264577
H78	H	1.208871	0.000039	-0.167123
C79	C	1.228698	0.000060	-0.352728
C80	C	1.296147	-0.118642	-0.348633
C81	C	1.384804	-0.118641	-0.411574
C82	C	1.406013	0.000063	-0.478611
C83	C	1.338563	0.118774	-0.482709
C84	C	1.249906	0.118773	-0.419768
H85	H	1.280448	-0.206521	-0.299006
H86	H	1.434735	-0.206519	-0.408540
H87	H	1.471643	0.000063	-0.525204
H88	H	1.354262	0.206653	-0.532336
H89	H	1.199975	0.206651	-0.422802
H90	H	1.178271	-0.760976	0.002114
C91	C	1.305867	-0.348858	-0.125381
C92	C	1.305889	-0.190595	-0.125369
C93	C	1.372730	-0.111465	-0.192159
C94	C	1.439550	-0.190598	-0.258961
C95	C	1.439532	-0.348870	-0.258976
C96	C	1.372690	-0.428000	-0.192186
H97	H	1.256422	-0.132009	-0.075916
H98	H	1.372744	0.005698	-0.192148
H99	H	1.489031	-0.132021	-0.308403
H100	H	1.488998	-0.407456	-0.308429
H101	H	1.372677	-0.545163	-0.192198
H102	H	0.824954	-0.369446	0.355147
C103	C	1.223271	0.000076	-0.640486
C104	C	1.244461	-0.118614	-0.707544
C105	C	1.333117	-0.118618	-0.770487
C106	C	1.400583	0.000068	-0.766372
C107	C	1.379395	0.118767	-0.699312
C108	C	1.290739	0.118771	-0.636369
H109	H	1.194516	-0.206480	-0.710593
H110	H	1.348801	-0.206488	-0.820130
H111	H	1.466212	0.000064	-0.812967
H112	H	1.429339	0.206633	-0.696263
H113	H	1.275054	0.206640	-0.586726
C114	C	0.510807	-0.261602	0.122695
C115	C	0.564864	-0.295845	0.201525
C116	C	0.616177	-0.432906	0.202509
C117	C	0.613434	-0.535723	0.124662
C118	C	0.559376	-0.501481	0.045826
C119	C	0.508062	-0.364421	0.044842
H120	H	0.566896	-0.219732	0.259157
H121	H	0.656194	-0.458253	0.260869
H122	H	0.651419	-0.637183	0.125390
H123	H	0.557343	-0.577595	-0.011806
H124	H	0.468045	-0.339074	-0.013518
H125	H	0.328211	-0.225995	0.119247
H126	H	0.913238	0.000061	-0.128739
C127	C	0.884773	0.000070	-0.400140
C128	C	0.817316	0.118760	-0.404233
C129	C	0.728665	0.118752	-0.341281
C130	C	0.707472	0.000054	-0.274236
C131	C	0.774932	-0.118645	-0.270141
C132	C	0.863582	-0.118637	-0.333093
H133	H	0.833002	0.206635	-0.453865
H134	H	0.678727	0.206621	-0.344313
H135	H	0.641848	0.000048	-0.227636
H136	H	0.759245	-0.206521	-0.220508
H137	H	0.913520	-0.206507	-0.330061
H138	H	0.328240	0.226141	0.119246
H139	H	0.497494	0.226129	0.122427
H140	H	0.615998	0.226128	0.124680
H141	H	1.178264	-0.238904	0.002124
H142	H	0.935207	-0.238918	0.244988
H143	H	0.785235	-0.226017	0.127884
H144	H	1.203434	0.000056	-0.454880
H145	H	0.910045	0.000076	-0.298007
H146	H	0.904604	0.000052	-0.585763
