data_functionalizedCrystal
_audit_creation_method	'MofGen! by Chris Wilmer'
_symmetry_space_group_name_H-M	'P1'
_symmetry_Int_Tables_number	1
_symmetry_cell_setting	triclinic
loop_
_symmetry_equiv_pos_as_xyz
  x,y,z
_cell_length_a	9.798715
_cell_length_b	10.723024
_cell_length_c	10.723024
_cell_angle_alpha	84.467869
_cell_angle_beta	90.001978
_cell_angle_gamma	90.004017
loop_
_atom_site_label
_atom_site_type_symbol
_atom_site_fract_x
_atom_site_fract_y
_atom_site_fract_z
O1	O	-0.113498	-1.657187	-0.175024
O2	O	0.386502	-1.157187	0.324976
O3	O	-0.113498	-1.294035	-0.191778
O4	O	0.386502	-0.794035	0.308222
O5	O	-0.113493	-1.483988	-0.001825
O6	O	0.386507	-0.983988	0.498175
O7	O	-0.113503	-1.467234	-0.364977
O8	O	0.386497	-0.967234	0.135023
O9	O	0.113489	-1.483974	-0.001824
O10	O	0.613489	-0.983974	0.498176
O11	O	0.113484	-1.294021	-0.191777
O12	O	0.613484	-0.794021	0.308223
O13	O	0.113484	-1.657173	-0.175024
O14	O	0.613484	-1.157173	0.324976
Zn15	Zn	0.149522	-1.475595	-0.183401
Zn16	Zn	0.649522	-0.975595	0.316599
Zn17	Zn	-0.149537	-1.475613	-0.183401
Zn18	Zn	0.350463	-0.975613	0.316599
O19	O	0.113479	-1.467220	-0.364977
O20	O	0.613479	-0.967220	0.135023
C21	C	-0.000007	-1.247528	-0.190558
C22	C	0.499993	-0.747528	0.309442
C23	C	-0.000007	-1.108974	-0.186911
C24	C	0.499993	-0.608974	0.313089
N25	N	0.353622	-1.475591	-0.183399
N26	N	0.853622	-0.975591	0.316601
N27	N	-0.353636	-1.475627	-0.183393
N28	N	0.146364	-0.975627	0.316607
C29	C	-0.000010	-1.033991	-0.293198
C30	C	0.499990	-0.533991	0.206802
C31	C	-0.000010	-0.890788	-0.289431
C32	C	0.499990	-0.390788	0.210569
C33	C	0.421401	-1.555347	-0.103292
C34	C	0.921401	-1.055347	0.396708
C35	C	0.578564	-1.555367	-0.103288
C36	C	1.078564	-1.055367	0.396712
C37	C	-0.000004	-1.482762	0.044675
C38	C	0.499996	-0.982762	0.544675
C39	C	-0.000009	-1.479114	0.183229
C40	C	0.499991	-0.979114	0.683229
C41	C	-0.000007	-0.703680	-0.176243
C42	C	0.499993	-0.203680	0.323757
C43	C	-0.000007	-0.842234	-0.179891
C44	C	0.499993	-0.342234	0.320109
C45	C	-0.000014	-1.468447	-0.411477
C46	C	0.499986	-0.968447	0.088523
C47	C	-0.000018	-1.472094	-0.550031
C48	C	0.499982	-0.972094	-0.050031
C49	C	-0.000010	-1.585401	0.258212
C50	C	0.499990	-1.085401	0.758212
C51	C	-0.000015	-1.581634	0.401415
C52	C	0.499985	-1.081634	0.901415
H53	H	-0.000005	-1.075814	-0.386984
H54	H	0.499995	-0.575814	0.113016
H55	H	-0.000011	-1.672624	0.465848
H56	H	0.499989	-1.172624	0.965848
H57	H	-0.000039	-1.067152	-0.093125
H58	H	0.499961	-0.567152	0.406875
H59	H	-0.000007	-1.381099	0.385544
H60	H	0.499993	-0.881099	0.885544
Cl61	Cl	0.668549	-1.660802	0.002598
Cl62	Cl	1.168549	-1.160802	0.502598
H63	H	-0.000017	-1.385328	0.225051
H64	H	0.499983	-0.885328	0.725051
Cl65	Cl	0.331365	-1.660468	0.002877
Cl66	Cl	0.831365	-1.160468	0.502877
Cl67	Cl	0.556388	-1.370202	-0.289295
Cl68	Cl	1.056388	-0.870202	0.210705
Cl69	Cl	-0.000025	-0.791315	-0.429921
Cl70	Cl	0.499975	-0.291315	0.070079
Cl71	Cl	-0.000019	-1.730207	0.193653
Cl72	Cl	0.499981	-1.230207	0.693653
Cl73	Cl	-0.000014	-0.941699	-0.039396
Cl74	Cl	0.499986	-0.441699	0.460604
Cl75	Cl	0.443658	-1.370179	-0.289280
Cl76	Cl	0.943658	-0.870179	0.210720
