data_functionalizedCrystal
_audit_creation_method	'MofGen! by Chris Wilmer'
_symmetry_space_group_name_H-M	'P1'
_symmetry_Int_Tables_number	1
_symmetry_cell_setting	triclinic
loop_
_symmetry_equiv_pos_as_xyz
  x,y,z
_cell_length_a	10.489741
_cell_length_b	16.176319
_cell_length_c	17.699092
_cell_angle_alpha	89.994879
_cell_angle_beta	83.912771
_cell_angle_gamma	89.995299
loop_
_atom_site_label
_atom_site_type_symbol
_atom_site_fract_x
_atom_site_fract_y
_atom_site_fract_z
O1	O	1.692080	-0.068692	0.106782
O2	O	1.320699	-0.068705	0.116805
O3	O	1.516876	-0.068696	0.001673
O4	O	1.495902	-0.068701	0.221913
O5	O	1.516849	0.068797	0.001665
O6	O	1.320672	0.068789	0.116797
O7	O	1.692053	0.068801	0.106774
Cu8	Cu	1.506360	0.081349	0.111785
Cu9	Cu	1.506392	-0.081253	0.111794
O10	O	1.495875	0.068793	0.221906
C11	C	1.273168	0.000040	0.116044
C12	C	1.131580	0.000036	0.113779
N13	N	1.506347	0.195714	0.111778
N14	N	1.506415	-0.195618	0.111795
C15	C	1.064797	0.000045	0.040524
C16	C	0.972043	-0.067746	0.075133
C17	C	0.972050	0.067812	0.075143
C18	C	1.040690	-0.067811	0.148418
C19	C	1.040707	0.067808	0.148418
C20	C	0.947979	0.000001	0.183079
C21	C	1.739584	0.000054	0.107535
C22	C	1.881172	0.000054	0.109800
C23	C	1.516110	0.000049	-0.026533
C24	C	1.513850	0.000045	-0.110565
C25	C	1.593240	0.238982	0.060819
C26	C	1.593247	0.325529	0.060818
C27	C	1.506365	0.368807	0.111781
C28	C	1.419462	0.325533	0.162742
C29	C	1.419451	0.238987	0.162739
C30	C	1.419506	0.674561	0.162757
C31	C	1.419527	0.761113	0.162758
C32	C	1.593302	0.761103	0.060836
C33	C	1.593291	0.674558	0.060833
C34	C	1.506384	0.631291	0.111791
C35	C	1.506376	0.537447	0.111791
C36	C	1.506378	0.462649	0.111786
C37	C	1.512805	-0.074903	-0.150035
C38	C	1.510674	-0.074904	-0.228992
C39	C	1.509595	0.000044	-0.268478
C40	C	1.510636	0.074998	-0.229002
C41	C	1.512758	0.074999	-0.150046
C42	C	1.502074	0.074999	-0.547423
C43	C	1.499956	0.074993	-0.626385
C44	C	1.499990	-0.074904	-0.626369
C45	C	1.502112	-0.074903	-0.547413
C46	C	1.503146	0.000050	-0.507944
C47	C	1.505455	0.000051	-0.422329
C48	C	1.507296	0.000045	-0.354092
C49	C	1.496642	0.000046	0.250111
C50	C	1.498902	0.000044	0.334144
H51	H	1.115603	-0.000039	-0.019696
F52	F	0.881913	-0.000047	0.261874
H53	H	1.348715	0.360774	0.204235
H54	H	1.509829	-0.135935	-0.261126
F55	F	1.327049	0.807170	0.217001
F56	F	1.685793	0.807157	0.006599
H57	H	1.348746	0.639340	0.204250
H58	H	1.071168	0.125122	0.179385
F59	F	1.685727	0.371579	0.006581
H60	H	1.502996	-0.135934	-0.515268
F61	F	0.932272	-0.142658	0.034626
F62	F	1.503158	0.154772	-0.505425
F63	F	1.080244	-0.142806	0.188904
H64	H	0.941635	0.125124	0.044131
H65	H	1.663995	0.203751	0.019323
H66	H	1.499142	-0.135935	-0.658515
H67	H	1.499074	0.136029	-0.658532
F68	F	1.326962	0.192940	0.216975
F69	F	1.685765	0.628502	0.006595
H70	H	1.513690	-0.135935	-0.117892
F71	F	1.509474	0.154764	-0.271027
F72	F	1.513868	0.154769	-0.108039
