data_functionalizedCrystal
_audit_creation_method	'MofGen! by Chris Wilmer'
_symmetry_space_group_name_H-M	'P1'
_symmetry_Int_Tables_number	1
_symmetry_cell_setting	triclinic
loop_
_symmetry_equiv_pos_as_xyz
  x,y,z
_cell_length_a	13.339070
_cell_length_b	11.792254
_cell_length_c	12.376457
_cell_angle_alpha	101.355083
_cell_angle_beta	75.589755
_cell_angle_gamma	99.913946
loop_
_atom_site_label
_atom_site_type_symbol
_atom_site_fract_x
_atom_site_fract_y
_atom_site_fract_z
O1	O	1.364755	0.554302	-0.094049
O2	O	1.069813	0.479489	-0.094042
O3	O	1.224433	0.353930	-0.094037
O4	O	1.210135	0.679861	-0.094053
O5	O	1.185791	0.385265	0.093974
O6	O	1.031171	0.510824	0.093969
O7	O	1.326113	0.585636	0.093962
Zn8	Zn	1.172507	0.553205	0.123817
Zn9	Zn	1.223419	0.511920	-0.123896
O10	O	1.171493	0.711196	0.093958
C11	C	1.012733	0.482519	-0.000035
C12	C	0.900222	0.444851	-0.000032
C13	C	1.204211	0.327029	-0.000032
C14	C	1.201515	0.200185	-0.000033
C15	C	0.537054	0.737741	-0.000064
C16	C	0.642764	0.773136	-0.000071
C17	C	0.707134	0.691068	-0.000061
C18	C	0.665784	0.573599	-0.000045
C19	C	0.560066	0.538199	-0.000048
C20	C	0.730145	0.491525	-0.000044
C21	C	0.688795	0.374056	-0.000029
C22	C	0.583087	0.338663	-0.000030
C23	C	0.518717	0.420731	-0.000040
C24	C	0.835863	0.526925	-0.000041
C25	C	0.858874	0.327383	-0.000025
C26	C	0.753164	0.291988	-0.000019
C27	C	1.199325	0.097173	-0.000037
C28	C	1.196588	-0.032059	-0.000047
C29	C	1.383194	0.582606	-0.000047
C30	C	1.495706	0.620273	-0.000057
C31	C	1.191715	0.738096	-0.000050
C32	C	1.194413	0.864939	-0.000056
N33	N	1.137769	0.581383	0.292874
N34	N	1.258166	0.483736	-0.292953
C35	C	1.338805	0.418305	0.647865
C36	C	1.363113	0.398582	0.529526
C37	C	1.306779	0.444280	0.470357
C38	C	1.226133	0.509706	0.529539
C39	C	1.201828	0.529439	0.647890
C40	C	1.169801	0.555414	0.470382
C41	C	1.089156	0.620840	0.529564
C42	C	1.064854	0.640569	0.647903
C43	C	1.121189	0.594870	0.707072
C44	C	1.194106	0.535681	0.352031
C45	C	1.057129	0.646814	0.352056
C46	C	1.032821	0.666538	0.470395
H47	H	0.869518	0.622570	-0.000049
C48	C	0.823414	0.730009	-0.000053
N49	N	0.910998	0.759347	-0.000038
H50	H	0.676425	0.868777	-0.000092
C51	C	1.451815	0.326608	0.464434
N52	N	1.518628	0.272391	0.415406
C53	C	0.995155	0.697084	0.286976
N54	N	0.948481	0.734944	0.237950
H55	H	0.432638	0.391918	-0.000035
C56	C	0.466243	0.828002	-0.000077
N57	N	0.412906	0.895992	-0.000086
C58	C	0.537605	0.209444	-0.000012
N59	N	0.503349	0.112116	0.000007
C60	C	0.707666	0.162773	-0.000009
N61	N	0.673397	0.065447	-0.000003
C62	C	0.976146	0.712545	0.713000
N63	N	0.909329	0.766755	0.762029
C64	C	0.929676	0.237101	-0.000010
N65	N	0.983010	0.169108	-0.000000
C66	C	1.282809	0.463706	0.286945
N67	N	1.349622	0.409487	0.237922
C68	C	1.094433	0.616534	0.837253
N69	N	1.074277	0.632841	0.935307
C70	C	1.400764	0.368047	0.712958
N71	N	1.447436	0.330189	0.761987
C72	C	0.944111	0.738503	0.535511
N73	N	0.877292	0.792705	0.584557
H74	H	1.326574	0.428218	0.374000
