data_functionalizedCrystal
_audit_creation_method	'MofGen! by Chris Wilmer'
_symmetry_space_group_name_H-M	'P1'
_symmetry_Int_Tables_number	1
_symmetry_cell_setting	triclinic
loop_
_symmetry_equiv_pos_as_xyz
  x,y,z
_cell_length_a	16.120297
_cell_length_b	16.120490
_cell_length_c	18.215405
_cell_angle_alpha	92.882919
_cell_angle_beta	87.131114
_cell_angle_gamma	90.129683
loop_
_atom_site_label
_atom_site_type_symbol
_atom_site_fract_x
_atom_site_fract_y
_atom_site_fract_z
Zn1	Zn	-0.534507	1.247438	0.372902
Zn2	Zn	-0.034507	1.747438	0.872902
Zn3	Zn	-0.395441	1.254386	0.490057
Zn4	Zn	0.104559	1.754386	0.990057
Zn5	Zn	-0.388429	1.115428	0.360460
Zn6	Zn	0.111571	1.615428	0.860460
Zn7	Zn	-0.527414	1.108342	0.489373
Zn8	Zn	-0.027414	1.608342	0.989373
O9	O	-0.461448	1.181398	0.428198
O10	O	0.038552	1.681398	0.928198
O11	O	-0.521963	1.364727	0.393937
O12	O	-0.021963	1.864727	0.893937
O13	O	-0.278145	1.241826	0.467945
O14	O	0.221855	1.741826	0.967945
O15	O	-0.407841	1.132997	0.259130
O16	O	0.092159	1.632997	0.759130
O17	O	-0.419791	1.369831	0.480010
O18	O	0.080209	1.869831	0.980010
O19	O	-0.515164	1.229985	0.268272
O20	O	-0.015164	1.729985	0.768272
O21	O	-0.272994	1.139735	0.372731
O22	O	0.227006	1.639735	0.872731
O23	O	-0.400963	0.998121	0.372067
O24	O	0.099037	1.498121	0.872067
O25	O	-0.644720	1.120920	0.478843
O26	O	-0.144720	1.620920	0.978843
O27	O	-0.503074	0.992915	0.466778
O28	O	-0.003074	1.492915	0.966778
O29	O	-0.649931	1.223113	0.393273
O30	O	-0.149931	1.723113	0.893273
O31	O	-0.412913	1.234955	0.592947
O32	O	0.087087	1.734955	1.092947
O33	O	-0.509873	1.127657	0.592444
O34	O	-0.009873	1.627657	1.092444
C35	C	-0.450488	0.965346	0.417999
C36	C	0.049512	1.465346	0.917999
C37	C	-0.445820	0.872916	0.413654
C38	C	0.054180	1.372916	0.913654
C39	C	-0.485667	0.659953	0.450729
C40	C	0.014333	1.159953	0.950729
C41	C	-0.437294	0.703692	0.405728
C42	C	0.062706	1.203692	0.905728
C43	C	-0.442039	0.797857	0.410140
C44	C	0.057961	1.297857	0.910140
C45	C	-0.480923	0.565779	0.446319
C46	C	0.019077	1.065779	0.946319
C47	C	-0.678341	1.170451	0.437369
C48	C	-0.178341	1.670451	0.937369
C49	C	-0.770769	1.165786	0.441278
C50	C	-0.270769	1.665786	0.941278
C51	C	-0.939993	1.157238	0.448396
C52	C	-0.439993	1.657238	0.948396
C53	C	-0.983762	1.205723	0.407788
C54	C	-0.483762	1.705723	0.907788
C55	C	-1.077925	1.200967	0.411748
C56	C	-0.577925	1.700967	0.911748
C57	C	-0.845822	1.161993	0.444436
C58	C	-0.345822	1.661993	0.944436
C59	C	-0.245400	1.192351	0.419011
C60	C	0.254600	1.692351	0.919011
C61	C	-0.152982	1.197177	0.414903
C62	C	0.347018	1.697177	0.914903
C63	C	-0.461403	1.181313	0.619399
C64	C	0.038597	1.681313	1.119399
C65	C	-0.461416	1.181351	0.701200
C66	C	0.038584	1.681351	1.201200
C67	C	-0.472450	1.398295	0.438438
C68	C	0.027550	1.898295	0.938438
C69	C	-0.477139	1.490724	0.442801
C70	C	0.022861	1.990724	0.942801
C71	C	-0.461512	1.181506	0.236253
C72	C	0.038488	1.681506	0.736253
C73	C	-0.461539	1.181552	0.154457
C74	C	0.038461	1.681552	0.654457
C75	C	-0.411033	1.237341	0.889641
C76	C	0.088967	1.737341	1.389641
C77	C	-0.411055	1.237377	0.966502
C78	C	0.088945	1.737377	1.466502
C79	C	-0.511927	1.125560	0.966011
C80	C	-0.011927	1.625560	1.466011
C81	C	-0.511909	1.125528	0.889151
C82	C	-0.011909	1.625528	1.389151
C83	C	-0.461457	1.181418	0.850968
C84	C	0.038543	1.681418	1.350968
C85	C	-0.461497	1.181485	1.004689
C86	C	0.038503	1.681485	1.504689
C87	C	-0.461522	1.181524	1.088025
C88	C	0.038478	1.681524	1.588025
C89	C	-0.461434	1.181380	0.767626
C90	C	0.038566	1.681380	1.267626
H91	H	-0.950517	1.250803	0.370047
H92	H	-0.450517	1.750803	0.870047
C93	C	-0.546416	0.704905	0.507255
C94	C	-0.046416	1.204905	1.007255
N95	N	-0.592167	0.738772	0.549833
N96	N	-0.092167	1.238772	1.049833
H97	H	-0.553002	1.080055	0.997108
H98	H	-0.053002	1.580055	1.497108
H99	H	-0.973237	1.112161	0.486133
H100	H	-0.473237	1.612161	0.986133
C101	C	-0.567401	1.064021	0.846610
C102	C	-0.067401	1.564021	1.346610
N103	N	-0.609203	1.017703	0.814568
N104	N	-0.109203	1.517703	1.314568
C105	C	-0.355539	1.298825	0.847643
C106	C	0.144461	1.798825	1.347643
N107	N	-0.313742	1.345139	0.816012
N108	N	0.186258	1.845139	1.316012
H109	H	-0.392318	0.670417	0.363889
H110	H	0.107682	1.170417	0.863889
C111	C	-0.355581	1.298894	1.009039
C112	C	0.144419	1.798894	1.509039
N113	N	-0.313794	1.345230	1.041077
N114	N	0.186206	1.845230	1.541077
