data_functionalizedCrystal
_audit_creation_method	'MofGen! by Chris Wilmer'
_symmetry_space_group_name_H-M	'P1'
_symmetry_Int_Tables_number	1
_symmetry_cell_setting	triclinic
loop_
_symmetry_equiv_pos_as_xyz
  x,y,z
_cell_length_a	23.532407
_cell_length_b	23.532407
_cell_length_c	22.010155
_cell_angle_alpha	89.999577
_cell_angle_beta	89.996931
_cell_angle_gamma	82.848678
loop_
_atom_site_label
_atom_site_type_symbol
_atom_site_fract_x
_atom_site_fract_y
_atom_site_fract_z
O1	O	0.755264	0.069127	-0.050455
O2	O	1.255264	0.569127	0.449545
O3	O	0.589400	0.079130	-0.050474
O4	O	1.089400	0.579130	0.449526
O5	O	0.677334	-0.008803	-0.050453
O6	O	1.177334	0.491197	0.449547
O7	O	0.667330	0.157060	-0.050476
O8	O	1.167330	0.657060	0.449524
O9	O	0.677318	-0.008790	0.050597
O10	O	1.177318	0.491210	0.550597
O11	O	0.589384	0.079143	0.050576
O12	O	1.089384	0.579143	0.550576
O13	O	0.755248	0.069140	0.050595
O14	O	1.255248	0.569140	0.550595
Cu15	Cu	0.672315	0.074143	0.059812
Cu16	Cu	1.172315	0.574143	0.559812
Cu17	Cu	0.672333	0.074127	-0.059691
Cu18	Cu	1.172333	0.574127	0.440309
O19	O	0.667314	0.157073	0.050574
O20	O	1.167314	0.657073	0.550574
C21	C	0.568176	0.078882	0.000049
C22	C	1.068176	0.578882	0.500049
C23	C	0.504959	0.078116	0.000042
C24	C	1.004959	0.578116	0.500042
C25	C	0.105856	0.125350	0.000063
C26	C	0.605856	0.625350	0.500063
C27	C	0.046456	0.124638	0.000067
C28	C	0.546456	0.624638	0.500067
O29	O	0.009711	0.168424	0.000083
O30	O	0.509711	0.668424	0.500083
N31	N	0.023830	0.072362	0.000073
N32	N	0.523830	0.572362	0.500073
C33	C	0.060607	0.020794	0.000082
C34	C	0.560607	0.520794	0.500082
O35	O	0.035908	-0.023737	0.000088
O36	O	0.535908	0.476263	0.500088
C37	C	0.120006	0.021506	0.000082
C38	C	0.620006	0.521506	0.500082
C39	C	0.142629	0.073785	0.000070
C40	C	0.642629	0.573785	0.500070
C41	C	0.128479	0.177625	0.000051
C42	C	0.628479	0.677625	0.500051
C43	C	0.187876	0.178336	0.000046
C44	C	0.687876	0.678336	0.500046
C45	C	0.224649	0.126772	0.000053
C46	C	0.724649	0.626772	0.500053
C47	C	0.202025	0.074497	0.000065
C48	C	0.702025	0.574497	0.500065
C49	C	0.156783	-0.030062	0.000096
C50	C	0.656783	0.469938	0.500096
C51	C	0.216185	-0.029345	0.000097
C52	C	0.716185	0.470655	0.500097
C53	C	0.238808	0.022934	0.000084
C54	C	0.738808	0.522934	0.500084
C55	C	0.298194	0.023643	0.000067
C56	C	0.798194	0.523643	0.500067
N57	N	0.320820	0.075920	0.000061
N58	N	0.820820	0.575920	0.500061
C59	C	0.284048	0.127484	0.000054
C60	C	0.784048	0.627484	0.500054
C61	C	-0.064135	0.019302	0.000082
C62	C	0.435865	0.519302	0.500082
C63	C	-0.123533	0.018589	0.000077
C64	C	0.376467	0.518589	0.500077
C65	C	-0.137680	0.122434	0.000063
C66	C	0.362320	0.622434	0.500063
C67	C	-0.078281	0.123146	0.000064
C68	C	0.421719	0.623146	0.500064
C69	C	-0.041509	0.071578	0.000076
C70	C	0.458491	0.571578	0.500076
C71	C	0.408784	0.128974	0.000043
C72	C	0.908784	0.628974	0.500043
C73	C	0.468186	0.129680	0.000035
C74	C	0.968186	0.629680	0.500035
C75	C	0.482329	0.025836	0.000052
C76	C	0.982329	0.525836	0.500052
C77	C	0.422932	0.025129	0.000057
C78	C	0.922932	0.525129	0.500057
C79	C	0.386160	0.076702	0.000054
C80	C	0.886160	0.576702	0.500054
O81	O	0.334974	-0.020119	0.000054
O82	O	0.834974	0.479881	0.500054
O83	O	0.308755	0.172007	0.000055
O84	O	0.808755	0.672007	0.500055
C85	C	0.677071	-0.030013	0.000074
C86	C	1.177071	0.469987	0.500074
C87	C	0.676305	-0.093230	0.000078
C88	C	1.176305	0.406770	0.500078
C89	C	0.723539	-0.492333	0.000050
C90	C	1.223539	0.007667	0.500050
C91	C	0.722827	-0.551733	0.000046
C92	C	1.222827	-0.051733	0.500046
O93	O	0.766613	-0.588478	0.000028
O94	O	1.266613	-0.088478	0.500028
N95	N	0.670551	-0.574359	0.000040
N96	N	1.170551	-0.074359	0.500040
C97	C	0.618983	-0.537582	0.000033
C98	C	1.118983	-0.037582	0.500033
O99	O	0.574452	-0.562281	0.000027
O100	O	1.074452	-0.062281	0.500027
C101	C	0.619695	-0.478182	0.000033
C102	C	1.119695	0.021818	0.500033
C103	C	0.671974	-0.455560	0.000045
C104	C	1.171974	0.044440	0.500045
C105	C	0.775814	-0.469710	0.000061
C106	C	1.275814	0.030290	0.500061
C107	C	0.776525	-0.410313	0.000067
C108	C	1.276525	0.089687	0.500067
C109	C	0.724961	-0.373540	0.000062
C110	C	1.224961	0.126460	0.500062
C111	C	0.672685	-0.396164	0.000051
C112	C	1.172685	0.103836	0.500051
C113	C	0.568127	-0.441406	0.000022
C114	C	1.068127	0.058594	0.500022
C115	C	0.568844	-0.382004	0.000022
C116	C	1.068844	0.117996	0.500022
C117	C	0.621123	-0.359381	0.000034
C118	C	1.121123	0.140619	0.500034
C119	C	0.621832	-0.299995	0.000052
C120	C	1.121832	0.200005	0.500052
N121	N	0.674109	-0.277368	0.000057
N122	N	1.174109	0.222632	0.500057
C123	C	0.725673	-0.314141	0.000062
C124	C	1.225673	0.185859	0.500062
C125	C	0.617491	-0.662324	0.000031
C126	C	1.117491	-0.162324	0.500031
C127	C	0.616778	-0.721722	0.000035
C128	C	1.116778	-0.221722	0.500035
C129	C	0.720623	-0.735869	0.000047
C130	C	1.220623	-0.235869	0.500047
C131	C	0.721335	-0.676470	0.000047
C132	C	1.221335	-0.176470	0.500047
C133	C	0.669767	-0.639698	0.000037
C134	C	1.169767	-0.139698	0.500037
C135	C	0.727163	-0.189405	0.000075
C136	C	1.227163	0.310595	0.500075
C137	C	0.727869	-0.130003	0.000083
C138	C	1.227869	0.369997	0.500083
C139	C	0.624025	-0.115860	0.000069
C140	C	1.124025	0.384140	0.500069
C141	C	0.623318	-0.175257	0.000064
C142	C	1.123318	0.324743	0.500064
C143	C	0.674891	-0.212029	0.000065
C144	C	1.174891	0.287971	0.500065
O145	O	0.578070	-0.263215	0.000067
O146	O	1.078070	0.236785	0.500067
O147	O	0.770196	-0.289433	0.000060
O148	O	1.270196	0.210567	0.500060
C149	C	0.776472	0.069388	0.000071
C150	C	1.276472	0.569388	0.500071
C151	C	0.839689	0.070154	0.000073
C152	C	1.339689	0.570154	0.500073
C153	C	0.667577	0.178283	0.000046
C154	C	1.167577	0.678283	0.500046
C155	C	0.668343	0.241500	0.000037
C156	C	1.168343	0.741500	0.500037
N157	N	0.672305	0.074153	0.143865
N158	N	1.172305	0.574153	0.643865
N159	N	0.672347	0.074112	-0.143744
N160	N	1.172347	0.574112	0.356256
C161	C	0.711273	0.035196	0.563653
C162	C	1.211273	0.535196	1.063653
C163	C	0.711275	0.035192	0.627261
C164	C	1.211275	0.535192	1.127261
O165	O	0.744384	0.002076	0.660160
O166	O	1.244384	0.502076	1.160160
N167	N	0.672333	0.074115	0.659072
N168	N	1.172333	0.574115	1.159072
C169	C	0.633382	0.113041	0.627272
C170	C	1.133382	0.613041	1.127272
O171	O	0.600259	0.146148	0.660170
O172	O	1.100259	0.646148	1.160170
C173	C	0.633377	0.113042	0.563665
C174	C	1.133377	0.613042	1.063665
C175	C	0.672326	0.074120	0.531858
C176	C	1.172326	0.574120	1.031858
C177	C	0.750217	-0.003723	0.531846
C178	C	1.250217	0.496277	1.031846
C179	C	0.750215	-0.003719	0.468243
C180	C	1.250215	0.496281	0.968243
C181	C	0.711268	0.035205	0.436447
C182	C	1.211268	0.535205	0.936447
C183	C	0.672324	0.074125	0.468255
C184	C	1.172324	0.574125	0.968255
C185	C	0.594424	0.151965	0.531866
C186	C	1.094424	0.651965	1.031866
C187	C	0.594422	0.151962	0.468256
C188	C	1.094422	0.651962	0.968256
C189	C	0.633370	0.113040	0.436448
C190	C	1.133370	0.613040	0.936448
C191	C	0.633374	0.113054	0.372856
C192	C	1.133374	0.613054	0.872856
N193	N	0.672317	0.074130	0.341045
N194	N	1.172317	0.574130	0.841045
C195	C	0.711263	0.035206	0.372841
C196	C	1.211263	0.535206	0.872841
C197	C	0.633395	0.113036	0.760850
C198	C	1.133395	0.613036	1.260850
C199	C	0.633402	0.113039	0.824455
C200	C	1.133402	0.613039	1.324455
C201	C	0.711294	0.035188	0.824440
C202	C	1.211294	0.535188	1.324440
C203	C	0.711290	0.035189	0.760833
C204	C	1.211290	0.535189	1.260833
C205	C	0.672337	0.074113	0.729039
C206	C	1.172337	0.574113	1.229039
C207	C	0.711256	0.035220	0.239269
C208	C	1.211256	0.535220	0.739269
C209	C	0.711252	0.035229	0.175660
C210	C	1.211252	0.535229	0.675660
C211	C	0.633358	0.113077	0.175681
C212	C	1.133358	0.613077	0.675681
C213	C	0.633364	0.113070	0.239284
C214	C	1.133364	0.613070	0.739284
C215	C	0.672315	0.074136	0.271077
C216	C	1.172315	0.574136	0.771077
O217	O	0.600282	0.146151	0.339916
O218	O	1.100282	0.646151	0.839916
O219	O	0.744376	0.002100	0.339935
O220	O	1.244376	0.502100	0.839935
H221	H	0.404512	-0.017441	0.000058
H222	H	0.904512	0.482559	0.500058
H223	H	0.819097	-0.391900	0.000074
H224	H	1.319097	0.108100	0.500074
H225	H	0.817806	-0.499645	0.000063
H226	H	1.317806	0.000355	0.500063
H227	H	0.575496	-0.632386	0.000028
H228	H	1.075496	-0.132386	0.500028
H229	H	0.743006	0.003493	0.850339
H230	H	1.243006	0.503493	1.350339
H231	H	0.742971	0.003534	0.149765
H232	H	1.242971	0.503534	0.649765
H233	H	0.743004	0.003495	0.734939
H234	H	1.243004	0.503495	1.234939
H235	H	0.763906	-0.658056	0.000056
H236	H	1.263906	-0.158056	0.500056
O237	O	0.777313	-0.225038	0.000105
O238	O	1.277313	0.274962	0.500105
C239	C	0.823599	-0.192322	0.000101
C240	C	1.323599	0.307678	0.500101
H241	H	0.808873	-0.147908	0.019232
H242	H	1.308873	0.352092	0.519232
H243	H	0.859704	-0.214427	0.029445
H244	H	1.359704	0.285573	0.529445
H245	H	0.839649	-0.188176	-0.048374
H246	H	1.339649	0.311824	0.451626
H247	H	0.206289	0.220908	0.000036
H248	H	0.706289	0.720908	0.500036
O249	O	0.595516	0.150873	0.855255
O250	O	1.095516	0.650873	1.355255
C251	C	0.561154	0.185237	0.813544
C252	C	1.061154	0.685237	1.313544
H253	H	0.560647	0.161889	0.768203
H254	H	1.060647	0.661889	1.268203
H255	H	0.515623	0.194156	0.831921
H256	H	1.015623	0.694156	1.331921
H257	H	0.579404	0.227451	0.806778
H258	H	1.079404	0.727451	1.306778
H259	H	0.098544	0.219617	0.000048
H260	H	0.598544	0.719617	0.500048
O261	O	0.573953	-0.080109	-0.000046
O262	O	1.073953	0.419891	0.499954
C263	C	0.571285	-0.045318	-0.052373
C264	C	1.071285	0.454682	0.447627
H265	H	0.600541	-0.067239	-0.088945
H266	H	1.100541	0.432761	0.411055
H267	H	0.525376	-0.038379	-0.069951
H268	H	1.025376	0.461621	0.430049
H269	H	0.585778	-0.002205	-0.040536
H270	H	1.085778	0.497795	0.459464
O271	O	0.518712	-0.346341	-0.000068
O272	O	1.018712	0.153659	0.499932
C273	C	0.486970	-0.356541	-0.052417
C274	C	0.986970	0.143459	0.447583
H275	H	0.501223	-0.401679	-0.069866
H276	H	1.001223	0.098321	0.430134
H277	H	0.439444	-0.352104	-0.040656
H278	H	0.939444	0.147896	0.459344
H279	H	0.494574	-0.324089	-0.089060
H280	H	0.994574	0.175911	0.410940
H281	H	0.580748	-0.193677	0.000071
H282	H	1.080748	0.306323	0.500071
O283	O	0.749148	-0.002622	0.270052
O284	O	1.249148	0.497378	0.770052
C285	C	0.783506	-0.036978	0.228328
C286	C	1.283506	0.463022	0.728328
H287	H	0.784009	-0.013622	0.182992
H288	H	1.284009	0.486378	0.682992
H289	H	0.829038	-0.045902	0.246695
H290	H	1.329038	0.454098	0.746695
H291	H	0.765255	-0.079191	0.221559
H292	H	1.265255	0.420809	0.721559
O293	O	0.517377	-0.463438	-0.000076
O294	O	1.017377	0.036562	0.499924
C295	C	0.513860	-0.497356	-0.052424
C296	C	1.013860	0.002644	0.447576
H297	H	0.558837	-0.512408	-0.069859
H298	H	1.058837	-0.012408	0.430141
H299	H	0.491370	-0.536125	-0.040667
H300	H	0.991370	-0.036125	0.459333
H301	H	0.488531	-0.470964	-0.089077
H302	H	0.988531	0.029036	0.410923
H303	H	-0.141947	-0.023982	0.000078
H304	H	0.358053	0.476018	0.500078
O305	O	-0.056403	0.173980	0.000083
O306	O	0.443597	0.673980	0.500083
C307	C	-0.101604	0.219335	0.000058
C308	C	0.398396	0.719335	0.500058
H309	H	-0.141871	0.203604	0.019189
H310	H	0.358129	0.703604	0.519189
H311	H	-0.089398	0.255861	0.029391
H312	H	0.410602	0.755861	0.529391
H313	H	-0.110093	0.235217	-0.048424
H314	H	0.389907	0.735217	0.451576
O315	O	0.788067	-0.041588	0.437444
O316	O	1.288067	0.458412	0.937444
C317	C	0.822447	-0.075931	0.479157
C318	C	1.322447	0.424069	0.979157
H319	H	0.799100	-0.076448	0.524499
H320	H	1.299100	0.423552	1.024499
H321	H	0.831391	-0.121460	0.460786
H322	H	1.331391	0.378540	0.960786
H323	H	0.864648	-0.057656	0.485918
H324	H	1.364648	0.442344	0.985918
O325	O	0.787977	-0.041592	0.562753
O326	O	1.287977	0.458408	1.062753
C327	C	0.757694	-0.076573	0.599564
C328	C	1.257694	0.423427	1.099564
H329	H	0.712783	-0.077309	0.580411
H330	H	1.212783	0.422691	1.080411
H331	H	0.781192	-0.121958	0.600272
H332	H	1.281192	0.378042	1.100272
H333	H	0.754619	-0.058741	0.647773
H334	H	1.254619	0.441259	1.147773
H335	H	0.762610	-0.765821	0.000048
H336	H	1.262610	-0.265821	0.500048
H337	H	0.601676	0.144737	0.734966
H338	H	1.101676	0.644737	1.234966
H339	H	0.562708	0.183658	0.557755
H340	H	1.062708	0.683658	1.057755
O341	O	-0.173489	0.172473	0.000086
O342	O	0.326511	0.672473	0.500086
C343	C	-0.230765	0.160628	0.000074
C344	C	0.269235	0.660628	0.500074
H345	H	-0.232791	0.115910	0.019211
H346	H	0.267209	0.615910	0.519211
H347	H	-0.257864	0.193518	0.029408
H348	H	0.242136	0.693518	0.529408
H349	H	-0.247955	0.162880	-0.048404
H350	H	0.252045	0.662880	0.451596
O351	O	0.556562	0.189831	0.437466
O352	O	1.056562	0.689831	0.937466
C353	C	0.522180	0.224170	0.479185
C354	C	1.022180	0.724170	0.979185
H355	H	0.545529	0.224690	0.524523
H356	H	1.045529	0.724690	1.024523
H357	H	0.513229	0.269699	0.460814
H358	H	1.013229	0.769699	0.960814
H359	H	0.479982	0.205889	0.485953
H360	H	0.979982	0.705889	0.985953
O361	O	0.373094	0.179086	-0.000072
O362	O	0.873094	0.679086	0.499928
C363	C	0.383323	0.210839	-0.052408
C364	C	0.883323	0.710839	0.447592
H365	H	0.403789	0.180644	-0.088979
H366	H	0.903789	0.680644	0.411021
H367	H	0.341054	0.233925	-0.069979
H368	H	0.841054	0.733925	0.430021
H369	H	0.413396	0.243623	-0.040584
H370	H	0.913396	0.743623	0.459416
H371	H	0.601654	0.144769	0.265183
H372	H	1.101654	0.644769	0.765183
H373	H	-0.034198	-0.022693	0.000086
H374	H	0.465802	0.477307	0.500086
H375	H	0.601650	0.144771	0.149783
H376	H	1.101650	0.644771	0.649783
H377	H	0.486602	0.172255	0.000025
H378	H	0.986602	0.672255	0.500025
H379	H	0.138375	-0.072634	0.000106
H380	H	0.638375	0.427366	0.500106
H381	H	0.246123	-0.071339	0.000107
H382	H	0.746123	0.428661	0.500107
H383	H	0.512280	-0.016146	0.000056
H384	H	1.012280	0.483854	0.500056
H385	H	0.770443	-0.111587	0.000094
H386	H	1.270443	0.388413	0.500094
O387	O	0.565944	-0.743599	0.000004
O388	O	1.065944	-0.243599	0.500004
C389	C	0.520589	-0.698398	0.000017
C390	C	1.020589	-0.198398	0.500017
H391	H	0.536326	-0.658132	-0.019108
H392	H	1.036326	-0.158132	0.480892
H393	H	0.484072	-0.710605	-0.029326
H394	H	0.984072	-0.210605	0.470674
H395	H	0.504693	-0.689907	0.048495
H396	H	1.004693	-0.189907	0.548495
