data_functionalizedCrystal
_audit_creation_method	'MofGen! by Chris Wilmer'
_symmetry_space_group_name_H-M	'P1'
_symmetry_Int_Tables_number	1
_symmetry_cell_setting	triclinic
loop_
_symmetry_equiv_pos_as_xyz
  x,y,z
_cell_length_a	17.077404
_cell_length_b	14.908520
_cell_length_c	17.077396
_cell_angle_alpha	93.268321
_cell_angle_beta	89.980499
_cell_angle_gamma	93.320938
loop_
_atom_site_label
_atom_site_type_symbol
_atom_site_fract_x
_atom_site_fract_y
_atom_site_fract_z
Zn1	Zn	1.182024	-0.359154	-0.461868
Zn2	Zn	1.682024	0.140846	0.038132
Zn3	Zn	1.174357	-0.510026	-0.338173
Zn4	Zn	1.674357	-0.010026	0.161827
Zn5	Zn	1.050754	-0.359186	-0.330617
Zn6	Zn	1.550754	0.140814	0.169383
Zn7	Zn	1.043152	-0.509972	-0.469394
Zn8	Zn	1.543152	-0.009972	0.030606
O9	O	1.112572	-0.434584	-0.400013
O10	O	1.612572	0.065416	0.099987
O11	O	1.290853	-0.379177	-0.445472
O12	O	1.790853	0.120823	0.054528
O13	O	1.157933	-0.490052	-0.227326
O14	O	1.657933	0.009948	0.272674
O15	O	1.074557	-0.232937	-0.341715
O16	O	1.574557	0.267063	0.158285
O17	O	1.285220	-0.490021	-0.354594
O18	O	1.785220	0.009979	0.145406
O19	O	1.171001	-0.232913	-0.438145
O20	O	1.671001	0.267087	0.061855
O21	O	1.067123	-0.379231	-0.221774
O22	O	1.567123	0.120769	0.278226
O23	O	0.939899	-0.379179	-0.349014
O24	O	1.439899	0.120821	0.150986
O25	O	1.061601	-0.489930	-0.578241
O26	O	1.561601	0.010070	-0.078241
O27	O	0.934314	-0.489961	-0.450973
O28	O	1.434314	0.010039	0.049027
O29	O	1.163629	-0.379125	-0.572711
O30	O	1.663629	0.120875	-0.072711
O31	O	1.150562	-0.636263	-0.361892
O32	O	1.650562	-0.136263	0.138108
O33	O	1.054166	-0.636224	-0.458300
O34	O	1.554166	-0.136224	0.041700
C35	C	0.908625	-0.434568	-0.399990
C36	C	1.408625	0.065432	0.100010
C37	C	0.821374	-0.434583	-0.400001
C38	C	1.321374	0.065417	0.099999
C39	C	0.777492	-0.492354	-0.453014
C40	C	1.277492	0.007646	0.046986
C41	C	0.695511	-0.492356	-0.453027
C42	C	1.195511	0.007644	0.046973
C43	C	0.657414	-0.434591	-0.400022
C44	C	1.157414	0.065409	0.099978
C45	C	0.701302	-0.376813	-0.347005
C46	C	1.201302	0.123187	0.152995
C47	C	0.783282	-0.376807	-0.346997
C48	C	1.283282	0.123193	0.153003
C49	C	0.530432	-0.376831	-0.347025
C50	C	1.030432	0.123169	0.152975
C51	C	0.448447	-0.376837	-0.347032
C52	C	0.948447	0.123163	0.152968
C53	C	0.442661	-0.492380	-0.453055
C54	C	0.942661	0.007620	0.046945
C55	C	0.524640	-0.492374	-0.453047
C56	C	1.024640	0.007626	0.046953
C57	C	0.568523	-0.434597	-0.400029
C58	C	1.068523	0.065403	0.099971
C59	C	1.100728	-0.668978	-0.411750
C60	C	1.600728	-0.168978	0.088250
C61	C	1.095734	-0.769252	-0.416797
C62	C	1.595734	-0.269252	0.083203
C63	C	1.186828	-0.957658	-0.325973
C64	C	1.686828	-0.457658	0.174027
C65	C	1.182137	-1.051875	-0.330713
C66	C	1.682137	-0.551875	0.169287
C67	C	1.081667	-1.051904	-0.431020
C68	C	1.581667	-0.551904	0.068980
C69	C	1.086357	-0.957687	-0.426280
C70	C	1.586357	-0.457687	0.073720
C71	C	1.138939	-0.910568	-0.373754
C72	C	1.638939	-0.410568	0.126246
C73	C	1.143625	-0.816349	-0.369011
C74	C	1.643625	-0.316349	0.130989
C75	C	1.043159	-0.816380	-0.469321
C76	C	1.543159	-0.316380	0.030679
C77	C	1.038468	-0.910597	-0.474061
C78	C	1.538468	-0.410597	0.025939
C79	C	1.317315	-0.434601	-0.400036
C80	C	1.817315	0.065399	0.099964
C81	C	1.404564	-0.434609	-0.400046
C82	C	1.904564	0.065391	0.099954
C83	C	1.112622	-0.434518	-0.604754
C84	C	1.612622	0.065482	-0.104754
C85	C	1.112644	-0.434490	-0.692002
C86	C	1.612644	0.065510	-0.192002
C87	C	1.124482	-0.199276	-0.388248
C88	C	1.624482	0.300724	0.111752
C89	C	1.129558	-0.099001	-0.383234
C90	C	1.629558	0.400999	0.116766
C91	C	1.165772	-0.376788	-0.730114
C92	C	1.665772	0.123212	-0.230114
C93	C	1.165783	-0.376758	-0.812093
C94	C	1.665783	0.123242	-0.312093
C95	C	1.112669	-0.434435	-0.855959
C96	C	1.612669	0.065565	-0.355959
C97	C	1.059535	-0.492138	-0.817842
C98	C	1.559535	0.007862	-0.317842
C99	C	1.059521	-0.492163	-0.735864
C100	C	1.559521	0.007837	-0.235864
C101	C	1.059569	-0.492084	-0.988709
C102	C	1.559569	0.007916	-0.488709
C103	C	1.059584	-0.492061	-1.070693
C104	C	1.559584	0.007939	-0.570693
C105	C	1.165832	-0.376679	-1.064938
C106	C	1.665832	0.123321	-0.564938
C107	C	1.165818	-0.376704	-0.982961
C108	C	1.665818	0.123296	-0.482961
C109	C	1.112684	-0.434409	-0.944849
C110	C	1.612684	0.065591	-0.444849
C111	C	1.112569	-0.434585	-0.196065
C112	C	1.612569	0.065415	0.303935
C113	C	1.112713	-0.434360	-0.108804
C114	C	1.612713	0.065640	0.391196
H115	H	0.555656	-0.539416	-0.496205
H116	H	1.055656	-0.039416	0.003795
Br117	Br	0.829186	-0.570761	-0.524949
Br118	Br	1.329186	-0.070761	-0.024949
H119	H	0.417431	-0.329789	-0.303879
H120	H	0.917431	0.170211	0.196121
Br121	Br	1.214979	-0.752401	-0.297722
Br122	Br	1.714979	-0.252401	0.202278
Br123	Br	0.987493	-0.570328	-1.130225
Br124	Br	1.487493	-0.070328	-0.630225
H125	H	0.659786	-0.539400	-0.496196
H126	H	1.159786	-0.039400	0.003804
Br127	Br	0.978148	-0.752467	-0.534157
Br128	Br	1.478148	-0.252467	-0.034157
H129	H	1.016286	-0.539096	-0.853564
H130	H	1.516286	-0.039096	-0.353564
H131	H	1.209027	-0.329824	-0.694404
H132	H	1.709027	0.170176	-0.194404
Br133	Br	1.237924	-0.298488	-0.863816
Br134	Br	1.737924	0.201512	-0.363816
Br135	Br	1.247136	-1.115782	-0.265869
Br136	Br	1.747136	-0.615782	0.234131
Br137	Br	0.649601	-0.298407	-0.275075
Br138	Br	1.149601	0.201593	0.224925
Br139	Br	0.383108	-0.570779	-0.525017
Br140	Br	0.883108	-0.070779	-0.025017
H141	H	0.566159	-0.329775	-0.303859
H142	H	1.066159	0.170225	0.196141
Br143	Br	1.258171	-0.893706	-0.254676
Br144	Br	1.758171	-0.393706	0.245324
H145	H	0.819010	-0.329759	-0.303831
H146	H	1.319010	0.170241	0.196169
Br147	Br	0.987411	-0.570469	-0.684139
Br148	Br	1.487411	-0.070469	-0.184139
Br149	Br	1.237908	-0.298436	-0.923429
Br150	Br	1.737908	0.201564	-0.423429
Br151	Br	1.010326	-1.115867	-0.502312
Br152	Br	1.510326	-0.615867	-0.002312
Br153	Br	1.237944	-0.298369	-1.116660
Br154	Br	1.737944	0.201631	-0.616660
H155	H	0.995660	-0.948974	-0.516828
H156	H	1.495660	-0.448974	-0.016828
Br157	Br	0.987457	-0.570396	-0.936986
Br158	Br	1.487457	-0.070396	-0.436986
