data_functionalizedCrystal
_audit_creation_method	'MofGen! by Chris Wilmer'
_symmetry_space_group_name_H-M	'P1'
_symmetry_Int_Tables_number	1
_symmetry_cell_setting	triclinic
loop_
_symmetry_equiv_pos_as_xyz
  x,y,z
_cell_length_a	19.077105
_cell_length_b	14.908520
_cell_length_c	19.077174
_cell_angle_alpha	95.695642
_cell_angle_beta	85.483752
_cell_angle_gamma	91.150228
loop_
_atom_site_label
_atom_site_type_symbol
_atom_site_fract_x
_atom_site_fract_y
_atom_site_fract_z
Zn1	Zn	1.074745	-0.438339	-0.460807
Zn2	Zn	1.063678	-0.582887	-0.349172
Zn3	Zn	0.952676	-0.425728	-0.337659
Zn4	Zn	0.950574	-0.582828	-0.462287
O5	O	1.010418	-0.507446	-0.402481
O6	O	1.171698	-0.462816	-0.450197
O7	O	1.045201	-0.556787	-0.248768
O8	O	0.974380	-0.301160	-0.348556
O9	O	1.163567	-0.569015	-0.368180
O10	O	1.064064	-0.310425	-0.439032
O11	O	0.963648	-0.441323	-0.240309
O12	O	0.853976	-0.441265	-0.349992
O13	O	0.970798	-0.568914	-0.560968
O14	O	0.852432	-0.556686	-0.441556
O15	O	1.062026	-0.462759	-0.559880
O16	O	1.043163	-0.709120	-0.369615
O17	O	0.960066	-0.709077	-0.452721
C18	C	0.827685	-0.497601	-0.394686
C19	C	0.749510	-0.493413	-0.391369
C20	C	0.711992	-0.551621	-0.437416
C21	C	0.638539	-0.547674	-0.434302
C22	C	0.602606	-0.485521	-0.385137
C23	C	0.640130	-0.427307	-0.339088
C24	C	0.713582	-0.431250	-0.342206
C25	C	0.383015	-0.467269	-0.370711
C26	C	0.309558	-0.463332	-0.367595
C27	C	0.307972	-0.583699	-0.462810
C28	C	0.381425	-0.587641	-0.465921
C29	C	0.418943	-0.529422	-0.419874
N30	N	0.527526	-0.481487	-0.381952
N31	N	0.494022	-0.533453	-0.423064
C32	C	1.000205	-0.741833	-0.412594
C33	C	0.995901	-0.842110	-0.416947
C34	C	1.074438	-1.030534	-0.338666
C35	C	1.070396	-1.124752	-0.342754
C36	C	0.983781	-1.124769	-0.429214
C37	C	0.987822	-1.030550	-0.425126
C38	C	1.033152	-0.983435	-0.379850
C39	C	1.037189	-0.889214	-0.375759
C40	C	0.950578	-0.889233	-0.462222
C41	C	0.946536	-0.983452	-0.466310
C42	C	1.193865	-0.517329	-0.410307
C43	C	1.272039	-0.521541	-0.413642
C44	C	1.017412	-0.517237	-0.586779
C45	C	1.020393	-0.521409	-0.665315
C46	C	1.020691	-0.272145	-0.392345
C47	C	1.025068	-0.171873	-0.388025
C48	C	0.979335	-0.463255	-0.697807
C49	C	0.982132	-0.467182	-0.771601
C50	C	1.025992	-0.529261	-0.812901
C51	C	1.067051	-0.587422	-0.780404
C52	C	1.064249	-0.583498	-0.706612
C53	C	1.038920	-0.547447	-1.034069
C54	C	1.041720	-0.551365	-1.107866
C55	C	0.956799	-0.431126	-1.099058
C56	C	0.954005	-0.427204	-1.025265
C57	C	0.995062	-0.485368	-0.992774
N58	N	1.028854	-0.533275	-0.888330
N59	N	0.992195	-0.481357	-0.917346
C60	C	1.003495	-0.497630	-0.218900
C61	C	1.000662	-0.493210	-0.140358
H62	H	0.413552	-0.419871	-0.333212
H63	H	0.610868	-0.376697	-0.299060
H64	H	0.916958	-0.850875	-0.495755
H65	H	0.607995	-0.595075	-0.471798
O66	O	1.083221	-0.610164	-0.999039
H67	H	1.068618	-0.681072	-1.015743
H68	H	0.918288	-0.376655	-0.991642
O69	O	1.114360	-0.654379	-0.824944
H70	H	1.109417	-0.647332	-0.881716
O71	O	1.114933	-1.175560	-0.298345
H72	H	1.080282	-1.214949	-0.262896
H73	H	1.074097	-0.850855	-0.338891
O74	O	0.934897	-1.175587	-0.478050
H75	H	0.880019	-1.153955	-0.462751
H76	H	0.280304	-0.412710	-0.327563
O77	O	0.754047	-0.368476	-0.292531
H78	H	0.743492	-0.297588	-0.301081
O79	O	0.897646	-1.034267	-0.515142
H80	H	0.842771	-1.012629	-0.499837
O81	O	0.932032	-0.396294	-0.653262
H82	H	0.903948	-0.356521	-0.688257
H83	H	0.948695	-0.419830	-0.798052
H84	H	0.923373	-0.383773	-1.125520
H85	H	1.077439	-0.601918	-1.141492
H86	H	0.410677	-0.638254	-0.505955
H87	H	1.097689	-0.630847	-0.680158
O88	O	0.750748	-0.618654	-0.490447
H89	H	0.712316	-0.658459	-0.521948
O90	O	0.267510	-0.646480	-0.512481
H91	H	0.210398	-0.633293	-0.502061
O92	O	1.123324	-0.979707	-0.289836
H93	H	1.151357	-1.028288	-0.261886
