data_functionalizedCrystal
_audit_creation_method	'MofGen! by Chris Wilmer'
_symmetry_space_group_name_H-M	'P1'
_symmetry_Int_Tables_number	1
_symmetry_cell_setting	triclinic
loop_
_symmetry_equiv_pos_as_xyz
  x,y,z
_cell_length_a	16.109301
_cell_length_b	15.944551
_cell_length_c	14.586319
_cell_angle_alpha	89.995256
_cell_angle_beta	89.999213
_cell_angle_gamma	83.480109
loop_
_atom_site_label
_atom_site_type_symbol
_atom_site_fract_x
_atom_site_fract_y
_atom_site_fract_z
O1	O	1.103166	0.107966	-0.076184
O2	O	0.861108	0.121403	-0.076199
O3	O	0.988747	-0.007593	-0.076183
O4	O	0.975527	0.236961	-0.076200
O5	O	0.988738	-0.007595	0.076298
O6	O	0.861099	0.121401	0.076282
O7	O	1.103157	0.107964	0.076296
Cu8	Cu	0.982127	0.114682	0.090212
Cu9	Cu	0.982138	0.114685	-0.090114
O10	O	0.975518	0.236960	0.076280
C11	C	0.830129	0.120857	0.000039
C12	C	0.737833	0.119226	0.000034
C13	C	0.515584	0.191975	0.000040
C14	C	0.428863	0.190435	0.000046
C15	C	0.448688	0.037387	0.000053
C16	C	0.535407	0.038927	0.000053
C17	C	0.568853	0.116224	0.000042
C18	C	0.395412	0.113143	0.000047
C19	C	0.301386	0.111473	0.000054
C20	C	0.662885	0.117894	0.000037
C21	C	0.988194	-0.038887	0.000057
C22	C	0.986548	-0.132133	0.000058
C23	C	0.903499	-0.346962	0.000040
C24	C	0.942060	-0.407993	0.075225
C25	C	0.983572	-0.302858	0.000051
C26	C	0.942088	-0.407975	-0.075109
C27	C	0.980691	-0.467769	0.000040
C28	C	1.022155	-0.362660	0.075297
C29	C	1.022171	-0.362636	-0.075104
C30	C	1.060790	-0.423649	0.000099
C31	C	0.985229	-0.207856	0.000058
C32	C	0.979039	-0.562770	0.000039
C33	C	1.134136	0.108510	0.000056
C34	C	1.226432	0.110141	0.000055
C35	C	0.976071	0.268254	0.000038
C36	C	0.977717	0.361500	0.000031
N37	N	0.982126	0.114680	0.217044
N38	N	0.982146	0.114680	-0.216946
C39	C	1.038663	0.057580	0.452057
C40	C	1.038666	0.057578	0.548038
C41	C	0.925602	0.171783	0.548034
C42	C	0.925597	0.171780	0.452054
C43	C	0.982132	0.114680	0.404068
C44	C	0.982140	0.114680	0.596029
C45	C	0.982142	0.114679	0.700096
C46	C	0.982129	0.114680	0.299995
H47	H	0.542812	0.254914	0.000037
H48	H	0.578781	-0.022762	0.000058
H49	H	0.837035	-0.313632	0.000111
H50	H	0.385495	0.252119	0.000045
C51	C	1.192300	-0.445595	0.078944
C52	C	1.150588	-0.468453	0.000159
H53	H	1.247734	-0.473262	0.078985
H54	H	1.193824	-0.386221	0.079442
H55	H	1.163636	-0.461815	0.131836
H56	H	1.179249	-0.452227	-0.052734
H57	H	1.149069	-0.527840	-0.000348
C58	C	0.907555	0.286088	0.344097
C59	C	0.863455	0.234551	0.399296
H60	H	0.869191	0.324834	0.311524
H61	H	0.942156	0.316313	0.381533
H62	H	0.941217	0.252069	0.301787
H63	H	0.829798	0.268571	0.441611
H64	H	0.828841	0.204325	0.361857
C65	C	0.813988	-0.396039	0.160885
C66	C	0.896339	-0.435133	0.161025
H67	H	0.785759	-0.412796	0.213849
H68	H	0.814261	-0.336501	0.161223
H69	H	0.786092	-0.412318	0.107492
H70	H	0.924237	-0.418848	0.214414
H71	H	0.896070	-0.494683	0.160695
C72	C	1.137605	-0.296379	-0.134284
C73	C	1.067858	-0.335465	-0.160907
H74	H	1.165807	-0.279608	-0.187262
H75	H	1.119956	-0.248141	-0.098048
H76	H	1.174360	-0.334887	-0.099500
H77	H	1.031100	-0.296955	-0.195686
H78	H	1.085506	-0.383709	-0.197159
C79	C	0.950973	-0.490617	-0.213096
C80	C	0.896360	-0.435079	-0.160915
H81	H	0.922736	-0.507350	-0.266062
H82	H	0.997692	-0.463170	-0.231164
H83	H	0.969519	-0.539004	-0.177451
H84	H	0.877819	-0.386688	-0.196558
H85	H	0.849627	-0.462525	-0.142848
H86	H	1.055990	-0.342682	0.138930
C87	C	1.150413	-0.055312	0.461706
C88	C	1.100798	-0.005191	0.399310
H89	H	1.188768	-0.094070	0.429142
H90	H	1.180322	-0.020340	0.499131
H91	H	1.115797	-0.085530	0.499151
H92	H	1.135414	0.025032	0.361870
H93	H	1.070886	-0.040168	0.361869
H94	H	0.879574	0.218274	0.587113
C95	C	1.088872	0.006866	0.695167
C96	C	1.100807	-0.005187	0.600789
H97	H	1.127234	-0.031890	0.727731
H98	H	1.097905	0.062921	0.710887
H99	H	1.033386	-0.002275	0.710891
H100	H	1.156292	0.003961	0.585064
H101	H	1.091780	-0.061255	0.585063
C102	C	0.324555	-0.032933	0.000045
C103	C	0.411921	-0.047575	0.000053
H104	H	0.301861	-0.085387	0.000038
H105	H	0.306274	-0.001754	0.053215
H106	H	0.306282	-0.001738	-0.053133
H107	H	0.430195	-0.078764	0.053234
H108	H	0.430210	-0.078767	-0.053122
