data_functionalizedCrystal
_audit_creation_method	'MofGen! by Chris Wilmer'
_symmetry_space_group_name_H-M	'P1'
_symmetry_Int_Tables_number	1
_symmetry_cell_setting	triclinic
loop_
_symmetry_equiv_pos_as_xyz
  x,y,z
_cell_length_a	17.000371
_cell_length_b	17.038272
_cell_length_c	16.098538
_cell_angle_alpha	92.930266
_cell_angle_beta	92.504966
_cell_angle_gamma	96.644598
loop_
_atom_site_label
_atom_site_type_symbol
_atom_site_fract_x
_atom_site_fract_y
_atom_site_fract_z
O1	O	0.168741	-1.029306	-0.069154
O2	O	0.166008	-0.801864	-0.069178
O3	O	0.052464	-0.929707	-0.069159
O4	O	0.282284	-0.901463	-0.069173
O5	O	0.059069	-0.922241	0.069353
O6	O	0.172612	-0.794398	0.069334
O7	O	0.175345	-1.021840	0.069358
Zn8	Zn	0.175028	-0.906934	0.091337
Zn9	Zn	0.166326	-0.916771	-0.091158
O10	O	0.288889	-0.893997	0.069338
C11	C	0.166825	-0.769173	0.000075
C12	C	0.159412	-0.682888	0.000065
N13	N	0.180966	-0.900226	0.215886
C14	C	0.026216	-0.927491	0.000097
C15	C	-0.061837	-0.932002	0.000097
C16	C	-0.098564	-0.862581	0.000086
C17	C	-0.181300	-0.866824	0.000088
C18	C	-0.227307	-0.940490	0.000096
C19	C	-0.190575	-1.009916	0.000110
C20	C	-0.107840	-1.005672	0.000113
C21	C	-0.477343	-0.956884	0.000092
C22	C	-0.560083	-0.961123	0.000087
C23	C	-0.550802	-0.818031	0.000067
C24	C	-0.468067	-0.813793	0.000065
C25	C	-0.431342	-0.883219	0.000083
C26	C	-0.311876	-0.944829	0.000096
C27	C	-0.346774	-0.878879	0.000089
C28	C	0.315137	-0.896213	0.000081
C29	C	0.403190	-0.891702	0.000076
C30	C	0.174528	-1.054531	0.000103
C31	C	0.181941	-1.140816	0.000107
C32	C	0.227470	-0.628113	0.000062
C33	C	0.220501	-0.547039	0.000074
C34	C	0.145472	-0.520743	0.000083
C35	C	0.077409	-0.575525	0.000090
C36	C	0.084380	-0.656596	0.000084
C37	C	0.120848	-0.276670	0.000107
C38	C	0.113882	-0.195592	0.000111
C39	C	0.256975	-0.167112	0.000096
C40	C	0.263939	-0.248187	0.000085
C41	C	0.195876	-0.302961	0.000096
C42	C	0.138347	-0.437873	0.000093
C43	C	0.203002	-0.385829	0.000092
N44	N	0.160381	-0.923485	-0.215706
C45	C	0.132794	-0.954505	0.259479
C46	C	0.136956	-0.949819	0.346667
C47	C	0.189296	-0.890858	0.390261
C48	C	0.237471	-0.836573	0.346661
C49	C	0.233304	-0.841256	0.259474
C50	C	0.204388	-0.873883	0.653508
C51	C	0.208554	-0.869206	0.740701
C52	C	0.108038	-0.982452	0.740701
C53	C	0.103878	-0.987132	0.653513
C54	C	0.152050	-0.932845	0.609921
C55	C	0.193554	-0.886068	0.479381
C56	C	0.147788	-0.937632	0.520802
H57	H	-0.211199	-0.810295	0.000073
O58	O	0.054784	-0.329950	-0.000004
C59	C	0.051099	-0.381541	-0.071754
H60	H	0.113121	-0.382615	-0.095671
H61	H	0.026480	-0.443709	-0.055624
H62	H	0.010718	-0.360018	-0.121984
H63	H	0.052782	-0.174186	0.000118
H64	H	-0.349345	-1.004808	0.000102
O65	O	0.323167	-0.114012	0.000056
C66	C	0.390883	-0.154606	0.000069
H67	H	0.373625	-0.217981	-0.026157
H68	H	0.436991	-0.123383	-0.040145
H69	H	0.416791	-0.155278	0.066518
H70	H	0.016320	-0.554107	0.000109
H71	H	0.097730	-0.994017	0.382161
O72	O	0.065454	-0.412360	0.000240
C73	C	0.027037	-0.436995	0.071963
H74	H	0.073199	-0.448257	0.122103
H75	H	-0.008850	-0.388842	0.096045
H76	H	-0.014304	-0.493803	0.055739
O77	O	-0.302175	-0.807283	-0.000032
C78	C	-0.322966	-0.768675	-0.071790
H79	H	-0.385496	-0.793384	-0.095704
H80	H	-0.320777	-0.702498	-0.055671
H81	H	-0.279438	-0.778923	-0.122018
H82	H	0.028959	-0.701195	0.000086
H83	H	-0.580713	-0.761508	0.000053
O84	O	0.244504	-0.828824	0.521634
C85	C	0.322781	-0.837232	0.500336
H86	H	0.321713	-0.870634	0.437030
H87	H	0.357659	-0.776216	0.497357
H88	H	0.352269	-0.871645	0.549399
O89	O	-0.072075	-1.073058	0.000010
C90	C	-0.027925	-1.078761	-0.071734
H91	H	-0.012644	-1.017297	-0.095658
H92	H	0.029060	-1.105185	-0.055592
H93	H	-0.064488	-1.118412	-0.121964
H94	H	0.068818	-1.026649	0.776201
H95	H	0.264090	-0.407243	0.000089
O96	O	0.081882	-1.011809	0.217265
C97	C	0.040270	-1.058723	0.274443
H98	H	0.040168	-1.023541	0.336596
H99	H	-0.023393	-1.076300	0.249263
H100	H	0.070386	-1.114262	0.283703
H101	H	-0.430613	-0.753807	0.000056
O102	O	-0.604820	-1.032674	-0.000047
C103	C	-0.656381	-1.043269	-0.071776
H104	H	-0.631196	-1.004102	-0.121923
H105	H	-0.662575	-1.107895	-0.095841
H106	H	-0.717063	-1.026380	-0.055566
O107	O	-0.441594	-1.024275	-0.000010
C108	C	-0.397445	-1.029982	-0.071754
H109	H	-0.382152	-0.968518	-0.095674
H110	H	-0.340466	-1.056418	-0.055616
H111	H	-0.434014	-1.069625	-0.121987
H112	H	-0.061110	-0.802595	0.000075
H113	H	0.288567	-0.649516	0.000053
O114	O	0.280020	-0.788573	0.216996
C115	C	0.265133	-0.805359	0.130696
H116	H	0.203563	-0.839417	0.118797
H117	H	0.268336	-0.747602	0.097567
H118	H	0.311460	-0.842631	0.105939
H119	H	0.061259	-1.035144	0.618021
O120	O	-0.235186	-1.081527	0.000006
C121	C	-0.221218	-1.127873	-0.071735
H122	H	-0.160965	-1.105738	-0.095649
H123	H	-0.221864	-1.192309	-0.055595
H124	H	-0.269528	-1.123049	-0.121973
O125	O	0.251266	-0.821113	0.611299
C126	C	0.298342	-0.768060	0.668475
H127	H	0.304384	-0.796570	0.730618
H128	H	0.359598	-0.753187	0.643276
H129	H	0.269111	-0.711526	0.677765
H130	H	0.251178	-0.821189	0.776190
O131	O	0.286692	-0.493939	0.000032
C132	C	0.354409	-0.534532	0.000038
H133	H	0.337150	-0.597907	-0.026191
H134	H	0.400514	-0.503308	-0.040178
H135	H	0.380321	-0.535208	0.066486
H136	H	0.105170	-0.985636	0.485306
O137	O	0.288206	-0.779267	0.389099
C138	C	0.244906	-0.731461	0.439532
H139	H	0.185653	-0.766019	0.452599
H140	H	0.280063	-0.713586	0.500838
H141	H	0.233988	-0.676123	0.405943
H142	H	0.325034	-0.269591	0.000068
