data_functionalizedCrystal
_audit_creation_method	'MofGen! by Chris Wilmer'
_symmetry_space_group_name_H-M	'P1'
_symmetry_Int_Tables_number	1
_symmetry_cell_setting	triclinic
loop_
_symmetry_equiv_pos_as_xyz
  x,y,z
_cell_length_a	18.426585
_cell_length_b	15.698487
_cell_length_c	15.698487
_cell_angle_alpha	90.000712
_cell_angle_beta	59.999816
_cell_angle_gamma	60.003252
loop_
_atom_site_label
_atom_site_type_symbol
_atom_site_fract_x
_atom_site_fract_y
_atom_site_fract_z
Zr1	Zr	0.794364	-0.111764	0.820605
O2	O	0.945758	-0.247770	0.684589
O3	O	0.642967	-0.070076	0.862302
O4	O	0.794363	-0.247780	0.862301
O5	O	0.794365	0.070115	0.684591
O6	O	0.794365	-0.247782	1.002482
O7	O	0.794363	-0.070066	0.684591
O8	O	0.523546	0.070098	1.002484
O9	O	1.065185	-0.247765	0.684588
O10	O	0.705242	-0.052292	0.984700
O11	O	0.705242	0.052325	0.880085
O12	O	0.883491	-0.156898	0.880083
O13	O	0.883491	-0.052281	0.775468
Zr14	Zr	0.794374	0.111805	1.044179
Zr15	Zr	0.794369	-0.111768	1.044178
Zr16	Zr	0.794369	0.111809	0.820606
Zr17	Zr	0.984836	-0.111756	0.820604
Zr18	Zr	0.603902	0.111797	1.044180
O19	O	0.945771	0.070117	1.002482
O20	O	0.945765	-0.247775	1.002481
O21	O	0.945765	0.070121	0.684590
O22	O	0.642980	0.247811	1.180195
O23	O	0.642973	-0.070081	1.180194
O24	O	0.642973	0.247816	0.862303
O25	O	0.794373	-0.070074	1.180193
O26	O	0.794376	0.247820	1.002483
O27	O	0.794373	0.247823	0.862302
O28	O	0.794376	0.070107	1.180193
O29	O	1.065188	-0.247768	0.862299
O30	O	0.523550	0.247809	1.002485
O31	O	0.523553	0.247806	1.180196
O32	O	0.523550	0.070095	1.180195
O33	O	1.065188	-0.070054	0.684589
O34	O	1.065192	-0.070057	0.862300
O35	O	0.705247	0.156939	0.984701
O36	O	0.705247	0.052322	1.089316
O37	O	0.883496	-0.052284	0.984699
O38	O	0.883496	0.052333	0.880084
C39	C	0.556118	0.000010	0.932393
C40	C	0.475258	0.000006	0.932394
C41	C	0.794363	0.000025	0.652737
C42	C	0.794361	0.000026	0.557824
C43	C	0.794375	0.279676	0.932393
C44	C	0.794377	0.374588	0.932393
C45	C	0.179148	0.000037	0.932388
C46	C	0.261535	0.000031	0.932387
C47	C	0.327201	0.000021	0.932390
C48	C	0.409592	0.000016	0.932391
C49	C	1.032620	0.000031	0.932391
C50	C	1.113480	0.000034	0.932390
C51	C	0.794363	-0.279635	0.932391
C52	C	0.794361	-0.374547	0.932391
C53	C	0.794359	0.548374	0.932393
C54	C	0.794365	0.451670	0.932396
C55	C	0.794379	0.000016	0.384039
C56	C	0.794374	0.000019	0.480743
C57	C	0.794375	0.000016	1.212047
C58	C	0.794377	0.000015	1.306960
C59	C	0.556124	0.000006	1.212049
C60	C	0.475266	0.000001	1.306962
C61	C	0.556124	0.279665	0.932394
C62	C	0.475266	0.374574	0.932395
C63	C	0.556130	0.279661	1.212050
C64	C	0.475273	0.374569	1.306963
C65	C	1.032608	-0.279620	0.652734
C66	C	1.113465	-0.374528	0.557821
C67	C	1.032614	0.000035	0.652735
C68	C	1.113472	0.000040	0.557822
C69	C	1.032614	-0.279624	0.932390
C70	C	1.113472	-0.374533	0.932389
C71	C	0.437292	-0.054618	1.296925
C72	C	0.361327	-0.054644	1.386098
C73	C	0.323333	-0.000044	1.485305
C74	C	0.361315	0.054577	1.495340
C75	C	0.437283	0.054596	1.406168
C76	C	0.437296	0.473761	0.987004
C77	C	0.361332	0.562947	0.987001
C78	C	0.323334	0.552943	0.932394
C79	C	0.361311	0.453746	0.877779
C80	C	0.437279	0.364562	0.877777
C81	C	0.437303	0.364529	1.406153
C82	C	0.361340	0.453696	1.495343
C83	C	0.323345	0.552902	1.485340
C84	C	0.361323	0.562939	1.386140
C85	C	0.437289	0.473773	1.296953
C86	C	1.151445	-0.364488	0.458631
C87	C	1.227431	-0.453655	0.369441
C88	C	1.265430	-0.552861	0.379444
C89	C	1.227447	-0.562898	0.478644
C90	C	1.151467	-0.473732	0.567831
C91	C	1.151454	0.054650	0.567859
C92	C	1.227440	0.054651	0.478686
C93	C	1.265436	0.000048	0.379479
C94	C	1.227451	-0.054569	0.369444
C95	C	1.151472	-0.054575	0.458616
C96	C	1.151447	-0.364496	0.987006
C97	C	1.227411	-0.453665	0.987025
C98	C	1.265406	-0.552869	0.932421
C99	C	1.227424	-0.562905	0.877802
C100	C	1.151455	-0.473737	0.877789
H101	H	0.468226	-0.099093	1.216154
F102	F	1.111024	-0.258923	1.045128
H103	H	1.258400	-0.099026	0.288658
F104	F	0.320931	0.442992	1.600908
F105	F	1.267825	-0.442963	1.045156
F106	F	0.477688	0.484474	1.191390
F107	F	0.320915	-0.112778	1.375396
H108	H	0.330369	0.099030	1.576126
H109	H	0.261474	-0.000067	1.557906
H110	H	1.120544	-0.481919	0.648594
F111	F	1.111015	-0.258914	0.447962
H112	H	1.327264	-0.625467	0.932440
F113	F	0.320859	0.443115	0.819667
H114	H	1.327297	-0.625457	0.306813
H115	H	1.258354	0.099130	0.486877
H116	H	0.468192	0.099079	1.414355
H117	H	1.327303	0.000061	0.306878
F118	F	1.111051	-0.112696	0.447918
H119	H	1.258370	-0.643689	0.833345
H120	H	1.120545	-0.481924	0.833309
F121	F	1.267897	-0.668489	0.489273
F122	F	0.242480	0.647871	0.932407
H123	H	1.120523	0.099122	0.648630
H124	H	0.468226	0.481927	1.031472
H125	H	0.468227	0.283759	1.414317
F126	F	0.477676	0.259002	0.819656
F127	F	0.320925	0.668510	1.045136
H128	H	0.261488	0.625498	1.557971
H129	H	1.258344	-0.445462	0.288677
F130	F	0.320875	0.668530	1.375511
