data_functionalizedCrystal
_audit_creation_method	'MofGen! by Chris Wilmer'
_symmetry_space_group_name_H-M	'P1'
_symmetry_Int_Tables_number	1
_symmetry_cell_setting	triclinic
loop_
_symmetry_equiv_pos_as_xyz
  x,y,z
_cell_length_a	9.065218
_cell_length_b	10.654550
_cell_length_c	9.130313
_cell_angle_alpha	90.004369
_cell_angle_beta	90.003591
_cell_angle_gamma	84.750408
loop_
_atom_site_label
_atom_site_type_symbol
_atom_site_fract_x
_atom_site_fract_y
_atom_site_fract_z
O1	O	-1.959393	-0.184159	-0.121803
O2	O	-1.530025	-0.199265	-0.121805
O3	O	-1.754581	-0.009012	-0.121795
O4	O	-1.734837	-0.374412	-0.121813
O5	O	-1.754566	-0.009006	0.121804
O6	O	-1.530010	-0.199259	0.121794
O7	O	-1.959377	-0.184153	0.121796
Cu8	Cu	-1.744692	-0.191706	0.144037
Cu9	Cu	-1.744710	-0.191712	-0.144046
O10	O	-1.734822	-0.374406	0.121786
C11	C	-1.475039	-0.197810	-0.000006
C12	C	-1.311220	-0.193469	-0.000006
N13	N	-1.744690	-0.191700	0.346660
C14	C	-2.014364	-0.185608	-0.000006
C15	C	-2.178183	-0.189949	-0.000015
C16	C	-1.753124	0.037795	0.000004
C17	C	-1.748786	0.177255	0.000002
C18	C	-1.736279	-0.421213	-0.000016
C19	C	-1.740616	-0.560673	-0.000024
C20	C	-1.881001	0.256217	0.000002
C21	C	-1.876917	0.387254	-0.000016
C22	C	-1.608391	0.360354	-0.000028
C23	C	-1.612477	0.229320	-0.000021
N24	N	-1.744724	-0.191708	-0.346669
C25	C	-1.844157	-0.107492	0.423316
C26	C	-1.844171	-0.107493	0.576653
C27	C	-1.645246	-0.275920	0.576664
C28	C	-1.645226	-0.275913	0.423330
H29	H	-1.984580	0.451541	-0.000019
O30	O	-1.483936	0.152737	-0.000214
C31	C	-1.255738	0.089580	-0.126473
C32	C	-1.401228	0.176402	-0.126410
H33	H	-1.188842	0.108664	-0.228506
H34	H	-1.188610	0.108730	-0.024601
H35	H	-1.282111	-0.013006	-0.126399
H36	H	-1.374989	0.279018	-0.126535
H37	H	-1.468314	0.157143	-0.228273
H38	H	-1.925165	-0.038922	0.639063
O39	O	-1.548435	-0.357595	0.651082
C40	C	-1.292646	-0.428185	0.697978
C41	C	-1.402120	-0.335594	0.613638
H42	H	-1.174328	-0.410448	0.667712
H43	H	-1.309621	-0.413726	0.820755
H44	H	-1.312959	-0.529002	0.667829
H45	H	-1.381874	-0.234741	0.643665
H46	H	-1.385120	-0.350164	0.490881
H47	H	-1.564221	-0.344485	0.360912
H48	H	-1.497413	0.402762	-0.000043
H49	H	-1.991993	0.213831	0.000017
H50	H	-1.925144	-0.038920	0.360896
