data_functionalizedCrystal
_audit_creation_method	'MofGen! by Chris Wilmer'
_symmetry_space_group_name_H-M	'P1'
_symmetry_Int_Tables_number	1
_symmetry_cell_setting	triclinic
loop_
_symmetry_equiv_pos_as_xyz
  x,y,z
_cell_length_a	23.532355
_cell_length_b	23.532407
_cell_length_c	14.472310
_cell_angle_alpha	89.994233
_cell_angle_beta	89.992822
_cell_angle_gamma	82.838088
loop_
_atom_site_label
_atom_site_type_symbol
_atom_site_fract_x
_atom_site_fract_y
_atom_site_fract_z
O1	O	0.755286	0.068990	-0.076725
O2	O	1.255286	0.568990	0.423275
O3	O	0.589419	0.079024	-0.076755
O4	O	1.089419	0.579024	0.423245
O5	O	0.677354	-0.008925	-0.076722
O6	O	1.177354	0.491075	0.423278
O7	O	0.667351	0.156940	-0.076758
O8	O	1.167351	0.656940	0.423242
O9	O	0.677332	-0.008920	0.076960
O10	O	1.177332	0.491080	0.576960
O11	O	0.589396	0.079029	0.076927
O12	O	1.089396	0.579029	0.576927
O13	O	0.755264	0.068995	0.076957
O14	O	1.255264	0.568995	0.576957
Cu15	Cu	0.672328	0.074013	0.090974
Cu16	Cu	1.172328	0.574013	0.590974
Cu17	Cu	0.672354	0.074007	-0.090772
Cu18	Cu	1.172354	0.574007	0.409228
O19	O	0.667328	0.156945	0.076924
O20	O	1.167328	0.656945	0.576924
C21	C	0.568191	0.078776	0.000082
C22	C	1.068191	0.578776	0.500082
C23	C	0.504972	0.078022	0.000071
C24	C	1.004972	0.578022	0.500071
C25	C	0.677088	-0.030139	0.000121
C26	C	1.177088	0.469861	0.500121
C27	C	0.676322	-0.093356	0.000128
C28	C	1.176322	0.406644	0.500128
C29	C	0.112946	0.073287	0.083883
C30	C	0.612946	0.573287	0.583883
C31	C	0.053547	0.072569	0.083887
C32	C	0.553547	0.572569	0.583887
O33	O	0.022818	0.072181	0.155131
O34	O	0.522818	0.572181	0.655131
N35	N	0.023850	0.072211	0.000115
N36	N	0.523850	0.572211	0.500115
C37	C	0.053557	0.072564	-0.083666
C38	C	0.553557	0.572564	0.416334
O39	O	0.022844	0.072192	-0.154920
O40	O	0.522844	0.572192	0.345080
C41	C	0.112956	0.073277	-0.083669
C42	C	0.612956	0.573277	0.416331
C43	C	0.142649	0.073641	0.000108
C44	C	0.642649	0.573641	0.500108
C45	C	0.142638	0.073650	0.167653
C46	C	0.642638	0.573650	0.667653
C47	C	0.202034	0.074369	0.167649
C48	C	0.702034	0.574369	0.667649
C49	C	0.231736	0.074724	0.083875
C50	C	0.731736	0.574724	0.583875
C51	C	0.202044	0.074360	0.000104
C52	C	0.702044	0.574360	0.500104
C53	C	0.142663	0.073626	-0.167449
C54	C	0.642663	0.573626	0.332551
C55	C	0.202066	0.074339	-0.167444
C56	C	0.702066	0.574339	0.332556
C57	C	0.231758	0.074703	-0.083667
C58	C	0.731758	0.574703	0.416333
C59	C	0.291142	0.075433	-0.083674
C60	C	0.791142	0.575433	0.416326
N61	N	0.320838	0.075792	0.000097
N62	N	0.820838	0.575792	0.500097
C63	C	0.291135	0.075437	0.083872
C64	C	0.791135	0.575437	0.583872
C65	C	-0.071184	0.071065	-0.083654
C66	C	0.428816	0.571065	0.416346
C67	C	-0.130582	0.070355	-0.083652
C68	C	0.369418	0.570355	0.416348
C69	C	-0.130589	0.070360	0.083901
C70	C	0.369411	0.570360	0.583901
C71	C	-0.071190	0.071073	0.083898
C72	C	0.428810	0.571073	0.583898
C73	C	-0.041488	0.071423	0.000118
C74	C	0.458512	0.571423	0.500118
C75	C	0.415869	0.076946	0.083857
C76	C	0.915869	0.576946	0.583857
C77	C	0.475269	0.077667	0.083845
C78	C	0.975269	0.577667	0.583845
C79	C	0.475271	0.077660	-0.083707
C80	C	0.975271	0.577660	0.416293
C81	C	0.415876	0.076942	-0.083696
C82	C	0.915876	0.576942	0.416304
C83	C	0.386177	0.076583	0.000093
C84	C	0.886177	0.576583	0.500093
O85	O	0.321909	0.075819	-0.154882
O86	O	0.821909	0.575819	0.345118
O87	O	0.321857	0.075801	0.155114
O88	O	0.821857	0.575801	0.655114
C89	C	0.723557	-0.492468	0.000086
C90	C	1.223557	0.007532	0.500086
C91	C	0.722845	-0.551868	0.000079
C92	C	1.222845	-0.051868	0.500079
O93	O	0.766632	-0.588620	0.000053
O94	O	1.266632	-0.088620	0.500053
N95	N	0.670568	-0.574484	0.000070
N96	N	1.170568	-0.074484	0.500070
C97	C	0.618998	-0.537697	0.000059
C98	C	1.118998	-0.037697	0.500059
O99	O	0.574467	-0.562388	0.000050
O100	O	1.074467	-0.062388	0.500050
C101	C	0.619710	-0.478298	0.000059
C102	C	1.119710	0.021702	0.500059
C103	C	0.671991	-0.455685	0.000078
C104	C	1.171991	0.044315	0.500078
C105	C	0.775834	-0.469854	0.000104
C106	C	1.275834	0.030146	0.500104
C107	C	0.776545	-0.410458	0.000113
C108	C	1.276545	0.089542	0.500113
C109	C	0.724979	-0.373676	0.000104
C110	C	1.224979	0.126324	0.500104
C111	C	0.672703	-0.396289	0.000087
C112	C	1.172703	0.103711	0.500087
C113	C	0.568141	-0.441512	0.000042
C114	C	1.068141	0.058488	0.500042
C115	C	0.568858	-0.382110	0.000041
C116	C	1.068858	0.117890	0.500041
C117	C	0.621139	-0.359497	0.000060
C118	C	1.121139	0.140503	0.500060
C119	C	0.621848	-0.300110	0.000087
C120	C	1.121848	0.199890	0.500087
N121	N	0.674126	-0.277494	0.000096
N122	N	1.174126	0.222506	0.500096
C123	C	0.725691	-0.314277	0.000105
C124	C	1.225691	0.185723	0.500105
C125	C	0.617507	-0.662439	0.000056
C126	C	1.117507	-0.162439	0.500056
C127	C	0.616794	-0.721837	0.000062
C128	C	1.116794	-0.221837	0.500062
C129	C	0.720642	-0.736004	0.000081
C130	C	1.220642	-0.236004	0.500081
C131	C	0.721354	-0.676605	0.000081
C132	C	1.221354	-0.176605	0.500081
C133	C	0.669784	-0.639823	0.000065
C134	C	1.169784	-0.139823	0.500065
C135	C	0.727181	-0.189540	0.000124
C136	C	1.227181	0.310460	0.500124
C137	C	0.727888	-0.130138	0.000137
C138	C	1.227888	0.369862	0.500137
C139	C	0.624041	-0.115977	0.000113
C140	C	1.124041	0.384023	0.500113
C141	C	0.623334	-0.175373	0.000105
C142	C	1.123334	0.324627	0.500105
C143	C	0.674909	-0.212154	0.000108
C144	C	1.174909	0.287846	0.500108
O145	O	0.578084	-0.263323	0.000109
O146	O	1.078084	0.236677	0.500109
O147	O	0.770216	-0.289577	0.000102
O148	O	1.270216	0.210423	0.500102
C149	C	0.776491	0.069244	0.000118
C150	C	1.276491	0.569244	0.500118
C151	C	0.839710	0.069998	0.000123
C152	C	1.339710	0.569998	0.500123
C153	C	0.667594	0.178158	0.000079
C154	C	1.167594	0.678158	0.500079
C155	C	0.668360	0.241375	0.000066
C156	C	1.168360	0.741375	0.500066
N157	N	0.672313	0.074017	0.218805
N158	N	1.172313	0.574017	0.718805
N159	N	0.672374	0.073998	-0.218603
N160	N	1.172374	0.573998	0.281397
C161	C	0.672354	0.074004	0.592897
C162	C	1.172354	0.574004	1.092897
C163	C	0.625145	0.120909	0.553713
C164	C	1.125145	0.620909	1.053713
C165	C	0.625252	0.121078	0.446625
C166	C	1.125252	0.621078	0.946625
C167	C	0.672333	0.074011	0.407306
C168	C	1.172333	0.574011	0.907306
C169	C	0.731685	0.086643	0.446150
C170	C	1.231685	0.586643	0.946150
C171	C	0.731420	0.086976	0.553272
C172	C	1.231420	0.586976	1.053272
C173	C	0.660741	0.014327	0.553436
C174	C	1.160741	0.514327	1.053436
C175	C	0.659376	0.014733	0.446308
C176	C	1.159376	0.514733	0.946308
C177	C	0.672325	0.074013	0.302417
C178	C	1.172325	0.574013	0.802417
C179	C	0.672365	0.074003	0.697785
C180	C	1.172365	0.574003	1.197785
H181	H	0.499442	0.077966	0.152070
H182	H	0.999442	0.577966	0.652070
H183	H	0.767628	0.054141	0.579191
H184	H	1.267628	0.554141	1.079191
H185	H	0.118461	0.073360	0.235876
H186	H	0.618461	0.573360	0.735876
F187	F	0.384270	0.076564	0.173035
F188	F	0.884270	0.576564	0.673035
F189	F	-0.039595	0.071460	0.173064
F190	F	0.460405	0.571460	0.673064
F191	F	0.602311	0.002191	0.413127
F192	F	1.102311	0.502191	0.913127
F193	F	0.776997	-0.652544	0.000101
F194	F	1.276997	-0.152544	0.500101
H195	H	0.819117	-0.392053	0.000124
H196	H	1.319117	0.107947	0.500124
F197	F	0.569164	-0.076820	0.000105
F198	F	1.069164	0.423180	0.500105
H199	H	0.575510	-0.632494	0.000051
H200	H	1.075510	-0.132494	0.500051
H201	H	0.762629	-0.765963	0.000084
H202	H	1.262629	-0.265963	0.500084
H203	H	-0.047005	0.071355	-0.151882
H204	H	0.452995	0.571355	0.348118
F205	F	0.384273	0.076563	-0.172860
F206	F	0.884273	0.576563	0.327140
F207	F	0.783535	-0.106076	0.000156
F208	F	1.283535	0.393924	0.500156
H209	H	0.769178	-0.219481	0.000122
H210	H	1.269178	0.280519	0.500122
F211	F	0.830722	-0.508993	0.000112
F212	F	1.330722	-0.008993	0.500112
H213	H	0.574222	-0.740243	0.000063
H214	H	1.074222	-0.240243	0.500063
F215	F	0.512496	-0.465565	0.000018
F216	F	1.012496	0.034435	0.500018
F217	F	0.745462	0.142864	0.411064
F218	F	1.245462	0.642864	0.911064
H219	H	0.226204	0.074662	0.235869
H220	H	0.726204	0.574662	0.735869
F221	F	0.233674	0.074710	-0.256617
F222	F	0.733674	0.574710	0.243383
H223	H	-0.154784	0.070070	0.152115
H224	H	0.345216	0.570070	0.652115
H225	H	0.526863	-0.352164	0.000027
H226	H	1.026863	0.147836	0.500027
F227	F	-0.162178	0.069978	-0.172819
F228	F	0.337822	0.569978	0.327181
H229	H	0.580762	-0.193785	0.000116
H230	H	1.080762	0.306215	0.500116
F231	F	0.567565	0.111337	0.412296
F232	F	1.067565	0.611337	0.912296
H233	H	0.580873	0.113562	0.579495
H234	H	1.080873	0.613562	1.079495
H235	H	0.632422	0.164952	0.580615
H236	H	1.132422	0.664952	1.080615
H237	H	0.118498	0.073329	-0.235669
H238	H	0.618498	0.573329	0.264331
H239	H	0.499466	0.077951	-0.151914
H240	H	0.999466	0.577951	0.348086
F241	F	0.778682	0.043158	0.412864
F242	F	1.278682	0.543158	0.912864
F243	F	0.605414	-0.001653	0.588782
F244	F	1.105414	0.498347	1.088782
H245	H	0.632633	0.165371	0.420983
H246	H	1.132633	0.665371	0.920983
H247	H	0.741704	0.130487	0.578240
H248	H	1.241704	0.630487	1.078240
H249	H	0.691553	-0.021779	0.419547
H250	H	1.191553	0.478221	0.919547
H251	H	0.695172	-0.020573	0.578776
H252	H	1.195172	0.479427	1.078776
