data_functionalizedCrystal
_audit_creation_method	'MofGen! by Chris Wilmer'
_symmetry_space_group_name_H-M	'P1'
_symmetry_Int_Tables_number	1
_symmetry_cell_setting	triclinic
loop_
_symmetry_equiv_pos_as_xyz
  x,y,z
_cell_length_a	19.288864
_cell_length_b	26.210047
_cell_length_c	19.288865
_cell_angle_alpha	90.009860
_cell_angle_beta	83.136245
_cell_angle_gamma	90.030276
loop_
_atom_site_label
_atom_site_type_symbol
_atom_site_fract_x
_atom_site_fract_y
_atom_site_fract_z
O1	O	0.921361	0.042598	0.086646
O2	O	1.421361	0.542598	0.586646
O3	O	0.719100	0.042564	0.098335
O4	O	1.219100	0.542564	0.598335
O5	O	0.826075	0.042572	-0.008640
O6	O	1.326075	0.542572	0.491360
O7	O	0.814386	0.042590	0.193621
O8	O	1.314386	0.542590	0.693621
O9	O	0.826041	-0.042286	-0.008640
O10	O	1.326041	0.457714	0.491360
O11	O	0.719066	-0.042294	0.098335
O12	O	1.219066	0.457706	0.598335
O13	O	0.921327	-0.042260	0.086646
O14	O	1.421327	0.457740	0.586646
Cu15	Cu	0.820194	-0.050025	0.092490
Cu16	Cu	1.320194	0.449975	0.592490
Cu17	Cu	0.820233	0.050330	0.092490
Cu18	Cu	1.320233	0.550330	0.592490
O19	O	0.814352	-0.042268	0.193621
O20	O	1.314352	0.457732	0.693621
C21	C	0.693207	0.000131	0.097959
C22	C	1.193207	0.500131	0.597959
C23	C	0.616103	0.000117	0.096830
C24	C	1.116103	0.500117	0.596830
C25	C	0.571407	0.000131	0.159598
C26	C	1.071407	0.500131	0.659598
C27	C	0.498960	0.000137	0.158537
C28	C	0.998960	0.500137	0.658537
C29	C	0.471212	0.000139	0.094705
C30	C	0.971212	0.500139	0.594705
C31	C	0.515918	0.000122	0.031929
C32	C	1.015918	0.500122	0.531929
C33	C	0.588364	0.000111	0.032991
C34	C	1.088364	0.500111	0.532991
C35	C	0.362962	0.029881	0.044526
C36	C	0.862962	0.529881	0.544526
C37	C	0.290517	0.029895	0.043466
C38	C	0.790517	0.529895	0.543466
C39	C	0.247767	0.000169	0.091425
C40	C	0.747767	0.500169	0.591425
C41	C	0.277468	-0.029563	0.140456
C42	C	0.777468	0.470437	0.640456
C43	C	0.349913	-0.029574	0.141519
C44	C	0.849913	0.470426	0.641519
C45	C	0.392658	0.000150	0.093546
C46	C	0.892658	0.500150	0.593546
C47	C	0.124514	0.000188	0.153047
C48	C	0.624514	0.500188	0.653047
C49	C	0.052066	0.000191	0.151984
C50	C	0.552066	0.500191	0.651984
C51	C	0.069026	0.000181	0.025374
C52	C	0.569026	0.500181	0.525374
C53	C	0.141473	0.000174	0.026439
C54	C	0.641473	0.500174	0.526439
C55	C	0.169212	0.000180	0.090278
C56	C	0.669212	0.500180	0.590278
N57	N	0.820171	-0.120609	0.092490
N58	N	1.320171	0.379391	0.592490
C59	C	0.862219	-0.473111	0.134503
C60	C	1.362219	0.026889	0.634503
C61	C	0.862240	-0.686770	0.134503
C62	C	1.362240	-0.186770	0.634503
O63	O	0.897975	-0.714382	0.170216
O64	O	1.397975	-0.214382	0.670216
N65	N	0.820250	-0.713503	0.092483
N66	N	1.320250	-0.213503	0.592483
C67	C	0.778255	-0.686818	0.050458
C68	C	1.278255	-0.186818	0.550458
O69	O	0.742546	-0.714458	0.014713
O70	O	1.242546	-0.214458	0.514713
C71	C	0.778239	-0.473160	0.050455
C72	C	1.278239	0.026840	0.550455
C73	C	0.820226	-0.446430	0.092482
C74	C	1.320226	0.053570	0.592482
C75	C	0.904203	-0.446381	0.176526
C76	C	1.404203	0.053619	0.676526
C77	C	0.904195	-0.392970	0.176529
C78	C	1.404195	0.107030	0.676529
C79	C	0.862202	-0.366289	0.134508
C80	C	1.362202	0.133711	0.634508
C81	C	0.820218	-0.393019	0.092485
C82	C	1.320218	0.106981	0.592485
C83	C	0.736249	-0.446476	0.008427
C84	C	1.236249	0.053524	0.508427
C85	C	0.736250	-0.393058	0.008428
C86	C	1.236250	0.106942	0.508428
C87	C	0.778237	-0.366328	0.050456
C88	C	1.278237	0.133672	0.550456
C89	C	0.778217	-0.312926	0.050467
C90	C	1.278217	0.187074	0.550467
N91	N	0.820206	-0.286193	0.092486
N92	N	1.320206	0.213807	0.592486
C93	C	0.862199	-0.312874	0.134507
C94	C	1.362199	0.187126	0.634507
C95	C	0.778266	-0.798991	0.050463
C96	C	1.278266	-0.298991	0.550463
C97	C	0.778269	-0.852405	0.050465
C98	C	1.278269	-0.352405	0.550465
C99	C	0.862254	-0.852354	0.134509
C100	C	1.362254	-0.352354	0.634509
C101	C	0.862247	-0.798939	0.134510
C102	C	1.362247	-0.298939	0.634510
C103	C	0.820256	-0.772258	0.092483
C104	C	1.320256	-0.272258	0.592483
C105	C	0.862178	-0.200706	0.134509
C106	C	1.362178	0.299294	0.634509
C107	C	0.862163	-0.147290	0.134510
C108	C	1.362163	0.352710	0.634510
C109	C	0.778181	-0.147346	0.050464
C110	C	1.278181	0.352654	0.550464
C111	C	0.778192	-0.200758	0.050466
C112	C	1.278192	0.299242	0.550466
C113	C	0.820196	-0.227437	0.092490
C114	C	1.320196	0.272563	0.592490
O115	O	0.742506	-0.285281	0.014766
O116	O	1.242506	0.214719	0.514766
O117	O	0.897914	-0.285225	0.170235
O118	O	1.397914	0.214775	0.670235
C119	C	0.862227	-0.526523	0.134501
C120	C	1.362227	-0.026523	0.634501
C121	C	0.820243	-0.553253	0.092477
C122	C	1.320243	-0.053253	0.592477
C123	C	0.778250	-0.526571	0.050457
C124	C	1.278250	-0.026571	0.550457
C125	C	0.820246	-0.606667	0.092479
C126	C	1.320246	-0.106667	0.592479
C127	C	0.862239	-0.633348	0.134499
C128	C	1.362239	-0.133348	0.634499
C129	C	0.904229	-0.606616	0.176519
C130	C	1.404229	-0.106616	0.676519
C131	C	0.904220	-0.553204	0.176521
C132	C	1.404220	-0.053204	0.676521
C133	C	0.736260	-0.553304	0.008438
C134	C	1.236260	-0.053304	0.508438
C135	C	0.736272	-0.606716	0.008439
C136	C	1.236272	-0.106716	0.508439
C137	C	0.778265	-0.633397	0.050460
C138	C	1.278265	-0.133397	0.550460
C139	C	0.947220	0.000175	0.087022
C140	C	1.447220	0.500175	0.587022
C141	C	1.024324	0.000192	0.088151
C142	C	1.524324	0.500192	0.588151
C143	C	0.825682	0.000142	-0.034516
C144	C	1.325682	0.500142	0.465484
C145	C	0.824553	0.000137	-0.111620
C146	C	1.324553	0.500137	0.388380
N147	N	0.820262	0.120914	0.092485
N148	N	1.320262	0.620914	0.592485
C149	C	0.887321	0.000145	-0.156316
C150	C	1.387321	0.500145	0.343684
C151	C	0.886260	0.000153	-0.228763
C152	C	1.386260	0.500153	0.271237
C153	C	0.822428	0.000142	-0.256511
C154	C	1.322428	0.500142	0.243489
C155	C	0.759652	0.000137	-0.211805
C156	C	1.259652	0.500137	0.288195
C157	C	0.760714	0.000135	-0.139359
C158	C	1.260714	0.500135	0.360641
C159	C	0.772236	-0.029590	-0.364798
C160	C	1.272236	0.470410	0.135202
C161	C	0.771177	-0.029590	-0.437243
C162	C	1.271177	0.470410	0.062757
C163	C	0.819148	0.000153	-0.479956
C164	C	1.319148	0.500153	0.020044
C165	C	0.868191	0.029891	-0.450218
C166	C	1.368191	0.529891	0.049782
C167	C	0.869254	0.029888	-0.377773
C168	C	1.369254	0.529888	0.122227
C169	C	0.821269	0.000146	-0.335065
C170	C	1.321269	0.500146	0.164935
C171	C	0.880770	0.000171	-0.603209
C172	C	1.380770	0.500171	-0.103209
C173	C	0.879707	0.000182	-0.675657
C174	C	1.379707	0.500182	-0.175657
C175	C	0.753097	0.000161	-0.658697
C176	C	1.253097	0.500161	-0.158697
C177	C	0.754162	0.000155	-0.586250
C178	C	1.254162	0.500155	-0.086250
C179	C	0.818001	0.000158	-0.558511
C180	C	1.318001	0.500158	-0.058511
C181	C	0.814745	0.000164	0.219497
C182	C	1.314745	0.500164	0.719497
C183	C	0.815874	0.000172	0.296601
C184	C	1.315874	0.500172	0.796601
H185	H	0.242661	-0.053769	0.179509
H186	H	0.742661	0.446231	0.679509
H187	H	0.939303	0.000149	-0.133736
H188	H	1.439303	0.500149	0.366264
O189	O	0.450735	0.000153	0.226237
O190	O	0.950735	0.500153	0.726237
H191	H	0.460602	0.034744	0.256789
H192	H	0.960602	0.534744	0.756789
H193	H	0.046435	0.000215	-0.026600
H194	H	0.546435	0.500215	0.473400
H195	H	0.744070	-0.874164	0.016250
H196	H	1.244070	-0.374164	0.516250
O197	O	0.258494	0.061962	-0.009420
O198	O	0.758494	0.561962	0.490580
H199	H	0.221759	0.089896	0.018192
H200	H	0.721759	0.589896	0.518192
H201	H	0.015674	0.000199	0.203099
H202	H	0.515674	0.500199	0.703099
H203	H	0.374093	-0.053785	0.181439
H204	H	0.874093	0.446215	0.681439
O205	O	0.690805	0.000125	-0.241732
O206	O	1.190805	0.500125	0.258268
H207	H	0.647335	0.000123	-0.198477
H208	H	1.147335	0.500123	0.301523
H209	H	0.896382	-0.222422	0.168729
H210	H	1.396382	0.277578	0.668729
O211	O	0.919947	0.061964	-0.496282
O212	O	1.419947	0.561964	0.003718
H213	H	0.954232	0.082634	-0.463434
H214	H	1.454232	0.582634	0.036566
O215	O	0.690967	-0.475284	-0.036923
O216	O	1.190967	0.024716	0.463077
H217	H	0.653513	-0.499632	-0.003553
H218	H	1.153513	0.000368	0.496447
O219	O	0.601329	0.000133	0.228448
O220	O	1.101329	0.500133	0.728448
H221	H	0.633899	-0.034457	0.231955
H222	H	1.133899	0.465543	0.731955
O223	O	0.154442	0.000184	0.221897
O224	O	0.654442	0.500184	0.721897
H225	H	0.111187	0.000185	0.265367
H226	H	0.611187	0.500185	0.765367
H227	H	0.397765	0.054090	0.005470
H228	H	0.897765	0.554090	0.505470
O229	O	0.720492	-0.061675	-0.318734
O230	O	1.220492	0.438325	0.181266
H231	H	0.749073	-0.089586	-0.289497
H232	H	1.249073	0.410414	0.210503
H233	H	0.938403	-0.468100	0.210745
H234	H	1.438403	0.031900	0.710745
H235	H	0.702055	-0.371337	-0.025797
H236	H	1.202055	0.128663	0.474203
O237	O	0.732965	-0.770216	0.005138
O238	O	1.232965	-0.270216	0.505138
H239	H	0.703765	-0.797784	-0.024069
H240	H	1.203765	-0.297784	0.475931
O241	O	0.189689	0.000163	-0.041261
O242	O	0.689689	0.500163	0.458739
H243	H	0.158225	0.000169	-0.085827
H244	H	0.658225	0.500169	0.414173
O245	O	0.485997	0.000125	-0.036921
O246	O	0.985997	0.500125	0.463079
H247	H	0.428112	0.000139	-0.027116
H248	H	0.928112	0.500139	0.472884
H249	H	0.624756	0.000101	-0.018124
H250	H	1.124756	0.500101	0.481876
O251	O	0.907452	-0.118459	0.179840
O252	O	1.407452	0.381541	0.679840
H253	H	0.936657	-0.145989	0.209053
H254	H	1.436657	0.354011	0.709053
H255	H	0.896444	-0.874087	0.168726
H256	H	1.396444	-0.374087	0.668726
O257	O	0.949484	-0.364142	0.221855
O258	O	1.449484	0.135858	0.721855
H259	H	0.978686	-0.391676	0.251066
H260	H	1.478686	0.108324	0.751066
O261	O	0.686457	0.000137	-0.538042
O262	O	1.186457	0.500137	-0.038042
H263	H	0.683920	0.034723	-0.504623
H264	H	1.183920	0.534723	-0.004623
O265	O	0.693012	0.000117	-0.091144
O266	O	1.193012	0.500117	0.408856
H267	H	0.648445	0.000107	-0.122606
H268	H	1.148445	0.500107	0.377394
H269	H	0.896436	-0.777179	0.168733
H270	H	1.396436	-0.277179	0.668733
H271	H	0.743994	-0.222522	0.016253
H272	H	1.243994	0.277478	0.516253
O273	O	0.732937	-0.118564	0.005095
O274	O	1.232937	0.381436	0.505095
H275	H	0.740013	-0.076932	0.012138
H276	H	1.240013	0.423068	0.512138
O277	O	0.953961	0.000155	-0.276986
O278	O	1.453961	0.500155	0.223014
H279	H	0.998530	0.000152	-0.245525
H280	H	1.498530	0.500152	0.254475
H281	H	0.938410	-0.531445	0.210744
H282	H	1.438410	-0.031445	0.710744
H283	H	0.938417	-0.628349	0.210737
H284	H	1.438417	-0.128349	0.710737
O285	O	0.684246	0.000147	-0.688612
O286	O	1.184246	0.500147	-0.188612
H287	H	0.694051	0.000147	-0.746497
H288	H	1.194051	0.500147	-0.246497
H289	H	0.702074	-0.628475	-0.025783
H290	H	1.202074	-0.128475	0.474217
H291	H	0.702065	-0.531586	-0.025783
H292	H	1.202065	-0.031586	0.474217
H293	H	0.909185	0.054102	-0.353563
H294	H	1.409185	0.554102	0.146437
H295	H	0.932751	0.000175	-0.580622
H296	H	1.432751	0.500175	-0.080622
H297	H	0.930822	0.000191	-0.712049
H298	H	1.430822	0.500191	-0.212049
H299	H	0.731240	-0.053801	-0.461449
H300	H	1.231240	0.446199	0.038551
