data_functionalizedCrystal
_audit_creation_method	'MofGen! by Chris Wilmer'
_symmetry_space_group_name_H-M	'P1'
_symmetry_Int_Tables_number	1
_symmetry_cell_setting	triclinic
loop_
_symmetry_equiv_pos_as_xyz
  x,y,z
_cell_length_a	6.817900
_cell_length_b	17.982959
_cell_length_c	10.773894
_cell_angle_alpha	96.506974
_cell_angle_beta	96.645922
_cell_angle_gamma	102.451857
loop_
_atom_site_label
_atom_site_type_symbol
_atom_site_fract_x
_atom_site_fract_y
_atom_site_fract_z
V1	V	-3.943879	-0.102609	-0.389451
O2	O	-3.938325	0.007812	-0.381502
O3	O	-3.890812	-0.206227	-0.387303
O4	O	-3.861680	-0.099767	-0.559069
O5	O	-3.967659	-0.099386	-0.208547
V6	V	-4.432491	-0.089551	-0.367751
O7	O	-4.193973	-0.131254	-0.437053
O8	O	-4.632593	-0.060907	-0.320150
O9	O	-4.262351	0.014067	-0.369899
O10	O	-4.555442	-0.199972	-0.375700
O11	O	-4.526107	-0.092774	-0.548656
O12	O	-4.291483	-0.092393	-0.198133
C13	C	-3.735771	-0.231527	-0.381292
C14	C	-3.773445	-0.316228	-0.380667
C15	C	-3.698609	-0.095725	-0.600395
C16	C	-3.712655	-0.094086	-0.739062
C17	C	-3.971817	-0.359856	-0.386614
C18	C	-4.007205	-0.439442	-0.386034
C19	C	-3.844216	-0.475398	-0.379497
C20	C	-3.645828	-0.431764	-0.373553
C21	C	-3.610444	-0.352180	-0.374142
C22	C	-3.788521	-0.752717	-0.371177
C23	C	-3.823921	-0.832306	-0.370584
C24	C	-4.185282	-0.839979	-0.383068
C25	C	-4.149898	-0.760395	-0.383657
C26	C	-3.951516	-0.716769	-0.377720
C27	C	-3.913147	-0.630473	-0.378352
C28	C	-3.882580	-0.561692	-0.378856
C29	C	-3.890602	-0.096926	-0.806939
C30	C	-3.905123	-0.095233	-0.950258
C31	C	-4.080734	0.039363	-0.375906
C32	C	-4.022297	0.124063	-0.376540
C33	C	-4.117897	-0.096438	-0.156800
C34	C	-4.083090	-0.098072	-0.018132
H35	H	-4.104545	-0.330586	-0.391925
C36	C	-4.225411	-0.487429	-0.392564
H37	H	-4.317409	-0.454616	-0.396523
H38	H	-4.257552	-0.525070	-0.465707
H39	H	-4.235900	-0.512198	-0.319468
C40	C	-3.570312	-0.704737	-0.364635
H41	H	-3.478315	-0.737550	-0.360644
H42	H	-3.559797	-0.679967	-0.437721
H43	H	-3.538185	-0.667097	-0.291483
H44	H	-4.346818	-0.875510	-0.387904
C45	C	-3.521362	-0.089111	-0.803884
H46	H	-3.556220	-0.088631	-0.891709
H47	H	-3.423685	-0.043268	-0.768354
H48	H	-3.466182	-0.132377	-0.791593
C49	C	-4.274404	-0.103048	-0.953325
H50	H	-4.387925	-0.104604	-1.014495
H51	H	-4.297905	-0.148352	-0.914367
H52	H	-4.255416	-0.059243	-0.891139
H53	H	-4.282623	-0.731124	-0.388974
C54	C	-3.644626	-0.871857	-0.363406
H55	H	-3.521409	-0.834479	-0.359967
H56	H	-3.640099	-0.896309	-0.289802
H57	H	-3.661751	-0.909179	-0.436041
H58	H	-3.448912	-0.316659	-0.369304
C59	C	-4.081896	-0.101905	-0.742118
H60	H	-4.047043	-0.102395	-0.654296
H61	H	-4.137097	-0.058647	-0.754412
H62	H	-4.179562	-0.147756	-0.777649
H63	H	-3.513123	-0.461046	-0.368238
C64	C	-3.713817	-0.090257	-1.015074
H65	H	-3.748675	-0.089777	-1.102900
H66	H	-3.616140	-0.044414	-0.979545
H67	H	-3.658637	-0.133523	-1.002784
