data_functionalizedCrystal
_audit_creation_method	'MofGen! by Chris Wilmer'
_symmetry_space_group_name_H-M	'P1'
_symmetry_Int_Tables_number	1
_symmetry_cell_setting	triclinic
loop_
_symmetry_equiv_pos_as_xyz
  x,y,z
_cell_length_a	16.959455
_cell_length_b	19.077068
_cell_length_c	19.076919
_cell_angle_alpha	94.470751
_cell_angle_beta	87.717788
_cell_angle_gamma	87.676048
loop_
_atom_site_label
_atom_site_type_symbol
_atom_site_fract_x
_atom_site_fract_y
_atom_site_fract_z
Zn1	Zn	1.176473	0.296738	0.409832
Zn2	Zn	1.176375	0.409891	0.296677
Zn3	Zn	1.049829	0.292016	0.291964
Zn4	Zn	1.038720	0.414582	0.414522
O5	O	1.110349	0.353307	0.353249
O6	O	1.287070	0.311761	0.394831
O7	O	1.164197	0.390316	0.197404
O8	O	1.071319	0.193994	0.303664
O9	O	1.286998	0.394894	0.311696
O10	O	1.164363	0.197463	0.390261
O11	O	1.071224	0.303714	0.193942
O12	O	0.937746	0.308262	0.308212
O13	O	1.052385	0.402888	0.512547
O14	O	0.929584	0.398310	0.398255
O15	O	1.153591	0.316309	0.509101
O16	O	1.153424	0.509163	0.316244
O17	O	1.052290	0.512608	0.402825
C18	C	1.101662	0.536465	0.360570
C19	C	1.098016	0.614821	0.363726
C20	C	0.904985	0.353283	0.353232
C21	C	0.817127	0.353290	0.353242
C22	C	1.101760	0.360649	0.537118
C23	C	1.098099	0.363777	0.615472
C24	C	0.449874	0.306386	0.306456
C25	C	0.441423	0.400288	0.400084
C26	C	0.523970	0.400277	0.400080
C27	C	0.569472	0.353321	0.353262
C28	C	0.532428	0.306375	0.306448
C29	C	0.561020	0.447227	0.446887
C30	C	0.643572	0.447219	0.446884
C31	C	0.689076	0.400259	0.400069
C32	C	0.652027	0.353311	0.353254
C33	C	0.697529	0.306355	0.306436
C34	C	0.660481	0.259402	0.259624
C35	C	0.577932	0.259415	0.259633
C36	C	0.771625	0.400247	0.400060
C37	C	0.780083	0.306344	0.306429
C38	C	1.316516	0.353331	0.353266
C39	C	1.404371	0.353342	0.353274
C40	C	1.119091	0.169434	0.345914
C41	C	1.122817	0.091079	0.342788
C42	C	1.148997	0.649818	0.320168
C43	C	1.145573	0.723442	0.323141
C44	C	1.091164	0.762069	0.369668
C45	C	1.040181	0.727068	0.413231
C46	C	1.043610	0.653445	0.410261
C47	C	1.075263	0.982454	0.383382
C48	C	1.071837	1.056083	0.386346
C49	C	1.177229	1.052452	0.296257
C50	C	1.180650	0.978827	0.293289
C51	C	1.129670	0.943832	0.336854
N52	N	1.087661	0.837326	0.372706
N53	N	1.133178	0.868578	0.333819
C54	C	1.118953	0.345943	0.170093
C55	C	1.122776	0.342615	0.091732
C56	C	1.149070	0.320172	0.650490
C57	C	1.145621	0.323109	0.724111
C58	C	1.091205	0.369655	0.762714
C59	C	1.040229	0.413262	0.727691
C60	C	1.043674	0.410321	0.654070
C61	C	1.075246	0.383281	0.983088
C62	C	1.071806	0.386221	1.056714
C63	C	1.177197	0.296066	1.053129
C64	C	1.180641	0.293132	0.979507
C65	C	1.129663	0.336737	0.944491
N66	N	1.087680	0.372660	0.837967
N67	N	1.133184	0.333728	0.869238
H68	H	0.817126	0.268102	0.268307
C69	C	0.709850	0.208509	0.208678
C70	C	0.692309	0.220978	0.139516
C71	C	0.737784	0.174118	0.092565
H72	H	0.698126	0.161544	0.217084
H73	H	0.764327	0.215239	0.215332
H74	H	0.637845	0.214242	0.132864
H75	H	0.704037	0.267933	0.131087
H76	H	0.792261	0.180848	0.099220
H77	H	0.726056	0.127156	0.100978
H78	H	0.725894	0.182576	0.045634
C79	C	1.232666	0.248807	1.091114
C80	C	1.310980	0.263461	1.073844
C81	C	1.362098	0.219941	1.108829
H82	H	1.224016	0.200935	1.077186
H83	H	1.222875	0.257228	1.140496
H84	H	1.320767	0.255034	1.024474
H85	H	1.319654	0.311324	1.087774
H86	H	1.352307	0.228363	1.158211
H87	H	1.353442	0.172072	1.094898
H88	H	1.415240	0.229882	1.097122
H89	H	0.801786	0.438476	0.438171
H90	H	0.547760	0.221190	0.221521
H91	H	1.224954	0.947378	0.255403
H92	H	1.027491	0.424126	1.088142
C93	C	0.683939	0.498156	0.497635
C94	C	0.765971	0.488107	0.487602
C95	C	0.803184	0.535021	0.534338
H96	H	0.668777	0.489849	0.544636
H97	H	0.668705	0.545109	0.489132
H98	H	0.781198	0.441165	0.496111
H99	H	0.781156	0.496421	0.440611
H100	H	0.787951	0.581974	0.525835
H101	H	0.788016	0.526709	0.581336
H102	H	0.858846	0.528213	0.527533
C103	C	1.012667	1.098052	0.436751
C104	C	0.961920	1.138758	0.398501
C105	C	0.907398	1.177421	0.444905
H106	H	1.040009	1.128027	0.468661
H107	H	0.982752	1.066686	0.462260
H108	H	0.991832	1.170121	0.373004
H109	H	0.934560	1.108801	0.366594
H110	H	0.877483	1.146055	0.470414
H111	H	0.934747	1.207392	0.476812
H112	H	0.872955	1.205040	0.418959
H113	H	0.995884	0.758524	0.451117
H114	H	1.218735	1.080952	0.260790
H115	H	1.187086	0.751933	0.287671
C116	C	1.019808	0.944594	0.430700
C117	C	0.971408	0.994182	0.472060
C118	C	0.920300	0.959328	0.515649
H119	H	1.049819	0.917064	0.460347
H120	H	0.987948	0.914850	0.402559
H121	H	1.003264	1.023914	0.500199
H122	H	0.941381	1.021714	0.442432
H123	H	0.888439	0.929584	0.487509
H124	H	0.950316	0.931799	0.545292
H125	H	0.887449	0.992967	0.543713
H126	H	1.002161	0.445822	0.625559
C127	C	1.208115	0.607798	0.269761
C128	C	1.258833	0.567060	0.308007
C129	C	1.313299	0.528338	0.261595
H130	H	1.238066	0.639107	0.244228
H131	H	1.180702	0.577845	0.237873
H132	H	1.286244	0.597011	0.339883
H133	H	1.228904	0.535738	0.333539
H134	H	1.285886	0.498385	0.229707
H135	H	1.343245	0.559652	0.236064
H136	H	1.347713	0.500688	0.287538
H137	H	1.002097	0.624952	0.445732
H138	H	1.193383	0.282271	0.619064
H139	H	1.187128	0.287603	0.752620
H140	H	0.419706	0.268156	0.268345
H141	H	0.404370	0.438521	0.438197
H142	H	1.224954	0.255231	0.948082
H143	H	0.523966	0.485461	0.484999
H144	H	1.033747	0.418798	0.954587
C145	C	0.981227	0.463776	0.769726
C146	C	0.989133	0.457034	0.841696
C147	C	0.934801	0.503565	0.880438
H148	H	0.929136	0.453018	0.757329
H149	H	0.991112	0.510678	0.759591
H150	H	0.979242	0.410143	0.851826
H151	H	1.041212	0.467799	0.854114
H152	H	0.944686	0.550467	0.870304
H153	H	0.882714	0.492802	0.868035
H154	H	0.940163	0.499001	0.929274
