data_functionalizedCrystal
_audit_creation_method	'MofGen! by Chris Wilmer'
_symmetry_space_group_name_H-M	'P1'
_symmetry_Int_Tables_number	1
_symmetry_cell_setting	triclinic
loop_
_symmetry_equiv_pos_as_xyz
  x,y,z
_cell_length_a	12.759395
_cell_length_b	16.959453
_cell_length_c	12.759387
_cell_angle_alpha	89.965592
_cell_angle_beta	89.980569
_cell_angle_gamma	90.019833
loop_
_atom_site_label
_atom_site_type_symbol
_atom_site_fract_x
_atom_site_fract_y
_atom_site_fract_z
Zn1	Zn	1.606230	-0.314643	-0.593949
Zn2	Zn	1.606104	-0.446843	-0.418258
Zn3	Zn	1.430528	-0.314682	-0.418289
Zn4	Zn	1.430504	-0.446783	-0.593900
O5	O	1.518342	-0.380738	-0.506099
O6	O	1.753234	-0.332189	-0.570650
O7	O	1.582771	-0.429353	-0.271241
O8	O	1.453898	-0.204066	-0.441623
O9	O	1.753142	-0.429315	-0.441571
O10	O	1.582985	-0.204037	-0.570680
O11	O	1.453776	-0.332255	-0.271263
O12	O	1.283504	-0.332197	-0.441577
O13	O	1.453857	-0.429213	-0.740928
O14	O	1.283486	-0.429251	-0.570598
O15	O	1.582962	-0.332130	-0.740963
O16	O	1.582748	-0.557446	-0.441524
O17	O	1.453736	-0.557402	-0.570568
C18	C	1.245374	-0.380722	-0.506086
C19	C	1.128598	-0.380735	-0.506105
C20	C	1.128674	-0.279760	-0.640733
C21	C	1.073852	-0.229282	-0.708055
C22	C	0.964130	-0.229296	-0.708068
C23	C	0.909229	-0.279792	-0.640749
C24	C	0.964051	-0.330269	-0.573427
C25	C	1.073775	-0.330252	-0.573424
C26	C	0.963974	-0.431239	-0.438796
C27	C	1.073696	-0.431230	-0.438787
C28	C	0.909073	-0.481735	-0.371478
C29	C	0.963895	-0.532218	-0.304159
C30	C	1.073623	-0.532202	-0.304150
C31	C	1.128518	-0.481708	-0.371465
C32	C	1.518254	-0.586104	-0.506060
C33	C	1.518313	-0.673961	-0.506079
C34	C	1.585644	-1.045363	-0.573425
C35	C	1.451333	-1.045510	-0.438928
C36	C	1.451294	-0.962964	-0.438904
C37	C	1.518430	-0.921614	-0.506143
C38	C	1.585605	-0.962809	-0.573406
C39	C	1.384114	-0.921762	-0.371650
C40	C	1.384071	-0.839211	-0.371624
C41	C	1.451213	-0.797860	-0.438858
C42	C	1.518391	-0.839060	-0.506123
C43	C	1.585526	-0.797710	-0.573362
C44	C	1.652711	-0.838909	-0.640622
C45	C	1.652746	-0.921458	-0.640640
C46	C	1.451177	-0.715311	-0.438840
C47	C	1.585487	-0.715156	-0.573342
C48	C	1.792375	-0.380754	-0.506112
C49	C	1.909152	-0.380761	-0.506118
C50	C	1.518421	-0.380661	-0.780132
C51	C	1.518455	-0.380628	-0.896909
C52	C	1.518458	-0.174570	-0.506160
C53	C	1.518508	-0.086713	-0.506187
C54	C	1.652901	-0.279542	-0.896966
C55	C	1.720139	-0.228987	-0.951855
C56	C	1.720164	-0.228958	-1.061577
C57	C	1.652943	-0.279488	-1.116412
C58	C	1.585705	-0.330043	-1.061523
C59	C	1.585689	-0.330068	-0.951798
C60	C	1.451255	-0.431123	-1.061466
C61	C	1.451233	-0.431157	-0.951744
C62	C	1.384034	-0.481653	-1.116301
C63	C	1.316800	-0.532213	-1.061412
C64	C	1.316778	-0.532240	-0.951684
C65	C	1.383996	-0.481712	-0.896855
C66	C	1.518323	-0.380758	-0.233131
C67	C	1.518493	-0.380568	-0.116355
H68	H	0.919185	-0.573324	-0.249350
N69	N	1.378929	-1.090104	-0.366407
H70	H	1.389148	-1.148650	-0.376625
H71	H	1.395326	-1.075710	-0.291386
N72	N	1.652878	-0.279549	-0.778624
H73	H	1.580811	-0.265008	-0.752199
H74	H	1.672189	-0.333786	-0.752235
N75	N	0.790887	-0.279796	-0.640765
H76	H	0.764445	-0.334038	-0.659946
H77	H	0.764516	-0.265167	-0.568715
N78	N	1.725115	-0.794299	-0.713138
H79	H	1.800200	-0.808625	-0.696890
H80	H	1.708680	-0.808645	-0.788167
N81	N	1.792683	-0.174438	-1.120791
H82	H	1.750018	-0.137795	-1.166324
H83	H	1.835251	-0.142483	-1.069348
N84	N	1.132751	-0.586641	-0.231529
H85	H	1.081318	-0.618627	-0.188889
H86	H	1.178285	-0.623259	-0.274195
N87	N	1.311619	-0.794778	-0.299079
H88	H	1.269097	-0.833500	-0.256487
H89	H	1.354402	-0.760539	-0.250487
N90	N	1.657899	-0.670567	-0.645873
H91	H	1.615160	-0.636315	-0.694518
H92	H	1.706580	-0.636359	-0.603141
H93	H	1.329453	-0.955436	-0.316911
N94	N	1.378717	-0.670874	-0.366313
H95	H	1.336189	-0.709595	-0.323726
H96	H	1.421489	-0.636631	-0.317716
H97	H	1.262068	-0.573345	-1.106067
H98	H	1.652961	-0.279453	-1.205753
H99	H	1.774867	-0.187846	-0.907196
H100	H	1.217859	-0.481687	-0.371458
N101	N	1.725202	-0.965892	-0.713180
H102	H	1.715034	-1.024460	-0.702992
H103	H	1.708803	-0.951426	-0.788197
H104	H	1.640346	-1.078911	-0.628184
H105	H	1.384055	-0.481623	-1.205642
N106	N	1.247016	-0.279750	-0.640740
H107	H	1.273457	-0.225505	-0.621568
H108	H	1.273335	-0.319425	-0.587889
H109	H	1.262013	-0.573399	-0.906999
N110	N	1.383950	-0.481720	-0.778513
H111	H	1.331148	-0.521406	-0.752058
H112	H	1.456035	-0.496237	-0.752148
N113	N	1.133065	-0.174837	-0.780681
H114	H	1.210892	-0.182492	-0.770471
H115	H	1.113900	-0.187235	-0.855677
H116	H	0.819731	-0.481740	-0.371490
N117	N	0.904993	-0.174848	-0.780667
H118	H	0.956417	-0.142854	-0.823308
H119	H	0.859481	-0.207075	-0.829211
