data_functionalizedCrystal
_audit_creation_method	'MofGen! by Chris Wilmer'
_symmetry_space_group_name_H-M	'P1'
_symmetry_Int_Tables_number	1
_symmetry_cell_setting	triclinic
loop_
_symmetry_equiv_pos_as_xyz
  x,y,z
_cell_length_a	18.215407
_cell_length_b	19.805405
_cell_length_c	18.215399
_cell_angle_alpha	90.028795
_cell_angle_beta	89.980167
_cell_angle_gamma	89.971825
loop_
_atom_site_label
_atom_site_type_symbol
_atom_site_fract_x
_atom_site_fract_y
_atom_site_fract_z
Zn1	Zn	1.125057	0.269462	-0.416112
Zn2	Zn	1.375057	0.519462	-0.166112
Zn3	Zn	1.625057	0.769462	0.083888
Zn4	Zn	1.875057	1.019462	0.333888
Zn5	Zn	1.124960	0.382653	-0.293043
Zn6	Zn	1.374960	0.632653	-0.043043
Zn7	Zn	1.624960	0.882653	0.206957
Zn8	Zn	1.874960	1.132653	0.456957
Zn9	Zn	1.001990	0.269484	-0.293059
Zn10	Zn	1.251990	0.519484	-0.043059
Zn11	Zn	1.501990	0.769484	0.206941
Zn12	Zn	1.751990	1.019484	0.456941
Zn13	Zn	1.001950	0.382615	-0.416068
Zn14	Zn	1.251950	0.632615	-0.166068
Zn15	Zn	1.501950	0.882615	0.083932
Zn16	Zn	1.751950	1.132615	0.333932
O17	O	1.063489	0.326054	-0.354571
O18	O	1.313489	0.576054	-0.104571
O19	O	1.563489	0.826054	0.145429
O20	O	1.813489	1.076054	0.395429
O21	O	1.228029	0.284484	-0.399798
O22	O	1.478029	0.534484	-0.149798
O23	O	1.728029	0.784484	0.100202
O24	O	1.978029	1.034484	0.350202
O25	O	1.108623	0.367666	-0.190061
O26	O	1.358623	0.617666	0.059939
O27	O	1.608623	0.867666	0.309939
O28	O	1.858623	1.117666	0.559939
O29	O	1.018373	0.174765	-0.309407
O30	O	1.268373	0.424765	-0.059407
O31	O	1.518373	0.674765	0.190593
O32	O	1.768373	0.924765	0.440593
O33	O	1.227957	0.367644	-0.309380
O34	O	1.477957	0.617644	-0.059380
O35	O	1.727957	0.867644	0.190620
O36	O	1.977957	1.117644	0.440620
O37	O	1.108790	0.174748	-0.399813
O38	O	1.358790	0.424748	-0.149813
O39	O	1.608790	0.674748	0.100187
O40	O	1.858790	0.924748	0.350187
O41	O	1.018278	0.284521	-0.190073
O42	O	1.268278	0.534521	0.059927
O43	O	1.518278	0.784521	0.309927
O44	O	1.768278	1.034521	0.559927
O45	O	0.899000	0.284485	-0.309365
O46	O	1.149000	0.534485	-0.059365
O47	O	1.399000	0.784485	0.190635
O48	O	1.649000	1.034485	0.440635
O49	O	1.018304	0.367580	-0.519058
O50	O	1.268304	0.617580	-0.269058
O51	O	1.518304	0.867580	-0.019058
O52	O	1.768304	1.117580	0.230942
O53	O	0.898971	0.367602	-0.399739
O54	O	1.148971	0.617602	-0.149739
O55	O	1.398971	0.867602	0.100261
O56	O	1.648971	1.117602	0.350261
O57	O	1.108751	0.284447	-0.519090
O58	O	1.358751	0.534447	-0.269090
O59	O	1.608751	0.784447	-0.019090
O60	O	1.858751	1.034447	0.230910
O61	O	1.108584	0.477365	-0.309338
O62	O	1.358584	0.727365	-0.059338
O63	O	1.608584	0.977365	0.190662
O64	O	1.858584	1.227365	0.440662
O65	O	1.018210	0.477337	-0.399724
O66	O	1.268210	0.727337	-0.149724
O67	O	1.518210	0.977337	0.100276
O68	O	1.768210	1.227337	0.350276
C69	C	0.872283	0.326042	-0.354549
C70	C	1.122283	0.576042	-0.104549
C71	C	1.372283	0.826042	0.145451
C72	C	1.622283	1.076042	0.395451
C73	C	0.790484	0.326053	-0.354558
C74	C	1.040484	0.576053	-0.104558
C75	C	1.290484	0.826053	0.145442
C76	C	1.540484	1.076053	0.395442
C77	C	0.602294	0.369400	-0.401557
C78	C	0.852294	0.619400	-0.151557
C79	C	1.102294	0.869400	0.098443
C80	C	1.352294	1.119400	0.348443
C81	C	0.525435	0.369403	-0.401566
C82	C	0.775435	0.619403	-0.151566
C83	C	1.025435	0.869403	0.098434
C84	C	1.275435	1.119403	0.348434
C85	C	0.525436	0.282719	-0.307600
C86	C	0.775436	0.532719	-0.057600
C87	C	1.025436	0.782719	0.192400
C88	C	1.275436	1.032719	0.442400
C89	C	0.602294	0.282714	-0.307595
C90	C	0.852294	0.532714	-0.057595
C91	C	1.102294	0.782714	0.192405
C92	C	1.352294	1.032714	0.442405
C93	C	0.640721	0.326059	-0.354573
C94	C	0.890721	0.576059	-0.104573
C95	C	1.140721	0.826059	0.145427
C96	C	1.390721	1.076059	0.395427
C97	C	0.487004	0.326066	-0.354587
C98	C	0.737004	0.576066	-0.104587
C99	C	0.987004	0.826066	0.145413
C100	C	1.237004	1.076066	0.395413
C101	C	0.403671	0.326068	-0.354596
C102	C	0.653671	0.576068	-0.104596
C103	C	0.903671	0.826068	0.145404
C104	C	1.153671	1.076068	0.395404
C105	C	0.724060	0.326056	-0.354564
C106	C	0.974060	0.576056	-0.104564
C107	C	1.224060	0.826056	0.145436
C108	C	1.474060	1.076056	0.395436
C109	C	1.063402	0.501910	-0.354541
C110	C	1.313402	0.751910	-0.104541
C111	C	1.563402	1.001910	0.145459
C112	C	1.813402	1.251910	0.395459
C113	C	1.063432	0.577142	-0.354553
C114	C	1.313432	0.827142	-0.104553
C115	C	1.563432	1.077142	0.145447
C116	C	1.813432	1.327142	0.395447
C117	C	1.110535	0.612478	-0.307540
C118	C	1.360535	0.862478	-0.057540
C119	C	1.610535	1.112478	0.192460
C120	C	1.860535	1.362478	0.442460
C121	C	1.110565	0.683166	-0.307558
C122	C	1.360565	0.933166	-0.057558
C123	C	1.610565	1.183166	0.192442
C124	C	1.860565	1.433166	0.442442
C125	C	1.063487	0.718517	-0.354587
C126	C	1.313487	0.968517	-0.104587
C127	C	1.563487	1.218517	0.145413
C128	C	1.813487	1.468517	0.395413
C129	C	1.016382	0.683176	-0.401606
C130	C	1.266382	0.933176	-0.151606
C131	C	1.516382	1.183176	0.098394
C132	C	1.766382	1.433176	0.348394
C133	C	1.016356	0.612489	-0.401590
C134	C	1.266356	0.862489	-0.151590
C135	C	1.516356	1.112489	0.098410
C136	C	1.766356	1.362489	0.348410
C137	C	1.016483	0.968249	-0.401670
C138	C	1.266483	1.218249	-0.151670
C139	C	1.516483	1.468249	0.098330
C140	C	1.766483	1.718249	0.348330
C141	C	1.016510	1.038941	-0.401681
C142	C	1.266510	1.288941	-0.151681
C143	C	1.516510	1.538941	0.098319
C144	C	1.766510	1.788941	0.348319
C145	C	1.110691	1.038927	-0.307638
C146	C	1.360691	1.288927	-0.057638
C147	C	1.610691	1.538927	0.192362
C148	C	1.860691	1.788927	0.442362
C149	C	1.110666	0.968239	-0.307623
C150	C	1.360666	1.218239	-0.057623
C151	C	1.610666	1.468239	0.192377
C152	C	1.860666	1.718239	0.442377
C153	C	1.063564	0.932905	-0.354644
C154	C	1.313564	1.182905	-0.104644
C155	C	1.563564	1.432905	0.145356
C156	C	1.813564	1.682905	0.395356
C157	C	1.063534	0.856256	-0.354624
C158	C	1.313534	1.106256	-0.104624
C159	C	1.563534	1.356256	0.145376
C160	C	1.813534	1.606256	0.395376
C161	C	1.063513	0.795164	-0.354604
C162	C	1.313513	1.045164	-0.104604
C163	C	1.563513	1.295164	0.145396
C164	C	1.813513	1.545164	0.395396
C165	C	1.255442	0.326066	-0.354592
C166	C	1.505442	0.576066	-0.104592
C167	C	1.755442	0.826066	0.145408
C168	C	2.005442	1.076066	0.395408
C169	C	1.337241	0.326071	-0.354601
C170	C	1.587241	0.576071	-0.104601
C171	C	1.837241	0.826071	0.145399
C172	C	2.087241	1.076071	0.395399
C173	C	1.063534	0.326007	-0.546524
C174	C	1.313534	0.576007	-0.296524
C175	C	1.563534	0.826007	-0.046524
C176	C	1.813534	1.076007	0.203476
C177	C	1.063553	0.325987	-0.628322
C178	C	1.313553	0.575987	-0.378322
C179	C	1.563553	0.825987	-0.128322
C180	C	1.813553	1.075987	0.121678
C181	C	1.063591	1.149511	-0.354625
C182	C	1.313591	1.399511	-0.104625
C183	C	1.563591	1.649511	0.145375
C184	C	1.813591	1.899511	0.395375
C185	C	1.063618	1.074279	-0.354670
C186	C	1.313618	1.324279	-0.104670
C187	C	1.563618	1.574279	0.145330
C188	C	1.813618	1.824279	0.395330
C189	C	1.110666	0.282659	-0.816534
C190	C	1.360666	0.532659	-0.566534
C191	C	1.610666	0.782659	-0.316534
C192	C	1.860666	1.032659	-0.066534
C193	C	1.110674	0.282639	-0.893393
C194	C	1.360674	0.532639	-0.643393
C195	C	1.610674	0.782639	-0.393393
C196	C	1.860674	1.032639	-0.143393
C197	C	1.016493	0.369210	-0.893349
C198	C	1.266493	0.619210	-0.643349
C199	C	1.516493	0.869210	-0.393349
C200	C	1.766493	1.119210	-0.143349
C201	C	1.016481	0.369226	-0.816491
C202	C	1.266481	0.619226	-0.566491
C203	C	1.516481	0.869226	-0.316491
C204	C	1.766481	1.119226	-0.066491
C205	C	1.063571	0.325952	-0.778086
C206	C	1.313571	0.575952	-0.528086
C207	C	1.563571	0.825952	-0.278086
C208	C	1.813571	1.075952	-0.028086
C209	C	1.063592	0.325916	-0.931802
C210	C	1.313592	0.575916	-0.681802
C211	C	1.563592	0.825916	-0.431802
C212	C	1.813592	1.075916	-0.181802
C213	C	1.063601	0.325895	-1.015136
C214	C	1.313601	0.575895	-0.765136
C215	C	1.563601	0.825895	-0.515136
C216	C	1.813601	1.075895	-0.265136
C217	C	1.063561	0.325972	-0.694747
C218	C	1.313561	0.575972	-0.444747
C219	C	1.563561	0.825972	-0.194747
C220	C	1.813561	1.075972	0.055253
C221	C	1.063487	0.326051	-0.163364
C222	C	1.313487	0.576051	0.086636
C223	C	1.563487	0.826051	0.336636
C224	C	1.813487	1.076051	0.586636
C225	C	1.063610	0.325880	-0.081566
C226	C	1.313610	0.575880	0.168434
C227	C	1.563610	0.825880	0.418434
C228	C	1.813610	1.075880	0.668434
H229	H	0.494140	0.247431	-0.269352
H230	H	0.744140	0.497431	-0.019352
H231	H	0.994140	0.747431	0.230648
H232	H	1.244140	0.997431	0.480648
F233	F	0.966282	0.720801	-0.451662
F234	F	1.216282	0.970801	-0.201662
F235	F	1.466282	1.220801	0.048338
F236	F	1.716282	1.470801	0.298338
F237	F	0.966350	0.415303	-0.775570
F238	F	1.216350	0.665303	-0.525570
F239	F	1.466350	0.915303	-0.275570
F240	F	1.716350	1.165303	-0.025570
H241	H	0.633582	0.247416	-0.269335
H242	H	0.883582	0.497416	-0.019335
H243	H	1.133582	0.747416	0.230665
H244	H	1.383582	0.997416	0.480665
H245	H	1.149008	0.247420	-0.785267
H246	H	1.399008	0.497420	-0.535267
H247	H	1.649008	0.747420	-0.285267
H248	H	1.899008	0.997420	-0.035267
H249	H	0.978155	0.404444	-0.924628
H250	H	1.228155	0.654444	-0.674628
H251	H	1.478155	0.904444	-0.424628
H252	H	1.728155	1.154444	-0.174628
F253	F	0.966402	1.076563	-0.451739
F254	F	1.216402	1.326563	-0.201739
F255	F	1.466402	1.576563	0.048261
F256	F	1.716402	1.826563	0.298261
H257	H	0.633579	0.404693	-0.439810
H258	H	0.883579	0.654693	-0.189810
H259	H	1.133579	0.904693	0.060190
H260	H	1.383579	1.154693	0.310190
F261	F	1.160638	0.574861	-0.257479
F262	F	1.410638	0.824861	-0.007479
F263	F	1.660638	1.074861	0.242521
F264	F	1.910638	1.324861	0.492521
F265	F	1.160804	0.236566	-0.934309
F266	F	1.410804	0.486566	-0.684309
F267	F	1.660804	0.736566	-0.434309
F268	F	1.910804	0.986566	-0.184309
F269	F	0.484542	0.415532	-0.451575
F270	F	0.734542	0.665532	-0.201575
F271	F	0.984542	0.915532	0.048425
F272	F	1.234542	1.165532	0.298425
H273	H	1.148920	0.711934	-0.269275
H274	H	1.398920	0.961934	-0.019275
H275	H	1.648920	1.211934	0.230725
H276	H	1.898920	1.461934	0.480725
H277	H	1.148998	0.939459	-0.269325
H278	H	1.398998	1.189459	-0.019325
H279	H	1.648998	1.439459	0.230675
H280	H	1.898998	1.689459	0.480675
F281	F	1.160825	1.076538	-0.257597
F282	F	1.410825	1.326538	-0.007597
F283	F	1.660825	1.576538	0.242403
F284	F	1.910825	1.826538	0.492403
H285	H	0.978130	0.939485	-0.439955
H286	H	1.228130	1.189485	-0.189955
H287	H	1.478130	1.439485	0.060045
H288	H	1.728130	1.689485	0.310045
H289	H	0.978001	0.583719	-0.439874
H290	H	1.228001	0.833719	-0.189874
H291	H	1.478001	1.083719	0.060126
H292	H	1.728001	1.333719	0.310126
