data_functionalizedCrystal
_audit_creation_method	'MofGen! by Chris Wilmer'
_symmetry_space_group_name_H-M	'P1'
_symmetry_Int_Tables_number	1
_symmetry_cell_setting	triclinic
loop_
_symmetry_equiv_pos_as_xyz
  x,y,z
_cell_length_a	16.109301
_cell_length_b	8.559649
_cell_length_c	14.586319
_cell_angle_alpha	89.997976
_cell_angle_beta	89.999213
_cell_angle_gamma	76.620073
loop_
_atom_site_label
_atom_site_type_symbol
_atom_site_fract_x
_atom_site_fract_y
_atom_site_fract_z
O1	O	1.090046	0.205389	-0.076179
O2	O	0.846355	0.230950	-0.076193
O3	O	0.989670	-0.014444	-0.076183
O4	O	0.946731	0.450783	-0.076188
O5	O	0.989661	-0.014447	0.076297
O6	O	0.846347	0.230946	0.076288
O7	O	1.090037	0.205386	0.076302
Cu8	Cu	0.968191	0.218165	0.090218
Cu9	Cu	0.968201	0.218170	-0.090108
O10	O	0.946722	0.450779	0.076293
C11	C	0.815442	0.229912	0.000046
C12	C	0.723344	0.226808	0.000040
C13	C	0.492255	0.365202	0.000050
C14	C	0.405721	0.362273	0.000056
C15	C	0.444145	0.071122	0.000054
C16	C	0.530677	0.074053	0.000055
C17	C	0.554729	0.221098	0.000048
C18	C	0.381663	0.215238	0.000053
C19	C	0.287840	0.212061	0.000060
C20	C	0.648558	0.224275	0.000043
C21	C	0.992919	-0.073977	0.000055
C22	C	1.002605	-0.251362	0.000051
C23	C	1.120950	0.206423	0.000062
C24	C	1.213048	0.209527	0.000061
C25	C	0.943473	0.510312	0.000052
C26	C	0.933787	0.687697	0.000051
N27	N	0.968190	0.218161	0.217050
N28	N	0.968210	0.218161	-0.216940
C29	C	1.031666	0.109538	0.452060
C30	C	1.031669	0.109534	0.548041
C31	C	0.904727	0.326790	0.548043
C32	C	0.904722	0.326785	0.452063
C33	C	0.968196	0.218161	0.404074
C34	C	0.968204	0.218162	0.596035
C35	C	0.968206	0.218158	0.700102
C36	C	0.968193	0.218162	0.300001
H37	H	0.424550	-0.048597	0.000066
C38	C	1.063608	-0.107932	0.655974
C39	C	1.101438	-0.009868	0.600786
H40	H	1.106684	-0.181655	0.688530
H41	H	1.025819	-0.043243	0.698289
H42	H	1.032675	-0.165424	0.618524
H43	H	1.132366	0.047634	0.638237
H44	H	1.139242	-0.074565	0.558466
H45	H	1.068938	-0.334903	0.000062
C46	C	0.559973	-0.214044	0.000044
C47	C	0.599356	-0.084360	0.000049
H48	H	0.602374	-0.311834	0.000037
H49	H	0.525426	-0.209142	0.053213
H50	H	0.525421	-0.209119	-0.053134
H51	H	0.633904	-0.089279	0.053231
H52	H	0.633919	-0.089264	-0.053126
H53	H	0.853049	0.415232	0.587125
C54	C	0.779246	0.541555	0.461697
C55	C	0.834952	0.446197	0.399310
H56	H	0.736178	0.615274	0.429127
H57	H	0.753592	0.475030	0.499137
H58	H	0.810190	0.599054	0.499129
H59	H	0.804008	0.388690	0.361883
H60	H	0.860608	0.512731	0.361855
C61	C	0.834377	-0.102572	-0.078353
C62	C	0.844240	-0.199551	0.000038
H63	H	0.779092	-0.032965	-0.078362
H64	H	0.876248	-0.040580	-0.078345
H65	H	0.841091	-0.168405	-0.131517
H66	H	0.837533	-0.133718	0.053201
H67	H	0.802358	-0.261548	0.000038
H68	H	0.354857	0.479618	0.000059
C69	C	0.567268	0.537424	-0.078340
C70	C	0.518692	0.526833	0.000047
H71	H	0.583580	0.637216	-0.078341
H72	H	0.616858	0.452035	-0.078335
H73	H	0.534300	0.530228	-0.131506
H74	H	0.551662	0.534017	0.053213
H75	H	0.469094	0.612245	0.000050
C76	C	1.157135	-0.105223	0.461703
C77	C	1.101428	-0.009875	0.399310
H78	H	1.200199	-0.178953	0.429137
H79	H	1.182794	-0.038693	0.499130
H80	H	1.126190	-0.162708	0.499146
H81	H	1.132372	0.047619	0.361871
H82	H	1.075768	-0.076414	0.361867
