data_functionalizedCrystal
_audit_creation_method	'MofGen! by Chris Wilmer'
_symmetry_space_group_name_H-M	'P1'
_symmetry_Int_Tables_number	1
_symmetry_cell_setting	triclinic
loop_
_symmetry_equiv_pos_as_xyz
  x,y,z
_cell_length_a	17.038272
_cell_length_b	17.038272
_cell_length_c	15.500227
_cell_angle_alpha	86.966746
_cell_angle_beta	86.956295
_cell_angle_gamma	88.888444
loop_
_atom_site_label
_atom_site_type_symbol
_atom_site_fract_x
_atom_site_fract_y
_atom_site_fract_z
O1	O	1.052160	-0.167139	-0.071836
O2	O	1.552160	0.332861	0.428164
O3	O	0.824350	-0.164430	-0.071862
O4	O	1.324350	0.335570	0.428138
O5	O	0.936901	-0.051879	-0.071842
O6	O	1.436901	0.448121	0.428158
O7	O	0.939609	-0.279690	-0.071856
O8	O	1.439609	0.220310	0.428144
O9	O	0.930069	-0.058680	0.072045
O10	O	1.430069	0.441320	0.572045
O11	O	0.817518	-0.171231	0.072026
O12	O	1.317518	0.328769	0.572026
O13	O	1.045328	-0.173940	0.072051
O14	O	1.545328	0.326060	0.572051
Cu15	Cu	0.930799	-0.173207	0.085177
Cu16	Cu	1.430799	0.326793	0.585177
Cu17	Cu	0.938879	-0.165164	-0.084987
Cu18	Cu	1.438879	0.334836	0.415013
O19	O	0.932777	-0.286491	0.072032
O20	O	1.432777	0.213509	0.572032
C21	C	0.791641	-0.165368	0.000079
C22	C	1.291641	0.334632	0.500079
C23	C	0.704358	-0.158019	0.000069
C24	C	1.204358	0.341981	0.500069
C25	C	0.931022	-0.025987	0.000101
C26	C	1.431022	0.474013	0.500101
C27	C	0.923674	0.061297	0.000100
C28	C	1.423674	0.561297	0.500100
C29	C	0.658749	-0.225482	0.000066
C30	C	1.158749	0.274518	0.500066
C31	C	0.576737	-0.218574	0.000078
C32	C	1.076737	0.281426	0.500078
C33	C	0.540335	-0.144201	0.000088
C34	C	1.040335	0.355799	0.500088
C35	C	0.585950	-0.076733	0.000094
C36	C	1.085950	0.423267	0.500094
C37	C	0.667961	-0.083642	0.000088
C38	C	1.167961	0.416358	0.500088
C39	C	0.292946	-0.119792	0.000112
C40	C	0.792946	0.380208	0.500112
C41	C	0.210929	-0.112887	0.000116
C42	C	0.710929	0.387113	0.500116
C43	C	0.201721	-0.254729	0.000102
C44	C	0.701721	0.245271	0.500102
C45	C	0.283734	-0.261632	0.000091
C46	C	0.783734	0.238368	0.500091
C47	C	0.329342	-0.194164	0.000101
C48	C	0.829342	0.305836	0.500101
C49	C	0.456505	-0.137138	0.000098
C50	C	0.956505	0.362862	0.500098
C51	C	0.413170	-0.201228	0.000098
C52	C	0.913170	0.298772	0.500098
C53	C	1.078037	-0.173003	0.000109
C54	C	1.578037	0.326997	0.500109
C55	C	1.165320	-0.180351	0.000113
C56	C	1.665320	0.319649	0.500113
C57	C	0.938656	-0.312383	0.000087
C58	C	1.438656	0.187617	0.500087
C59	C	0.946004	-0.399667	0.000082
C60	C	1.446004	0.100333	0.500082
N61	N	0.925122	-0.178864	0.204861
N62	N	1.425122	0.321136	0.704861
C63	C	0.991137	0.106906	0.000108
C64	C	1.491137	0.606906	0.500108
C65	C	0.984229	0.188918	0.000100
C66	C	1.484229	0.688918	0.500100
C67	C	0.909856	0.225320	0.000088
C68	C	1.409856	0.725320	0.500088
C69	C	0.842388	0.179705	0.000077
C70	C	1.342388	0.679705	0.500077
C71	C	0.849297	0.097694	0.000080
C72	C	1.349297	0.597694	0.500080
C73	C	0.885446	0.472708	0.000074
C74	C	1.385446	0.972708	0.500074
C75	C	0.878541	0.554725	0.000074
C76	C	1.378541	1.054725	0.500074
C77	C	1.020383	0.563932	0.000094
C78	C	1.520383	1.063932	0.500094
C79	C	1.027286	0.481919	0.000102
C80	C	1.527286	0.981919	0.500102
C81	C	0.959818	0.436312	0.000087
C82	C	1.459818	0.936312	0.500087
C83	C	0.902792	0.309149	0.000082
C84	C	1.402792	0.809149	0.500082
C85	C	0.966882	0.352484	0.000087
C86	C	1.466882	0.852484	0.500087
N87	N	0.944561	-0.159501	-0.204671
N88	N	1.444561	0.340499	0.295329
C89	C	0.972833	-0.131192	0.250145
C90	C	1.472833	0.368808	0.750145
C91	C	0.968547	-0.135478	0.340718
C92	C	1.468547	0.364522	0.840718
C93	C	0.916555	-0.187440	0.386003
C94	C	1.416555	0.312560	0.886003
C95	C	0.868839	-0.235114	0.340712
C96	C	1.368839	0.264886	0.840712
C97	C	0.873121	-0.230823	0.250142
C98	C	1.373121	0.269177	0.750142
C99	C	0.901128	-0.202884	0.659467
C100	C	1.401128	0.297116	1.159467
C101	C	0.896851	-0.207172	0.750044
C102	C	1.396851	0.292828	1.250044
C103	C	0.996559	-0.107535	0.750044
C104	C	1.496559	0.392465	1.250044
C105	C	1.000840	-0.103252	0.659471
C106	C	1.500840	0.396748	1.159471
C107	C	0.953121	-0.150923	0.614188
C108	C	1.453121	0.349077	1.114188
C109	C	0.912174	-0.191824	0.478582
C110	C	1.412174	0.308176	0.978582
C111	C	0.957498	-0.146534	0.521610
C112	C	1.457498	0.353466	1.021610
H113	H	0.688381	-0.286045	0.000058
H114	H	1.188381	0.213955	0.500058
H115	H	0.539605	-0.273510	0.000075
H116	H	1.039605	0.226490	0.500075
H117	H	1.039164	0.226049	0.000108
H118	H	1.539164	0.726049	0.500108
Cl119	Cl	1.056542	-0.047607	0.806975
Cl120	Cl	1.556542	0.452393	1.306975
H121	H	1.043177	-0.060940	0.622602
H122	H	1.543177	0.439060	1.122602
H123	H	1.087848	0.452287	0.000111
H124	H	1.587848	0.952287	0.500111
Cl125	Cl	1.105194	0.621271	0.000111
Cl126	Cl	1.605194	1.121271	0.500111
H127	H	0.842237	0.338796	0.000075
H128	H	1.342237	0.838796	0.500075
H129	H	0.442811	-0.261782	0.000095
H130	H	0.942811	0.238218	0.500095
Cl131	Cl	0.350271	-0.034973	0.000125
Cl132	Cl	0.850271	0.465027	0.500125
H133	H	0.862274	-0.241701	0.622605
H134	H	1.362274	0.258299	1.122605
Cl135	Cl	0.329490	-0.355133	0.000073
Cl136	Cl	0.829490	0.144867	0.500073
H137	H	0.830508	0.435584	0.000061
H138	H	1.330508	0.935584	0.500061
H139	H	0.164579	-0.309658	0.000096
H140	H	0.664579	0.190342	0.500096
Cl141	Cl	0.165168	-0.019384	0.000147
Cl142	Cl	0.665168	0.480616	0.500147
H143	H	1.051699	0.077273	0.000123
H144	H	1.551699	0.577273	0.500123
Cl145	Cl	0.785037	0.600485	0.000065
Cl146	Cl	1.285037	1.100485	0.500065
H147	H	0.781832	0.209350	0.000063
H148	H	1.281832	0.709350	0.500063
Cl149	Cl	0.540188	0.016765	0.000111
Cl150	Cl	1.040188	0.516765	0.500111
H151	H	0.854510	-0.249490	0.786912
H152	H	1.354510	0.250510	1.286912
H153	H	0.705095	-0.028706	0.000090
H154	H	1.205095	0.471294	0.500090
Cl155	Cl	0.410736	-0.043643	0.000106
Cl156	Cl	0.910736	0.456357	0.500106
Cl157	Cl	0.803471	-0.300435	0.397640
Cl158	Cl	1.303471	0.199565	0.897640
Cl159	Cl	0.764483	0.040357	0.000066
Cl160	Cl	1.264483	0.540357	0.500066
Cl161	Cl	1.060376	0.306721	0.000096
Cl162	Cl	1.560376	0.806721	0.500096
H163	H	1.015175	-0.088882	0.213280
H164	H	1.515175	0.411118	0.713280
H165	H	0.869842	-0.234135	0.515461
H166	H	1.369842	0.265865	1.015461
H167	H	0.834269	-0.269642	0.213271
H168	H	1.334269	0.230358	0.713271
H169	H	0.999827	-0.104223	0.484736
H170	H	1.499827	0.395777	0.984736
H171	H	1.007397	-0.096659	0.377588
H172	H	1.507397	0.403341	0.877588
