data_functionalizedCrystal
_audit_creation_method	'MofGen! by Chris Wilmer'
_symmetry_space_group_name_H-M	'P1'
_symmetry_Int_Tables_number	1
_symmetry_cell_setting	triclinic
loop_
_symmetry_equiv_pos_as_xyz
  x,y,z
_cell_length_a	27.732048
_cell_length_b	27.732048
_cell_length_c	12.503572
_cell_angle_alpha	93.489054
_cell_angle_beta	93.483411
_cell_angle_gamma	97.357345
loop_
_atom_site_label
_atom_site_type_symbol
_atom_site_fract_x
_atom_site_fract_y
_atom_site_fract_z
O1	O	0.643731	-0.054704	0.089192
O2	O	0.893731	0.195296	0.339192
O3	O	1.143731	0.445296	0.589192
O4	O	1.393731	0.695296	0.839192
O5	O	0.502939	-0.063448	0.089227
O6	O	0.752939	0.186552	0.339227
O7	O	1.002939	0.436552	0.589227
O8	O	1.252939	0.686552	0.839227
O9	O	0.577707	0.011320	0.089188
O10	O	0.827707	0.261320	0.339188
O11	O	1.077707	0.511320	0.589188
O12	O	1.327707	0.761320	0.839188
O13	O	0.568963	-0.129472	0.089231
O14	O	0.818963	0.120528	0.339231
O15	O	1.068963	0.370528	0.589231
O16	O	1.318963	0.620528	0.839231
O17	O	0.572084	0.005688	-0.089451
O18	O	0.822084	0.255688	0.160549
O19	O	1.072084	0.505688	0.410549
O20	O	1.322084	0.755688	0.660549
O21	O	0.497316	-0.069080	-0.089412
O22	O	0.747316	0.180920	0.160588
O23	O	0.997316	0.430920	0.410588
O24	O	1.247316	0.680920	0.660588
O25	O	0.638108	-0.060336	-0.089447
O26	O	0.888108	0.189664	0.160553
O27	O	1.138108	0.439664	0.410553
O28	O	1.388108	0.689664	0.660553
Cu29	Cu	0.567199	-0.065222	-0.105741
Cu30	Cu	0.817199	0.184778	0.144259
Cu31	Cu	1.067199	0.434778	0.394259
Cu32	Cu	1.317199	0.684778	0.644259
Cu33	Cu	0.573849	-0.058562	0.105521
Cu34	Cu	0.823849	0.191438	0.355521
Cu35	Cu	1.073849	0.441438	0.605521
Cu36	Cu	1.323849	0.691438	0.855521
O37	O	0.563340	-0.135104	-0.089408
O38	O	0.813340	0.114896	0.160592
O39	O	1.063340	0.364896	0.410592
O40	O	1.313340	0.614896	0.660592
C41	C	0.482121	-0.066081	-0.000089
C42	C	0.732121	0.183919	0.249911
C43	C	0.982121	0.433919	0.499911
C44	C	1.232121	0.683919	0.749911
C45	C	0.428466	-0.065527	-0.000077
C46	C	0.678466	0.184473	0.249923
C47	C	0.928466	0.434473	0.499923
C48	C	1.178466	0.684473	0.749923
C49	C	0.089650	-0.106232	-0.000111
C50	C	0.339650	0.143768	0.249889
C51	C	0.589650	0.393768	0.499889
C52	C	0.839650	0.643768	0.749889
C53	C	-0.112010	-0.104182	-0.000121
C54	C	0.137990	0.145818	0.249879
C55	C	0.387990	0.395818	0.499879
C56	C	0.637990	0.645818	0.749879
O57	O	-0.143267	-0.141403	-0.000156
O58	O	0.106733	0.108597	0.249844
O59	O	0.356733	0.358597	0.499844
O60	O	0.606733	0.608597	0.749844
N61	N	-0.131134	-0.059847	-0.000133
N62	N	0.118866	0.190153	0.249867
N63	N	0.368866	0.440153	0.499867
N64	N	0.618866	0.690153	0.749867
C65	C	-0.099840	-0.016022	-0.000149
C66	C	0.150160	0.233978	0.249851
C67	C	0.400160	0.483978	0.499851
C68	C	0.650160	0.733978	0.749851
O69	O	-0.120734	0.021735	-0.000170
O70	O	0.129266	0.271735	0.249830
O71	O	0.379266	0.521735	0.499830
O72	O	0.629266	0.771735	0.749830
C73	C	0.101819	-0.018073	-0.000146
C74	C	0.351819	0.231927	0.249854
C75	C	0.601819	0.481927	0.499854
C76	C	0.851819	0.731927	0.749854
C77	C	0.120940	-0.062410	-0.000124
C78	C	0.370940	0.187590	0.249876
C79	C	0.620940	0.437590	0.499876
C80	C	0.870940	0.687590	0.749876
C81	C	0.108772	-0.150566	-0.000089
C82	C	0.358772	0.099434	0.249911
C83	C	0.608772	0.349434	0.499911
C84	C	0.858772	0.599434	0.749911
C85	C	0.159184	-0.151078	-0.000081
C86	C	0.409184	0.098922	0.249919
C87	C	0.659184	0.348922	0.499919
C88	C	0.909184	0.598922	0.749919
C89	C	0.190475	-0.107256	-0.000094
C90	C	0.440475	0.142744	0.249906
C91	C	0.690475	0.392744	0.499906
C92	C	0.940475	0.642744	0.749906
C93	C	0.171353	-0.062922	-0.000115
C94	C	0.421353	0.187078	0.249885
C95	C	0.671353	0.437078	0.499885
C96	C	0.921353	0.687078	0.749885
C97	C	0.133112	0.025751	-0.000170
C98	C	0.383112	0.275751	0.249830
C99	C	0.633112	0.525751	0.499830
C100	C	0.883112	0.775751	0.749830
C101	C	0.183529	0.025234	-0.000172
C102	C	0.433529	0.275234	0.249828
C103	C	0.683529	0.525234	0.499828
C104	C	0.933529	0.775234	0.749828
C105	C	0.202651	-0.019103	-0.000150
C106	C	0.452651	0.230897	0.249850
C107	C	0.702651	0.480897	0.499850
C108	C	0.952651	0.730897	0.749850
C109	C	0.253055	-0.019613	-0.000120
C110	C	0.503055	0.230387	0.249880
C111	C	0.753055	0.480387	0.499880
C112	C	1.003055	0.730387	0.749880
N113	N	0.272179	-0.063948	-0.000108
N114	N	0.522179	0.186052	0.249892
N115	N	0.772179	0.436052	0.499892
N116	N	1.022179	0.686052	0.749892
C117	C	0.240889	-0.107769	-0.000095
C118	C	0.490889	0.142231	0.249905
C119	C	0.740889	0.392231	0.499905
C120	C	0.990889	0.642231	0.749905
C121	C	-0.205714	-0.014948	-0.000148
C122	C	0.044286	0.235052	0.249852
C123	C	0.294286	0.485052	0.499852
C124	C	0.544286	0.735052	0.749852
C125	C	-0.256128	-0.014435	-0.000147
C126	C	-0.006128	0.235565	0.249853
C127	C	0.243872	0.485565	0.499853
C128	C	0.493872	0.735565	0.749853
C129	C	-0.268295	-0.102595	-0.000121
C130	C	-0.018295	0.147405	0.249879
C131	C	0.231705	0.397405	0.499879
C132	C	0.481705	0.647405	0.749879
C133	C	-0.217879	-0.103107	-0.000115
C134	C	0.032121	0.146893	0.249885
C135	C	0.282121	0.396893	0.499885
C136	C	0.532121	0.646893	0.749885
C137	C	-0.186590	-0.059283	-0.000136
C138	C	0.063410	0.190717	0.249864
C139	C	0.313410	0.440717	0.499864
C140	C	0.563410	0.690717	0.749864
C141	C	0.346759	-0.108841	-0.000077
C142	C	0.596759	0.141159	0.249923
C143	C	0.846759	0.391159	0.499923
C144	C	1.096759	0.641159	0.749923
C145	C	0.397176	-0.109349	-0.000064
C146	C	0.647176	0.140651	0.249936
C147	C	0.897176	0.390651	0.499936
C148	C	1.147176	0.640651	0.749936
C149	C	0.409338	-0.021189	-0.000095
C150	C	0.659338	0.228811	0.249905
C151	C	0.909338	0.478811	0.499905
C152	C	1.159338	0.728811	0.749905
C153	C	0.358925	-0.020681	-0.000102
C154	C	0.608925	0.229319	0.249898
C155	C	0.858925	0.479319	0.499898
C156	C	1.108925	0.729319	0.749898
C157	C	0.327636	-0.064511	-0.000097
C158	C	0.577636	0.185489	0.249903
C159	C	0.827636	0.435489	0.499903
C160	C	1.077636	0.685489	0.749903
O161	O	0.284340	0.017589	-0.000097
O162	O	0.534340	0.267589	0.249903
O163	O	0.784340	0.517589	0.499903
O164	O	1.034340	0.767589	0.749903
O165	O	0.261791	-0.145521	-0.000098
O166	O	0.511791	0.104479	0.249902
O167	O	0.761791	0.354479	0.499902
O168	O	1.011791	0.604479	0.749902
C169	C	0.039238	-0.105720	-0.000119
C170	C	0.289238	0.144280	0.249881
C171	C	0.539238	0.394280	0.499881
C172	C	0.789238	0.644280	0.749881
C173	C	0.020116	-0.061386	-0.000141
C174	C	0.270116	0.188614	0.249859
C175	C	0.520116	0.438614	0.499859
C176	C	0.770116	0.688614	0.749859
C177	C	0.051406	-0.017565	-0.000153
C178	C	0.301406	0.232435	0.249847
C179	C	0.551406	0.482435	0.499847
C180	C	0.801406	0.732435	0.749847
C181	C	-0.030298	-0.060873	-0.000139
C182	C	0.219702	0.189127	0.249861
C183	C	0.469702	0.439127	0.499861
C184	C	0.719702	0.689127	0.749861
C185	C	-0.061589	-0.104695	-0.000126
C186	C	0.188411	0.145305	0.249874
C187	C	0.438411	0.395305	0.499874
C188	C	0.688411	0.645305	0.749874
C189	C	-0.042465	-0.149030	-0.000115
C190	C	0.207535	0.100970	0.249885
C191	C	0.457535	0.350970	0.499885
C192	C	0.707535	0.600970	0.749885
C193	C	0.007948	-0.149542	-0.000106
C194	C	0.257948	0.100458	0.249894
C195	C	0.507948	0.350458	0.499894
C196	C	0.757948	0.600458	0.749894
C197	C	0.032282	0.026770	-0.000165
C198	C	0.282282	0.276770	0.249835
C199	C	0.532282	0.526770	0.499835
C200	C	0.782282	0.776770	0.749835
C201	C	-0.018131	0.027279	-0.000172
C202	C	0.231869	0.277279	0.249828
C203	C	0.481869	0.527279	0.499828
C204	C	0.731869	0.777279	0.749828
C205	C	-0.049421	-0.016543	-0.000159
C206	C	0.200579	0.233457	0.249841
C207	C	0.450579	0.483457	0.499841
C208	C	0.700579	0.733457	0.749841
C209	C	0.574712	0.026511	-0.000134
C210	C	0.824712	0.276511	0.249866
C211	C	1.074712	0.526511	0.499866
C212	C	1.324712	0.776511	0.749866
C213	C	0.574159	0.080165	-0.000143
C214	C	0.824159	0.330165	0.249857
C215	C	1.074159	0.580165	0.499857
C216	C	1.324159	0.830165	0.749857
C217	C	0.658927	-0.057703	-0.000129
C218	C	0.908927	0.192297	0.249871
C219	C	1.158927	0.442297	0.499871
C220	C	1.408927	0.692297	0.749871
C221	C	0.712582	-0.058256	-0.000134
C222	C	0.962582	0.191744	0.249866
C223	C	1.212582	0.441744	0.499866
C224	C	1.462582	0.691744	0.749866
C225	C	0.566335	-0.150295	-0.000083
C226	C	0.816335	0.099705	0.249917
C227	C	1.066335	0.349705	0.499917
C228	C	1.316335	0.599705	0.749917
C229	C	0.566889	-0.203949	-0.000067
C230	C	0.816889	0.046051	0.249933
C231	C	1.066889	0.296051	0.499933
C232	C	1.316889	0.546051	0.749933
C233	C	0.614864	0.418982	-0.000098
C234	C	0.864864	0.668982	0.249902
C235	C	1.114864	0.918982	0.499902
C236	C	1.364864	1.168982	0.749902
C237	C	0.612814	0.620642	-0.000082
C238	C	0.862814	0.870642	0.249918
C239	C	1.112814	1.120642	0.499918
C240	C	1.362814	1.370642	0.749918
O241	O	0.650036	0.651899	-0.000044
O242	O	0.900036	0.901899	0.249956
O243	O	1.150036	1.151899	0.499956
O244	O	1.400036	1.401899	0.749956
N245	N	0.568479	0.639766	-0.000073
N246	N	0.818479	0.889766	0.249927
N247	N	1.068479	1.139766	0.499927
N248	N	1.318479	1.389766	0.749927
C249	C	0.524654	0.608472	-0.000060
C250	C	0.774654	0.858472	0.249940
C251	C	1.024654	1.108472	0.499940
C252	C	1.274654	1.358472	0.749940
O253	O	0.486897	0.629366	-0.000040
O254	O	0.736897	0.879366	0.249960
O255	O	0.986897	1.129366	0.499960
O256	O	1.236897	1.379366	0.749960
C257	C	0.526705	0.406813	-0.000067
C258	C	0.776705	0.656813	0.249933
C259	C	1.026705	0.906813	0.499933
C260	C	1.276705	1.156813	0.749933
C261	C	0.571042	0.387692	-0.000088
C262	C	0.821042	0.637692	0.249912
C263	C	1.071042	0.887692	0.499912
C264	C	1.321042	1.137692	0.749912
C265	C	0.659198	0.399860	-0.000117
C266	C	0.909198	0.649860	0.249883
C267	C	1.159198	0.899860	0.499883
C268	C	1.409198	1.149860	0.749883
C269	C	0.659710	0.349448	-0.000127
C270	C	0.909710	0.599448	0.249873
C271	C	1.159710	0.849448	0.499873
C272	C	1.409710	1.099448	0.749873
C273	C	0.615888	0.318157	-0.000117
C274	C	0.865888	0.568157	0.249883
C275	C	1.115888	0.818157	0.499883
C276	C	1.365888	1.068157	0.749883
C277	C	0.571554	0.337279	-0.000098
C278	C	0.821554	0.587279	0.249902
C279	C	1.071554	0.837279	0.499902
C280	C	1.321554	1.087279	0.749902
C281	C	0.482881	0.375520	-0.000047
C282	C	0.732881	0.625520	0.249953
C283	C	0.982881	0.875520	0.499953
C284	C	1.232881	1.125520	0.749953
C285	C	0.483397	0.325103	-0.000046
C286	C	0.733397	0.575103	0.249954
C287	C	0.983397	0.825103	0.499954
C288	C	1.233397	1.075103	0.749954
C289	C	0.527735	0.305981	-0.000067
C290	C	0.777735	0.555981	0.249933
C291	C	1.027735	0.805981	0.499933
C292	C	1.277735	1.055981	0.749933
C293	C	0.528244	0.255577	-0.000098
C294	C	0.778244	0.505577	0.249902
C295	C	1.028244	0.755577	0.499902
C296	C	1.278244	1.005577	0.749902
N297	N	0.572579	0.236453	-0.000108
N298	N	0.822579	0.486453	0.249892
N299	N	1.072579	0.736453	0.499892
N300	N	1.322579	0.986453	0.749892
C301	C	0.616401	0.267743	-0.000117
C302	C	0.866401	0.517743	0.249883
C303	C	1.116401	0.767743	0.499883
C304	C	1.366401	1.017743	0.749883
C305	C	0.523580	0.714346	-0.000058
C306	C	0.773580	0.964346	0.249942
C307	C	1.023580	1.214346	0.499942
C308	C	1.273580	1.464346	0.749942
C309	C	0.523067	0.764760	-0.000058
C310	C	0.773067	1.014760	0.249942
C311	C	1.023067	1.264760	0.499942
C312	C	1.273067	1.514760	0.749942
C313	C	0.611227	0.776927	-0.000078
C314	C	0.861227	1.026927	0.249922
C315	C	1.111227	1.276927	0.499922
C316	C	1.361227	1.526927	0.749922
C317	C	0.611739	0.726512	-0.000086
C318	C	0.861739	0.976512	0.249914
C319	C	1.111739	1.226512	0.499914
C320	C	1.361739	1.476512	0.749914
C321	C	0.567915	0.695222	-0.000067
C322	C	0.817915	0.945222	0.249933
C323	C	1.067915	1.195222	0.499933
C324	C	1.317915	1.445222	0.749933
C325	C	0.617473	0.161873	-0.000139
C326	C	0.867473	0.411873	0.249861
C327	C	1.117473	0.661873	0.499861
C328	C	1.367473	0.911873	0.749861
C329	C	0.617981	0.111456	-0.000153
C330	C	0.867981	0.361456	0.249847
C331	C	1.117981	0.611456	0.499847
C332	C	1.367981	0.861456	0.749847
C333	C	0.529821	0.099294	-0.000126
C334	C	0.779821	0.349294	0.249874
C335	C	1.029821	0.599294	0.499874
C336	C	1.279821	0.849294	0.749874
C337	C	0.529313	0.149706	-0.000118
C338	C	0.779313	0.399706	0.249882
C339	C	1.029313	0.649706	0.499882
C340	C	1.279313	0.899706	0.749882
C341	C	0.573143	0.180996	-0.000120
C342	C	0.823143	0.430996	0.249880
C343	C	1.073143	0.680996	0.499880
C344	C	1.323143	0.930996	0.749880
O345	O	0.491043	0.224292	-0.000124
O346	O	0.741043	0.474292	0.249876
O347	O	0.991043	0.724292	0.499876
O348	O	1.241043	0.974292	0.749876
O349	O	0.654153	0.246841	-0.000113
O350	O	0.904153	0.496841	0.249887
O351	O	1.154153	0.746841	0.499887
O352	O	1.404153	0.996841	0.749887
C353	C	0.614352	0.469394	-0.000088
C354	C	0.864352	0.719394	0.249912
C355	C	1.114352	0.969394	0.499912
C356	C	1.364352	1.219394	0.749912
C357	C	0.570018	0.488516	-0.000069
C358	C	0.820018	0.738516	0.249931
C359	C	1.070018	0.988516	0.499931
C360	C	1.320018	1.238516	0.749931
C361	C	0.526197	0.457226	-0.000059
C362	C	0.776197	0.707226	0.249941
C363	C	1.026197	0.957226	0.499941
C364	C	1.276197	1.207226	0.749941
C365	C	0.569505	0.538930	-0.000069
C366	C	0.819505	0.788930	0.249931
C367	C	1.069505	1.038930	0.499931
C368	C	1.319505	1.288930	0.749931
C369	C	0.613327	0.570221	-0.000078
C370	C	0.863327	0.820221	0.249922
C371	C	1.113327	1.070221	0.499922
C372	C	1.363327	1.320221	0.749922
C373	C	0.657662	0.551097	-0.000088
C374	C	0.907662	0.801097	0.249912
C375	C	1.157662	1.051097	0.499912
C376	C	1.407662	1.301097	0.749912
C377	C	0.658174	0.500685	-0.000098
C378	C	0.908174	0.750685	0.249902
C379	C	1.158174	1.000685	0.499902
C380	C	1.408174	1.250685	0.749902
C381	C	0.481862	0.476350	-0.000049
C382	C	0.731862	0.726350	0.249951
C383	C	0.981862	0.976350	0.499951
C384	C	1.231862	1.226350	0.749951
C385	C	0.481353	0.526763	-0.000041
C386	C	0.731353	0.776763	0.249959
C387	C	0.981353	1.026763	0.499959
C388	C	1.231353	1.276763	0.749959
C389	C	0.525175	0.558053	-0.000050
C390	C	0.775175	0.808053	0.249950
C391	C	1.025175	1.058053	0.499950
C392	C	1.275175	1.308053	0.749950
N393	N	0.562525	-0.069907	-0.254331
N394	N	0.812525	0.180093	-0.004331
N395	N	1.062525	0.430093	0.245669
N396	N	1.312525	0.680093	0.495669
C397	C	0.555650	-0.076802	-0.473442
C398	C	0.805650	0.173198	-0.223442
C399	C	1.055650	0.423198	0.026558
C400	C	1.305650	0.673198	0.276558
C401	C	0.585400	-0.046980	-0.526785
C402	C	0.835400	0.203020	-0.276785
C403	C	1.085400	0.453020	-0.026785
C404	C	1.335400	0.703020	0.223215
C405	C	0.581574	-0.050816	-0.648706
C406	C	0.831574	0.199184	-0.398706
C407	C	1.081574	0.449184	-0.148706
C408	C	1.331574	0.699184	0.101294
C409	C	0.559475	-0.072966	-0.351510
C410	C	0.809475	0.177034	-0.101510
C411	C	1.059475	0.427034	0.148490
C412	C	1.309475	0.677034	0.398490
N413	N	0.578526	-0.053873	0.254111
N414	N	0.828526	0.196127	0.504111
N415	N	1.078526	0.446127	0.754111
N416	N	1.328526	0.696127	1.004111
H417	H	0.412742	-0.145455	-0.000045
H418	H	0.662742	0.104545	0.249955
H419	H	0.912742	0.354545	0.499955
H420	H	1.162742	0.604545	0.749955
N421	N	0.477772	0.784280	-0.000062
N422	N	0.727772	1.034280	0.249938
N423	N	0.977772	1.284280	0.499938
N424	N	1.227772	1.534280	0.749938
N425	N	0.438651	0.756331	-0.000054
N426	N	0.688651	1.006331	0.249946
N427	N	0.938651	1.256331	0.499946
N428	N	1.188651	1.506331	0.749946
H429	H	0.406660	0.770115	-0.000053
H430	H	0.656660	1.020115	0.249947
H431	H	0.906660	1.270115	0.499947
H432	H	1.156660	1.520115	0.749947
N433	N	0.438635	0.293134	-0.000019
N434	N	0.688635	0.543134	0.249981
N435	N	0.938635	0.793134	0.499981
N436	N	1.188635	1.043134	0.749981
N437	N	0.431459	0.266012	0.075282
N438	N	0.681459	0.516012	0.325282
N439	N	0.931459	0.766012	0.575282
N440	N	1.181459	1.016012	0.825282
H441	H	0.399846	0.243434	0.075300
H442	H	0.649846	0.493434	0.325300
H443	H	0.899846	0.743434	0.575300
H444	H	1.149846	0.993434	0.825300
N445	N	0.441306	0.023570	-0.000139
N446	N	0.691306	0.273570	0.249861
N447	N	0.941306	0.523570	0.499861
N448	N	1.191306	0.773570	0.749861
N449	N	0.437386	0.050760	-0.075463
N450	N	0.687386	0.300760	0.174537
N451	N	0.937386	0.550760	0.424537
N452	N	1.187386	0.800760	0.674537
H453	H	0.459964	0.082371	-0.075505
H454	H	0.709964	0.332371	0.174495
H455	H	0.959964	0.582371	0.424495
H456	H	1.209964	0.832371	0.674495
H457	H	0.321288	-0.144532	-0.000075
H458	H	0.571288	0.105468	0.249925
H459	H	0.821288	0.355468	0.499925
H460	H	1.071288	0.605468	0.749925
H461	H	0.023511	-0.185646	-0.000089
H462	H	0.273511	0.064354	0.249911
H463	H	0.523511	0.314354	0.499911
H464	H	0.773511	0.564354	0.749911
N465	N	0.484023	0.169239	-0.000085
N466	N	0.734023	0.419239	0.249915
N467	N	0.984023	0.669239	0.499915
N468	N	1.234023	0.919239	0.749915
N469	N	0.476270	0.198375	0.075232
N470	N	0.726270	0.448375	0.325232
N471	N	0.976270	0.698375	0.575232
N472	N	1.226270	0.948375	0.825232
H473	H	0.444283	0.212166	0.075266
H474	H	0.694283	0.462166	0.325266
H475	H	0.944283	0.712166	0.575266
H476	H	1.194283	0.962166	0.825266
N477	N	0.520097	-0.112451	-0.530994
N478	N	0.770097	0.137549	-0.280994
N479	N	1.020097	0.387549	-0.030994
N480	N	1.270097	0.637549	0.219006
N481	N	0.492124	-0.140496	-0.480918
N482	N	0.742124	0.109504	-0.230918
N483	N	0.992124	0.359504	0.019082
N484	N	1.242124	0.609504	0.269082
H485	H	0.467015	-0.165674	-0.521574
H486	H	0.717015	0.084326	-0.271574
H487	H	0.967015	0.334326	-0.021574
H488	H	1.217015	0.584326	0.228426
N489	N	0.620953	-0.011337	-0.469199
N490	N	0.870953	0.238663	-0.219199
N491	N	1.120953	0.488663	0.030801
N492	N	1.370953	0.738663	0.280801
N493	N	0.624052	-0.008230	-0.368803
N494	N	0.874052	0.241770	-0.118803
N495	N	1.124052	0.491770	0.131197
N496	N	1.374052	0.741770	0.381197
H497	H	0.649161	0.016941	-0.328127
H498	H	0.899161	0.266941	-0.078127
H499	H	1.149161	0.516941	0.171873
H500	H	1.399161	0.766941	0.421873
H501	H	-0.271692	0.021670	-0.000148
H502	H	-0.021692	0.271670	0.249852
H503	H	0.228308	0.521670	0.499852
H504	H	0.478308	0.771670	0.749852
H505	H	0.117552	0.061855	-0.000189
H506	H	0.367552	0.311855	0.249811
H507	H	0.617552	0.561855	0.499811
H508	H	0.867552	0.811855	0.749811
N509	N	0.178704	-0.196372	-0.000057
N510	N	0.428704	0.053628	0.249943
N511	N	0.678704	0.303628	0.499943
N512	N	0.928704	0.553628	0.749943
N513	N	0.150753	-0.235492	-0.000046
N514	N	0.400753	0.014508	0.249954
N515	N	0.650753	0.264508	0.499954
N516	N	0.900753	0.514508	0.749954
H517	H	0.164535	-0.267484	-0.000030
H518	H	0.414535	-0.017484	0.249970
H519	H	0.664535	0.232516	0.499970
H520	H	0.914535	0.482516	0.749970
H521	H	0.694278	0.485121	-0.000114
H522	H	0.944278	0.735121	0.249886
H523	H	1.194278	0.985121	0.499886
H524	H	1.444278	1.235121	0.749886
N525	N	0.076821	-0.195338	-0.000083
N526	N	0.326821	0.054662	0.249917
N527	N	0.576821	0.304662	0.499917
N528	N	0.826821	0.554662	0.749917
N529	N	0.093911	-0.234914	-0.000068
N530	N	0.343911	0.015086	0.249932
N531	N	0.593911	0.265086	0.499932
N532	N	0.843911	0.515086	0.749932
H533	H	0.071349	-0.266538	-0.000058
H534	H	0.321349	-0.016538	0.249942
H535	H	0.571349	0.233462	0.499942
H536	H	0.821349	0.483462	0.749942
N537	N	-0.198357	-0.148400	-0.000091
N538	N	0.051643	0.101600	0.249909
N539	N	0.301643	0.351600	0.499909
N540	N	0.551643	0.601600	0.749909
N541	N	-0.226306	-0.187521	-0.000073
N542	N	0.023694	0.062479	0.249927
N543	N	0.273694	0.312479	0.499927
N544	N	0.523694	0.562479	0.749927
H545	H	-0.212522	-0.219512	-0.000058
H546	H	0.037478	0.030488	0.249942
H547	H	0.287478	0.280488	0.499942
H548	H	0.537478	0.530488	0.749942
H549	H	0.057754	0.062456	-0.000178
H550	H	0.307754	0.312456	0.249822
H551	H	0.557754	0.562456	0.499822
H552	H	0.807754	0.812456	0.749822
N553	N	0.478806	0.682395	-0.000039
N554	N	0.728806	0.932395	0.249961
N555	N	0.978806	1.182395	0.499961
N556	N	1.228806	1.432395	0.749961
N557	N	0.439228	0.699482	-0.000033
N558	N	0.689228	0.949482	0.249967
N559	N	0.939228	1.199482	0.499967
N560	N	1.189228	1.449482	0.749967
H561	H	0.407606	0.676919	-0.000024
H562	H	0.657606	0.926919	0.249976
H563	H	0.907606	1.176919	0.499976
H564	H	1.157606	1.426919	0.749976
H565	H	-0.293780	-0.138276	-0.000111
H566	H	-0.043780	0.111724	0.249889
H567	H	0.206220	0.361724	0.499889
H568	H	0.456220	0.611724	0.749889
H569	H	0.446176	0.450877	-0.000039
H570	H	0.696176	0.700877	0.249961
H571	H	0.946176	0.950877	0.499961
H572	H	1.196176	1.200877	0.749961
H573	H	-0.180242	0.020742	-0.000166
H574	H	0.069758	0.270742	0.249834
H575	H	0.319758	0.520742	0.499834
H576	H	0.569758	0.770742	0.749834
H577	H	0.693343	0.576582	-0.000101
H578	H	0.943343	0.826582	0.249899
H579	H	1.193343	1.076582	0.499899
H580	H	1.443343	1.326582	0.749899
N581	N	0.215483	0.070006	-0.000206
N582	N	0.465483	0.320006	0.249794
N583	N	0.715483	0.570006	0.499794
N584	N	0.965483	0.820006	0.749794
N585	N	0.198399	0.109585	-0.000231
N586	N	0.448399	0.359585	0.249769
N587	N	0.698399	0.609585	0.499769
N588	N	0.948399	0.859585	0.749769
H589	H	0.220965	0.141205	-0.000255
H590	H	0.470965	0.391205	0.249745
H591	H	0.720965	0.641205	0.499745
H592	H	0.970965	0.891205	0.749745
H593	H	0.343357	0.015423	-0.000105
H594	H	0.593357	0.265423	0.249895
H595	H	0.843357	0.515423	0.499895
H596	H	1.093357	0.765423	0.749895
H597	H	0.647843	0.710947	-0.000102
H598	H	0.897843	0.960947	0.249898
H599	H	1.147843	1.210947	0.499898
H600	H	1.397843	1.460947	0.749898
H601	H	-0.067950	-0.184711	-0.000100
H602	H	0.182050	0.065289	0.249900
H603	H	0.432050	0.315289	0.499900
H604	H	0.682050	0.565289	0.749900
N605	N	-0.037650	0.072576	-0.000182
N606	N	0.212350	0.322576	0.249818
N607	N	0.462350	0.572576	0.499818
N608	N	0.712350	0.822576	0.749818
N609	N	-0.009701	0.111697	-0.000195
N610	N	0.240299	0.361697	0.249805
N611	N	0.490299	0.611697	0.499805
N612	N	0.740299	0.861697	0.749805
H613	H	-0.023486	0.143688	-0.000209
H614	H	0.226514	0.393688	0.249791
H615	H	0.476514	0.643688	0.499791
H616	H	0.726514	0.893688	0.749791
H617	H	0.694885	0.425332	-0.000121
H618	H	0.944885	0.675332	0.249879
H619	H	1.194885	0.925332	0.499879
H620	H	1.444885	1.175332	0.749879
H621	H	0.654087	0.095890	-0.000172
H622	H	0.904087	0.345890	0.249828
H623	H	1.154087	0.595890	0.499828
H624	H	1.404087	0.845890	0.749828
H625	H	0.445245	0.542325	-0.000033
H626	H	0.695245	0.792325	0.249967
H627	H	0.945245	1.042325	0.499967
H628	H	1.195245	1.292325	0.749967
N629	N	0.655996	0.808887	-0.000093
N630	N	0.905996	1.058887	0.249907
N631	N	1.155996	1.308887	0.499907
N632	N	1.405996	1.558887	0.749907
N633	N	0.683203	0.804965	-0.075393
N634	N	0.933203	1.054965	0.174607
N635	N	1.183203	1.304965	0.424607
N636	N	1.433203	1.554965	0.674607
H637	H	0.714820	0.827538	-0.075397
H638	H	0.964820	1.077538	0.174603
H639	H	1.214820	1.327538	0.424603
H640	H	1.464820	1.577538	0.674603
H641	H	0.653164	0.187344	-0.000136
H642	H	0.903164	0.437344	0.249864
H643	H	1.153164	0.687344	0.499864
H644	H	1.403164	0.937344	0.749864
H645	H	0.446777	0.391079	-0.000024
H646	H	0.696777	0.641079	0.249976
H647	H	0.946777	0.891079	0.499976
H648	H	1.196777	1.141079	0.749976
N649	N	0.705005	0.329928	-0.000144
N650	N	0.955005	0.579928	0.249856
N651	N	1.205005	0.829928	0.499856
N652	N	1.455005	1.079928	0.749856
N653	N	0.744124	0.357879	-0.000148
N654	N	0.994124	0.607879	0.249852
N655	N	1.244124	0.857879	0.499852
N656	N	1.494124	1.107879	0.749852
H657	H	0.776117	0.344097	-0.000156
H658	H	1.026117	0.594097	0.249844
H659	H	1.276117	0.844097	0.499844
H660	H	1.526117	1.094097	0.749844
H661	H	0.494142	0.073808	-0.000122
H662	H	0.744142	0.323808	0.249878
H663	H	0.994142	0.573808	0.499878
H664	H	1.244142	0.823808	0.749878
