data_functionalizedCrystal
_audit_creation_method	'MofGen! by Chris Wilmer'
_symmetry_space_group_name_H-M	'P1'
_symmetry_Int_Tables_number	1
_symmetry_cell_setting	triclinic
loop_
_symmetry_equiv_pos_as_xyz
  x,y,z
_cell_length_a	19.188930
_cell_length_b	13.101039
_cell_length_c	14.044220
_cell_angle_alpha	93.667477
_cell_angle_beta	88.166828
_cell_angle_gamma	86.639939
loop_
_atom_site_label
_atom_site_type_symbol
_atom_site_fract_x
_atom_site_fract_y
_atom_site_fract_z
O1	O	0.937307	-0.085551	0.113041
O2	O	0.735021	-0.085481	0.128972
O3	O	0.833127	-0.085505	-0.016965
O4	O	0.839201	-0.085527	0.258978
O5	O	0.826089	0.084927	-0.006477
O6	O	0.727983	0.084950	0.139460
O7	O	0.930269	0.084881	0.123529
Zn8	Zn	0.828009	0.111975	0.133160
Zn9	Zn	0.837282	-0.112576	0.119341
O10	O	0.832163	0.084904	0.269466
C11	C	0.705457	-0.000256	0.133701
C12	C	0.627852	-0.000229	0.132154
C13	C	0.826950	-0.000288	-0.047024
C14	C	0.819021	-0.000284	-0.152217
N15	N	0.821685	0.265225	0.142590
C16	C	0.588454	-0.000252	0.217783
C17	C	0.515537	-0.000263	0.216328
C18	C	0.482021	-0.000272	0.129238
C19	C	0.521427	-0.000243	0.043598
C20	C	0.594343	-0.000222	0.045056
N21	N	0.372142	-0.058313	0.059097
N22	N	0.302875	-0.058336	0.057717
C23	C	0.262331	-0.000335	0.124839
N24	N	0.293671	0.057677	0.193406
N25	N	0.362944	0.057695	0.194788
C26	C	0.402957	-0.000295	0.127647
C27	C	0.143869	-0.000368	0.208896
C28	C	0.070950	-0.000373	0.207437
C29	C	0.076842	-0.000363	0.034705
C30	C	0.149759	-0.000348	0.036166
C31	C	0.183268	-0.000355	0.123264
C32	C	0.959833	-0.000346	0.118800
C33	C	1.037439	-0.000380	0.120346
N34	N	0.843610	-0.265826	0.109904
C35	C	0.813083	0.474270	0.155429
C36	C	0.852211	0.525136	0.097068
C37	C	0.847424	0.641456	0.104212
C38	C	0.817868	0.357940	0.148286
C39	C	0.804526	-0.000293	-0.344819
C40	C	0.860762	-0.000316	-0.402686
C41	C	0.852696	-0.000321	-0.509857
C42	C	0.812590	-0.000288	-0.237638
C43	C	0.838340	-0.000315	0.299525
C44	C	0.846269	-0.000326	0.404717
H45	H	0.615733	-0.000260	0.288704
C46	C	0.472671	-0.000456	0.309217
C47	C	0.434274	-0.088142	0.308003
C48	C	0.394773	-0.088348	0.393549
H49	H	0.502989	-0.000508	0.361373
H50	H	0.441590	0.058936	0.315904
H51	H	0.465351	-0.147518	0.301326
H52	H	0.403943	-0.088107	0.255866
H53	H	0.363692	-0.028957	0.400237
H54	H	0.425096	-0.088398	0.445699
H55	H	0.368711	-0.147837	0.392734
C56	C	0.732248	-0.000477	-0.386034
C57	C	0.699707	-0.088155	-0.360505
C58	C	0.633129	-0.088362	-0.398478
H59	H	0.705071	0.058899	-0.361520
H60	H	0.736339	-0.000537	-0.453633
H61	H	0.695613	-0.088085	-0.292919
H62	H	0.726863	-0.147545	-0.385018
H63	H	0.637220	-0.088422	-0.466077
H64	H	0.605959	-0.028982	-0.373962
H65	H	0.611044	-0.147855	-0.381170
C66	C	0.901694	0.466913	0.023202
C67	C	0.936844	0.536707	-0.029251
C68	C	0.982427	0.483105	-0.097307
H69	H	0.934669	0.425038	0.054484
H70	H	0.875791	0.425093	-0.018679
H71	H	0.962746	0.578509	0.012624
H72	H	0.903886	0.578584	-0.060554
H73	H	0.956523	0.441285	-0.139188
H74	H	1.015397	0.441232	-0.066016
H75	H	1.006276	0.530452	-0.132910
H76	H	0.038873	-0.000386	0.277170
H77	H	0.494134	-0.000265	-0.027312
C78	C	0.637001	-0.000258	-0.048023
C79	C	0.592048	-0.000289	-0.124609
C80	C	0.631322	-0.000339	-0.210369
H81	H	0.663107	0.059165	-0.047523
H82	H	0.668025	-0.059709	-0.054753
H83	H	0.561037	0.059157	-0.117881
H84	H	0.565941	-0.059707	-0.125140
H85	H	0.662345	-0.059791	-0.217100
H86	H	0.657426	0.059085	-0.209860
H87	H	0.600828	-0.000370	-0.262344
C88	C	0.763581	0.532812	0.229062
C89	C	0.715161	0.594459	0.182564
C90	C	0.669558	0.648426	0.250366
H91	H	0.739588	0.485724	0.264782
H92	H	0.789488	0.574708	0.270871
H93	H	0.689257	0.552566	0.140773
H94	H	0.739134	0.641566	0.146850
H95	H	0.695465	0.690323	0.292174
H96	H	0.645570	0.601331	0.286081
H97	H	0.636704	0.690267	0.218827
C98	C	0.180124	-0.000312	0.303555
C99	C	0.130009	-0.000297	0.378239
C100	C	0.163378	-0.000231	0.465453
H101	H	0.210913	-0.059723	0.304195
H102	H	0.205959	0.059151	0.311422
H103	H	0.104186	-0.059754	0.370374
H104	H	0.099218	0.059110	0.377630
H105	H	0.189213	0.059232	0.473320
H106	H	0.194166	-0.059643	0.466083
H107	H	0.129380	-0.000211	0.516137
C108	C	0.040335	-0.000427	-0.059759
C109	C	-0.031953	-0.000474	-0.042713
C110	C	-0.065608	-0.000544	-0.129713
H111	H	0.050942	0.058994	-0.091424
H112	H	0.055928	-0.059880	-0.098670
H113	H	-0.047540	0.058973	-0.003817
H114	H	-0.042581	-0.059891	-0.011062
H115	H	-0.050016	-0.059998	-0.168624
H116	H	-0.054996	0.058878	-0.161371
H117	H	-0.114659	-0.000586	-0.118159
C118	C	0.932974	-0.000277	-0.361245
C119	C	0.926722	-0.000239	-0.261642
C120	C	0.993225	-0.000185	-0.223428
H121	H	0.960133	-0.059700	-0.385684
H122	H	0.955164	0.059175	-0.378438
H123	H	0.904542	-0.059684	-0.244457
H124	H	0.899575	0.059180	-0.237177
H125	H	1.015416	0.059266	-0.240621
H126	H	1.020379	-0.059609	-0.247874
H127	H	0.988992	-0.000150	-0.155844
H128	H	0.181837	-0.000335	-0.033562
