data_functionalizedCrystal
_audit_creation_method	'MofGen! by Chris Wilmer'
_symmetry_space_group_name_H-M	'P1'
_symmetry_Int_Tables_number	1
_symmetry_cell_setting	triclinic
loop_
_symmetry_equiv_pos_as_xyz
  x,y,z
_cell_length_a	10.686220
_cell_length_b	16.120484
_cell_length_c	10.686551
_cell_angle_alpha	88.707809
_cell_angle_beta	90.308082
_cell_angle_gamma	97.070967
loop_
_atom_site_label
_atom_site_type_symbol
_atom_site_fract_x
_atom_site_fract_y
_atom_site_fract_z
Zn1	Zn	1.957921	-0.203137	-0.579045
Zn2	Zn	2.457921	0.296863	-0.079045
Zn3	Zn	1.931025	-0.353948	-0.381655
Zn4	Zn	2.431025	0.146052	0.118345
Zn5	Zn	1.730532	-0.224452	-0.387111
Zn6	Zn	2.230532	0.275548	0.112889
Zn7	Zn	1.737575	-0.352260	-0.607294
Zn8	Zn	2.237575	0.147740	-0.107294
O9	O	1.839263	-0.283449	-0.488776
O10	O	2.339263	0.216551	0.011224
O11	O	2.130476	-0.214929	-0.538756
O12	O	2.630476	0.285071	-0.038756
O13	O	1.890226	-0.346397	-0.207623
O14	O	2.390226	0.153603	0.292377
O15	O	1.769004	-0.105021	-0.403033
O16	O	2.269004	0.394979	0.096967
O17	O	2.110716	-0.325729	-0.393734
O18	O	2.610716	0.174271	0.106266
O19	O	1.936065	-0.089361	-0.544046
O20	O	2.436065	0.410639	-0.044046
O21	O	1.742924	-0.251257	-0.211631
O22	O	2.242924	0.248743	0.288369
O23	O	1.555343	-0.249619	-0.430424
O24	O	2.055343	0.250381	0.069576
O25	O	1.781008	-0.322851	-0.778303
O26	O	2.281008	0.177149	-0.278303
O27	O	1.560518	-0.343519	-0.592192
O28	O	2.060518	0.156481	-0.092192
O29	O	1.942895	-0.213292	-0.757549
O30	O	2.442895	0.286708	-0.257549
O31	O	1.897056	-0.470327	-0.421125
O32	O	2.397056	0.029673	0.078875
O33	O	1.754928	-0.469087	-0.586902
O34	O	2.254928	0.030913	-0.086902
C35	C	1.512264	-0.298700	-0.514966
C36	C	2.012264	0.201300	-0.014966
C37	C	1.372373	-0.305242	-0.526202
C38	C	1.872373	0.194758	-0.026202
C39	C	1.823874	-0.499938	-0.506511
C40	C	2.323874	0.000062	-0.006511
C41	C	1.817409	-0.592545	-0.514131
C42	C	2.317409	-0.092545	-0.014131
C43	C	1.805615	-0.762098	-0.528067
C44	C	2.305615	-0.262098	-0.028067
C45	C	1.873138	-0.803948	-0.449488
C46	C	2.373138	-0.303948	0.050512
C47	C	1.866576	-0.898293	-0.457242
C48	C	2.366576	-0.398293	0.042758
C49	C	1.812176	-0.667744	-0.520315
C50	C	2.312176	-0.167744	-0.020315
C51	C	2.167539	-0.268140	-0.462485
C52	C	2.667539	0.231860	0.037515
C53	C	2.307431	-0.261616	-0.451281
C54	C	2.807431	0.238384	0.048719
C55	C	1.865737	-0.265505	-0.814505
C56	C	2.365737	0.234495	-0.314505
C57	C	1.877019	-0.257859	-0.953311
C58	C	2.377019	0.242141	-0.453311
C59	C	1.854749	-0.066112	-0.470997
C60	C	2.354749	0.433888	0.029003
C61	C	1.861348	0.026504	-0.463420
C62	C	2.361348	0.526504	0.036580
C63	C	1.812969	-0.301259	-0.164304
C64	C	2.312969	0.198741	0.335696
C65	C	1.801948	-0.308660	-0.025460
C66	C	2.301948	0.191340	0.474540
H67	H	1.358852	-0.219261	-0.378542
H68	H	1.858852	0.280739	0.121458
C69	C	1.303589	-0.361650	-0.623159
C70	C	1.803589	0.138350	-0.123159
C71	C	1.173861	-0.357127	-0.615431
C72	C	1.673861	0.142873	-0.115431
C73	C	1.110459	-0.409068	-0.704738
C74	C	1.610459	0.090932	-0.204738
H75	H	1.319460	-0.417673	-0.607721
H76	H	1.819460	0.082327	-0.107721
H77	H	1.332698	-0.343916	-0.704431
H78	H	1.832698	0.156084	-0.204431
H79	H	1.144762	-0.374866	-0.534179
H80	H	1.644762	0.125134	-0.034179
H81	H	1.157952	-0.301117	-0.630883
H82	H	1.657952	0.198883	-0.130883
H83	H	1.139568	-0.391334	-0.786009
H84	H	1.639568	0.108666	-0.286009
H85	H	1.126340	-0.465088	-0.689292
H86	H	1.626340	0.034912	-0.189292
H87	H	1.022434	-0.406001	-0.699514
H88	H	1.522434	0.093999	-0.199514
H89	H	1.742882	-0.797121	-0.601158
H90	H	2.242882	-0.297121	-0.101158
H91	H	1.949930	-0.208516	-0.997738
H92	H	2.449930	0.291484	-0.497738
C93	C	1.956659	-0.757107	-0.352053
C94	C	2.456659	-0.257107	0.147947
C95	C	1.946606	-0.671491	-0.363600
C96	C	2.446606	-0.171491	0.136400
C97	C	2.023504	-0.628314	-0.273853
C98	C	2.523504	-0.128314	0.226147
H99	H	2.041789	-0.766203	-0.364662
H100	H	2.541789	-0.266203	0.135338
H101	H	1.930492	-0.776793	-0.270724
H102	H	2.430492	-0.276793	0.229276
H103	H	1.972780	-0.651812	-0.444910
H104	H	2.472780	-0.151812	0.055090
H105	H	1.861494	-0.662370	-0.350979
H106	H	2.361494	-0.162370	0.149021
H107	H	1.997337	-0.647999	-0.192524
H108	H	2.497337	-0.147999	0.307476
H109	H	2.108629	-0.637416	-0.286470
H110	H	2.608629	-0.137416	0.213530
H111	H	2.016685	-0.570219	-0.281668
H112	H	2.516685	-0.070219	0.218332
C113	C	1.704927	-0.374503	-0.966062
C114	C	2.204927	0.125497	-0.466062
C115	C	1.766372	-0.428648	-0.889808
C116	C	2.266372	0.071352	-0.389808
C117	C	1.677037	-0.489307	-0.835048
C118	C	2.177037	0.010693	-0.335048
H119	H	1.659294	-0.405439	-1.029798
H120	H	2.159294	0.094561	-0.529798
H121	H	1.648287	-0.347981	-0.916884
H122	H	2.148287	0.152019	-0.416884
H123	H	1.822990	-0.455168	-0.938984
H124	H	2.322990	0.044832	-0.438984
H125	H	1.811999	-0.397737	-0.826052
H126	H	2.311999	0.102263	-0.326052
H127	H	1.620397	-0.462786	-0.785869
H128	H	2.120397	0.037214	-0.285869
H129	H	1.631410	-0.520237	-0.898791
H130	H	2.131410	-0.020237	-0.398791
H131	H	1.718714	-0.526048	-0.783294
H132	H	2.218714	-0.026048	-0.283294
