data_functionalizedCrystal
_audit_creation_method	'MofGen! by Chris Wilmer'
_symmetry_space_group_name_H-M	'P1'
_symmetry_Int_Tables_number	1
_symmetry_cell_setting	triclinic
loop_
_symmetry_equiv_pos_as_xyz
  x,y,z
_cell_length_a	14.853566
_cell_length_b	14.853559
_cell_length_c	9.730217
_cell_angle_alpha	89.998938
_cell_angle_beta	90.001438
_cell_angle_gamma	83.632934
loop_
_atom_site_label
_atom_site_type_symbol
_atom_site_fract_x
_atom_site_fract_y
_atom_site_fract_z
O1	O	1.196358	0.117698	-0.114192
O2	O	0.933898	0.131720	-0.114214
O3	O	1.072143	-0.006521	-0.114201
O4	O	1.058113	0.255939	-0.114205
O5	O	1.072138	-0.006523	0.114379
O6	O	0.933894	0.131719	0.114366
O7	O	1.196354	0.117696	0.114388
Zn8	Zn	1.065123	0.124708	0.150669
Zn9	Zn	1.065129	0.124709	-0.150495
O10	O	1.058109	0.255938	0.114375
C11	C	0.900307	0.131085	0.000073
C12	C	0.800223	0.129181	0.000064
C13	C	1.071506	-0.040111	0.000086
C14	C	1.069605	-0.140195	0.000078
C15	C	0.377041	0.121131	-0.124510
C16	C	0.377058	0.121130	0.124696
C17	C	0.471092	0.122918	0.124692
C18	C	0.518105	0.123813	0.000085
C19	C	0.471083	0.122921	-0.124518
C20	C	0.518119	0.123819	0.249293
C21	C	0.612159	0.125607	0.249294
C22	C	0.659174	0.126497	0.124685
C23	C	0.612147	0.125604	0.000077
C24	C	0.659160	0.126499	-0.124531
C25	C	0.612136	0.125600	-0.249140
C26	C	0.518099	0.123810	-0.249127
C27	C	0.753211	0.128286	0.124672
C28	C	0.753202	0.128289	-0.124539
C29	C	1.061544	-0.563369	-0.124521
C30	C	1.061539	-0.563365	0.124685
C31	C	1.063333	-0.469332	0.124687
C32	C	1.064230	-0.422313	0.000082
C33	C	1.063335	-0.469327	-0.124524
C34	C	1.064219	-0.422310	0.249290
C35	C	1.066012	-0.328270	0.249297
C36	C	1.066916	-0.281250	0.124691
C37	C	1.066021	-0.328270	0.000080
C38	C	1.066919	-0.281251	-0.124525
C39	C	1.066031	-0.328270	-0.249138
C40	C	1.064239	-0.422307	-0.249130
C41	C	1.068708	-0.187214	0.124683
C42	C	1.068710	-0.187209	-0.124528
C43	C	1.229945	0.118332	0.000098
C44	C	1.330028	0.120236	0.000097
C45	C	1.058745	0.289528	0.000084
C46	C	1.060646	0.389612	0.000083
N47	N	1.065126	0.124706	0.356205
N48	N	1.065133	0.124704	-0.356032
C49	C	1.187591	0.002328	0.356208
C50	C	1.248830	-0.058858	0.428148
C51	C	1.248839	-0.058859	0.572028
C52	C	1.187601	0.002332	0.643970
C53	C	1.126363	0.063518	0.572029
C54	C	1.126362	0.063514	0.428146
C55	C	1.003894	0.185890	0.572027
C56	C	1.003888	0.185896	0.428148
C57	C	0.942656	0.247080	0.643969
C58	C	0.881420	0.308272	0.572028
C59	C	0.881414	0.308271	0.428140
C60	C	0.942649	0.247083	0.356207
H61	H	0.650425	0.126335	-0.350596
H62	H	1.187598	0.002330	0.239053
H63	H	1.298688	-0.108681	0.369561
H64	H	1.069410	-0.148933	0.226141
H65	H	1.063483	-0.460599	0.350737
H66	H	0.942662	0.247074	0.761124
H67	H	1.063515	-0.460598	-0.350583
C68	C	0.815028	0.374850	0.350110
C69	C	0.829757	0.463472	0.385086
C70	C	0.768627	0.524829	0.313225
H71	H	0.754815	0.365062	0.373635
H72	H	0.823796	0.366153	0.254103
H73	H	0.820982	0.472166	0.481072
H74	H	0.889958	0.473289	0.361558
H75	H	0.777395	0.516132	0.217217
H76	H	0.708418	0.515033	0.336755
H77	H	0.778618	0.584966	0.336936
C78	C	1.066942	-0.277058	0.384441
C79	C	1.068686	-0.184638	0.357775
C80	C	1.069535	-0.137432	0.482235
H81	H	1.119167	-0.299175	0.435742
H82	H	1.014096	-0.285600	0.435647
H83	H	1.121526	-0.176102	0.306590
H84	H	1.016465	-0.162495	0.306494
H85	H	1.016688	-0.145973	0.533442
H86	H	1.121760	-0.159556	0.533527
H87	H	1.070709	-0.074719	0.464160
H88	H	1.187605	0.002320	0.761125
C89	C	0.466874	0.122885	-0.384264
C90	C	0.374455	0.121155	-0.357582
C91	C	0.327234	0.120317	-0.482034
H92	H	0.488978	0.070660	-0.435568
H93	H	0.475419	0.175731	-0.435473
H94	H	0.365917	0.068315	-0.306395
H95	H	0.352325	0.173376	-0.306298
H96	H	0.335779	0.173163	-0.533243
H97	H	0.349345	0.068091	-0.533329
H98	H	0.264522	0.119152	-0.463947
H99	H	0.338750	0.120395	-0.225964
C100	C	1.315421	-0.125334	0.649896
C101	C	1.369059	-0.178912	0.556107
C102	C	1.430408	-0.240153	0.627787
H103	H	1.283052	-0.163006	0.706031
H104	H	1.353035	-0.092855	0.705993
H105	H	1.331450	-0.211389	0.500033
H106	H	1.401448	-0.141265	0.499968
H107	H	1.468022	-0.207673	0.683884
H108	H	1.398031	-0.277819	0.683920
H109	H	1.466814	-0.276507	0.564163
C110	C	0.815040	0.374660	0.650384
C111	C	0.828164	0.361572	0.791784
C112	C	0.767040	0.422722	0.864013
H113	H	0.754823	0.364816	0.626970
H114	H	0.824904	0.434870	0.626890
H115	H	0.818293	0.301377	0.815269
H116	H	0.888369	0.371424	0.815239
H117	H	0.776904	0.482932	0.840519
H118	H	0.706827	0.412873	0.840588
H119	H	0.775942	0.413856	0.959960
H120	H	0.479833	0.123096	0.350742
C121	C	0.804073	0.129307	-0.259976
C122	C	0.742759	0.128159	-0.369090
C123	C	0.789585	0.129109	-0.493873
H124	H	0.847573	0.077491	-0.265354
H125	H	0.833918	0.182560	-0.265235
H126	H	0.712928	0.074911	-0.363833
H127	H	0.699257	0.179971	-0.363757
H128	H	0.819431	0.182363	-0.499132
H129	H	0.833084	0.077293	-0.499237
H130	H	0.747990	0.128339	-0.567922
C131	C	1.069513	-0.136041	-0.259730
C132	C	0.993035	-0.072010	-0.266984
C133	C	0.993737	-0.024855	-0.391509
H134	H	1.068674	-0.177416	-0.334035
H135	H	1.122706	-0.106098	-0.264963
H136	H	0.939856	-0.101952	-0.261765
H137	H	0.993859	-0.030617	-0.192708
H138	H	1.046930	0.005088	-0.396742
H139	H	0.992900	-0.066237	-0.465804
H140	H	0.941852	0.018600	-0.396441
C141	C	1.060413	-0.614288	-0.259901
C142	C	0.983349	-0.581345	-0.335066
C143	C	0.982271	-0.628225	-0.459786
H144	H	1.059166	-0.677032	-0.242235
H145	H	1.113203	-0.605677	-0.311198
H146	H	0.930572	-0.589964	-0.283780
H147	H	0.984579	-0.518606	-0.352768
H148	H	1.035061	-0.619614	-0.511083
H149	H	0.981026	-0.690968	-0.442107
H150	H	0.929988	-0.605874	-0.510807
H151	H	0.942653	0.247079	0.239052
H152	H	0.338774	0.120408	0.226146
H153	H	0.791492	0.129027	0.226127
H154	H	0.650438	0.126338	0.350759
H155	H	1.066755	-0.289974	-0.350591
H156	H	1.060802	-0.601653	0.226133
