data_functionalizedCrystal
_audit_creation_method	'MofGen! by Chris Wilmer'
_symmetry_space_group_name_H-M	'P1'
_symmetry_Int_Tables_number	1
_symmetry_cell_setting	triclinic
loop_
_symmetry_equiv_pos_as_xyz
  x,y,z
_cell_length_a	18.215407
_cell_length_b	18.215405
_cell_length_c	18.215399
_cell_angle_alpha	89.969449
_cell_angle_beta	90.019833
_cell_angle_gamma	89.974667
loop_
_atom_site_label
_atom_site_type_symbol
_atom_site_fract_x
_atom_site_fract_y
_atom_site_fract_z
Zn1	Zn	1.125072	0.292983	0.416103
Zn2	Zn	1.375072	0.542983	0.666103
Zn3	Zn	1.625072	0.792983	0.916103
Zn4	Zn	1.875072	1.042983	1.166103
Zn5	Zn	1.124980	0.416054	0.293031
Zn6	Zn	1.374980	0.666054	0.543031
Zn7	Zn	1.624980	0.916054	0.793031
Zn8	Zn	1.874980	1.166054	1.043031
Zn9	Zn	1.002005	0.293007	0.293050
Zn10	Zn	1.252005	0.543007	0.543050
Zn11	Zn	1.502005	0.793007	0.793050
Zn12	Zn	1.752005	1.043007	1.043050
Zn13	Zn	1.001970	0.416013	0.416056
Zn14	Zn	1.251970	0.666013	0.666056
Zn15	Zn	1.501970	0.916013	0.916056
Zn16	Zn	1.751970	1.166013	1.166056
O17	O	1.063507	0.354514	0.354560
O18	O	1.313507	0.604514	0.604560
O19	O	1.563507	0.854514	0.854560
O20	O	1.813507	1.104514	1.104560
O21	O	1.228044	0.309316	0.399788
O22	O	1.478044	0.559316	0.649788
O23	O	1.728044	0.809316	0.899788
O24	O	1.978044	1.059316	1.149788
O25	O	1.108643	0.399759	0.190049
O26	O	1.358643	0.649759	0.440049
O27	O	1.608643	0.899759	0.690049
O28	O	1.858643	1.149759	0.940049
O29	O	1.018382	0.190020	0.309401
O30	O	1.268382	0.440020	0.559401
O31	O	1.518382	0.690020	0.809401
O32	O	1.768382	0.940020	1.059401
O33	O	1.227977	0.399736	0.309368
O34	O	1.477977	0.649736	0.559368
O35	O	1.727977	0.899736	0.809368
O36	O	1.977977	1.149736	1.059368
O37	O	1.108799	0.190002	0.399807
O38	O	1.358799	0.440002	0.649807
O39	O	1.608799	0.690002	0.899807
O40	O	1.858799	0.940002	1.149807
O41	O	1.018293	0.309357	0.190063
O42	O	1.268293	0.559357	0.440063
O43	O	1.518293	0.809357	0.690063
O44	O	1.768293	1.059357	0.940063
O45	O	0.899016	0.309317	0.309355
O46	O	1.149016	0.559317	0.559355
O47	O	1.399016	0.809317	0.809355
O48	O	1.649016	1.059317	1.059355
O49	O	1.018324	0.399666	0.519046
O50	O	1.268324	0.649666	0.769046
O51	O	1.518324	0.899666	1.019046
O52	O	1.768324	1.149666	1.269046
O53	O	0.898991	0.399689	0.399727
O54	O	1.148991	0.649689	0.649727
O55	O	1.398991	0.899689	0.899727
O56	O	1.648991	1.149689	1.149727
O57	O	1.108766	0.309276	0.519081
O58	O	1.358766	0.559276	0.769081
O59	O	1.608766	0.809276	1.019081
O60	O	1.858766	1.059276	1.269081
O61	O	1.108610	0.519033	0.309322
O62	O	1.358610	0.769033	0.559322
O63	O	1.608610	1.019033	0.809322
O64	O	1.858610	1.269033	1.059322
O65	O	1.018235	0.519003	0.399708
O66	O	1.268235	0.769003	0.649708
O67	O	1.518235	1.019003	0.899708
O68	O	1.768235	1.269003	1.149708
C69	C	0.872301	0.354502	0.354539
C70	C	1.122301	0.604502	0.604539
C71	C	1.372301	0.854502	0.854539
C72	C	1.622301	1.104502	1.104539
C73	C	0.790502	0.354514	0.354547
C74	C	1.040502	0.604514	0.604547
C75	C	1.290502	0.854514	0.854547
C76	C	1.540502	1.104514	1.104547
C77	C	1.063429	0.545721	0.354524
C78	C	1.313429	0.795721	0.604524
C79	C	1.563429	1.045721	0.854524
C80	C	1.813429	1.295721	1.104524
C81	C	1.063463	0.627520	0.354534
C82	C	1.313463	0.877520	0.604534
C83	C	1.563463	1.127520	0.854534
C84	C	1.813463	1.377520	1.104534
C85	C	1.063552	0.354464	0.546513
C86	C	1.313552	0.604464	0.796513
C87	C	1.563552	0.854464	1.046513
C88	C	1.813552	1.104464	1.296513
C89	C	1.063571	0.354442	0.628312
C90	C	1.313571	0.604442	0.878312
C91	C	1.563571	0.854442	1.128312
C92	C	1.813571	1.104442	1.378312
C93	C	0.602314	0.401645	0.401544
C94	C	0.852314	0.651645	0.651544
C95	C	1.102314	0.901645	0.901544
C96	C	1.352314	1.151645	1.151544
C97	C	0.525455	0.401647	0.401554
C98	C	0.775455	0.651647	0.651554
C99	C	1.025455	0.901647	0.901554
C100	C	1.275455	1.151647	1.151554
C101	C	0.525452	0.307397	0.307591
C102	C	0.775452	0.557397	0.557591
C103	C	1.025452	0.807397	0.807591
C104	C	1.275452	1.057397	1.057591
C105	C	0.602309	0.307392	0.307586
C106	C	0.852309	0.557392	0.557586
C107	C	1.102309	0.807392	0.807586
C108	C	1.352309	1.057392	1.057586
C109	C	0.640738	0.354520	0.354562
C110	C	0.890738	0.604520	0.604562
C111	C	1.140738	0.854520	0.854562
C112	C	1.390738	1.104520	1.104562
C113	C	0.487022	0.354528	0.354576
C114	C	0.737022	0.604528	0.604576
C115	C	0.987022	0.854528	0.854576
C116	C	1.237022	1.104528	1.104576
C117	C	0.403688	0.354530	0.354585
C118	C	0.653688	0.604530	0.604585
C119	C	0.903688	0.854530	0.854585
C120	C	1.153688	1.104530	1.104585
C121	C	0.724077	0.354517	0.354553
C122	C	0.974077	0.604517	0.604553
C123	C	1.224077	0.854517	0.854553
C124	C	1.474077	1.104517	1.104553
C125	C	1.255460	0.354528	0.354581
C126	C	1.505460	0.604528	0.604581
C127	C	1.755460	0.854528	0.854581
C128	C	2.005460	1.104528	1.104581
C129	C	1.337259	0.354533	0.354591
C130	C	1.587259	0.604533	0.604591
C131	C	1.837259	0.854533	0.854591
C132	C	2.087259	1.104533	1.104591
C133	C	1.063605	0.162561	0.354611
C134	C	1.313605	0.412561	0.604611
C135	C	1.563605	0.662561	0.854611
C136	C	1.813605	0.912561	1.104611
C137	C	1.063647	0.080763	0.354633
C138	C	1.313647	0.330763	0.604633
C139	C	1.563647	0.580763	0.854633
C140	C	1.813647	0.830763	1.104633
C141	C	1.110632	0.815705	0.307556
C142	C	1.360632	1.065705	0.557556
C143	C	1.610632	1.315705	0.807556
C144	C	1.860632	1.565705	1.057556
C145	C	1.110665	0.892563	0.307574
C146	C	1.360665	1.142563	0.557574
C147	C	1.610665	1.392563	0.807574
C148	C	1.860665	1.642563	1.057574
C149	C	1.016476	0.892572	0.401616
C150	C	1.266476	1.142572	0.651616
C151	C	1.516476	1.392572	0.901616
C152	C	1.766476	1.642572	1.151616
C153	C	1.016447	0.815715	0.401601
C154	C	1.266447	1.065715	0.651601
C155	C	1.516447	1.315715	0.901601
C156	C	1.766447	1.565715	1.151601
C157	C	1.063524	0.777283	0.354567
C158	C	1.313524	1.027283	0.604567
C159	C	1.563524	1.277283	0.854567
C160	C	1.813524	1.527283	1.104567
C161	C	1.063586	0.930999	0.354600
C162	C	1.313586	1.180999	0.604600
C163	C	1.563586	1.430999	0.854600
C164	C	1.813586	1.680999	1.104600
C165	C	1.063621	1.014333	0.354619
C166	C	1.313621	1.264333	0.604619
C167	C	1.563621	1.514333	0.854619
C168	C	1.813621	1.764333	1.104619
C169	C	1.063490	0.693944	0.354548
C170	C	1.313490	0.943944	0.604548
C171	C	1.563490	1.193944	0.854548
C172	C	1.813490	1.443944	1.104548
C173	C	1.063504	0.354512	0.163353
C174	C	1.313504	0.604512	0.413353
C175	C	1.563504	0.854512	0.663353
C176	C	1.813504	1.104512	0.913353
C177	C	1.063628	0.354326	0.081555
C178	C	1.313628	0.604326	0.331555
C179	C	1.563628	0.854326	0.581555
C180	C	1.813628	1.104326	0.831555
C181	C	1.110681	0.307332	0.816525
C182	C	1.360681	0.557332	1.066525
C183	C	1.610681	0.807332	1.316525
C184	C	1.860681	1.057332	1.566525
C185	C	1.110690	0.307311	0.893384
C186	C	1.360690	0.557311	1.143384
C187	C	1.610690	0.807311	1.393384
C188	C	1.860690	1.057311	1.643384
C189	C	1.016513	0.401438	0.893336
C190	C	1.266513	0.651438	1.143336
C191	C	1.516513	0.901438	1.393336
C192	C	1.766513	1.151438	1.643336
C193	C	1.016501	0.401455	0.816479
C194	C	1.266501	0.651455	1.066479
C195	C	1.516501	0.901455	1.316479
C196	C	1.766501	1.151455	1.566479
C197	C	1.063589	0.354403	0.778075
C198	C	1.313589	0.604403	1.028075
C199	C	1.563589	0.854403	1.278075
C200	C	1.813589	1.104403	1.528075
C201	C	1.063610	0.354365	0.931791
C202	C	1.313610	0.604365	1.181791
C203	C	1.563610	0.854365	1.431791
C204	C	1.813610	1.104365	1.681791
C205	C	1.063619	0.354342	1.015125
C206	C	1.313619	0.604342	1.265125
C207	C	1.563619	0.854342	1.515125
C208	C	1.813619	1.104342	1.765125
C209	C	1.063579	0.354425	0.694736
C210	C	1.313579	0.604425	0.944736
C211	C	1.563579	0.854425	1.194736
C212	C	1.813579	1.104425	1.444736
H213	H	0.633601	0.440018	0.439797
H214	H	0.883601	0.690018	0.689797
H215	H	1.133601	0.940018	0.939797
H216	H	1.383601	1.190018	1.189797
H217	H	0.978146	0.923873	0.439908
H218	H	1.228146	1.173873	0.689908
H219	H	1.478146	1.423873	0.939908
H220	H	1.728146	1.673873	1.189908
H221	H	1.148966	0.784415	0.269260
H222	H	1.398966	1.034415	0.519260
H223	H	1.648966	1.284415	0.769260
H224	H	1.898966	1.534415	1.019260
Br225	Br	0.473310	0.465602	0.465322
Br226	Br	0.723310	0.715602	0.715322
Br227	Br	0.973310	0.965602	0.965322
Br228	Br	1.223310	1.215602	1.215322
Br229	Br	1.174585	0.243475	0.764407
Br230	Br	1.424585	0.493475	1.014407
Br231	Br	1.674585	0.743475	1.264407
Br232	Br	1.924585	0.993475	1.514407
H233	H	1.149035	0.268979	0.924686
H234	H	1.399035	0.518979	1.174686
H235	H	1.649035	0.768979	1.424686
H236	H	1.899035	1.018979	1.674686
H237	H	0.978148	0.439786	0.785173
H238	H	1.228148	0.689786	1.035173
H239	H	1.478148	0.939786	1.285173
H240	H	1.728148	1.189786	1.535173
Br241	Br	0.473293	0.243441	0.243841
Br242	Br	0.723293	0.493441	0.493841
Br243	Br	0.973293	0.743441	0.743841
Br244	Br	1.223293	0.993441	0.993841
Br245	Br	0.654461	0.243424	0.243826
Br246	Br	0.904461	0.493424	0.493826
Br247	Br	1.154461	0.743424	0.743826
Br248	Br	1.404461	0.993424	0.993826
H249	H	1.149026	0.923843	0.269294
H250	H	1.399026	1.173843	0.519294
H251	H	1.649026	1.423843	0.769294
H252	H	1.899026	1.673843	1.019294
H253	H	0.978086	0.784430	0.439887
H254	H	1.228086	1.034430	0.689887
H255	H	1.478086	1.284430	0.939887
H256	H	1.728086	1.534430	1.189887
H257	H	0.978177	0.439748	0.924614
H258	H	1.228177	0.689748	1.174614
H259	H	1.478177	0.939748	1.424614
H260	H	1.728177	1.189748	1.674614
