data_functionalizedCrystal
_audit_creation_method	'MofGen! by Chris Wilmer'
_symmetry_space_group_name_H-M	'P1'
_symmetry_Int_Tables_number	1
_symmetry_cell_setting	triclinic
loop_
_symmetry_equiv_pos_as_xyz
  x,y,z
_cell_length_a	19.805407
_cell_length_b	15.297327
_cell_length_c	19.805399
_cell_angle_alpha	80.350583
_cell_angle_beta	90.019573
_cell_angle_gamma	99.707092
loop_
_atom_site_label
_atom_site_type_symbol
_atom_site_fract_x
_atom_site_fract_y
_atom_site_fract_z
Zn1	Zn	0.988098	-0.359189	0.429336
Zn2	Zn	1.321431	-0.025856	0.762670
Zn3	Zn	1.654764	0.307477	1.096003
Zn4	Zn	0.968423	-0.510058	0.335728
Zn5	Zn	1.301757	-0.176725	0.669061
Zn6	Zn	1.635090	0.156608	1.002395
Zn7	Zn	0.874909	-0.359214	0.316164
Zn8	Zn	1.208243	-0.025881	0.649497
Zn9	Zn	1.541576	0.307453	0.982831
Zn10	Zn	0.855293	-0.510010	0.448869
Zn11	Zn	1.188626	-0.176677	0.782202
Zn12	Zn	1.521960	0.156656	1.115535
O13	O	0.921681	-0.434618	0.382524
O14	O	1.255014	-0.101285	0.715858
O15	O	1.588348	0.232049	1.049191
O16	O	1.080203	-0.379212	0.416932
O17	O	1.413537	-0.045879	0.750265
O18	O	1.746870	0.287455	1.083599
O19	O	0.955994	-0.490079	0.238420
O20	O	1.289328	-0.156746	0.571754
O21	O	1.622661	0.176588	0.905087
O22	O	0.906367	-0.232963	0.314814
O23	O	1.239700	0.100371	0.648148
O24	O	1.573034	0.433704	0.981481
O25	O	1.065749	-0.490055	0.348159
O26	O	1.399082	-0.156722	0.681492
O27	O	1.732415	0.176612	1.014825
O28	O	0.989526	-0.232945	0.397962
O29	O	1.322860	0.100389	0.731295
O30	O	1.656193	0.433722	1.064628
O31	O	0.887290	-0.379254	0.224047
O32	O	1.220623	-0.045921	0.557380
O33	O	1.553956	0.287412	0.890713
O34	O	0.777592	-0.379208	0.333754
O35	O	1.110925	-0.045875	0.667088
O36	O	1.444258	0.287459	1.000421
O37	O	0.872934	-0.489973	0.540990
O38	O	1.206267	-0.156640	0.874324
O39	O	1.539601	0.176693	1.207657
O40	O	0.763180	-0.489997	0.431252
O41	O	1.096513	-0.156664	0.764585
O42	O	1.429846	0.176669	1.097919
O43	O	0.970505	-0.379166	0.526640
O44	O	1.303839	-0.045832	0.859973
O45	O	1.637172	0.287501	1.193307
O46	O	0.936973	-0.636300	0.367099
O47	O	1.270307	-0.302967	0.700432
O48	O	1.603640	0.030367	1.033765
O49	O	0.853857	-0.636265	0.450222
O50	O	1.187190	-0.302932	0.783556
O51	O	1.520523	0.030402	1.116889
C52	C	0.745827	-0.434601	0.382500
C53	C	1.079160	-0.101267	0.715833
C54	C	1.412494	0.232066	1.049167
C55	C	0.670593	-0.434615	0.382509
C56	C	1.003927	-0.101282	0.715842
C57	C	1.337260	0.232052	1.049175
C58	C	0.627751	-0.492390	0.433217
C59	C	0.961085	-0.159057	0.766550
C60	C	1.294418	0.174277	1.099884
C61	C	0.557063	-0.492392	0.433227
C62	C	0.890396	-0.159058	0.766560
C63	C	1.223729	0.174275	1.099893
C64	C	0.529217	-0.434622	0.382525
C65	C	0.862550	-0.101289	0.715858
C66	C	1.195883	0.232044	1.049191
C67	C	0.572065	-0.376841	0.331814
C68	C	0.905398	-0.043508	0.665147
C69	C	1.238731	0.289826	0.998481
C70	C	0.642752	-0.376835	0.331808
C71	C	0.976086	-0.043502	0.665141
C72	C	1.309419	0.289831	0.998474
C73	C	0.286989	-0.376861	0.331839
C74	C	0.620322	-0.043528	0.665172
C75	C	0.953655	0.289806	0.998505
C76	C	0.216295	-0.376873	0.331848
C77	C	0.549628	-0.043539	0.665181
C78	C	0.882962	0.289794	0.998515
C79	C	0.201299	-0.492417	0.433258
C80	C	0.534632	-0.159084	0.766591
C81	C	0.867965	0.174250	1.099925
C82	C	0.271987	-0.492412	0.433252
C83	C	0.605320	-0.159078	0.766585
C84	C	0.938653	0.174255	1.099918
C85	C	0.314829	-0.434627	0.382543
C86	C	0.648162	-0.101294	0.715876
C87	C	0.981495	0.232039	1.049210
C88	C	0.391477	-0.434625	0.382534
C89	C	0.724811	-0.101292	0.715867
C90	C	1.058144	0.232042	1.049201
C91	C	0.452569	-0.434628	0.382531
C92	C	0.785902	-0.101295	0.715864
C93	C	1.119235	0.232038	1.049197
C94	C	0.891170	-0.669017	0.412918
C95	C	1.224503	-0.335684	0.746251
C96	C	1.557836	-0.002351	1.079584
C97	C	0.878179	-0.769294	0.425943
C98	C	1.211512	-0.435961	0.759276
C99	C	1.544846	-0.102627	1.092610
C100	C	1.014807	-1.051906	0.289663
C101	C	1.348141	-0.718573	0.622996
C102	C	1.681474	-0.385239	0.956329
C103	C	1.027012	-0.957691	0.277422
C104	C	1.360346	-0.624358	0.610755
C105	C	1.693679	-0.291024	0.944088
C106	C	0.989805	-0.910587	0.314551
C107	C	1.323139	-0.577254	0.647884
C108	C	1.656472	-0.243920	0.981218
C109	C	0.940391	-0.957708	0.363923
C110	C	1.273724	-0.624374	0.697257
C111	C	1.607057	-0.291041	1.030590
C112	C	0.928180	-1.051932	0.376162
C113	C	1.261514	-0.718599	0.709495
C114	C	1.594847	-0.385265	1.042829
C115	C	0.903178	-0.910613	0.401050
C116	C	1.236512	-0.577280	0.734384
C117	C	1.569845	-0.243946	1.067717
C118	C	0.853764	-0.957734	0.450423
C119	C	1.187097	-0.624400	0.783756
C120	C	1.520430	-0.291067	1.117089
C121	C	0.841556	-1.051949	0.462659
C122	C	1.174889	-0.718615	0.795993
C123	C	1.508223	-0.385282	1.129326
C124	C	0.878763	-1.099053	0.425530
C125	C	1.212097	-0.765719	0.758863
C126	C	1.545430	-0.432386	1.092197
C127	C	0.915389	-0.816389	0.388812
C128	C	1.248722	-0.483055	0.722145
C129	C	1.582055	-0.149722	1.055478
C130	C	0.828762	-0.816415	0.475311
C131	C	1.162095	-0.483081	0.808644
C132	C	1.495428	-0.149748	1.141977
C133	C	0.816557	-0.910630	0.487552
C134	C	1.149890	-0.577296	0.820885
C135	C	1.483223	-0.243963	1.154219
C136	C	1.098221	-0.434636	0.382549
C137	C	1.431555	-0.101303	0.715882
C138	C	1.764888	0.232031	1.049216
C139	C	1.173452	-0.434644	0.382559
C140	C	1.506786	-0.101310	0.715893
C141	C	1.840119	0.232023	1.049226
C142	C	0.921726	-0.434561	0.559060
C143	C	1.255060	-0.101228	0.892393
C144	C	1.588393	0.232105	1.225726
C145	C	0.921746	-0.434537	0.634289
C146	C	1.255079	-0.101204	0.967622
C147	C	1.588412	0.232130	1.300955
C148	C	0.952329	-0.199304	0.352027
C149	C	1.285663	0.134030	0.685360
C150	C	1.618996	0.467363	1.018694
C151	C	0.965390	-0.099027	0.339031
C152	C	1.298723	0.234307	0.672364
C153	C	1.632057	0.567640	1.005697
C154	C	0.921683	-0.434610	0.206667
C155	C	1.255016	-0.101276	0.540001
C156	C	1.588350	0.232057	0.873334
C157	C	0.921828	-0.434380	0.131406
C158	C	1.255161	-0.101046	0.464739
C159	C	1.588495	0.232287	0.798072
C160	C	0.972552	-0.376837	0.662161
C161	C	1.305885	-0.043503	0.995495
C162	C	1.639219	0.289830	1.328828
C163	C	0.972562	-0.376810	0.732846
C164	C	1.305896	-0.043477	1.066180
C165	C	1.639229	0.289856	1.399513
C166	C	0.921768	-0.434490	0.775658
C167	C	1.255102	-0.101157	1.108991
C168	C	1.588435	0.232177	1.442325
C169	C	0.870957	-0.492193	0.747781
C170	C	1.204290	-0.158860	1.081114
C171	C	1.537623	0.174474	1.414448
C172	C	0.870944	-0.492214	0.677096
C173	C	1.204277	-0.158881	1.010430
C174	C	1.537611	0.174453	1.343763
C175	C	0.871006	-0.492109	1.032843
C176	C	1.204339	-0.158775	1.366177
C177	C	1.537673	0.174558	1.699510
C178	C	0.871024	-0.492085	1.103533
C179	C	1.204357	-0.158752	1.436866
C180	C	1.537690	0.174581	1.770199
C181	C	0.972624	-0.376705	1.088593
C182	C	1.305958	-0.043372	1.421927
C183	C	1.639291	0.289961	1.755260
C184	C	0.972612	-0.376726	1.017909
C185	C	1.305945	-0.043393	1.351242
C186	C	1.639278	0.289940	1.684575
C187	C	0.921798	-0.434426	0.990037
C188	C	1.255132	-0.101092	1.323371
C189	C	1.588465	0.232241	1.656704
C190	C	0.921787	-0.434452	0.913392
C191	C	1.255120	-0.101119	1.246726
C192	C	1.588453	0.232215	1.580059
C193	C	0.921782	-0.434469	0.852303
C194	C	1.255115	-0.101135	1.185636
C195	C	1.588449	0.232198	1.518969
H196	H	0.677635	-0.329784	0.290519
H197	H	1.010968	0.003549	0.623852
H198	H	1.344302	0.336882	0.957185
H199	H	0.294654	-0.539456	0.474536
H200	H	0.627987	-0.206123	0.807870
H201	H	0.961321	0.127210	1.141203
O202	O	0.816166	-0.554402	0.793951
O203	O	1.149499	-0.221068	1.127284
O204	O	1.482832	0.112265	1.460618
H205	H	0.824712	-0.544700	0.847786
H206	H	1.158045	-0.211366	1.181120
H207	H	1.491378	0.121967	1.514453
H208	H	0.776322	-0.949009	0.527751
H209	H	1.109656	-0.615675	0.861085
H210	H	1.442989	-0.282342	1.194418
H211	H	0.798463	-0.778063	0.505543
H212	H	1.131796	-0.444730	0.838877
H213	H	1.465130	-0.111397	1.172210
H214	H	0.166408	-0.539464	0.474549
H215	H	0.499742	-0.206131	0.807883
H216	H	0.833075	0.127202	1.141216
O217	O	0.186258	-0.314554	0.277165
O218	O	0.519591	0.018779	0.610499
O219	O	0.852925	0.352113	0.943832
H220	H	0.227925	-0.274364	0.241908
H221	H	0.561258	0.058970	0.575241
H222	H	0.894592	0.392303	0.908574
O223	O	1.080310	-0.906878	0.224176
O224	O	1.413643	-0.573544	0.557509
O225	O	1.746977	-0.240211	0.890842
H226	H	1.055589	-0.864021	0.184140
H227	H	1.388922	-0.530688	0.517473
H228	H	1.722255	-0.197354	0.850806
O229	O	1.002957	-0.808969	0.301348
O230	O	1.336291	-0.475636	0.634682
O231	O	1.669624	-0.142302	0.968015
H232	H	1.019829	-0.784063	0.349178
H233	H	1.353162	-0.450730	0.682511
H234	H	1.686495	-0.117397	1.015844
O235	O	0.968692	-0.765566	0.335574
O236	O	1.302025	-0.432233	0.668907
O237	O	1.635358	-0.098900	1.002241
H238	H	0.954772	-0.783707	0.284796
H239	H	1.288105	-0.450373	0.618129
H240	H	1.621439	-0.117040	0.951462
O241	O	1.054951	-1.102706	0.249636
O242	O	1.388285	-0.769373	0.582969
O243	O	1.721618	-0.436040	0.916303
H244	H	1.038166	-1.176138	0.266450
H245	H	1.371500	-0.842805	0.599784
H246	H	1.704833	-0.509471	0.933117
H247	H	1.013997	-0.329721	1.111294
H248	H	1.347330	0.003613	1.444627
H249	H	1.680664	0.336946	1.777961
H250	H	1.013916	-0.329870	0.627308
H251	H	1.347250	0.003463	0.960642
H252	H	1.680583	0.336797	1.293975
O253	O	0.333190	-0.314568	0.277132
O254	O	0.666523	0.018765	0.610465
O255	O	0.999856	0.352098	0.943798
H256	H	0.301946	-0.274417	0.241869
H257	H	0.635280	0.058917	0.575202
H258	H	0.968613	0.392250	0.908535
H259	H	1.013936	-0.329827	0.755537
H260	H	1.347269	0.003506	1.088870
H261	H	1.680602	0.336840	1.422203
H262	H	0.829658	-0.539057	1.138389
H263	H	1.162991	-0.205723	1.471722
H264	H	1.496324	0.127610	1.805056
H265	H	0.868830	-1.175770	0.435496
H266	H	1.202163	-0.842437	0.768829
H267	H	1.535497	-0.509104	1.102162
O268	O	1.027400	-0.314516	0.971737
O269	O	1.360734	0.018818	1.305070
O270	O	1.694067	0.352151	1.638404
H271	H	1.018859	-0.324231	0.917904
H272	H	1.352193	0.009102	1.251237
H273	H	1.685526	0.342436	1.584570
O274	O	0.542033	-0.314552	0.277112
O275	O	0.875367	0.018781	0.610445
O276	O	1.208700	0.352114	0.943778
H277	H	0.485680	-0.324276	0.285624
H278	H	0.819013	0.009057	0.618958
H279	H	1.152347	0.342391	0.952291
O280	O	0.816175	-0.554292	1.002779
O281	O	1.149508	-0.220959	1.336112
O282	O	1.482841	0.112375	1.669445
H283	H	0.780851	-0.594383	1.044424
H284	H	1.114185	-0.261050	1.377757
H285	H	1.447518	0.072284	1.711091
O286	O	0.816136	-0.554438	0.647032
O287	O	1.149469	-0.221105	0.980366
O288	O	1.482803	0.112229	1.313699
H289	H	0.818517	-0.625246	0.669769
H290	H	1.151850	-0.291913	1.003103
H291	H	1.485184	0.041420	1.336436
H292	H	0.650417	-0.539436	0.474502
H293	H	0.983750	-0.206102	0.807836
H294	H	1.317084	0.127231	1.141169
H295	H	0.801311	-1.090312	0.502854
H296	H	1.134645	-0.756978	0.836187
H297	H	1.467978	-0.423645	1.169520
H298	H	0.522183	-0.539439	0.474518
H299	H	0.855516	-0.206105	0.807851
H300	H	1.188850	0.127228	1.141184
