data_functionalizedCrystal
_audit_creation_method	'MofGen! by Chris Wilmer'
_symmetry_space_group_name_H-M	'P1'
_symmetry_Int_Tables_number	1
_symmetry_cell_setting	triclinic
loop_
_symmetry_equiv_pos_as_xyz
  x,y,z
_cell_length_a	16.120530
_cell_length_b	19.077068
_cell_length_c	19.076919
_cell_angle_alpha	94.470751
_cell_angle_beta	90.500157
_cell_angle_gamma	90.462149
loop_
_atom_site_label
_atom_site_type_symbol
_atom_site_fract_x
_atom_site_fract_y
_atom_site_fract_z
Zn1	Zn	1.235622	0.351862	0.464893
Zn2	Zn	1.735622	0.851862	0.964893
Zn3	Zn	1.235519	0.465010	0.351733
Zn4	Zn	1.735519	0.965010	0.851733
Zn5	Zn	1.102611	0.341206	0.341097
Zn6	Zn	1.602611	0.841206	0.841097
Zn7	Zn	1.090943	0.463251	0.463136
Zn8	Zn	1.590943	0.963251	0.963136
O9	O	1.166174	0.405332	0.405215
O10	O	1.666174	0.905332	0.905215
O11	O	1.351779	0.372067	0.455068
O12	O	1.851779	0.872067	0.955068
O13	O	1.222729	0.444865	0.251890
O14	O	1.722729	0.944865	0.751890
O15	O	1.125182	0.244190	0.353803
O16	O	1.625182	0.744190	0.853803
O17	O	1.351704	0.455197	0.371930
O18	O	1.851704	0.955197	0.871930
O19	O	1.222904	0.252019	0.444755
O20	O	1.722904	0.752019	0.944755
O21	O	1.125082	0.353906	0.244077
O22	O	1.625082	0.853906	0.744077
O23	O	0.984893	0.352200	0.352100
O24	O	1.484893	0.852200	0.852100
O25	O	1.105295	0.452198	0.561800
O26	O	1.605295	0.952198	1.061800
O27	O	0.976320	0.441866	0.441761
O28	O	1.476320	0.941866	0.941761
O29	O	1.211590	0.370361	0.563091
O30	O	1.711590	0.870361	1.063091
O31	O	1.211415	0.563206	0.370226
O32	O	1.711415	1.063206	0.870226
O33	O	1.105196	0.561914	0.452074
O34	O	1.605196	1.061914	0.952074
C35	C	1.157050	0.588083	0.412130
C36	C	1.657050	1.088083	0.912130
C37	C	1.153221	0.666269	0.415115
C38	C	1.653221	1.166269	0.915115
C39	C	0.950485	0.395686	0.395586
C40	C	1.450485	0.895686	0.895586
C41	C	0.858210	0.391577	0.391484
C42	C	1.358210	0.891577	0.891484
C43	C	1.157153	0.412272	0.588681
C44	C	1.657153	0.912272	1.088681
C45	C	1.153308	0.415229	0.666864
C46	C	1.653308	0.915229	1.166864
C47	C	0.689263	0.384058	0.384001
C48	C	1.189263	0.884058	0.884001
C49	C	0.643920	0.426660	0.426481
C50	C	1.143920	0.926660	0.926481
C51	C	0.549913	0.422477	0.422318
C52	C	1.049913	0.922477	0.922318
C53	C	0.783280	0.388241	0.388164
C54	C	1.283280	0.888241	0.888164
C55	C	1.382706	0.415017	0.414881
C56	C	1.882706	0.915017	0.914881
C57	C	1.474979	0.419144	0.419000
C58	C	1.974979	0.919144	0.919000
C59	C	1.175356	0.221869	0.398289
C60	C	1.675356	0.721869	0.898289
C61	C	1.179269	0.143688	0.395338
C62	C	1.679269	0.643688	0.895338
C63	C	1.206765	0.703654	0.373943
C64	C	1.706765	1.203654	0.873943
C65	C	1.203168	0.777118	0.376755
C66	C	1.703168	1.277118	0.876755
C67	C	1.146024	0.813196	0.420736
C68	C	1.646024	1.313196	0.920736
C69	C	1.092478	0.775806	0.461912
C70	C	1.592478	1.275806	0.961912
C71	C	1.096079	0.702343	0.459104
C72	C	1.596079	1.202343	0.959104
C73	C	1.129324	1.032836	0.433705
C74	C	1.629324	1.532836	0.933705
C75	C	1.125725	1.106304	0.436509
C76	C	1.625725	1.606304	0.936509
C77	C	1.236417	1.107611	0.351353
C78	C	1.736417	1.607611	0.851353
C79	C	1.240009	1.034146	0.348545
C80	C	1.740009	1.534146	0.848545
C81	C	1.186467	0.996763	0.389724
C82	C	1.686467	1.496763	0.889724
N83	N	1.142345	0.888288	0.423610
N84	N	1.642345	1.388288	0.923610
N85	N	1.190150	0.921673	0.386853
N86	N	1.690150	1.421673	0.886853
C87	C	1.175211	0.398371	0.222462
C88	C	1.675211	0.898371	0.722462
C89	C	1.179226	0.395223	0.144279
C90	C	1.679226	0.895223	0.644279
C91	C	1.206841	0.374012	0.704267
C92	C	1.706841	0.874012	1.204267
C93	C	1.203219	0.376787	0.777728
C94	C	1.703219	0.876787	1.277728
C95	C	1.146067	0.420784	0.813784
C96	C	1.646067	0.920784	1.313784
C97	C	1.092528	0.462002	0.776375
C98	C	1.592528	0.962002	1.276375
C99	C	1.096147	0.459223	0.702916
C100	C	1.596147	0.959223	1.202916
C101	C	1.129306	0.433662	1.033411
C102	C	1.629306	0.933662	1.533411
C103	C	1.125693	0.436440	1.106876
C104	C	1.625693	0.936440	1.606876
C105	C	1.236383	0.351224	1.108223
C106	C	1.736383	0.851224	1.608223
C107	C	1.240000	0.348451	1.034763
C108	C	1.740000	0.848451	1.534763
C109	C	1.186458	0.389667	0.997360
C110	C	1.686458	0.889667	1.497360
N111	N	1.142365	0.423623	0.888872
N112	N	1.642365	0.923623	1.388872
N113	N	1.190157	0.386823	0.922273
N114	N	1.690157	0.886823	1.422273
H115	H	0.675703	0.466273	0.465978
H116	H	1.175703	0.966273	0.965978
H117	H	0.657483	0.344448	0.344508
H118	H	1.157483	0.844448	0.844508
Br119	Br	1.309082	1.158349	0.295473
Br120	Br	1.809082	1.658349	0.795473
H121	H	1.085726	1.002404	0.467234
H122	H	1.585726	1.502404	0.967234
Br123	Br	1.275843	0.827853	0.320881
Br124	Br	1.775843	1.327853	0.820881
Br125	Br	1.284314	0.654698	0.314245
Br126	Br	1.784314	1.154698	0.814245
Br127	Br	1.048122	0.496151	1.155808
Br128	Br	1.548122	0.996151	1.655808
Br129	Br	1.014931	0.824768	0.521608
Br130	Br	1.514931	1.324768	1.021608
H131	H	1.286541	1.004773	0.312732
H132	H	1.786541	1.504773	0.812732
Br133	Br	1.023415	0.651606	0.514987
Br134	Br	1.523415	1.151606	1.014987
H135	H	1.079201	1.135677	0.472337
H136	H	1.579201	1.635677	0.972337
Br137	Br	1.284415	0.314305	0.655342
Br138	Br	1.784415	0.814305	1.155342
H139	H	1.246813	0.343226	0.808179
H140	H	1.746813	0.843226	1.308179
Br141	Br	1.317569	0.288742	0.985835
Br142	Br	1.817569	0.788742	1.485835
H143	H	1.279972	0.317667	1.138684
H144	H	1.779972	0.817667	1.638684
H145	H	1.085720	0.467234	1.002968
H146	H	1.585720	0.967234	1.502968
Br147	Br	1.014959	0.521708	0.825307
Br148	Br	1.514959	1.021708	1.325307
H149	H	1.052547	0.492779	0.672462
H150	H	1.552547	0.992779	1.172462
