data_functionalizedCrystal
_audit_creation_method	'MofGen! by Chris Wilmer'
_symmetry_space_group_name_H-M	'P1'
_symmetry_Int_Tables_number	1
_symmetry_cell_setting	triclinic
loop_
_symmetry_equiv_pos_as_xyz
  x,y,z
_cell_length_a	13.897448
_cell_length_b	19.805407
_cell_length_c	19.805399
_cell_angle_alpha	89.978936
_cell_angle_beta	90.025019
_cell_angle_gamma	89.983323
loop_
_atom_site_label
_atom_site_type_symbol
_atom_site_fract_x
_atom_site_fract_y
_atom_site_fract_z
Zn1	Zn	-0.384063	-1.034777	0.382759
Zn2	Zn	-0.050730	-0.701443	0.716092
Zn3	Zn	0.282603	-0.368110	1.049425
Zn4	Zn	-0.545369	-1.034709	0.269575
Zn5	Zn	-0.212036	-0.701375	0.602909
Zn6	Zn	0.121297	-0.368042	0.936242
Zn7	Zn	-0.384087	-0.921591	0.269580
Zn8	Zn	-0.050754	-0.588258	0.602914
Zn9	Zn	0.282580	-0.254925	0.936247
Zn10	Zn	-0.545315	-0.921572	0.382719
Zn11	Zn	-0.211982	-0.588239	0.716053
Zn12	Zn	0.121351	-0.254905	1.049386
O13	O	-0.464709	-0.978162	0.326158
O14	O	-0.131375	-0.644829	0.659492
O15	O	0.201958	-0.311496	0.992825
O16	O	-0.405474	-1.129484	0.367759
O17	O	-0.072140	-0.796151	0.701092
O18	O	0.261193	-0.462818	1.034426
O19	O	-0.524007	-1.019683	0.174859
O20	O	-0.190674	-0.686350	0.508193
O21	O	0.142659	-0.353016	0.841526
O22	O	-0.249102	-0.936642	0.284612
O23	O	0.084231	-0.603309	0.617945
O24	O	0.417564	-0.269975	0.951279
O25	O	-0.523984	-1.129434	0.284604
O26	O	-0.190651	-0.796101	0.617937
O27	O	0.142682	-0.462768	0.951271
O28	O	-0.249085	-1.019799	0.367764
O29	O	0.084248	-0.686466	0.701097
O30	O	0.417582	-0.353132	1.034430
O31	O	-0.405514	-0.936576	0.174863
O32	O	-0.072181	-0.603243	0.508196
O33	O	0.261153	-0.269910	0.841530
O34	O	-0.405462	-0.826872	0.284574
O35	O	-0.072128	-0.493539	0.617907
O36	O	0.261205	-0.160206	0.951241
O37	O	-0.523892	-0.936609	0.477441
O38	O	-0.190559	-0.603276	0.810774
O39	O	0.142774	-0.269943	1.144108
O40	O	-0.523915	-0.826858	0.367697
O41	O	-0.190582	-0.493525	0.701030
O42	O	0.142751	-0.160191	1.034363
O43	O	-0.405421	-1.019780	0.477470
O44	O	-0.072088	-0.686447	0.810803
O45	O	0.261246	-0.353114	1.144137
O46	O	-0.680344	-1.019664	0.284566
O47	O	-0.347010	-0.686331	0.617899
O48	O	-0.013677	-0.352998	0.951232
O49	O	-0.680304	-0.936543	0.367692
O50	O	-0.346971	-0.603210	0.701025
O51	O	-0.013637	-0.269877	1.034359
C52	C	-0.715323	-0.978113	0.326139
C53	C	-0.381990	-0.644779	0.659472
C54	C	-0.048656	-0.311446	0.992805
C55	C	-0.822537	-0.978154	0.326153
C56	C	-0.489204	-0.644820	0.659486
C57	C	-0.155870	-0.311487	0.992820
C58	C	-0.464686	-0.802306	0.326132
C59	C	-0.131353	-0.468973	0.659465
C60	C	0.201981	-0.135640	0.992799
C61	C	-0.464699	-0.727074	0.326137
C62	C	-0.131366	-0.393741	0.659470
C63	C	0.201967	-0.060408	0.992803
C64	C	-0.464648	-0.978200	0.502701
C65	C	-0.131315	-0.644867	0.836035
C66	C	0.202019	-0.311533	1.169368
C67	C	-0.464622	-0.978216	0.577933
C68	C	-0.131289	-0.644883	0.911267
C69	C	0.202045	-0.311550	1.244600
C70	C	-1.018832	-0.978225	0.326196
C71	C	-0.685499	-0.644891	0.659529
C72	C	-0.352165	-0.311558	0.992862
C73	C	-0.909600	-0.978183	0.326174
C74	C	-0.576266	-0.644850	0.659507
C75	C	-0.242933	-0.311517	0.992841
C76	C	-0.213116	-0.978230	0.326193
C77	C	0.120218	-0.644897	0.659526
C78	C	0.453551	-0.311564	0.992860
C79	C	-0.105902	-0.978259	0.326208
C80	C	0.227432	-0.644926	0.659541
C81	C	0.560765	-0.311593	0.992874
C82	C	-0.526470	-0.691740	0.369348
C83	C	-0.193137	-0.358407	0.702681
C84	C	0.140197	-0.025074	1.036014
C85	C	-0.526470	-0.621052	0.369355
C86	C	-0.193137	-0.287719	0.702689
C87	C	0.140197	0.045615	1.036022
C88	C	-0.464703	-0.585699	0.326148
C89	C	-0.131370	-0.252365	0.659482
C90	C	0.201963	0.080968	0.992815
C91	C	-0.402926	-0.621037	0.282935
C92	C	-0.069592	-0.287704	0.616269
C93	C	0.263741	0.045629	0.949602
C94	C	-0.402922	-0.691725	0.282931
C95	C	-0.069588	-0.358391	0.616265
C96	C	0.263745	-0.025058	0.949598
C97	C	-0.402940	-0.335964	0.282950
C98	C	-0.069606	-0.002631	0.616284
C99	C	0.263727	0.330703	0.949617
C100	C	-0.402951	-0.265272	0.282956
C101	C	-0.069617	0.068061	0.616289
C102	C	0.263716	0.401395	0.949623
C103	C	-0.526488	-0.265292	0.369374
C104	C	-0.193155	0.068042	0.702707
C105	C	0.140179	0.401375	1.036041
C106	C	-0.526484	-0.335979	0.369370
C107	C	-0.193151	-0.002645	0.702704
C108	C	0.140183	0.330688	1.036037
C109	C	-0.464703	-0.371311	0.326160
C110	C	-0.131370	-0.037978	0.659494
C111	C	0.201963	0.295355	0.992827
C112	C	-0.464703	-0.447960	0.326153
C113	C	-0.131370	-0.114626	0.659487
C114	C	0.201964	0.218707	0.992820
C115	C	-0.464708	-0.509051	0.326151
C116	C	-0.131375	-0.175718	0.659485
C117	C	0.201959	0.157615	0.992818
C118	C	-0.464726	-0.154705	0.326179
C119	C	-0.131393	0.178628	0.659512
C120	C	0.201941	0.511962	0.992845
C121	C	-0.464717	-0.229937	0.326171
C122	C	-0.131384	0.103396	0.659504
C123	C	0.201949	0.436730	0.992837
C124	C	-0.464700	-0.978163	0.150302
C125	C	-0.131366	-0.644830	0.483636
C126	C	0.201967	-0.311497	0.816969
C127	C	-0.464454	-0.978278	0.075071
C128	C	-0.131120	-0.644945	0.408404
C129	C	0.202213	-0.311612	0.741737
C130	C	-0.402931	-1.021524	0.613294
C131	C	-0.069598	-0.688191	0.946627
C132	C	0.263735	-0.354858	1.279960
C133	C	-0.402903	-1.021531	0.683982
C134	C	-0.069570	-0.688198	1.017315
C135	C	0.263763	-0.354865	1.350649
C136	C	-0.464572	-0.978233	0.719309
C137	C	-0.131238	-0.644900	1.052642
C138	C	0.202095	-0.311566	1.385976
C139	C	-0.526265	-0.934920	0.683944
C140	C	-0.192932	-0.601587	1.017277
C141	C	0.140401	-0.268254	1.350610
C142	C	-0.526288	-0.934910	0.613256
C143	C	-0.192954	-0.601577	0.946590
C144	C	0.140379	-0.268244	1.279923
C145	C	-0.526175	-0.934958	0.969017
C146	C	-0.192842	-0.601625	1.302350
C147	C	0.140491	-0.268292	1.635684
C148	C	-0.526150	-0.934973	1.039709
C149	C	-0.192817	-0.601640	1.373043
C150	C	0.140516	-0.268306	1.706376
C151	C	-0.402791	-1.021579	1.039743
C152	C	-0.069458	-0.688246	1.373076
C153	C	0.263876	-0.354913	1.706409
C154	C	-0.402813	-1.021570	0.969055
C155	C	-0.069480	-0.688236	1.302389
C156	C	0.263853	-0.354903	1.635722
C157	C	-0.464503	-0.978255	0.933696
C158	C	-0.131170	-0.644921	1.267030
C159	C	0.202164	-0.311588	1.600363
C160	C	-0.464531	-0.978247	0.857048
C161	C	-0.131198	-0.644913	1.190381
C162	C	0.202135	-0.311580	1.523715
C163	C	-0.464549	-0.978244	0.795956
C164	C	-0.131216	-0.644911	1.129289
C165	C	0.202118	-0.311577	1.462623
H166	H	-0.576771	-0.720520	0.404530
H167	H	-0.243438	-0.387187	0.737863
H168	H	0.089896	-0.053853	1.071197
Br169	Br	-0.319066	-1.080365	1.087734
Br170	Br	0.014267	-0.747031	1.421067
Br171	Br	0.347601	-0.413698	1.754400
H172	H	-0.576789	-0.236515	0.404560
H173	H	-0.243456	0.096818	0.737894
H174	H	0.089877	0.430151	1.071227
H175	H	-0.352647	-0.236489	0.247771
H176	H	-0.019313	0.096844	0.581105
H177	H	0.314020	0.430177	0.914438
H178	H	-0.352630	-0.592247	0.247758
H179	H	-0.019297	-0.258914	0.581091
H180	H	0.314037	0.074420	0.914425
H181	H	-0.576421	-0.899699	0.940236
H182	H	-0.243088	-0.566365	1.273570
H183	H	0.090246	-0.233032	1.606903
H184	H	-0.576370	-0.899712	1.068470
H185	H	-0.243037	-0.566378	1.401804
H186	H	0.090296	-0.233045	1.735137
H187	H	-0.576513	-0.899638	0.584467
H188	H	-0.243180	-0.566304	0.917800
H189	H	0.090153	-0.232971	1.251134
Br190	Br	-0.319241	-1.080295	0.565357
Br191	Br	0.014093	-0.746962	0.898690
Br192	Br	0.347426	-0.413628	1.232023
H193	H	-0.352641	-0.364723	0.247761
H194	H	-0.019308	-0.031390	0.581094
H195	H	0.314025	0.301943	0.914427
Br196	Br	-0.610303	-0.573101	0.428003
Br197	Br	-0.276970	-0.239768	0.761337
Br198	Br	0.056364	0.093565	1.094670
H199	H	-0.352671	-1.056799	0.712769
H200	H	-0.019337	-0.723465	1.046103
H201	H	0.313996	-0.390132	1.379436
Br202	Br	-0.319081	-0.739679	0.224289
Br203	Br	0.014252	-0.406345	0.557623
Br204	Br	0.347585	-0.073012	0.890956
Br205	Br	-0.610319	-0.383955	0.428007
Br206	Br	-0.276986	-0.050621	0.761340
Br207	Br	0.056348	0.282712	1.094673
Br208	Br	-0.319123	-1.080337	0.921115
Br209	Br	0.014211	-0.747004	1.254449
Br210	Br	0.347544	-0.413670	1.587782
H211	H	-0.576473	-0.899664	0.712712
H212	H	-0.243140	-0.566330	1.046046
H213	H	0.090193	-0.232997	1.379379
