data_functionalizedCrystal
_audit_creation_method	'MofGen! by Chris Wilmer'
_symmetry_space_group_name_H-M	'P1'
_symmetry_Int_Tables_number	1
_symmetry_cell_setting	triclinic
loop_
_symmetry_equiv_pos_as_xyz
  x,y,z
_cell_length_a	17.077404
_cell_length_b	12.827891
_cell_length_c	12.827893
_cell_angle_alpha	89.994485
_cell_angle_beta	90.007807
_cell_angle_gamma	89.972752
loop_
_atom_site_label
_atom_site_type_symbol
_atom_site_fract_x
_atom_site_fract_y
_atom_site_fract_z
Zn1	Zn	1.199916	0.416264	0.590968
Zn2	Zn	1.699916	0.916264	1.090968
Zn3	Zn	1.199840	0.590972	0.416233
Zn4	Zn	1.699840	1.090972	0.916233
Zn5	Zn	1.068679	0.416241	0.416230
Zn6	Zn	1.568679	0.916241	0.916230
Zn7	Zn	1.068601	0.590958	0.590922
Zn8	Zn	1.568601	1.090958	1.090922
O9	O	1.134259	0.503609	0.503588
O10	O	1.634259	1.003609	1.003588
O11	O	1.309752	0.439455	0.567810
O12	O	1.809752	0.939455	1.067810
O13	O	1.182442	0.567790	0.269997
O14	O	1.682442	1.067790	0.769997
O15	O	1.086151	0.270008	0.439427
O16	O	1.586151	0.770008	0.939427
O17	O	1.309697	0.567813	0.439433
O18	O	1.809697	1.067813	0.939433
O19	O	1.182571	0.270025	0.567806
O20	O	1.682571	0.770025	1.067806
O21	O	1.086078	0.439415	0.269994
O22	O	1.586078	0.939415	0.769994
O23	O	0.958821	0.439402	0.439382
O24	O	1.458821	0.939402	0.939382
O25	O	1.086020	0.567788	0.737164
O26	O	1.586020	1.067788	1.237164
O27	O	0.958765	0.567766	0.567728
O28	O	1.458765	1.067766	1.067728
O29	O	1.182496	0.439441	0.737198
O30	O	1.682496	0.939441	1.237198
O31	O	1.182367	0.737207	0.439388
O32	O	1.682367	1.237207	0.939388
O33	O	1.085946	0.737196	0.567731
O34	O	1.585946	1.237196	1.067731
C35	C	0.930311	0.503580	0.503550
C36	C	1.430311	1.003580	1.003550
C37	C	0.843061	0.503593	0.503559
C38	C	1.343061	1.003593	1.003559
C39	C	0.467273	0.436922	0.570579
C40	C	0.967273	0.936922	1.070579
C41	C	0.549253	0.436914	0.570567
C42	C	1.049253	0.936914	1.070567
C43	C	0.590212	0.503631	0.503614
C44	C	1.090212	1.003631	1.003614
C45	C	0.549187	0.570367	0.436676
C46	C	1.049187	1.070367	0.936676
C47	C	0.467208	0.570379	0.436694
C48	C	0.967208	1.070379	0.936694
C49	C	0.720057	0.570335	0.436643
C50	C	1.220057	1.070335	0.936643
C51	C	0.802041	0.570322	0.436623
C52	C	1.302041	1.070322	0.936623
C53	C	0.802102	0.436871	0.570516
C54	C	1.302102	0.936871	1.070516
C55	C	0.720123	0.436883	0.570533
C56	C	1.220123	0.936883	1.070533
C57	C	0.679103	0.503617	0.503594
C58	C	1.179103	1.003617	1.003594
C59	C	1.134161	0.775119	0.503578
C60	C	1.634161	1.275119	1.003578
C61	C	1.134191	0.891272	0.503609
C62	C	1.634191	1.391272	1.003609
C63	C	1.086570	1.063176	0.440084
C64	C	1.586570	1.563176	0.940084
C65	C	1.086538	0.943125	0.440051
C66	C	1.586538	1.443125	0.940051
C67	C	1.339003	0.503638	0.503627
C68	C	1.839003	1.003638	1.003627
C69	C	1.426253	0.503650	0.503643
C70	C	1.926253	1.003650	1.003643
C71	C	1.134333	1.231039	0.503630
C72	C	1.634333	1.731039	1.003630
C73	C	1.134251	1.114885	0.503669
C74	C	1.634251	1.614885	1.003669
C75	C	1.134258	0.503615	0.776158
C76	C	1.634258	1.003615	1.276158
C77	C	1.134257	0.503618	0.892311
C78	C	1.634257	1.003618	1.392311
C79	C	1.181934	0.567138	1.064142
C80	C	1.681934	1.067138	1.564142
C81	C	1.181935	0.567137	0.944091
C82	C	1.681935	1.067137	1.444091
C83	C	1.134254	0.503625	1.232078
C84	C	1.634254	1.003625	1.732078
C85	C	1.134255	0.503622	1.115925
C86	C	1.634255	1.003622	1.615925
H87	H	0.686661	0.624682	0.382138
H88	H	1.186661	1.124682	0.882138
C89	C	0.422086	0.643778	0.363063
C90	C	0.922086	1.143778	0.863063
H91	H	0.458219	0.683504	0.323179
H92	H	0.958219	1.183504	0.823179
H93	H	0.390102	0.689378	0.402967
H94	H	0.890102	1.189378	0.902967
H95	H	0.390107	0.603728	0.317602
H96	H	0.890107	1.103728	0.817602
C97	C	1.031388	0.883064	0.366506
C98	C	1.531388	1.383064	0.866506
H99	H	1.001499	0.931170	0.326631
H100	H	1.501499	1.431170	0.826631
H101	H	0.997180	0.840505	0.406462
H102	H	1.497180	1.340505	0.906462
H103	H	1.061467	0.840472	0.321033
H104	H	1.561467	1.340472	0.821033
C105	C	0.422221	0.363534	0.644225
C106	C	0.922221	0.863534	1.144225
H107	H	0.367522	0.373089	0.634644
H108	H	0.867522	0.873089	1.134644
H109	H	0.435668	0.378939	0.714409
H110	H	0.935668	0.878939	1.214409
H111	H	0.435674	0.293290	0.629042
H112	H	0.935674	0.793290	1.129042
C113	C	1.189346	0.951326	0.577154
C114	C	1.689346	1.451326	1.077154
H115	H	1.219243	0.903220	0.617018
H116	H	1.719243	1.403220	1.117018
H117	H	1.159275	0.993926	0.622620
H118	H	1.659275	1.493926	1.122620
H119	H	1.223558	0.993877	0.537186
H120	H	1.723558	1.493877	1.037186
C121	C	1.237079	0.640602	1.124305
C122	C	1.737079	1.140602	1.624305
H123	H	1.229848	0.630960	1.197100
H124	H	1.729848	1.130960	1.697100
H125	H	1.225577	0.710830	1.106459
H126	H	1.725577	1.210830	1.606459
H127	H	1.289843	0.625321	1.106482
H128	H	1.789843	1.125321	1.606482
C129	C	1.237080	0.640603	0.883940
C130	C	1.737080	1.140603	1.383940
H131	H	1.229842	0.630970	0.811144
H132	H	1.729842	1.130970	1.311144
H133	H	1.289841	0.625338	0.901788
H134	H	1.789841	1.125338	1.401788
H135	H	1.225565	0.710834	0.901766
H136	H	1.725565	1.210834	1.401766
C137	C	0.847217	0.363463	0.644151
C138	C	1.347217	0.863463	1.144151
H139	H	0.811082	0.323721	0.684018
H140	H	1.311082	0.823721	1.184018
H141	H	0.879196	0.403501	0.689613
H142	H	1.379196	0.903501	1.189613
H143	H	0.879200	0.317861	0.604238
H144	H	1.379200	0.817861	1.104238
H145	H	1.045770	1.107782	0.385675
H146	H	1.545770	1.607782	0.885675
H147	H	0.582648	0.382581	0.625076
H148	H	1.082648	0.882581	1.125076
H149	H	0.582542	0.624692	0.382166
H150	H	1.082542	1.124692	0.882166
H151	H	1.175045	1.070280	0.558086
H152	H	1.675045	1.570280	1.058086
C153	C	0.847095	0.643730	0.362999
C154	C	1.347095	1.143730	0.862999
H155	H	0.810926	0.683491	0.323150
H156	H	1.310926	1.183491	0.823150
H157	H	0.879082	0.603694	0.317521
H158	H	1.379082	1.103694	0.817521
H159	H	0.879065	0.689313	0.402918
H160	H	1.379065	1.189313	0.902918
C161	C	0.675069	0.363496	0.644179
C162	C	1.175069	0.863496	1.144179
H163	H	0.711239	0.323757	0.684050
H164	H	1.211239	0.823757	1.184050
H165	H	0.643091	0.317907	0.604289
H166	H	1.143091	0.817907	1.104289
H167	H	0.643090	0.403560	0.689651
H168	H	1.143090	0.903560	1.189651
C169	C	1.079108	0.430149	0.952451
C170	C	1.579108	0.930149	1.452451
H171	H	1.049200	0.390293	0.904391
H172	H	1.549200	0.890293	1.404391
H173	H	1.044918	0.470155	0.995022
H174	H	1.544918	0.970155	1.495022
H175	H	1.109191	0.384655	0.995037
H176	H	1.609191	0.884655	1.495037
H177	H	1.093434	0.449246	1.071382
H178	H	1.593434	0.949246	1.571382
