data_functionalizedCrystal
_audit_creation_method	'MofGen! by Chris Wilmer'
_symmetry_space_group_name_H-M	'P1'
_symmetry_Int_Tables_number	1
_symmetry_cell_setting	triclinic
loop_
_symmetry_equiv_pos_as_xyz
  x,y,z
_cell_length_a	14.395555
_cell_length_b	14.395555
_cell_length_c	14.395555
_cell_angle_alpha	90.002465
_cell_angle_beta	60.001260
_cell_angle_gamma	59.997670
loop_
_atom_site_label
_atom_site_type_symbol
_atom_site_fract_x
_atom_site_fract_y
_atom_site_fract_z
Zr1	Zr	1.016757	-0.121876	0.894940
O2	O	1.210566	-0.270217	0.746611
O3	O	0.822957	-0.076399	0.940407
O4	O	1.016762	-0.270204	0.940407
O5	O	1.016755	0.076461	0.746617
O6	O	1.016755	-0.270196	1.093281
O7	O	1.016762	-0.076413	0.746612
O8	O	0.670074	0.076485	1.093282
O9	O	1.363436	-0.270220	0.746615
O10	O	0.902661	-0.057001	1.073892
O11	O	0.902661	0.057082	0.959807
O12	O	1.130841	-0.171098	0.959806
O13	O	1.130841	-0.057016	0.845722
Zr14	Zr	1.016735	0.121953	1.138766
Zr15	Zr	1.016746	-0.121863	1.138757
Zr16	Zr	1.016746	0.121941	0.894949
Zr17	Zr	1.260566	-0.121880	0.894948
Zr18	Zr	0.772926	0.121957	1.138758
O19	O	1.210535	0.076477	1.093299
O20	O	1.210551	-0.270199	1.093286
O21	O	1.210551	0.076458	0.746623
O22	O	0.822926	0.270295	1.287095
O23	O	0.822941	-0.076381	1.287083
O24	O	0.822941	0.270276	0.940420
O25	O	1.016737	-0.076384	1.287089
O26	O	1.016730	0.270281	1.093300
O27	O	1.016737	0.270273	0.940425
O28	O	1.016730	0.076490	1.287094
O29	O	1.363427	-0.270209	0.940417
O30	O	0.670065	0.270287	1.093289
O31	O	0.670056	0.270297	1.287091
O32	O	0.670065	0.076495	1.287084
O33	O	1.363427	-0.076418	0.746622
O34	O	1.363418	-0.076408	0.940424
O35	O	0.902651	0.171176	1.073900
O36	O	0.902651	0.057094	1.187984
O37	O	1.130831	-0.057004	1.073899
O38	O	1.130831	0.057078	0.959814
C39	C	0.711778	0.000043	1.016844
C40	C	0.608274	0.000045	1.016841
C41	C	1.016760	0.000023	0.711876
C42	C	1.016764	0.000017	0.608369
C43	C	1.016732	0.305016	1.016864
C44	C	1.016728	0.408523	1.016867
C45	C	0.547682	0.062251	0.954641
C46	C	0.561945	-0.045031	0.909554
C47	C	0.409615	0.107294	1.061899
C48	C	0.623964	-0.107300	0.971692
C49	C	0.471571	0.045102	1.124097
C50	C	0.485881	-0.062244	1.079037
C51	C	1.321714	0.000034	1.016862
C52	C	1.425218	0.000033	1.016865
C53	C	1.016760	-0.304939	1.016842
C54	C	1.016764	-0.408445	1.016839
C55	C	0.892314	0.531323	1.079067
C56	C	0.954505	0.562152	1.124151
C57	C	0.954541	0.562116	0.971807
C58	C	1.078920	0.437988	1.062014
C59	C	1.078938	0.437956	0.909610
C60	C	1.141220	0.468712	0.954668
C61	C	1.141178	-0.062184	0.485576
C62	C	1.078987	-0.107260	0.454737
C63	C	1.078951	0.045084	0.454785
C64	C	0.954572	-0.045121	0.578894
C65	C	0.954554	0.107282	0.578938
C66	C	0.892272	0.062233	0.548173
C67	C	1.016732	0.000055	1.321830
C68	C	1.016728	0.000060	1.425337
C69	C	0.711764	0.000060	1.321821
C70	C	0.608256	0.000067	1.425325
C71	C	0.711764	0.305021	1.016855
C72	C	0.608256	0.408529	1.016855
C73	C	0.711750	0.305037	1.321832
C74	C	0.608238	0.408550	1.425339
C75	C	1.321742	-0.304959	0.711874
C76	C	1.425254	-0.408473	0.608367
C77	C	1.321728	0.000018	0.711885
C78	C	1.425236	0.000011	0.608381
C79	C	1.321728	-0.304943	1.016852
C80	C	1.425236	-0.408451	1.016851
C81	C	0.547691	0.062246	1.548120
C82	C	0.409580	0.107304	1.578978
C83	C	0.561992	-0.045042	1.578884
C84	C	0.471444	0.045188	1.454820
C85	C	0.623930	-0.107219	1.454728
C86	C	0.485828	-0.062187	1.485514
C87	C	0.547674	0.406912	0.954645
C88	C	0.409564	0.499942	1.061924
C89	C	0.561903	0.499939	0.909614
C90	C	0.471446	0.500195	1.124197
C91	C	0.623859	0.500178	0.971809
C92	C	0.485759	0.593225	1.079153
C93	C	0.547623	0.531346	1.423727
C94	C	0.409522	0.562148	1.516715
C95	C	0.561793	0.562185	1.516788
C96	C	0.471438	0.437988	1.516964
C97	C	0.623783	0.438029	1.517023
C98	C	0.485691	0.468757	1.610028
H99	H	0.599136	-0.083152	0.818859
H100	H	0.317913	0.615633	1.517618
N101	N	0.451927	-0.128198	1.453358
N102	N	0.467754	-0.213583	1.483027
H103	H	0.443805	-0.260200	1.460321
H104	H	0.574720	0.556782	1.343968
H105	H	0.458648	0.443104	1.689658
H106	H	0.434067	0.499376	1.214940
H107	H	0.787111	0.556769	1.131741
H108	H	0.715536	-0.198048	0.933489
N109	N	0.888682	-0.093061	0.645824
N110	N	0.948797	-0.179853	0.665907
H111	H	0.902267	-0.213714	0.713176
H112	H	1.246382	-0.114866	0.460134
H113	H	0.574764	0.327147	0.902118
N114	N	0.888673	0.221028	0.646069
N115	N	0.948538	0.247366	0.666942
H116	H	0.902022	0.327701	0.714349
N117	N	0.424609	0.371003	1.515885
N118	N	0.497100	0.280187	1.435651
H119	H	0.464031	0.232877	1.434884
N120	N	0.738829	0.498957	0.923956
N121	N	0.798062	0.497550	0.823704
H122	H	0.879268	0.496684	0.789895
N123	N	1.144824	0.370825	0.795865
N124	N	1.084964	0.349956	0.769516
H125	H	1.131485	0.302548	0.689180
H126	H	0.458723	0.672860	1.131843
N127	N	1.144962	-0.221039	0.387602
N128	N	1.262971	-0.293625	0.348414
H129	H	1.309574	-0.373984	0.301000
H130	H	0.901939	0.615624	0.933707
N131	N	1.144943	0.092881	0.387684
N132	N	1.154681	0.101332	0.297289
H133	H	1.201307	0.135076	0.249902
N134	N	0.452092	-0.128341	1.145018
N135	N	0.537612	-0.231573	1.117314
H136	H	0.513753	-0.278259	1.163909
H137	H	0.317942	0.500872	1.100040
N138	N	0.608515	0.501084	0.795840
N139	N	0.641868	0.422265	0.723287
H140	H	0.674771	0.423074	0.642937
H141	H	1.246509	0.443051	0.902068
N142	N	0.738734	0.370946	1.515840
N143	N	0.797922	0.411999	1.514474
H144	H	0.879114	0.364626	1.513634
H145	H	0.786983	0.114841	0.573829
H146	H	0.317934	0.197991	1.632518
N147	N	0.581845	0.128136	0.888557
N148	N	0.627479	0.100381	0.785278
H149	H	0.651611	0.146907	0.738602
N150	N	0.424925	0.092966	1.237851
N151	N	0.326069	0.193224	1.295682
H152	H	0.293117	0.227039	1.376025
N153	N	0.608391	0.629353	1.517958
N154	N	0.641768	0.668537	1.439138
H155	H	0.674676	0.715977	1.439957
H156	H	0.318001	0.197999	1.099996
N157	N	0.608684	-0.092866	1.645978
N158	N	0.708735	-0.192530	1.604397
H159	H	0.741697	-0.226298	1.651794
H160	H	0.434027	0.083398	1.401482
N161	N	0.888552	0.629274	1.237927
N162	N	0.840588	0.597565	1.319245
H163	H	0.794001	0.644970	1.399601
H164	H	1.131462	0.384624	1.100215
N165	N	0.738947	-0.220949	1.387549
N166	N	0.837007	-0.239139	1.296322
H167	H	0.918248	-0.319464	1.248878
H168	H	0.574759	0.114936	1.573563
