data_functionalizedCrystal
_audit_creation_method	'MofGen! by Chris Wilmer'
_symmetry_space_group_name_H-M	'P1'
_symmetry_Int_Tables_number	1
_symmetry_cell_setting	triclinic
loop_
_symmetry_equiv_pos_as_xyz
  x,y,z
_cell_length_a	18.101398
_cell_length_b	18.101395
_cell_length_c	18.215399
_cell_angle_alpha	90.029272
_cell_angle_beta	90.010431
_cell_angle_gamma	90.027508
loop_
_atom_site_label
_atom_site_type_symbol
_atom_site_fract_x
_atom_site_fract_y
_atom_site_fract_z
Zn1	Zn	1.132122	-0.294925	0.415924
Zn2	Zn	1.632122	0.205075	0.915924
Zn3	Zn	1.132014	-0.418772	0.292855
Zn4	Zn	1.632014	0.081228	0.792855
Zn5	Zn	1.008279	-0.294939	0.292892
Zn6	Zn	1.508279	0.205061	0.792892
Zn7	Zn	1.008229	-0.418720	0.415900
Zn8	Zn	1.508229	0.081280	0.915900
O9	O	1.070161	-0.356839	0.354393
O10	O	1.570161	0.143161	0.854393
O11	O	1.235740	-0.311370	0.399594
O12	O	1.735740	0.188630	0.899594
O13	O	1.115576	-0.402372	0.189876
O14	O	1.615576	0.097628	0.689876
O15	O	1.024773	-0.191304	0.309238
O16	O	1.524773	0.308696	0.809238
O17	O	1.235661	-0.402359	0.309175
O18	O	1.735661	0.097641	0.809175
O19	O	1.115759	-0.191294	0.399629
O20	O	1.615759	0.308706	0.899629
O21	O	1.024669	-0.311393	0.189903
O22	O	1.524669	0.188607	0.689903
O23	O	0.904640	-0.311343	0.309215
O24	O	1.404640	0.188657	0.809215
O25	O	1.024688	-0.402271	0.518888
O26	O	1.524688	0.097729	1.018888
O27	O	0.904603	-0.402284	0.399588
O28	O	1.404603	0.097716	0.899588
O29	O	1.115711	-0.311319	0.518906
O30	O	1.615711	0.188681	1.018906
O31	O	1.115528	-0.522398	0.309152
O32	O	1.615528	-0.022398	0.809152
O33	O	1.024584	-0.522360	0.399553
O34	O	1.524584	-0.022360	0.899553
C35	C	0.877751	-0.356810	0.354403
C36	C	1.377751	0.143190	0.854403
C37	C	0.795436	-0.356815	0.354425
C38	C	1.295436	0.143185	0.854425
C39	C	0.496345	-0.356859	0.354394
C40	C	0.996345	0.143141	0.854394
C41	C	0.527672	-0.414353	0.410974
C42	C	1.027672	0.085647	0.910974
C43	C	0.613291	-0.414173	0.411207
C44	C	1.113291	0.085827	0.911207
C45	C	0.644728	-0.356838	0.354410
C46	C	1.144728	0.143162	0.854410
C47	C	0.613675	-0.278835	0.375606
C48	C	1.113675	0.221165	0.875606
C49	C	0.528030	-0.279181	0.376008
C50	C	1.028030	0.220819	0.876008
C51	C	0.527892	-0.376679	0.276482
C52	C	1.027892	0.123321	0.776482
C53	C	0.613542	-0.378390	0.276898
C54	C	1.113542	0.121610	0.776898
C55	C	0.728587	-0.356821	0.354417
C56	C	1.228587	0.143179	0.854417
C57	C	0.412486	-0.356870	0.354389
C58	C	0.912486	0.143130	0.854389
C59	C	1.070059	-0.549249	0.354362
C60	C	1.570059	-0.049249	0.854362
C61	C	1.070083	-0.631563	0.354373
C62	C	1.570083	-0.131563	0.854373
C63	C	1.070168	-0.782272	0.354402
C64	C	1.570168	-0.282272	0.854402
C65	C	1.012919	-0.813633	0.411236
C66	C	1.512919	-0.313633	0.911236
C67	C	1.013136	-0.899251	0.411476
C68	C	1.513136	-0.399251	0.911476
C69	C	1.070251	-0.930654	0.354431
C70	C	1.570251	-0.430654	0.854431
C71	C	1.148326	-0.899478	0.375283
C72	C	1.648326	-0.399478	0.875283
C73	C	1.147947	-0.813833	0.375679
C74	C	1.647947	-0.313833	0.875679
C75	C	1.050042	-0.813907	0.276580
C76	C	1.550042	-0.313907	0.776580
C77	C	1.048368	-0.899559	0.277012
C78	C	1.548368	-0.399559	0.777012
C79	C	1.070302	-1.014514	0.354446
C80	C	1.570302	-0.514514	0.854446
C81	C	1.070122	-0.698412	0.354389
C82	C	1.570122	-0.198412	0.854389
C83	C	1.263323	-0.356869	0.354383
C84	C	1.763323	0.143131	0.854383
C85	C	1.345637	-0.356881	0.354379
C86	C	1.845637	0.143119	0.854379
C87	C	1.070206	-0.356788	0.546346
C88	C	1.570206	0.143212	1.046346
C89	C	1.070225	-0.356766	0.628145
C90	C	1.570225	0.143234	1.128145
C91	C	1.070284	-0.163677	0.354440
C92	C	1.570284	0.336323	0.854440
C93	C	1.070336	-0.081363	0.354461
C94	C	1.570336	0.418637	0.854461
C95	C	1.070159	-0.356836	0.163187
C96	C	1.570159	0.143164	0.663187
C97	C	1.070283	-0.356649	0.081388
C98	C	1.570283	0.143351	0.581388
C99	C	1.117638	-0.309363	0.816349
C100	C	1.617638	0.190637	1.316349
C101	C	1.117647	-0.309342	0.893208
C102	C	1.617647	0.190658	1.393208
C103	C	1.022865	-0.404054	0.893179
C104	C	1.522865	0.095946	1.393179
C105	C	1.022853	-0.404071	0.816321
C106	C	1.522853	0.095929	1.316321
C107	C	1.070244	-0.356727	0.777909
C108	C	1.570244	0.143273	1.277909
C109	C	1.070265	-0.356688	0.931625
C110	C	1.570265	0.143312	1.431625
C111	C	1.070274	-0.356665	1.014958
C112	C	1.570274	0.143335	1.514958
C113	C	1.070234	-0.356749	0.694570
C114	C	1.570234	0.143251	1.194570
H115	H	0.507056	-0.472385	0.397838
H116	H	1.007056	0.027615	0.897838
H117	H	0.954825	-0.793108	0.398351
H118	H	1.454825	-0.293108	0.898351
Br119	Br	1.177255	-0.935138	0.469062
Br120	Br	1.677255	-0.435138	0.969062
Br121	Br	0.958521	-0.468349	0.764146
Br122	Br	1.458521	0.031651	1.264146
H123	H	0.635141	-0.261721	0.431944
H124	H	1.135141	0.238279	0.931944
Br125	Br	0.649203	-0.313659	0.202857
Br126	Br	1.149203	0.186341	0.702857
H127	H	1.192169	-0.919813	0.335168
H128	H	1.692169	-0.419813	0.835168
H129	H	0.506163	-0.401406	0.468369
H130	H	1.006163	0.098594	0.968369
H131	H	0.994056	-0.792371	0.257554
H132	H	1.494056	-0.292371	0.757554
H133	H	0.633794	-0.401059	0.468935
H134	H	1.133794	0.098941	0.968935
H135	H	1.156239	-0.270772	0.924503
H136	H	1.656239	0.229228	1.424503
Br137	Br	0.648287	-0.510590	0.389098
Br138	Br	1.148287	-0.010590	0.889098
Br139	Br	0.916650	-0.934396	0.389767
Br140	Br	1.416650	-0.434396	0.889767
Br141	Br	1.119538	-0.780103	0.206006
Br142	Br	1.619538	-0.280103	0.706006
Br143	Br	0.647616	-0.205496	0.309067
Br144	Br	1.147616	0.294504	0.809067
H145	H	1.156225	-0.270810	0.785076
H146	H	1.656225	0.229190	1.285076
Br147	Br	1.176341	-0.780446	0.470485
Br148	Br	1.676341	-0.280446	0.970485
H149	H	0.508070	-0.262370	0.432965
H150	H	1.008070	0.237630	0.932965
Br151	Br	0.952597	-0.933531	0.250795
Br152	Br	1.452597	-0.433531	0.750795
H153	H	0.507308	-0.234808	0.336687
H154	H	1.007308	0.265192	0.836687
H155	H	0.984283	-0.442602	0.924463
H156	H	1.484283	0.057398	1.424463
H157	H	1.087026	-0.920946	0.232423
H158	H	1.587026	-0.420946	0.732423
H159	H	0.633845	-0.435788	0.260912
H160	H	1.133845	0.064212	0.760912
Br161	Br	0.491853	-0.469851	0.244368
Br162	Br	0.991853	0.030149	0.744368
H163	H	0.507633	-0.334800	0.234325
H164	H	1.007633	0.165200	0.734325
H165	H	1.192068	-0.793081	0.336074
H166	H	1.692068	-0.293081	0.836074
Br167	Br	1.035365	-0.933325	0.507609
Br168	Br	1.535365	-0.433325	1.007609
Br169	Br	1.034880	-0.777691	0.506804
Br170	Br	1.534880	-0.277691	1.006804
