data_functionalizedCrystal
_audit_creation_method	'MofGen! by Chris Wilmer'
_symmetry_space_group_name_H-M	'P1'
_symmetry_Int_Tables_number	1
_symmetry_cell_setting	triclinic
loop_
_symmetry_equiv_pos_as_xyz
  x,y,z
_cell_length_a	10.489741
_cell_length_b	15.944551
_cell_length_c	9.565339
_cell_angle_alpha	89.999279
_cell_angle_beta	89.999100
_cell_angle_gamma	84.018956
loop_
_atom_site_label
_atom_site_type_symbol
_atom_site_fract_x
_atom_site_fract_y
_atom_site_fract_z
O1	O	1.692410	0.118501	-0.116177
O2	O	1.321060	0.129624	-0.116199
O3	O	1.516876	0.001849	-0.116175
O4	O	1.496594	0.246276	-0.116201
O5	O	1.516860	0.001857	0.116345
O6	O	1.321045	0.129632	0.116321
O7	O	1.692395	0.118509	0.116343
Zn8	Zn	1.506717	0.124072	0.153250
Zn9	Zn	1.506738	0.124061	-0.153106
O10	O	1.496579	0.246284	0.116319
C11	C	1.273532	0.128788	0.000058
C12	C	1.131938	0.126275	0.000050
C13	C	1.064925	0.044975	0.000072
C14	C	0.972273	0.083376	-0.114573
C15	C	0.972292	0.083403	0.114673
C16	C	1.041151	0.164709	-0.114690
C17	C	1.041179	0.164725	0.114659
C18	C	0.948554	0.203186	-0.000014
C19	C	1.516026	-0.029446	0.000085
C20	C	1.513502	-0.122708	0.000086
C21	C	1.386093	-0.338330	0.000059
C22	C	1.445250	-0.398988	0.114709
C23	C	1.508935	-0.293461	0.000075
C24	C	1.445294	-0.398979	-0.114537
C25	C	1.504515	-0.458400	0.000058
C26	C	1.568126	-0.352890	0.114820
C27	C	1.568153	-0.352875	-0.114530
C28	C	1.627399	-0.413515	0.000148
C29	C	1.511478	-0.198443	0.000086
C30	C	1.501982	-0.553417	0.000058
C31	C	1.739922	0.119345	0.000083
C32	C	1.881517	0.121858	0.000082
C33	C	1.497429	0.277579	0.000056
C34	C	1.499953	0.370841	0.000046
N35	N	1.506713	0.124078	0.362329
N36	N	1.506752	0.124048	-0.362185
C37	C	1.416127	0.183150	0.453521
C38	C	1.531388	0.200146	0.546705
C39	C	1.391501	0.107089	0.546701
C40	C	1.622032	0.141112	0.453461
C41	C	1.482069	0.048022	0.453449
C42	C	1.597414	0.064986	0.546591
H43	H	0.941742	0.048973	-0.211493
C44	C	1.183509	-0.318445	-0.118645
C45	C	1.248445	-0.294193	0.000198
H46	H	1.098531	-0.291200	-0.118547
H47	H	1.226957	-0.302757	-0.200171
H48	H	1.180982	-0.377824	-0.117797
H49	H	1.250980	-0.234814	-0.000655
H50	H	1.204986	-0.309875	0.081746
H51	H	1.071509	0.199079	-0.211724
H52	H	1.115541	-0.021859	-0.000064
H53	H	0.898203	0.270090	-0.000084
C54	C	1.338963	0.330227	0.445411
C55	C	1.312813	0.250646	0.398332
H56	H	1.275190	0.371896	0.411328
H57	H	1.338770	0.331016	0.544700
H58	H	1.420660	0.341745	0.412110
H59	H	1.231119	0.239126	0.431642
H60	H	1.312993	0.249856	0.299022
C61	C	1.333064	-0.056408	0.445072
C62	C	1.453846	-0.038759	0.398089
H63	H	1.315630	-0.109980	0.410884
H64	H	1.332097	-0.056904	0.544360
H65	H	1.269549	-0.014313	0.411812
H66	H	1.517363	-0.080850	0.431358
H67	H	1.454824	-0.038270	0.298781
H68	H	1.294052	0.092733	0.587660
C69	C	1.458905	-0.481584	0.325096
C70	C	1.375108	-0.426560	0.245547
H71	H	1.415597	-0.498599	0.405868
H72	H	1.487358	-0.529779	0.270735
H73	H	1.530583	-0.453685	0.352651
H74	H	1.303434	-0.454461	0.217983
H75	H	1.346636	-0.378358	0.299918
C76	C	1.168610	0.156890	0.323659
C77	C	1.082462	0.211130	0.245496
H78	H	1.194104	0.185537	0.404434
H79	H	1.128310	0.108853	0.351186
H80	H	1.241852	0.139508	0.268368
H81	H	1.009215	0.228507	0.300783
H82	H	1.122761	0.259182	0.217971
C83	C	0.990447	-0.045882	0.245290
C84	C	0.931107	0.036956	0.245523
H85	H	0.965028	-0.074558	0.326070
H86	H	0.965695	-0.074213	0.163891
H87	H	1.080865	-0.045052	0.245774
H88	H	0.840688	0.036126	0.245029
H89	H	0.955851	0.065294	0.326943
H90	H	1.620033	-0.332584	0.211854
C91	C	1.829153	-0.434199	0.120380
C92	C	1.765162	-0.457461	0.000240
H93	H	1.914196	-0.461336	0.120443
H94	H	1.831490	-0.374811	0.121140
H95	H	1.785178	-0.450690	0.201036
H96	H	1.809132	-0.440964	-0.080417
H97	H	1.762831	-0.516862	-0.000532
H98	H	1.620072	-0.332436	-0.211456
C99	C	1.438271	-0.402120	-0.365369
C100	C	1.375147	-0.426525	-0.245387
H101	H	1.394962	-0.419129	-0.446143
H102	H	1.438680	-0.342579	-0.365850
H103	H	1.523977	-0.428114	-0.365492
H104	H	1.289443	-0.400526	-0.245259
H105	H	1.374724	-0.486078	-0.244906
C106	C	1.679313	0.305313	0.552934
C107	C	1.559565	0.286951	0.602025
H108	H	1.696695	0.358905	0.587080
H109	H	1.743735	0.263392	0.584792
H110	H	1.678710	0.306107	0.453633
H111	H	1.560172	0.286151	0.701326
H112	H	1.495127	0.328883	0.570174
C113	C	1.848520	0.099118	0.446408
C114	C	1.753592	0.160614	0.398370
H115	H	1.929728	0.111162	0.412373
H116	H	1.849380	0.099209	0.545702
H117	H	1.830841	0.045277	0.413707
H118	H	1.771267	0.214454	0.431080
H119	H	1.752736	0.160531	0.299056
H120	H	1.674119	0.015015	0.587199
