data_functionalizedCrystal
_audit_creation_method	'MofGen! by Chris Wilmer'
_symmetry_space_group_name_H-M	'P1'
_symmetry_Int_Tables_number	1
_symmetry_cell_setting	triclinic
loop_
_symmetry_equiv_pos_as_xyz
  x,y,z
_cell_length_a	12.827893
_cell_length_b	12.645330
_cell_length_c	12.827885
_cell_angle_alpha	90.028978
_cell_angle_beta	90.019272
_cell_angle_gamma	90.017662
loop_
_atom_site_label
_atom_site_type_symbol
_atom_site_fract_x
_atom_site_fract_y
_atom_site_fract_z
Zn1	Zn	1.597653	-0.421989	0.590855
Zn2	Zn	1.597540	-0.599290	0.416117
Zn3	Zn	1.422894	-0.422040	0.416128
Zn4	Zn	1.422873	-0.599211	0.590817
O5	O	1.510240	-0.510632	0.503479
O6	O	1.743874	-0.445520	0.567686
O7	O	1.574335	-0.575832	0.269883
O8	O	1.446133	-0.273686	0.439326
O9	O	1.743791	-0.575782	0.439308
O10	O	1.574527	-0.273648	0.567697
O11	O	1.446023	-0.445608	0.269891
O12	O	1.276655	-0.445531	0.439290
O13	O	1.446096	-0.575647	0.737058
O14	O	1.276639	-0.575697	0.567633
O15	O	1.574506	-0.445443	0.737086
O16	O	1.574314	-0.747626	0.439271
O17	O	1.445986	-0.747568	0.567623
C18	C	1.238730	-0.510612	0.503459
C19	C	1.122577	-0.510629	0.503476
C20	C	1.510164	-0.786062	0.503465
C21	C	1.510227	-0.903892	0.503493
C22	C	1.070812	-0.575140	0.566886
C23	C	0.950762	-0.575159	0.566904
C24	C	1.429829	-1.071464	0.584488
C25	C	1.429418	-0.948904	0.584228
C26	C	1.480414	-0.948494	0.393362
C27	C	1.479923	-1.071093	0.393854
C28	C	1.620929	-1.070979	0.531736
C29	C	1.620251	-0.948372	0.534144
C30	C	1.782810	-0.510654	0.503500
C31	C	1.898963	-0.510663	0.503509
C32	C	1.510311	-0.510531	0.776050
C33	C	1.510341	-0.510487	0.892203
C34	C	1.510345	-0.234127	0.503517
C35	C	1.510390	-0.116297	0.503533
C36	C	1.510229	-0.510657	0.231969
C37	C	1.510401	-0.510402	0.115817
C38	C	1.573890	-0.446045	0.944001
C39	C	1.573923	-0.445999	1.064052
H40	H	0.906245	-0.630392	0.621189
H41	H	1.628268	-0.390905	0.899471
N42	N	1.452812	-0.911042	0.686663
N43	N	1.456509	-0.813832	0.703995
H44	H	1.473033	-0.787094	0.776343
N45	N	1.442109	-0.579667	0.948039
N46	N	1.382362	-0.640251	0.899401
H47	H	1.334168	-0.689110	0.938832
H48	H	0.943473	-0.455433	0.449214
H49	H	1.078018	-0.455408	0.449206
H50	H	1.680949	-1.099972	0.472773
N51	N	1.126716	-0.644395	0.634981
N52	N	1.224158	-0.644277	0.634874
H53	H	1.263640	-0.693189	0.682970
N54	N	1.551685	-0.911902	0.315632
N55	N	1.561732	-0.814986	0.299334
H56	H	1.612068	-0.789139	0.244439
H57	H	1.448310	-1.100870	0.666417
H58	H	1.348392	-1.102366	0.566042
N59	N	1.326610	-0.912239	0.560791
N60	N	1.254941	-0.977194	0.544567
H61	H	1.182328	-0.951301	0.528013
N62	N	1.378554	-1.107079	0.363873
N63	N	1.308662	-1.041650	0.342735
H64	H	1.237067	-1.067059	0.321560
H65	H	1.683433	-0.917726	0.479474
N66	N	1.648494	-0.911782	0.635805
N67	N	1.733806	-0.938417	0.674887
H68	H	1.753755	-0.912566	0.746683
H69	H	1.536054	-1.100754	0.331479
N70	N	1.380103	-0.910089	0.362854
N71	N	1.330397	-0.849883	0.422030
H72	H	1.259550	-0.822758	0.400489
N73	N	1.655039	-1.109677	0.630766
N74	N	1.598286	-1.171134	0.681763
H75	H	1.622366	-1.198467	0.751705
N76	N	1.642180	-0.376798	1.119940
N77	N	1.642114	-0.376861	1.217382
H78	H	1.690323	-0.327987	1.256857
N79	N	1.442139	-0.579605	1.059936
N80	N	1.375604	-0.542264	0.999009
H81	H	1.327393	-0.591137	0.959535
