data_functionalizedCrystal
_audit_creation_method	'MofGen! by Chris Wilmer'
_symmetry_space_group_name_H-M	'P1'
_symmetry_Int_Tables_number	1
_symmetry_cell_setting	triclinic
loop_
_symmetry_equiv_pos_as_xyz
  x,y,z
_cell_length_a	18.050591
_cell_length_b	18.050589
_cell_length_c	12.827885
_cell_angle_alpha	89.970449
_cell_angle_beta	89.973896
_cell_angle_gamma	90.024669
loop_
_atom_site_label
_atom_site_type_symbol
_atom_site_fract_x
_atom_site_fract_y
_atom_site_fract_z
Zn1	Zn	1.135339	-0.295694	-0.591041
Zn2	Zn	1.135236	-0.419902	-0.416302
Zn3	Zn	1.011145	-0.295722	-0.416294
Zn4	Zn	1.011106	-0.419839	-0.590981
O5	O	1.073206	-0.357789	-0.503654
O6	O	1.239250	-0.312185	-0.567890
O7	O	1.118748	-0.403467	-0.270065
O8	O	1.027678	-0.191794	-0.439496
O9	O	1.239174	-0.403440	-0.439510
O10	O	1.118924	-0.191773	-0.567882
O11	O	1.027578	-0.312233	-0.270059
O12	O	0.907215	-0.312172	-0.439438
O13	O	1.027613	-0.403332	-0.737225
O14	O	0.907187	-0.403360	-0.567780
O15	O	1.118886	-0.312124	-0.737269
O16	O	1.118711	-0.523818	-0.439452
O17	O	1.027513	-0.523772	-0.567788
C18	C	0.880254	-0.357763	-0.503602
C19	C	0.797709	-0.357770	-0.503604
C20	C	1.073117	-0.550741	-0.503637
C21	C	1.073146	-0.633287	-0.503664
C22	C	0.548877	-0.308130	-0.433977
C23	C	0.598316	-0.290036	-0.529345
C24	C	0.500588	-0.357808	-0.503690
C25	C	0.598230	-0.375848	-0.408285
C26	C	0.646573	-0.357787	-0.503643
C27	C	0.548940	-0.339678	-0.599109
C28	C	0.548850	-0.425522	-0.477984
C29	C	0.598267	-0.407453	-0.573418
C30	C	0.416490	-0.357818	-0.503716
C31	C	0.730670	-0.357777	-0.503628
C32	C	1.023602	-0.832740	-0.573429
C33	C	1.005497	-0.882186	-0.478069
C34	C	1.073219	-0.784417	-0.503678
C35	C	1.091361	-0.882053	-0.599049
C36	C	1.073288	-0.930402	-0.503700
C37	C	1.055078	-0.832776	-0.408268
C38	C	1.140975	-0.832639	-0.529312
C39	C	1.122895	-0.882063	-0.433886
C40	C	1.073178	-0.700319	-0.503667
C41	C	1.073330	-1.014499	-0.503700
C42	C	1.266912	-0.357816	-0.503707
C43	C	1.349458	-0.357827	-0.503730
C44	C	1.073257	-0.357718	-0.776225
C45	C	1.073279	-0.357687	-0.892378
C46	C	1.073317	-0.164084	-0.503695
C47	C	1.073364	-0.081538	-0.503712
C48	C	1.028151	-0.402770	-1.064185
C49	C	1.028128	-0.402802	-0.944135
C50	C	1.073199	-0.357807	-0.232144
C51	C	1.073321	-0.357628	-0.115992
H52	H	0.527192	-0.266097	-0.375116
C53	C	0.519814	-0.318957	-0.708112
N54	N	0.497874	-0.303347	-0.790210
C55	C	0.966834	-0.803473	-0.652999
N56	N	0.924074	-0.781427	-0.712925
C57	C	1.125543	-0.305446	-1.055848
N58	N	1.164878	-0.266142	-1.010549
H59	H	0.620030	-0.232760	-0.551087
H60	H	0.948231	-0.903965	-0.456408
H61	H	1.106678	-0.903698	-0.679695
C62	C	1.034292	-0.803658	-0.299289
N63	N	1.018633	-0.781724	-0.217210
H64	H	0.527107	-0.482779	-0.456227
H65	H	1.198228	-0.810861	-0.551019
C66	C	0.627374	-0.464202	-0.653123
N67	N	0.649294	-0.506944	-0.713158
H68	H	1.111955	-0.319040	-0.936923
C69	C	0.627479	-0.396477	-0.299312
N70	N	0.649506	-0.412010	-0.217232
H71	H	0.989495	-0.441391	-1.108709
C72	C	1.179618	-0.911143	-0.354120
N73	N	1.222339	-0.933049	-0.294037
C74	C	0.975882	-0.455015	-0.883950
N75	N	0.936527	-0.494342	-0.838616
