data_functionalizedCrystal
_audit_creation_method	'MofGen! by Chris Wilmer'
_symmetry_space_group_name_H-M	'P1'
_symmetry_Int_Tables_number	1
_symmetry_cell_setting	triclinic
loop_
_symmetry_equiv_pos_as_xyz
  x,y,z
_cell_length_a	14.971486
_cell_length_b	16.109301
_cell_length_c	13.448316
_cell_angle_alpha	89.991973
_cell_angle_beta	89.998199
_cell_angle_gamma	83.537805
loop_
_atom_site_label
_atom_site_type_symbol
_atom_site_fract_x
_atom_site_fract_y
_atom_site_fract_z
O1	O	1.186791	0.108348	-0.082581
O2	O	0.926372	0.121323	-0.082608
O3	O	1.063736	-0.006187	-0.082584
O4	O	1.049428	0.235857	-0.082605
O5	O	1.063718	-0.006195	0.082800
O6	O	0.926355	0.121315	0.082776
O7	O	1.186774	0.108340	0.082803
Cu8	Cu	1.056563	0.114827	0.097890
Cu9	Cu	1.056583	0.114836	-0.097695
O10	O	1.049410	0.235850	0.082778
C11	C	0.893040	0.120739	0.000080
C12	C	0.793745	0.119000	0.000070
C13	C	1.063147	-0.037166	0.000109
C14	C	1.061410	-0.129464	0.000110
C15	C	0.736412	0.193908	0.000065
C16	C	0.643115	0.192269	0.000080
C17	C	0.607153	0.115721	0.000093
C18	C	0.664494	0.040807	0.000101
C19	C	0.757789	0.042447	0.000093
C20	C	0.470036	0.037395	0.000115
C21	C	0.376734	0.035755	0.000121
C22	C	0.355362	0.187217	0.000102
C23	C	0.448657	0.188857	0.000094
C24	C	0.505991	0.113942	0.000100
C25	C	1.138878	-0.351640	0.000102
C26	C	1.137239	-0.438362	0.000094
C27	C	0.974262	-0.418691	0.000081
C28	C	0.975902	-0.331970	0.000082
C29	C	1.058213	-0.298447	0.000098
C30	C	1.054933	-0.471890	0.000088
C31	C	1.053155	-0.565918	0.000079
C32	C	1.059992	-0.204413	0.000105
C33	C	1.220106	0.108924	0.000112
C34	C	1.319401	0.110663	0.000116
C35	C	1.049999	0.266829	0.000084
C36	C	1.051736	0.359127	0.000076
N37	N	1.056555	0.114820	0.235454
N38	N	1.056598	0.114837	-0.235260
C39	C	1.117398	0.058382	0.287506
C40	C	1.117404	0.058381	0.391609
C41	C	1.056570	0.114823	0.443659
C42	C	0.995720	0.171264	0.391601
C43	C	0.995711	0.171260	0.287499
C44	C	0.995745	0.171269	0.608581
C45	C	0.995755	0.171275	0.712689
C46	C	1.117438	0.058391	0.712690
C47	C	1.117429	0.058387	0.608589
C48	C	1.056580	0.114829	0.556538
H49	H	0.765684	0.256242	0.000053
C50	C	1.229416	-0.314766	0.000109
H51	H	1.277221	-0.358870	0.000101
H52	H	1.233444	-0.281352	0.057781
H53	H	1.233445	-0.281340	-0.057572
H54	H	0.946165	0.217216	0.245120
C55	C	1.225968	-0.496874	0.000095
H56	H	1.213206	-0.553324	0.000080
H57	H	1.259717	-0.486714	0.057770
H58	H	1.259717	-0.486690	-0.057583
C59	C	0.580052	0.274669	0.000071
H60	H	0.614831	0.320492	0.000049
H61	H	0.543216	0.277179	0.057747
H62	H	0.543210	0.277177	-0.057606
H63	H	1.166947	0.012425	0.433989
C64	C	0.883727	-0.455570	0.000077
H65	H	0.894302	-0.514836	0.000088
H66	H	0.850514	-0.437311	-0.057596
H67	H	0.850516	-0.437321	0.057757
C68	C	0.292299	0.269622	0.000097
H69	H	0.231585	0.257685	0.000115
H70	H	0.303194	0.301005	-0.057583
H71	H	0.303201	0.301006	0.057770
C72	C	0.337173	-0.048444	0.000150
H73	H	0.273398	-0.038688	0.000144
H74	H	0.356853	-0.079287	0.057830
H75	H	0.356850	-0.079296	-0.057523
H76	H	0.910211	-0.288658	0.000075
H77	H	1.166969	0.012432	0.566210
C78	C	0.533102	-0.045009	0.000111
H79	H	0.498324	-0.090834	0.000106
H80	H	0.569949	-0.047528	0.057776
H81	H	0.569931	-0.047507	-0.057577
C82	C	1.184364	-0.003701	0.769942
H83	H	1.175650	0.004376	0.839396
H84	H	1.244052	0.005419	0.752875
H85	H	1.174662	-0.059207	0.752890
C86	C	0.928782	0.233306	0.769943
H87	H	0.892517	0.266897	0.724035
H88	H	0.960891	0.267989	0.810572
H89	H	0.891591	0.203280	0.810533
H90	H	1.166940	0.012424	0.245133
H91	H	0.477934	0.251189	0.000074
H92	H	0.946192	0.217228	0.566204
H93	H	0.635206	-0.021520	0.000126
C94	C	0.820855	-0.039952	0.000089
H95	H	0.786078	-0.085777	0.000088
H96	H	0.857699	-0.042466	0.057758
H97	H	0.857688	-0.042455	-0.057595
C98	C	0.928775	0.233325	0.448848
H99	H	0.892524	0.266925	0.402936
H100	H	0.960913	0.267997	0.489461
H101	H	0.891566	0.203331	0.489454
