data_functionalizedCrystal
_audit_creation_method	'MofGen! by Chris Wilmer'
_symmetry_space_group_name_H-M	'P1'
_symmetry_Int_Tables_number	1
_symmetry_cell_setting	triclinic
loop_
_symmetry_equiv_pos_as_xyz
  x,y,z
_cell_length_a	10.723024
_cell_length_b	9.798715
_cell_length_c	10.723024
_cell_angle_alpha	90.001978
_cell_angle_beta	84.467869
_cell_angle_gamma	90.003391
loop_
_atom_site_label
_atom_site_type_symbol
_atom_site_fract_x
_atom_site_fract_y
_atom_site_fract_z
O1	O	1.657187	0.113478	0.175024
O2	O	2.157187	0.613478	0.675024
O3	O	1.294035	0.113483	0.191778
O4	O	1.794035	0.613483	0.691778
O5	O	1.483988	0.113475	0.001825
O6	O	1.983988	0.613475	0.501825
O7	O	1.467234	0.113486	0.364977
O8	O	1.967234	0.613486	0.864977
O9	O	1.483974	-0.113507	0.001824
O10	O	1.983974	0.386493	0.501824
O11	O	1.294021	-0.113499	0.191777
O12	O	1.794021	0.386501	0.691777
O13	O	1.657173	-0.113504	0.175024
O14	O	2.157173	0.386496	0.675024
Zn15	Zn	1.475595	-0.149540	0.183401
Zn16	Zn	1.975595	0.350460	0.683401
Zn17	Zn	1.475613	0.149519	0.183401
Zn18	Zn	1.975613	0.649519	0.683401
O19	O	1.467220	-0.113496	0.364977
O20	O	1.967220	0.386504	0.864977
C21	C	1.247528	-0.000008	0.190558
C22	C	1.747528	0.499992	0.690558
C23	C	1.108974	-0.000006	0.186911
C24	C	1.608974	0.499994	0.686911
N25	N	1.475591	-0.353640	0.183399
N26	N	1.975591	0.146360	0.683399
C27	C	1.033991	-0.000002	0.293198
C28	C	1.533991	0.499998	0.793198
C29	C	0.890788	-0.000001	0.289431
C30	C	1.390788	0.499999	0.789431
C31	C	1.555347	-0.421420	0.103292
C32	C	2.055347	0.078580	0.603292
C33	C	1.555367	-0.578582	0.103288
C34	C	2.055367	-0.078582	0.603288
C35	C	1.703680	-0.000010	0.176243
C36	C	2.203680	0.499990	0.676243
C37	C	1.842234	-0.000003	0.179891
C38	C	2.342234	0.499997	0.679891
C39	C	1.482762	-0.000014	-0.044675
C40	C	1.982762	0.499986	0.455325
C41	C	1.479114	-0.000009	-0.183229
C42	C	1.979114	0.499991	0.316771
N43	N	1.475627	0.353619	0.183393
N44	N	1.975627	0.853619	0.683393
C45	C	1.585401	-0.000009	-0.258212
C46	C	2.085401	0.499991	0.241788
C47	C	1.581634	-0.000004	-0.401415
C48	C	2.081634	0.499996	0.098585
C49	C	1.468447	-0.000004	0.411477
C50	C	1.968447	0.499996	0.911477
C51	C	1.472094	0.000000	0.550031
C52	C	1.972094	0.500000	1.050031
H53	H	1.075814	-0.000007	0.386984
H54	H	1.575814	0.499993	0.886984
Br55	Br	1.669192	-0.675725	-0.011019
Br56	Br	2.169192	-0.175725	0.488981
H57	H	1.407345	-0.588102	0.251984
H58	H	1.907345	-0.088102	0.751984
H59	H	1.407319	-0.411961	0.251975
H60	H	1.907319	0.088039	0.751975
Br61	Br	1.741727	0.000004	-0.188520
Br62	Br	2.241727	0.500004	0.311480
Br63	Br	1.668819	-0.324225	-0.011335
Br64	Br	2.168819	0.175775	0.488665
H65	H	1.067152	0.000026	0.093125
H66	H	1.567152	0.500026	0.593125
H67	H	1.385328	0.000001	-0.225051
H68	H	1.885328	0.500001	0.274949
Br69	Br	1.733301	-0.000019	-0.508799
Br70	Br	2.233301	0.499981	-0.008799
H71	H	1.381099	-0.000010	-0.385544
H72	H	1.881099	0.499990	0.114456
H73	H	0.906659	0.000002	0.088896
H74	H	1.406659	0.500002	0.588896
H75	H	0.826355	0.000008	0.380421
H76	H	1.326355	0.500008	0.880421
