data_functionalizedCrystal
_audit_creation_method	'MofGen! by Chris Wilmer'
_symmetry_space_group_name_H-M	'P1'
_symmetry_Int_Tables_number	1
_symmetry_cell_setting	triclinic
loop_
_symmetry_equiv_pos_as_xyz
  x,y,z
_cell_length_a	19.188930
_cell_length_b	16.992694
_cell_length_c	15.455313
_cell_angle_alpha	92.857794
_cell_angle_beta	92.650876
_cell_angle_gamma	93.093497
loop_
_atom_site_label
_atom_site_type_symbol
_atom_site_fract_x
_atom_site_fract_y
_atom_site_fract_z
O1	O	0.145160	-1.043326	-0.072038
O2	O	0.645160	-0.543326	0.427962
O3	O	0.143535	-0.815047	-0.072064
O4	O	0.643535	-0.315047	0.427936
O5	O	0.043078	-0.935773	-0.072033
O6	O	0.543078	-0.435773	0.427967
O7	O	0.245617	-0.922600	-0.072069
O8	O	0.745617	-0.422600	0.427931
O9	O	0.048798	-0.928870	0.072227
O10	O	0.548798	-0.428870	0.572227
O11	O	0.149255	-0.808144	0.072197
O12	O	0.649255	-0.308144	0.572197
O13	O	0.150879	-1.036422	0.072222
O14	O	0.650879	-0.536422	0.572222
Cu15	Cu	0.150589	-0.921653	0.085382
Cu16	Cu	0.650589	-0.421653	0.585382
Cu17	Cu	0.143825	-0.929817	-0.085223
Cu18	Cu	0.643825	-0.429817	0.414777
O19	O	0.251336	-0.915696	0.072192
O20	O	0.751336	-0.415696	0.572192
C21	C	0.144306	-0.782390	0.000064
C22	C	0.644306	-0.282390	0.500064
C23	C	0.138072	-0.695368	0.000055
C24	C	0.638072	-0.195368	0.500055
C25	C	0.019902	-0.931895	0.000099
C26	C	0.519902	-0.431895	0.500099
C27	C	-0.057677	-0.930614	0.000107
C28	C	0.442323	-0.430614	0.500107
C29	C	0.150109	-1.069079	0.000093
C30	C	0.650109	-0.569079	0.500093
C31	C	0.156342	-1.156102	0.000096
C32	C	0.656342	-0.656102	0.500096
C33	C	-0.098455	-1.001452	0.000119
C34	C	0.401545	-0.501452	0.500119
C35	C	-0.171350	-1.000250	0.000105
C36	C	0.328650	-0.500250	0.500105
C37	C	-0.203463	-0.928204	0.000096
C38	C	0.296537	-0.428204	0.500096
C39	C	-0.162676	-0.857356	0.000079
C40	C	0.337324	-0.357356	0.500079
C41	C	-0.089783	-0.858561	0.000085
C42	C	0.410217	-0.358561	0.500085
N43	N	-0.312744	-0.870784	0.049185
N44	N	0.187256	-0.370784	0.549185
N45	N	-0.381990	-0.869644	0.049181
N46	N	0.118010	-0.369644	0.549181
C47	C	-0.423085	-0.924569	0.000078
C48	C	0.076915	-0.424569	0.500078
N49	N	-0.392319	-0.980688	-0.049011
N50	N	0.107681	-0.480688	0.450989
N51	N	-0.323067	-0.981830	-0.049004
N52	N	0.176933	-0.481830	0.450996
C53	C	-0.282503	-0.926889	0.000090
C54	C	0.217497	-0.426889	0.500090
C55	C	-0.542904	-0.994108	0.000074
C56	C	-0.042904	-0.494108	0.500074
C57	C	-0.615801	-0.992903	0.000054
C58	C	-0.115801	-0.492903	0.500054
C59	C	-0.607124	-0.850007	0.000038
C60	C	-0.107124	-0.350007	0.500038
C61	C	-0.534230	-0.851215	0.000048
C62	C	-0.034230	-0.351215	0.500048
C63	C	-0.502124	-0.923267	0.000070
C64	C	-0.002124	-0.423267	0.500070
C65	C	0.274513	-0.919575	0.000057
C66	C	0.774513	-0.419575	0.500057
C67	C	0.352092	-0.920856	0.000044
C68	C	0.852092	-0.420856	0.500044
N69	N	0.155346	-0.915916	0.205376
N70	N	0.655346	-0.415916	0.705376
C71	C	0.198212	-0.644922	0.000045
C72	C	0.698212	-0.144922	0.500045
C73	C	0.192351	-0.563155	0.000058
C74	C	0.692351	-0.063155	0.500058
C75	C	0.126351	-0.531836	0.000075
C76	C	0.626351	-0.031836	0.500075
C77	C	0.066208	-0.582288	0.000087
C78	C	0.566208	-0.082288	0.500087
C79	C	0.072069	-0.664053	0.000080
C80	C	0.572069	-0.164053	0.500080
C81	C	0.102059	-0.288320	0.000102
C82	C	0.602059	0.211680	0.500102
C83	C	0.096203	-0.206548	0.000106
C84	C	0.596203	0.293452	0.500106
C85	C	0.222347	-0.187420	0.000079
C86	C	0.722347	0.312580	0.500079
C87	C	0.228202	-0.269188	0.000067
C88	C	0.728202	0.230812	0.500067
C89	C	0.168059	-0.319633	0.000084
C90	C	0.668059	0.180367	0.500084
N91	N	0.120360	-0.448257	0.000085
N92	N	0.620360	0.051743	0.500085
N93	N	0.174051	-0.403210	0.000079
N94	N	0.674051	0.096790	0.500079
N95	N	0.139063	-0.935560	-0.205217
N96	N	0.639063	-0.435560	0.294783
C97	C	0.112686	-0.967222	0.250783
C98	C	0.612686	-0.467222	0.750783
C99	C	0.116291	-0.962891	0.341590
C100	C	0.616291	-0.462891	0.841590
C101	C	0.162559	-0.907257	0.386988
C102	C	0.662559	-0.407257	0.886988
C103	C	0.205221	-0.855945	0.341574
C104	C	0.705221	-0.355945	0.841574
C105	C	0.201613	-0.860273	0.250769
C106	C	0.701613	-0.360273	0.750769
C107	C	0.178116	-0.888576	0.658564
C108	C	0.678116	-0.388576	1.158564
C109	C	0.181723	-0.884253	0.749376
C110	C	0.681723	-0.384253	1.249376
C111	C	0.092792	-0.991199	0.749385
C112	C	0.592792	-0.491199	1.249385
C113	C	0.089190	-0.995525	0.658578
C114	C	0.589190	-0.495525	1.158578
C115	C	0.131849	-0.944211	0.613173
C116	C	0.631849	-0.444211	1.113173
N117	N	0.166246	-0.902830	0.479807
N118	N	0.666246	-0.402830	0.979807
N119	N	0.128158	-0.948634	0.520355
N120	N	0.628158	-0.448634	1.020355
H121	H	-0.204558	-1.057937	0.000111
H122	H	0.295442	-0.557937	0.500111
N123	N	0.046777	-1.046537	0.798356
N124	N	0.546777	-0.546537	1.298356
H125	H	0.057323	-1.102899	0.782541
H126	H	0.557323	-0.602899	1.282541
H127	H	0.056102	-1.035288	0.862753
H128	H	0.556102	-0.535288	1.362753
H129	H	0.251956	-0.670415	0.000031
H130	H	0.751956	-0.170415	0.500031
H131	H	0.242891	-0.810642	0.378543
H132	H	0.742891	-0.310642	0.878543
N133	N	-0.508272	-1.071818	0.000096
N134	N	-0.008272	-0.571818	0.500096
H135	H	-0.455906	-1.061833	0.000109
H136	H	0.044094	-0.561833	0.500109
H137	H	-0.520802	-1.100239	0.053581
H138	H	-0.020802	-0.600239	0.553581
H139	H	0.053086	-0.329383	0.000117
H140	H	0.553086	0.170617	0.500117
N141	N	0.299385	-0.302975	0.000058
N142	N	0.799385	0.197025	0.500058
H143	H	0.302503	-0.339025	-0.053423
H144	H	0.802503	0.160975	0.446577
H145	H	0.336558	-0.258571	0.000088
H146	H	0.836558	0.241429	0.500088
H147	H	0.219403	-0.838947	0.786335
H148	H	0.719403	-0.338947	1.286335
H149	H	-0.633270	-0.791346	0.000026
H150	H	-0.133270	-0.291346	0.500026
N151	N	0.247620	-0.804932	0.201790
N152	N	0.747620	-0.304932	0.701790
H153	H	0.277479	-0.769031	0.244326
H154	H	0.777479	-0.269031	0.744326
H155	H	0.278674	-0.836628	0.164097
H156	H	0.778674	-0.336628	0.664097
N157	N	0.224121	-0.833228	0.609598
N158	N	0.724121	-0.333228	1.109598
H159	H	0.253979	-0.797330	0.652139
H160	H	0.753979	-0.297330	1.152139
H161	H	0.255177	-0.864920	0.571903
H162	H	0.755177	-0.364920	1.071903
N163	N	0.039286	-1.055534	0.609619
N164	N	0.539286	-0.555534	1.109619
H165	H	0.051091	-1.110386	0.625418
H166	H	0.551091	-0.610386	1.125418
H167	H	-0.010119	-1.045858	0.625458
H168	H	0.489881	-0.545858	1.125458
N169	N	0.287213	-0.133013	0.000062
N170	N	0.787213	0.366987	0.500062
H171	H	0.273488	-0.076462	0.000069
H172	H	0.773488	0.423538	0.500069
H173	H	0.317900	-0.140578	0.053535
H174	H	0.817900	0.359422	0.553535
N175	N	0.025014	-0.172766	0.000119
N176	N	0.525014	0.327234	0.500119
H177	H	-0.012198	-0.217129	0.000129
H178	H	0.487802	0.282871	0.500129
H179	H	0.021958	-0.136702	0.053598
H180	H	0.521958	0.363298	0.553598
H181	H	-0.072320	-1.060123	0.000134
H182	H	0.427680	-0.560123	0.500134
H183	H	-0.188827	-0.798696	0.000070
H184	H	0.311173	-0.298696	0.500070
H185	H	-0.649002	-1.050591	0.000059
H186	H	-0.149002	-0.550591	0.500059
N187	N	-0.004979	-0.548513	0.000119
N188	N	0.495021	-0.048513	0.500119
H189	H	0.000432	-0.489060	0.000121
H190	H	0.500432	0.010940	0.500121
H191	H	-0.033622	-0.569533	-0.053353
H192	H	0.466378	-0.069533	0.446647
N193	N	0.007205	-0.718467	0.000097
N194	N	0.507205	-0.218467	0.500097
H195	H	-0.035495	-0.686221	0.000108
H196	H	0.464505	-0.186221	0.500108
H197	H	0.004766	-0.755363	-0.053382
H198	H	0.504766	-0.255363	0.446618
H199	H	-0.056581	-0.800874	0.000075
H200	H	0.443419	-0.300874	0.500075
H201	H	0.241323	-0.522084	0.000049
H202	H	0.741323	-0.022084	0.500049
N203	N	-0.490242	-0.774810	0.000040
N204	N	0.009758	-0.274810	0.500040
H205	H	-0.521644	-0.728985	0.000033
H206	H	-0.021644	-0.228985	0.500033
H207	H	-0.457697	-0.769639	0.053522
H208	H	0.042303	-0.269639	0.553522
N209	N	0.062787	-1.027233	0.201821
N210	N	0.562787	-0.527233	0.701821
H211	H	0.036308	-1.059077	0.244369
H212	H	0.536308	-0.559077	0.744369
H213	H	0.028738	-0.999126	0.164158
H214	H	0.528738	-0.499126	0.664158
H215	H	0.081553	-1.004668	0.378560
H216	H	0.581553	-0.504668	0.878560
