data_functionalizedCrystal
_audit_creation_method	'MofGen! by Chris Wilmer'
_symmetry_space_group_name_H-M	'P1'
_symmetry_Int_Tables_number	1
_symmetry_cell_setting	triclinic
loop_
_symmetry_equiv_pos_as_xyz
  x,y,z
_cell_length_a	16.959455
_cell_length_b	19.077068
_cell_length_c	19.076919
_cell_angle_alpha	94.470751
_cell_angle_beta	87.717788
_cell_angle_gamma	87.676048
loop_
_atom_site_label
_atom_site_type_symbol
_atom_site_fract_x
_atom_site_fract_y
_atom_site_fract_z
Zn1	Zn	1.176473	0.296738	0.409832
Zn2	Zn	1.676473	0.796738	0.909832
Zn3	Zn	1.176375	0.409891	0.296677
Zn4	Zn	1.676375	0.909891	0.796677
Zn5	Zn	1.049829	0.292016	0.291964
Zn6	Zn	1.549829	0.792016	0.791964
Zn7	Zn	1.038720	0.414582	0.414522
Zn8	Zn	1.538720	0.914582	0.914522
O9	O	1.110349	0.353307	0.353249
O10	O	1.610349	0.853307	0.853249
O11	O	1.287070	0.311761	0.394831
O12	O	1.787070	0.811761	0.894831
O13	O	1.164197	0.390316	0.197404
O14	O	1.664197	0.890316	0.697404
O15	O	1.071319	0.193994	0.303664
O16	O	1.571319	0.693994	0.803664
O17	O	1.286998	0.394894	0.311696
O18	O	1.786998	0.894894	0.811696
O19	O	1.164363	0.197463	0.390261
O20	O	1.664363	0.697463	0.890261
O21	O	1.071224	0.303714	0.193942
O22	O	1.571224	0.803714	0.693942
O23	O	0.937746	0.308262	0.308212
O24	O	1.437746	0.808262	0.808212
O25	O	1.052385	0.402888	0.512547
O26	O	1.552385	0.902888	1.012547
O27	O	0.929584	0.398310	0.398255
O28	O	1.429584	0.898310	0.898255
O29	O	1.153591	0.316309	0.509101
O30	O	1.653591	0.816309	1.009101
O31	O	1.153424	0.509163	0.316244
O32	O	1.653424	1.009163	0.816244
O33	O	1.052290	0.512608	0.402825
O34	O	1.552290	1.012608	0.902825
C35	C	1.101662	0.536465	0.360570
C36	C	1.601662	1.036465	0.860570
C37	C	1.098016	0.614821	0.363726
C38	C	1.598016	1.114821	0.863726
C39	C	0.904985	0.353283	0.353232
C40	C	1.404985	0.853283	0.853232
C41	C	0.817127	0.353290	0.353242
C42	C	1.317127	0.853290	0.853242
C43	C	1.101760	0.360649	0.537118
C44	C	1.601760	0.860649	1.037118
C45	C	1.098099	0.363777	0.615472
C46	C	1.598099	0.863777	1.115472
C47	C	0.449874	0.306386	0.306456
C48	C	0.949874	0.806386	0.806456
C49	C	0.441423	0.400288	0.400084
C50	C	0.941423	0.900288	0.900084
C51	C	0.523970	0.400277	0.400080
C52	C	1.023970	0.900277	0.900080
C53	C	0.569472	0.353321	0.353262
C54	C	1.069472	0.853321	0.853262
C55	C	0.532428	0.306375	0.306448
C56	C	1.032428	0.806375	0.806448
C57	C	0.561020	0.447227	0.446887
C58	C	1.061020	0.947227	0.946887
C59	C	0.643572	0.447219	0.446884
C60	C	1.143572	0.947219	0.946884
C61	C	0.689076	0.400259	0.400069
C62	C	1.189076	0.900259	0.900069
C63	C	0.652027	0.353311	0.353254
C64	C	1.152027	0.853311	0.853254
C65	C	0.697529	0.306355	0.306436
C66	C	1.197529	0.806355	0.806436
C67	C	0.660481	0.259402	0.259624
C68	C	1.160481	0.759402	0.759624
C69	C	0.577932	0.259415	0.259633
C70	C	1.077932	0.759415	0.759633
C71	C	0.771625	0.400247	0.400060
C72	C	1.271625	0.900247	0.900060
C73	C	0.780083	0.306344	0.306429
C74	C	1.280083	0.806344	0.806429
C75	C	1.316516	0.353331	0.353266
C76	C	1.816516	0.853331	0.853266
C77	C	1.404371	0.353342	0.353274
C78	C	1.904371	0.853342	0.853274
C79	C	1.119091	0.169434	0.345914
C80	C	1.619091	0.669434	0.845914
C81	C	1.122817	0.091079	0.342788
C82	C	1.622817	0.591079	0.842788
C83	C	1.148997	0.649818	0.320168
C84	C	1.648997	1.149818	0.820168
C85	C	1.145573	0.723442	0.323141
C86	C	1.645573	1.223442	0.823141
C87	C	1.091164	0.762069	0.369668
C88	C	1.591164	1.262069	0.869668
C89	C	1.040181	0.727068	0.413231
C90	C	1.540181	1.227068	0.913231
C91	C	1.043610	0.653445	0.410261
C92	C	1.543610	1.153445	0.910261
C93	C	1.075263	0.982454	0.383382
C94	C	1.575263	1.482454	0.883382
C95	C	1.071837	1.056083	0.386346
C96	C	1.571837	1.556083	0.886346
C97	C	1.177229	1.052452	0.296257
C98	C	1.677229	1.552452	0.796257
C99	C	1.180650	0.978827	0.293289
C100	C	1.680650	1.478827	0.793289
C101	C	1.129670	0.943832	0.336854
C102	C	1.629670	1.443832	0.836854
N103	N	1.087661	0.837326	0.372706
N104	N	1.587661	1.337326	0.872706
N105	N	1.133178	0.868578	0.333819
N106	N	1.633178	1.368578	0.833819
C107	C	1.118953	0.345943	0.170093
C108	C	1.618953	0.845943	0.670093
C109	C	1.122776	0.342615	0.091732
C110	C	1.622776	0.842615	0.591732
C111	C	1.149070	0.320172	0.650490
C112	C	1.649070	0.820172	1.150490
C113	C	1.145621	0.323109	0.724111
C114	C	1.645621	0.823109	1.224111
C115	C	1.091205	0.369655	0.762714
C116	C	1.591205	0.869655	1.262714
C117	C	1.040229	0.413262	0.727691
C118	C	1.540229	0.913262	1.227691
C119	C	1.043674	0.410321	0.654070
C120	C	1.543674	0.910321	1.154070
C121	C	1.075246	0.383281	0.983088
C122	C	1.575246	0.883281	1.483088
C123	C	1.071806	0.386221	1.056714
C124	C	1.571806	0.886221	1.556714
C125	C	1.177197	0.296066	1.053129
C126	C	1.677197	0.796066	1.553129
C127	C	1.180641	0.293132	0.979507
C128	C	1.680641	0.793132	1.479507
C129	C	1.129663	0.336737	0.944491
C130	C	1.629663	0.836737	1.444491
N131	N	1.087680	0.372660	0.837967
N132	N	1.587680	0.872660	1.337967
N133	N	1.133184	0.333728	0.869238
N134	N	1.633184	0.833728	1.369238
H135	H	0.817126	0.268102	0.268307
H136	H	1.317126	0.768102	0.768307
C137	C	0.709850	0.208509	0.208678
C138	C	1.209850	0.708509	0.708678
C139	C	0.692309	0.220978	0.139516
C140	C	1.192309	0.720978	0.639516
C141	C	0.737784	0.174118	0.092565
C142	C	1.237784	0.674118	0.592565
H143	H	0.698126	0.161544	0.217084
H144	H	1.198126	0.661544	0.717084
H145	H	0.764327	0.215239	0.215332
H146	H	1.264327	0.715239	0.715332
H147	H	0.637845	0.214242	0.132864
H148	H	1.137845	0.714242	0.632864
H149	H	0.704037	0.267933	0.131087
H150	H	1.204037	0.767933	0.631087
H151	H	0.792261	0.180848	0.099220
H152	H	1.292261	0.680848	0.599220
H153	H	0.726056	0.127156	0.100978
H154	H	1.226056	0.627156	0.600978
H155	H	0.725894	0.182576	0.045634
H156	H	1.225894	0.682576	0.545634
C157	C	1.232666	0.248807	1.091114
C158	C	1.732666	0.748807	1.591114
C159	C	1.310980	0.263461	1.073844
C160	C	1.810980	0.763461	1.573844
C161	C	1.362098	0.219941	1.108829
C162	C	1.862098	0.719941	1.608829
H163	H	1.224016	0.200935	1.077186
H164	H	1.724016	0.700935	1.577186
H165	H	1.222875	0.257228	1.140496
H166	H	1.722875	0.757228	1.640496
H167	H	1.320767	0.255034	1.024474
H168	H	1.820767	0.755034	1.524474
H169	H	1.319654	0.311324	1.087774
H170	H	1.819654	0.811324	1.587774
H171	H	1.352307	0.228363	1.158211
H172	H	1.852307	0.728363	1.658211
H173	H	1.353442	0.172072	1.094898
H174	H	1.853442	0.672072	1.594898
H175	H	1.415240	0.229882	1.097122
H176	H	1.915240	0.729882	1.597122
H177	H	0.801786	0.438476	0.438171
H178	H	1.301786	0.938476	0.938171
H179	H	0.547760	0.221190	0.221521
H180	H	1.047760	0.721190	0.721521
H181	H	1.224954	0.947378	0.255403
H182	H	1.724954	1.447378	0.755403
H183	H	1.027491	0.424126	1.088142
H184	H	1.527491	0.924126	1.588142
C185	C	0.683939	0.498156	0.497635
C186	C	1.183939	0.998156	0.997635
C187	C	0.765971	0.488107	0.487602
C188	C	1.265971	0.988107	0.987602
C189	C	0.803184	0.535021	0.534338
C190	C	1.303184	1.035021	1.034338
H191	H	0.668777	0.489849	0.544636
H192	H	1.168777	0.989849	1.044636
H193	H	0.668705	0.545109	0.489132
H194	H	1.168705	1.045109	0.989132
H195	H	0.781198	0.441165	0.496111
H196	H	1.281198	0.941165	0.996111
H197	H	0.781156	0.496421	0.440611
H198	H	1.281156	0.996421	0.940611
H199	H	0.787951	0.581974	0.525835
H200	H	1.287951	1.081974	1.025835
H201	H	0.788016	0.526709	0.581336
H202	H	1.288016	1.026709	1.081336
H203	H	0.858846	0.528213	0.527533
H204	H	1.358846	1.028213	1.027533
C205	C	1.012667	1.098052	0.436751
C206	C	1.512667	1.598052	0.936751
C207	C	0.961920	1.138758	0.398501
C208	C	1.461920	1.638758	0.898501
C209	C	0.907398	1.177421	0.444905
C210	C	1.407398	1.677421	0.944905
H211	H	1.040009	1.128027	0.468661
H212	H	1.540009	1.628027	0.968661
H213	H	0.982752	1.066686	0.462260
H214	H	1.482752	1.566686	0.962260
H215	H	0.991832	1.170121	0.373004
H216	H	1.491832	1.670121	0.873004
H217	H	0.934560	1.108801	0.366594
H218	H	1.434560	1.608801	0.866594
H219	H	0.877483	1.146055	0.470414
H220	H	1.377483	1.646055	0.970414
H221	H	0.934747	1.207392	0.476812
H222	H	1.434747	1.707392	0.976812
H223	H	0.872955	1.205040	0.418959
H224	H	1.372955	1.705040	0.918959
H225	H	0.995884	0.758524	0.451117
H226	H	1.495884	1.258524	0.951117
H227	H	1.218735	1.080952	0.260790
H228	H	1.718735	1.580952	0.760790
H229	H	1.187086	0.751933	0.287671
H230	H	1.687086	1.251933	0.787671
C231	C	1.019808	0.944594	0.430700
C232	C	1.519808	1.444594	0.930700
C233	C	0.971408	0.994182	0.472060
C234	C	1.471408	1.494182	0.972060
C235	C	0.920300	0.959328	0.515649
C236	C	1.420300	1.459328	1.015649
H237	H	1.049819	0.917064	0.460347
H238	H	1.549819	1.417064	0.960347
H239	H	0.987948	0.914850	0.402559
H240	H	1.487948	1.414850	0.902559
H241	H	1.003264	1.023914	0.500199
H242	H	1.503264	1.523914	1.000199
H243	H	0.941381	1.021714	0.442432
H244	H	1.441381	1.521714	0.942432
H245	H	0.888439	0.929584	0.487509
H246	H	1.388439	1.429584	0.987509
H247	H	0.950316	0.931799	0.545292
H248	H	1.450316	1.431799	1.045292
H249	H	0.887449	0.992967	0.543713
H250	H	1.387449	1.492967	1.043713
H251	H	1.002161	0.445822	0.625559
H252	H	1.502161	0.945822	1.125559
C253	C	1.208115	0.607798	0.269761
C254	C	1.708115	1.107798	0.769761
C255	C	1.258833	0.567060	0.308007
C256	C	1.758833	1.067060	0.808007
C257	C	1.313299	0.528338	0.261595
C258	C	1.813299	1.028338	0.761595
H259	H	1.238066	0.639107	0.244228
H260	H	1.738066	1.139107	0.744228
H261	H	1.180702	0.577845	0.237873
H262	H	1.680702	1.077845	0.737873
H263	H	1.286244	0.597011	0.339883
H264	H	1.786244	1.097011	0.839883
H265	H	1.228904	0.535738	0.333539
H266	H	1.728904	1.035738	0.833539
H267	H	1.285886	0.498385	0.229707
H268	H	1.785886	0.998385	0.729707
H269	H	1.343245	0.559652	0.236064
H270	H	1.843245	1.059652	0.736064
H271	H	1.347713	0.500688	0.287538
H272	H	1.847713	1.000688	0.787538
H273	H	1.002097	0.624952	0.445732
H274	H	1.502097	1.124952	0.945732
H275	H	1.193383	0.282271	0.619064
H276	H	1.693383	0.782271	1.119064
H277	H	1.187128	0.287603	0.752620
H278	H	1.687128	0.787603	1.252620
H279	H	0.419706	0.268156	0.268345
H280	H	0.919706	0.768156	0.768345
H281	H	0.404370	0.438521	0.438197
H282	H	0.904370	0.938521	0.938197
H283	H	1.224954	0.255231	0.948082
H284	H	1.724954	0.755231	1.448082
H285	H	0.523966	0.485461	0.484999
H286	H	1.023966	0.985461	0.984999
H287	H	1.033747	0.418798	0.954587
H288	H	1.533747	0.918798	1.454587
C289	C	0.981227	0.463776	0.769726
C290	C	1.481227	0.963776	1.269726
C291	C	0.989133	0.457034	0.841696
C292	C	1.489133	0.957034	1.341696
C293	C	0.934801	0.503565	0.880438
C294	C	1.434801	1.003565	1.380438
H295	H	0.929136	0.453018	0.757329
H296	H	1.429136	0.953018	1.257329
H297	H	0.991112	0.510678	0.759591
H298	H	1.491112	1.010678	1.259591
H299	H	0.979242	0.410143	0.851826
H300	H	1.479242	0.910143	1.351826
H301	H	1.041212	0.467799	0.854114
H302	H	1.541212	0.967799	1.354114
H303	H	0.944686	0.550467	0.870304
H304	H	1.444686	1.050467	1.370304
H305	H	0.882714	0.492802	0.868035
H306	H	1.382714	0.992802	1.368035
H307	H	0.940163	0.499001	0.929274
H308	H	1.440163	0.999001	1.429274
