data_functionalizedCrystal
_audit_creation_method	'MofGen! by Chris Wilmer'
_symmetry_space_group_name_H-M	'P1'
_symmetry_Int_Tables_number	1
_symmetry_cell_setting	triclinic
loop_
_symmetry_equiv_pos_as_xyz
  x,y,z
_cell_length_a	10.723024
_cell_length_b	11.792241
_cell_length_c	9.198806
_cell_angle_alpha	89.996670
_cell_angle_beta	89.996352
_cell_angle_gamma	84.330643
loop_
_atom_site_label
_atom_site_type_symbol
_atom_site_fract_x
_atom_site_fract_y
_atom_site_fract_z
O1	O	1.656767	0.159192	-0.120884
O2	O	1.293574	0.174430	-0.120889
O3	O	1.483984	0.001660	-0.120876
O4	O	1.466357	0.331962	-0.120897
O5	O	1.483969	0.001659	0.120909
O6	O	1.293559	0.174430	0.120896
O7	O	1.656751	0.159192	0.120901
Cu8	Cu	1.475154	0.166811	0.142976
Cu9	Cu	1.475172	0.166811	-0.142963
O10	O	1.466341	0.331962	0.120889
C11	C	1.247070	0.173321	0.000003
C12	C	1.108524	0.170003	0.000002
C13	C	1.482869	-0.040634	0.000016
C14	C	1.479555	-0.166655	0.000015
C15	C	1.033286	0.266676	-0.000005
C16	C	0.890091	0.263249	-0.000007
C17	C	1.473461	-0.397380	-0.000010
C18	C	1.476847	-0.268988	0.000004
C19	C	1.703256	0.160301	0.000006
C20	C	1.841801	0.163619	-0.000002
C21	C	1.467456	0.374255	-0.000007
C22	C	1.470770	0.500276	-0.000015
N23	N	1.475150	0.166810	0.344090
N24	N	1.475185	0.166803	-0.344077
C25	C	1.555099	0.093948	0.416292
C26	C	1.555118	0.093944	0.583704
H27	H	0.825440	0.346009	-0.000019
O28	O	0.918861	0.064845	-0.000254
C29	C	0.983112	-0.110736	-0.125462
C30	C	0.895779	0.001091	-0.125373
H31	H	0.964462	-0.162324	-0.226594
H32	H	1.084880	-0.090448	-0.125557
H33	H	0.964585	-0.162263	-0.024225
H34	H	0.914193	0.052672	-0.226592
H35	H	0.794039	-0.019277	-0.125202
H36	H	1.066928	0.084701	-0.000030
O37	O	1.393474	0.241338	0.582094
C38	C	1.226534	0.393397	0.597854
C39	C	1.319023	0.309066	0.681659
H40	H	1.166298	0.448161	0.678315
H41	H	1.280965	0.450423	0.526620
H42	H	1.163807	0.343974	0.526568
H43	H	1.381772	0.358397	0.753024
H44	H	1.264514	0.252041	0.752801
O45	O	1.636895	0.019476	0.657542
C46	C	1.803720	-0.132687	0.641783
C47	C	1.711194	-0.048390	0.557978
H48	H	1.863796	-0.187596	0.561322
H49	H	1.866595	-0.083350	0.712989
H50	H	1.749194	-0.189578	0.713097
H51	H	1.765617	0.008521	0.486585
H52	H	1.648319	-0.097798	0.486864
H53	H	1.074882	0.351978	-0.000002
H54	H	1.406713	0.229182	0.406213
H55	H	1.623528	0.031567	0.354171
