data_functionalizedCrystal
_audit_creation_method	'MofGen! by Chris Wilmer'
_symmetry_space_group_name_H-M	'P1'
_symmetry_Int_Tables_number	1
_symmetry_cell_setting	triclinic
loop_
_symmetry_equiv_pos_as_xyz
  x,y,z
_cell_length_a	19.077105
_cell_length_b	18.101395
_cell_length_c	19.076919
_cell_angle_alpha	92.272317
_cell_angle_beta	90.076224
_cell_angle_gamma	87.727498
loop_
_atom_site_label
_atom_site_type_symbol
_atom_site_fract_x
_atom_site_fract_y
_atom_site_fract_z
Zn1	Zn	1.058231	-0.358271	-0.440421
Zn2	Zn	1.391564	-0.024938	-0.107088
Zn3	Zn	1.724897	0.308395	0.226246
Zn4	Zn	1.062857	-0.477344	-0.322915
Zn5	Zn	1.396191	-0.144010	0.010418
Zn6	Zn	1.729524	0.189323	0.343751
Zn7	Zn	0.945450	-0.348351	-0.318214
Zn8	Zn	1.278783	-0.015017	0.015119
Zn9	Zn	1.612116	0.318316	0.348452
Zn10	Zn	0.940679	-0.476897	-0.435668
Zn11	Zn	1.274013	-0.143564	-0.102335
Zn12	Zn	1.607346	0.189769	0.230999
O13	O	1.001804	-0.415216	-0.379305
O14	O	1.335138	-0.081882	-0.045971
O15	O	1.668471	0.251451	0.287362
O16	O	1.157176	-0.378405	-0.428790
O17	O	1.490509	-0.045072	-0.095457
O18	O	1.823842	0.288261	0.237876
O19	O	1.051216	-0.456268	-0.223960
O20	O	1.384549	-0.122934	0.109373
O21	O	1.717882	0.210399	0.442706
O22	O	0.960470	-0.246037	-0.334447
O23	O	1.293804	0.087296	-0.001114
O24	O	1.627137	0.420629	0.332220
O25	O	1.160575	-0.465887	-0.342459
O26	O	1.493908	-0.132554	-0.009126
O27	O	1.827242	0.200779	0.324207
O28	O	1.043330	-0.253326	-0.424232
O29	O	1.376663	0.080007	-0.090898
O30	O	1.709997	0.413341	0.242435
O31	O	0.964957	-0.361497	-0.220507
O32	O	1.298290	-0.028164	0.112827
O33	O	1.631623	0.305170	0.446160
O34	O	0.846486	-0.361064	-0.329838
O35	O	1.179819	-0.027731	0.003495
O36	O	1.513152	0.305603	0.336829
O37	O	0.952340	-0.465126	-0.534630
O38	O	1.285673	-0.131793	-0.201296
O39	O	1.619007	0.201541	0.132037
O40	O	0.842981	-0.455506	-0.416131
O41	O	1.176314	-0.122173	-0.082797
O42	O	1.509647	0.211160	0.250536
O43	O	1.038704	-0.377972	-0.538122
O44	O	1.372038	-0.044639	-0.204788
O45	O	1.705371	0.288694	0.128545
O46	O	1.046590	-0.580914	-0.337850
O47	O	1.379923	-0.247581	-0.004517
O48	O	1.713257	0.085753	0.328816
O49	O	0.956826	-0.580586	-0.420689
O50	O	1.290160	-0.247253	-0.087356
O51	O	1.623493	0.086081	0.245978
C52	C	0.819237	-0.407161	-0.371959
C53	C	1.152570	-0.073827	-0.038626
C54	C	1.485904	0.259506	0.294708
C55	C	0.741133	-0.403733	-0.368833
C56	C	1.074466	-0.070400	-0.035500
C57	C	1.407800	0.262933	0.297834
C58	C	0.702636	-0.451363	-0.412222
C59	C	1.035970	-0.118029	-0.078889
C60	C	1.369303	0.215304	0.254445
C61	C	0.629249	-0.448133	-0.409288
C62	C	0.962583	-0.114799	-0.075955
C63	C	1.295916	0.218534	0.257378
C64	C	0.594361	-0.397276	-0.362962
C65	C	0.927694	-0.063943	-0.029628
C66	C	1.261027	0.269390	0.303705
C67	C	0.632863	-0.349642	-0.319571
C68	C	0.966196	-0.016308	0.013762
C69	C	1.299529	0.317025	0.347095
C70	C	0.706248	-0.352869	-0.322509
C71	C	1.039582	-0.019535	0.010824
C72	C	1.372915	0.313798	0.344158
C73	C	0.375075	-0.382341	-0.349369
C74	C	0.708408	-0.049008	-0.016036
C75	C	1.041742	0.284325	0.317298
C76	C	0.301684	-0.379119	-0.346433
C77	C	0.635018	-0.045786	-0.013100
C78	C	0.968351	0.287547	0.320234
C79	C	0.298076	-0.477610	-0.436152
C80	C	0.631409	-0.144277	-0.102818
C81	C	0.964743	0.189057	0.230515
C82	C	0.371463	-0.480836	-0.439082
C83	C	0.704796	-0.147502	-0.105749
C84	C	1.038130	0.185831	0.227585
C85	C	0.409959	-0.433198	-0.395694
C86	C	0.743292	-0.099865	-0.062361
C87	C	1.076625	0.233468	0.270972
N88	N	0.519348	-0.393975	-0.359960
N89	N	0.852681	-0.060642	-0.026627
N90	N	1.186014	0.272692	0.306706
N91	N	0.484970	-0.436497	-0.398700
N92	N	0.818304	-0.103163	-0.065366
N93	N	1.151637	0.230170	0.267967
C94	C	1.001711	-0.607621	-0.379280
C95	C	1.335044	-0.274288	-0.045947
C96	C	1.668378	0.059045	0.287387
C97	C	1.001735	-0.689937	-0.379296
C98	C	1.335068	-0.356604	-0.045962
C99	C	1.668401	-0.023270	0.287371
C100	C	1.001887	-0.989036	-0.379340
C101	C	1.335221	-0.655703	-0.046006
C102	C	1.668554	-0.322370	0.287327
C103	C	0.945531	-0.957547	-0.431600
C104	C	1.278864	-0.624213	-0.098266
C105	C	1.612197	-0.290880	0.235067
C106	C	0.945280	-0.871910	-0.431419
C107	C	1.278613	-0.538577	-0.098086
C108	C	1.611947	-0.205244	0.235248
C109	C	1.001811	-0.840650	-0.379319
C110	C	1.335145	-0.507316	-0.045985
C111	C	1.668478	-0.173983	0.287348
C112	C	0.984741	-0.867911	-0.304458
C113	C	1.318075	-0.534578	0.028875
C114	C	1.651408	-0.201244	0.362209
C115	C	0.984379	-0.953554	-0.304770
C116	C	1.317712	-0.620221	0.028564
C117	C	1.651046	-0.286887	0.361897
C118	C	1.075459	-0.961424	-0.401293
C119	C	1.408792	-0.628091	-0.067960
C120	C	1.742125	-0.294757	0.265373
C121	C	1.074956	-0.875820	-0.402900
C122	C	1.408289	-0.542486	-0.069567
C123	C	1.741623	-0.209153	0.263767
C124	C	1.001770	-0.756788	-0.379302
C125	C	1.335103	-0.423454	-0.045969
C126	C	1.668437	-0.090121	0.287365
C127	C	1.001927	-1.072898	-0.379351
C128	C	1.335260	-0.739565	-0.046018
C129	C	1.668594	-0.406231	0.287315
C130	C	1.185084	-0.423303	-0.386679
C131	C	1.518418	-0.089969	-0.053346
C132	C	1.851751	0.243364	0.279987
C133	C	1.263188	-0.426749	-0.389822
C134	C	1.596521	-0.093416	-0.056489
C135	C	1.929854	0.239918	0.276845
C136	C	0.994474	-0.422606	-0.562585
C137	C	1.327807	-0.089273	-0.229251
C138	C	1.661141	0.244061	0.104082
C139	C	0.991350	-0.425755	-0.640688
C140	C	1.324684	-0.092422	-0.307355
C141	C	1.658017	0.240911	0.025979
C142	C	1.001916	-0.222060	-0.379345
C143	C	1.335250	0.111273	-0.046012
C144	C	1.668583	0.444606	0.287321
C145	C	1.001964	-0.139749	-0.379363
C146	C	1.335297	0.193584	-0.046029
C147	C	1.668631	0.526918	0.287304
C148	C	1.034846	-0.381860	-0.679200
C149	C	1.368179	-0.048527	-0.345867
C150	C	1.701512	0.284806	-0.012533
C151	C	1.031902	-0.384816	-0.752586
C152	C	1.365236	-0.051483	-0.419253
C153	C	1.698569	0.281850	-0.085919
C154	C	0.985466	-0.431671	-0.787458
C155	C	1.318799	-0.098338	-0.454125
C156	C	1.652133	0.234995	-0.120792
C157	C	0.941966	-0.475568	-0.748941
C158	C	1.275299	-0.142235	-0.415608
C159	C	1.608632	0.191099	-0.082274
C160	C	0.944906	-0.472608	-0.675556
C161	C	1.278240	-0.139274	-0.342223
C162	C	1.611573	0.194059	-0.008890
C163	C	0.971847	-0.445387	-1.006740
C164	C	1.305180	-0.112054	-0.673406
C165	C	1.638513	0.221280	-0.340073
C166	C	0.968911	-0.448346	-1.080130
C167	C	1.302244	-0.115012	-0.746796
C168	C	1.635577	0.218321	-0.413463
C169	C	1.058847	-0.357593	-1.083770
C170	C	1.392180	-0.024259	-0.750436
C171	C	1.725513	0.309074	-0.417103
C172	C	1.061786	-0.354640	-1.010384
C173	C	1.395119	-0.021306	-0.677050
C174	C	1.728453	0.312027	-0.343717
C175	C	1.018283	-0.398533	-0.971872
C176	C	1.351617	-0.065200	-0.638539
C177	C	1.684950	0.268133	-0.305206
N178	N	0.982458	-0.434696	-0.862471
N179	N	1.315791	-0.101362	-0.529137
N180	N	1.649124	0.231971	-0.195804
N181	N	1.021289	-0.395505	-0.896861
N182	N	1.354622	-0.062171	-0.563528
N183	N	1.687955	0.271162	-0.230195
C184	C	1.009146	-0.407803	-0.196739
C185	C	1.342480	-0.074469	0.136594
C186	C	1.675813	0.258864	0.469928
C187	C	1.012406	-0.404451	-0.118642
C188	C	1.345740	-0.071117	0.214692
C189	C	1.679073	0.262216	0.548025
H190	H	0.399864	-0.522250	-0.476804
H191	H	0.733198	-0.188917	-0.143471
H192	H	1.066531	0.144417	0.189862
O193	O	0.891874	-0.526099	-0.786550
O194	O	1.225207	-0.192766	-0.453216
O195	O	1.558540	0.140568	-0.119883
H196	H	0.921959	-0.566519	-0.821240
H197	H	1.255292	-0.233185	-0.487906
H198	H	1.588625	0.100148	-0.154573
H199	H	1.072661	-0.343708	-0.650813
H200	H	1.405995	-0.010375	-0.317479
H201	H	1.739328	0.322958	0.015854
O202	O	0.897985	-0.519940	-0.634012
O203	O	1.231318	-0.186607	-0.300679
O204	O	1.564651	0.146727	0.032655
H205	H	0.865201	-0.553020	-0.670588
H206	H	1.198534	-0.219686	-0.337255
H207	H	1.531867	0.113647	-0.003921
H208	H	0.597908	-0.486918	-0.444619
H209	H	0.931242	-0.153585	-0.111286
H210	H	1.264575	0.179748	0.222047
O211	O	0.740265	-0.506213	-0.462192
O212	O	1.073599	-0.172879	-0.128858
O213	O	1.406932	0.160454	0.204475
H214	H	0.701164	-0.538783	-0.491875
H215	H	1.034497	-0.205450	-0.158542
H216	H	1.367830	0.127883	0.174792
O217	O	1.036605	-0.980938	-0.251219
O218	O	1.369938	-0.647605	0.082114
O219	O	1.703271	-0.314271	0.415447
H220	H	1.077105	-1.017773	-0.277797
H221	H	1.410438	-0.684440	0.055536
H222	H	1.743771	-0.351106	0.388869
O223	O	0.958788	-0.988793	-0.505160
O224	O	1.292121	-0.655460	-0.171827
O225	O	1.625454	-0.322126	0.161506
H226	H	1.005717	-1.027057	-0.505273
H227	H	1.339051	-0.693723	-0.171940
H228	H	1.672384	-0.360390	0.161393
H229	H	1.087883	-0.858335	-0.458008
H230	H	1.421216	-0.525002	-0.124674
H231	H	1.754549	-0.191669	0.208659
O232	O	0.913259	-0.976079	-0.280602
O233	O	1.246592	-0.642746	0.052731
O234	O	1.579926	-0.309413	0.386065
H235	H	0.879447	-0.925820	-0.268806
H236	H	1.212781	-0.592487	0.064528
H237	H	1.546114	-0.259154	0.397861
H238	H	0.737591	-0.314080	-0.287181
H239	H	1.070925	0.019254	0.046153
H240	H	1.404258	0.352587	0.379486
H241	H	1.118927	-0.854786	-0.367848
H242	H	1.452260	-0.521452	-0.034515
H243	H	1.785593	-0.188119	0.298818
O244	O	1.037569	-0.840918	-0.251293
O245	O	1.370902	-0.507584	0.082040
O246	O	1.704236	-0.174251	0.415373
H247	H	1.076643	-0.807703	-0.277726
H248	H	1.409976	-0.474369	0.055608
H249	H	1.743309	-0.141036	0.388941
O250	O	0.958955	-0.847665	-0.504816
O251	O	1.292288	-0.514332	-0.171483
O252	O	1.625622	-0.180999	0.161850
H253	H	0.913794	-0.812582	-0.522485
H254	H	1.247128	-0.479249	-0.189152
H255	H	1.580461	-0.145915	0.144182
O256	O	0.416581	-0.330978	-0.302550
O257	O	0.749914	0.002355	0.030783
O258	O	1.083248	0.335689	0.364117
H259	H	0.402034	-0.272744	-0.314119
H260	H	0.735367	0.060590	0.019215
H261	H	1.068700	0.393923	0.352548
O262	O	0.595239	-0.294805	-0.269585
O263	O	0.928572	0.038528	0.063748
O264	O	1.261906	0.371862	0.397082
H265	H	0.537742	-0.300574	-0.274819
H266	H	0.871075	0.032760	0.058515
H267	H	1.204409	0.366093	0.391848
H268	H	0.931637	-0.843494	-0.285943
H269	H	1.264970	-0.510161	0.047391
H270	H	1.598303	-0.176828	0.380724
O271	O	1.130995	-0.988641	-0.350972
O272	O	1.464329	-0.655308	-0.017638
O273	O	1.797662	-0.321974	0.315695
H274	H	1.118144	-0.966897	-0.297104
H275	H	1.451478	-0.633563	0.036229
H276	H	1.784811	-0.300230	0.369562
H277	H	0.891266	-0.976217	-0.416994
H278	H	1.224600	-0.642884	-0.083661
H279	H	1.557933	-0.309551	0.249673
H280	H	0.890687	-0.848550	-0.416642
H281	H	1.224020	-0.515217	-0.083309
H282	H	1.557354	-0.181884	0.250025
H283	H	1.091602	-0.985932	-0.455108
H284	H	1.424935	-0.652599	-0.121775
H285	H	1.758269	-0.319266	0.211559
H286	H	0.266725	-0.516393	-0.471476
H287	H	0.600058	-0.183059	-0.138143
H288	H	0.933392	0.150274	0.195190
O289	O	1.078819	-0.337478	-0.794127
O290	O	1.412152	-0.004145	-0.460794
O291	O	1.745485	0.329189	-0.127461
H292	H	1.111610	-0.304408	-0.757550
H293	H	1.444943	0.028925	-0.424216
H294	H	1.778277	0.362259	-0.090883
O295	O	1.111874	-0.304107	-0.972770
O296	O	1.445207	0.029227	-0.639437
O297	O	1.778540	0.362560	-0.306104
H298	H	1.141623	-0.274077	-1.011880
H299	H	1.474957	0.059256	-0.678547
H300	H	1.808290	0.392589	-0.345213
O301	O	1.105746	-0.310229	-1.125304
O302	O	1.439079	0.023105	-0.791970
O303	O	1.772412	0.356438	-0.458637
H304	H	1.095892	-0.320146	-1.182191
H305	H	1.429226	0.013188	-0.848858
H306	H	1.762559	0.346521	-0.515524
O307	O	0.918819	-0.498879	-1.117746
O308	O	1.252153	-0.165545	-0.784413
O309	O	1.585486	0.167788	-0.451080
H310	H	0.889057	-0.528898	-1.078639
H311	H	1.222390	-0.195565	-0.745306
H312	H	1.555724	0.137769	-0.411972
O313	O	0.924890	-0.492706	-0.965227
O314	O	1.258223	-0.159372	-0.631893
O315	O	1.591557	0.173961	-0.298560
H316	H	0.936319	-0.551933	-0.979773
H317	H	1.269652	-0.218600	-0.646440
H318	H	1.602986	0.114733	-0.313107
O319	O	0.264050	-0.324260	-0.296470
O320	O	0.597383	0.009074	0.036863
O321	O	0.930716	0.342407	0.370197
H322	H	0.303146	-0.291671	-0.266798
H323	H	0.636479	0.041663	0.066535
H324	H	0.969813	0.374996	0.399869
