data_functionalizedCrystal
_audit_creation_method	'MofGen! by Chris Wilmer'
_symmetry_space_group_name_H-M	'P1'
_symmetry_Int_Tables_number	1
_symmetry_cell_setting	triclinic
loop_
_symmetry_equiv_pos_as_xyz
  x,y,z
_cell_length_a	21.395364
_cell_length_b	18.215405
_cell_length_c	21.395355
_cell_angle_alpha	89.980149
_cell_angle_beta	89.975448
_cell_angle_gamma	90.039836
loop_
_atom_site_label
_atom_site_type_symbol
_atom_site_fract_x
_atom_site_fract_y
_atom_site_fract_z
Zn1	Zn	0.957885	-0.292776	-0.354256
Zn2	Zn	0.957798	-0.415824	-0.249476
Zn3	Zn	0.853100	-0.292808	-0.249492
Zn4	Zn	0.853079	-0.415837	-0.354216
O5	O	0.905465	-0.354311	-0.301860
O6	O	1.045551	-0.309080	-0.340366
O7	O	0.943881	-0.399514	-0.161800
O8	O	0.867044	-0.189820	-0.263413
O9	O	1.045487	-0.399483	-0.263385
O10	O	0.944029	-0.189796	-0.340382
O11	O	0.866960	-0.309135	-0.161812
O12	O	0.765419	-0.309147	-0.263375
O13	O	0.867010	-0.399505	-0.441899
O14	O	0.765404	-0.399536	-0.340314
O15	O	0.944010	-0.309092	-0.441928
O16	O	0.943862	-0.518810	-0.263346
O17	O	0.866926	-0.518820	-0.340298
C18	C	0.742678	-0.354347	-0.301842
C19	C	0.673036	-0.354380	-0.301850
C20	C	0.640379	-0.307384	-0.341996
C21	C	0.574943	-0.307365	-0.341998
C22	C	0.542168	-0.354354	-0.301861
C23	C	0.574833	-0.401353	-0.261707
C24	C	0.640268	-0.401366	-0.261701
C25	C	0.438449	-0.420629	-0.296822
C26	C	0.373016	-0.420618	-0.296832
C27	C	0.340347	-0.354314	-0.301875
C28	C	0.373119	-0.288020	-0.306921
C29	C	0.438553	-0.288033	-0.306915
C30	C	0.471216	-0.354345	-0.301863
C31	C	0.236737	-0.307293	-0.342026
C32	C	0.171301	-0.307272	-0.342024
C33	C	0.171192	-0.401267	-0.261736
C34	C	0.236627	-0.401281	-0.261735
C35	C	0.269396	-0.354295	-0.301883
C36	C	0.905399	-0.545518	-0.301830
C37	C	0.905428	-0.627317	-0.301838
C38	C	0.945583	-0.815481	-0.261843
C39	C	0.945611	-0.892340	-0.261858
C40	C	0.865428	-0.892390	-0.341922
C41	C	0.865403	-0.815532	-0.341910
C42	C	0.905480	-0.777080	-0.301866
C43	C	0.905532	-0.930796	-0.301894
C44	C	0.905563	-1.014130	-0.301911
C45	C	0.905451	-0.693741	-0.301850
C46	C	1.068889	-0.354276	-0.301878
C47	C	1.138530	-0.354261	-0.301886
C48	C	0.905517	-0.354297	-0.465283
C49	C	0.905539	-0.354290	-0.534925
C50	C	0.905549	-0.162358	-0.301904
C51	C	0.905584	-0.080560	-0.301923
C52	C	0.945632	-0.307210	-0.567654
C53	C	0.945631	-0.307179	-0.633089
C54	C	0.905544	-0.354240	-0.665793
C55	C	0.865444	-0.401323	-0.633056
C56	C	0.865442	-0.401348	-0.567622
C57	C	0.900574	-0.420506	-0.769457
C58	C	0.900581	-0.420482	-0.834890
C59	C	0.905548	-0.354162	-0.867614
C60	C	0.910522	-0.287865	-0.834896
C61	C	0.910519	-0.287890	-0.769462
C62	C	0.905542	-0.354218	-0.736745
C63	C	0.945642	-0.307044	-0.971296
C64	C	0.945636	-0.307011	-1.036732
C65	C	0.865453	-0.401162	-1.036698
C66	C	0.865455	-0.401189	-0.971262
C67	C	0.905553	-0.354131	-0.938565
C68	C	0.905450	-0.354273	-0.139072
C69	C	0.905549	-0.354072	-0.069431
H70	H	0.666857	-0.439637	-0.229009
C71	C	0.989672	-0.773186	-0.217797
N72	N	1.022882	-0.741332	-0.184622
H73	H	0.978267	-0.923602	-0.229267
C74	C	0.821339	-0.934695	-0.385961
N75	N	0.788128	-0.966558	-0.419129
C76	C	0.821298	-0.773289	-0.385954
N77	N	0.788084	-0.741471	-0.419133
H78	H	0.144507	-0.439527	-0.229056
C79	C	0.989732	-0.255435	-0.531691
N80	N	1.022946	-0.216434	-0.504603
H81	H	0.914567	-0.233908	-0.742826
C82	C	0.989742	-0.255215	-1.072735
N83	N	1.022964	-0.216202	-1.099852
H84	H	0.978277	-0.268837	-0.659743
C85	C	0.915985	-0.214907	-0.870887
N86	N	0.920100	-0.159957	-0.897999
H87	H	0.978288	-0.268722	-0.944672
C88	C	0.821353	-0.452984	-0.935258
N89	N	0.788131	-0.491997	-0.908141
H90	H	0.832808	-0.439473	-1.063324
H91	H	0.896535	-0.474465	-0.861524
H92	H	0.896362	-0.474497	-0.742819
C93	C	0.821346	-0.453088	-0.669031
N94	N	0.788128	-0.492075	-0.696127
H95	H	0.346521	-0.234029	-0.311027
H96	H	0.263419	-0.269029	-0.374713
H97	H	0.548144	-0.439612	-0.229027
H98	H	0.465234	-0.234054	-0.311022
H99	H	0.832791	-0.439685	-0.540974
C100	C	0.336974	-0.493541	-0.291275
N101	N	0.309828	-0.548469	-0.287085
C102	C	0.135378	-0.255569	-0.386190
N103	N	0.108320	-0.216627	-0.419457
C104	C	0.539013	-0.255668	-0.386167
N105	N	0.511952	-0.216732	-0.419438
C106	C	0.676421	-0.255689	-0.386152
N107	N	0.703568	-0.216748	-0.419409
H108	H	0.465043	-0.474626	-0.292715
C109	C	0.272552	-0.452987	-0.217575
N110	N	0.299610	-0.491933	-0.184312
