data_functionalizedCrystal
_audit_creation_method	'MofGen! by Chris Wilmer'
_symmetry_space_group_name_H-M	'P1'
_symmetry_Int_Tables_number	1
_symmetry_cell_setting	triclinic
loop_
_symmetry_equiv_pos_as_xyz
  x,y,z
_cell_length_a	14.908571
_cell_length_b	12.759399
_cell_length_c	12.759387
_cell_angle_alpha	90.058924
_cell_angle_beta	86.662358
_cell_angle_gamma	93.287980
loop_
_atom_site_label
_atom_site_type_symbol
_atom_site_fract_x
_atom_site_fract_y
_atom_site_fract_z
Zn1	Zn	1.379496	0.510675	-0.686638
Zn2	Zn	1.879496	1.010675	-0.186638
Zn3	Zn	1.379347	0.686478	-0.510958
Zn4	Zn	1.879347	1.186478	-0.010958
Zn5	Zn	1.228566	0.500671	-0.500842
Zn6	Zn	1.728566	1.000671	-0.000842
Zn7	Zn	1.228610	0.676164	-0.676478
Zn8	Zn	1.728610	1.176164	-0.176478
O9	O	1.304004	0.593497	-0.593729
O10	O	1.804004	1.093497	-0.093729
O11	O	1.505725	0.542499	-0.671819
O12	O	2.005725	1.042499	-0.171819
O13	O	1.359265	0.661960	-0.362589
O14	O	1.859265	1.161960	0.137411
O15	O	1.248631	0.354980	-0.525507
O16	O	1.748631	0.854980	-0.025507
O17	O	1.505615	0.671660	-0.542748
O18	O	2.005615	1.171660	-0.042748
O19	O	1.359518	0.362330	-0.662011
O20	O	1.859518	0.862330	-0.162011
O21	O	1.248486	0.525449	-0.355158
O22	O	1.748486	1.025449	0.144842
O23	O	1.102323	0.515448	-0.515655
O24	O	1.602323	1.015448	-0.015655
O25	O	1.248706	0.654081	-0.824852
O26	O	1.748706	1.154081	-0.324852
O27	O	1.102355	0.644381	-0.644694
O28	O	1.602355	1.144381	-0.144694
O29	O	1.359561	0.532498	-0.832317
O30	O	1.859561	1.032498	-0.332317
O31	O	1.359307	0.832127	-0.532896
O32	O	1.859307	1.332127	-0.032896
O33	O	1.248561	0.824550	-0.654502
O34	O	1.748561	1.324550	-0.154502
C35	C	1.069604	0.577711	-0.577975
C36	C	1.569604	1.077711	-0.077975
C37	C	0.969326	0.570982	-0.571260
C38	C	1.469326	1.070982	-0.071260
C39	C	0.780976	0.692806	-0.692829
C40	C	1.280976	1.192806	-0.192829
C41	C	0.686756	0.686488	-0.686524
C42	C	1.186756	1.186488	-0.186524
C43	C	0.686666	0.552022	-0.552350
C44	C	1.186666	1.052022	-0.052350
C45	C	0.780885	0.558341	-0.558655
C46	C	1.280885	1.058341	-0.058655
C47	C	0.828037	0.628736	-0.628896
C48	C	1.328037	1.128736	-0.128896
C49	C	0.922259	0.635059	-0.635196
C50	C	1.422259	1.135059	-0.135196
C51	C	0.922166	0.500589	-0.501027
C52	C	1.422166	1.000589	-0.001027
C53	C	0.827946	0.494271	-0.494722
C54	C	1.327946	0.994271	0.005278
C55	C	1.303947	0.866460	-0.593718
C56	C	1.803947	1.366460	-0.093718
C57	C	1.304006	0.983241	-0.593755
C58	C	1.804006	1.483241	-0.093755
C59	C	1.361734	1.042018	-0.530516
C60	C	1.861734	1.542018	-0.030516
C61	C	1.361788	1.151746	-0.530558
C62	C	1.861788	1.651746	-0.030558
C63	C	1.246377	1.143909	-0.657080
C64	C	1.746377	1.643909	-0.157080
C65	C	1.246328	1.034184	-0.657043
C66	C	1.746328	1.534184	-0.157043
C67	C	1.419412	0.991075	-0.467227
C68	C	1.919412	1.491075	0.032773
C69	C	1.477144	1.049852	-0.403982
C70	C	1.977144	1.549852	0.096018
C71	C	1.477198	1.159580	-0.404024
C72	C	1.977198	1.659580	0.095976
C73	C	1.419520	1.210530	-0.467312
C74	C	1.919520	1.710530	0.032688
C75	C	1.539320	0.609346	-0.609545
C76	C	2.039320	1.109346	-0.109545
C77	C	1.639598	0.616099	-0.616285
C78	C	2.139598	1.116099	-0.116285
C79	C	1.304155	0.593255	-0.867773
C80	C	1.804155	1.093255	-0.367773
C81	C	1.304219	0.593152	-0.984554
C82	C	1.804219	1.093152	-0.484554
C83	C	1.304083	1.319469	-0.593778
C84	C	1.804083	1.819469	-0.093778
C85	C	1.304108	1.202694	-0.593834
C86	C	1.804108	1.702694	-0.093834
C87	C	1.303907	0.593666	-0.320755
C88	C	1.803907	1.093666	0.179245
C89	C	1.304017	0.593485	-0.203986
C90	C	1.804017	1.093485	0.296014
C91	C	1.246871	0.657048	-0.035267
C92	C	1.746871	1.157048	0.464733
C93	C	1.246772	0.657218	-0.144984
C94	C	1.746772	1.157218	0.355016
C95	C	1.361371	0.529585	-0.153266
C96	C	1.861371	1.029585	0.346734
C97	C	1.361474	0.529422	-0.043551
C98	C	1.861474	1.029422	0.456449
C99	C	1.189616	0.720778	0.023731
C100	C	1.689616	1.220778	0.523731
C101	C	1.132263	0.784679	-0.026981
C102	C	1.632263	1.284679	0.473019
C103	C	1.132164	0.784848	-0.136699
C104	C	1.632164	1.284848	0.363301
C105	C	1.189418	0.721117	-0.195703
C106	C	1.689418	1.221117	0.304297
H107	H	0.789542	0.436954	-0.437537
H108	H	1.289542	0.936954	0.062463
H109	H	1.419372	0.901730	-0.467183
H110	H	1.919372	1.401730	0.032817
H111	H	1.524110	1.008363	-0.352462
H112	H	2.024110	1.508363	0.147538
H113	H	1.085470	0.836887	-0.177986
H114	H	1.585470	1.336887	0.322014
H115	H	0.819368	0.750131	-0.750017
H116	H	1.319368	1.250131	-0.250017
H117	H	1.419575	1.299879	-0.467350
H118	H	1.919575	1.799879	0.032650
H119	H	1.189339	0.721267	-0.285043
H120	H	1.689339	1.221267	0.214957
H121	H	1.524213	1.207434	-0.352535
H122	H	2.024213	1.707434	0.147465
H123	H	1.199321	0.986327	-0.708539
H124	H	1.699321	1.486327	-0.208539
H125	H	1.407984	0.477697	-0.201316
H126	H	1.907984	0.977697	0.298684
H127	H	0.648443	0.738658	-0.738587
H128	H	1.148443	1.238658	-0.238587
H129	H	1.199417	1.185402	-0.708605
H130	H	1.699417	1.685402	-0.208605
H131	H	1.408171	0.477390	-0.002260
H132	H	1.908171	0.977390	0.497740
H133	H	1.189689	0.720645	0.113068
H134	H	1.689689	1.220645	0.613068
H135	H	0.960493	0.448421	-0.448966
H136	H	1.460493	0.948421	0.051034
H137	H	1.085654	0.836572	0.021067
H138	H	1.585654	1.336572	0.521067
H139	H	0.648258	0.494703	-0.495169
H140	H	1.148258	0.994703	0.004831
H141	H	0.960648	0.692381	-0.692388
H142	H	1.460648	1.192381	-0.192388
