data_functionalizedCrystal
_audit_creation_method	'MofGen! by Chris Wilmer'
_symmetry_space_group_name_H-M	'P1'
_symmetry_Int_Tables_number	1
_symmetry_cell_setting	triclinic
loop_
_symmetry_equiv_pos_as_xyz
  x,y,z
_cell_length_a	19.121215
_cell_length_b	19.120786
_cell_length_c	19.121243
_cell_angle_alpha	94.785083
_cell_angle_beta	94.784136
_cell_angle_gamma	94.789602
loop_
_atom_site_label
_atom_site_type_symbol
_atom_site_fract_x
_atom_site_fract_y
_atom_site_fract_z
Zn1	Zn	1.083005	-0.215140	0.434264
Zn2	Zn	1.583005	0.284860	0.934264
Zn3	Zn	1.072438	-0.338270	0.311103
Zn4	Zn	1.572438	0.161730	0.811103
Zn5	Zn	0.959878	-0.225621	0.311112
Zn6	Zn	1.459878	0.274379	0.811112
Zn7	Zn	0.959817	-0.338252	0.423698
Zn8	Zn	1.459817	0.161748	0.923698
O9	O	1.018785	-0.279321	0.370044
O10	O	1.518785	0.220679	0.870044
O11	O	1.180265	-0.227094	0.422344
O12	O	1.680265	0.272906	0.922344
O13	O	1.053110	-0.327721	0.212443
O14	O	1.553110	0.172279	0.712443
O15	O	0.980659	-0.125563	0.331874
O16	O	1.480659	0.374437	0.831874
O17	O	1.172502	-0.317558	0.331859
O18	O	1.672502	0.182442	0.831859
O19	O	1.071121	-0.117863	0.422353
O20	O	1.571121	0.382137	0.922353
O21	O	0.970413	-0.244958	0.212450
O22	O	1.470413	0.255042	0.712450
O23	O	0.861208	-0.244941	0.321629
O24	O	1.361208	0.255059	0.821629
O25	O	0.980555	-0.317527	0.523760
O26	O	1.480555	0.182473	1.023760
O27	O	0.861163	-0.327691	0.404345
O28	O	1.361163	0.172309	0.904345
O29	O	1.071061	-0.227077	0.531523
O30	O	1.571061	0.272923	1.031523
O31	O	1.053051	-0.436935	0.321613
O32	O	1.553051	0.063065	0.821613
O33	O	0.970308	-0.436922	0.404336
O34	O	1.470308	0.063078	0.904336
C35	C	0.835604	-0.287452	0.361842
C36	C	1.335604	0.212548	0.861842
C37	C	0.757239	-0.290946	0.358349
C38	C	1.257239	0.209054	0.858349
C39	C	0.313817	-0.313069	0.336249
C40	C	0.813817	0.186931	0.836249
C41	C	0.387450	-0.309782	0.339526
C42	C	0.887450	0.190218	0.839526
C43	C	0.428310	-0.261109	0.388346
C44	C	0.928310	0.238891	0.888346
C45	C	0.395534	-0.215716	0.433887
C46	C	0.895534	0.284284	0.933887
C47	C	0.321903	-0.219000	0.430606
C48	C	0.821903	0.281000	0.930606
C49	C	0.650832	-0.248837	0.400609
C50	C	1.150832	0.251163	0.900609
C51	C	0.724468	-0.245558	0.403888
C52	C	1.224468	0.254442	0.903888
C53	C	0.716378	-0.339623	0.309526
C54	C	1.216378	0.160377	0.809526
C55	C	0.642745	-0.342906	0.306252
C56	C	1.142745	0.157094	0.806252
C57	C	0.609976	-0.297510	0.351790
C58	C	1.109976	0.202490	0.851790
C59	C	0.503575	-0.257750	0.391698
C60	C	1.003575	0.242250	0.891698
C61	C	0.534713	-0.300867	0.348434
C62	C	1.034713	0.199133	0.848434
C63	C	1.010546	-0.462510	0.361843
C64	C	1.510546	0.037490	0.861843
C65	C	1.007087	-0.540876	0.358361
C66	C	1.507087	-0.040876	0.858361
C67	C	1.052528	-0.573622	0.403868
C68	C	1.552528	-0.073622	0.903868
C69	C	1.049275	-0.647255	0.400598
C70	C	1.549275	-0.147255	0.900598
C71	C	1.000584	-0.688139	0.351816
C72	C	1.500584	-0.188139	0.851816
C73	C	0.955138	-0.655388	0.306307
C74	C	1.455138	-0.155388	0.806307
C75	C	0.958388	-0.581757	0.309582
C76	C	1.458388	-0.081757	0.809582
C77	C	0.988413	-0.910662	0.339574
C78	C	1.488413	-0.410662	0.839574
C79	C	0.985168	-0.984298	0.336302
C80	C	1.485168	-0.484298	0.836302
C81	C	1.079304	-0.976159	0.430593
C82	C	1.579304	-0.476159	0.930593
C83	C	1.082553	-0.902527	0.433861
C84	C	1.582553	-0.402527	0.933861
C85	C	1.037104	-0.869782	0.388354
C86	C	1.537104	-0.369782	0.888354
C87	C	0.997259	-0.763404	0.348471
C88	C	1.497259	-0.263404	0.848471
C89	C	1.040426	-0.794519	0.391704
C90	C	1.540426	-0.294519	0.891704
C91	C	1.202681	-0.271159	0.378279
C92	C	1.702681	0.228841	0.878279
C93	C	1.281046	-0.267681	0.381788
C94	C	1.781046	0.232319	0.881788
C95	C	1.026980	-0.271131	0.553939
C96	C	1.526980	0.228869	1.053939
C97	C	1.030472	-0.267641	0.632304
C98	C	1.530472	0.232359	1.132304
C99	C	1.027076	-0.095415	0.378293
C100	C	1.527076	0.404585	0.878293
C101	C	1.030609	-0.017045	0.381809
C102	C	1.530609	0.482955	0.881809
C103	C	0.984992	-0.313090	0.665079
C104	C	1.484992	0.186910	1.165079
C105	C	0.988279	-0.309811	0.738712
C106	C	1.488279	0.190189	1.238712
C107	C	1.037044	-0.261078	0.779567
C108	C	1.537044	0.238922	1.279567
C109	C	1.082528	-0.215626	0.746787
C110	C	1.582528	0.284374	1.246787
C111	C	1.079244	-0.218910	0.673156
C112	C	1.579244	0.281090	1.173156
C113	C	1.049321	-0.248811	1.002088
C114	C	1.549321	0.251189	1.502088
C115	C	1.052600	-0.245530	1.075724
C116	C	1.552600	0.254470	1.575724
C117	C	0.958351	-0.339716	1.067644
C118	C	1.458351	0.160284	1.567644
C119	C	0.955069	-0.342992	0.994011
C120	C	1.455069	0.157008	1.494011
C121	C	1.000556	-0.297543	0.961237
C122	C	1.500556	0.202457	1.461237
C123	C	1.040403	-0.257723	0.854831
C124	C	1.540403	0.242277	1.354831
C125	C	0.997199	-0.300902	0.885974
C126	C	1.497199	0.199098	1.385974
C127	C	1.010615	-0.287493	1.186864
C128	C	1.510615	0.212507	1.686864
C129	C	1.007120	-0.290979	1.108499
C130	C	1.507120	0.209021	1.608499
H131	H	0.414128	-0.346741	0.302442
H132	H	0.914128	0.153259	0.802442
H133	H	0.957616	-0.796701	0.308751
H134	H	1.457616	-0.296701	0.808751
H135	H	0.951408	-0.884007	0.302520
H136	H	1.451408	-0.384007	0.802520
F137	F	0.270336	-0.364878	0.284293
F138	F	0.770336	0.135122	0.784293
H139	H	0.945275	-0.352766	0.631820
H140	H	1.445275	0.147234	1.131820
H141	H	0.951245	-0.346822	0.765394
H142	H	1.451245	0.153178	1.265394
F143	F	0.767954	-0.193751	0.455850
F144	F	1.267954	0.306249	0.955850
H145	H	1.092180	-0.540338	0.443588
H146	H	1.592180	-0.040338	0.943588
H147	H	1.086360	-0.211803	0.975412
H148	H	1.586360	0.288197	1.475412
H149	H	0.743067	-0.376581	0.272450
H150	H	1.243067	0.123419	0.772450
H151	H	1.092308	-0.205839	1.108987
H152	H	1.592308	0.294161	1.608987
H153	H	0.915489	-0.688683	0.266591
H154	H	1.415489	-0.188683	0.766591
F155	F	1.092299	-0.205858	0.898319
F156	F	1.592299	0.294142	1.398319
H157	H	0.609481	-0.382540	0.266497
H158	H	1.109481	0.117460	0.766497
F159	F	0.615965	-0.200527	0.449080
F160	F	1.115965	0.299473	0.949080
F161	F	0.945304	-0.352767	0.842492
F162	F	1.445304	0.147233	1.342492
F163	F	0.439023	-0.163913	0.485843
F164	F	0.939023	0.336087	0.985843
H165	H	0.915370	-0.382686	0.960751
H166	H	1.415370	0.117314	1.460751
H167	H	0.921384	-0.555096	0.272526
H168	H	1.421384	-0.055096	0.772526
H169	H	0.921319	-0.376718	1.094336
H170	H	1.421319	0.123282	1.594336
H171	H	1.122236	-0.175950	0.780057
H172	H	1.622236	0.324050	1.280057
F173	F	1.092242	-0.751005	0.443622
F174	F	1.592242	-0.251005	0.943622
H175	H	1.116279	-0.181900	0.646471
H176	H	1.616279	0.318100	1.146471
F177	F	0.287026	-0.170689	0.479073
F178	F	0.787026	0.329311	0.979073
H179	H	1.086283	-0.673913	0.437649
H180	H	1.586283	-0.173913	0.937649
F181	F	0.491225	-0.352663	0.296476
F182	F	0.991225	0.147337	0.796476
H183	H	0.536851	-0.218122	0.431449
H184	H	1.036851	0.281878	0.931449
H185	H	1.122201	-0.869240	0.473582
H186	H	1.622201	-0.369240	0.973582
H187	H	1.116305	-1.002828	0.467643
H188	H	1.616305	-0.502828	0.967643
H189	H	0.945514	-1.017585	0.296577
H190	H	1.445514	-0.517585	0.796577
