data_functionalizedCrystal
_audit_creation_method	'MofGen! by Chris Wilmer'
_symmetry_space_group_name_H-M	'P1'
_symmetry_Int_Tables_number	1
_symmetry_cell_setting	triclinic
loop_
_symmetry_equiv_pos_as_xyz
  x,y,z
_cell_length_a	14.971486
_cell_length_b	16.109301
_cell_length_c	13.448316
_cell_angle_alpha	89.991973
_cell_angle_beta	89.998199
_cell_angle_gamma	83.537805
loop_
_atom_site_label
_atom_site_type_symbol
_atom_site_fract_x
_atom_site_fract_y
_atom_site_fract_z
O1	O	1.186791	0.108348	-0.082581
O2	O	0.926372	0.121323	-0.082608
O3	O	1.063736	-0.006187	-0.082584
O4	O	1.049428	0.235857	-0.082605
O5	O	1.063718	-0.006195	0.082800
O6	O	0.926355	0.121315	0.082776
O7	O	1.186774	0.108340	0.082803
Cu8	Cu	1.056563	0.114827	0.097890
Cu9	Cu	1.056583	0.114836	-0.097695
O10	O	1.049410	0.235850	0.082778
C11	C	0.893040	0.120739	0.000080
C12	C	0.793745	0.119000	0.000070
C13	C	0.736412	0.193908	0.000065
C14	C	0.643115	0.192269	0.000080
C15	C	0.607153	0.115721	0.000093
C16	C	0.664494	0.040807	0.000101
C17	C	0.757789	0.042447	0.000093
C18	C	0.470036	0.037395	0.000115
C19	C	0.376734	0.035755	0.000121
C20	C	0.355362	0.187217	0.000102
C21	C	0.448657	0.188857	0.000094
C22	C	0.505991	0.113942	0.000100
C23	C	1.063147	-0.037166	0.000109
C24	C	1.061410	-0.129464	0.000110
C25	C	1.138878	-0.351640	0.000102
C26	C	1.137239	-0.438362	0.000094
C27	C	0.974262	-0.418691	0.000081
C28	C	0.975902	-0.331970	0.000082
C29	C	1.058213	-0.298447	0.000098
C30	C	1.054933	-0.471890	0.000088
C31	C	1.053155	-0.565918	0.000079
C32	C	1.059992	-0.204413	0.000105
C33	C	1.220106	0.108924	0.000112
C34	C	1.319401	0.110663	0.000116
C35	C	1.049999	0.266829	0.000084
C36	C	1.051736	0.359127	0.000076
N37	N	1.056555	0.114820	0.235454
N38	N	1.056598	0.114837	-0.235260
C39	C	1.117398	0.058382	0.287506
C40	C	1.117404	0.058381	0.391609
C41	C	1.056570	0.114823	0.443659
C42	C	0.995720	0.171264	0.391601
C43	C	0.995711	0.171260	0.287499
C44	C	0.995745	0.171269	0.608581
C45	C	0.995755	0.171275	0.712689
C46	C	1.117438	0.058391	0.712690
C47	C	1.117429	0.058387	0.608589
C48	C	1.056580	0.114829	0.556538
H49	H	0.596437	0.253267	0.000074
O50	O	0.771383	0.268248	-0.000127
C51	C	0.824721	0.273725	-0.085775
H52	H	0.802670	0.230257	-0.145634
H53	H	0.898301	0.254625	-0.066415
C54	C	0.840459	0.417615	-0.051103
C55	C	0.813371	0.364232	-0.124626
H56	H	0.833463	0.473445	-0.075067
H57	H	0.804527	0.413925	0.006601
H58	H	0.901775	0.401688	-0.034977
H59	H	0.752054	0.380153	-0.140743
H60	H	0.849293	0.367927	-0.182335
H61	H	0.946183	0.217217	0.433986
H62	H	1.166969	0.012432	0.566210
O63	O	1.176353	0.003485	0.236862
C64	C	1.128434	-0.047894	0.176715
H65	H	1.058451	-0.014858	0.161099
H66	H	1.122337	-0.109323	0.216891
C67	C	1.264812	-0.106240	0.097020
C68	C	1.178861	-0.065661	0.077832
H69	H	1.295919	-0.117203	0.036026
H70	H	1.297098	-0.071627	0.137544
H71	H	1.259720	-0.157426	0.130502
H72	H	1.183955	-0.014471	0.044363
H73	H	1.146577	-0.100265	0.037300
O74	O	1.215656	-0.489948	-0.000031
C75	C	1.265628	-0.474739	-0.085690
H76	H	1.243649	-0.408974	-0.114244
H77	H	1.253418	-0.522175	-0.145673
C78	C	1.393396	-0.563660	-0.024589
C79	C	1.366405	-0.482883	-0.059655
H80	H	1.455560	-0.568687	-0.008532
H81	H	1.359728	-0.573909	0.033120
H82	H	1.383213	-0.603181	-0.074580
H83	H	1.376578	-0.443365	-0.009660
H84	H	1.400077	-0.472627	-0.117355
H85	H	0.308675	0.248215	0.000101
O86	O	0.483705	0.263159	0.000197
C87	C	0.537026	0.268649	0.085850
H88	H	0.560272	0.203144	0.114427
H89	H	0.495811	0.305405	0.145823
C90	C	0.590995	0.393935	0.024699
C91	C	0.619552	0.313481	0.059793
H92	H	0.641899	0.421593	0.008628
H93	H	0.555070	0.390239	-0.033005
H94	H	0.556649	0.424554	0.074682
H95	H	0.653888	0.282860	0.009806
H96	H	0.655486	0.317173	0.117489
O97	O	0.894253	-0.451158	0.000205
C98	C	0.845083	-0.424008	0.085866
H99	H	0.869444	-0.363843	0.114425
H100	H	0.855449	-0.474185	0.145845
C101	C	0.714542	-0.481736	0.024763
C102	C	0.744458	-0.407837	0.059834
H103	H	0.652471	-0.471764	0.008707
H104	H	0.747669	-0.500030	-0.032948
H105	H	0.723188	-0.523543	0.074751
H106	H	0.735822	-0.366034	0.009841
H107	H	0.711327	-0.389535	0.117536
H108	H	0.347458	-0.026577	0.000133
H109	H	0.910211	-0.288658	0.000075
O110	O	1.176604	0.003535	0.442017
C111	C	1.230288	-0.046288	0.373754
H112	H	1.231267	-0.012202	0.299537
H113	H	1.201284	-0.108105	0.362705
C114	C	1.325586	-0.105117	0.505519
C115	C	1.326795	-0.063249	0.414368
H116	H	1.385115	-0.115584	0.530573
H117	H	1.289416	-0.071553	0.551511
H118	H	1.301412	-0.156627	0.496300
H119	H	1.350958	-0.011736	0.423591
H120	H	1.362971	-0.096805	0.368379
O121	O	1.176511	0.003446	0.763135
C122	C	1.161995	-0.078882	0.737732
H123	H	1.127509	-0.078836	0.662155
H124	H	1.117495	-0.104669	0.796335
C125	C	1.295190	-0.134101	0.825738
C126	C	1.252840	-0.134045	0.732909
H127	H	1.351227	-0.168130	0.822767
H128	H	1.304969	-0.078635	0.842856
H129	H	1.258098	-0.155588	0.874564
H130	H	1.289927	-0.112549	0.684087
H131	H	1.243070	-0.189509	0.715782
O132	O	0.525824	-0.035321	-0.000013
C133	C	0.580408	-0.038904	-0.085685
H134	H	0.585099	0.027096	-0.114245
H135	H	0.549725	-0.076904	-0.145658
C136	C	0.669381	-0.161704	-0.024596
C137	C	0.675149	-0.080642	-0.059670
H138	H	0.727821	-0.187453	-0.008551
H139	H	0.632606	-0.159293	0.033121
H140	H	0.643809	-0.193360	-0.074580
H141	H	0.700711	-0.048985	-0.009682
H142	H	0.711932	-0.083049	-0.117378
O143	O	0.629607	-0.033574	0.000288
C144	C	0.658927	-0.079258	0.085932
H145	H	0.678318	-0.034501	0.145796
H146	H	0.719747	-0.125523	0.066568
C147	C	0.558785	-0.182096	0.051249
C148	C	0.582594	-0.127123	0.124778
H149	H	0.511702	-0.211625	0.075210
H150	H	0.539034	-0.151320	-0.006453
H151	H	0.609475	-0.220642	0.035119
H152	H	0.531908	-0.088572	0.140897
H153	H	0.602335	-0.157894	0.182484
H154	H	0.946216	0.217235	0.755063
H155	H	0.946192	0.217228	0.566204
H156	H	1.205901	-0.324348	0.000113
O157	O	0.936698	0.226200	0.236978
C158	C	0.951194	0.308528	0.262410
H159	H	1.022806	0.309048	0.291016
H160	H	0.901616	0.332874	0.322838
C161	C	0.849312	0.364230	0.134788
C162	C	0.937269	0.364869	0.169914
H163	H	0.840718	0.398985	0.077734
H164	H	0.839543	0.308764	0.117655
H165	H	0.808007	0.384516	0.185153
H166	H	0.978572	0.344574	0.119553
H167	H	0.947045	0.420333	0.187036
O168	O	0.813449	-0.030341	-0.000083
C169	C	0.797138	-0.076819	-0.085717
H170	H	0.765234	-0.032957	-0.145587
H171	H	0.749651	-0.124992	-0.066343
C172	C	0.925749	-0.175634	-0.051023
C173	C	0.886571	-0.121762	-0.124560
H174	H	0.980915	-0.203361	-0.074981
H175	H	0.936738	-0.144324	0.006673
H176	H	0.886168	-0.215771	-0.034885
H177	H	0.926147	-0.081620	-0.140688
H178	H	0.875592	-0.153067	-0.182260
