data_functionalizedCrystal
_audit_creation_method	'MofGen! by Chris Wilmer'
_symmetry_space_group_name_H-M	'P1'
_symmetry_Int_Tables_number	1
_symmetry_cell_setting	triclinic
loop_
_symmetry_equiv_pos_as_xyz
  x,y,z
_cell_length_a	18.215407
_cell_length_b	12.827892
_cell_length_c	18.215399
_cell_angle_alpha	89.973753
_cell_angle_beta	89.985640
_cell_angle_gamma	90.012835
loop_
_atom_site_label
_atom_site_type_symbol
_atom_site_fract_x
_atom_site_fract_y
_atom_site_fract_z
Zn1	Zn	1.125099	-0.416090	-0.416088
Zn2	Zn	1.125034	-0.590857	-0.293031
Zn3	Zn	1.002038	-0.416123	-0.293041
Zn4	Zn	1.002017	-0.590782	-0.416061
O5	O	1.063547	-0.503463	-0.354555
O6	O	1.228074	-0.439291	-0.399772
O7	O	1.108700	-0.567723	-0.190048
O8	O	1.018398	-0.269882	-0.309379
O9	O	1.228027	-0.567691	-0.309362
O10	O	1.108810	-0.269858	-0.399782
O11	O	1.018335	-0.439346	-0.190056
O12	O	0.899051	-0.439274	-0.309353
O13	O	1.018363	-0.567564	-0.519049
O14	O	0.899036	-0.567595	-0.399735
O15	O	1.108790	-0.439219	-0.519069
O16	O	1.108680	-0.737083	-0.309336
O17	O	1.018300	-0.737028	-0.399725
C18	C	0.872341	-0.503431	-0.354543
C19	C	0.790542	-0.503442	-0.354555
C20	C	0.602372	-0.436722	-0.401705
C21	C	0.525513	-0.436731	-0.401708
C22	C	0.525474	-0.570233	-0.307419
C23	C	0.602332	-0.570218	-0.307413
C24	C	0.640778	-0.503464	-0.354560
C25	C	0.487062	-0.503488	-0.354569
C26	C	0.403729	-0.503498	-0.354571
C27	C	0.724117	-0.503452	-0.354557
C28	C	1.063501	-0.774973	-0.354542
C29	C	1.063549	-0.891126	-0.354562
C30	C	1.108324	-0.942903	-0.309883
C31	C	1.108375	-1.062954	-0.309902
C32	C	1.255500	-0.503496	-0.354569
C33	C	1.337299	-0.503510	-0.354575
C34	C	1.063582	-0.503379	-0.546508
C35	C	1.063596	-0.503344	-0.628307
C36	C	1.063613	-0.230893	-0.354585
C37	C	1.063641	-0.114740	-0.354597
C38	C	1.016583	-0.436453	-0.816506
C39	C	1.016596	-0.436432	-0.893365
C40	C	1.110698	-0.570110	-0.893347
C41	C	1.110681	-0.570136	-0.816489
C42	C	1.063625	-0.503301	-0.778071
C43	C	1.063654	-0.503255	-0.931787
C44	C	1.063669	-0.503232	-1.015121
C45	C	1.063609	-0.503325	-0.694732
C46	C	1.063555	-0.503471	-0.163349
C47	C	1.063682	-0.503212	-0.081551
H48	H	0.633603	-0.624569	-0.269018
C49	C	1.159269	-0.883457	-0.258768
C50	C	1.117560	-0.820908	-0.211582
C51	C	1.164465	-0.766144	-0.164476
H52	H	1.191286	-0.840729	-0.286883
H53	H	1.187355	-0.931474	-0.230695
H54	H	1.089487	-0.772897	-0.239651
H55	H	1.085545	-0.863611	-0.183450
H56	H	1.192551	-0.814161	-0.136403
H57	H	1.196480	-0.723422	-0.192597
H58	H	1.136173	-0.723706	-0.132450
H59	H	0.633673	-0.382363	-0.440093
C60	C	0.483770	-0.642587	-0.256116
C61	C	0.502427	-0.619690	-0.183325
C62	C	0.464018	-0.686316	-0.136046
H63	H	0.496336	-0.712853	-0.266707
H64	H	0.432488	-0.633034	-0.262822
H65	H	0.553697	-0.629252	-0.176622
H66	H	0.489859	-0.549437	-0.172711
H67	H	0.412737	-0.676763	-0.142752
H68	H	0.476588	-0.756578	-0.146644
H69	H	0.476666	-0.670783	-0.086652
H70	H	1.146707	-1.107481	-0.271650
H71	H	1.149010	-0.624523	-0.924636
H72	H	0.978267	-0.382032	-0.785228
C73	C	1.012453	-0.950326	-0.405667
C74	C	0.971147	-0.879293	-0.446895
C75	C	0.924076	-0.933787	-0.493990
H76	H	0.980386	-0.992976	-0.377550
H77	H	1.040614	-0.992817	-0.437777
H78	H	0.942988	-0.836820	-0.414789
H79	H	1.003195	-0.836641	-0.475028
H80	H	0.952237	-0.976278	-0.526100
H81	H	0.892014	-0.976434	-0.465866
H82	H	0.896049	-0.885599	-0.521973
C83	C	0.483947	-0.364230	-0.452977
C84	C	0.534070	-0.305789	-0.494275
C85	C	0.495807	-0.238997	-0.541520
H86	H	0.453957	-0.318559	-0.424964
H87	H	0.453987	-0.404243	-0.485036
H88	H	0.564017	-0.265778	-0.462220
H89	H	0.564061	-0.351432	-0.522303
H90	H	0.465848	-0.279010	-0.573579
H91	H	0.465819	-0.193333	-0.513502
H92	H	0.529810	-0.199343	-0.569551
C93	C	0.965496	-0.363736	-0.934962
C94	C	0.924298	-0.305197	-0.884863
C95	C	0.877222	-0.238208	-0.923155
H96	H	0.933361	-0.403579	-0.964938
H97	H	0.993648	-0.318143	-0.964938
H98	H	0.896148	-0.350785	-0.854900
H99	H	0.956414	-0.265333	-0.854886
H100	H	0.905374	-0.192614	-0.953131
H101	H	0.845091	-0.278059	-0.953130
H102	H	0.849269	-0.198474	-0.889169
C103	C	1.161838	-0.642758	-0.774886
C104	C	1.203069	-0.701258	-0.824979
C105	C	1.250205	-0.768157	-0.786682
H106	H	1.133749	-0.688387	-0.744894
H107	H	1.193944	-0.602819	-0.744926
H108	H	1.170967	-0.741193	-0.854927
H109	H	1.231173	-0.655656	-0.854973
H110	H	1.282311	-0.728218	-0.756722
H111	H	1.222110	-0.813780	-0.756691
H112	H	1.278190	-0.807850	-0.820664
H113	H	1.025302	-1.070220	-0.392847
