data_functionalizedCrystal
_audit_creation_method	'MofGen! by Chris Wilmer'
_symmetry_space_group_name_H-M	'P1'
_symmetry_Int_Tables_number	1
_symmetry_cell_setting	triclinic
loop_
_symmetry_equiv_pos_as_xyz
  x,y,z
_cell_length_a	16.959455
_cell_length_b	21.295417
_cell_length_c	16.959447
_cell_angle_alpha	89.965854
_cell_angle_beta	89.979626
_cell_angle_gamma	90.026722
loop_
_atom_site_label
_atom_site_type_symbol
_atom_site_fract_x
_atom_site_fract_y
_atom_site_fract_z
Zn1	Zn	1.208331	-0.250647	-0.447015
Zn2	Zn	1.708331	0.249353	0.052985
Zn3	Zn	1.208231	-0.355924	-0.314828
Zn4	Zn	1.708231	0.144076	0.185172
Zn5	Zn	1.076159	-0.250667	-0.314839
Zn6	Zn	1.576159	0.249333	0.185161
Zn7	Zn	1.076102	-0.355877	-0.446953
Zn8	Zn	1.576102	0.144123	0.053047
O9	O	1.142206	-0.303278	-0.380909
O10	O	1.642206	0.196722	0.119091
O11	O	1.318929	-0.264623	-0.429502
O12	O	1.818929	0.235377	0.070498
O13	O	1.190694	-0.341989	-0.204218
O14	O	1.690694	0.158011	0.295782
O15	O	1.093758	-0.162575	-0.332403
O16	O	1.593758	0.337425	0.167597
O17	O	1.318855	-0.341970	-0.332385
O18	O	1.818855	0.158030	0.167615
O19	O	1.190864	-0.162560	-0.429513
O20	O	1.690864	0.337440	0.070487
O21	O	1.093661	-0.264657	-0.204226
O22	O	1.593661	0.235343	0.295774
O23	O	0.965541	-0.264612	-0.332342
O24	O	1.465541	0.235388	0.167658
O25	O	1.093660	-0.341890	-0.557572
O26	O	1.593660	0.158110	-0.057572
O27	O	0.965499	-0.341909	-0.429406
O28	O	1.465499	0.158091	0.070594
O29	O	1.190808	-0.264578	-0.557618
O30	O	1.690808	0.235422	-0.057618
O31	O	1.190638	-0.444007	-0.332324
O32	O	1.690638	0.055993	0.167676
O33	O	1.093563	-0.443972	-0.429395
O34	O	1.593563	0.056028	0.070605
C35	C	0.936840	-0.303258	-0.380869
C36	C	1.436840	0.196742	0.119131
C37	C	0.848983	-0.303264	-0.380871
C38	C	1.348983	0.196736	0.119129
C39	C	0.477459	-0.343513	-0.330314
C40	C	0.977459	0.156487	0.169686
C41	C	0.477556	-0.263096	-0.431600
C42	C	0.977556	0.236904	0.068400
C43	C	0.560102	-0.263086	-0.431581
C44	C	1.060102	0.236914	0.068419
C45	C	0.601330	-0.303290	-0.380928
C46	C	1.101330	0.196710	0.119072
C47	C	0.560012	-0.343505	-0.330295
C48	C	1.060012	0.156495	0.169705
C49	C	0.601426	-0.222877	-0.482219
C50	C	1.101426	0.277123	0.017781
C51	C	0.683977	-0.222865	-0.482202
C52	C	1.183977	0.277135	0.017798
C53	C	0.725207	-0.263067	-0.431545
C54	C	1.225207	0.236933	0.068455
C55	C	0.683884	-0.303282	-0.380909
C56	C	1.183884	0.196718	0.119091
C57	C	0.725112	-0.343487	-0.330256
C58	C	1.225112	0.156513	0.169744
C59	C	0.683790	-0.383700	-0.279616
C60	C	1.183790	0.116300	0.220384
C61	C	0.601242	-0.383707	-0.279638
C62	C	1.101242	0.116293	0.220362
C63	C	0.807755	-0.263060	-0.431523
C64	C	1.307755	0.236940	0.068477
C65	C	0.807665	-0.343479	-0.330237
C66	C	1.307665	0.156521	0.169763
C67	C	1.142105	-0.466830	-0.380869
C68	C	1.642105	0.033170	0.119131
C69	C	1.142134	-0.536798	-0.380878
C70	C	1.642134	-0.036798	0.119122
C71	C	1.192668	-0.569600	-0.431479
C72	C	1.692668	-0.069600	0.068521
C73	C	1.192696	-0.635342	-0.431498
C74	C	1.692696	-0.135342	0.068502
C75	C	1.142198	-0.668281	-0.380903
C76	C	1.642198	-0.168281	0.119097
C77	C	1.091655	-0.635471	-0.330298
C78	C	1.591655	-0.135471	0.169702
C79	C	1.091622	-0.569730	-0.330286
C80	C	1.591622	-0.069730	0.169714
N81	N	1.136233	-0.771546	-0.311726
N82	N	1.636233	-0.271546	0.188274
N83	N	1.136268	-0.833997	-0.311740
N84	N	1.636268	-0.333997	0.188260
C85	C	1.142291	-0.866355	-0.380939
C86	C	1.642291	-0.366355	0.119061
N87	N	1.148292	-0.833903	-0.450124
N88	N	1.648292	-0.333903	0.049876
N89	N	1.148261	-0.771446	-0.450109
N90	N	1.648261	-0.271446	0.049891
C91	C	1.142227	-0.739566	-0.380911
C92	C	1.642227	-0.239566	0.119089
C93	C	1.192858	-0.970443	-0.431565
C94	C	1.692858	-0.470443	0.068435
C95	C	1.192880	-1.036186	-0.431586
C96	C	1.692880	-0.536186	0.068414
C97	C	1.091842	-1.036313	-0.330379
C98	C	1.591842	-0.536313	0.169621
C99	C	1.091816	-0.970571	-0.330365
C100	C	1.591816	-0.470571	0.169635
C101	C	1.142328	-0.937640	-0.380957
C102	C	1.642328	-0.437640	0.119043
C103	C	1.348374	-0.303299	-0.380949
C104	C	1.848374	0.196701	0.119051
C105	C	1.436231	-0.303308	-0.380966
C106	C	1.936231	0.196692	0.119034
C107	C	1.142239	-0.303226	-0.587077
C108	C	1.642239	0.196774	-0.087077
C109	C	1.142253	-0.303204	-0.674934
C110	C	1.642253	0.196796	-0.174934
C111	C	1.142329	-0.139088	-0.380966
C112	C	1.642329	0.360912	0.119034
C113	C	1.142381	-0.069120	-0.380991
C114	C	1.642381	0.430880	0.119009
C115	C	1.091767	-0.343390	-1.046388
C116	C	1.591767	0.156610	-0.546388
C117	C	1.192928	-0.262885	-1.046431
C118	C	1.692928	0.237115	-0.546431
C119	C	1.192907	-0.262898	-0.963885
C120	C	1.692907	0.237102	-0.463885
C121	C	1.142316	-0.303159	-0.922587
C122	C	1.642316	0.196841	-0.422587
C123	C	1.091746	-0.343406	-0.963834
C124	C	1.591746	0.156594	-0.463834
C125	C	1.243482	-0.222656	-0.922631
C126	C	1.743482	0.277344	-0.422631
C127	C	1.243463	-0.222668	-0.840080
C128	C	1.743463	0.277332	-0.340080
C129	C	1.192867	-0.262926	-0.798780
C130	C	1.692867	0.237074	-0.298780
C131	C	1.142295	-0.303175	-0.840033
C132	C	1.642295	0.196825	-0.340033
C133	C	1.091704	-0.343436	-0.798735
C134	C	1.591704	0.156564	-0.298735
C135	C	1.041126	-0.383681	-0.839986
C136	C	1.541126	0.116319	-0.339986
C137	C	1.041150	-0.383664	-0.922534
C138	C	1.541150	0.116336	-0.422534
C139	C	1.192844	-0.262943	-0.716232
C140	C	1.692844	0.237057	-0.216232
C141	C	1.091683	-0.343451	-0.716181
C142	C	1.591683	0.156549	-0.216181
C143	C	1.142219	-0.303285	-0.175542
C144	C	1.642219	0.196715	0.324458
C145	C	1.142358	-0.303130	-0.087686
C146	C	1.642358	0.196870	0.412314
H147	H	0.443811	-0.376252	-0.289081
H148	H	0.943811	0.123748	0.210919
N149	N	1.037215	-0.386801	-1.090863
N150	N	1.537215	0.113199	-0.590863
H151	H	0.980746	-0.377018	-1.076486
H152	H	1.480746	0.122982	-0.576486
H153	H	1.044960	-0.380669	-1.149412
H154	H	1.544960	0.119331	-0.649412
N155	N	1.247403	-0.219549	-0.671747
N156	N	1.747403	0.280451	-0.171747
H157	H	1.284001	-0.245152	-0.637497
H158	H	1.784001	0.254848	-0.137497
H159	H	1.279405	-0.194061	-0.710492
H160	H	1.779405	0.305939	-0.210492
N161	N	1.037371	-1.071826	-0.275806
N162	N	1.537371	-0.571826	0.224194
H163	H	1.000732	-1.099106	-0.307897
H164	H	1.500732	-0.599106	0.192103
H165	H	1.069583	-1.099066	-0.239222
H166	H	1.569583	-0.599066	0.260778
N167	N	1.247488	-0.219462	-1.090972
N168	N	1.747488	0.280538	-0.590972
H169	H	1.279520	-0.193968	-1.052314
H170	H	1.779520	0.306032	-0.552314
H171	H	1.284058	-0.245084	-1.125212
H172	H	1.784058	0.254916	-0.625212
N173	N	0.433094	-0.219739	-0.486235
N174	N	0.933094	0.280261	0.013765
H175	H	0.374529	-0.225848	-0.478565
H176	H	0.874529	0.274152	0.021435
H177	H	0.447532	-0.174768	-0.474030
H178	H	0.947532	0.325232	0.025970
N179	N	0.556963	-0.179518	-0.536851
N180	N	1.056963	0.320482	-0.036851
H181	H	0.522720	-0.205142	-0.573423
H182	H	1.022720	0.294858	-0.073423
H183	H	0.522755	-0.150325	-0.504746
H184	H	1.022755	0.349675	-0.004746
H185	H	1.234031	-1.062893	-0.472795
H186	H	1.734031	-0.562893	0.027205
H187	H	0.841227	-0.376217	-0.288987
H188	H	1.341227	0.123783	0.211013
H189	H	1.050471	-0.543022	-0.289080
H190	H	1.550471	-0.043022	0.210920
H191	H	0.717614	-0.190121	-0.523436
H192	H	1.217614	0.309879	-0.023436
N193	N	0.852324	-0.219698	-0.486140
N194	N	1.352324	0.280302	0.013860
H195	H	0.813680	-0.194233	-0.518235
H196	H	1.313680	0.305767	-0.018235
H197	H	0.886567	-0.190529	-0.454028
H198	H	1.386567	0.309471	0.045972
N199	N	1.247141	-0.534081	-0.486049
N200	N	1.747141	-0.034081	0.013951
H201	H	1.279157	-0.564841	-0.518110
H202	H	1.779157	-0.064841	-0.018110
H203	H	1.214926	-0.506807	-0.522592
H204	H	1.714926	-0.006807	-0.022592
H205	H	1.233841	-0.662055	-0.472713
H206	H	1.733841	-0.162055	0.027287
N207	N	1.298048	-0.179237	-0.967171
N208	N	1.798048	0.320763	-0.467171
H209	H	1.334661	-0.204819	-1.001416
H210	H	1.834661	0.295181	-0.501416
H211	H	1.265898	-0.150063	-1.001382
H212	H	1.765898	0.349937	-0.501382
N213	N	1.037189	-0.670992	-0.275726
N214	N	1.537189	-0.170992	0.224274
H215	H	1.044880	-0.717617	-0.283408
H216	H	1.544880	-0.217617	0.216592
H217	H	1.049525	-0.659523	-0.219285
H218	H	1.549525	-0.159523	0.280715
N219	N	1.247332	-0.934918	-0.486130
N220	N	1.747332	-0.434918	0.013870
H221	H	1.279347	-0.965676	-0.518195
H222	H	1.779347	-0.465676	-0.018195
H223	H	1.215122	-0.907638	-0.522670
H224	H	1.715122	-0.407638	-0.022670
H225	H	0.999975	-0.416432	-0.956129
H226	H	1.499975	0.083568	-0.456129
N227	N	0.728260	-0.427065	-0.224988
N228	N	1.228260	0.072935	0.275012
H229	H	0.786823	-0.420957	-0.232666
H230	H	1.286823	0.079043	0.267334
H231	H	0.713809	-0.417211	-0.168560
H232	H	1.213809	0.082789	0.331440
H233	H	0.567590	-0.416446	-0.238408
H234	H	1.067590	0.083554	0.261592
H235	H	1.284646	-0.189898	-0.806501
H236	H	1.784646	0.310102	-0.306501
H237	H	1.050670	-0.943862	-0.289157
H238	H	1.550670	-0.443862	0.210843
N239	N	1.037103	-0.386866	-0.671640
N240	N	1.537103	0.113134	-0.171640
H241	H	1.005066	-0.412354	-0.710300
H242	H	1.505066	0.087646	-0.210300
H243	H	1.069238	-0.416012	-0.637377
H244	H	1.569238	0.083988	-0.137377
H245	H	0.999939	-0.416464	-0.806350
H246	H	1.499939	0.083536	-0.306350
