data_functionalizedCrystal
_audit_creation_method	'MofGen! by Chris Wilmer'
_symmetry_space_group_name_H-M	'P1'
_symmetry_Int_Tables_number	1
_symmetry_cell_setting	triclinic
loop_
_symmetry_equiv_pos_as_xyz
  x,y,z
_cell_length_a	12.759401
_cell_length_b	29.839131
_cell_length_c	12.759393
_cell_angle_alpha	89.963021
_cell_angle_beta	89.982824
_cell_angle_gamma	90.041581
loop_
_atom_site_label
_atom_site_type_symbol
_atom_site_fract_x
_atom_site_fract_y
_atom_site_fract_z
Zn1	Zn	1.606047	-0.178829	-0.593935
Zn2	Zn	1.605863	-0.253966	-0.418236
Zn3	Zn	1.430353	-0.178851	-0.418275
Zn4	Zn	1.430255	-0.253933	-0.593877
O5	O	1.518129	-0.216395	-0.506081
O6	O	1.753043	-0.188801	-0.570636
O7	O	1.582545	-0.244025	-0.271220
O8	O	1.453776	-0.115981	-0.441617
O9	O	1.752908	-0.244004	-0.441551
O10	O	1.582858	-0.115965	-0.570674
O11	O	1.453598	-0.188839	-0.271248
O12	O	1.283319	-0.188806	-0.441561
O13	O	1.453611	-0.243947	-0.740906
O14	O	1.283247	-0.243969	-0.570575
O15	O	1.582764	-0.188768	-0.740949
O16	O	1.582451	-0.316829	-0.441495
O17	O	1.453433	-0.316804	-0.570538
C18	C	1.245162	-0.216387	-0.506066
C19	C	1.128385	-0.216394	-0.506085
C20	C	1.517940	-0.333117	-0.506029
C21	C	1.517955	-0.383052	-0.506041
C22	C	1.073514	-0.245163	-0.573152
C23	C	0.963790	-0.245168	-0.573163
C24	C	0.963819	-0.187635	-0.439032
C25	C	1.073541	-0.187627	-0.439027
C26	C	1.073496	-0.278381	-0.650588
C27	C	0.963772	-0.278386	-0.650600
C28	C	1.585431	-0.692695	-0.438986
C29	C	1.585561	-0.880368	-0.439027
O30	O	1.642782	-0.904633	-0.381974
N31	N	1.518347	-0.903837	-0.506160
C32	C	1.451101	-0.880384	-0.573292
O33	O	1.393942	-0.904652	-0.630402
C34	C	1.450978	-0.692712	-0.573256
C35	C	1.518188	-0.669246	-0.506111
C36	C	1.652637	-0.669229	-0.371848
C37	C	1.652600	-0.622314	-0.371834
C38	C	1.585357	-0.598864	-0.438959
C39	C	1.518151	-0.622331	-0.506098
C40	C	1.383737	-0.669260	-0.640393
C41	C	1.383714	-0.622339	-0.640380
C42	C	1.450925	-0.598873	-0.573235
C43	C	1.450871	-0.551966	-0.573209
N44	N	1.518085	-0.528497	-0.506076
C45	C	1.585328	-0.551947	-0.438951
C46	C	1.451169	-0.978915	-0.573305
C47	C	1.451199	-1.025833	-0.573313
C48	C	1.585660	-1.025814	-0.439049
C49	C	1.585625	-0.978895	-0.439036
C50	C	1.518383	-0.955446	-0.506172
C51	C	1.585244	-0.453421	-0.438927
C52	C	1.585198	-0.406501	-0.438916
C53	C	1.450741	-0.406524	-0.573184
C54	C	1.450782	-0.453440	-0.573191
C55	C	1.518043	-0.476887	-0.506059
O56	O	1.393688	-0.527672	-0.630240
O57	O	1.642494	-0.527671	-0.381867
C58	C	1.585469	-0.739611	-0.439000
C59	C	1.518262	-0.763077	-0.506138
C60	C	1.451019	-0.739628	-0.573263
C61	C	1.518292	-0.809995	-0.506146
C62	C	1.585535	-0.833444	-0.439021
C63	C	1.652749	-0.809976	-0.371888
C64	C	1.652712	-0.763060	-0.371875
C65	C	1.383806	-0.763096	-0.640396
C66	C	1.383847	-0.810012	-0.640404
C67	C	1.451090	-0.833461	-0.573279
C68	C	1.792163	-0.216403	-0.506096
C69	C	1.908939	-0.216407	-0.506102
C70	C	1.518197	-0.216351	-0.780114
C71	C	1.518225	-0.216333	-0.896891
C72	C	1.518349	-0.099216	-0.506156
C73	C	1.518442	-0.049282	-0.506188
C74	C	1.450998	-0.245051	-0.951733
C75	C	1.451036	-0.245035	-1.061457
C76	C	1.585533	-0.187578	-1.061488
C77	C	1.585499	-0.187597	-0.951766
C78	C	1.373344	-0.278221	-0.951715
C79	C	1.373383	-0.278205	-1.061440
C80	C	1.518123	-0.216406	-0.233113
C81	C	1.518298	-0.216298	-0.116337
H82	H	1.118213	-0.164198	-0.384422
H83	H	1.107475	-0.311414	-0.621295
H84	H	1.296064	-0.265761	-0.917691
N85	N	1.400597	-0.321870	-0.914296
N86	N	1.337866	-0.343238	-0.857949
H87	H	1.357120	-0.374062	-0.831514
H88	H	0.919151	-0.164214	-0.384437
N89	N	1.654256	-0.158225	-1.117525
N90	N	1.751191	-0.161210	-1.105260
H91	H	1.799729	-0.140477	-1.144833
N92	N	1.409857	-0.319668	-1.104099
N93	N	1.437139	-0.350733	-1.044292
H94	H	1.462893	-0.380017	-1.074420
H95	H	1.639929	-0.387397	-0.384235
N96	N	1.110893	-0.266743	-0.752718
N97	N	1.047262	-0.258547	-0.824676
H98	H	1.073673	-0.250328	-0.896804
H99	H	0.929786	-0.265967	-0.727955
H100	H	1.292041	-0.268876	-1.091225
H101	H	1.707441	-0.743957	-0.317199
N102	N	1.654194	-0.158268	-0.895762
N103	N	1.714255	-0.132616	-0.944773
H104	H	1.762777	-0.111901	-0.905221
N105	N	0.926354	-0.322024	-0.623072
N106	N	0.989971	-0.352763	-0.603660
H107	H	0.963546	-0.383581	-0.584218
H108	H	1.640016	-0.472506	-0.384264
H109	H	1.707332	-0.603210	-0.317162
N110	N	1.315083	-0.693228	-0.708971
N111	N	1.248162	-0.719449	-0.671971
H112	H	1.199670	-0.736376	-0.720409
H113	H	1.640354	-0.959792	-0.384362
N114	N	1.721343	-0.693170	-0.303273
N115	N	1.781340	-0.672204	-0.243342
H116	H	1.829864	-0.689109	-0.194903
H117	H	1.640413	-1.044914	-0.384393
H118	H	1.707498	-0.829076	-0.317230
H119	H	1.329107	-0.829114	-0.695080
H120	H	1.396459	-1.044935	-0.627979
H121	H	1.396410	-0.959826	-0.627977
H122	H	1.328959	-0.603250	-0.695053
H123	H	1.396057	-0.472547	-0.627869
H124	H	1.395989	-0.387425	-0.627834
H125	H	1.329049	-0.744007	-0.695059
