data_functionalizedCrystal
_audit_creation_method	'MofGen! by Chris Wilmer'
_symmetry_space_group_name_H-M	'P1'
_symmetry_Int_Tables_number	1
_symmetry_cell_setting	triclinic
loop_
_symmetry_equiv_pos_as_xyz
  x,y,z
_cell_length_a	16.959455
_cell_length_b	16.625545
_cell_length_c	16.959447
_cell_angle_alpha	89.970073
_cell_angle_beta	89.983277
_cell_angle_gamma	90.024506
loop_
_atom_site_label
_atom_site_type_symbol
_atom_site_fract_x
_atom_site_fract_y
_atom_site_fract_z
Zn1	Zn	1.208354	-0.321008	-0.446961
Zn2	Zn	1.708354	0.178992	0.053039
Zn3	Zn	1.208264	-0.455856	-0.314784
Zn4	Zn	1.708264	0.044144	0.185216
Zn5	Zn	1.076182	-0.321038	-0.314793
Zn6	Zn	1.576182	0.178962	0.185207
Zn7	Zn	1.076134	-0.455800	-0.446917
Zn8	Zn	1.576134	0.044200	0.053083
O9	O	1.142233	-0.388426	-0.380864
O10	O	1.642233	0.111574	0.119136
O11	O	1.318953	-0.338907	-0.429442
O12	O	1.818953	0.161093	0.070558
O13	O	1.190725	-0.438008	-0.204174
O14	O	1.690725	0.061992	0.295826
O15	O	1.093773	-0.208202	-0.332349
O16	O	1.593773	0.291798	0.167651
O17	O	1.318886	-0.437979	-0.332332
O18	O	1.818886	0.062021	0.167668
O19	O	1.190879	-0.208180	-0.429452
O20	O	1.690879	0.291820	0.070548
O21	O	1.093685	-0.338958	-0.204181
O22	O	1.593685	0.161042	0.295819
O23	O	0.965565	-0.338904	-0.332305
O24	O	1.465565	0.161096	0.167695
O25	O	1.093691	-0.437884	-0.557534
O26	O	1.593691	0.062116	-0.057534
O27	O	0.965530	-0.437913	-0.429376
O28	O	1.465530	0.062087	0.070624
O29	O	1.190832	-0.338853	-0.557567
O30	O	1.690832	0.161147	-0.057567
O31	O	1.190678	-0.568681	-0.332289
O32	O	1.690678	-0.068681	0.167711
O33	O	1.093604	-0.568640	-0.429366
O34	O	1.593604	-0.068640	0.070634
C35	C	0.936867	-0.388406	-0.380837
C36	C	1.436867	0.111594	0.119163
C37	C	0.849011	-0.388418	-0.380844
C38	C	1.349011	0.111582	0.119156
C39	C	1.142147	-0.597917	-0.380839
C40	C	1.642147	-0.097917	0.119161
C41	C	1.142183	-0.687538	-0.380855
C42	C	1.642183	-0.187538	0.119145
C43	C	0.807731	-0.336795	-0.330385
C44	C	1.307731	0.163205	0.169615
C45	C	0.807736	-0.440047	-0.431315
C46	C	1.307736	0.059953	0.068685
C47	C	0.725190	-0.440056	-0.431327
C48	C	1.225190	0.059944	0.068673
C49	C	0.683911	-0.388433	-0.380868
C50	C	1.183911	0.111567	0.119132
C51	C	0.725178	-0.336801	-0.330397
C52	C	1.225178	0.163199	0.169603
C53	C	0.683917	-0.491681	-0.481802
C54	C	1.183917	0.008319	0.018198
C55	C	0.601366	-0.491692	-0.481817
C56	C	1.101366	0.008308	0.018183
C57	C	0.560086	-0.440073	-0.431353
C58	C	1.060086	0.059927	0.068647
C59	C	0.601358	-0.388439	-0.380880
C60	C	1.101358	0.111561	0.119120
C61	C	0.560078	-0.336816	-0.330420
C62	C	1.060078	0.163184	0.169580
C63	C	0.601349	-0.285186	-0.279942
C64	C	1.101349	0.214814	0.220058
C65	C	0.683897	-0.285181	-0.279933
C66	C	1.183897	0.214819	0.220067
C67	C	0.477537	-0.440077	-0.431362
C68	C	0.977537	0.059923	0.068638
C69	C	0.477525	-0.336822	-0.330432
C70	C	0.977525	0.163178	0.169568
C71	C	1.142214	-0.760320	-0.380871
C72	C	1.642214	-0.260320	0.119129
C73	C	1.142260	-0.851628	-0.380888
C74	C	1.642260	-0.351628	0.119112
C75	C	1.142301	-0.924405	-0.380898
C76	C	1.642301	-0.424405	0.119102
C77	C	1.142346	-1.015719	-0.380914
C78	C	1.642346	-0.515719	0.119086
C79	C	1.348402	-0.388446	-0.380891
C80	C	1.848402	0.111554	0.119109
C81	C	1.436258	-0.388454	-0.380903
C82	C	1.936258	0.111546	0.119097
C83	C	1.142266	-0.388359	-0.587032
C84	C	1.642266	0.111641	-0.087032
C85	C	1.142280	-0.388330	-0.674889
C86	C	1.642280	0.111670	-0.174889
C87	C	1.142341	-0.178117	-0.380906
C88	C	1.642341	0.321883	0.119094
C89	C	1.142387	-0.088496	-0.380924
C90	C	1.642387	0.411504	0.119076
C91	C	1.091798	-0.439806	-1.046350
C92	C	1.591798	0.060194	-0.546350
C93	C	1.192952	-0.336685	-1.046379
C94	C	1.692952	0.163315	-0.546379
C95	C	1.192931	-0.336702	-0.963833
C96	C	1.692931	0.163298	-0.463833
C97	C	1.142343	-0.388273	-0.922542
C98	C	1.642343	0.111727	-0.422542
C99	C	1.091777	-0.439827	-0.963797
C100	C	1.591777	0.060173	-0.463797
C101	C	1.243502	-0.285154	-0.922573
C102	C	1.743502	0.214846	-0.422573
C103	C	1.243483	-0.285170	-0.840022
C104	C	1.743483	0.214830	-0.340022
C105	C	1.192891	-0.336738	-0.798729
C106	C	1.692891	0.163262	-0.298729
C107	C	1.142322	-0.388293	-0.839988
C108	C	1.642322	0.111707	-0.339988
C109	C	1.091735	-0.439864	-0.798697
C110	C	1.591735	0.060136	-0.298697
C111	C	1.041161	-0.491416	-0.839955
C112	C	1.541161	0.008584	-0.339955
C113	C	1.041185	-0.491394	-0.922504
C114	C	1.541185	0.008606	-0.422504
C115	C	1.192868	-0.336759	-0.716180
C116	C	1.692868	0.163241	-0.216180
C117	C	1.091714	-0.439884	-0.716143
C118	C	1.591714	0.060116	-0.216143
C119	C	1.142246	-0.388434	-0.175498
C120	C	1.642246	0.111566	0.324502
C121	C	1.142385	-0.388235	-0.087641
C122	C	1.642385	0.111765	0.412359
H123	H	0.443921	-0.294785	-0.289340
H124	H	0.943921	0.205215	0.210660
C125	C	0.985517	-0.548142	-0.794524
C126	C	1.485517	-0.048142	-0.294524
N127	N	0.943606	-0.590866	-0.760302
N128	N	1.443606	-0.090866	-0.260302
C129	C	0.555931	-0.228400	-0.224441
C130	C	1.055931	0.271600	0.275559
N131	N	0.521719	-0.185630	-0.182639
N132	N	1.021719	0.314370	0.317361
C133	C	1.299136	-0.228422	-0.967998
C134	C	1.799136	0.271578	-0.467998
N135	N	1.341036	-0.185683	-1.002216
N136	N	1.841036	0.314317	-0.502216
H137	H	0.443939	-0.482109	-0.472465
H138	H	0.943939	0.017891	0.027535
C139	C	0.853129	-0.279998	-0.274868
C140	C	1.353129	0.220002	0.225132
N141	N	0.887323	-0.237215	-0.233055
N142	N	1.387323	0.262785	0.266945
H143	H	1.234142	-0.294702	-1.080004
H144	H	1.734142	0.205298	-0.580004
C145	C	0.729301	-0.228379	-0.224426
C146	C	1.229301	0.271621	0.275574
N147	N	0.763502	-0.185591	-0.182624
N148	N	1.263502	0.314409	0.317376
H149	H	1.000013	-0.533368	-0.956103
H150	H	1.500013	-0.033368	-0.456103
C151	C	0.853146	-0.496830	-0.486816
C152	C	1.353146	0.003170	0.013184
N153	N	0.887352	-0.539604	-0.528619
N154	N	1.387352	-0.039604	-0.028619
H155	H	0.717533	-0.533708	-0.522886
H156	H	1.217533	-0.033708	-0.022886
H157	H	1.050620	-0.481776	-1.079946
H158	H	1.550620	0.018224	-0.579946
H159	H	0.567771	-0.533734	-0.522918
H160	H	1.067771	-0.033734	-0.022918
H161	H	1.050512	-0.481873	-0.682530
H162	H	1.550512	0.018127	-0.182530
H163	H	1.284663	-0.243193	-0.806436
H164	H	1.784663	0.256807	-0.306436
H165	H	1.234046	-0.294789	-0.682592
H166	H	1.734046	0.205211	-0.182592
