data_functionalizedCrystal
_audit_creation_method	'MofGen! by Chris Wilmer'
_symmetry_space_group_name_H-M	'P1'
_symmetry_Int_Tables_number	1
_symmetry_cell_setting	triclinic
loop_
_symmetry_equiv_pos_as_xyz
  x,y,z
_cell_length_a	12.759401
_cell_length_b	12.827892
_cell_length_c	12.759393
_cell_angle_alpha	89.970218
_cell_angle_beta	89.980404
_cell_angle_gamma	90.015669
loop_
_atom_site_label
_atom_site_type_symbol
_atom_site_fract_x
_atom_site_fract_y
_atom_site_fract_z
Zn1	Zn	1.606261	-0.415975	-0.593988
Zn2	Zn	1.939595	-0.082641	-0.260654
Zn3	Zn	2.272928	0.250692	0.072679
Zn4	Zn	1.606150	-0.590752	-0.418310
Zn5	Zn	1.939484	-0.257419	-0.084977
Zn6	Zn	2.272817	0.075915	0.248357
Zn7	Zn	1.430560	-0.416027	-0.418327
Zn8	Zn	1.763893	-0.082693	-0.084994
Zn9	Zn	2.097227	0.250640	0.248340
Zn10	Zn	1.430550	-0.590675	-0.593951
Zn11	Zn	1.763883	-0.257342	-0.260618
Zn12	Zn	2.097216	0.075991	0.072715
O13	O	1.518380	-0.503357	-0.506144
O14	O	1.851714	-0.170024	-0.172811
O15	O	2.185047	0.163309	0.160523
O16	O	1.753268	-0.439170	-0.570692
O17	O	2.086601	-0.105836	-0.237358
O18	O	2.419934	0.227497	0.095975
O19	O	1.582816	-0.567628	-0.271291
O20	O	1.916149	-0.234295	0.062042
O21	O	2.249482	0.099038	0.395376
O22	O	1.453918	-0.269784	-0.441651
O23	O	1.787251	0.063550	-0.108318
O24	O	2.120585	0.396883	0.225016
O25	O	1.753186	-0.567578	-0.441622
O26	O	2.086519	-0.234245	-0.108289
O27	O	2.419853	0.099089	0.225045
O28	O	1.583005	-0.269746	-0.570708
O29	O	1.916338	0.063588	-0.237375
O30	O	2.249672	0.396921	0.095958
O31	O	1.453810	-0.439258	-0.271304
O32	O	1.787144	-0.105925	0.062030
O33	O	2.120477	0.227409	0.395363
O34	O	1.283538	-0.439184	-0.441616
O35	O	1.616871	-0.105850	-0.108282
O36	O	1.950204	0.227483	0.225051
O37	O	1.453900	-0.567447	-0.740977
O38	O	1.787234	-0.234114	-0.407644
O39	O	2.120567	0.099220	-0.074311
O40	O	1.283530	-0.567497	-0.570646
O41	O	1.616863	-0.234164	-0.237313
O42	O	1.950197	0.099169	0.096020
O43	O	1.582995	-0.439095	-0.741004
O44	O	1.916328	-0.105762	-0.407671
O45	O	2.249662	0.227571	-0.074337
O46	O	1.582806	-0.736978	-0.441587
O47	O	1.916139	-0.403645	-0.108254
O48	O	2.249472	-0.070311	0.225080
O49	O	1.453793	-0.736922	-0.570630
O50	O	1.787126	-0.403588	-0.237296
O51	O	2.120459	-0.070255	0.096037
C52	C	1.245413	-0.503338	-0.506130
C53	C	1.578746	-0.170005	-0.172796
C54	C	1.912080	0.163328	0.160537
C55	C	1.128636	-0.503356	-0.506148
C56	C	1.461970	-0.170022	-0.172815
C57	C	1.795303	0.163311	0.160518
C58	C	0.964067	-0.570286	-0.573236
C59	C	1.297400	-0.236953	-0.239903
C60	C	1.630734	0.096381	0.093431
C61	C	1.073791	-0.570274	-0.573225
C62	C	1.407124	-0.236941	-0.239892
C63	C	1.740458	0.096392	0.093442
C64	C	1.073752	-0.436452	-0.439071
C65	C	1.407085	-0.103118	-0.105737
C66	C	1.740419	0.230215	0.227596
C67	C	0.964030	-0.436469	-0.439077
C68	C	1.297363	-0.103136	-0.105744
C69	C	1.630697	0.230197	0.227590
C70	C	1.518315	-0.774867	-0.506125
C71	C	1.851648	-0.441534	-0.172792
C72	C	2.184981	-0.108200	0.160541
C73	C	1.518383	-0.891020	-0.506153
C74	C	1.851716	-0.557687	-0.172819
C75	C	2.185049	-0.224354	0.160514
C76	C	1.582298	-0.942798	-0.442369
C77	C	1.915631	-0.609465	-0.109036
C78	C	2.248965	-0.276132	0.224298
C79	C	1.582370	-1.062849	-0.442396
C80	C	1.915703	-0.729515	-0.109062
C81	C	2.249037	-0.396182	0.224271
C82	C	1.792414	-0.503377	-0.506159
C83	C	2.125747	-0.170043	-0.172826
C84	C	2.459080	0.163290	0.160508
C85	C	1.909190	-0.503385	-0.506166
C86	C	2.242524	-0.170052	-0.172832
C87	C	2.575857	0.163282	0.160501
C88	C	1.518459	-0.503257	-0.780177
C89	C	1.851792	-0.169924	-0.446844
C90	C	2.185126	0.163410	-0.113511
C91	C	1.518492	-0.503214	-0.896954
C92	C	1.851826	-0.169881	-0.563621
C93	C	2.185159	0.163453	-0.230288
C94	C	1.518475	-0.230787	-0.506186
C95	C	1.851808	0.102546	-0.172852
C96	C	2.185142	0.435880	0.160481
C97	C	1.518515	-0.114634	-0.506203
C98	C	1.851849	0.218699	-0.172870
C99	C	2.185182	0.552033	0.160463
C100	C	1.585717	-0.436371	-0.951832
C101	C	1.919050	-0.103037	-0.618498
C102	C	2.252384	0.230296	-0.285165
C103	C	1.585735	-0.436326	-1.061556
C104	C	1.919068	-0.102992	-0.728223
C105	C	2.252401	0.230341	-0.394889
C106	C	1.451301	-0.569976	-1.061515
C107	C	1.784634	-0.236643	-0.728182
C108	C	2.117967	0.096690	-0.394849
C109	C	1.451278	-0.570015	-0.951793
C110	C	1.784612	-0.236682	-0.618460
C111	C	2.117945	0.096651	-0.285126
C112	C	1.518362	-0.503382	-0.233177
C113	C	1.851696	-0.170048	0.100157
C114	C	2.185029	0.163285	0.433490
C115	C	1.518533	-0.503130	-0.116400
C116	C	1.851866	-0.169797	0.216933
C117	C	2.185199	0.163537	0.550266
H118	H	1.118467	-0.624753	-0.627839
H119	H	1.451800	-0.291420	-0.294506
H120	H	1.785133	0.041914	0.038827
H121	H	1.118416	-0.381970	-0.384451
H122	H	1.451749	-0.048637	-0.051118
H123	H	1.785083	0.284697	0.282216
H124	H	1.463720	-0.935568	-0.560784
H125	H	1.797053	-0.602234	-0.227451
H126	H	2.130386	-0.268901	0.105883
H127	H	1.640444	-0.381974	-0.907185
H128	H	1.973778	-0.048640	-0.573852
H129	H	2.307111	0.284693	-0.240518
H130	H	0.919348	-0.381989	-0.384455
H131	H	1.252682	-0.048655	-0.051122
H132	H	1.586015	0.284678	0.282211
H133	H	1.396529	-0.624447	-0.907111
H134	H	1.729862	-0.291113	-0.573777
H135	H	2.063195	0.042220	-0.240444
H136	H	1.396580	-0.624366	-1.106178
H137	H	1.729913	-0.291033	-0.772845
H138	H	2.063246	0.042301	-0.439512
H139	H	1.640474	-0.381893	-1.106232
H140	H	1.973807	-0.048560	-0.772899
H141	H	2.307141	0.284773	-0.439566
H142	H	1.636970	-0.898253	-0.387745
H143	H	1.970304	-0.564920	-0.054412
H144	H	2.303637	-0.231586	0.278922
H145	H	1.637087	-1.107376	-0.387785
H146	H	1.970421	-0.774043	-0.054452
H147	H	2.303754	-0.440710	0.278881
H148	H	1.463788	-1.070114	-0.560810
H149	H	1.797121	-0.736780	-0.227477
H150	H	2.130454	-0.403447	0.105857
H151	H	0.919420	-0.624774	-0.627863
H152	H	1.252753	-0.291440	-0.294530
H153	H	1.586086	0.041893	0.038803
