data_functionalizedCrystal
_audit_creation_method	'MofGen! by Chris Wilmer'
_symmetry_space_group_name_H-M	'P1'
_symmetry_Int_Tables_number	1
_symmetry_cell_setting	triclinic
loop_
_symmetry_equiv_pos_as_xyz
  x,y,z
_cell_length_a	17.000371
_cell_length_b	15.500227
_cell_length_c	17.019234
_cell_angle_alpha	91.050924
_cell_angle_beta	79.501818
_cell_angle_gamma	92.619542
loop_
_atom_site_label
_atom_site_type_symbol
_atom_site_fract_x
_atom_site_fract_y
_atom_site_fract_z
O1	O	1.059869	0.073767	0.024409
O2	O	0.828212	0.075893	0.052926
O3	O	0.950073	0.066267	-0.076150
O4	O	0.938008	0.083393	0.153484
O5	O	0.942678	-0.077040	-0.068346
O6	O	0.820817	-0.067414	0.060730
O7	O	1.052474	-0.069540	0.032213
Cu8	Cu	0.935970	-0.081562	0.047184
Cu9	Cu	0.944716	0.087915	0.037955
O10	O	0.930613	-0.059914	0.161288
C11	C	0.794865	0.004354	0.058360
C12	C	0.706518	0.004694	0.062914
C13	C	0.674308	-0.000535	-0.007176
C14	C	0.591296	-0.000209	-0.002892
C15	C	0.540496	0.005339	0.071483
C16	C	0.572711	0.010571	0.141579
C17	C	0.655722	0.010251	0.137293
C18	C	0.289394	0.006579	0.088035
C19	C	0.206379	0.006896	0.092314
C20	C	0.224970	-0.003883	-0.052157
C21	C	0.307980	-0.004207	-0.056435
C22	C	0.340189	0.001029	0.013660
C23	C	0.455645	0.005669	0.075864
C24	C	0.425039	0.000705	0.009278
N25	N	0.929825	-0.200763	0.053674
C26	C	0.981480	-0.250117	-0.001002
C27	C	0.976840	-0.340323	0.003913
C28	C	0.920548	-0.381173	0.063509
C29	C	0.868888	-0.331812	0.118188
C30	C	0.873525	-0.241608	0.113268
C31	C	0.903844	-0.653319	0.081217
C32	C	0.899212	-0.743530	0.086134
C33	C	1.007164	-0.752035	-0.028142
C34	C	1.011799	-0.661828	-0.033053
C35	C	0.960136	-0.612475	0.021623
C36	C	0.915805	-0.473378	0.068536
C37	C	0.964876	-0.520272	0.016592
C38	C	1.085822	0.002001	0.026779
C39	C	1.174169	0.001667	0.022224
C40	C	0.945775	-0.007565	-0.101485
C41	C	0.943976	-0.014056	-0.188601
N42	N	0.950867	0.207116	0.031458
C43	C	0.933528	-0.054653	-0.681090
C44	C	0.935226	-0.048557	-0.599236
C45	C	0.940112	0.032609	-0.562555
C46	C	0.943292	0.107684	-0.607732
C47	C	0.941589	0.101588	-0.689583
C48	C	0.945453	0.054923	-0.315629
C49	C	0.947158	0.061014	-0.233772
C50	C	0.939090	-0.095229	-0.225281
C51	C	0.937392	-0.101318	-0.307135
C52	C	0.940568	-0.026242	-0.352304
C53	C	0.941850	0.038841	-0.478888
C54	C	0.938824	-0.032475	-0.435968
C55	C	0.934911	0.013920	0.186623
C56	C	0.936711	0.020417	0.273740
H57	H	0.565076	-0.004466	-0.059967
H58	H	0.948046	0.116055	-0.352397
Br59	Br	0.493983	-0.006819	-0.091657
H60	H	0.869973	-0.506646	0.117061
H61	H	0.531343	0.015094	0.202136
Br62	Br	0.743243	-0.008074	-0.108119
Br63	Br	0.137434	0.014414	0.193260
H64	H	0.414274	0.010186	0.136421
H65	H	0.945833	0.104927	-0.449015
Br66	Br	1.057886	-0.194687	-0.081881
Br67	Br	0.822813	-0.798964	0.167024
H68	H	0.681945	0.014505	0.194369
H69	H	1.018901	-0.380507	-0.040609
Br70	Br	0.930760	-0.211476	-0.356910
H71	H	0.936503	-0.156351	-0.188496
H72	H	0.929553	-0.120747	-0.710949
H73	H	0.932646	-0.109688	-0.562463
H74	H	0.198737	-0.008136	-0.109225
H75	H	0.951137	0.127112	-0.203910
H76	H	0.947267	0.173772	-0.577859
H77	H	0.944176	0.162719	-0.726360
H78	H	1.057637	-0.628570	-0.081580
Br79	Br	0.932185	-0.142626	-0.485748
H80	H	1.049225	-0.792226	-0.072657
H81	H	0.861779	-0.613143	0.125738
H82	H	0.349337	-0.008729	-0.116999
H83	H	0.823049	-0.365078	0.166710
H84	H	0.831461	-0.201424	0.157791
H85	H	1.010706	-0.487010	-0.031933
Br86	Br	0.333095	0.013687	0.183164
