data_functionalizedCrystal
_audit_creation_method	'MofGen! by Chris Wilmer'
_symmetry_space_group_name_H-M	'P1'
_symmetry_Int_Tables_number	1
_symmetry_cell_setting	triclinic
loop_
_symmetry_equiv_pos_as_xyz
  x,y,z
_cell_length_a	19.188925
_cell_length_b	23.532407
_cell_length_c	18.266242
_cell_angle_alpha	90.002302
_cell_angle_beta	89.995855
_cell_angle_gamma	97.004348
loop_
_atom_site_label
_atom_site_type_symbol
_atom_site_fract_x
_atom_site_fract_y
_atom_site_fract_z
O1	O	0.084757	-0.755439	-0.060823
O2	O	0.418090	-0.422106	0.272510
O3	O	0.751424	-0.088772	0.605843
O4	O	0.097020	-0.589602	-0.060837
O5	O	0.430354	-0.256268	0.272496
O6	O	0.763687	0.077065	0.605829
O7	O	-0.010783	-0.677308	-0.060826
O8	O	0.322551	-0.343974	0.272507
O9	O	0.655884	-0.010641	0.605841
O10	O	0.192560	-0.667733	-0.060835
O11	O	0.525893	-0.334400	0.272498
O12	O	0.859227	-0.001066	0.605832
O13	O	-0.010785	-0.677298	0.060936
O14	O	0.322548	-0.343965	0.394269
O15	O	0.655882	-0.010631	0.727603
O16	O	0.097018	-0.589592	0.060925
O17	O	0.430351	-0.256259	0.394258
O18	O	0.763685	0.077075	0.727591
O19	O	0.084754	-0.755430	0.060939
O20	O	0.418088	-0.422096	0.394272
O21	O	0.751421	-0.088763	0.727605
Zn22	Zn	0.090886	-0.672509	0.080264
Zn23	Zn	0.424219	-0.339176	0.413597
Zn24	Zn	0.757552	-0.005843	0.746931
Zn25	Zn	0.090889	-0.672522	-0.080163
Zn26	Zn	0.424222	-0.339188	0.253171
Zn27	Zn	0.757556	-0.005855	0.586504
O28	O	0.192557	-0.667723	0.060927
O29	O	0.525891	-0.334390	0.394260
O30	O	0.859224	-0.001057	0.727594
C31	C	-0.036794	-0.676993	0.000055
C32	C	0.296539	-0.343660	0.333388
C33	C	0.629873	-0.010327	0.666721
C34	C	-0.114296	-0.676064	0.000053
C35	C	0.219038	-0.342731	0.333386
C36	C	0.552371	-0.009397	0.666720
C37	C	0.096707	-0.568380	0.000042
C38	C	0.430040	-0.235047	0.333375
C39	C	0.763374	0.098287	0.666709
C40	C	0.095768	-0.505161	0.000037
C41	C	0.429101	-0.171828	0.333370
C42	C	0.762435	0.161506	0.666703
C43	C	-0.676210	-0.721305	0.000038
C44	C	-0.342877	-0.387972	0.333372
C45	C	-0.009543	-0.054638	0.666705
C46	C	-0.603390	-0.722183	0.000045
C47	C	-0.270056	-0.388850	0.333378
C48	C	0.063277	-0.055516	0.666712
C49	C	-0.558291	-0.670720	0.000040
C50	C	-0.224958	-0.337387	0.333374
C51	C	0.108376	-0.004053	0.666707
C52	C	-0.586018	-0.618375	0.000048
C53	C	-0.252685	-0.285042	0.333381
C54	C	0.080649	0.048292	0.666715
C55	C	-0.658837	-0.617498	0.000049
C56	C	-0.325504	-0.284165	0.333382
C57	C	0.007829	0.049168	0.666715
N58	N	-0.437491	-0.633466	-0.041407
N59	N	-0.104158	-0.300133	0.291926
N60	N	0.229176	0.033201	0.625259
N61	N	-0.368316	-0.634302	-0.041409
N62	N	-0.034983	-0.300969	0.291924
N63	N	0.298350	0.032364	0.625257
C64	C	-0.338890	-0.673358	0.000040
C65	C	-0.005557	-0.340025	0.333374
C66	C	0.327776	-0.006691	0.666707
N67	N	-0.381254	-0.711555	0.041483
N68	N	-0.047920	-0.378221	0.374816
N69	N	0.285413	-0.044888	0.708150
N70	N	-0.450435	-0.710720	0.041482
N71	N	-0.117102	-0.377387	0.374815
N72	N	0.216232	-0.044053	0.708148
C73	C	-0.479330	-0.671665	0.000040
C74	C	-0.145997	-0.338331	0.333374
C75	C	0.187337	-0.004998	0.666707
C76	C	-0.232211	-0.726652	0.000045
C77	C	0.101122	-0.393319	0.333378
C78	C	0.434455	-0.059985	0.666712
C79	C	-0.159389	-0.727528	0.000056
C80	C	0.173944	-0.394194	0.333390
C81	C	0.507277	-0.060861	0.666723
C82	C	-0.142019	-0.623718	0.000052
C83	C	0.191314	-0.290385	0.333385
C84	C	0.524648	0.042949	0.666719
C85	C	-0.214840	-0.622844	0.000048
C86	C	0.118494	-0.289510	0.333381
C87	C	0.451827	0.043823	0.666715
C88	C	-0.259932	-0.674312	0.000041
C89	C	0.073401	-0.340979	0.333375
C90	C	0.406735	-0.007646	0.666708
C91	C	0.028100	-0.238851	0.000056
C92	C	0.361434	0.094482	0.333389
C93	C	0.694767	0.427816	0.666722
C94	C	0.028973	-0.298253	0.000056
C95	C	0.362306	0.035080	0.333390
C96	C	0.695639	0.368414	0.666723
O97	O	-0.024707	-0.334884	0.000085
O98	O	0.308626	-0.001551	0.333418
O99	O	0.641959	0.331782	0.666751
N100	N	0.093061	-0.321014	0.000049
N101	N	0.426395	0.012319	0.333382
N102	N	0.759728	0.345652	0.666716
C103	C	0.156282	-0.284370	0.000048
C104	C	0.489615	0.048963	0.333382
C105	C	0.822949	0.382297	0.666715
O106	O	0.210875	-0.309185	0.000043
O107	O	0.544208	0.024149	0.333376
O108	O	0.877541	0.357482	0.666709
C109	C	0.155409	-0.224969	0.000053
C110	C	0.488742	0.108364	0.333386
C111	C	0.822076	0.441698	0.666720
C112	C	0.091316	-0.202211	0.000053
C113	C	0.424650	0.131122	0.333386
C114	C	0.757983	0.464455	0.666720
C115	C	-0.035987	-0.216093	0.000057
C116	C	0.297346	0.117241	0.333390
C117	C	0.630679	0.450574	0.666723
C118	C	-0.036859	-0.156695	0.000055
C119	C	0.296474	0.176639	0.333388
C120	C	0.629807	0.509972	0.666721
C121	C	0.026357	-0.120055	0.000052
C122	C	0.359690	0.213278	0.333385
C123	C	0.693023	0.546612	0.666718
C124	C	0.090444	-0.142813	0.000051
C125	C	0.423778	0.190520	0.333384
C126	C	0.757111	0.523853	0.666718
C127	C	0.218629	-0.188326	0.000057
C128	C	0.551962	0.145007	0.333391
C129	C	0.885296	0.478341	0.666724
C130	C	0.217751	-0.128922	0.000063
C131	C	0.551084	0.204412	0.333396
C132	C	0.884417	0.537745	0.666729
C133	C	0.153658	-0.106164	0.000063
C134	C	0.486991	0.227169	0.333396
C135	C	0.820324	0.560503	0.666729
C136	C	0.152788	-0.046776	0.000046
C137	C	0.486122	0.286558	0.333379
C138	C	0.819455	0.619891	0.666713
N139	N	0.088699	-0.024014	0.000054
N140	N	0.422033	0.309319	0.333387
N141	N	0.755366	0.642652	0.666720
C142	C	0.025484	-0.060654	0.000056
C143	C	0.358817	0.272679	0.333390
C144	C	0.692150	0.606013	0.666723
C145	C	0.158110	-0.409116	0.000040
C146	C	0.491444	-0.075783	0.333373
C147	C	0.824777	0.257550	0.666706
C148	C	0.158984	-0.468516	0.000030
C149	C	0.492317	-0.135183	0.333363
C150	C	0.825651	0.198150	0.666697
C151	C	0.031674	-0.482395	0.000039
C152	C	0.365008	-0.149062	0.333373
C153	C	0.698341	0.184271	0.666706
C154	C	0.030801	-0.422994	0.000044
C155	C	0.364135	-0.089661	0.333377
C156	C	0.697468	0.243672	0.666711
C157	C	0.094022	-0.386355	0.000047
C158	C	0.427355	-0.053022	0.333381
C159	C	0.760688	0.280311	0.666714
C160	C	0.023657	0.064086	0.000052
C161	C	0.356991	0.397420	0.333385
C162	C	0.690324	0.730753	0.666718
C163	C	0.022791	0.123490	0.000047
C164	C	0.356124	0.456824	0.333380
C165	C	0.689458	0.790157	0.666713
C166	C	0.150100	0.137364	0.000041
C167	C	0.483434	0.470697	0.333374
C168	C	0.816767	0.804031	0.666708
C169	C	0.150967	0.077965	0.000042
C170	C	0.484301	0.411299	0.333375
C171	C	0.817634	0.744632	0.666709
C172	C	0.087740	0.041328	0.000050
C173	C	0.421073	0.374661	0.333383
C174	C	0.754407	0.707994	0.666717
O175	O	0.206440	-0.010110	0.000021
O176	O	0.539773	0.323224	0.333354
O177	O	0.873107	0.656557	0.666687
O178	O	-0.029100	-0.035831	0.000072
O179	O	0.304233	0.297502	0.333405
O180	O	0.637567	0.630836	0.666738
C181	C	0.218569	-0.668038	0.000045
C182	C	0.551902	-0.334704	0.333378
C183	C	0.885235	-0.001371	0.666712
C184	C	0.296070	-0.668967	0.000042
C185	C	0.629404	-0.335634	0.333375
C186	C	0.962737	-0.002300	0.666708
C187	C	0.085068	0.223349	0.000054
C188	C	0.418401	0.556682	0.333387
C189	C	0.751735	0.890016	0.666721
C190	C	0.086007	0.160130	0.000044
C191	C	0.419340	0.493463	0.333377
C192	C	0.752674	0.826797	0.666710
N193	N	0.090883	-0.672505	0.189751
N194	N	0.424216	-0.339172	0.523084
N195	N	0.757550	-0.005838	0.856418
N196	N	0.090886	-0.672531	-0.189650
N197	N	0.424219	-0.339197	0.143684
N198	N	0.757553	-0.005864	0.477017
C199	C	0.043164	-0.711368	0.772033
C200	C	0.376497	-0.378034	1.105367
C201	C	0.709831	-0.044701	1.438700
C202	C	0.043166	-0.711369	0.695388
C203	C	0.376499	-0.378035	1.028722
C204	C	0.709832	-0.044702	1.362055
C205	C	0.090883	-0.672522	0.657063
C206	C	0.424216	-0.339189	0.990397
C207	C	0.757549	-0.005856	1.323730
C208	C	0.138614	-0.633682	0.695390
C209	C	0.471947	-0.300349	1.028723
C210	C	0.805280	0.032984	1.362057
C211	C	0.138616	-0.633686	0.772033
C212	C	0.471949	-0.300353	1.105367
C213	C	0.805282	0.032980	1.438700
N214	N	0.100092	-0.622103	0.536732
N215	N	0.433425	-0.288770	0.870066
N216	N	0.766758	0.044564	1.203399
N217	N	0.100086	-0.622101	0.463924
N218	N	0.433419	-0.288768	0.797258
N219	N	0.766753	0.044566	1.130591
C220	C	0.090881	-0.672508	0.426141
C221	C	0.424215	-0.339175	0.759474
C222	C	0.757548	-0.005842	1.092808
N223	N	0.081669	-0.722920	0.463916
N224	N	0.415002	-0.389586	0.797250
N225	N	0.748336	-0.056253	1.130583
N226	N	0.081671	-0.722921	0.536731
N227	N	0.415005	-0.389588	0.870064
N228	N	0.748338	-0.056255	1.203398
C229	C	0.090886	-0.672514	0.573956
C230	C	0.424220	-0.339180	0.907290
C231	C	0.757553	-0.005847	1.240623
C232	C	0.043158	-0.711349	0.304717
C233	C	0.376492	-0.378016	0.638050
C234	C	0.709825	-0.044683	0.971383
C235	C	0.043165	-0.711351	0.228070
C236	C	0.376498	-0.378018	0.561404
C237	C	0.709831	-0.044684	0.894737
C238	C	0.138610	-0.633660	0.228073
C239	C	0.471943	-0.300326	0.561407
C240	C	0.805276	0.033007	0.894740
C241	C	0.138607	-0.633663	0.304718
C242	C	0.471940	-0.300330	0.638052
C243	C	0.805273	0.033004	0.971385
C244	C	0.090877	-0.672507	0.343035
C245	C	0.424210	-0.339174	0.676369
C246	C	0.757544	-0.005841	1.009702
H247	H	-0.712920	-0.763215	0.000037
H248	H	-0.379587	-0.429882	0.333370
H249	H	-0.046254	-0.096548	0.666703
H250	H	0.177464	-0.602033	0.196870
H251	H	0.510798	-0.268699	0.530203
H252	H	0.844131	0.064634	0.863537
H253	H	-0.681405	-0.574877	0.000053
H254	H	-0.348072	-0.241544	0.333386
H255	H	-0.014738	0.091790	0.666720
N256	N	-0.095961	-0.571149	0.000034
N257	N	0.237372	-0.237815	0.333367
N258	N	0.570706	0.095518	0.666700
N259	N	-0.098274	-0.536302	-0.051295
N260	N	0.235059	-0.202968	0.282038
N261	N	0.568393	0.130365	0.615371
H262	H	-0.065742	-0.499173	-0.051307
H263	H	0.267591	-0.165839	0.282026
H264	H	0.600924	0.167494	0.615359
N265	N	-0.040926	0.026667	0.000072
N266	N	0.292407	0.360000	0.333405
N267	N	0.625741	0.693333	0.666738
N268	N	-0.083644	0.028660	0.051400
N269	N	0.249689	0.361994	0.384733
N270	N	0.583022	0.695327	0.718066
H271	H	-0.129256	0.002232	0.051412
H272	H	0.204077	0.335566	0.384745
H273	H	0.537411	0.668899	0.718078
H274	H	0.211175	-0.487040	0.000020
H275	H	0.544508	-0.153707	0.333353
H276	H	0.877842	0.179627	0.666686
H277	H	0.004303	-0.742996	0.664185
H278	H	0.337637	-0.409662	0.997518
H279	H	0.670970	-0.076329	1.330851
H280	H	0.004296	-0.742981	0.335916
H281	H	0.337629	-0.409647	0.669249
H282	H	0.670963	-0.076314	1.002582
H283	H	0.209595	-0.379287	0.000037
H284	H	0.542929	-0.045954	0.333370
H285	H	0.876262	0.287379	0.666704
H286	H	-0.580816	-0.764805	0.000042
H287	H	-0.247483	-0.431471	0.333376
H288	H	0.085851	-0.098138	0.666709
N289	N	-0.539943	-0.565812	0.000034
N290	N	-0.206610	-0.232479	0.333367
N291	N	0.126723	0.100854	0.666700
N292	N	-0.497370	-0.554726	-0.051295
N293	N	-0.164037	-0.221392	0.282038
N294	N	0.169296	0.111941	0.615371
H295	H	-0.464828	-0.517602	-0.051304
H296	H	-0.131495	-0.184269	0.282030
H297	H	0.201838	0.149064	0.615363
N298	N	0.187339	-0.593977	0.343861
N299	N	0.520672	-0.260644	0.677194
N300	N	0.854005	0.072689	1.010528
N301	N	0.165405	-0.558685	0.386632
N302	N	0.498738	-0.225352	0.719966
N303	N	0.832071	0.107981	1.053299
H304	H	0.199824	-0.530655	0.414277
H305	H	0.533158	-0.197322	0.747610
H306	H	0.866491	0.136012	1.080943
N307	N	-0.102323	-0.133443	0.000078
N308	N	0.231010	0.199890	0.333411
N309	N	0.564343	0.533223	0.666745
N310	N	-0.103106	-0.080408	0.000089
N311	N	0.230227	0.252925	0.333422
N312	N	0.563560	0.586259	0.666756
H313	H	-0.149343	-0.063989	0.000111
H314	H	0.183990	0.269344	0.333445
H315	H	0.517323	0.602678	0.666778
N316	N	-0.278286	-0.779218	0.000040
N317	N	0.055048	-0.445884	0.333373
N318	N	0.388381	-0.112551	0.666707
N319	N	-0.320853	-0.790312	-0.051287
N320	N	0.012481	-0.456979	0.282046
N321	N	0.345814	-0.123646	0.615379
H322	H	-0.353392	-0.827437	-0.051291
H323	H	-0.020059	-0.494104	0.282042
H324	H	0.313274	-0.160771	0.615376
H325	H	-0.136823	-0.770149	0.000058
H326	H	0.196511	-0.436816	0.333392
H327	H	0.529844	-0.103483	0.666725
N328	N	0.284106	-0.211553	0.000053
N329	N	0.617439	0.121780	0.333386
N330	N	0.950772	0.455114	0.666719
N331	N	0.340537	-0.178822	0.000054
N332	N	0.673871	0.154512	0.333387
N333	N	1.007204	0.487845	0.666721
H334	H	0.386785	-0.195224	0.000051
H335	H	0.720118	0.138110	0.333384
H336	H	1.053452	0.471443	0.666717
H337	H	-0.237408	-0.580224	0.000046
H338	H	0.095925	-0.246891	0.333379
H339	H	0.429258	0.086442	0.666712
H340	H	0.269234	-0.099092	0.000069
H341	H	0.602567	0.234241	0.333402
H342	H	0.935900	0.567574	0.666735
H343	H	-0.029403	0.142016	0.000045
H344	H	0.303930	0.475349	0.333378
H345	H	0.637263	0.808683	0.666711
H346	H	-0.087468	-0.245920	0.000061
H347	H	0.245865	0.087414	0.333395
H348	H	0.579198	0.420747	0.666728
N349	N	0.216441	0.054725	0.000032
N350	N	0.549774	0.388058	0.333366
N351	N	0.883108	0.721392	0.666699
N352	N	0.272878	0.087448	0.000027
N353	N	0.606212	0.420782	0.333360
N354	N	0.939545	0.754115	0.666694
H355	H	0.319121	0.071039	0.000027
H356	H	0.652455	0.404372	0.333360
H357	H	0.985788	0.737706	0.666694
H358	H	0.201569	0.167207	0.000035
H359	H	0.534902	0.500540	0.333368
H360	H	0.868236	0.833873	0.666702
H361	H	-0.021389	-0.404469	0.000045
H362	H	0.311945	-0.071136	0.333378
H363	H	0.645278	0.262197	0.666711
H364	H	0.177467	-0.602054	0.664182
H365	H	0.510800	-0.268721	0.997515
H366	H	0.844134	0.064613	1.330849
N367	N	-0.032901	-0.519828	0.000065
N368	N	0.300432	-0.186495	0.333398
N369	N	0.633765	0.146839	0.666731
N370	N	-0.075615	-0.517844	0.051399
N371	N	0.257718	-0.184510	0.384732
N372	N	0.591052	0.148823	0.718066
H373	H	-0.121219	-0.544282	0.051418
H374	H	0.212114	-0.210948	0.384752
H375	H	0.545448	0.122385	0.718085
N376	N	0.187371	-0.594011	0.811166
N377	N	0.520704	-0.260677	1.144499
N378	N	0.854038	0.072656	1.477833
N379	N	0.229978	-0.559331	0.776943
N380	N	0.563311	-0.225998	1.110276
N381	N	0.896644	0.107335	1.443610
H382	H	0.264412	-0.531309	0.804581
H383	H	0.597745	-0.197976	1.137914
H384	H	0.931079	0.135358	1.471248
N385	N	-0.005557	-0.751055	0.188939
N386	N	0.327777	-0.417722	0.522272
N387	N	0.661110	-0.084389	0.855606
N388	N	-0.048145	-0.785748	0.223164
N389	N	0.285188	-0.452415	0.556497
N390	N	0.618521	-0.119081	0.889830
H391	H	-0.082546	-0.813799	0.195527
H392	H	0.250788	-0.480466	0.528860
H393	H	0.584121	-0.147133	0.862194
H394	H	0.004302	-0.742998	0.803229
H395	H	0.337635	-0.409665	1.136562
H396	H	0.670968	-0.076332	1.469895
