data_functionalizedCrystal
_audit_creation_method	'MofGen! by Chris Wilmer'
_symmetry_space_group_name_H-M	'P1'
_symmetry_Int_Tables_number	1
_symmetry_cell_setting	triclinic
loop_
_symmetry_equiv_pos_as_xyz
  x,y,z
_cell_length_a	10.654545
_cell_length_b	12.837942
_cell_length_c	9.730223
_cell_angle_alpha	89.996108
_cell_angle_beta	89.997167
_cell_angle_gamma	89.656010
loop_
_atom_site_label
_atom_site_type_symbol
_atom_site_fract_x
_atom_site_fract_y
_atom_site_fract_z
O1	O	1.683742	0.145700	-0.114275
O2	O	2.183742	0.645700	0.385725
O3	O	1.319778	0.159589	-0.114281
O4	O	1.819778	0.659589	0.385719
O5	O	1.493690	0.001684	-0.114270
O6	O	1.993690	0.501684	0.385730
O7	O	1.509830	0.303605	-0.114287
O8	O	2.009830	0.803605	0.385713
O9	O	1.493677	0.001679	0.114310
O10	O	1.993677	0.501679	0.614310
O11	O	1.319765	0.159584	0.114299
O12	O	1.819765	0.659584	0.614299
O13	O	1.683729	0.145696	0.114305
O14	O	2.183729	0.645696	0.614305
Zn15	Zn	1.501745	0.152639	0.150594
Zn16	Zn	2.001745	0.652639	0.650594
Zn17	Zn	1.501762	0.152645	-0.150570
Zn18	Zn	2.001762	0.652645	0.349430
O19	O	1.509818	0.303601	0.114293
O20	O	2.009818	0.803601	0.614293
C21	C	1.272863	0.158568	0.000008
C22	C	1.772863	0.658568	0.500008
C23	C	1.133086	0.155520	0.000006
C24	C	1.633086	0.655520	0.500006
C25	C	1.067418	0.154082	0.124606
C26	C	1.567418	0.654082	0.624606
C27	C	0.936084	0.151201	0.124606
C28	C	1.436084	0.651201	0.624606
C29	C	0.936098	0.151199	-0.124604
C30	C	1.436098	0.651199	0.375396
C31	C	1.067430	0.154073	-0.124603
C32	C	1.567430	0.654073	0.375397
C33	C	1.488230	-0.036978	0.000019
C34	C	1.988230	0.463022	0.500019
C35	C	1.471968	-0.152172	0.000017
C36	C	1.971968	0.347828	0.500017
C37	C	1.667472	-0.391727	-0.000009
C38	C	2.167472	0.108273	0.499991
C39	C	1.652198	-0.499963	-0.000012
C40	C	2.152198	0.000037	0.499988
C41	C	1.426147	-0.476880	-0.000001
C42	C	1.926147	0.023120	0.499999
C43	C	1.441421	-0.368645	0.000002
C44	C	1.941421	0.131355	0.500002
C45	C	1.562087	-0.326073	-0.000000
C46	C	2.062087	0.173927	0.500000
C47	C	1.577361	-0.217835	0.000012
C48	C	2.077361	0.282165	0.500012
C49	C	1.351310	-0.194755	0.000013
C50	C	1.851310	0.305245	0.500013
C51	C	1.336036	-0.302990	0.000010
C52	C	1.836036	0.197010	0.500010
C53	C	1.730645	0.146717	0.000012
C54	C	2.230645	0.646717	0.500012
C55	C	1.870421	0.149765	0.000005
C56	C	2.370421	0.649765	0.500005
C57	C	1.515277	0.342263	0.000001
C58	C	2.015277	0.842263	0.500001
C59	C	1.531539	0.457456	-0.000005
C60	C	2.031539	0.957456	0.499995
N61	N	1.501743	0.152635	0.356130
N62	N	2.001743	0.652635	0.856130
N63	N	1.501773	0.152641	-0.356107
N64	N	2.001773	0.652641	0.143893
C65	C	1.578783	0.082744	0.428061
C66	C	2.078783	0.582744	0.928061
C67	C	1.578796	0.082745	0.571944
C68	C	2.078796	0.582745	1.071944
C69	C	1.424724	0.222535	0.571952
C70	C	1.924724	0.722535	1.071952
C71	C	1.424706	0.222529	0.428072
C72	C	1.924706	0.722529	0.928072
H73	H	1.675613	-0.183175	0.000016
H74	H	2.175613	0.316825	0.500016
Cl75	Cl	1.675623	-0.005127	0.337625
Cl76	Cl	2.175623	0.494873	0.837625
H77	H	1.120899	0.155240	-0.226073
H78	H	1.620899	0.655240	0.273927
Cl79	Cl	1.675647	-0.005123	0.662367
Cl80	Cl	2.175647	0.494877	1.162367
Cl81	Cl	1.327888	0.310402	0.662400
Cl82	Cl	1.827888	0.810402	1.162400
H83	H	0.882625	0.150022	-0.226057
H84	H	1.382625	0.650022	0.273943
H85	H	1.361965	0.279443	0.369502
H86	H	1.861965	0.779443	0.869502
Cl87	Cl	1.218818	-0.112210	0.000041
Cl88	Cl	1.718818	0.387790	0.500041
H89	H	0.882623	0.150031	0.226068
H90	H	1.382623	0.650031	0.726068
Cl91	Cl	1.149954	0.155895	0.281257
Cl92	Cl	1.649954	0.655895	0.781257
H93	H	1.765724	-0.357065	0.000003
H94	H	2.265724	0.142935	0.500003
Cl95	Cl	1.784688	-0.582498	-0.000027
Cl96	Cl	2.284688	-0.082498	0.499973
H97	H	1.327905	-0.511562	-0.000014
H98	H	1.827905	-0.011562	0.499986
H99	H	1.237792	-0.337668	0.000007
H100	H	1.737792	0.162332	0.500007
