data_functionalizedCrystal
_audit_creation_method	'MofGen! by Chris Wilmer'
_symmetry_space_group_name_H-M	'P1'
_symmetry_Int_Tables_number	1
_symmetry_cell_setting	triclinic
loop_
_symmetry_equiv_pos_as_xyz
  x,y,z
_cell_length_a	13.033286
_cell_length_b	13.032721
_cell_length_c	13.032268
_cell_angle_alpha	103.289627
_cell_angle_beta	105.163409
_cell_angle_gamma	89.137287
loop_
_atom_site_label
_atom_site_type_symbol
_atom_site_fract_x
_atom_site_fract_y
_atom_site_fract_z
Zn1	Zn	1.451070	-0.662369	-0.490252
Zn2	Zn	1.450956	-0.817441	-0.335213
Zn3	Zn	1.301741	-0.623060	-0.329544
Zn4	Zn	1.250876	-0.817400	-0.535361
O5	O	1.363661	-0.730068	-0.422593
O6	O	1.597284	-0.699408	-0.453180
O7	O	1.452402	-0.775222	-0.183441
O8	O	1.342885	-0.482045	-0.329612
O9	O	1.597200	-0.813338	-0.339274
O10	O	1.452596	-0.510925	-0.447683
O11	O	1.342774	-0.632412	-0.179276
O12	O	1.148765	-0.632372	-0.373352
O13	O	1.256193	-0.813269	-0.680397
O14	O	1.111395	-0.775152	-0.524564
O15	O	1.403275	-0.699368	-0.647256
O16	O	1.403080	-0.963665	-0.383014
O17	O	1.256083	-0.963635	-0.530062
C18	C	1.092164	-0.699493	-0.453239
C19	C	0.976010	-0.686441	-0.466378
C20	C	0.924212	-0.736883	-0.415762
C21	C	0.804160	-0.723394	-0.429341
C22	C	1.324075	-1.001572	-0.462068
C23	C	1.307230	-1.117737	-0.478981
C24	C	1.372501	-1.169519	-0.413808
C25	C	1.355093	-1.289582	-0.431287
C26	C	1.636217	-0.760763	-0.391828
C27	C	1.752365	-0.773843	-0.378717
C28	C	1.324073	-0.760699	-0.704079
C29	C	1.307203	-0.773752	-0.824031
C30	C	1.403427	-0.457509	-0.382983
C31	C	1.420373	-0.341361	-0.366104
C32	C	1.372455	-0.723216	-0.861113
C33	C	1.355020	-0.736706	-0.985090
C34	C	1.403166	-0.699487	-0.142184
C35	C	1.420281	-0.686162	-0.022166
H36	H	0.931477	-0.633273	-0.519770
H37	H	0.796889	-0.827027	-0.325335
H38	H	1.489053	-0.632899	-0.962133
H39	H	0.968743	-0.790058	-0.362378
H40	H	1.238426	-0.826997	-0.884068
H41	H	1.441274	-1.124969	-0.345073
H42	H	1.489150	-1.296814	-0.297365
H43	H	1.286238	-0.789954	-1.045124
H44	H	1.238465	-1.162291	-0.547722
H45	H	0.759631	-0.670223	-0.482737
H46	H	1.441223	-0.669959	-0.801075
H47	H	1.286323	-1.334132	-0.500033
