data_functionalizedCrystal
_audit_creation_method	'MofGen! by Chris Wilmer'
_symmetry_space_group_name_H-M	'P1'
_symmetry_Int_Tables_number	1
_symmetry_cell_setting	triclinic
loop_
_symmetry_equiv_pos_as_xyz
  x,y,z
_cell_length_a	17.038272
_cell_length_b	17.038272
_cell_length_c	15.500227
_cell_angle_alpha	86.966746
_cell_angle_beta	86.952609
_cell_angle_gamma	88.888444
loop_
_atom_site_label
_atom_site_type_symbol
_atom_site_fract_x
_atom_site_fract_y
_atom_site_fract_z
O1	O	1.052164	-0.167136	-0.071911
O2	O	1.385497	0.166198	0.261422
O3	O	1.718830	0.499531	0.594756
O4	O	0.824352	-0.164427	-0.071920
O5	O	1.157686	0.168906	0.261413
O6	O	1.491019	0.502239	0.594746
O7	O	0.936904	-0.051876	-0.071909
O8	O	1.270237	0.281457	0.261425
O9	O	1.603570	0.614791	0.594758
O10	O	0.939612	-0.279687	-0.071922
O11	O	1.272946	0.053647	0.261411
O12	O	1.606279	0.386980	0.594744
O13	O	0.930072	-0.058677	0.071979
O14	O	1.263405	0.274656	0.405313
O15	O	1.596739	0.607990	0.738646
O16	O	0.817521	-0.171228	0.071968
O17	O	1.150854	0.162105	0.405301
O18	O	1.484187	0.495438	0.738634
O19	O	1.045332	-0.173937	0.071977
O20	O	1.378665	0.159397	0.405310
O21	O	1.711998	0.492730	0.738644
Cu22	Cu	0.930802	-0.173204	0.085111
Cu23	Cu	1.264136	0.160130	0.418444
Cu24	Cu	1.597469	0.493463	0.751777
Cu25	Cu	0.938882	-0.165160	-0.085054
Cu26	Cu	1.272215	0.168173	0.248280
Cu27	Cu	1.605548	0.501506	0.581613
O28	O	0.932780	-0.286488	0.071966
O29	O	1.266114	0.046845	0.405299
O30	O	1.599447	0.380179	0.738632
C31	C	0.791644	-0.165365	0.000023
C32	C	1.124977	0.167968	0.333356
C33	C	1.458311	0.501302	0.666689
C34	C	0.704360	-0.158017	0.000019
C35	C	1.037694	0.175317	0.333353
C36	C	1.371027	0.508650	0.666686
C37	C	0.931025	-0.025984	0.000035
C38	C	1.264358	0.307350	0.333368
C39	C	1.597692	0.640683	0.666702
C40	C	0.923677	0.061300	0.000034
C41	C	1.257010	0.394633	0.333368
C42	C	1.590344	0.727966	0.666701
C43	C	1.078040	-0.172999	0.000032
C44	C	1.411374	0.160334	0.333366
C45	C	1.744707	0.493668	0.666699
C46	C	1.165324	-0.180347	0.000030
C47	C	1.498657	0.152986	0.333363
C48	C	1.831991	0.486320	0.666697
C49	C	1.210933	-0.112883	0.000031
C50	C	1.544267	0.220450	0.333364
C51	C	1.877600	0.553783	0.666698
C52	C	1.292945	-0.119792	0.000034
C53	C	1.626278	0.213541	0.333367
C54	C	1.959612	0.546874	0.666700
C55	C	1.329346	-0.194165	0.000029
C56	C	1.662680	0.139168	0.333363
C57	C	1.996013	0.472501	0.666696
C58	C	1.283731	-0.261634	0.000031
C59	C	1.617064	0.071699	0.333364
C60	C	1.950398	0.405032	0.666697
C61	C	1.201720	-0.254725	0.000034
C62	C	1.535054	0.078609	0.333367
C63	C	1.868387	0.411942	0.666701
C64	C	1.576735	-0.218576	0.000024
C65	C	1.910068	0.114757	0.333358
C66	C	2.243401	0.448091	0.666691
C67	C	1.658751	-0.225480	0.000018
C68	C	1.992085	0.107853	0.333352
C69	C	2.325418	0.441186	0.666685
C70	C	1.667960	-0.083638	0.000023
C71	C	2.001293	0.249696	0.333356
C72	C	2.334626	0.583029	0.666690
C73	C	1.585947	-0.076734	0.000021
C74	C	1.919281	0.256599	0.333355
C75	C	2.252614	0.589932	0.666688
C76	C	1.540339	-0.144203	0.000027
C77	C	1.873672	0.189130	0.333361
C78	C	2.207006	0.522463	0.666694
C79	C	1.413176	-0.201229	0.000029
C80	C	1.746509	0.132104	0.333363
C81	C	2.079842	0.465437	0.666696
C82	C	1.456511	-0.137139	0.000033
C83	C	1.789844	0.196194	0.333367
C84	C	2.123178	0.529527	0.666700
C85	C	0.938659	-0.312380	0.000020
C86	C	1.271993	0.020953	0.333353
C87	C	1.605326	0.354287	0.666687
C88	C	0.946008	-0.399663	0.000015
C89	C	1.279341	-0.066330	0.333348
C90	C	1.612674	0.267003	0.666681
N91	N	0.925125	-0.178861	0.204795
N92	N	1.258459	0.154473	0.538128
N93	N	1.591792	0.487806	0.871462
C94	C	0.991140	0.106909	0.000038
C95	C	1.324474	0.440242	0.333371
C96	C	1.657807	0.773576	0.666705
C97	C	0.984232	0.188921	0.000030
C98	C	1.317565	0.522255	0.333363
C99	C	1.650899	0.855588	0.666696
C100	C	0.909859	0.225323	0.000024
C101	C	1.243192	0.558656	0.333357
C102	C	1.576526	0.891989	0.666690
C103	C	0.842390	0.179708	0.000017
C104	C	1.175724	0.513041	0.333351
C105	C	1.509057	0.846374	0.666684
C106	C	0.849300	0.097697	0.000020
C107	C	1.182633	0.431030	0.333353
C108	C	1.515967	0.764364	0.666686
C109	C	0.885449	0.472711	0.000011
C110	C	1.218782	0.806044	0.333344
C111	C	1.552116	1.139378	0.666678
C112	C	0.878544	0.554728	0.000011
C113	C	1.211878	0.888061	0.333344
C114	C	1.545211	1.221394	0.666678
C115	C	1.020386	0.563936	0.000022
C116	C	1.353720	0.897269	0.333355
C117	C	1.687053	1.230602	0.666688
C118	C	1.027289	0.481923	0.000029
C119	C	1.360623	0.815256	0.333363
C120	C	1.693956	1.148590	0.666696
C121	C	0.959821	0.436315	0.000018
C122	C	1.293154	0.769649	0.333352
C123	C	1.626488	1.102982	0.666685
C124	C	0.902795	0.309152	0.000018
C125	C	1.236129	0.642485	0.333351
C126	C	1.569462	0.975819	0.666684
C127	C	0.966886	0.352488	0.000018
C128	C	1.300219	0.685821	0.333352
C129	C	1.633552	1.019154	0.666685
N130	N	0.944565	-0.159498	-0.204738
N131	N	1.277898	0.173836	0.128595
N132	N	1.611231	0.507169	0.461929
C133	C	0.972836	-0.131189	0.250076
C134	C	1.306170	0.202145	0.583410
C135	C	1.639503	0.535478	0.916743
C136	C	0.968551	-0.135475	0.340649
C137	C	1.301884	0.197859	0.673982
C138	C	1.635217	0.531192	1.007315
C139	C	0.916558	-0.187437	0.385938
C140	C	1.249891	0.145896	0.719271
C141	C	1.583224	0.479229	1.052605
C142	C	0.868842	-0.235111	0.340650
C143	C	1.202175	0.098222	0.673984
C144	C	1.535508	0.431556	1.007317
C145	C	0.873124	-0.230820	0.250080
C146	C	1.206457	0.102513	0.583413
C147	C	1.539790	0.435846	0.916746
C148	C	0.901131	-0.202881	0.659403
C149	C	1.234464	0.130453	0.992737
C150	C	1.567797	0.463786	1.326070
C151	C	0.896854	-0.207169	0.749980
C152	C	1.230187	0.126164	1.083314
C153	C	1.563520	0.459497	1.416647
C154	C	0.996562	-0.107532	0.749973
C155	C	1.329896	0.225802	1.083306
C156	C	1.663229	0.559135	1.416639
C157	C	1.000843	-0.103249	0.659400
C158	C	1.334177	0.230084	0.992734
C159	C	1.667510	0.563418	1.326067
C160	C	0.953124	-0.150920	0.614120
C161	C	1.286458	0.182414	0.947454
C162	C	1.619791	0.515747	1.280787
C163	C	0.912178	-0.191821	0.478518
C164	C	1.245511	0.141512	0.811851
C165	C	1.578844	0.474845	1.145184
C166	C	0.957501	-0.146531	0.521542
C167	C	1.290834	0.186802	0.854876
C168	C	1.624167	0.520135	1.188209
H169	H	1.181302	-0.052321	0.000029
H170	H	1.514635	0.281013	0.333363
H171	H	1.847969	0.614346	0.666696
H172	H	1.556315	-0.016172	0.000025
H173	H	1.889649	0.317161	0.333358
H174	H	2.222982	0.650494	0.666692
H175	H	0.826503	-0.277417	0.377530
H176	H	1.159837	0.055916	0.710863
H177	H	1.493170	0.389249	1.044197
H178	H	0.999831	-0.104220	0.484665
H179	H	1.333164	0.229113	0.817999
H180	H	1.666497	0.562447	1.151332
Br181	Br	1.708153	-0.326422	0.000010
Br182	Br	2.041486	0.006912	0.333343
Br183	Br	2.374820	0.340245	0.666677
H184	H	1.007400	-0.096656	0.377517
H185	H	1.340733	0.236677	0.710850
H186	H	1.674067	0.570011	1.044183
H187	H	1.164586	-0.309661	0.000036
H188	H	1.497919	0.023672	0.333370
H189	H	1.831253	0.357006	0.666703
Br190	Br	1.071409	-0.032731	0.597935
Br191	Br	1.404742	0.300602	0.931268
Br192	Br	1.738075	0.633935	1.264601
H193	H	1.539610	-0.273514	0.000025
H194	H	1.872943	0.059819	0.333358
H195	H	2.206277	0.393153	0.666691
H196	H	1.035412	-0.068719	0.786848
H197	H	1.368745	0.264614	1.120181
H198	H	1.702079	0.597947	1.453515
H199	H	1.027441	0.322847	0.000004
H200	H	1.360774	0.656180	0.333337
H201	H	1.694107	0.989514	0.666671
Br202	Br	0.793884	0.410826	-0.000009
Br203	Br	1.127217	0.744159	0.333324
Br204	Br	1.460551	1.077492	0.666657
H205	H	1.313375	-0.322191	0.000032
H206	H	1.646709	0.011143	0.333366
H207	H	1.980042	0.344476	0.666699
H208	H	0.842240	0.338799	0.000015
H209	H	1.175574	0.672133	0.333348
H210	H	1.508907	1.005466	0.666681
Br211	Br	0.836373	-0.267576	0.597957
Br212	Br	1.169706	0.065757	0.931290
Br213	Br	1.503039	0.399090	1.264624
Br214	Br	1.407108	-0.036208	0.000047
Br215	Br	1.740441	0.297126	0.333380
Br216	Br	2.073774	0.630459	0.666713
H217	H	1.330077	-0.064856	0.000038
H218	H	1.663410	0.268477	0.333372
H219	H	1.996743	0.601810	0.666705
H220	H	0.781834	0.209352	0.000007
H221	H	1.115168	0.542686	0.333341
H222	H	1.448501	0.876019	0.666674
Br223	Br	1.462585	-0.302162	0.000015
Br224	Br	1.795918	0.031172	0.333348
Br225	Br	2.129251	0.364505	0.666682
H226	H	0.854513	-0.249487	0.786851
H227	H	1.187846	0.083847	1.120184
H228	H	1.521179	0.417180	1.453518
H229	H	0.834271	-0.269639	0.213212
H230	H	1.167605	0.063694	0.546545
H231	H	1.500938	0.397028	0.879879
H232	H	1.015178	-0.088879	0.213208
H233	H	1.348511	0.244455	0.546541
H234	H	1.681845	0.577788	0.879874
Br235	Br	1.729860	0.007922	0.000020
Br236	Br	2.063193	0.341255	0.333353
Br237	Br	2.396527	0.674588	0.666686
Br238	Br	1.092080	0.057515	0.000059
Br239	Br	1.425413	0.390848	0.333392
Br240	Br	1.758746	0.724181	0.666725
Br241	Br	0.777602	0.604129	0.000012
Br242	Br	1.110936	0.937462	0.333345
Br243	Br	1.444269	1.270795	0.666679
H244	H	1.039168	0.226053	0.000034
H245	H	1.372501	0.559386	0.333368
H246	H	1.705835	0.892719	0.666701
Br247	Br	1.128229	0.432528	0.000009
Br248	Br	1.461562	0.765861	0.333343
Br249	Br	1.794896	1.099195	0.666676
H250	H	0.869845	-0.234132	0.515400
H251	H	1.203178	0.099202	0.848733
H252	H	1.536512	0.432535	1.182066
H253	H	1.075315	0.601078	0.000029
H254	H	1.408648	0.934411	0.333362
H255	H	1.741982	1.267745	0.666696
H256	H	0.794364	0.060563	0.000017
H257	H	1.127697	0.393896	0.333350
H258	H	1.461031	0.727229	0.666683
