data_functionalizedCrystal
_audit_creation_method	'MofGen! by Chris Wilmer'
_symmetry_space_group_name_H-M	'P1'
_symmetry_Int_Tables_number	1
_symmetry_cell_setting	triclinic
loop_
_symmetry_equiv_pos_as_xyz
  x,y,z
_cell_length_a	17.077402
_cell_length_b	21.395364
_cell_length_c	17.077396
_cell_angle_alpha	90.020730
_cell_angle_beta	89.970216
_cell_angle_gamma	89.983085
loop_
_atom_site_label
_atom_site_type_symbol
_atom_site_fract_x
_atom_site_fract_y
_atom_site_fract_z
Zn1	Zn	-0.312633	-0.957863	-0.443861
Zn2	Zn	0.187367	-0.457863	0.056139
Zn3	Zn	-0.443908	-0.957788	-0.312592
Zn4	Zn	0.056092	-0.457788	0.187408
Zn5	Zn	-0.312646	-0.853087	-0.312606
Zn6	Zn	0.187354	-0.353087	0.187394
Zn7	Zn	-0.443847	-0.853061	-0.443813
Zn8	Zn	0.056153	-0.353061	0.056187
O9	O	-0.378259	-0.905450	-0.378218
O10	O	0.121741	-0.405450	0.121782
O11	O	-0.330067	-1.045531	-0.426462
O12	O	0.169933	-0.545531	0.073538
O13	O	-0.426527	-0.943879	-0.202747
O14	O	0.073473	-0.443879	0.297253
O15	O	-0.202798	-0.867027	-0.330044
O16	O	0.297202	-0.367027	0.169956
O17	O	-0.426514	-1.045476	-0.330020
O18	O	0.073486	-0.545476	0.169980
O19	O	-0.202788	-0.944005	-0.426476
O20	O	0.297212	-0.444005	0.073524
O21	O	-0.330090	-0.866955	-0.202758
O22	O	0.169910	-0.366955	0.297242
O23	O	-0.330031	-0.765405	-0.329997
O24	O	0.169969	-0.265405	0.170003
O25	O	-0.426410	-0.866983	-0.553666
O26	O	0.073590	-0.366983	-0.053666
O27	O	-0.426423	-0.765387	-0.426394
O28	O	0.073577	-0.265387	0.073606
O29	O	-0.330008	-0.943981	-0.553702
O30	O	0.169992	-0.443981	-0.053702
O31	O	-0.553747	-0.943854	-0.329973
O32	O	-0.053747	-0.443854	0.170027
O33	O	-0.553702	-0.866912	-0.426380
O34	O	-0.053702	-0.366912	0.073620
C35	C	-0.378222	-0.742662	-0.378192
C36	C	0.121778	-0.242662	0.121808
C37	C	-0.378226	-0.673021	-0.378200
C38	C	0.121774	-0.173021	0.121800
C39	C	-0.328129	-0.171252	-0.428510
C40	C	0.171871	0.328748	0.071490
C41	C	-0.328126	-0.236688	-0.428512
C42	C	0.171874	0.263312	0.071488
C43	C	-0.378259	-0.269382	-0.378220
C44	C	0.121741	0.230618	0.121780
C45	C	-0.428413	-0.236636	-0.327937
C46	C	0.071587	0.263364	0.172063
C47	C	-0.428420	-0.171202	-0.327942
C48	C	0.071580	0.328798	0.172058
C49	C	-0.384356	-0.373024	-0.307478
C50	C	0.115644	0.126976	0.192522
C51	C	-0.384343	-0.438457	-0.307471
C52	C	0.115657	0.061543	0.192529
C53	C	-0.378240	-0.471203	-0.378203
C54	C	0.121760	0.028797	0.121797
C55	C	-0.372134	-0.438508	-0.448945
C56	C	0.127866	0.061492	0.051055
C57	C	-0.372142	-0.373074	-0.448950
C58	C	0.127858	0.126926	0.051050
C59	C	-0.378256	-0.340335	-0.378209
C60	C	0.121744	0.159665	0.121791
C61	C	-0.328090	-0.574894	-0.428489
C62	C	0.171910	-0.074894	0.071511
C63	C	-0.328092	-0.640331	-0.428491
C64	C	0.171908	-0.140331	0.071509
C65	C	-0.428374	-0.640278	-0.327909
C66	C	0.071626	-0.140278	0.172091
C67	C	-0.428376	-0.574843	-0.327913
C68	C	0.071624	-0.074843	0.172087
C69	C	-0.378230	-0.542154	-0.378202
C70	C	0.121770	-0.042154	0.121798
C71	C	-0.582207	-0.905389	-0.378187
C72	C	-0.082207	-0.405389	0.121813
C73	C	-0.669456	-0.905421	-0.378200
C74	C	-0.169456	-0.405421	0.121800
C75	C	-0.710444	-0.945526	-0.328054
C76	C	-0.210444	-0.445526	0.171946
C77	C	-0.792424	-0.945556	-0.328074
C78	C	-0.292424	-0.445556	0.171926
C79	C	-0.833416	-0.905478	-0.378236
C80	C	-0.333416	-0.405478	0.121764
C81	C	-0.792423	-0.865371	-0.428387
C82	C	-0.292423	-0.365371	0.071613
C83	C	-0.710444	-0.865344	-0.428371
C84	C	-0.210444	-0.365344	0.071629
C85	C	-0.963293	-0.865430	-0.428417
C86	C	-0.463293	-0.365430	0.071583
C87	C	-1.045277	-0.865456	-0.428433
C88	C	-0.545277	-0.365456	0.071567
C89	C	-1.045273	-0.945641	-0.328121
C90	C	-0.545273	-0.445641	0.171879
C91	C	-0.963294	-0.945614	-0.328104
C92	C	-0.463294	-0.445614	0.171896
C93	C	-0.922307	-0.905507	-0.378254
C94	C	-0.422307	-0.405507	0.121746
C95	C	-0.173514	-0.905527	-0.378267
C96	C	0.326486	-0.405527	0.121733
C97	C	-0.086265	-0.905561	-0.378288
C98	C	0.413735	-0.405561	0.121712
C99	C	-0.378201	-0.905488	-0.582963
C100	C	0.121799	-0.405488	-0.082963
C101	C	-0.378176	-0.905504	-0.670212
C102	C	0.121824	-0.405504	-0.170212
C103	C	-0.378286	-0.068873	-0.378238
C104	C	0.121714	0.431127	0.121762
C105	C	-0.378274	-0.138514	-0.378231
C106	C	0.121726	0.361486	0.121769
C107	C	-0.327975	-0.945598	-0.711222
C108	C	0.172025	-0.445598	-0.211222
C109	C	-0.327949	-0.945605	-0.793203
C110	C	0.172051	-0.445605	-0.293203
C111	C	-0.378129	-0.905521	-0.834172
C112	C	0.121871	-0.405521	-0.334172
C113	C	-0.428332	-0.865423	-0.793156
C114	C	0.071668	-0.365423	-0.293156
C115	C	-0.428353	-0.865413	-0.711177
C116	C	0.071647	-0.365413	-0.211177
C117	C	-0.428284	-0.865448	-0.964027
C118	C	0.071716	-0.365448	-0.464027
C119	C	-0.428264	-0.865459	-1.046011
C120	C	0.071736	-0.365459	-0.546011
C121	C	-0.327880	-0.945641	-1.046052
C122	C	0.172120	-0.445641	-0.546052
C123	C	-0.327902	-0.945630	-0.964073
C124	C	0.172098	-0.445630	-0.464073
C125	C	-0.378106	-0.905533	-0.923063
C126	C	0.121894	-0.405533	-0.423063
C127	C	-0.378260	-0.905448	-0.174270
C128	C	0.121740	-0.405448	0.325730
C129	C	-0.378063	-0.905553	-0.087021
C130	C	0.121937	-0.405553	0.412979
H131	H	-0.287261	-0.666985	-0.469441
H132	H	0.212739	-0.166985	0.030559
H133	H	-0.287116	-0.978240	-0.677871
H134	H	0.212884	-0.478240	-0.177871
H135	H	-0.469123	-0.832818	-1.079366
H136	H	0.030877	-0.332818	-0.579366
H137	H	-0.367161	-0.465168	-0.506541
H138	H	0.132839	0.034832	-0.006541
H139	H	-0.287072	-0.978255	-0.826589
H140	H	0.212928	-0.478255	-0.326589
H141	H	-0.677074	-0.978159	-0.287203
H142	H	-0.177074	-0.478159	0.212797
C143	C	-0.273628	-0.539512	-0.483181
C144	C	0.226372	-0.039512	0.016819
C145	C	-0.229733	-0.582192	-0.527237
C146	C	0.270267	-0.082192	-0.027237
C147	C	-0.179564	-0.549623	-0.577636
C148	C	0.320436	-0.049623	-0.077636
H149	H	-0.239319	-0.513980	-0.453305
H150	H	0.260681	-0.013980	0.046695
H151	H	-0.303686	-0.514006	-0.517371
H152	H	0.196314	-0.014006	-0.017371
H153	H	-0.199677	-0.607687	-0.493051
H154	H	0.300323	-0.107687	0.006949
H155	H	-0.264021	-0.607726	-0.557128
H156	H	0.235979	-0.107726	-0.057128
H157	H	-0.209622	-0.524117	-0.611827
H158	H	0.290378	-0.024117	-0.111827
H159	H	-0.145260	-0.524092	-0.547755
H160	H	0.354740	-0.024092	-0.047755
H161	H	-0.149780	-0.578576	-0.607540
H162	H	0.350220	-0.078576	-0.107540
C163	C	-0.482960	-0.135622	-0.273477
C164	C	0.017040	0.364378	0.226523
C165	C	-0.533342	-0.098072	-0.317840
C166	C	-0.033342	0.401928	0.182160
C167	C	-0.583601	-0.065292	-0.267693
C168	C	-0.083601	0.434708	0.232307
H169	H	-0.452985	-0.110039	-0.239312
H170	H	0.047015	0.389961	0.260688
H171	H	-0.512866	-0.164443	-0.243540
H172	H	-0.012866	0.335557	0.256460
H173	H	-0.503439	-0.069254	-0.347764
H174	H	-0.003439	0.430746	0.152236
H175	H	-0.563335	-0.123639	-0.352003
H176	H	-0.063335	0.376361	0.147997
H177	H	-0.613507	-0.094114	-0.237756
H178	H	-0.113507	0.405886	0.262244
H179	H	-0.553619	-0.039713	-0.233530
H180	H	-0.053619	0.460287	0.266470
H181	H	-0.617796	-0.039816	-0.297786
H182	H	-0.117796	0.460184	0.202214
H183	H	-0.367172	-0.346456	-0.506550
H184	H	0.132828	0.153544	-0.006550
C185	C	-0.836783	-0.989121	-0.273541
C186	C	-0.336783	-0.489121	0.226459
C187	C	-0.783338	-1.024198	-0.229590
C188	C	-0.283338	-0.524198	0.270410
C189	C	-0.824172	-1.064333	-0.179336
C190	C	-0.324172	-0.564333	0.320664
H191	H	-0.868719	-1.016476	-0.303517
H192	H	-0.368719	-0.516476	0.196483
H193	H	-0.868794	-0.965192	-0.239277
H194	H	-0.368794	-0.465192	0.260723
H195	H	-0.751341	-1.048125	-0.263849
H196	H	-0.251341	-0.548125	0.236151
H197	H	-0.751401	-0.996860	-0.199598
H198	H	-0.251401	-0.496860	0.300402
H199	H	-0.856183	-1.040404	-0.145073
H200	H	-0.356183	-0.540404	0.354927
H201	H	-0.856107	-1.091683	-0.209319
H202	H	-0.356107	-0.591683	0.290681
H203	H	-0.787917	-1.088133	-0.149504
H204	H	-0.287917	-0.588133	0.350496
C205	C	-0.482894	-0.821903	-0.919641
C206	C	0.017106	-0.321903	-0.419641
C207	C	-0.526858	-0.786820	-0.973064
C208	C	-0.026858	-0.286820	-0.473064
C209	C	-0.577187	-0.746714	-0.932205
C210	C	-0.077187	-0.246714	-0.432205
H211	H	-0.452972	-0.794550	-0.887650
H212	H	0.047028	-0.294550	-0.387650
H213	H	-0.517146	-0.845853	-0.887684
H214	H	-0.017146	-0.345853	-0.387684
H215	H	-0.492610	-0.762871	-1.005008
H216	H	0.007390	-0.262871	-0.505008
H217	H	-0.556796	-0.814156	-1.005057
H218	H	-0.056796	-0.314156	-0.505057
H219	H	-0.611440	-0.770665	-0.900248
H220	H	-0.111440	-0.270665	-0.400248
H221	H	-0.547260	-0.719366	-0.900215
H222	H	-0.047260	-0.219366	-0.400215
H223	H	-0.607028	-0.722910	-0.968446
H224	H	-0.107028	-0.222910	-0.468446
H225	H	-0.287299	-0.144642	-0.469462
H226	H	0.212701	0.355358	0.030538
C227	C	-0.482723	-0.675880	-0.273338
C228	C	0.017277	-0.175880	0.226662
C229	C	-0.471974	-0.740192	-0.284082
C230	C	0.028026	-0.240192	0.215918
C231	C	-0.522023	-0.773011	-0.233819
C232	C	-0.022023	-0.273011	0.266181
H233	H	-0.535511	-0.665225	-0.284686
H234	H	-0.035511	-0.165225	0.215314
H235	H	-0.471164	-0.665178	-0.220599
H236	H	0.028836	-0.165178	0.279401
H237	H	-0.483538	-0.750890	-0.336809
H238	H	0.016462	-0.250890	0.163191
H239	H	-0.419196	-0.750866	-0.272728
H240	H	0.080804	-0.250866	0.227272
H241	H	-0.510465	-0.762309	-0.181080
H242	H	-0.010465	-0.262309	0.318920
H243	H	-0.574808	-0.762351	-0.245171
H244	H	-0.074808	-0.262351	0.254829
H245	H	-0.514732	-0.816650	-0.241097
H246	H	-0.014732	-0.316650	0.258903
H247	H	-0.929919	-0.978245	-0.287255
H248	H	-0.429919	-0.478245	0.212745
H249	H	-1.078649	-0.978301	-0.287289
H250	H	-0.578649	-0.478301	0.212711
C251	C	-1.089643	-0.821926	-0.482989
C252	C	-0.589643	-0.321926	0.017011
C253	C	-1.036204	-0.786813	-0.526927
C254	C	-0.536204	-0.286813	-0.026927
C255	C	-1.077045	-0.746715	-0.577202
C256	C	-0.577045	-0.246715	-0.077202
H257	H	-1.121674	-0.794592	-0.453029
H258	H	-0.621674	-0.294592	0.046971
H259	H	-1.121559	-0.845883	-0.517260
H260	H	-0.621559	-0.345883	-0.017260
H261	H	-1.004302	-0.762858	-0.492660
H262	H	-0.504302	-0.262858	0.007340
H263	H	-1.004172	-0.814130	-0.556903
H264	H	-0.504172	-0.314130	-0.056903
H265	H	-1.108961	-0.770672	-0.611473
H266	H	-0.608961	-0.270672	-0.111473
H267	H	-1.109074	-0.719386	-0.547236
H268	H	-0.609074	-0.219386	-0.047236
H269	H	-1.040793	-0.722890	-0.607025
H270	H	-0.540793	-0.222890	-0.107025
C271	C	-0.273631	-0.272320	-0.482974
C272	C	0.226369	0.227680	0.017026
C273	C	-0.223278	-0.309889	-0.438605
C274	C	0.276722	0.190111	0.061395
C275	C	-0.173073	-0.342726	-0.488749
C276	C	0.326927	0.157274	0.011251
H277	H	-0.243695	-0.243551	-0.512942
H278	H	0.256305	0.256449	-0.012942
H279	H	-0.303672	-0.297891	-0.517112
H280	H	0.196328	0.202109	-0.017112
H281	H	-0.193240	-0.284321	-0.404482
H282	H	0.306760	0.215679	0.095518
H283	H	-0.253193	-0.338670	-0.408639
H284	H	0.246807	0.161330	0.091361
H285	H	-0.203114	-0.368296	-0.522886
H286	H	0.296886	0.131704	-0.022886
H287	H	-0.143142	-0.313952	-0.518714
H288	H	0.356858	0.186048	-0.018714
H289	H	-0.138908	-0.368225	-0.458652
H290	H	0.361092	0.131775	0.041348
H291	H	-0.469186	-0.832784	-0.826520
H292	H	0.030814	-0.332784	-0.326520
H293	H	-0.469206	-0.548187	-0.286967
H294	H	0.030794	-0.048187	0.213033
H295	H	-0.287046	-0.978274	-0.930718
H296	H	0.212954	-0.478274	-0.430718
H297	H	-0.469224	-0.832758	-0.677788
H298	H	0.030776	-0.332758	-0.177788
H299	H	-0.389310	-0.465073	-0.249869
H300	H	0.110690	0.034927	0.250131
H301	H	-0.929923	-0.832772	-0.469258
H302	H	-0.429923	-0.332772	0.030742
C303	C	-0.836784	-0.821835	-0.482938
C304	C	-0.336784	-0.321835	0.017062
C305	C	-0.783339	-0.786719	-0.526866
C306	C	-0.283339	-0.286719	-0.026866
C307	C	-0.824173	-0.746611	-0.577133
C308	C	-0.324173	-0.246611	-0.077133
H309	H	-0.868812	-0.794503	-0.452973
H310	H	-0.368812	-0.294503	0.047027
H311	H	-0.868701	-0.845784	-0.517216
H312	H	-0.368701	-0.345784	-0.017216
H313	H	-0.751435	-0.762771	-0.492592
H314	H	-0.251435	-0.262771	0.007408
H315	H	-0.751309	-0.814034	-0.556846
H316	H	-0.251309	-0.314034	-0.056846
H317	H	-0.856091	-0.770561	-0.611411
H318	H	-0.356091	-0.270561	-0.111411
H319	H	-0.856200	-0.719283	-0.547162
H320	H	-0.356200	-0.219283	-0.047162
H321	H	-0.787918	-0.722784	-0.606949
H322	H	-0.287918	-0.222784	-0.106949
C323	C	-0.665896	-0.821906	-0.482911
C324	C	-0.165896	-0.321906	0.017089
C325	C	-0.618782	-0.857348	-0.533267
C326	C	-0.118782	-0.357348	-0.033267
C327	C	-0.577742	-0.817357	-0.583531
C328	C	-0.077742	-0.317357	-0.083531
H329	H	-0.633896	-0.794598	-0.452938
H330	H	-0.133896	-0.294598	0.047062
H331	H	-0.702022	-0.798050	-0.512835
H332	H	-0.202022	-0.298050	-0.012835
H333	H	-0.582660	-0.881194	-0.503346
H334	H	-0.082660	-0.381194	-0.003346
H335	H	-0.650763	-0.884655	-0.563258
H336	H	-0.150763	-0.384655	-0.063258
H337	H	-0.613868	-0.793501	-0.613455
H338	H	-0.113868	-0.293501	-0.113455
H339	H	-0.545746	-0.790050	-0.553551
H340	H	-0.045746	-0.290050	-0.053551
H341	H	-0.545776	-0.841399	-0.617709
H342	H	-0.045776	-0.341399	-0.117709
H343	H	-0.389328	-0.346368	-0.249875
H344	H	0.110672	0.153632	0.250125
H345	H	-0.469233	-0.263261	-0.286991
H346	H	0.030767	0.236739	0.213009
C347	C	-0.273389	-0.989098	-1.090714
C348	C	0.226611	-0.489098	-0.590714
C349	C	-0.284086	-0.980513	-1.171277
C350	C	0.215914	-0.480513	-0.671277
C351	C	-0.233897	-1.020527	-1.212447
C352	C	0.266103	-0.520527	-0.712447
H353	H	-0.284836	-1.031218	-1.077388
H354	H	0.215164	-0.531218	-0.577388
H355	H	-0.220635	-0.979937	-1.077328
H356	H	0.279365	-0.479937	-0.577328
H357	H	-0.336828	-0.989679	-1.184658
H358	H	0.163172	-0.489679	-0.684658
H359	H	-0.272634	-0.938402	-1.184626
H360	H	0.227366	-0.438402	-0.684626
H361	H	-0.181142	-1.011365	-1.199061
H362	H	0.318858	-0.511365	-0.699061
H363	H	-0.245347	-1.062644	-1.199115
H364	H	0.254653	-0.562644	-0.699115
H365	H	-0.241142	-1.014703	-1.267113
H366	H	0.258858	-0.514703	-0.767113
