data_functionalizedCrystal
_audit_creation_method	'MofGen! by Chris Wilmer'
_symmetry_space_group_name_H-M	'P1'
_symmetry_Int_Tables_number	1
_symmetry_cell_setting	triclinic
loop_
_symmetry_equiv_pos_as_xyz
  x,y,z
_cell_length_a	10.723023
_cell_length_b	9.198806
_cell_length_c	16.109304
_cell_angle_alpha	90.000373
_cell_angle_beta	96.034907
_cell_angle_gamma	89.995886
loop_
_atom_site_label
_atom_site_type_symbol
_atom_site_fract_x
_atom_site_fract_y
_atom_site_fract_z
O1	O	-1.655644	0.120889	0.116604
O2	O	-1.155644	0.620889	0.616604
O3	O	-1.292344	0.120889	0.127766
O4	O	-0.792344	0.620889	0.627766
O5	O	-1.483973	0.120890	0.001213
O6	O	-0.983973	0.620890	0.501213
O7	O	-1.464016	0.120888	0.243157
O8	O	-0.964016	0.620888	0.743157
O9	O	-1.483958	-0.120895	0.001213
O10	O	-0.983958	0.379105	0.501213
O11	O	-1.292329	-0.120896	0.127766
O12	O	-0.792329	0.379104	0.627766
O13	O	-1.655629	-0.120896	0.116604
O14	O	-1.155629	0.379104	0.616604
Cu15	Cu	-1.473978	-0.142973	0.122185
Cu16	Cu	-0.973978	0.357027	0.622185
Cu17	Cu	-1.473996	0.142966	0.122185
Cu18	Cu	-0.973996	0.642966	0.622185
O19	O	-1.464001	-0.120897	0.243157
O20	O	-0.964001	0.379103	0.743157
C21	C	-1.245848	-0.000003	0.126954
C22	C	-0.745848	0.499997	0.626954
C23	C	-1.107326	-0.000002	0.124524
C24	C	-0.607326	0.499998	0.624524
C25	C	-0.902413	0.125247	0.120930
C26	C	-0.402413	0.625247	0.620930
C27	C	-1.045583	0.125249	0.123441
C28	C	-0.545583	0.625249	0.623441
N29	N	-1.473974	-0.344087	0.122184
N30	N	-0.973974	0.155913	0.622184
C31	C	-1.554437	-0.416284	0.068814
C32	C	-1.054437	0.083716	0.568814
C33	C	-1.554456	-0.583696	0.068811
C34	C	-1.054456	-0.083696	0.568811
C35	C	-0.702126	-0.000004	0.117416
C36	C	-0.202126	0.499996	0.617416
C37	C	-0.840648	-0.000005	0.119846
C38	C	-0.340648	0.499995	0.619846
C39	C	-1.483156	0.000001	-0.029767
C40	C	-0.983156	0.500001	0.470233
C41	C	-1.480731	0.000010	-0.122076
C42	C	-0.980731	0.500010	0.377924
N43	N	-1.474009	0.344080	0.122179
N44	N	-0.974009	0.844080	0.622179
C45	C	-1.475135	0.131802	-0.334446
C46	C	-0.975135	0.631802	0.165554
C47	C	-1.472845	0.131801	-0.421180
C48	C	-0.972845	0.631801	0.078820
C49	C	-1.472835	-0.131807	-0.421177
C50	C	-0.972835	0.368193	0.078823
C51	C	-1.475116	-0.131804	-0.334445
C52	C	-0.975116	0.368196	0.165555
C53	C	-1.476273	0.000005	-0.291082
C54	C	-0.976273	0.500005	0.208918
C55	C	-1.471701	0.000001	-0.464548
C56	C	-0.971701	0.500001	0.035452
C57	C	-1.469217	-0.000002	-0.558589
C58	C	-0.969217	0.499998	-0.058589
C59	C	-1.478754	0.000008	-0.197035
C60	C	-0.978754	0.500008	0.302965
C61	C	-1.464817	-0.000004	0.274137
C62	C	-0.964817	0.499996	0.774137
C63	C	-1.467243	-0.000005	0.366446
C64	C	-0.967243	0.499995	0.866446
H65	H	-0.849302	0.232478	0.119993
H66	H	-0.349302	0.732478	0.619993
H67	H	-1.471895	-0.239120	-0.456494
H68	H	-0.971895	0.260880	0.043506
F69	F	-1.471632	0.272078	-0.467328
F70	F	-0.971632	0.772078	0.032672
H71	H	-0.893762	-0.107235	0.120774
H72	H	-0.393762	0.392765	0.620774
H73	H	-1.623306	-0.354157	0.023120
H74	H	-1.123306	0.145843	0.523120
H75	H	-1.476035	-0.239135	-0.299136
H76	H	-0.976035	0.260865	0.200864
H77	H	-1.405123	-0.593843	0.167878
H78	H	-0.905123	-0.093843	0.667878
H79	H	-1.054216	-0.107240	0.123597
H80	H	-0.554216	0.392760	0.623597
F81	F	-1.383944	-0.425287	0.181903
F82	F	-0.883944	0.074713	0.681903
F83	F	-1.476362	0.272084	-0.288299
F84	F	-0.976362	0.772084	0.211701
F85	F	-1.115005	0.265415	0.124665
F86	F	-0.615005	0.765415	0.624665
H87	H	-1.623348	-0.645782	0.023121
H88	H	-1.123348	-0.145782	0.523121
