data_functionalizedCrystal
_audit_creation_method	'MofGen! by Chris Wilmer'
_symmetry_space_group_name_H-M	'P1'
_symmetry_Int_Tables_number	1
_symmetry_cell_setting	triclinic
loop_
_symmetry_equiv_pos_as_xyz
  x,y,z
_cell_length_a	19.902436
_cell_length_b	14.560438
_cell_length_c	14.560438
_cell_angle_alpha	90.001361
_cell_angle_beta	60.004023
_cell_angle_gamma	59.995383
loop_
_atom_site_label
_atom_site_type_symbol
_atom_site_fract_x
_atom_site_fract_y
_atom_site_fract_z
Zr1	Zr	0.735495	-0.120607	0.884775
O2	O	0.875671	-0.267274	0.738134
O3	O	0.595316	-0.075633	0.929725
O4	O	0.735494	-0.267253	0.929731
O5	O	0.735495	0.075484	0.738127
O6	O	0.735495	-0.267250	1.080869
O7	O	0.735494	-0.075655	0.738128
O8	O	0.484743	0.075522	1.080859
O9	O	0.986248	-0.267289	0.738137
O10	O	0.652976	-0.056466	1.061692
O11	O	0.652976	0.056325	0.948898
O12	O	0.818017	-0.169282	0.948905
O13	O	0.818017	-0.056491	0.836111
Zr14	Zr	0.735501	0.120445	1.125821
Zr15	Zr	0.735498	-0.120603	1.125823
Zr16	Zr	0.735498	0.120441	0.884773
Zr17	Zr	0.911852	-0.120631	0.884780
Zr18	Zr	0.559144	0.120468	1.125816
O19	O	0.875680	0.075471	1.080870
O20	O	0.875676	-0.267269	1.080873
O21	O	0.875676	0.075465	0.738131
O22	O	0.595324	0.267112	1.272461
O23	O	0.595320	-0.075627	1.272465
O24	O	0.595320	0.267106	0.929722
O25	O	0.735500	-0.075646	1.272469
O26	O	0.735502	0.267090	1.080864
O27	O	0.735500	0.267088	0.929726
O28	O	0.735502	0.075492	1.272467
O29	O	0.986250	-0.267286	0.929738
O30	O	0.484746	0.267123	1.080857
O31	O	0.484748	0.267126	1.272458
O32	O	0.484746	0.075525	1.272460
O33	O	0.986250	-0.075688	0.738135
O34	O	0.986253	-0.075685	0.929737
O35	O	0.652979	0.169120	1.061690
O36	O	0.652979	0.056329	1.174484
O37	O	0.818020	-0.056488	1.061697
O38	O	0.818020	0.056303	0.948903
C39	C	0.514902	-0.000052	1.005291
C40	C	0.440034	-0.000042	1.005289
C41	C	0.735494	-0.000086	0.703783
C42	C	0.735493	-0.000088	0.601452
C43	C	0.735502	0.301433	1.005295
C44	C	0.735503	0.403764	1.005294
C45	C	0.168024	-0.000095	1.005300
C46	C	0.196263	0.071400	0.934492
C47	C	0.274381	0.071106	0.934108
C48	C	0.302971	-0.000068	1.005295
C49	C	0.338533	-0.122641	0.953405
C50	C	0.260695	-0.122264	0.952872
C51	C	0.133511	0.050000	1.128034
C52	C	0.210564	0.052496	1.127855
C53	C	0.379240	-0.000059	1.005293
C54	C	0.091760	-0.000111	1.005299
C55	C	0.956093	-0.000110	1.005304
C56	C	1.030961	-0.000120	1.005306
C57	C	0.735494	-0.301596	1.005301
C58	C	0.735493	-0.403927	1.005302
C59	C	0.821651	0.392954	0.946426
C60	C	0.821647	0.489109	0.946426
C61	C	0.649338	0.606882	1.064172
C62	C	0.649344	0.510728	1.064164
C63	C	0.921132	0.324959	0.878450
C64	C	0.921128	0.421114	0.878450
C65	C	0.649345	0.058801	0.612247
C66	C	0.649349	0.058811	0.516092
C67	C	0.821658	-0.058965	0.398350
C68	C	0.821652	-0.058968	0.494504
C69	C	0.549864	0.126794	0.680224
C70	C	0.549868	0.126805	0.584069
C71	C	0.735502	-0.000076	1.306812
C72	C	0.735503	-0.000075	1.409143
C73	C	0.514906	-0.000047	1.306806
C74	C	0.440039	-0.000036	1.409135
C75	C	0.514906	0.301462	1.005289
C76	C	0.440039	0.403803	1.005285
C77	C	0.514910	0.301467	1.306803
C78	C	0.440045	0.403810	1.409131
C79	C	0.956086	-0.301630	0.703793
C80	C	1.030951	-0.403972	0.601464
C81	C	0.956089	-0.000115	0.703790
C82	C	1.030956	-0.000127	0.601461
C83	C	0.956089	-0.301625	1.005307
C84	C	1.030956	-0.403966	1.005310
C85	C	0.404880	-0.058918	1.398314
C86	C	0.334544	-0.058930	1.494453
C87	C	0.299365	-0.000052	1.601413
C88	C	0.334532	0.058832	1.612232
C89	C	0.404871	0.058837	1.516094
C90	C	0.404883	0.510752	1.064160
C91	C	0.334547	0.606921	1.064153
C92	C	0.299365	0.596140	1.005277
C93	C	0.334529	0.489181	0.946395
C94	C	0.404868	0.393014	0.946396
C95	C	0.404887	0.392996	1.516073
C96	C	0.334553	0.489148	1.612230
C97	C	0.299372	0.596114	1.601443
C98	C	0.334537	0.606927	1.494490
C99	C	0.404875	0.510775	1.398335
C100	C	1.066117	-0.393158	0.494523
C101	C	1.136473	-0.489311	0.398365
C102	C	1.171657	-0.596277	0.409152
C103	C	1.136488	-0.607089	0.516105
C104	C	1.066138	-0.510937	0.612260
C105	C	1.066123	0.058745	0.612282
C106	C	1.136478	0.058731	0.516142
C107	C	1.171660	-0.000151	0.409182
C108	C	1.136490	-0.059030	0.398363
C109	C	1.066141	-0.059021	0.494502
C110	C	1.066116	-0.393149	1.064197
C111	C	1.136452	-0.489300	1.064222
C112	C	1.171632	-0.596267	1.005353
C113	C	1.136465	-0.607082	0.946463
C114	C	1.066125	-0.510932	0.946446
H115	H	0.247737	0.161364	0.968915
H116	H	1.037484	0.106701	0.699366
C117	C	0.295876	0.477229	1.729867
N118	N	0.266744	0.468249	1.818469
H119	H	0.305883	0.694031	1.485724
H120	H	0.433520	0.305907	1.524877
H121	H	0.433483	0.305935	0.898457
C122	C	0.554574	0.522627	1.128906
N123	N	0.483190	0.531592	1.177670
C124	C	0.221983	-0.000059	1.707159
N125	N	0.163695	-0.000064	1.786802
C126	C	1.175145	-0.477392	0.280728
N127	N	1.204270	-0.468411	0.192126
C128	C	0.221981	0.701939	1.005299
N129	N	0.163690	0.781630	1.005325
H130	H	1.165119	-0.694188	0.898533
C131	C	1.027470	-0.522850	0.881643
N132	N	0.998360	-0.531835	0.832828
H133	H	0.305873	0.480419	0.898460
C134	C	1.249037	-0.702036	0.303367
N135	N	1.307316	-0.781690	0.223686
C136	C	0.429060	-0.177201	0.832567
N137	N	0.497246	-0.218294	0.741553
H138	H	0.242099	0.674398	1.679748
C139	C	0.361474	0.024155	0.811806
N140	N	0.427076	-0.011217	0.719682
H141	H	0.433522	-0.106877	1.311230
H142	H	0.131758	0.161886	0.969114
H143	H	0.433491	0.519596	1.311262
H144	H	0.511731	0.216818	0.732380
C145	C	0.972715	0.421112	0.929560
N146	N	1.011567	0.421112	0.968058
C147	C	0.300583	-0.176382	0.830853
N148	N	0.330624	-0.217124	0.738943
C149	C	0.972728	0.254440	0.756830
N150	N	1.011586	0.201328	0.665228
H151	H	0.222221	0.036961	0.844494
H152	H	1.037506	-0.519756	0.699334
H153	H	1.165144	-0.694192	0.524875
H154	H	0.433489	0.106792	1.524920
C155	C	0.498438	0.075513	0.583946
N156	N	0.459761	0.036807	0.583812
C157	C	1.175145	0.123515	0.528068
N158	N	1.204264	0.172314	0.537055
H159	H	0.305878	0.106768	1.699332
C160	C	1.249009	-0.702025	1.005381
N161	N	1.307292	-0.781678	1.005404
H162	H	1.228943	-0.000149	0.330909
H163	H	1.165146	-0.106970	0.311263
H164	H	1.037510	-0.106959	0.485675
H165	H	1.037484	-0.306059	1.112136
C166	C	0.295865	-0.123697	1.482527
N167	N	0.266732	-0.172478	1.473541
C168	C	0.962842	0.432894	0.760848
N169	N	0.994261	0.441768	0.672271
H170	H	0.359426	-0.178216	1.002502
C171	C	0.239146	-0.198135	1.018048
N172	N	0.222919	-0.255282	1.067136
C173	C	0.295871	0.724566	1.128943
N174	N	0.266740	0.813173	1.177746
C175	C	1.027434	-0.275504	0.482630
N176	N	0.998308	-0.186889	0.473662
H177	H	0.433520	0.519551	1.112104
H178	H	1.165078	-0.480472	1.112175
H179	H	0.065466	0.138873	1.171388
H180	H	0.226170	0.005837	1.185057
C181	C	0.171758	0.174470	1.180248
N182	N	0.142545	0.266335	1.219716
C183	C	0.554568	0.724547	1.129034
N184	N	0.483185	0.813172	1.177931
C185	C	0.108032	-0.020010	1.199643
N186	N	0.088841	-0.072746	1.253571
C187	C	0.962799	0.256185	0.939091
N188	N	0.994168	0.204393	0.984782
C189	C	0.508159	0.066201	0.749009
N190	N	0.476747	0.020561	0.800819
H191	H	0.891802	-0.106917	0.485706
H192	H	0.891806	-0.106904	0.311264
H193	H	0.518996	0.213865	0.575351
