data_functionalizedCrystal
_audit_creation_method	'MofGen! by Chris Wilmer'
_symmetry_space_group_name_H-M	'P1'
_symmetry_Int_Tables_number	1
_symmetry_cell_setting	triclinic
loop_
_symmetry_equiv_pos_as_xyz
  x,y,z
_cell_length_a	25.639243
_cell_length_b	25.639240
_cell_length_c	25.639234
_cell_angle_alpha	89.967912
_cell_angle_beta	89.976852
_cell_angle_gamma	90.035481
loop_
_atom_site_label
_atom_site_type_symbol
_atom_site_fract_x
_atom_site_fract_y
_atom_site_fract_z
Zn1	Zn	0.799284	-0.208145	-0.295630
Zn2	Zn	1.299284	0.291855	0.204370
Zn3	Zn	0.799205	-0.295573	-0.208183
Zn4	Zn	1.299205	0.204427	0.291817
Zn5	Zn	0.711849	-0.208157	-0.208203
Zn6	Zn	1.211849	0.291843	0.291797
Zn7	Zn	0.711814	-0.295555	-0.295582
Zn8	Zn	1.211814	0.204445	0.204418
O9	O	0.755538	-0.251857	-0.251900
O10	O	1.255538	0.248143	0.248100
O11	O	0.872438	-0.219744	-0.284041
O12	O	1.372438	0.280256	0.215959
O13	O	0.787599	-0.283990	-0.135020
O14	O	1.287599	0.216010	0.364980
O15	O	0.723495	-0.134990	-0.219829
O16	O	1.223495	0.365010	0.280171
O17	O	0.872381	-0.283977	-0.219794
O18	O	1.372381	0.216023	0.280206
O19	O	0.787733	-0.134981	-0.284061
O20	O	1.287733	0.365019	0.215939
O21	O	0.723419	-0.219766	-0.135035
O22	O	1.223419	0.280234	0.364965
O23	O	0.638679	-0.219749	-0.219783
O24	O	1.138679	0.280251	0.280217
O25	O	0.723435	-0.283947	-0.368754
O26	O	1.223435	0.216053	0.131246
O27	O	0.638654	-0.283959	-0.283980
O28	O	1.138654	0.216041	0.216020
O29	O	0.787699	-0.219727	-0.368789
O30	O	1.287699	0.280273	0.131211
O31	O	0.787565	-0.368736	-0.219749
O32	O	1.287565	0.131264	0.280251
O33	O	0.723359	-0.368723	-0.283960
O34	O	1.223359	0.131277	0.216040
C35	C	0.619695	-0.251854	-0.251879
C36	C	1.119695	0.248146	0.248121
C37	C	0.561581	-0.251865	-0.251882
C38	C	1.061581	0.248135	0.248118
C39	C	0.201243	-0.218464	-0.285409
C40	C	0.701243	0.281536	0.214591
C41	C	0.146638	-0.218463	-0.285412
C42	C	0.646638	0.281537	0.214588
O43	O	0.118423	-0.190055	-0.313891
O44	O	0.618423	0.309945	0.186109
N45	N	0.119299	-0.251856	-0.251914
N46	N	0.619299	0.248144	0.248086
C47	C	0.146567	-0.285247	-0.218407
C48	C	0.646567	0.214753	0.281593
O49	O	0.118298	-0.313650	-0.189914
O50	O	0.618298	0.186350	0.310086
C51	C	0.201170	-0.285245	-0.218401
C52	C	0.701170	0.214755	0.281599
C53	C	0.228507	-0.251854	-0.251905
C54	C	0.728507	0.248146	0.248095
C55	C	0.228580	-0.185075	-0.318909
C56	C	0.728580	0.314925	0.181091
C57	C	0.283180	-0.185076	-0.318907
C58	C	0.783180	0.314924	0.181093
C59	C	0.310444	-0.218466	-0.285403
C60	C	0.810444	0.281534	0.214597
C61	C	0.283107	-0.251855	-0.251903
C62	C	0.783107	0.248145	0.248097
C63	C	0.228437	-0.318633	-0.184892
C64	C	0.728437	0.181367	0.315108
C65	C	0.283044	-0.318627	-0.184889
C66	C	0.783044	0.181373	0.315111
C67	C	0.310380	-0.285236	-0.218393
C68	C	0.810380	0.214764	0.281607
C69	C	0.364971	-0.285246	-0.218396
C70	C	0.864971	0.214754	0.281604
N71	N	0.392311	-0.251854	-0.251894
N72	N	0.892311	0.248146	0.248106
C73	C	0.365047	-0.218464	-0.285398
C74	C	0.865047	0.281536	0.214602
C75	C	0.031896	-0.285250	-0.218420
C76	C	0.531896	0.214750	0.281580
C77	C	-0.022706	-0.285255	-0.218428
C78	C	0.477294	0.214745	0.281572
C79	C	-0.022631	-0.218470	-0.285432
C80	C	0.477369	0.281530	0.214568
C81	C	0.031973	-0.218468	-0.285427
C82	C	0.531973	0.281532	0.214573
C83	C	0.059235	-0.251857	-0.251918
C84	C	0.559235	0.248143	0.248082
C85	C	0.479712	-0.218469	-0.285390
C86	C	0.979712	0.281531	0.214610
C87	C	0.534318	-0.218475	-0.285386
C88	C	1.034318	0.281525	0.214614
C89	C	0.534237	-0.285258	-0.218380
C90	C	1.034237	0.214742	0.281620
C91	C	0.479637	-0.285254	-0.218386
C92	C	0.979637	0.214746	0.281614
C93	C	0.452375	-0.251856	-0.251892
C94	C	0.952375	0.248144	0.248108
O95	O	0.393222	-0.313639	-0.189930
O96	O	0.893222	0.186361	0.310070
O97	O	0.393322	-0.190061	-0.313881
O98	O	0.893322	0.309939	0.186119
C99	C	0.755464	-0.387700	-0.251859
C100	C	1.255464	0.112300	0.248141
C101	C	0.755480	-0.445814	-0.251859
C102	C	1.255480	0.054186	0.248141
C103	C	0.789003	-0.806134	-0.285405
C104	C	1.289003	-0.306134	0.214595
C105	C	0.789019	-0.860738	-0.285416
C106	C	1.289019	-0.360738	0.214584
O107	O	0.817433	-0.888938	-0.313897
O108	O	1.317433	-0.388938	0.186103
N109	N	0.755611	-0.888096	-0.251950
N110	N	1.255611	-0.388096	0.248050
C111	C	0.722181	-0.860848	-0.218475
C112	C	1.222181	-0.360848	0.281525
O113	O	0.693766	-0.889132	-0.190011
O114	O	1.193766	-0.389132	0.309989
C115	C	0.722163	-0.806244	-0.218468
C116	C	1.222163	-0.306244	0.281532
C117	C	0.755578	-0.778889	-0.251932
C118	C	1.255578	-0.278889	0.248068
C119	C	0.822414	-0.778778	-0.318868
C120	C	1.322414	-0.278778	0.181132
C121	C	0.822399	-0.724178	-0.318856
C122	C	1.322399	-0.224178	0.181144
C123	C	0.788974	-0.696933	-0.285383
C124	C	1.288974	-0.196933	0.214617
C125	C	0.755563	-0.724288	-0.251920
C126	C	1.255563	-0.224288	0.248080
C127	C	0.688732	-0.778997	-0.184996
C128	C	1.188732	-0.278997	0.315004
C129	C	0.688717	-0.724390	-0.184991
C130	C	1.188717	-0.224390	0.315009
C131	C	0.722131	-0.697034	-0.218455
C132	C	1.222131	-0.197034	0.281545
C133	C	0.722122	-0.642443	-0.218435
C134	C	1.222122	-0.142443	0.281565
N135	N	0.755530	-0.615084	-0.251901
N136	N	1.255530	-0.115084	0.248099
C137	C	0.788956	-0.642329	-0.285375
C138	C	1.288956	-0.142329	0.214625
C139	C	0.722220	-0.975518	-0.218494
C140	C	1.222220	-0.475518	0.281506
C141	C	0.722240	-1.030121	-0.218499
C142	C	1.222240	-0.530121	0.281501
C143	C	0.789077	-1.030007	-0.285441
C144	C	1.289077	-0.530007	0.214559
C145	C	0.789059	-0.975404	-0.285433
C146	C	1.289059	-0.475404	0.214567
C147	C	0.755628	-0.948160	-0.251960
C148	C	1.255628	-0.448160	0.248040
C149	C	0.788922	-0.527664	-0.285348
C150	C	1.288922	-0.027664	0.214652
C151	C	0.788906	-0.473059	-0.285332
C152	C	1.288906	0.026941	0.214668
C153	C	0.722067	-0.473177	-0.218393
C154	C	1.222067	0.026823	0.281607
C155	C	0.722085	-0.527778	-0.218406
C156	C	1.222085	-0.027778	0.281594
C157	C	0.755515	-0.555020	-0.251888
C158	C	1.255515	-0.055020	0.248112
O159	O	0.693720	-0.614208	-0.189971
O160	O	1.193720	-0.114208	0.310029
O161	O	0.817361	-0.614038	-0.313839
O162	O	1.317361	-0.114038	0.186161
C163	C	0.891911	-0.251861	-0.251921
C164	C	1.391911	0.248139	0.248079
C165	C	0.950025	-0.251863	-0.251930
C166	C	1.450025	0.248137	0.248070
C167	C	0.755572	-0.251834	-0.388273
C168	C	1.255572	0.248166	0.111727
C169	C	0.755587	-0.251823	-0.446387
C170	C	1.255587	0.248177	0.053613
C171	C	0.755626	-0.115484	-0.251952
C172	C	1.255626	0.384516	0.248048
C173	C	0.755664	-0.057370	-0.251975
C174	C	1.255664	0.442630	0.248025
C175	C	0.722183	-0.218320	-0.806763
C176	C	1.222183	0.281680	-0.306763
C177	C	0.722185	-0.218310	-0.861367
C178	C	1.222185	0.281690	-0.361367
O179	O	0.693758	-0.189882	-0.889615
O180	O	1.193758	0.310118	-0.389615
N181	N	0.755604	-0.251741	-0.888669
N182	N	1.255604	0.248259	-0.388669
C183	C	0.789018	-0.285188	-0.861364
C184	C	1.289018	0.214812	-0.361364
O185	O	0.817443	-0.313623	-0.889601
O186	O	1.317443	0.186377	-0.389601
C187	C	0.789012	-0.285200	-0.806761
C188	C	1.289012	0.214800	-0.306761
C189	C	0.755595	-0.251763	-0.779462
C190	C	1.255595	0.248237	-0.279462
C191	C	0.688768	-0.184886	-0.779464
C192	C	1.188768	0.315114	-0.279464
C193	C	0.688766	-0.184895	-0.724863
C194	C	1.188766	0.315105	-0.224863
C195	C	0.722179	-0.218338	-0.697562
C196	C	1.222179	0.281662	-0.197562
C197	C	0.755593	-0.251772	-0.724861
C198	C	1.255593	0.248228	-0.224861
C199	C	0.822423	-0.318648	-0.779457
C200	C	1.322423	0.181352	-0.279457
C201	C	0.822414	-0.318657	-0.724849
C202	C	1.322414	0.181343	-0.224849
C203	C	0.788997	-0.285220	-0.697550
C204	C	1.288997	0.214780	-0.197550
C205	C	0.789004	-0.285223	-0.642959
C206	C	1.289004	0.214777	-0.142959
N207	N	0.755585	-0.251792	-0.615657
N208	N	1.255585	0.248208	-0.115657
C209	C	0.722173	-0.218349	-0.642959
C210	C	1.222173	0.281651	-0.142959
C211	C	0.789027	-0.285161	-0.976035
C212	C	1.289027	0.214839	-0.476035
C213	C	0.789036	-0.285147	-1.030637
C214	C	1.289036	0.214853	-0.530637
C215	C	0.722202	-0.218270	-1.030637
C216	C	1.222202	0.281730	-0.530637
C217	C	0.722197	-0.218282	-0.976033
C218	C	1.222197	0.281718	-0.476033
C219	C	0.755609	-0.251730	-0.948733
C220	C	1.255609	0.248270	-0.448733
C221	C	0.722171	-0.218370	-0.528294
C222	C	1.222171	0.281630	-0.028294
C223	C	0.722174	-0.218381	-0.473688
C224	C	1.222174	0.281619	0.026312
C225	C	0.789005	-0.285259	-0.473693
C226	C	1.289005	0.214741	0.026307
C227	C	0.789005	-0.285247	-0.528294
C228	C	1.289005	0.214753	-0.028294
C229	C	0.755584	-0.251801	-0.555593
C230	C	1.255584	0.248199	-0.055593
O231	O	0.817415	-0.313639	-0.614676
O232	O	1.317415	0.186361	-0.114676
O233	O	0.693748	-0.189924	-0.614716
O234	O	1.193748	0.310076	-0.114716
C235	C	0.755534	-0.251843	-0.116057
C236	C	1.255534	0.248157	0.383943
C237	C	0.755621	-0.251706	-0.057943
C238	C	1.255621	0.248294	0.442057
H239	H	0.457378	-0.312450	-0.191110
H240	H	0.957378	0.187550	0.308890
O241	O	0.689651	-0.446731	-0.185806
O242	O	1.189651	0.053269	0.314194
C243	C	0.701091	-0.460105	-0.133706
C244	C	1.201091	0.039895	0.366294
H245	H	0.742865	-0.475079	-0.131099
H246	H	1.242865	0.024921	0.368901
H247	H	0.696586	-0.424216	-0.107870
H248	H	1.196586	0.075784	0.392130
H249	H	0.673074	-0.491834	-0.120020
H250	H	1.173074	0.008166	0.379980
O251	O	0.309584	-0.351090	-0.152412
O252	O	0.809584	0.148910	0.347588
C253	C	0.341150	-0.384912	-0.182110
C254	C	0.841150	0.115088	0.317890
H255	H	0.349363	-0.366528	-0.221769
H256	H	0.849363	0.133472	0.278231
H257	H	0.379532	-0.391891	-0.160797
H258	H	0.879532	0.108109	0.339203
H259	H	0.320083	-0.423665	-0.187780
H260	H	0.820083	0.076335	0.312220
H261	H	0.849606	-0.701908	-0.346107
H262	H	1.349606	-0.201908	0.153893
H263	H	0.305433	-0.157885	-0.346188
H264	H	0.805433	0.342115	0.153812
H265	H	0.661522	-0.801260	-0.157745
H266	H	1.161522	-0.301260	0.342255
H267	H	0.849633	-0.800955	-0.346129
H268	H	1.349633	-0.300955	0.153871
O269	O	0.689660	-0.185883	-0.447251
O270	O	1.189660	0.314117	0.052749
C271	C	0.660179	-0.156357	-0.483062
C272	C	1.160179	0.343643	0.016938
H273	H	0.658359	-0.177768	-0.521975
H274	H	1.158359	0.322232	-0.021975
H275	H	0.618986	-0.150782	-0.467275
H276	H	1.118986	0.349218	0.032725
H277	H	0.679351	-0.116648	-0.488892
H278	H	1.179351	0.383352	0.011108
O279	O	-0.049177	-0.186104	-0.318002
O280	O	0.450823	0.313896	0.181998
C281	C	-0.080755	-0.215919	-0.351723
C282	C	0.419245	0.284081	0.148277
H283	H	-0.088963	-0.255518	-0.333208
H284	H	0.411037	0.244482	0.166792
H285	H	-0.119138	-0.194635	-0.358770
H286	H	0.380862	0.305365	0.141230
H287	H	-0.059699	-0.221713	-0.390459
H288	H	0.440301	0.278287	0.109541
O289	O	0.689781	-0.185854	-0.554864
O290	O	1.189781	0.314146	-0.054864
C291	C	0.719570	-0.152069	-0.586462
C292	C	1.219570	0.347931	-0.086462
H293	H	0.759180	-0.170510	-0.594656
H294	H	1.259180	0.329490	-0.094656
H295	H	0.698277	-0.145049	-0.624851
H296	H	1.198277	0.354951	-0.124851
H297	H	0.725344	-0.113330	-0.565431
H298	H	1.225344	0.386670	-0.065431
H299	H	0.556573	-0.191283	-0.312670
H300	H	1.056573	0.308717	0.187330
H301	H	0.816118	-0.450788	-0.312583
H302	H	1.316118	0.049212	0.187417
H303	H	0.694986	-0.191054	-0.953810
H304	H	1.194986	0.308946	-0.453810
H305	H	0.661552	-0.157669	-0.702641
H306	H	1.161552	0.342331	-0.202641
H307	H	0.661491	-0.702210	-0.157734
H308	H	1.161491	-0.202210	0.342266
H309	H	0.694881	-0.550052	-0.191153
H310	H	1.194881	-0.050052	0.308847
H311	H	0.816268	-0.953134	-0.312683
H312	H	1.316268	-0.453134	0.187317
O313	O	0.656293	-0.152346	-0.805899
O314	O	1.156293	0.347654	-0.305899
C315	C	0.626794	-0.122854	-0.770084
C316	C	1.126794	0.377146	-0.270084
H317	H	0.648211	-0.121063	-0.731170
H318	H	1.148211	0.378937	-0.231170
H319	H	0.621247	-0.081653	-0.785864
H320	H	1.121247	0.418347	-0.285864
H321	H	0.587071	-0.141998	-0.764257
H322	H	1.087071	0.358002	-0.264257
O323	O	0.689681	-0.185863	-1.057184
O324	O	1.189681	0.314137	-0.557184
C325	C	0.655908	-0.215632	-1.088753
C326	C	1.155908	0.284368	-0.588753
H327	H	0.652658	-0.256813	-1.072277
H328	H	1.152658	0.243187	-0.572277
H329	H	0.615681	-0.196728	-1.089367
H330	H	1.115681	0.303272	-0.589367
H331	H	0.672076	-0.217427	-1.130140
H332	H	1.172076	0.282573	-0.630140
O333	O	0.821518	-0.317673	-1.057071
O334	O	1.321518	0.182327	-0.557071
C335	C	0.851016	-0.347179	-1.021259
C336	C	1.351016	0.152821	-0.521259
H337	H	0.829594	-0.348992	-0.982329
H338	H	1.329594	0.151008	-0.482329
H339	H	0.856569	-0.388373	-1.037017
H340	H	1.356569	0.111627	-0.537017
H341	H	0.890736	-0.328034	-1.015471
H342	H	1.390736	0.171966	-0.515471
O343	O	0.821595	-1.056397	-0.317978
O344	O	1.321595	-0.556397	0.182022
C345	C	0.851072	-1.020548	-0.347526
C346	C	1.351072	-0.520548	0.152474
H347	H	0.852889	-0.981637	-0.326109
H348	H	1.352889	-0.481637	0.173891
H349	H	0.892266	-1.036288	-0.353148
H350	H	1.392266	-0.536288	0.146852
H351	H	0.831900	-1.014731	-0.387215
H352	H	1.331900	-0.514731	0.112785
O353	O	0.821517	-0.317577	-0.949460
O354	O	1.321517	0.182423	-0.449460
C355	C	0.855314	-0.287819	-0.917907
C356	C	1.355314	0.212181	-0.417907
H357	H	0.836897	-0.248199	-0.909729
H358	H	1.336897	0.251801	-0.409729
H359	H	0.862309	-0.309127	-0.879507
H360	H	1.362309	0.190873	-0.379507
H361	H	0.894063	-0.282067	-0.938969
H362	H	1.394063	0.217933	-0.438969
H363	H	0.849635	-0.345877	-0.801674
H364	H	1.349635	0.154123	-0.301674
O365	O	0.202181	-0.152622	-0.351508
O366	O	0.702181	0.347378	0.148492
C367	C	0.238029	-0.123147	-0.381060
C368	C	0.738029	0.376853	0.118940
H369	H	0.276939	-0.144568	-0.382815
H370	H	0.776939	0.355432	0.117185
H371	H	0.222285	-0.117629	-0.422271
H372	H	0.722285	0.382371	0.077729
H373	H	0.243851	-0.083410	-0.361993
H374	H	0.743851	0.416590	0.138007
H375	H	0.816140	-0.549838	-0.312616
H376	H	1.316140	-0.049838	0.187384
H377	H	0.849626	-0.345892	-0.702624
H378	H	1.349626	0.154108	-0.202624
O379	O	0.689736	-1.056610	-0.185971
O380	O	1.189736	-0.556610	0.314029
C381	C	0.660244	-1.020847	-0.156416
C382	C	1.160244	-0.520847	0.343584
H383	H	0.658414	-0.981911	-0.177825
H384	H	1.158414	-0.481911	0.322175
H385	H	0.619055	-1.036661	-0.150800
H386	H	1.119055	-0.536661	0.349200
H387	H	0.679412	-1.015051	-0.116725
H388	H	1.179412	-0.515051	0.383275
O389	O	0.821486	-0.317772	-0.554735
O390	O	1.321486	0.182228	-0.054735
C391	C	0.850988	-0.347279	-0.518926
C392	C	1.350988	0.152721	-0.018926
H393	H	0.829571	-0.349092	-0.479993
H394	H	1.329571	0.150908	0.020007
H395	H	0.856539	-0.388472	-0.534685
H396	H	1.356539	0.111528	-0.034685
H397	H	0.890709	-0.328134	-0.513143
H398	H	1.390709	0.171866	-0.013143
O399	O	0.560808	-0.317641	-0.185852
O400	O	1.060808	0.182359	0.314148
C401	C	0.614863	-0.310484	-0.193045
C402	C	1.114863	0.189516	0.306955
H403	H	0.622347	-0.270160	-0.210252
H404	H	1.122347	0.229840	0.289748
H405	H	0.635597	-0.313969	-0.153874
H406	H	1.135597	0.186031	0.346126
H407	H	0.630354	-0.341537	-0.220823
H408	H	1.130354	0.158463	0.279177
O409	O	0.453317	-0.186013	-0.317990
O410	O	0.953317	0.313987	0.182010
C411	C	0.489163	-0.156539	-0.347546
C412	C	0.989163	0.343461	0.152454
H413	H	0.528072	-0.177961	-0.349304
H414	H	1.028072	0.322039	0.150696
H415	H	0.473416	-0.151021	-0.388755
H416	H	0.973416	0.348979	0.111245
H417	H	0.494987	-0.116802	-0.328479
H418	H	0.994987	0.383198	0.171521
H419	H	0.054227	-0.191277	-0.312708
H420	H	0.554227	0.308723	0.187292
O421	O	-0.049177	-0.317712	-0.185837
O422	O	0.450823	0.182288	0.314163
C423	C	-0.013398	-0.347191	-0.156279
C424	C	0.486602	0.152809	0.343721
H425	H	0.025537	-0.325770	-0.154511
H426	H	0.525537	0.174230	0.345489
H427	H	-0.029192	-0.352713	-0.115073
H428	H	0.470808	0.147287	0.384927
H429	H	-0.007605	-0.386925	-0.175349
H430	H	0.492395	0.113075	0.324651
O431	O	0.689821	-0.948998	-0.185945
O432	O	1.189821	-0.448998	0.314055
C433	C	0.719596	-0.917421	-0.152189
C434	C	1.219596	-0.417421	0.347811
H435	H	0.759204	-0.909184	-0.170668
H436	H	1.259204	-0.409184	0.329332
H437	H	0.698288	-0.879051	-0.145150
H438	H	1.198288	-0.379051	0.354850
H439	H	0.725373	-0.938491	-0.113455
H440	H	1.225373	-0.438491	0.386545
O441	O	0.821383	-0.317801	-0.447142
O442	O	1.321383	0.182199	0.052858
C443	C	0.791582	-0.351559	-0.415526
C444	C	1.291582	0.148441	0.084474
H445	H	0.750405	-0.354780	-0.431973
H446	H	1.250405	0.145220	0.068027
H447	H	0.810460	-0.391799	-0.414890
H448	H	1.310460	0.108201	0.085110
H449	H	0.789784	-0.335396	-0.374151
H450	H	1.289784	0.164604	0.125849
O451	O	0.058435	-0.317718	-0.185946
O452	O	0.558435	0.182282	0.314054
C453	C	0.090003	-0.351538	-0.215646
C454	C	0.590003	0.148462	0.284354
H455	H	0.098219	-0.333150	-0.255301
H456	H	0.598219	0.166850	0.244699
H457	H	0.128382	-0.358521	-0.194329
H458	H	0.628382	0.141479	0.305671
H459	H	0.068934	-0.390289	-0.221322
H460	H	0.568934	0.109711	0.278678
H461	H	0.206188	-0.345823	-0.157609
H462	H	0.706188	0.154177	0.342391
