data_functionalizedCrystal
_audit_creation_method	'MofGen! by Chris Wilmer'
_symmetry_space_group_name_H-M	'P1'
_symmetry_Int_Tables_number	1
_symmetry_cell_setting	triclinic
loop_
_symmetry_equiv_pos_as_xyz
  x,y,z
_cell_length_a	14.908571
_cell_length_b	16.959454
_cell_length_c	14.908308
_cell_angle_alpha	93.269679
_cell_angle_beta	90.175053
_cell_angle_gamma	86.716421
loop_
_atom_site_label
_atom_site_type_symbol
_atom_site_fract_x
_atom_site_fract_y
_atom_site_fract_z
Zn1	Zn	1.345297	-0.412496	-0.587603
Zn2	Zn	1.845297	0.087504	-0.087603
Zn3	Zn	1.353878	-0.537521	-0.437249
Zn4	Zn	1.853878	-0.037521	0.062751
Zn5	Zn	1.203612	-0.397314	-0.428600
Zn6	Zn	1.703612	0.102686	0.071400
Zn7	Zn	1.194906	-0.536582	-0.578901
Zn8	Zn	1.694906	-0.036582	-0.078901
O9	O	1.274423	-0.470978	-0.508088
O10	O	1.774423	0.029022	-0.008088
O11	O	1.472261	-0.435828	-0.574920
O12	O	1.972261	0.064172	-0.074920
O13	O	1.341180	-0.512961	-0.310277
O14	O	1.841180	-0.012961	0.189723
O15	O	1.222460	-0.288721	-0.449714
O16	O	1.722460	0.211279	0.050286
O17	O	1.478566	-0.527683	-0.464456
O18	O	1.978566	-0.027683	0.035544
O19	O	1.326555	-0.299875	-0.566532
O20	O	1.826555	0.200125	-0.066532
O21	O	1.230780	-0.409952	-0.303922
O22	O	1.730780	0.090048	0.196078
O23	O	1.076631	-0.409042	-0.441276
O24	O	1.576631	0.090958	0.058724
O25	O	1.207621	-0.526082	-0.705880
O26	O	1.707621	-0.026082	-0.205880
O27	O	1.070235	-0.511361	-0.551701
O28	O	1.570235	-0.011361	-0.051701
O29	O	1.318113	-0.434917	-0.712273
O30	O	1.818113	0.065083	-0.212273
O31	O	1.332737	-0.648003	-0.456018
O32	O	1.832737	-0.148003	0.043982
O33	O	1.215941	-0.647313	-0.560089
O34	O	1.715941	-0.147313	-0.060089
C35	C	1.040808	-0.458452	-0.494606
C36	C	1.540808	0.041548	0.005394
C37	C	0.940865	-0.453114	-0.488860
C38	C	1.440865	0.046886	0.011140
C39	C	0.746458	-0.549777	-0.592894
C40	C	1.246458	-0.049777	-0.092894
C41	C	0.652552	-0.544763	-0.587498
C42	C	1.152552	-0.044763	-0.087498
C43	C	0.659146	-0.438070	-0.472677
C44	C	1.159146	0.061930	0.027323
C45	C	0.753052	-0.443084	-0.478073
C46	C	1.253052	0.056916	0.021927
C47	C	0.796704	-0.498940	-0.538183
C48	C	1.296704	0.001060	-0.038183
C49	C	0.890612	-0.503956	-0.543574
C50	C	1.390612	-0.003956	-0.043574
C51	C	0.897204	-0.397260	-0.428758
C52	C	1.397204	0.102740	0.071242
C53	C	0.803298	-0.392247	-0.423362
C54	C	1.303298	0.107753	0.076638
C55	C	1.274349	-0.676340	-0.508068
C56	C	1.774349	-0.176340	-0.008068
C57	C	1.274398	-0.764200	-0.508095
C58	C	1.774398	-0.264200	-0.008095
C59	C	1.213691	-1.135352	-0.562276
C60	C	1.713691	-0.635352	-0.062276
C61	C	1.335401	-1.136020	-0.454006
C62	C	1.835401	-0.636020	0.045994
C63	C	1.335370	-1.053472	-0.453996
C64	C	1.835370	-0.553472	0.046004
C65	C	1.274498	-1.011860	-0.508126
C66	C	1.774498	-0.511860	-0.008126
C67	C	1.213657	-1.052796	-0.562266
C68	C	1.713657	-0.552796	-0.062266
C69	C	1.396203	-1.012529	-0.399850
C70	C	1.896203	-0.512529	0.100150
C71	C	1.396174	-0.929976	-0.399837
C72	C	1.896174	-0.429976	0.100163
C73	C	1.335306	-0.888363	-0.453972
C74	C	1.835306	-0.388363	0.046028
C75	C	1.274463	-0.929304	-0.508115
C76	C	1.774463	-0.429304	-0.008115
C77	C	1.213591	-0.887692	-0.562245
C78	C	1.713591	-0.387692	-0.062245
C79	C	1.152752	-0.928632	-0.616394
C80	C	1.652752	-0.428632	-0.116394
C81	C	1.152788	-1.011183	-0.616402
C82	C	1.652788	-0.511183	-0.116402
C83	C	1.335269	-0.805812	-0.453965
C84	C	1.835269	-0.305812	0.046035
C85	C	1.213557	-0.805136	-0.562235
C86	C	1.713557	-0.305136	-0.062235
C87	C	1.508951	-0.483554	-0.521623
C88	C	2.008951	0.016446	-0.021623
C89	C	1.608893	-0.488913	-0.527391
C90	C	2.108893	0.011087	-0.027391
C91	C	1.260938	-0.482089	-0.742614
C92	C	1.760938	0.017911	-0.242614
C93	C	1.255192	-0.486823	-0.842555
C94	C	1.755192	0.013177	-0.342555
C95	C	1.274521	-0.264817	-0.508129
C96	C	1.774521	0.235183	-0.008129
C97	C	1.274563	-0.176963	-0.508146
C98	C	1.774563	0.323037	-0.008146
C99	C	1.359446	-0.400771	-1.037013
C100	C	1.859446	0.099229	-0.537013
C101	C	1.354049	-0.405217	-1.130917
C102	C	1.854049	0.094783	-0.630917
C103	C	1.238998	-0.500156	-1.124267
C104	C	1.738998	-0.000156	-0.624267
C105	C	1.244395	-0.495710	-1.030364
C106	C	1.744395	0.004290	-0.530364
C107	C	1.304622	-0.446017	-0.986740
C108	C	1.804622	0.053983	-0.486740
C109	C	1.310022	-0.441576	-0.892835
C110	C	1.810022	0.058424	-0.392835
C111	C	1.194967	-0.536510	-0.886187
C112	C	1.694967	-0.036510	-0.386187
C113	C	1.189570	-0.540956	-0.980090
C114	C	1.689570	-0.040956	-0.480090
C115	C	1.287908	-0.459857	-0.274478
C116	C	1.787908	0.040143	0.225522
C117	C	1.293828	-0.454909	-0.174547
C118	C	1.793828	0.045091	0.325453
H119	H	0.767743	-0.346769	-0.374425
H120	H	1.267743	0.153231	0.125575
O121	O	0.793553	-0.610003	-0.657735
O122	O	1.293553	-0.110003	-0.157735
H123	H	0.838641	-0.650541	-0.619883
H124	H	1.338641	-0.150541	-0.119883
H125	H	0.623587	-0.392590	-0.423745
H126	H	1.123587	0.107410	0.076255
H127	H	0.938125	-0.355866	-0.384206
H128	H	1.438125	0.144134	0.115794
H129	H	0.611645	-0.586159	-0.632051
H130	H	1.111645	-0.086159	-0.132051
O131	O	0.937700	-0.564192	-0.608407
O132	O	1.437700	-0.064192	-0.108407
H133	H	0.886980	-0.598693	-0.645553
H134	H	1.386980	-0.098693	-0.145553
H135	H	1.398691	-0.368371	-1.171846
H136	H	1.898691	0.131629	-0.671846
H137	H	1.359063	-0.401114	-0.857318
H138	H	1.859063	0.098886	-0.357318
O139	O	1.147891	-0.760253	-0.620608
O140	O	1.647891	-0.260253	-0.120608
H141	H	1.105589	-0.802591	-0.658250
H142	H	1.605589	-0.302591	-0.158250
O143	O	1.087091	-0.883752	-0.674774
O144	O	1.587091	-0.383752	-0.174774
H145	H	1.124649	-0.850428	-0.722870
H146	H	1.624649	-0.350428	-0.222870
O147	O	1.424406	-0.347185	-0.989951
O148	O	1.924406	0.152815	-0.489951
H149	H	1.407979	-0.285175	-1.007084
H150	H	1.907979	0.214825	-0.507084
H151	H	1.103256	-1.044524	-0.660485
H152	H	1.603256	-0.544524	-0.160485
H153	H	1.189964	-0.540614	-1.159802
H154	H	1.689964	-0.040614	-0.659802
O155	O	1.148062	-1.179498	-0.620667
O156	O	1.648062	-0.679498	-0.120667
H157	H	1.158303	-1.243892	-0.611578
H158	H	1.658303	-0.743892	-0.111578
O159	O	1.461801	-0.885827	-0.341445
O160	O	1.961801	-0.385827	0.158555
H161	H	1.451552	-0.821433	-0.350529
H162	H	1.951552	-0.321433	0.149471
O163	O	1.124608	-0.594546	-1.027144
O164	O	1.624608	-0.094546	-0.527144
H165	H	1.162374	-0.638945	-1.072241
H166	H	1.662374	-0.138945	-0.572241
O167	O	1.401077	-1.180897	-0.395650
O168	O	1.901077	-0.680897	0.104350
H169	H	1.390891	-1.245179	-0.404765
H170	H	1.890891	-0.745179	0.095235
O171	O	1.461886	-1.057409	-0.341502
O172	O	1.961886	-0.557409	0.158498
H173	H	1.451706	-1.121691	-0.350629
H174	H	1.951706	-0.621691	0.149371
O175	O	1.400885	-0.761648	-0.395582
O176	O	1.900885	-0.261648	0.104418
H177	H	1.389595	-0.773345	-0.324112
H178	H	1.889595	-0.273345	0.175888
H179	H	1.150327	-0.573355	-0.845244
H180	H	1.650327	-0.073355	-0.345244
