data_functionalizedCrystal
_audit_creation_method	'MofGen! by Chris Wilmer'
_symmetry_space_group_name_H-M	'P1'
_symmetry_Int_Tables_number	1
_symmetry_cell_setting	triclinic
loop_
_symmetry_equiv_pos_as_xyz
  x,y,z
_cell_length_a	14.519709
_cell_length_b	14.519709
_cell_length_c	10.268362
_cell_angle_alpha	89.993769
_cell_angle_beta	90.001032
_cell_angle_gamma	83.680145
loop_
_atom_site_label
_atom_site_type_symbol
_atom_site_fract_x
_atom_site_fract_y
_atom_site_fract_z
O1	O	1.223868	0.120892	-0.108133
O2	O	1.473868	0.370892	0.141867
O3	O	1.723868	0.620892	0.391867
O4	O	1.973868	0.870892	0.641867
O5	O	0.955391	0.135128	-0.108174
O6	O	1.205391	0.385128	0.141826
O7	O	1.455391	0.635128	0.391826
O8	O	1.705391	0.885128	0.641826
O9	O	1.096747	-0.006228	-0.108141
O10	O	1.346747	0.243772	0.141859
O11	O	1.596747	0.493772	0.391859
O12	O	1.846747	0.743772	0.641859
O13	O	1.082511	0.262249	-0.108166
O14	O	1.332511	0.512249	0.141834
O15	O	1.582511	0.762249	0.391834
O16	O	1.832511	1.012249	0.641834
O17	O	1.096735	-0.006234	0.108460
O18	O	1.346735	0.243766	0.358460
O19	O	1.596735	0.493766	0.608460
O20	O	1.846735	0.743766	0.858460
O21	O	0.955378	0.135123	0.108427
O22	O	1.205378	0.385123	0.358427
O23	O	1.455378	0.635123	0.608427
O24	O	1.705378	0.885123	0.858427
O25	O	1.223855	0.120886	0.108467
O26	O	1.473855	0.370886	0.358467
O27	O	1.723855	0.620886	0.608467
O28	O	1.973855	0.870886	0.858467
Cu29	Cu	1.089616	0.128004	0.128224
Cu30	Cu	1.339616	0.378004	0.378224
Cu31	Cu	1.589616	0.628004	0.628224
Cu32	Cu	1.839616	0.878004	0.878224
Cu33	Cu	1.089630	0.128011	-0.127931
Cu34	Cu	1.339630	0.378011	0.122069
Cu35	Cu	1.589630	0.628011	0.372069
Cu36	Cu	1.839630	0.878011	0.622069
O37	O	1.082498	0.262243	0.108434
O38	O	1.332498	0.512243	0.358434
O39	O	1.582498	0.762243	0.608434
O40	O	1.832498	1.012243	0.858434
C41	C	0.921025	0.134462	0.000122
C42	C	1.171025	0.384462	0.250122
C43	C	1.421025	0.634462	0.500122
C44	C	1.671025	0.884462	0.750122
C45	C	0.818643	0.132474	0.000107
C46	C	1.068643	0.382474	0.250107
C47	C	1.318643	0.632474	0.500107
C48	C	1.568643	0.882474	0.750107
C49	C	0.443748	0.125154	0.000167
C50	C	0.693748	0.375154	0.250167
C51	C	0.943748	0.625154	0.500167
C52	C	1.193748	0.875154	0.750167
C53	C	0.548056	0.127187	0.000150
C54	C	0.798056	0.377187	0.250150
C55	C	1.048056	0.627187	0.500150
C56	C	1.298056	0.877187	0.750150
C57	C	0.631192	0.128814	0.000135
C58	C	0.881192	0.378814	0.250135
C59	C	1.131192	0.628814	0.500135
C60	C	1.381192	0.878814	0.750135
C61	C	0.735507	0.130847	0.000121
C62	C	0.985507	0.380847	0.250121
C63	C	1.235507	0.630847	0.500121
C64	C	1.485507	0.880847	0.750121
C65	C	1.096078	-0.040591	0.000160
C66	C	1.346078	0.209409	0.250160
C67	C	1.596078	0.459409	0.500160
C68	C	1.846078	0.709409	0.750160
C69	C	1.094090	-0.142972	0.000160
C70	C	1.344090	0.107028	0.250160
C71	C	1.594090	0.357028	0.500160
C72	C	1.844090	0.607028	0.750160
C73	C	1.086770	-0.517868	0.000125
C74	C	1.336770	-0.267868	0.250125
C75	C	1.586770	-0.017868	0.500125
C76	C	1.836770	0.232132	0.750125
C77	C	1.088803	-0.413560	0.000135
C78	C	1.338803	-0.163560	0.250135
C79	C	1.588803	0.086440	0.500135
C80	C	1.838803	0.336440	0.750135
C81	C	1.090430	-0.330423	0.000144
C82	C	1.340430	-0.080423	0.250144
C83	C	1.590430	0.169577	0.500144
C84	C	1.840430	0.419577	0.750144
C85	C	1.092463	-0.226109	0.000152
C86	C	1.342463	0.023891	0.250152
C87	C	1.592463	0.273891	0.500152
C88	C	1.842463	0.523891	0.750152
C89	C	1.258221	0.121553	0.000169
C90	C	1.508221	0.371553	0.250169
C91	C	1.758221	0.621553	0.500169
C92	C	2.008221	0.871553	0.750169
C93	C	1.360602	0.123541	0.000175
C94	C	1.610602	0.373541	0.250175
C95	C	1.860602	0.623541	0.500175
C96	C	2.110602	0.873541	0.750175
C97	C	1.083168	0.296605	0.000131
C98	C	1.333168	0.546605	0.250131
C99	C	1.583168	0.796605	0.500131
C100	C	1.833168	1.046605	0.750131
C101	C	1.085156	0.398987	0.000122
C102	C	1.335156	0.648987	0.250122
C103	C	1.585156	0.898987	0.500122
C104	C	1.835156	1.148987	0.750122
N105	N	1.089612	0.127998	0.308390
N106	N	1.339612	0.377998	0.558390
N107	N	1.589612	0.627998	0.808390
N108	N	1.839612	0.877998	1.058390
N109	N	1.089641	0.128009	-0.308097
N110	N	1.339641	0.378009	-0.058097
N111	N	1.589641	0.628009	0.191903
N112	N	1.839641	0.878009	0.441903
C113	C	1.089626	0.128009	0.574061
C114	C	1.339626	0.378009	0.824061
C115	C	1.589626	0.628009	1.074061
C116	C	1.839626	0.878009	1.324061
C117	C	1.089615	0.128006	0.426223
C118	C	1.339615	0.378006	0.676223
C119	C	1.589615	0.628006	0.926223
C120	C	1.839615	0.878006	1.176223
