data_functionalizedCrystal
_audit_creation_method	'MofGen! by Chris Wilmer'
_symmetry_space_group_name_H-M	'P1'
_symmetry_Int_Tables_number	1
_symmetry_cell_setting	triclinic
loop_
_symmetry_equiv_pos_as_xyz
  x,y,z
_cell_length_a	15.538191
_cell_length_b	10.489716
_cell_length_c	14.185569
_cell_angle_alpha	76.713535
_cell_angle_beta	97.875798
_cell_angle_gamma	65.900615
loop_
_atom_site_label
_atom_site_type_symbol
_atom_site_fract_x
_atom_site_fract_y
_atom_site_fract_z
O1	O	1.226021	-0.374277	-0.083449
O2	O	0.952751	-0.227460	-0.083441
O3	O	1.095615	-0.489429	-0.083449
O4	O	1.083156	-0.112308	-0.083441
O5	O	1.137818	-0.566810	0.083383
O6	O	0.994954	-0.304842	0.083391
O7	O	1.268224	-0.451658	0.083383
Cu8	Cu	1.135443	-0.385316	0.098620
Cu9	Cu	1.085532	-0.293803	-0.098678
O10	O	1.125360	-0.189690	0.083391
C11	C	0.938860	-0.250790	-0.000024
C12	C	0.834595	-0.205035	-0.000021
C13	C	1.115780	-0.575205	-0.000036
C14	C	1.112976	-0.715500	-0.000045
C15	C	0.543744	-0.659600	-0.000046
C16	C	0.445767	-0.616573	-0.000046
C17	C	0.424951	-0.374558	-0.000041
C18	C	0.522930	-0.417567	-0.000036
C19	C	0.582318	-0.560089	-0.000040
C20	C	0.561504	-0.318057	-0.000030
C21	C	0.659472	-0.361060	-0.000030
C22	C	0.718866	-0.503575	-0.000037
C23	C	0.680286	-0.603093	-0.000040
C24	C	0.502112	-0.175532	-0.000033
C25	C	0.540686	-0.076021	-0.000027
C26	C	0.638658	-0.119028	-0.000020
C27	C	0.698052	-0.261542	-0.000027
C28	C	0.677238	-0.019509	-0.000017
C29	C	0.775206	-0.062513	-0.000017
C30	C	0.796020	-0.304546	-0.000027
C31	C	1.200588	-0.854831	-0.000039
C32	C	1.133486	-0.872030	-0.082292
C33	C	1.175075	-0.948276	0.082192
C34	C	1.045893	-0.730819	-0.082366
C35	C	1.087514	-0.807100	0.082191
C36	C	1.020342	-0.824210	-0.000082
C37	C	1.282114	-0.428327	-0.000037
C38	C	1.386378	-0.474079	-0.000046
C39	C	1.105195	-0.103912	-0.000025
C40	C	1.107996	0.036386	-0.000022
N41	N	1.170554	-0.449685	0.237389
N42	N	1.050428	-0.229447	-0.237447
C43	C	0.947271	-0.040386	0.605052
C44	C	0.973874	-0.089139	0.710072
C45	C	1.100407	-0.321060	0.710026
C46	C	1.073812	-0.272329	0.605003
C47	C	0.997244	-0.131991	0.552525
C48	C	1.123784	-0.363934	0.552476
C49	C	1.097194	-0.315203	0.447463
C50	C	1.020631	-0.174868	0.394977
C51	C	0.970654	-0.083260	0.447512
C52	C	1.200356	-0.504268	0.604957
C53	C	1.250329	-0.595872	0.552430
C54	C	1.223734	-0.547146	0.447415
C55	C	1.147171	-0.406811	0.394929
C56	C	1.273712	-0.638754	0.394881
C57	C	1.247121	-0.590023	0.289868
C58	C	1.120581	-0.358080	0.289916
H59	H	0.798634	-0.538579	-0.000051
C60	C	0.860414	-0.459209	-0.000236
C61	C	0.821170	-0.481942	-0.086081
C62	C	0.880470	-0.624383	-0.086317
H63	H	0.863396	-0.529021	0.057873
H64	H	0.924282	-0.470591	-0.000293
H65	H	0.757319	-0.470575	-0.086015
H66	H	0.818191	-0.412165	-0.144204
H67	H	0.944338	-0.635765	-0.086373
H68	H	0.883447	-0.694183	-0.028203
H69	H	0.853856	-0.639822	-0.144565
C70	C	1.061540	-0.768714	0.174888
C71	C	0.967892	-0.753809	0.175528
C72	C	0.943948	-0.718475	0.260920
H73	H	1.062864	-0.678706	0.173967
H74	H	1.107494	-0.844887	0.233307
H75	H	0.921951	-0.677641	0.117125
H76	H	0.966544	-0.843800	0.176465
H77	H	0.989902	-0.794648	0.319339
H78	H	0.945277	-0.628469	0.259991
H79	H	0.880411	-0.708371	0.261370
C80	C	0.816931	0.045741	-0.000162
C81	C	0.765099	0.169044	-0.085975
C82	C	0.803501	0.268808	-0.086140
H83	H	0.883767	-0.000082	-0.000216
H84	H	0.811286	0.075618	0.057990
H85	H	0.770754	0.139168	-0.144112
H86	H	0.698264	0.214907	-0.085939
H87	H	0.797856	0.298685	-0.027988
H88	H	0.870336	0.222972	-0.086191
H89	H	0.768333	0.352487	-0.144358
H90	H	1.276772	-0.866347	-0.000124
C91	C	0.887393	0.068977	0.390474
C92	C	0.814190	0.055763	0.330218
C93	C	0.737473	0.195963	0.277672
H94	H	0.911017	0.125439	0.349419
H95	H	0.861371	0.116576	0.436766
H96	H	0.840209	0.008186	0.283932
H97	H	0.790539	-0.000672	0.371249
H98	H	0.711452	0.243561	0.323964
H99	H	0.761107	0.252413	0.236623
H100	H	0.687793	0.187015	0.236790
H101	H	1.152877	-0.900853	-0.151834
C102	C	0.864141	0.112060	0.548245
C103	C	0.826075	0.181874	0.616720
C104	C	0.749509	0.322309	0.564427
H105	H	0.814290	0.103577	0.507282
H106	H	0.887885	0.168463	0.507296
H107	H	0.802329	0.125485	0.657651
H108	H	0.875901	0.190396	0.657685
H109	H	0.773253	0.378712	0.523478
H110	H	0.699665	0.313811	0.523465
H111	H	0.723677	0.369700	0.610878
C112	C	0.360461	-0.219712	-0.000242
C113	C	0.356284	-0.117347	-0.086080
C114	C	0.296877	0.025311	-0.086304
H115	H	0.386884	-0.203816	0.057872
H116	H	0.296562	-0.208266	-0.000299
H117	H	0.420170	-0.128787	-0.086015
H118	H	0.329851	-0.133195	-0.144208
H119	H	0.232977	0.036756	-0.086360
H120	H	0.323305	0.041191	-0.028186
H121	H	0.294027	0.094782	-0.144548
H122	H	1.058226	-0.243808	0.247186
H123	H	0.933174	-0.014530	0.752834
H124	H	0.592103	-0.775658	-0.000043
C125	C	1.183446	-0.473552	0.766884
C126	C	1.160908	-0.579598	0.741317
C127	C	1.237381	-0.720093	0.793664
H128	H	1.192191	-0.489668	0.836963
H129	H	1.241867	-0.480812	0.749640
H130	H	1.102504	-0.572343	0.758568
H131	H	1.152172	-0.563530	0.671246
H132	H	1.295802	-0.727353	0.776420
H133	H	1.246121	-0.736193	0.863741
H134	H	1.222104	-0.792061	0.776318
H135	H	0.728646	-0.719151	-0.000037
H136	H	0.944068	-0.812361	-0.000124
H137	H	0.422340	-0.140522	-0.000036
H138	H	0.628867	0.096537	-0.000024
H139	H	0.991319	-0.637651	-0.151982
C140	C	1.333313	-0.748339	0.609470
C141	C	1.298024	-0.831036	0.669748
C142	C	1.374435	-0.971504	0.722297
H143	H	1.383127	-0.739875	0.650510
H144	H	1.359262	-0.796006	0.563179
H145	H	1.272090	-0.783380	0.716033
H146	H	1.248220	-0.839541	0.628733
H147	H	1.400384	-1.019171	0.676006
H148	H	1.424244	-0.963025	0.763331
H149	H	1.350500	-1.027636	0.763195
C150	C	1.248007	-1.072605	0.174883
C151	C	1.342163	-1.089780	0.174489
C152	C	1.409377	-1.204282	0.259860
H153	H	1.245387	-1.161429	0.174628
H154	H	1.232358	-1.049785	0.233324
H155	H	1.357807	-1.112608	0.116063
H156	H	1.344814	-1.000986	0.174759
H157	H	1.393728	-1.181461	0.318301
H158	H	1.406748	-1.293096	0.259597
H159	H	1.473267	-1.215941	0.259608
H160	H	0.998985	-0.135191	0.309469
H161	H	1.222006	-0.543936	0.690465
H162	H	1.287816	-0.664617	0.247100
C163	C	0.403972	-0.724700	-0.000207
C164	C	0.412392	-0.768381	-0.086031
C165	C	0.373910	-0.867993	-0.086211
H166	H	0.337109	-0.678835	-0.000259
H167	H	0.439037	-0.808526	0.057938
H168	H	0.377325	-0.684569	-0.144160
H169	H	0.479245	-0.814269	-0.085997
H170	H	0.408975	-0.951819	-0.028066
H171	H	0.307049	-0.822117	-0.086260
H172	H	0.379626	-0.897653	-0.144436
C173	C	1.356702	-0.791215	0.451922
C174	C	1.321423	-0.873921	0.512208
C175	C	1.397843	-1.014381	0.564759
H176	H	1.406512	-0.782737	0.492958
H177	H	1.382653	-0.838883	0.405634
H178	H	1.295487	-0.826264	0.558491
H179	H	1.271623	-0.882440	0.471198
H180	H	1.423794	-1.062049	0.518470
H181	H	1.447648	-1.005889	0.605789
H182	H	1.373915	-1.070519	0.605662
H183	H	0.492318	0.040022	-0.000028
