data_functionalizedCrystal
_audit_creation_method	'MofGen! by Chris Wilmer'
_symmetry_space_group_name_H-M	'P1'
_symmetry_Int_Tables_number	1
_symmetry_cell_setting	triclinic
loop_
_symmetry_equiv_pos_as_xyz
  x,y,z
_cell_length_a	27.732064
_cell_length_b	27.731996
_cell_length_c	26.210047
_cell_angle_alpha	90.010646
_cell_angle_beta	90.008789
_cell_angle_gamma	82.635407
loop_
_atom_site_label
_atom_site_type_symbol
_atom_site_fract_x
_atom_site_fract_y
_atom_site_fract_z
O1	O	0.640920	0.057556	0.042344
O2	O	0.974253	0.390889	0.375678
O3	O	1.307586	0.724222	0.709011
O4	O	0.500126	0.066293	0.042366
O5	O	0.833459	0.399626	0.375700
O6	O	1.166792	0.732959	0.709033
O7	O	0.574908	-0.008474	0.042344
O8	O	0.908242	0.324859	0.375677
O9	O	1.241575	0.658193	0.709010
O10	O	0.566137	0.132322	0.042367
O11	O	0.899470	0.465656	0.375701
O12	O	1.232803	0.798989	0.709034
O13	O	0.574885	-0.008474	-0.042514
O14	O	0.908218	0.324859	0.290819
O15	O	1.241552	0.658193	0.624152
O16	O	0.500102	0.066293	-0.042492
O17	O	0.833436	0.399626	0.290842
O18	O	1.166769	0.732960	0.624175
O19	O	0.640896	0.057556	-0.042514
O20	O	0.974230	0.390889	0.290820
O21	O	1.307563	0.724222	0.624153
Cu22	Cu	0.570497	0.061924	-0.050251
Cu23	Cu	0.903830	0.395258	0.283083
Cu24	Cu	1.237164	0.728591	0.616416
Cu25	Cu	0.570525	0.061924	0.050104
Cu26	Cu	0.903858	0.395258	0.383437
Cu27	Cu	1.237191	0.728591	0.716770
O28	O	0.566113	0.132322	-0.042491
O29	O	0.899447	0.465656	0.290842
O30	O	1.232780	0.798989	0.624176
C31	C	0.482107	0.066108	-0.000060
C32	C	0.815441	0.399442	0.333273
C33	C	1.148774	0.732775	0.666607
C34	C	0.428453	0.065552	-0.000052
C35	C	0.761786	0.398886	0.333281
C36	C	1.095120	0.732219	0.666615
C37	C	0.574717	-0.026482	-0.000087
C38	C	0.908050	0.306852	0.333246
C39	C	1.241383	0.640185	0.666580
C40	C	0.574174	-0.080138	-0.000092
C41	C	0.907507	0.253196	0.333241
C42	C	1.240841	0.586529	0.666575
C43	C	0.051389	0.017584	-0.000089
C44	C	0.384722	0.350917	0.333244
C45	C	0.718056	0.684250	0.666578
C46	C	0.253049	0.019630	-0.000076
C47	C	0.586382	0.352963	0.333258
C48	C	0.919716	0.686297	0.666591
O49	O	0.284309	-0.017592	-0.000101
O50	O	0.617642	0.315741	0.333233
O51	O	0.950975	0.649075	0.666566
N52	N	0.272168	0.063966	-0.000066
N53	N	0.605501	0.397299	0.333267
N54	N	0.938835	0.730632	0.666601
C55	C	0.240869	0.107793	-0.000063
C56	C	0.574202	0.441126	0.333270
C57	C	0.907536	0.774459	0.666604
O58	O	0.261758	0.145549	-0.000060
O59	O	0.595091	0.478883	0.333274
O60	O	0.928425	0.812216	0.666607
C61	C	0.039210	0.105746	-0.000080
C62	C	0.372543	0.439079	0.333253
C63	C	0.705877	0.772412	0.666586
C64	C	0.020094	0.061407	-0.000085
C65	C	0.353427	0.394741	0.333249
C66	C	0.686760	0.728074	0.666582
C67	C	0.032272	-0.026751	-0.000094
C68	C	0.365606	0.306582	0.333239
C69	C	0.698939	0.639916	0.666572
C70	C	-0.018140	-0.027262	-0.000095
C71	C	0.315194	0.306071	0.333239
C72	C	0.648527	0.639405	0.666572
C73	C	-0.049435	0.016562	-0.000090
C74	C	0.283898	0.349895	0.333243
C75	C	0.617232	0.683228	0.666576
C76	C	-0.030318	0.060896	-0.000085
C77	C	0.303015	0.394230	0.333248
C78	C	0.636348	0.727563	0.666581
C79	C	0.007912	0.149572	-0.000081
C80	C	0.341245	0.482906	0.333252
C81	C	0.674578	0.816239	0.666586
C82	C	-0.042506	0.149057	-0.000087
C83	C	0.290828	0.482390	0.333247
C84	C	0.624161	0.815723	0.666580
C85	C	-0.061622	0.104718	-0.000091
C86	C	0.271711	0.438052	0.333242
C87	C	0.605045	0.771385	0.666576
C88	C	-0.112026	0.104209	-0.000082
C89	C	0.221308	0.437542	0.333252
C90	C	0.554641	0.770875	0.666585
N91	N	-0.131145	0.059873	-0.000091
N92	N	0.202189	0.393207	0.333242
N93	N	0.535522	0.726540	0.666575
C94	C	-0.099849	0.016050	-0.000096
C95	C	0.233484	0.349383	0.333238
C96	C	0.566817	0.682716	0.666571
C97	C	0.346743	0.108864	-0.000053
C98	C	0.680076	0.442197	0.333280
C99	C	1.013410	0.775531	0.666614
C100	C	0.397158	0.109376	-0.000048
C101	C	0.730491	0.442709	0.333286
C102	C	1.063824	0.776042	0.666619
C103	C	0.409334	0.021213	-0.000061
C104	C	0.742668	0.354547	0.333272
C105	C	1.076001	0.687880	0.666605
C106	C	0.358919	0.020702	-0.000063
C107	C	0.692252	0.354035	0.333271
C108	C	1.025585	0.687369	0.666604
C109	C	0.327624	0.064529	-0.000063
C110	C	0.660957	0.397862	0.333271
C111	C	0.994291	0.731195	0.666604
C112	C	-0.205719	0.014980	-0.000096
C113	C	0.127615	0.348313	0.333237
C114	C	0.460948	0.681646	0.666570
C115	C	-0.256136	0.014473	-0.000095
C116	C	0.077198	0.347806	0.333238
C117	C	0.410531	0.681139	0.666572
C118	C	-0.268308	0.102635	-0.000084
C119	C	0.065025	0.435968	0.333249
C120	C	0.398359	0.769302	0.666582
C121	C	-0.217895	0.103142	-0.000083
C122	C	0.115438	0.436476	0.333250
C123	C	0.448771	0.769809	0.666584
C124	C	-0.186601	0.059311	-0.000091
C125	C	0.146732	0.392644	0.333242
C126	C	0.480065	0.725978	0.666576
O127	O	-0.143313	0.141411	-0.000062
O128	O	0.190020	0.474744	0.333271
O129	O	0.523353	0.808078	0.666605
O130	O	-0.120748	-0.021702	-0.000110
O131	O	0.212585	0.311632	0.333223
O132	O	0.545919	0.644965	0.666556
C133	C	0.101801	0.018095	-0.000089
C134	C	0.435134	0.351428	0.333245
C135	C	0.768468	0.684762	0.666578
C136	C	0.120918	0.062430	-0.000083
C137	C	0.454251	0.395763	0.333250
C138	C	0.787584	0.729096	0.666583
C139	C	0.089623	0.106253	-0.000079
C140	C	0.422956	0.439587	0.333254
C141	C	0.756289	0.772920	0.666588
C142	C	0.171332	0.062941	-0.000078
C143	C	0.504666	0.396275	0.333255
C144	C	0.837999	0.729608	0.666588
C145	C	0.202628	0.019118	-0.000083
C146	C	0.535961	0.352451	0.333251
C147	C	0.869294	0.685784	0.666584
C148	C	0.183508	-0.025218	-0.000092
C149	C	0.516842	0.308116	0.333241
C150	C	0.850175	0.641449	0.666574
C151	C	0.133096	-0.025729	-0.000093
C152	C	0.466430	0.307605	0.333240
C153	C	0.799763	0.640938	0.666574
C154	C	0.108742	0.150589	-0.000069
C155	C	0.442075	0.483922	0.333264
C156	C	0.775408	0.817255	0.666597
C157	C	0.159154	0.151096	-0.000068
C158	C	0.492488	0.484429	0.333265
C159	C	0.825821	0.817763	0.666598
C160	C	0.190450	0.107273	-0.000073
C161	C	0.523783	0.440606	0.333261
C162	C	0.857116	0.773939	0.666594
C163	C	0.570772	-0.412854	0.046189
C164	C	0.904105	-0.079521	0.379523
C165	C	1.237439	0.253812	0.712856
C166	C	0.568711	-0.614513	0.046199
C167	C	0.902044	-0.281179	0.379532
C168	C	1.235378	0.052154	0.712865
O169	O	0.568434	-0.640583	0.085538
O170	O	0.901768	-0.307250	0.418872
O171	O	1.235101	0.026083	0.752205
N172	N	0.568442	-0.639730	-0.000057
N173	N	0.901776	-0.306396	0.333276
N174	N	1.235109	0.026937	0.666610
C175	C	0.568686	-0.614529	-0.046318
C176	C	0.902019	-0.281195	0.287015
C177	C	1.235352	0.052138	0.620349
O178	O	0.568405	-0.640604	-0.085661
O179	O	0.901738	-0.307271	0.247672
O180	O	1.235071	0.026063	0.581005
C181	C	0.570743	-0.412871	-0.046327
C182	C	0.904076	-0.079538	0.287006
C183	C	1.237410	0.253796	0.620340
C184	C	0.571017	-0.387657	-0.000068
C185	C	0.904350	-0.054324	0.333265
C186	C	1.237683	0.279010	0.666598
C187	C	0.571045	-0.387640	0.092444
C188	C	0.904378	-0.054307	0.425778
C189	C	1.237712	0.279026	0.759111
C190	C	0.571563	-0.337229	0.092442
C191	C	0.904896	-0.003896	0.425775
C192	C	1.238230	0.329438	0.759108
C193	C	0.571808	-0.312032	0.046184
C194	C	0.905141	0.021301	0.379517
C195	C	1.238474	0.354635	0.712851
C196	C	0.571535	-0.337246	-0.000071
C197	C	0.904868	-0.003913	0.333262
C198	C	1.238201	0.329421	0.666596
C199	C	0.570983	-0.387670	-0.092588
C200	C	0.904316	-0.054337	0.240746
C201	C	1.237650	0.278996	0.574079
C202	C	0.571496	-0.337253	-0.092586
C203	C	0.904829	-0.003919	0.240748
C204	C	1.238163	0.329414	0.574081
C205	C	0.571770	-0.312039	-0.046327
C206	C	0.905103	0.021295	0.287006
C207	C	1.238436	0.354628	0.620340
C208	C	0.572297	-0.261637	-0.046332
C209	C	0.905631	0.071696	0.287002
C210	C	1.238964	0.405029	0.620335
N211	N	0.572566	-0.236420	-0.000076
N212	N	0.905899	0.096913	0.333257
N213	N	1.239233	0.430246	0.666591
C214	C	0.572321	-0.261618	0.046182
C215	C	0.905654	0.071716	0.379515
C216	C	1.238988	0.405049	0.712848
C217	C	0.567606	-0.720402	-0.046310
C218	C	0.900940	-0.387069	0.287023
C219	C	1.234273	-0.053736	0.620356
C220	C	0.567093	-0.770817	-0.046308
C221	C	0.900426	-0.437483	0.287025
C222	C	1.233759	-0.104150	0.620358
C223	C	0.567117	-0.770797	0.046209
C224	C	0.900451	-0.437464	0.379542
C225	C	1.233784	-0.104130	0.712876
C226	C	0.567634	-0.720382	0.046206
C227	C	0.900968	-0.387049	0.379540
C228	C	1.234301	-0.053715	0.712873
C229	C	0.567875	-0.695185	-0.000055
C230	C	0.901208	-0.361852	0.333279
C231	C	1.234542	-0.028518	0.666612
C232	C	0.573409	-0.155750	0.046172
C233	C	0.906742	0.177583	0.379506
C234	C	1.240076	0.510916	0.712839
C235	C	0.573929	-0.105335	0.046166
C236	C	0.907262	0.227998	0.379499
C237	C	1.240596	0.561332	0.712832
C238	C	0.573902	-0.105359	-0.046351
C239	C	0.907235	0.227974	0.286982
C240	C	1.240569	0.561308	0.620315
C241	C	0.573385	-0.155770	-0.046345
C242	C	0.906718	0.177563	0.286989
C243	C	1.240051	0.510896	0.620322
C244	C	0.573137	-0.180964	-0.000079
C245	C	0.906470	0.152369	0.333255
C246	C	1.239803	0.485702	0.666588
O247	O	0.572568	-0.235535	-0.085650
O248	O	0.905902	0.097798	0.247683
O249	O	1.239235	0.431132	0.581016
O250	O	0.572591	-0.235532	0.085519
O251	O	0.905925	0.097801	0.418852
O252	O	1.239258	0.431135	0.752186
C253	C	0.570254	-0.463265	0.046192
C254	C	0.903587	-0.129932	0.379526
C255	C	1.236921	0.203401	0.712859
C256	C	0.569981	-0.488479	-0.000063
C257	C	0.903314	-0.155146	0.333271
C258	C	1.236648	0.178187	0.666604
C259	C	0.570226	-0.463282	-0.046320
C260	C	0.903559	-0.129949	0.287013
C261	C	1.236892	0.203384	0.620346
C262	C	0.569467	-0.538894	-0.000061
C263	C	0.902801	-0.205560	0.333273
C264	C	1.236134	0.127773	0.666606
C265	C	0.569223	-0.564091	0.046197
C266	C	0.902556	-0.230758	0.379530
C267	C	1.235889	0.102576	0.712864
C268	C	0.569491	-0.538874	0.092453
C269	C	0.902825	-0.205541	0.425786
C270	C	1.236158	0.127793	0.759119
C271	C	0.570009	-0.488463	0.092450
C272	C	0.903343	-0.155129	0.425783
C273	C	1.236676	0.178204	0.759117
C274	C	0.569957	-0.488499	-0.092576
C275	C	0.903290	-0.155166	0.240757
C276	C	1.236624	0.178167	0.574091
C277	C	0.569440	-0.538911	-0.092569
C278	C	0.902773	-0.205577	0.240764
C279	C	1.236106	0.127756	0.574097
C280	C	0.569195	-0.564108	-0.046312
C281	C	0.902528	-0.230775	0.287022
C282	C	1.235862	0.102559	0.620355
C283	C	0.658915	0.057740	-0.000086
C284	C	0.992248	0.391073	0.333247
C285	C	1.325581	0.724407	0.666581
C286	C	0.712569	0.058296	-0.000091
C287	C	1.045902	0.391629	0.333243
C288	C	1.379236	0.724963	0.666576
C289	C	0.566305	0.150330	-0.000059
C290	C	0.899639	0.483663	0.333274
C291	C	1.232972	0.816997	0.666608
C292	C	0.566848	0.203986	-0.000051
C293	C	0.900181	0.537319	0.333283
C294	C	1.233515	0.870653	0.666616
N295	N	0.570481	0.061924	-0.120835
N296	N	0.903815	0.395257	0.212499
N297	N	1.237148	0.728591	0.545832
C298	C	0.599611	0.091037	-0.473349
C299	C	0.932944	0.424371	-0.140015
C300	C	1.266278	0.757704	0.193318
C301	C	0.599625	0.091037	-0.687007
C302	C	0.932959	0.424370	-0.353674
C303	C	1.266292	0.757704	-0.020340
O304	O	0.624381	0.115785	-0.714629
O305	O	0.957715	0.449118	-0.381295
O306	O	1.291048	0.782452	-0.047962
N307	N	0.570536	0.061919	-0.713729
N308	N	0.903870	0.395253	-0.380395
N309	N	1.237203	0.728586	-0.047062
C310	C	0.541444	0.032797	-0.687032
C311	C	0.874777	0.366130	-0.353699
C312	C	1.208111	0.699464	-0.020366
O313	O	0.516706	0.008027	-0.714663
O314	O	0.850039	0.341360	-0.381330
O315	O	1.183373	0.674694	-0.047996
C316	C	0.541433	0.032795	-0.473375
C317	C	0.874766	0.366129	-0.140041
C318	C	1.208099	0.699462	0.193292
C319	C	0.570520	0.061919	-0.446656
C320	C	0.903853	0.395252	-0.113323
C321	C	1.237186	0.728585	0.220011
C322	C	0.628696	0.120158	-0.446630
C323	C	0.962030	0.453491	-0.113296
C324	C	1.295363	0.786825	0.220037
C325	C	0.628690	0.120160	-0.393218
C326	C	0.962024	0.453493	-0.059885
C327	C	1.295357	0.786827	0.273448
C328	C	0.599599	0.091041	-0.366526
C329	C	0.932933	0.424374	-0.033192
C330	C	1.266266	0.757708	0.300141
C331	C	0.570514	0.061920	-0.393244
C332	C	0.903847	0.395254	-0.059911
C333	C	1.237181	0.728587	0.273422
C334	C	0.512343	0.003671	-0.446679
C335	C	0.845677	0.337004	-0.113346
C336	C	1.179010	0.670337	0.219987
C337	C	0.512344	0.003672	-0.393261
C338	C	0.845677	0.337005	-0.059928
C339	C	1.179011	0.670339	0.273405
C340	C	0.541431	0.032795	-0.366543
C341	C	0.874764	0.366129	-0.033209
C342	C	1.208098	0.699462	0.300124
C343	C	0.541417	0.032803	-0.313140
C344	C	0.874750	0.366137	0.020193
C345	C	1.208084	0.699470	0.353526
N346	N	0.570506	0.061921	-0.286419
N347	N	0.903839	0.395255	0.046915
N348	N	1.237173	0.728588	0.380248
C349	C	0.599597	0.091040	-0.313111
C350	C	0.932930	0.424373	0.020222
C351	C	1.266264	0.757707	0.353555
C352	C	0.541451	0.032801	-0.799206
C353	C	0.874785	0.366134	-0.465872
C354	C	1.208118	0.699467	-0.132539
C355	C	0.541453	0.032802	-0.852620
C356	C	0.874787	0.366135	-0.519286
C357	C	1.208120	0.699468	-0.185953
C358	C	0.599636	0.091041	-0.852591
C359	C	0.932969	0.424375	-0.519258
C360	C	1.266302	0.757708	-0.185924
C361	C	0.599630	0.091042	-0.799176
C362	C	0.932964	0.424376	-0.465842
C363	C	1.266297	0.757709	-0.132509
C364	C	0.570540	0.061919	-0.772484
C365	C	0.903874	0.395252	-0.439151
C366	C	1.237207	0.728585	-0.105817
C367	C	0.599582	0.091042	-0.200944
C368	C	0.932916	0.424375	0.132390
C369	C	1.266249	0.757709	0.465723
C370	C	0.599572	0.091043	-0.147527
C371	C	0.932906	0.424376	0.185806
C372	C	1.266239	0.757709	0.519139
C373	C	0.541392	0.032802	-0.147561
C374	C	0.874726	0.366135	0.185772
C375	C	1.208059	0.699468	0.519106
C376	C	0.541400	0.032803	-0.200972
C377	C	0.874733	0.366136	0.132361
C378	C	1.208067	0.699469	0.465694
C379	C	0.570499	0.061924	-0.227662
C380	C	0.903832	0.395257	0.105671
C381	C	1.237166	0.728591	0.439004
O382	O	0.516678	0.008064	-0.285486
O383	O	0.850011	0.341398	0.047848
O384	O	1.183345	0.674731	0.381181
O385	O	0.624340	0.115798	-0.285471
O386	O	0.957673	0.449132	0.047862
O387	O	1.291006	0.782465	0.381195
C388	C	0.599617	0.091036	-0.526760
C389	C	0.932950	0.424369	-0.193427
C390	C	1.266284	0.757702	0.139907
C391	C	0.570532	0.061915	-0.553479
C392	C	0.903865	0.395248	-0.220145
C393	C	1.237198	0.728582	0.113188
C394	C	0.541440	0.032796	-0.526786
C395	C	0.874774	0.366130	-0.193453
C396	C	1.208107	0.699463	0.139881
C397	C	0.570534	0.061916	-0.606893
C398	C	0.903867	0.395249	-0.273560
C399	C	1.237200	0.728583	0.059774
C400	C	0.599625	0.091035	-0.633586
C401	C	0.932958	0.424368	-0.300252
C402	C	1.266292	0.757702	0.033081
C403	C	0.628714	0.120153	-0.606864
C404	C	0.962047	0.453486	-0.273531
C405	C	1.295381	0.786819	0.059803
C406	C	0.628708	0.120154	-0.553453
C407	C	0.962041	0.453488	-0.220119
C408	C	1.295375	0.786821	0.113214
C409	C	0.512351	0.003678	-0.553508
C410	C	0.845685	0.337012	-0.220174
C411	C	1.179018	0.670345	0.113159
C412	C	0.512359	0.003679	-0.606919
C413	C	0.845692	0.337013	-0.273586
C414	C	1.179026	0.670346	0.059747
C415	C	0.541450	0.032798	-0.633612
C416	C	0.874784	0.366132	-0.300278
C417	C	1.208117	0.699465	0.033055
N418	N	0.570545	0.061921	0.120688
N419	N	0.903878	0.395254	0.454021
N420	N	1.237211	0.728587	0.787354
H421	H	-0.271697	-0.021635	-0.000097
H422	H	0.061636	0.311699	0.333236
H423	H	0.394970	0.645032	0.666569
H424	H	0.566877	-0.791342	-0.083977
H425	H	0.900211	-0.458009	0.249357
H426	H	1.233544	-0.124676	0.582690
H427	H	0.623259	0.114761	-0.125775
H428	H	0.956592	0.448094	0.207558
H429	H	1.289925	0.781427	0.540891
H430	H	0.174713	0.187204	-0.000061
H431	H	0.508047	0.520538	0.333272
H432	H	0.841380	0.853871	0.666606
Cl433	Cl	0.570261	-0.456830	-0.150735
Cl434	Cl	0.903594	-0.123497	0.182599
Cl435	Cl	1.236928	0.209837	0.515932
H436	H	-0.180245	-0.020712	-0.000103
H437	H	0.153089	0.312621	0.333231
H438	H	0.486422	0.645955	0.666564
H439	H	0.321266	0.144555	-0.000052
H440	H	0.654600	0.477888	0.333281
H441	H	0.987933	0.811222	0.666615
Cl442	Cl	0.573098	-0.187416	0.104336
Cl443	Cl	0.906432	0.145918	0.437670
Cl444	Cl	1.239765	0.479251	0.771003
H445	H	0.623316	0.114758	-0.777425
H446	H	0.956649	0.448091	-0.444092
H447	H	1.289982	0.781424	-0.110758
Cl448	Cl	0.475767	-0.032924	-0.519959
Cl449	Cl	0.809101	0.300409	-0.186626
Cl450	Cl	1.142434	0.633743	0.146707
H451	H	0.652394	0.143870	-0.531703
H452	H	0.985727	0.477203	-0.198370
H453	H	1.319061	0.810536	0.134964
Cl454	Cl	-0.042163	-0.083005	-0.000096
Cl455	Cl	0.291170	0.250329	0.333237
Cl456	Cl	0.624503	0.583662	0.666571
Cl457	Cl	0.222861	-0.080309	-0.000096
Cl458	Cl	0.556194	0.253024	0.333237
Cl459	Cl	0.889527	0.586357	0.666570
H460	H	-0.293798	0.138315	-0.000078
H461	H	0.039536	0.471648	0.333255
H462	H	0.372869	0.804982	0.666589
Cl463	Cl	0.071607	-0.081851	-0.000100
Cl464	Cl	0.404940	0.251482	0.333233
Cl465	Cl	0.738274	0.584815	0.666567
Cl466	Cl	0.334893	-0.035040	-0.000071
Cl467	Cl	0.668226	0.298294	0.333262
Cl468	Cl	1.001559	0.631627	0.666596
Cl469	Cl	0.448686	-0.033879	-0.000067
Cl470	Cl	0.782019	0.299454	0.333267
Cl471	Cl	1.115353	0.632788	0.666600
Cl472	Cl	0.574274	-0.073641	0.104324
Cl473	Cl	0.907608	0.259692	0.437657
Cl474	Cl	1.240941	0.593026	0.770990
Cl475	Cl	-0.193863	0.158882	-0.000071
Cl476	Cl	0.139470	0.492216	0.333263
Cl477	Cl	0.472804	0.825549	0.666596
Cl478	Cl	0.570636	-0.419355	-0.150745
Cl479	Cl	0.903969	-0.086022	0.182588
Cl480	Cl	1.237302	0.247312	0.515921
H481	H	0.571685	-0.316739	-0.130258
H482	H	0.905018	0.016595	0.203075
H483	H	1.238352	0.349928	0.536409
H484	H	0.652399	0.143865	-0.628607
H485	H	0.985732	0.477198	-0.295273
H486	H	1.319065	0.810531	0.038060
H487	H	0.412717	0.145480	-0.000037
H488	H	0.746050	0.478814	0.333296
H489	H	1.079384	0.812147	0.666630
H490	H	0.652388	0.143870	-0.468357
H491	H	0.985722	0.477203	-0.135024
H492	H	1.319055	0.810537	0.198309
H493	H	0.023467	0.185677	-0.000075
H494	H	0.356800	0.519010	0.333258
H495	H	0.690133	0.852344	0.666592
H496	H	-0.067984	0.184746	-0.000089
H497	H	0.265349	0.518080	0.333245
H498	H	0.598682	0.851413	0.666578
H499	H	0.117537	-0.061833	-0.000097
H500	H	0.450870	0.271500	0.333237
H501	H	0.784204	0.604833	0.666570
H502	H	0.083265	0.186276	-0.000066
H503	H	0.416599	0.519609	0.333267
H504	H	0.749932	0.852943	0.666600
Cl505	Cl	0.571902	-0.305539	0.150599
Cl506	Cl	0.905236	0.027795	0.483932
Cl507	Cl	1.238569	0.361128	0.817265
H508	H	0.488668	-0.020035	-0.628669
H509	H	0.822001	0.313298	-0.295336
H510	H	1.155335	0.646631	0.037998
H511	H	0.567856	-0.699856	0.083874
H512	H	0.901190	-0.366523	0.417208
H513	H	1.234523	-0.033189	0.750541
Cl514	Cl	0.570738	-0.419308	0.150605
Cl515	Cl	0.904071	-0.085975	0.483938
Cl516	Cl	1.237405	0.247359	0.817272
H517	H	0.623278	0.114755	-0.222668
H518	H	0.956611	0.448089	0.110665
H519	H	1.289944	0.781422	0.443998
Cl520	Cl	0.569098	-0.570602	-0.150730
Cl521	Cl	0.902431	-0.237269	0.182604
Cl522	Cl	1.235765	0.096065	0.515937
H523	H	0.652378	0.143873	-0.371469
H524	H	0.985712	0.477206	-0.038135
H525	H	1.319045	0.810540	0.295198
H526	H	0.517762	0.009092	-0.874370
H527	H	0.851095	0.342426	-0.541036
H528	H	1.184428	0.675759	-0.207703
Cl529	Cl	0.636209	0.127646	-0.886157
Cl530	Cl	0.969542	0.460979	-0.552824
Cl531	Cl	1.302876	0.794312	-0.219490
Cl532	Cl	0.566807	-0.802482	0.104361
Cl533	Cl	0.900140	-0.469149	0.437694
Cl534	Cl	1.233473	-0.135816	0.771028
Cl535	Cl	0.573050	-0.187470	-0.104499
Cl536	Cl	0.906383	0.145864	0.228834
Cl537	Cl	1.239717	0.479197	0.562168
Cl538	Cl	0.567907	-0.688733	-0.104473
Cl539	Cl	0.901240	-0.355400	0.228860
Cl540	Cl	1.234573	-0.022066	0.562194
H541	H	0.488658	-0.020045	-0.468425
H542	H	0.821991	0.313288	-0.135091
H543	H	1.155324	0.646621	0.198242
Cl544	Cl	0.504867	-0.003806	-0.765658
Cl545	Cl	0.838200	0.329527	-0.432324
Cl546	Cl	1.171534	0.662861	-0.098991
Cl547	Cl	0.475775	-0.032947	-0.359710
Cl548	Cl	0.809108	0.300386	-0.026376
Cl549	Cl	1.142441	0.633720	0.306957
H550	H	0.517709	0.009094	-0.222728
H551	H	0.851042	0.342427	0.110605
H552	H	1.184375	0.675761	0.443939
Cl553	Cl	0.504822	-0.003802	-0.113994
Cl554	Cl	0.838155	0.329531	0.219339
Cl555	Cl	1.171489	0.662864	0.552672
H556	H	0.574104	-0.084834	-0.084013
H557	H	0.907437	0.248499	0.249320
H558	H	1.240770	0.581832	0.582654
H559	H	0.569294	-0.559399	0.130117
H560	H	0.902628	-0.226065	0.463451
H561	H	1.235961	0.107268	0.796784
Cl562	Cl	0.570352	-0.456773	0.150607
Cl563	Cl	0.903685	-0.123439	0.483940
Cl564	Cl	1.237019	0.209894	0.817274
