data_functionalizedCrystal
_audit_creation_method	'MofGen! by Chris Wilmer'
_symmetry_space_group_name_H-M	'P1'
_symmetry_Int_Tables_number	1
_symmetry_cell_setting	triclinic
loop_
_symmetry_equiv_pos_as_xyz
  x,y,z
_cell_length_a	17.052832
_cell_length_b	12.970454
_cell_length_c	12.970454
_cell_angle_alpha	60.000265
_cell_angle_beta	102.315437
_cell_angle_gamma	67.551509
loop_
_atom_site_label
_atom_site_type_symbol
_atom_site_fract_x
_atom_site_fract_y
_atom_site_fract_z
Zr1	Zr	0.773246	1.128504	0.081551
O2	O	0.645082	1.343595	-0.119013
O3	O	0.812534	0.913414	0.143033
O4	O	0.812534	1.128504	-0.072056
O5	O	0.645083	1.128504	0.265744
O6	O	0.944624	1.128502	-0.035014
O7	O	0.645082	1.128505	0.096076
O8	O	0.944624	0.743746	0.349741
O9	O	0.645083	1.513261	-0.119011
O10	O	0.927868	1.001882	0.196900
O11	O	0.829291	1.001882	0.295877
O12	O	0.829291	1.255123	0.042637
O13	O	0.730715	1.255123	0.141614
Zr14	Zr	0.983914	1.128500	0.411228
Zr15	Zr	0.983913	1.128501	0.140628
Zr16	Zr	0.773247	1.128502	0.352151
Zr17	Zr	0.773247	1.399101	0.081553
Zr18	Zr	0.983914	0.857902	0.411226
O19	O	0.944626	1.343590	0.349746
O20	O	0.944624	1.343591	-0.035012
O21	O	0.645083	1.343593	0.265746
O22	O	1.112078	0.913409	0.611792
O23	O	1.112077	0.913411	0.227033
O24	O	0.812536	0.913412	0.527791
O25	O	1.112077	1.128500	0.227035
O26	O	0.944626	1.128499	0.564835
O27	O	0.812536	1.128501	0.527793
O28	O	1.112078	1.128499	0.396703
O29	O	0.812535	1.513259	-0.072053
O30	O	0.944625	0.743745	0.564832
O31	O	1.112077	0.743743	0.611790
O32	O	1.112077	0.743744	0.396699
O33	O	0.645083	1.513260	0.096080
O34	O	0.812536	1.513258	0.143038
O35	O	0.927869	1.001880	0.450142
O36	O	1.026445	1.001880	0.351165
O37	O	0.927869	1.255121	0.196902
O38	O	0.829292	1.255122	0.295879
C39	C	0.878579	0.790025	0.246386
C40	C	0.878579	0.675150	0.246385
C41	C	0.615067	1.128505	0.172493
C42	C	0.525633	1.128506	0.147413
C43	C	0.273544	1.128493	0.450628
C44	C	0.357575	1.128483	0.474199
C45	C	0.399593	1.128489	0.392505
C46	C	0.357573	1.128504	0.287234
C47	C	0.273538	1.128503	0.263668
C48	C	0.399587	1.128499	0.205544
C49	C	0.357567	1.128514	0.100274
C50	C	0.273540	1.128514	0.076711
C51	C	0.231521	1.128508	0.158406
C52	C	0.483622	1.128500	0.229111
C53	C	0.483617	1.128510	0.042151
C54	C	0.399585	1.128521	0.018580
C55	C	1.142093	1.128499	0.320286
C56	C	1.231527	1.128498	0.345366
C57	C	0.878579	1.128503	-0.092090
C58	C	0.878578	1.128504	-0.206967
C59	C	0.878581	1.466978	0.246393
C60	C	0.878581	1.581854	0.246394
C61	C	0.878581	1.128500	0.584869
C62	C	0.878582	1.128499	0.699746
C63	C	1.142092	0.790022	0.320283
C64	C	1.231526	0.675146	0.345362
C65	C	0.878580	0.790024	0.584866
C66	C	0.878580	0.675147	0.699742
C67	C	1.142093	0.790021	0.658763
C68	C	1.231527	0.675143	0.798718
C69	C	0.615067	1.466983	-0.165984
C70	C	0.525633	1.581860	-0.305940
C71	C	0.615068	1.466981	0.172496
C72	C	0.525634	1.581858	0.147417
C73	C	0.878580	1.466980	-0.092087
C74	C	0.878580	1.581856	-0.206963
C75	C	1.222068	0.621199	0.276603
C76	C	1.306093	0.513275	0.300140
C77	C	1.399574	0.459292	0.392443
C78	C	1.409029	0.513249	0.461203
C79	C	1.325006	0.621179	0.437659
C80	C	1.324991	0.621196	0.812781
C81	C	1.409032	0.513271	0.944276
C82	C	1.399607	0.459289	1.061707
C83	C	1.306133	0.513248	1.047640
C84	C	1.222094	0.621177	0.916146
C85	C	0.432169	1.635821	-0.320002
C86	C	0.348128	1.743779	-0.451497
C87	C	0.357553	1.797766	-0.568928
C88	C	0.451027	1.743801	-0.554861
C89	C	0.535066	1.635852	-0.423367
C90	C	0.535092	1.635815	0.216164
C91	C	0.451067	1.743769	0.192598
C92	C	0.357587	1.797756	0.100291
C93	C	0.348131	1.743794	0.031536
C94	C	0.432154	1.635849	0.055095
H95	H	0.517828	1.128487	0.314824
H96	H	0.458785	1.787687	0.248596
H97	H	1.485152	0.469281	0.536357
H98	H	1.298375	0.469356	0.244142
H99	H	0.289177	1.885651	0.081120
F100	F	1.335045	0.678634	0.687818
F101	F	0.268102	1.912655	-0.708868
H102	H	1.332720	0.665088	0.493661
F103	F	0.354855	1.128536	-0.093453
H104	H	0.468015	1.128481	0.411701
F105	F	1.508504	0.455859	0.959218
F106	F	0.248634	1.801262	-0.066699
F107	F	0.634535	1.578426	-0.408422
H108	H	0.517829	1.128511	-0.024369
F109	F	0.461043	1.801271	-0.679854
H110	H	0.239333	1.128510	-0.008996
H111	H	1.468045	0.371406	1.168769
F112	F	0.422074	1.578427	-0.018076
F113	F	1.296117	0.455781	1.172633
F114	F	1.122587	0.678636	0.178356
H115	H	1.467983	0.371408	0.411603
F116	F	1.122625	0.678575	0.901201
F117	F	0.248656	1.801190	-0.466439
F118	F	0.402294	1.128464	0.586231
F119	F	0.422115	1.578380	-0.195039
H120	H	0.239331	1.128477	0.517141
H121	H	0.163094	1.128522	0.139212
H122	H	0.611201	1.591868	0.291336
