data_functionalizedCrystal
_audit_creation_method	'MofGen! by Chris Wilmer'
_symmetry_space_group_name_H-M	'P1'
_symmetry_Int_Tables_number	1
_symmetry_cell_setting	triclinic
loop_
_symmetry_equiv_pos_as_xyz
  x,y,z
_cell_length_a	14.044191
_cell_length_b	13.101039
_cell_length_c	10.654550
_cell_angle_alpha	93.394964
_cell_angle_beta	91.161646
_cell_angle_gamma	93.662449
loop_
_atom_site_label
_atom_site_type_symbol
_atom_site_fract_x
_atom_site_fract_y
_atom_site_fract_z
O1	O	1.264870	0.085164	-0.296681
O2	O	0.988829	0.085177	-0.285737
O3	O	1.133196	0.085164	-0.109108
O4	O	1.120504	0.085177	-0.473309
O5	O	1.122838	-0.085265	-0.121804
O6	O	0.978471	-0.085252	-0.298433
O7	O	1.254512	-0.085265	-0.309376
Zn8	Zn	1.114847	-0.112318	-0.305920
Zn9	Zn	1.128494	0.112230	-0.289193
O10	O	1.110146	-0.085252	-0.486005
C11	C	0.948305	-0.000036	-0.287298
C12	C	0.842985	-0.000031	-0.273018
C13	C	0.593192	-0.000038	-0.348184
C14	C	0.650156	-0.000040	-0.246934
C15	C	0.757456	-0.000035	-0.261451
C16	C	0.485882	-0.000044	-0.333669
N17	N	1.105540	-0.265565	-0.317336
C18	C	1.092878	-0.474607	-0.332880
C19	C	1.150468	-0.525488	-0.262228
C20	C	1.143422	-0.641805	-0.270877
C21	C	1.099922	-0.358278	-0.324233
C22	C	1.295037	-0.000050	-0.307815
C23	C	1.400357	-0.000048	-0.322094
C24	C	1.127085	-0.000050	-0.068564
C25	C	1.124297	-0.000048	0.071159
N26	N	1.137809	0.265477	-0.277768
C27	C	1.116257	-0.000035	-0.526549
C28	C	1.119045	-0.000030	-0.666272
C29	C	1.209298	-0.000052	0.142100
C30	C	1.206673	-0.000039	0.273386
C31	C	1.034038	-0.000024	0.262778
C32	C	1.036664	-0.000029	0.131495
C33	C	1.310413	0.059671	0.463615
C34	C	1.395417	0.059649	0.534559
C35	C	1.468848	-0.000079	0.492192
C36	C	1.457275	-0.059812	0.378880
C37	C	1.372269	-0.059800	0.307942
C38	C	1.298843	-0.000047	0.350310
C39	C	0.932930	-0.059747	-0.058737
C40	C	0.847922	-0.059743	-0.129678
C41	C	0.774483	-0.000020	-0.087314
C42	C	0.786045	0.059697	0.026000
C43	C	0.871053	0.059692	0.096941
C44	C	0.944492	-0.000029	0.054568
H45	H	0.625008	-0.000032	-0.445762
H46	H	0.962690	-0.000010	0.311919
Br47	Br	0.597130	-0.000049	-0.084283
Br48	Br	1.001887	-0.547598	-0.444517
H49	H	1.205064	-0.481690	-0.195248
H50	H	1.280654	-0.000065	0.092979
H51	H	1.362845	-0.108436	0.215689
Br52	Br	1.556932	-0.140887	0.321395
H53	H	1.538060	-0.000095	0.549964
Br54	Br	1.210767	0.140760	0.521107
H55	H	1.404835	0.108291	0.626817
Br56	Br	0.886745	0.140735	0.250730
H57	H	0.726236	0.108306	0.060512
H58	H	0.838508	-0.108381	-0.221938
H59	H	0.705260	-0.000035	-0.145077
Br60	Br	1.032603	-0.140797	-0.116246
