data_functionalizedCrystal
_audit_creation_method	'MofGen! by Chris Wilmer'
_symmetry_space_group_name_H-M	'P1'
_symmetry_Int_Tables_number	1
_symmetry_cell_setting	triclinic
loop_
_symmetry_equiv_pos_as_xyz
  x,y,z
_cell_length_a	6.817900
_cell_length_b	19.551823
_cell_length_c	9.582880
_cell_angle_alpha	93.823963
_cell_angle_beta	111.207034
_cell_angle_gamma	101.663376
loop_
_atom_site_label
_atom_site_type_symbol
_atom_site_fract_x
_atom_site_fract_y
_atom_site_fract_z
V1	V	-4.107767	-0.096380	-0.467299
O2	O	-4.102840	0.004935	-0.457683
O3	O	-4.049976	-0.191396	-0.464795
O4	O	-4.098689	-0.094764	-0.670788
O5	O	-4.053790	-0.092367	-0.250265
V6	V	-4.587517	-0.084277	-0.441256
O7	O	-4.377303	-0.122928	-0.524427
O8	O	-4.768178	-0.057729	-0.384128
O9	O	-4.422101	0.010740	-0.443759
O10	O	-4.709840	-0.185591	-0.450871
O11	O	-4.758891	-0.088290	-0.658290
O12	O	-4.373388	-0.085893	-0.237766
C13	C	-3.891420	-0.214564	-0.457602
C14	C	-3.925718	-0.292240	-0.456912
C15	C	-4.125043	-0.332281	-0.464071
C16	C	-4.157277	-0.405268	-0.463437
C17	C	-3.990160	-0.438208	-0.455614
C18	C	-3.790812	-0.398158	-0.448462
C19	C	-3.758590	-0.325174	-0.449111
C20	C	-3.858594	-0.544756	-0.360718
C21	C	-3.890818	-0.617738	-0.360060
C22	C	-4.089537	-0.663315	-0.453619
C23	C	-4.256053	-0.635901	-0.547818
C24	C	-4.223832	-0.562917	-0.548467
C25	C	-4.025079	-0.517347	-0.454910
C26	C	-4.323828	-0.782497	-0.460094
C27	C	-4.356060	-0.855486	-0.459469
C28	C	-3.989581	-0.848373	-0.444479
C29	C	-3.957362	-0.775387	-0.445119
C30	C	-4.124490	-0.742453	-0.452919
C31	C	-3.953557	-0.091298	-0.720365
C32	C	-4.027357	-0.090606	-0.886723
C33	C	-4.243998	0.033903	-0.450948
C34	C	-4.188940	0.111579	-0.451649
C35	C	-4.181860	-0.089360	-0.188182
C36	C	-4.087299	-0.090049	-0.021823
H37	H	-3.795047	-0.742785	-0.439280
H38	H	-4.319596	-0.437876	-0.469267
H39	H	-4.261140	-0.305472	-0.470433
C40	C	-4.406975	-0.532760	-0.652091
C41	C	-4.625568	-0.582883	-0.755011
C42	C	-4.808709	-0.552727	-0.858641
C43	C	-4.773257	-0.472447	-0.859352
C44	C	-4.554654	-0.422319	-0.756428
C45	C	-4.371513	-0.452475	-0.652798
H46	H	-4.651821	-0.642316	-0.754488
H47	H	-4.970533	-0.589836	-0.934832
H48	H	-4.908828	-0.450124	-0.936065
H49	H	-4.528401	-0.362887	-0.756950
H50	H	-4.209689	-0.415367	-0.576607
H51	H	-4.518382	-0.888087	-0.465309
C52	C	-4.474666	-0.686021	-0.650748
C53	C	-4.482835	-0.743730	-0.771617
C54	C	-4.701448	-0.793851	-0.874539
C55	C	-4.911892	-0.786264	-0.856591
C56	C	-4.903731	-0.728553	-0.735717
C57	C	-4.685118	-0.678431	-0.632796
H58	H	-4.327045	-0.749349	-0.784907
H59	H	-4.707488	-0.836573	-0.964018
H60	H	-5.073723	-0.823367	-0.932780
H61	H	-5.059521	-0.722934	-0.722427
H62	H	-4.679078	-0.635710	-0.543317
H63	H	-4.459912	-0.755681	-0.466443
C64	C	-3.707655	-0.647888	-0.256439
C65	C	-3.743787	-0.690516	-0.134681
C66	C	-3.560616	-0.720662	-0.031054
C67	C	-3.341314	-0.708180	-0.049185
C68	C	-3.305172	-0.665550	-0.170948
C69	C	-3.488343	-0.635403	-0.274575
H70	H	-3.906136	-0.699758	-0.121254
H71	H	-3.587372	-0.752220	0.059083
H72	H	-3.205720	-0.730496	0.027525
H73	H	-3.142823	-0.656308	-0.184375
H74	H	-3.461587	-0.603846	-0.364712
H75	H	-3.853515	-0.875193	-0.438119
H76	H	-3.696760	-0.507652	-0.284536
H77	H	-3.654748	-0.424983	-0.442096
H78	H	-3.596274	-0.292573	-0.443283
