data_functionalizedCrystal
_audit_creation_method	'MofGen! by Chris Wilmer'
_symmetry_space_group_name_H-M	'P1'
_symmetry_Int_Tables_number	1
_symmetry_cell_setting	triclinic
loop_
_symmetry_equiv_pos_as_xyz
  x,y,z
_cell_length_a	19.288864
_cell_length_b	19.288859
_cell_length_c	17.766277
_cell_angle_alpha	89.993887
_cell_angle_beta	89.976791
_cell_angle_gamma	83.134986
loop_
_atom_site_label
_atom_site_type_symbol
_atom_site_fract_x
_atom_site_fract_y
_atom_site_fract_z
O1	O	0.921351	0.086649	-0.062835
O2	O	1.254684	0.419982	0.270498
O3	O	1.588018	0.753316	0.603832
O4	O	0.719090	0.098338	-0.062784
O5	O	1.052424	0.431671	0.270550
O6	O	1.385757	0.765004	0.603883
O7	O	0.826067	-0.008637	-0.062806
O8	O	1.159401	0.324696	0.270527
O9	O	1.492734	0.658029	0.603860
O10	O	0.814374	0.193624	-0.062812
O11	O	1.147707	0.526957	0.270521
O12	O	1.481041	0.860291	0.603854
O13	O	0.826049	-0.008643	0.062382
O14	O	1.159382	0.324691	0.395715
O15	O	1.492715	0.658024	0.729049
O16	O	0.719072	0.098332	0.062405
O17	O	1.052405	0.431666	0.395738
O18	O	1.385738	0.764999	0.729072
O19	O	0.921332	0.086644	0.062353
O20	O	1.254666	0.419977	0.395687
O21	O	1.587999	0.753310	0.729020
Cu22	Cu	0.820200	0.092487	0.073810
Cu23	Cu	1.153534	0.425821	0.407143
Cu24	Cu	1.486867	0.759154	0.740477
Cu25	Cu	0.820222	0.092494	-0.074240
Cu26	Cu	1.153556	0.425827	0.259093
Cu27	Cu	1.486889	0.759161	0.592427
O28	O	0.814355	0.193619	0.062376
O29	O	1.147689	0.526952	0.395710
O30	O	1.481022	0.860285	0.729043
C31	C	0.693204	0.097959	-0.000183
C32	C	1.026538	0.431292	0.333151
C33	C	1.359871	0.764626	0.666484
C34	C	0.616101	0.096830	-0.000163
C35	C	0.949434	0.430163	0.333170
C36	C	1.282768	0.763497	0.666504
C37	C	0.571403	0.159598	-0.000177
C38	C	0.904737	0.492931	0.333157
C39	C	1.238070	0.826265	0.666490
C40	C	0.498956	0.158537	-0.000185
C41	C	0.832289	0.491871	0.333148
C42	C	1.165623	0.825204	0.666482
C43	C	0.471210	0.094705	-0.000195
C44	C	0.804543	0.428038	0.333139
C45	C	1.137877	0.761372	0.666472
C46	C	0.515918	0.031929	-0.000177
C47	C	0.849251	0.365262	0.333157
C48	C	1.182584	0.698595	0.666490
C49	C	0.588363	0.032991	-0.000161
C50	C	0.921696	0.366324	0.333172
C51	C	1.255030	0.699658	0.666506
C52	C	0.362956	0.044528	-0.044078
C53	C	0.696289	0.377861	0.289256
C54	C	1.029622	0.711194	0.622589
C55	C	0.290511	0.043468	-0.044098
C56	C	0.623845	0.376801	0.289235
C57	C	0.957178	0.710134	0.622569
C58	C	0.247765	0.091425	-0.000240
C59	C	0.581098	0.424759	0.333093
C60	C	0.914431	0.758092	0.666427
C61	C	0.277470	0.140455	0.043629
C62	C	0.610803	0.473788	0.376962
C63	C	0.944136	0.807121	0.710295
C64	C	0.349915	0.141517	0.043644
C65	C	0.683248	0.474850	0.376978
C66	C	1.016582	0.808184	0.710311
C67	C	0.392656	0.093546	-0.000211
C68	C	0.725989	0.426879	0.333122
C69	C	1.059323	0.760213	0.666455
C70	C	0.124511	0.153048	-0.000262
C71	C	0.457844	0.486381	0.333072
C72	C	0.791178	0.819714	0.666405
C73	C	0.052063	0.151984	-0.000265
C74	C	0.385396	0.485318	0.333068
C75	C	0.718730	0.818651	0.666401
C76	C	0.069026	0.025374	-0.000265
C77	C	0.402359	0.358707	0.333069
C78	C	0.735693	0.692041	0.666402
C79	C	0.141472	0.026439	-0.000254
C80	C	0.474806	0.359772	0.333080
C81	C	0.808139	0.693106	0.666413
C82	C	0.169210	0.090278	-0.000256
C83	C	0.502544	0.423611	0.333078
C84	C	0.835877	0.756944	0.666411
C85	C	0.825682	-0.034516	-0.000213
C86	C	1.159016	0.298817	0.333121
C87	C	1.492349	0.632150	0.666454
C88	C	0.824555	-0.111620	-0.000214
C89	C	1.157888	0.221713	0.333120
C90	C	1.491222	0.555046	0.666453
C91	C	0.879698	-0.675661	-0.000248
C92	C	1.213032	-0.342328	0.333086
C93	C	1.546365	-0.008994	0.666419
C94	C	0.880764	-0.603214	-0.000241
C95	C	1.214097	-0.269881	0.333092
C96	C	1.547430	0.063452	0.666426
C97	C	0.817994	-0.558508	-0.000225
C98	C	1.151328	-0.225174	0.333108
C99	C	1.484661	0.108159	0.666441
C100	C	0.754155	-0.586253	-0.000197
C101	C	1.087488	-0.252919	0.333137
C102	C	1.420822	0.080414	0.666470
C103	C	0.753092	-0.658698	-0.000196
C104	C	1.086425	-0.325365	0.333138
C105	C	1.419758	0.007969	0.666471
C106	C	0.771188	-0.437232	-0.044071
C107	C	1.104521	-0.103899	0.289262
C108	C	1.437855	0.229435	0.622596
C109	C	0.772254	-0.364788	-0.044077
C110	C	1.105587	-0.031455	0.289256
C111	C	1.438921	0.301878	0.622590
C112	C	0.821272	-0.335062	-0.000225
C113	C	1.154605	-0.001729	0.333108
C114	C	1.487939	0.331605	0.666441
C115	C	0.869235	-0.377789	0.043622
C116	C	1.202569	-0.044456	0.376955
C117	C	1.535902	0.288877	0.710289
C118	C	0.868172	-0.450235	0.043623
C119	C	1.201505	-0.116901	0.376957
C120	C	1.534839	0.216432	0.710290
C121	C	0.819141	-0.479952	-0.000226
C122	C	1.152474	-0.146619	0.333107
C123	C	1.485807	0.186715	0.666441
C124	C	0.886262	-0.228770	-0.000242
C125	C	1.219596	0.104563	0.333092
C126	C	1.552929	0.437896	0.666425
C127	C	0.887325	-0.156322	-0.000231
C128	C	1.220658	0.177011	0.333103
C129	C	1.553992	0.510345	0.666436
C130	C	0.760715	-0.139362	-0.000194
C131	C	1.094048	0.193972	0.333139
C132	C	1.427381	0.527305	0.666473
C133	C	0.759654	-0.211809	-0.000197
C134	C	1.092987	0.121525	0.333136
C135	C	1.426320	0.454858	0.666469
C136	C	0.822430	-0.256509	-0.000225
C137	C	1.155763	0.076825	0.333108
C138	C	1.489096	0.410158	0.666442
C139	C	0.947218	0.087022	-0.000249
C140	C	1.280552	0.420356	0.333084
C141	C	1.613885	0.753689	0.666418
C142	C	1.024322	0.088151	-0.000274
C143	C	1.357655	0.421485	0.333060
C144	C	1.690988	0.754818	0.666393
C145	C	0.814740	0.219498	-0.000219
C146	C	1.148074	0.552831	0.333114
C147	C	1.481407	0.886164	0.666447
C148	C	0.815868	0.296602	-0.000223
C149	C	1.149201	0.629935	0.333110
C150	C	1.482534	0.963268	0.666443
N151	N	0.820190	0.092483	0.177940
N152	N	1.153523	0.425816	0.511274
N153	N	1.486856	0.759149	0.844607
N154	N	0.820238	0.092493	-0.178370
N155	N	1.153572	0.425827	0.154963
N156	N	1.486905	0.759160	0.488296
C157	C	0.867574	0.045137	0.217317
C158	C	1.200908	0.378471	0.550650
C159	C	1.534241	0.711804	0.883984
C160	C	0.867578	0.045134	0.296119
C161	C	1.200912	0.378467	0.629452
C162	C	1.534245	0.711801	0.962785
C163	C	0.820204	0.092488	0.335541
C164	C	1.153538	0.425821	0.668874
C165	C	1.486871	0.759155	1.002207
C166	C	0.772811	0.139837	0.296154
C167	C	1.106144	0.473170	0.629488
C168	C	1.439477	0.806504	0.962821
C169	C	0.772804	0.139834	0.217354
C170	C	1.106137	0.473168	0.550687
C171	C	1.439470	0.806501	0.884021
C172	C	0.810904	0.155776	0.460378
C173	C	1.144238	0.489109	0.793712
C174	C	1.477571	0.822443	1.127045
C175	C	0.810916	0.155780	0.539177
C176	C	1.144250	0.489113	0.872510
C177	C	1.477583	0.822446	1.205844
C178	C	0.820223	0.092496	0.578587
C179	C	1.153556	0.425830	0.911920
C180	C	1.486890	0.759163	1.245254
C181	C	0.829532	0.029207	0.539188
C182	C	1.162865	0.362540	0.872522
C183	C	1.496199	0.695873	1.205855
C184	C	0.829525	0.029204	0.460388
C185	C	1.162858	0.362537	0.793722
C186	C	1.496191	0.695871	1.127055
C187	C	0.820207	0.092496	0.420986
C188	C	1.153540	0.425829	0.754320
C189	C	1.486873	0.759163	1.087653
C190	C	0.867615	0.045144	0.703410
C191	C	1.200948	0.378477	1.036743
C192	C	1.534281	0.711810	1.370076
C193	C	0.867614	0.045139	0.782213
C194	C	1.200947	0.378473	1.115546
C195	C	1.534280	0.711806	1.448880
C196	C	0.772849	0.139849	0.782247
C197	C	1.106183	0.473182	1.115581
C198	C	1.439516	0.806515	1.448914
C199	C	0.772847	0.139847	0.703445
C200	C	1.106180	0.473180	1.036779
C201	C	1.439514	0.806513	1.370112
C202	C	0.820233	0.092495	0.664031
C203	C	1.153567	0.425828	0.997365
C204	C	1.486900	0.759162	1.330698
H205	H	0.462556	0.209652	-0.000194
H206	H	0.795890	0.542986	0.333139
H207	H	1.129223	0.876319	0.666473
Br208	Br	0.931921	-0.019121	0.649917
Br209	Br	1.265255	0.314212	0.983251
Br210	Br	1.598588	0.647546	1.316584
H211	H	0.177866	-0.024674	-0.000247
H212	H	0.511200	0.308660	0.333087
H213	H	0.844533	0.641993	0.666420
H214	H	0.837110	-0.022324	0.571274
H215	H	1.170443	0.311009	0.904608
H216	H	1.503777	0.644342	1.237941
H217	H	0.906157	0.006579	0.185228
H218	H	1.239491	0.339912	0.518562
H219	H	1.572824	0.673246	0.851895
Br220	Br	0.668967	-0.525581	-0.000168
Br221	Br	1.002301	-0.192248	0.333165
Br222	Br	1.335634	0.141085	0.666498
H223	H	0.939306	-0.133741	-0.000246
H224	H	1.272639	0.199592	0.333088
H225	H	1.605973	0.532926	0.666421
Br226	Br	0.931920	-0.019126	0.835658
Br227	Br	1.265254	0.314207	1.168991
Br228	Br	1.598587	0.647541	1.502324
H229	H	0.493322	-0.020044	-0.000195
H230	H	0.826655	0.313289	0.333138
H231	H	1.159989	0.646623	0.666472
H232	H	0.837103	-0.022328	0.428313
H233	H	1.170436	0.311005	0.761646
H234	H	1.503769	0.644338	1.094980
H235	H	0.932744	-0.580626	-0.000261
H236	H	1.266078	-0.247293	0.333073
H237	H	1.599411	0.086040	0.666406
Br238	Br	-0.008601	0.237177	-0.000277
Br239	Br	0.324732	0.570511	0.333056
Br240	Br	0.658065	0.903844	0.666389
H241	H	0.701111	-0.681280	-0.000174
H242	H	1.034445	-0.347947	0.333159
H243	H	1.367778	-0.014614	0.666492
H244	H	0.709607	-0.102962	-0.000175
H245	H	1.042940	0.230371	0.333159
H246	H	1.376273	0.563705	0.666492
Br247	Br	0.931891	-0.019127	0.349568
Br248	Br	1.265224	0.314206	0.682902
Br249	Br	1.598557	0.647540	1.016235
Br250	Br	0.390228	0.208051	0.103179
Br251	Br	0.723562	0.541384	0.436512
Br252	Br	1.056895	0.874718	0.769846
Br253	Br	0.649029	-0.052201	-0.000141
Br254	Br	0.982362	0.281132	0.333193
Br255	Br	1.315695	0.614466	0.666526
Br256	Br	0.933258	-0.508220	0.103131
Br257	Br	1.266592	-0.174886	0.436464
Br258	Br	1.599925	0.158447	0.769797
Br259	Br	0.708548	0.204108	0.835742
Br260	Br	1.041881	0.537442	1.169075
Br261	Br	1.375215	0.870775	1.502409
H262	H	0.242666	0.179506	0.079343
H263	H	0.576000	0.512839	0.412676
H264	H	0.909333	0.846173	0.746009
H265	H	0.909146	-0.353588	0.079336
H266	H	1.242479	-0.020254	0.412669
H267	H	1.575813	0.313079	0.746002
Br268	Br	0.162160	0.239684	-0.000259
Br269	Br	0.495493	0.573017	0.333074
Br270	Br	0.828826	0.906350	0.666408
H271	H	0.734265	0.178403	0.671383
H272	H	1.067598	0.511736	1.004716
H273	H	1.400931	0.845069	1.338049
H274	H	0.731263	-0.461427	-0.079775
H275	H	1.064596	-0.128094	0.253559
H276	H	1.397930	0.205239	0.586892
H277	H	0.593982	0.211581	-0.000180
H278	H	0.927316	0.544914	0.333154
H279	H	1.260649	0.878247	0.666487
H280	H	0.046436	-0.026600	-0.000319
H281	H	0.379769	0.306734	0.333014
H282	H	0.713103	0.640067	0.666347
Br283	Br	0.798291	0.241671	0.592639
Br284	Br	1.131624	0.575004	0.925972
Br285	Br	1.464957	0.908338	1.259305
H286	H	0.266331	0.003548	-0.079822
H287	H	0.599664	0.336881	0.253512
H288	H	0.932998	0.670215	0.586845
H289	H	0.397755	0.005473	-0.079797
H290	H	0.731088	0.338807	0.253537
H291	H	1.064422	0.672140	0.586870
H292	H	0.803314	0.207312	0.428297
H293	H	1.136647	0.540645	0.761631
H294	H	1.469980	0.873979	1.094964
H295	H	0.930816	-0.712052	-0.000266
H296	H	1.264149	-0.378719	0.333068
H297	H	1.597482	-0.045385	0.666401
Br298	Br	0.708512	0.204099	0.349653
Br299	Br	1.041845	0.537433	0.682986
Br300	Br	1.375178	0.870766	1.016319
Br301	Br	0.708490	0.204093	0.163909
Br302	Br	1.041824	0.537426	0.497243
Br303	Br	1.375157	0.870760	0.830576
H304	H	0.937378	-0.265167	-0.000264
H305	H	1.270712	0.068166	0.333070
H306	H	1.604045	0.401499	0.666403
H307	H	0.707676	-0.234392	-0.000183
H308	H	1.041009	0.098942	0.333150
H309	H	1.374342	0.432275	0.666484
H310	H	0.733203	-0.330005	-0.079784
H311	H	1.066536	0.003328	0.253549
H312	H	1.399869	0.336661	0.586883
