data_functionalizedCrystal
_audit_creation_method	'MofGen! by Chris Wilmer'
_symmetry_space_group_name_H-M	'P1'
_symmetry_Int_Tables_number	1
_symmetry_cell_setting	triclinic
loop_
_symmetry_equiv_pos_as_xyz
  x,y,z
_cell_length_a	13.032831
_cell_length_b	14.908520
_cell_length_c	13.032268
_cell_angle_alpha	99.985811
_cell_angle_beta	90.886977
_cell_angle_gamma	86.522975
loop_
_atom_site_label
_atom_site_type_symbol
_atom_site_fract_x
_atom_site_fract_y
_atom_site_fract_z
Zn1	Zn	1.453341	-0.608125	-0.815711
Zn2	Zn	1.953341	-0.108125	-0.315711
Zn3	Zn	1.465124	-0.742288	-0.651425
Zn4	Zn	1.965124	-0.242288	-0.151425
Zn5	Zn	1.305991	-0.570509	-0.619794
Zn6	Zn	1.805991	-0.070509	-0.119794
Zn7	Zn	1.271734	-0.737420	-0.801271
Zn8	Zn	1.771734	-0.237420	-0.301271
O9	O	1.374048	-0.664586	-0.722050
O10	O	1.874048	-0.164586	-0.222050
O11	O	1.597505	-0.643703	-0.813198
O12	O	2.097505	-0.143703	-0.313198
O13	O	1.463283	-0.705796	-0.502526
O14	O	1.963283	-0.205796	-0.002526
O15	O	1.334942	-0.449498	-0.638589
O16	O	1.834942	0.050502	-0.138589
O17	O	1.606162	-0.742272	-0.692498
O18	O	2.106162	-0.242272	-0.192498
O19	O	1.443199	-0.477135	-0.782527
O20	O	1.943199	0.022865	-0.282527
O21	O	1.346369	-0.579590	-0.479287
O22	O	1.846369	-0.079590	0.020713
O23	O	1.158846	-0.574869	-0.624587
O24	O	1.658846	-0.074869	-0.124587
O25	O	1.276556	-0.733974	-0.947889
O26	O	1.776556	-0.233974	-0.447889
O27	O	1.133677	-0.697498	-0.757917
O28	O	1.633677	-0.197498	-0.257917
O29	O	1.409982	-0.638982	-0.958498
O30	O	1.909982	-0.138982	-0.458498
O31	O	1.430066	-0.867643	-0.678496
O32	O	1.930066	-0.367643	-0.178496
O33	O	1.287983	-0.864066	-0.788588
O34	O	1.787983	-0.364066	-0.288588
C35	C	1.109287	-0.631574	-0.686253
C36	C	1.609287	-0.131574	-0.186253
C37	C	0.996016	-0.617476	-0.670965
C38	C	1.496016	-0.117476	-0.170965
C39	C	0.933097	-0.671944	-0.730029
C40	C	1.433097	-0.171944	-0.230029
C41	C	0.816026	-0.657374	-0.714229
C42	C	1.316026	-0.157374	-0.214229
C43	C	1.356610	-0.898531	-0.735434
C44	C	1.856610	-0.398531	-0.235434
C45	C	1.349239	-0.998628	-0.741207
C46	C	1.849239	-0.498628	-0.241207
C47	C	1.483459	-1.190413	-0.637541
C48	C	1.983459	-0.690413	-0.137541
C49	C	1.476537	-1.284464	-0.642962
C50	C	1.976537	-0.784464	-0.142962
C51	C	1.328478	-1.280784	-0.757475
C52	C	1.828478	-0.780784	-0.257475
C53	C	1.335400	-1.186733	-0.752054
C54	C	1.835400	-0.686733	-0.252054
C55	C	1.412892	-1.141551	-0.692084
C56	C	1.912892	-0.641551	-0.192084
C57	C	1.419809	-1.047497	-0.686657
C58	C	1.919809	-0.547497	-0.186657
C59	C	1.271756	-1.043820	-0.801176
C60	C	1.771756	-0.543820	-0.301176
C61	C	1.264834	-1.137870	-0.806597
C62	C	1.764834	-0.637870	-0.306597
C63	C	1.639842	-0.697726	-0.757987
C64	C	2.139842	-0.197726	-0.257987
C65	C	1.753108	-0.711849	-0.773302
C66	C	2.253108	-0.211849	-0.273302
C67	C	1.338133	-0.690131	-0.991762
C68	C	1.838133	-0.190131	-0.491762
C69	C	1.322829	-0.701017	-1.106698
C70	C	1.822829	-0.201017	-0.606698
C71	C	1.391578	-0.429732	-0.708640
C72	C	1.891578	0.070268	-0.208640
C73	C	1.399048	-0.329652	-0.702926
C74	C	1.899048	0.170348	-0.202926
C75	C	1.382022	-0.658870	-1.163188
C76	C	1.882022	-0.158870	-0.663188
C77	C	1.366205	-0.670120	-1.281980
C78	C	1.866205	-0.170120	-0.781980
C79	C	1.409886	-0.639082	-0.453391
C80	C	1.909886	-0.139082	0.046609
C81	C	1.425406	-0.627967	-0.338469
C82	C	1.925406	-0.127967	0.161531
H83	H	0.963212	-0.560054	-0.608705
H84	H	1.463212	-0.060054	-0.108705
H85	H	1.546550	-1.153623	-0.588703
H86	H	2.046550	-0.653623	-0.088703
Cl87	Cl	1.231080	-1.337602	-0.832875
Cl88	Cl	1.731080	-0.837602	-0.332875
H89	H	1.214293	-1.004024	-0.845585
H90	H	1.714293	-0.504024	-0.345585
H91	H	0.783226	-0.599948	-0.651965
H92	H	1.283226	-0.099948	-0.151965
Cl93	Cl	1.269872	-0.738689	-1.343076
Cl94	Cl	1.769872	-0.238689	-0.843076
H95	H	1.482904	-1.010710	-0.637823
H96	H	1.982904	-0.510710	-0.137823
Cl97	Cl	1.565255	-1.345889	-0.574394
Cl98	Cl	2.065255	-0.845889	-0.074394
Cl99	Cl	1.167424	-1.194680	-0.881988
Cl100	Cl	1.667424	-0.694680	-0.381988
H101	H	1.444405	-0.614454	-1.123607
H102	H	1.944405	-0.114454	-0.623607
Cl103	Cl	1.521749	-0.559406	-1.277378
Cl104	Cl	2.021749	-0.059406	-0.777378
Cl105	Cl	1.226499	-0.769583	-1.167797
Cl106	Cl	1.726499	-0.269583	-0.667797
H107	H	0.965901	-0.729359	-0.792296
H108	H	1.465901	-0.229359	-0.292296
H109	H	0.785905	-0.769267	-0.835576
H110	H	1.285905	-0.269267	-0.335576
