data_functionalizedCrystal
_audit_creation_method	'MofGen! by Chris Wilmer'
_symmetry_space_group_name_H-M	'P1'
_symmetry_Int_Tables_number	1
_symmetry_cell_setting	triclinic
loop_
_symmetry_equiv_pos_as_xyz
  x,y,z
_cell_length_a	18.101398
_cell_length_b	18.101395
_cell_length_c	18.101389
_cell_angle_alpha	89.983159
_cell_angle_beta	89.975673
_cell_angle_gamma	90.026371
loop_
_atom_site_label
_atom_site_type_symbol
_atom_site_fract_x
_atom_site_fract_y
_atom_site_fract_z
Zn1	Zn	1.132121	-0.295001	-0.418847
Zn2	Zn	1.132017	-0.418826	-0.295009
Zn3	Zn	1.008280	-0.294993	-0.295008
Zn4	Zn	1.008231	-0.418795	-0.418797
O5	O	1.070162	-0.356904	-0.356915
O6	O	1.235740	-0.311443	-0.402440
O7	O	1.115580	-0.402410	-0.191376
O8	O	1.024772	-0.191361	-0.311456
O9	O	1.235664	-0.402417	-0.311457
O10	O	1.115757	-0.191367	-0.402440
O11	O	1.024671	-0.311430	-0.191375
O12	O	0.904641	-0.311399	-0.311408
O13	O	1.024688	-0.402363	-0.522437
O14	O	0.904604	-0.402356	-0.402355
O15	O	1.115710	-0.311412	-0.522473
O16	O	1.115532	-0.522455	-0.311409
O17	O	1.024587	-0.522432	-0.402356
C18	C	0.877752	-0.356874	-0.356877
C19	C	0.795437	-0.356879	-0.356878
C20	C	0.496347	-0.356925	-0.356940
C21	C	0.527670	-0.299412	-0.299997
C22	C	0.613288	-0.299566	-0.299754
C23	C	0.644729	-0.356901	-0.356909
C24	C	0.613611	-0.434909	-0.335587
C25	C	0.527966	-0.434590	-0.335191
C26	C	0.527961	-0.337109	-0.435339
C27	C	0.613612	-0.335371	-0.434911
C28	C	0.728589	-0.356893	-0.356893
C29	C	0.412487	-0.356939	-0.356954
C30	C	1.070063	-0.549314	-0.356893
C31	C	1.070088	-0.631628	-0.356909
C32	C	1.070251	-0.930719	-0.356949
C33	C	1.013163	-0.899410	-0.414312
C34	C	1.012892	-0.813792	-0.414133
C35	C	1.070170	-0.782337	-0.356930
C36	C	1.049041	-0.813472	-0.278878
C37	C	1.048673	-0.899117	-0.279221
C38	C	1.148593	-0.899073	-0.376950
C39	C	1.148132	-0.813422	-0.378661
C40	C	1.070126	-0.698477	-0.356914
C41	C	1.070293	-1.014579	-0.356959
C42	C	1.263324	-0.356934	-0.356954
C43	C	1.345638	-0.356948	-0.356971
C44	C	1.070205	-0.356885	-0.550077
C45	C	1.070223	-0.356877	-0.632391
C46	C	1.070282	-0.163742	-0.356953
C47	C	1.070333	-0.081428	-0.356970
C48	C	1.070266	-0.356738	-0.931482
C49	C	1.012801	-0.413780	-0.900134
C50	C	1.012956	-0.414045	-0.814516
C51	C	1.070244	-0.356807	-0.783100
C52	C	1.148270	-0.377998	-0.814206
C53	C	1.147949	-0.378372	-0.899851
C54	C	1.050385	-0.278379	-0.899905
C55	C	1.048649	-0.278832	-0.814254
C56	C	1.070237	-0.356845	-0.699240
C57	C	1.070279	-0.356702	-1.015342
C58	C	1.070162	-0.356869	-0.164505
C59	C	1.070287	-0.356668	-0.082191
H60	H	0.507705	-0.378999	-0.477766
H61	H	0.507954	-0.451397	-0.277877
N62	N	0.935930	-0.396388	-0.927400
H63	H	0.916139	-0.439817	-0.956297
H64	H	0.902590	-0.386307	-0.883805
H65	H	0.633975	-0.478909	-0.375763
N66	N	0.500502	-0.493279	-0.387716
H67	H	0.469521	-0.469565	-0.427589
H68	H	0.544070	-0.519228	-0.410974
N69	N	0.972595	-0.257655	-0.787315
H70	H	0.959012	-0.207457	-0.807530
H71	H	0.935482	-0.295464	-0.804824
H72	H	1.025796	-0.471508	-0.921661
N73	N	1.030338	-0.490979	-0.787378
H74	H	1.037937	-0.524852	-0.831051
H75	H	1.076778	-0.489715	-0.756498
H76	H	1.164804	-0.435654	-0.919836
N77	N	1.206594	-0.325743	-0.927331
H78	H	1.232541	-0.302405	-0.883806
H79	H	1.243638	-0.353721	-0.958274
N80	N	1.206512	-0.324692	-0.787270
H81	H	1.182822	-0.286203	-0.754563
H82	H	1.245159	-0.352541	-0.758247
H83	H	1.165415	-0.434671	-0.792765
N84	N	1.100046	-0.219545	-0.785931
H85	H	1.125598	-0.194878	-0.828989
H86	H	1.070701	-0.181590	-0.757464
H87	H	1.026252	-0.919970	-0.472374
N88	N	0.976330	-0.252802	-0.928492
H89	H	0.954918	-0.291756	-0.962207
H90	H	0.941749	-0.244340	-0.885523
N91	N	0.499406	-0.263054	-0.460985
H92	H	0.542352	-0.228436	-0.469486
H93	H	0.471043	-0.269547	-0.508580
H94	H	1.026111	-0.792740	-0.472007
H95	H	0.955448	-0.920990	-0.401230
H96	H	0.633956	-0.277966	-0.450989
H97	H	0.635017	-0.374209	-0.479611
H98	H	1.092240	-0.235880	-0.920179
N99	N	0.641971	-0.457565	-0.260489
H100	H	0.674969	-0.417418	-0.240173
H101	H	0.598855	-0.465514	-0.225956
N102	N	0.641163	-0.222941	-0.317447
H103	H	0.696960	-0.222895	-0.317320
H104	H	0.622674	-0.207611	-0.367802
N105	N	0.499139	-0.316395	-0.223452
H106	H	0.470212	-0.272714	-0.204289
H107	H	0.465993	-0.361247	-0.225437
H108	H	0.992380	-0.792080	-0.261633
H109	H	0.633741	-0.312665	-0.241661
N110	N	0.935977	-0.786721	-0.396577
H111	H	0.902118	-0.830424	-0.388921
H112	H	0.937308	-0.755858	-0.350125
N113	N	1.174116	-0.927629	-0.451054
H114	H	1.135149	-0.961374	-0.472412
H115	H	1.182549	-0.884648	-0.485638
H116	H	0.991406	-0.919153	-0.262279
N117	N	1.169246	-0.786468	-0.454748
H118	H	1.128487	-0.754252	-0.475061
H119	H	1.216483	-0.756925	-0.451572
H120	H	0.507099	-0.241388	-0.313215
N121	N	1.101355	-0.926561	-0.220677
H122	H	1.124712	-0.883022	-0.194759
H123	H	1.073415	-0.957536	-0.183593
N124	N	1.102381	-0.786489	-0.220714
H125	H	1.140847	-0.753743	-0.244457
H126	H	1.074549	-0.757495	-0.182019
N127	N	1.207459	-0.785054	-0.327361
H128	H	1.184537	-0.751503	-0.289132
H129	H	1.232132	-0.828133	-0.301911
H130	H	1.191125	-0.919319	-0.335170
N131	N	0.936317	-0.396455	-0.786666
H132	H	0.900421	-0.434880	-0.805335
H133	H	0.936326	-0.396574	-0.730871
