data_functionalizedCrystal
_audit_creation_method	'MofGen! by Chris Wilmer'
_symmetry_space_group_name_H-M	'P1'
_symmetry_Int_Tables_number	1
_symmetry_cell_setting	triclinic
loop_
_symmetry_equiv_pos_as_xyz
  x,y,z
_cell_length_a	11.792241
_cell_length_b	15.072220
_cell_length_c	11.792254
_cell_angle_alpha	90.001249
_cell_angle_beta	84.196007
_cell_angle_gamma	90.008318
loop_
_atom_site_label
_atom_site_type_symbol
_atom_site_fract_x
_atom_site_fract_y
_atom_site_fract_z
O1	O	1.506930	0.073697	0.155559
O2	O	2.006930	0.573697	0.655559
O3	O	1.176589	0.073717	0.171592
O4	O	1.676589	0.573717	0.671592
O5	O	1.349769	0.073700	-0.001594
O6	O	1.849769	0.573700	0.498406
O7	O	1.333751	0.073714	0.328745
O8	O	1.833751	0.573714	0.828745
O9	O	1.349726	-0.073865	-0.001584
O10	O	1.849726	0.426135	0.498416
O11	O	1.176546	-0.073848	0.171602
O12	O	1.676546	0.426152	0.671602
O13	O	1.506887	-0.073868	0.155569
O14	O	2.006887	0.426132	0.655569
Zn15	Zn	1.341710	-0.097287	0.163587
Zn16	Zn	1.841710	0.402713	0.663587
Zn17	Zn	1.341766	0.097136	0.163574
Zn18	Zn	1.841766	0.597136	0.663574
O19	O	1.333708	-0.073851	0.328755
O20	O	1.833708	0.426149	0.828755
C21	C	1.134277	-0.000062	0.170590
C22	C	1.634277	0.499938	0.670590
C23	C	1.008263	-0.000055	0.167576
C24	C	1.508263	0.499945	0.667576
N25	N	1.341679	-0.229976	0.163595
N26	N	1.841679	0.270024	0.663595
C27	C	0.777551	-0.000080	0.162033
C28	C	1.277551	0.499920	0.662033
C29	C	0.905936	-0.000066	0.165112
C30	C	1.405936	0.499934	0.665112
C31	C	1.341764	-0.589177	0.163570
C32	C	1.841764	-0.089177	0.663570
C33	C	1.248784	-0.551561	0.255924
C34	C	1.748784	-0.051561	0.755924
C35	C	1.249001	-0.448736	0.256264
C36	C	1.749001	0.051264	0.756264
C37	C	1.341721	-0.410973	0.163582
C38	C	1.841721	0.089027	0.663582
C39	C	1.460310	-0.448271	0.190177
C40	C	1.960310	0.051729	0.690177
C41	C	1.459790	-0.551129	0.190834
C42	C	1.959790	-0.051129	0.690834
C43	C	1.317209	-0.551281	0.044352
C44	C	1.817209	-0.051281	0.544352
C45	C	1.314497	-0.448417	0.045130
C46	C	1.814497	0.051583	0.545130
C47	C	1.341704	-0.310260	0.163587
C48	C	1.841704	0.189740	0.663587
C49	C	1.341789	-0.689891	0.163568
C50	C	1.841789	-0.189891	0.663568
C51	C	1.549199	-0.000086	0.156571
C52	C	2.049199	0.499914	0.656571
C53	C	1.675213	-0.000088	0.159586
C54	C	2.175213	0.499912	0.659586
C55	C	1.348738	-0.000082	-0.043880
C56	C	1.848738	0.499918	0.456120
C57	C	1.345718	-0.000081	-0.169893
C58	C	1.845718	0.499919	0.330107
N59	N	1.341806	0.229825	0.163558
N60	N	1.841806	0.729825	0.663558
C61	C	1.343264	-0.000078	-0.272229
C62	C	1.843264	0.499922	0.227771
C63	C	1.340196	-0.000069	-0.400616
C64	C	1.840196	0.499931	0.099384
C65	C	1.334738	-0.000067	0.371041
C66	C	1.834738	0.499933	0.871041
C67	C	1.337758	-0.000062	0.497054
C68	C	1.837758	0.499938	0.997054
H69	H	1.160875	-0.423520	0.240312
H70	H	1.660875	0.076480	0.740312
F71	F	1.489096	-0.414588	0.302559
F72	F	1.989096	0.085412	0.802559
H73	H	1.531182	-0.423809	0.124731
H74	H	2.031182	0.076191	0.624731
H75	H	1.160376	-0.576318	0.240223
H76	H	1.660376	-0.076318	0.740223
H77	H	1.232573	-0.577267	0.018960
H78	H	1.732573	-0.077267	0.518960
H79	H	1.531179	-0.576010	0.126260
H80	H	2.031179	-0.076010	0.626260
F81	F	1.200469	-0.416557	0.018769
F82	F	1.700469	0.083443	0.518769
F83	F	1.397198	-0.414833	-0.048983
F84	F	1.897198	0.085167	0.451017
H85	H	1.264328	-0.577397	0.343879
H86	H	1.764328	-0.077397	0.843879
F87	F	1.269558	-0.416556	0.371891
F88	F	1.769558	0.083444	0.871891
H89	H	1.481315	-0.575108	0.277801
H90	H	1.981315	-0.075108	0.777801
F91	F	1.405823	-0.583075	-0.045491
F92	F	1.905823	-0.083075	0.454509
