data_functionalizedCrystal
_audit_creation_method	'MofGen! by Chris Wilmer'
_symmetry_space_group_name_H-M	'P1'
_symmetry_Int_Tables_number	1
_symmetry_cell_setting	triclinic
loop_
_symmetry_equiv_pos_as_xyz
  x,y,z
_cell_length_a	23.096457
_cell_length_b	12.970454
_cell_length_c	12.970454
_cell_angle_alpha	60.000396
_cell_angle_beta	89.997856
_cell_angle_gamma	59.998155
loop_
_atom_site_label
_atom_site_type_symbol
_atom_site_fract_x
_atom_site_fract_y
_atom_site_fract_z
Zr1	Zr	0.557779	1.128487	-0.135311
O2	O	0.465329	1.343579	-0.299929
O3	O	0.586119	0.913397	-0.084848
O4	O	0.586120	1.128485	-0.299936
O5	O	0.465328	1.128492	0.084825
O6	O	0.681403	1.128481	-0.299939
O7	O	0.465328	1.128491	-0.084841
O8	O	0.681400	0.743728	0.084814
O9	O	0.465330	1.513245	-0.299928
O10	O	0.669314	1.001863	-0.063327
O11	O	0.598206	1.001867	0.063296
O12	O	0.598207	1.255105	-0.189942
O13	O	0.527099	1.255108	-0.063319
Zr14	Zr	0.709742	1.128482	0.135282
Zr15	Zr	0.709743	1.128481	-0.135316
Zr16	Zr	0.557778	1.128488	0.135288
Zr17	Zr	0.557779	1.399085	-0.135308
Zr18	Zr	0.709741	0.857884	0.135280
O19	O	0.681402	1.343572	0.084819
O20	O	0.681403	1.343570	-0.299937
O21	O	0.465328	1.343581	0.084827
O22	O	0.802191	0.913390	0.299900
O23	O	0.802193	0.913388	-0.084856
O24	O	0.586118	0.913399	0.299909
O25	O	0.802193	1.128477	-0.084854
O26	O	0.681400	1.128484	0.299907
O27	O	0.586118	1.128488	0.299910
O28	O	0.802193	1.128478	0.084813
O29	O	0.586121	1.513240	-0.299932
O30	O	0.681400	0.743729	0.299904
O31	O	0.802191	0.743724	0.299899
O32	O	0.802192	0.743723	0.084809
O33	O	0.465329	1.513246	-0.084838
O34	O	0.586120	1.513241	-0.084843
O35	O	0.669313	1.001864	0.189914
O36	O	0.740422	1.001861	0.063291
O37	O	0.669315	1.255102	-0.063325
O38	O	0.598206	1.255106	0.063298
C39	C	0.633760	0.790008	-0.000017
C40	C	0.633759	0.675132	-0.000018
C41	C	0.443676	1.128493	-0.000007
C42	C	0.379163	1.128495	-0.000005
C43	C	0.348861	1.128505	-0.093481
C44	C	0.288249	1.128492	-0.093481
C45	C	0.257933	1.128498	-0.000014
C46	C	0.288245	1.128480	0.093479
C47	C	0.348860	1.128478	0.093484
N48	N	0.139581	1.211045	0.028284
N49	N	0.081998	1.211049	0.028272
C50	C	0.075304	1.128499	-0.000020
N51	N	0.128362	1.045963	-0.028324
N52	N	0.185948	1.045965	-0.028318
C53	C	0.192206	1.128499	-0.000008
C54	C	-0.020721	1.128493	-0.093502
C55	C	-0.081332	1.128470	-0.093494
C56	C	-0.081338	1.128472	0.093462
C57	C	-0.020725	1.128480	0.093459
C58	C	0.009579	1.128497	-0.000030
C59	C	0.823845	1.128476	-0.000021
C60	C	0.888357	1.128474	-0.000024
C61	C	0.633762	1.128483	-0.338492
C62	C	0.633762	1.128482	-0.453368
C63	C	0.633761	1.466961	-0.000011
C64	C	0.633761	1.581837	-0.000010
C65	C	0.633759	1.128486	0.338463
C66	C	0.633759	1.128487	0.453339
C67	C	0.823844	0.790000	-0.000024
C68	C	0.888356	0.675122	-0.000028
C69	C	0.633758	0.790010	0.338460
C70	C	0.633758	0.675135	0.453335
C71	C	0.823843	0.790002	0.338453
C72	C	0.888355	0.675124	0.453326
C73	C	0.443678	1.466967	-0.338482
C74	C	0.379166	1.581845	-0.453355
C75	C	0.443677	1.466969	-0.000004
C76	C	0.379164	1.581847	-0.000001
C77	C	0.633762	1.466959	-0.338489
C78	C	0.633763	1.581834	-0.453364
C79	C	0.881535	0.621175	-0.066134
C80	C	0.942145	0.513249	-0.066162
C81	C	1.009577	0.459265	-0.000077
C82	C	1.016397	0.513223	0.066031
C83	C	0.955787	0.621154	0.066052
C84	C	0.955775	0.621174	0.441175
C85	C	1.016396	0.513249	0.549100
C86	C	1.009597	0.459269	0.669174
C87	C	0.942170	0.513229	0.681322
C88	C	0.881549	0.621159	0.573399
C89	C	0.311746	1.635808	-0.441204
C90	C	0.251124	1.743766	-0.549129
C91	C	0.257924	1.797753	-0.669203
C92	C	0.325351	1.743785	-0.681351
C93	C	0.385971	1.635836	-0.573427
C94	C	0.385986	1.635806	0.066094
C95	C	0.325375	1.743761	0.066093
C96	C	0.257944	1.797749	0.000003
C97	C	0.251123	1.743786	-0.066100
C98	C	0.311733	1.635840	-0.066105
H99	H	0.263572	1.128500	-0.169604
H100	H	1.071293	0.469326	0.539187
O101	O	0.192573	1.914136	0.000054
H102	H	0.208652	1.942555	0.057144
H103	H	0.373533	1.128514	-0.169603
O104	O	1.074986	0.342845	0.785570
H105	H	1.074947	0.244491	0.842563
H106	H	0.961352	0.665063	0.119890
O107	O	0.458708	1.577612	0.137373
H108	H	0.488104	1.458549	0.210445
H109	H	0.330942	1.787679	0.119926
O110	O	0.808836	0.679312	0.586529
H111	H	0.779429	0.798378	0.540539
H112	H	0.196213	1.787760	-0.119908
O113	O	0.934839	0.454982	0.810833
H114	H	0.988323	0.370853	0.883827
H115	H	0.936578	0.469330	-0.119995
H116	H	0.196228	1.787688	-0.539213
H117	H	0.826634	0.665127	-0.119964
O118	O	0.304372	1.577631	-0.137383
H119	H	0.247299	1.633305	-0.183322
H120	H	-0.106019	1.128469	0.169570
H121	H	0.306196	1.591858	-0.343444
O122	O	0.011963	1.128473	0.194280
H123	H	-0.027423	1.227318	0.189683
O124	O	0.255551	1.128493	0.194291
H125	H	0.208305	1.128512	0.178577
O126	O	1.074948	0.342842	-0.000092
H127	H	1.058869	0.314395	-0.057154
O128	O	1.089129	0.454980	0.137320
H129	H	1.130122	0.370853	0.126206
O130	O	0.192538	1.914200	-0.785604
H131	H	0.144517	1.942643	-0.756970
H132	H	0.373533	1.128470	0.169606
H133	H	-0.106002	1.128469	-0.169611
H134	H	0.003955	1.128500	-0.169623
O135	O	0.963117	0.679402	0.311673
H136	H	1.020187	0.623758	0.321377
H137	H	0.330879	1.787755	-0.779128
O138	O	0.458689	1.577616	-0.586538
H139	H	0.453225	1.633287	-0.688167
