data_functionalizedCrystal
_audit_creation_method	'MofGen! by Chris Wilmer'
_symmetry_space_group_name_H-M	'P1'
_symmetry_Int_Tables_number	1
_symmetry_cell_setting	triclinic
loop_
_symmetry_equiv_pos_as_xyz
  x,y,z
_cell_length_a	17.699104
_cell_length_b	19.188928
_cell_length_c	18.266242
_cell_angle_alpha	89.986251
_cell_angle_beta	90.009923
_cell_angle_gamma	96.782335
loop_
_atom_site_label
_atom_site_type_symbol
_atom_site_fract_x
_atom_site_fract_y
_atom_site_fract_z
O1	O	1.003954	-0.088363	0.060908
O2	O	1.503954	0.411637	0.560908
O3	O	0.783562	-0.099835	0.060907
O4	O	1.283562	0.400165	0.560907
O5	O	0.900119	0.007549	0.060889
O6	O	1.400119	0.507549	0.560889
O7	O	0.887397	-0.195747	0.060926
O8	O	1.387397	0.304253	0.560926
O9	O	0.900099	0.007555	-0.060873
O10	O	1.400099	0.507555	0.439127
O11	O	0.783542	-0.099830	-0.060854
O12	O	1.283542	0.400170	0.439146
O13	O	1.003934	-0.088358	-0.060854
O14	O	1.503934	0.411642	0.439146
Zn15	Zn	0.893735	-0.094093	-0.080187
Zn16	Zn	1.393735	0.405907	0.419813
Zn17	Zn	0.893761	-0.094100	0.080240
Zn18	Zn	1.393761	0.405900	0.580240
O19	O	0.887377	-0.195742	-0.060836
O20	O	1.387377	0.304258	0.439164
C21	C	0.755356	-0.099419	0.000026
C22	C	1.255356	0.400581	0.500026
C23	C	0.671340	-0.098178	0.000025
C24	C	1.171340	0.401822	0.500025
C25	C	0.146395	-0.154214	0.000043
C26	C	0.646395	0.345786	0.500043
C27	C	0.225337	-0.155375	0.000045
C28	C	0.725337	0.344625	0.500045
C29	C	0.274038	-0.092337	0.000034
C30	C	0.774038	0.407663	0.500034
C31	C	0.243794	-0.028132	0.000027
C32	C	0.743794	0.471868	0.500027
C33	C	0.164853	-0.026972	0.000030
C34	C	0.664853	0.473028	0.500030
C35	C	0.562154	-0.032812	0.000016
C36	C	1.062154	0.467188	0.500016
C37	C	0.641099	-0.033978	0.000011
C38	C	1.141099	0.466022	0.500011
C39	C	0.622638	-0.161216	0.000032
C40	C	1.122638	0.338784	0.500032
C41	C	0.543697	-0.160055	0.000035
C42	C	1.043697	0.339945	0.500035
C43	C	0.513459	-0.095852	0.000032
C44	C	1.013459	0.404148	0.500032
C45	C	0.427861	-0.094593	0.000031
C46	C	0.927861	0.405407	0.500031
C47	C	0.359635	-0.093595	0.000030
C48	C	0.859635	0.406405	0.500030
C49	C	0.899697	0.033563	0.000005
C50	C	1.399697	0.533563	0.500005
C51	C	0.898461	0.111069	-0.000005
C52	C	1.398461	0.611069	0.499995
C53	C	0.966853	0.155912	-0.000010
C54	C	1.466853	0.655912	0.499990
C55	C	0.965692	0.228737	-0.000001
C56	C	1.465692	0.728737	0.499999
C57	C	0.896135	0.256717	-0.000002
C58	C	1.396135	0.756717	0.499998
C59	C	0.827735	0.211864	0.000007
C60	C	1.327735	0.711864	0.500007
C61	C	0.828898	0.139041	0.000006
C62	C	1.328898	0.639041	0.500006
N63	N	0.842962	0.364787	-0.041445
N64	N	1.342962	0.864787	0.458555
N65	N	0.841862	0.433967	-0.041445
N66	N	1.341862	0.933967	0.458555
C67	C	0.892627	0.476130	0.000004
C68	C	1.392627	0.976130	0.500004
N69	N	0.944546	0.446501	0.041443
N70	N	1.444546	0.946501	0.541443
N71	N	0.945648	0.377314	0.041440
N72	N	1.445648	0.877314	0.541440
C73	C	0.894867	0.335681	-0.000000
C74	C	1.394867	0.835681	0.500000
C75	C	0.959765	0.599938	0.000009
C76	C	1.459765	1.099938	0.500009
C77	C	0.958601	0.672765	0.000022
C78	C	1.458601	1.172765	0.500022
C79	C	0.820642	0.655890	0.000023
C80	C	1.320642	1.155890	0.500023
C81	C	0.821808	0.583065	0.000017
C82	C	1.321808	1.083065	0.500017
C83	C	0.891371	0.555094	0.000007
C84	C	1.391371	1.055094	0.500007
C85	C	1.032140	-0.088774	0.000029
C86	C	1.532140	0.411226	0.500029
C87	C	1.116155	-0.090015	0.000034
C88	C	1.616155	0.409985	0.500034
N89	N	0.893723	-0.094087	-0.189674
N90	N	1.393723	0.405913	0.310326
C91	C	0.887801	0.778244	0.000039
C92	C	1.387801	1.278244	0.500039
C93	C	0.889044	0.700739	0.000023
C94	C	1.389044	1.200739	0.500023
C95	C	0.945351	-0.046561	-0.227991
C96	C	1.445351	0.453439	0.272009
C97	C	0.945356	-0.046558	-0.304636
C98	C	1.445356	0.453442	0.195364
C99	C	0.893740	-0.094093	-0.342961
C100	C	1.393740	0.405907	0.157039
C101	C	0.842102	-0.141623	-0.304634
C102	C	1.342102	0.358377	0.195366
C103	C	0.842093	-0.141620	-0.227991
C104	C	1.342093	0.358380	0.272009
N105	N	0.883901	-0.155889	-0.463282
N106	N	1.383901	0.344111	0.036718
N107	N	0.883914	-0.155889	-0.536090
N108	N	1.383914	0.344111	-0.036090
C109	C	0.893761	-0.094103	-0.573883
C110	C	1.393761	0.405897	-0.073883
N111	N	0.903610	-0.032314	-0.536118
N112	N	1.403610	0.467686	-0.036118
N113	N	0.903601	-0.032315	-0.463303
N114	N	1.403601	0.467685	0.036697
C115	C	0.893743	-0.094101	-0.426068
C116	C	1.393743	0.405899	0.073932
C117	C	0.945397	-0.046569	-0.695307
C118	C	1.445397	0.453431	-0.195307
C119	C	0.945397	-0.046565	-0.771953
C120	C	1.445397	0.453435	-0.271953
C121	C	0.842146	-0.141636	-0.771951
C122	C	1.342146	0.358364	-0.271951
C123	C	0.842143	-0.141634	-0.695306
C124	C	1.342143	0.358366	-0.195306
C125	C	0.893773	-0.094102	-0.656989
C126	C	1.393773	0.405898	-0.156989
N127	N	0.893779	-0.094100	0.189727
N128	N	1.393779	0.405900	0.689727
H129	H	0.537544	0.019466	0.000012
H130	H	1.037544	0.519466	0.500012
N131	N	0.751940	0.537265	0.000020
N132	N	1.251940	1.037265	0.500020
N133	N	0.689839	0.562252	0.000022
N134	N	1.189839	1.062252	0.500022
H135	H	0.640491	0.529906	0.000026
H136	H	1.140491	1.029906	0.500026
N137	N	0.998106	0.001972	-0.343798
N138	N	1.498106	0.501972	0.156202
N139	N	0.998111	0.001953	-0.412229
N140	N	1.498111	0.501953	0.087771
H141	H	1.035369	0.036224	-0.439887
H142	H	1.535369	0.536224	0.060113
N143	N	0.759027	0.093241	0.000015
N144	N	1.259027	0.593241	0.500015
N145	N	0.696926	0.118227	0.000022
N146	N	1.196926	0.618227	0.500022
H147	H	0.647578	0.085880	0.000028
H148	H	1.147578	0.585880	0.500028
H149	H	0.771102	0.234650	0.000008
H150	H	1.271102	0.734650	0.500008
H151	H	0.140234	0.025306	0.000024
H152	H	0.640234	0.525306	0.500024
N153	N	0.293549	0.036254	0.000024
N154	N	0.793549	0.536254	0.500024
N155	N	0.364030	0.035211	0.000022
N156	N	0.864030	0.535211	0.500022
H157	H	0.399170	0.080685	0.000019
H158	H	0.899170	0.580685	0.500019
N159	N	1.037914	0.127353	-0.000019
N160	N	1.537914	0.627353	0.499981
N161	N	1.098974	0.167405	-0.000021
N162	N	1.598974	0.667405	0.499979
H163	H	1.149163	0.147235	-0.000026
H164	H	1.649163	0.647235	0.499974
N165	N	1.030825	0.571372	-0.000004
N166	N	1.530825	1.071372	0.499996
N167	N	1.091886	0.611423	-0.000004
N168	N	1.591886	1.111423	0.499996
H169	H	1.142073	0.591251	-0.000014
H170	H	1.642073	1.091251	0.499986
N171	N	1.035562	0.274544	-0.000006
N172	N	1.535562	0.774544	0.499994
N173	N	1.097664	0.249560	-0.000013
N174	N	1.597664	0.749560	0.499987
H175	H	1.147011	0.281909	-0.000017
H176	H	1.647011	0.781909	0.499983
N177	N	0.789419	-0.190182	-0.811100
N178	N	1.289419	0.309818	-0.311100
N179	N	0.789428	-0.190175	-0.879531
N180	N	1.289428	0.309825	-0.379531
H181	H	0.752185	-0.224459	-0.907185
H182	H	1.252185	0.275541	-0.407185
N183	N	1.028472	0.718563	0.000027
N184	N	1.528472	1.218563	0.500027
N185	N	1.090572	0.693576	0.000020
N186	N	1.590572	1.193576	0.500020
H187	H	1.139921	0.725921	0.000025
H188	H	1.639921	1.225921	0.500025
H189	H	0.987389	-0.007855	-0.196795
H190	H	1.487389	0.492145	0.303205
H191	H	0.764008	0.678670	0.000026
H192	H	1.264008	1.178670	0.500026
N193	N	0.789377	-0.190170	-0.343790
N194	N	1.289377	0.309830	0.156210
N195	N	0.789392	-0.190167	-0.412221
N196	N	1.289392	0.309833	0.087779
H197	H	0.752151	-0.224452	-0.439875
H198	H	1.252151	0.275548	0.060125
N199	N	0.789347	-0.190173	-0.188858
N200	N	1.289347	0.309827	0.311142
N201	N	0.743259	-0.232609	-0.223081
N202	N	1.243259	0.267391	0.276919
H203	H	0.706006	-0.266900	-0.195443
H204	H	1.206006	0.233100	0.304557
H205	H	0.987435	-0.007863	-0.664108
H206	H	1.487435	0.492137	-0.164108
N207	N	0.998135	0.001996	-0.811085
N208	N	1.498135	0.501996	-0.311085
N209	N	1.044224	0.044430	-0.776860
N210	N	1.544224	0.544430	-0.276860
H211	H	1.081472	0.078728	-0.804496
H212	H	1.581472	0.578728	-0.304496
H213	H	0.249954	-0.207653	0.000059
H214	H	0.749954	0.292347	0.500059
H215	H	0.800106	-0.180338	-0.664106
H216	H	1.300106	0.319662	-0.164106
H217	H	0.647267	-0.213494	0.000037
H218	H	1.147267	0.286506	0.500037
N219	N	0.493962	-0.224454	0.000039
N220	N	0.993962	0.275546	0.500039
N221	N	0.520972	-0.281772	0.000048
N222	N	1.020972	0.218228	0.500048
H223	H	0.485848	-0.327256	0.000053
H224	H	0.985848	0.172744	0.500053
N225	N	0.096652	-0.218608	0.000039
N226	N	0.596652	0.281392	0.500039
N227	N	0.099280	-0.261331	-0.051282
N228	N	0.599280	0.238669	0.448718
H229	H	0.064150	-0.306812	-0.051285
H230	H	0.564150	0.193188	0.448715
N231	N	0.690849	0.030418	-0.000011
N232	N	1.190849	0.530418	0.499989
N233	N	0.688203	0.073151	-0.051342
N234	N	1.188203	0.573151	0.448658
H235	H	0.723339	0.118628	-0.051360
H236	H	1.223339	0.618628	0.448640
