data_functionalizedCrystal
_audit_creation_method	'MofGen! by Chris Wilmer'
_symmetry_space_group_name_H-M	'P1'
_symmetry_Int_Tables_number	1
_symmetry_cell_setting	triclinic
loop_
_symmetry_equiv_pos_as_xyz
  x,y,z
_cell_length_a	14.908783
_cell_length_b	17.637651
_cell_length_c	14.908308
_cell_angle_alpha	81.356405
_cell_angle_beta	89.788727
_cell_angle_gamma	103.762219
loop_
_atom_site_label
_atom_site_type_symbol
_atom_site_fract_x
_atom_site_fract_y
_atom_site_fract_z
Zn1	Zn	1.285512	-0.276155	-0.520588
Zn2	Zn	1.785512	0.223845	-0.020588
Zn3	Zn	1.267236	-0.400174	-0.340031
Zn4	Zn	1.767236	0.099826	0.159969
Zn5	Zn	1.144010	-0.275301	-0.361768
Zn6	Zn	1.644010	0.224699	0.138232
Zn7	Zn	1.104987	-0.415293	-0.477972
Zn8	Zn	1.604987	0.084707	0.022028
O9	O	1.200436	-0.341731	-0.425090
O10	O	1.700436	0.158269	0.074910
O11	O	1.410208	-0.286637	-0.505376
O12	O	1.910208	0.213363	-0.005376
O13	O	1.259572	-0.376924	-0.218719
O14	O	1.759572	0.123076	0.281281
O15	O	1.186761	-0.164925	-0.409768
O16	O	1.686761	0.335075	0.090232
O17	O	1.396780	-0.377753	-0.372721
O18	O	1.896780	0.122247	0.127279
O19	O	1.290721	-0.165553	-0.526453
O20	O	1.790721	0.334447	-0.026453
O21	O	1.169039	-0.285181	-0.234689
O22	O	1.669039	0.214819	0.265311
O23	O	1.011713	-0.299841	-0.368444
O24	O	1.511713	0.200159	0.131556
O25	O	1.120251	-0.403521	-0.607820
O26	O	1.620251	0.096479	-0.107820
O27	O	0.983043	-0.402692	-0.453818
O28	O	1.483043	0.097308	0.046182
O29	O	1.252882	-0.301297	-0.639131
O30	O	1.752882	0.198703	-0.139131
O31	O	1.221733	-0.512669	-0.331397
O32	O	1.721733	-0.012669	0.168603
O33	O	1.102530	-0.523776	-0.432741
O34	O	1.602530	-0.023776	0.067259
C35	C	0.964417	-0.352815	-0.408866
C36	C	1.464417	0.147185	0.091134
C37	C	0.863441	-0.357577	-0.401942
C38	C	1.363441	0.142423	0.098058
C39	C	0.687635	-0.271794	-0.527203
C40	C	1.187635	0.228206	-0.027203
C41	C	0.592760	-0.276266	-0.520701
C42	C	1.092760	0.223734	-0.020701
C43	C	0.578815	-0.370988	-0.382432
C44	C	1.078815	0.129012	0.117568
C45	C	0.673690	-0.366516	-0.388934
C46	C	1.173690	0.133484	0.111066
C47	C	0.728097	-0.316918	-0.461323
C48	C	1.228097	0.183082	0.038677
C49	C	0.822973	-0.312451	-0.467828
C50	C	1.322973	0.187549	0.032172
C51	C	0.809027	-0.407168	-0.329556
C52	C	1.309027	0.092832	0.170444
C53	C	0.714152	-0.411640	-0.323054
C54	C	1.214152	0.088360	0.176946
C55	C	1.155937	-0.546871	-0.375107
C56	C	1.655937	-0.046871	0.124893
C57	C	1.136981	-0.634628	-0.353760
C58	C	1.636981	-0.134628	0.146240
C59	C	1.345013	-0.924619	-0.587584
C60	C	1.845013	-0.424619	-0.087584
C61	C	1.327173	-1.007081	-0.567507
C62	C	1.827173	-0.507081	-0.067507
C63	C	1.219004	-1.006525	-0.445899
C64	C	1.719004	-0.506525	0.054101
C65	C	1.236838	-0.924061	-0.465963
C66	C	1.736838	-0.424061	0.034037
C67	C	1.299843	-0.883114	-0.536807
C68	C	1.799843	-0.383114	-0.036807
C69	C	1.191668	-0.882556	-0.415185
C70	C	1.691668	-0.382556	0.084815
C71	C	1.209497	-0.800100	-0.435251
C72	C	1.709497	-0.300100	0.064749
C73	C	1.272497	-0.759148	-0.506093
C74	C	1.772497	-0.259148	-0.006093
C75	C	1.317672	-0.800658	-0.556872
C76	C	1.817672	-0.300658	-0.056872
C77	C	1.128659	-0.923505	-0.344346
C78	C	1.628659	-0.423505	0.155654
C79	C	1.083488	-0.882000	-0.293568
C80	C	1.583488	-0.382000	0.206432
C81	C	1.101322	-0.799542	-0.313629
C82	C	1.601322	-0.299542	0.186371
C83	C	1.164322	-0.758590	-0.384472
C84	C	1.664322	-0.258590	0.115528
C85	C	1.056147	-0.758032	-0.262850
C86	C	1.556147	-0.258032	0.237150
C87	C	1.073976	-0.675575	-0.282916
C88	C	1.573976	-0.175575	0.217084
C89	C	1.182151	-0.676133	-0.404537
C90	C	1.682151	-0.176133	0.095463
C91	C	1.437377	-0.330604	-0.441377
C92	C	1.937377	0.169396	0.058623
C93	C	1.538347	-0.325862	-0.448318
C94	C	2.038347	0.174138	0.051682
C95	C	1.184252	-0.354191	-0.656578
C96	C	1.684252	0.145809	-0.156578
C97	C	1.177356	-0.359500	-0.755225
C98	C	1.677356	0.140500	-0.255225
C99	C	1.245132	-0.135789	-0.475289
C100	C	1.745132	0.364211	0.024711
C101	C	1.264179	-0.048029	-0.496681
C102	C	1.764179	0.451971	0.003319
C103	C	1.302507	-0.263014	-0.973202
C104	C	1.802507	0.236986	-0.473202
C105	C	1.296030	-0.268000	-1.065891
C106	C	1.796030	0.232000	-0.565891
C107	C	1.157924	-0.374454	-1.033292
C108	C	1.657924	0.125546	-0.533292
C109	C	1.164400	-0.369468	-0.940604
C110	C	1.664400	0.130532	-0.440604
C111	C	1.236695	-0.313747	-0.910563
C112	C	1.736695	0.186253	-0.410563
C113	C	1.243174	-0.308765	-0.817872
C114	C	1.743174	0.191235	-0.317872
C115	C	1.105065	-0.415215	-0.785276
C116	C	1.605065	0.084785	-0.285276
C117	C	1.098588	-0.420201	-0.877965
C118	C	1.598588	0.079799	-0.377965
C119	C	1.216621	-0.329260	-0.194519
C120	C	1.716621	0.170740	0.305481
C121	C	1.223742	-0.323719	-0.095939
C122	C	1.723742	0.176281	0.404061
H123	H	1.233463	-0.642792	-0.462219
H124	H	1.733463	-0.142792	0.037781
C125	C	1.386979	-0.755612	-0.634805
C126	C	1.886979	-0.255612	-0.134805
N127	N	1.439176	-0.721684	-0.693506
N128	N	1.939176	-0.221684	-0.193506
H129	H	1.302041	-0.263395	-0.793415
H130	H	1.802041	0.236605	-0.293415
H131	H	1.032188	-0.915350	-0.235889
H132	H	1.532188	-0.415350	0.264111
C133	C	1.292111	-0.668442	-0.528164
C134	C	1.792111	-0.168442	-0.028164
N135	N	1.306885	-0.600122	-0.544787
N136	N	1.806885	-0.100122	-0.044787
H137	H	1.349619	-0.226686	-1.116890
H138	H	1.849619	0.273314	-0.616890
C139	C	0.747484	-0.217241	-0.606834
C140	C	1.247484	0.282759	-0.106834
N141	N	0.792561	-0.176150	-0.666813
N142	N	1.292561	0.323850	-0.166813
H143	H	1.361375	-0.217648	-0.948742
H144	H	1.861375	0.282352	-0.448742
H145	H	0.841979	-0.443918	-0.275917
H146	H	1.341979	0.056082	0.224083
H147	H	1.051478	-0.456528	-0.734264
H148	H	1.551478	0.043472	-0.234264
C149	C	1.149762	-1.051570	-0.367921
C150	C	1.649762	-0.551570	0.132079
N151	N	1.097632	-1.085494	-0.309166
N152	N	1.597632	-0.585494	0.190834
H153	H	1.099065	-0.419819	-1.057769
H154	H	1.599065	0.080181	-0.557769
H155	H	1.037193	-0.641782	-0.241568
H156	H	1.537193	-0.141782	0.258432
C157	C	1.414320	-0.879573	-0.665517
C158	C	1.914320	-0.379573	-0.165517
N159	N	1.466516	-0.845645	-0.724218
N160	N	1.966516	-0.345645	-0.224218
C161	C	1.376869	-1.052733	-0.623373
C162	C	1.876869	-0.552733	-0.123373
N163	N	1.414298	-1.087118	-0.665451
N164	N	1.914298	-0.587118	-0.165451
H165	H	1.114135	-0.990647	-0.328019
H166	H	1.614135	-0.490647	0.171981
H167	H	1.004842	-0.791383	-0.205175
H168	H	1.504842	-0.291383	0.294825
C169	C	1.019063	-0.481486	-0.911023
C170	C	1.519063	0.018514	-0.411023
N171	N	0.959163	-0.527646	-0.935921
N172	N	1.459163	-0.027646	-0.435921
H173	H	0.559821	-0.239519	-0.574346
H174	H	1.059821	0.260481	-0.074346
H175	H	0.534504	-0.411358	-0.323489
H176	H	1.034504	0.088642	0.176511
C177	C	0.882820	-0.257891	-0.547455
C178	C	1.382820	0.242109	-0.047455
N179	N	0.927895	-0.216791	-0.607429
N180	N	1.427895	0.283209	-0.107429
H181	H	0.669842	-0.452018	-0.264115
H182	H	1.169842	0.047982	0.235885
