data_functionalizedCrystal
_audit_creation_method	'MofGen! by Chris Wilmer'
_symmetry_space_group_name_H-M	'P1'
_symmetry_Int_Tables_number	1
_symmetry_cell_setting	triclinic
loop_
_symmetry_equiv_pos_as_xyz
  x,y,z
_cell_length_a	17.639054
_cell_length_b	17.638516
_cell_length_c	17.640968
_cell_angle_alpha	87.860832
_cell_angle_beta	109.669605
_cell_angle_gamma	114.320343
loop_
_atom_site_label
_atom_site_type_symbol
_atom_site_fract_x
_atom_site_fract_y
_atom_site_fract_z
Zn1	Zn	1.372118	0.104669	0.703797
Zn2	Zn	1.316237	-0.061052	0.593766
Zn3	Zn	1.195110	0.037662	0.549299
Zn4	Zn	1.206330	-0.060984	0.703627
O5	O	1.272448	0.005074	0.637622
O6	O	1.484780	0.110699	0.707881
O7	O	1.272087	-0.076028	0.477232
O8	O	1.237281	0.157190	0.551255
O9	O	1.443725	-0.011055	0.627042
O10	O	1.367328	0.206419	0.664763
O11	O	1.183095	-0.003503	0.444563
O12	O	1.076523	-0.003437	0.551091
O13	O	1.256404	-0.010939	0.814285
O14	O	1.084766	-0.075912	0.664475
O15	O	1.378207	0.110766	0.814409
O16	O	1.282967	-0.171682	0.626878
O17	O	1.202218	-0.171631	0.707593
C18	C	1.049510	-0.046939	0.602940
C19	C	0.954138	-0.069204	0.588125
C20	C	1.237774	-0.200334	0.672063
C21	C	1.223025	-0.288183	0.686836
C22	C	0.798334	-0.163913	0.525068
C23	C	0.887953	-0.142984	0.538994
C24	C	0.930723	-0.016326	0.623353
C25	C	0.841105	-0.037247	0.609437
C26	C	0.774917	-0.111041	0.560293
C27	C	0.817689	0.015625	0.644663
C28	C	0.728079	-0.005292	0.630745
C29	C	0.661886	-0.079081	0.581601
C30	C	0.685307	-0.131958	0.546375
C31	C	0.883878	0.089422	0.693802
C32	C	0.860462	0.142294	0.729027
C33	C	0.770851	0.121374	0.715114
C34	C	0.704658	0.047585	0.665971
C35	C	0.747430	0.174251	0.750340
C36	C	0.657820	0.153334	0.736422
C37	C	0.615048	0.026668	0.652053
C38	C	1.385023	-0.576994	0.525536
C39	C	1.371153	-0.659542	0.539428
C40	C	1.286957	-0.659576	0.623382
C41	C	1.300817	-0.577028	0.609494
C42	C	1.349851	-0.535743	0.560571
C43	C	1.265644	-0.535777	0.644529
C44	C	1.279507	-0.453235	0.630645
C45	C	1.328542	-0.411943	0.581727
C46	C	1.363714	-0.453201	0.546688
C47	C	1.216615	-0.577061	0.693456
C48	C	1.181443	-0.535810	0.728491
C49	C	1.195300	-0.453268	0.714603
C50	C	1.244335	-0.411977	0.665684
C51	C	1.160128	-0.412011	0.749642
C52	C	1.173991	-0.329468	0.735759
C53	C	1.258197	-0.329434	0.651801
C54	C	1.496257	0.057289	0.672441
C55	C	1.591631	0.079540	0.687278
C56	C	1.324790	0.057395	0.843836
C57	C	1.347095	0.079692	0.931711
C58	C	1.307286	0.211294	0.603068
C59	C	1.322132	0.299172	0.588343
C60	C	1.220369	-0.046976	0.432209
C61	C	1.198268	-0.069010	0.344323
C62	C	1.103401	-0.163802	1.220407
C63	C	1.124380	-0.142837	1.302980
C64	C	1.251204	-0.016117	1.303099
C65	C	1.230233	-0.037070	1.220523
C66	C	1.156332	-0.110913	1.179183
C67	C	1.283163	0.015819	1.179300
C68	C	1.262197	-0.005134	1.096731
C69	C	1.188300	-0.078976	1.055387
C70	C	1.135365	-0.131867	1.096615
C71	C	1.357068	0.089660	1.220642
C72	C	1.409998	0.142548	1.179419
C73	C	1.389029	0.121598	1.096848
C74	C	1.315132	0.047757	1.055503
C75	C	1.441964	0.174489	1.055619
C76	C	1.420997	0.153536	0.973051
C77	C	1.294165	0.026803	0.972935
H78	H	0.561153	-0.033428	0.612043
H79	H	0.744439	-0.224009	0.485058
H80	H	1.399802	-0.693124	0.510898
H81	H	1.403635	-0.419588	0.506843
H82	H	1.470171	0.202670	1.213090
H83	H	1.141522	-0.569435	0.768326
H84	H	0.907012	-0.186045	0.510306
H85	H	0.588920	-0.096102	0.570256
H86	H	0.984624	0.043758	0.663364
H87	H	1.502139	0.234608	1.089292
H88	H	0.801332	0.234338	0.790346
H89	H	1.075170	-0.191984	1.062948
H90	H	1.247036	-0.693201	0.663217
H91	H	1.464097	0.196604	0.939486
H92	H	1.081273	-0.185911	1.336541
H93	H	0.956843	0.106452	0.705129
H94	H	0.631412	-0.192054	0.506365
H95	H	1.043206	-0.223919	1.186739
H96	H	1.311376	0.044005	1.336770
H97	H	1.171233	-0.096037	0.988155
H98	H	0.914364	0.202379	0.769038
H99	H	0.638755	0.196390	0.765102
H100	H	1.374138	0.106716	1.287875
H101	H	1.205335	-0.644271	0.704762
H102	H	1.298119	-0.295822	0.611956
H103	H	1.339830	-0.344730	0.570426
H104	H	1.120212	-0.445635	0.789481
H105	H	1.424945	-0.543381	0.485691
H106	H	1.145351	-0.295881	0.764289
H107	H	1.233970	-0.033314	0.939267
