data_functionalizedCrystal
_audit_creation_method	'MofGen! by Chris Wilmer'
_symmetry_space_group_name_H-M	'P1'
_symmetry_Int_Tables_number	1
_symmetry_cell_setting	triclinic
loop_
_symmetry_equiv_pos_as_xyz
  x,y,z
_cell_length_a	12.645330
_cell_length_b	14.908618
_cell_length_c	14.908308
_cell_angle_alpha	89.826377
_cell_angle_beta	93.270481
_cell_angle_gamma	93.287528
loop_
_atom_site_label
_atom_site_type_symbol
_atom_site_fract_x
_atom_site_fract_y
_atom_site_fract_z
Zn1	Zn	-0.553274	-1.345314	-0.587645
Zn2	Zn	-0.720953	-1.353901	-0.437294
Zn3	Zn	-0.532907	-1.203629	-0.428638
Zn4	Zn	-0.719688	-1.194929	-0.578941
O5	O	-0.631705	-1.274443	-0.508130
O6	O	-0.584570	-1.472280	-0.574966
O7	O	-0.688014	-1.341202	-0.310321
O8	O	-0.387266	-1.222471	-0.449751
O9	O	-0.707763	-1.478588	-0.464503
O10	O	-0.402229	-1.326567	-0.566573
O11	O	-0.549858	-1.230798	-0.303961
O12	O	-0.548631	-1.076649	-0.441311
O13	O	-0.705607	-1.207643	-0.705921
O14	O	-0.685858	-1.070257	-0.551738
O15	O	-0.583343	-1.318131	-0.712315
O16	O	-0.869128	-1.332766	-0.456064
O17	O	-0.868198	-1.215969	-0.560131
C18	C	-0.614898	-1.040827	-0.494641
C19	C	-0.607734	-0.940884	-0.488892
C20	C	-0.907130	-1.274378	-0.508113
C21	C	-1.024965	-1.274431	-0.508141
C22	C	-0.737369	-0.746482	-0.592923
C23	C	-0.730641	-0.652576	-0.587524
C24	C	-0.587549	-0.659165	-0.472702
C25	C	-0.594276	-0.753071	-0.478100
C26	C	-0.669189	-0.796726	-0.538212
C27	C	-0.675921	-0.890634	-0.543605
C28	C	-0.532824	-0.897221	-0.428788
C29	C	-0.526097	-0.803315	-0.423390
C30	C	-1.192023	-1.201229	-0.573841
C31	C	-1.069424	-1.200888	-0.573596
C32	C	-1.061664	-1.254253	-0.411904
C33	C	-1.184259	-1.253806	-0.412303
C34	C	-1.200451	-1.368280	-0.537934
C35	C	-1.077934	-1.367576	-0.539972
C36	C	-0.355209	-1.274532	-0.508167
C37	C	-0.237382	-1.274570	-0.508183
C38	C	-0.646606	-1.260959	-0.742655
C39	C	-0.652955	-1.255212	-0.842596
C40	C	-0.648571	-0.508972	-0.521664
C41	C	-0.655735	-0.608915	-0.527415
C42	C	-0.537549	-1.359463	-1.037056
C43	C	-0.543512	-1.354066	-1.130959
C44	C	-0.670837	-1.239019	-1.124308
C45	C	-0.664874	-1.244416	-1.030405
C46	C	-0.598229	-1.304640	-0.986782
C47	C	-0.592273	-1.310041	-0.892877
C48	C	-0.719592	-1.194990	-0.886227
C49	C	-0.725555	-1.189594	-0.980131
C50	C	-0.616790	-1.287927	-0.274519
C51	C	-0.610154	-1.293848	-0.174589
H52	H	-0.736921	-0.926176	-0.592550
H53	H	-1.054627	-1.382893	-0.610825
Cl54	Cl	-0.809331	-1.113886	-1.034979
H55	H	-0.786158	-0.611671	-0.632077
H56	H	-0.465102	-0.767758	-0.374451
H57	H	-0.526551	-0.623605	-0.423768
Cl58	Cl	-0.831553	-0.801366	-0.668479
Cl59	Cl	-0.447116	-0.960391	-0.359997
H60	H	-1.044910	-1.212879	-0.644784
Cl61	Cl	-0.467223	-1.422988	-1.194158
H62	H	-0.769005	-1.150352	-0.845284
H63	H	-1.227079	-1.213059	-0.645250
H64	H	-1.032613	-1.306219	-0.361407
H65	H	-0.725095	-1.189987	-1.159842
H66	H	-1.213959	-1.305203	-0.361420
H67	H	-1.216875	-1.132075	-0.553929
Cl68	Cl	-0.453782	-1.435181	-0.982213
H69	H	-1.034096	-1.131305	-0.553454
Cl70	Cl	-1.218821	-1.148294	-0.374376
Cl71	Cl	-1.004716	-1.149890	-0.373465
Cl72	Cl	-1.257361	-1.398351	-0.644886
Cl73	Cl	-1.245955	-1.452541	-0.464220
Cl74	Cl	-1.032000	-1.455711	-0.472195
Cl75	Cl	-0.508495	-1.385752	-0.838038
