data_functionalizedCrystal
_audit_creation_method	'MofGen! by Chris Wilmer'
_symmetry_space_group_name_H-M	'P1'
_symmetry_Int_Tables_number	1
_symmetry_cell_setting	triclinic
loop_
_symmetry_equiv_pos_as_xyz
  x,y,z
_cell_length_a	12.827893
_cell_length_b	25.639239
_cell_length_c	12.827885
_cell_angle_alpha	89.963828
_cell_angle_beta	89.980538
_cell_angle_gamma	90.038847
loop_
_atom_site_label
_atom_site_type_symbol
_atom_site_fract_x
_atom_site_fract_y
_atom_site_fract_z
Zn1	Zn	1.597502	-0.208122	-0.590804
Zn2	Zn	2.097502	0.291878	-0.090804
Zn3	Zn	1.597325	-0.295568	-0.416045
Zn4	Zn	2.097325	0.204432	0.083955
Zn5	Zn	1.422743	-0.208148	-0.416077
Zn6	Zn	1.922743	0.291852	0.083923
Zn7	Zn	1.422658	-0.295529	-0.590745
Zn8	Zn	1.922658	0.204471	-0.090745
O9	O	1.510057	-0.251842	-0.503418
O10	O	2.010057	0.248158	-0.003418
O11	O	1.743715	-0.219727	-0.567633
O12	O	2.243715	0.280273	-0.067633
O13	O	1.574128	-0.283998	-0.269813
O14	O	2.074128	0.216002	0.230187
O15	O	1.446035	-0.134980	-0.439293
O16	O	1.946035	0.365020	0.060707
O17	O	1.743584	-0.283973	-0.439238
O18	O	2.243584	0.216027	0.060762
O19	O	1.574430	-0.134960	-0.567664
O20	O	2.074430	0.365040	-0.067664
O21	O	1.445863	-0.219772	-0.269837
O22	O	1.945863	0.280228	0.230163
O23	O	1.276496	-0.219734	-0.439236
O24	O	1.776496	0.280266	0.060764
O25	O	1.445890	-0.283907	-0.736989
O26	O	1.945890	0.216093	-0.236989
O27	O	1.276433	-0.283932	-0.567564
O28	O	1.776433	0.216068	-0.067564
O29	O	1.574348	-0.219690	-0.737032
O30	O	2.074348	0.280310	-0.237032
O31	O	1.574045	-0.368728	-0.439181
O32	O	2.074045	0.131272	0.060819
O33	O	1.445718	-0.368699	-0.567533
O34	O	1.945718	0.131301	-0.067533
C35	C	1.238547	-0.251832	-0.503398
C36	C	1.738547	0.248168	-0.003398
C37	C	1.122394	-0.251841	-0.503414
C38	C	1.622394	0.248159	-0.003414
C39	C	1.070674	-0.220106	-0.567047
C40	C	1.570674	0.279894	-0.067047
C41	C	0.950623	-0.220114	-0.567065
C42	C	1.450623	0.279886	-0.067065
C43	C	1.509881	-0.387684	-0.503370
C44	C	2.009881	0.112316	-0.003370
C45	C	1.509902	-0.445798	-0.503384
C46	C	2.009902	0.054202	-0.003384
C47	C	1.577051	-0.806164	-0.436699
C48	C	2.077051	-0.306164	0.063301
C49	C	1.577092	-0.860768	-0.436713
C50	C	2.077092	-0.360768	0.063287
O51	O	1.634003	-0.889007	-0.379962
O52	O	2.134003	-0.389007	0.120038
N53	N	1.510241	-0.888081	-0.503487
N54	N	2.010241	-0.388081	-0.003487
C55	C	1.443352	-0.860786	-0.570259
C56	C	1.943352	-0.360786	-0.070259
O57	O	1.386495	-0.889032	-0.627057
O58	O	1.886495	-0.389032	-0.127057
C59	C	1.443318	-0.806183	-0.570249
C60	C	1.943318	-0.306183	-0.070249
C61	C	1.510166	-0.778873	-0.503463
C62	C	2.010166	-0.278873	-0.003463
C63	C	1.643895	-0.778854	-0.369920
C64	C	2.143895	-0.278854	0.130080
C65	C	1.643853	-0.724253	-0.369904
C66	C	2.143853	-0.224253	0.130096
C67	C	1.576967	-0.696963	-0.436669
C68	C	2.076967	-0.196963	0.063331
C69	C	1.510124	-0.724273	-0.503448
C70	C	2.010124	-0.224273	-0.003448
C71	C	1.376436	-0.778890	-0.637026
C72	C	1.876436	-0.278890	-0.137026
C73	C	1.376407	-0.724283	-0.637011
C74	C	1.876407	-0.224283	-0.137011
C75	C	1.443255	-0.696973	-0.570225
C76	C	1.943255	-0.196973	-0.070225
C77	C	1.443196	-0.642382	-0.570198
C78	C	1.943196	-0.142382	-0.070198
N79	N	1.510047	-0.615069	-0.503424
N80	N	2.010047	-0.115069	-0.003424
C81	C	1.576933	-0.642359	-0.436659
C82	C	2.076933	-0.142359	0.063341
C83	C	1.443431	-0.975457	-0.570275
C84	C	1.943431	-0.475457	-0.070275
C85	C	1.443460	-1.030059	-0.570280
C86	C	1.943460	-0.530059	-0.070280
C87	C	1.577201	-1.030037	-0.436735
C88	C	2.077201	-0.530037	0.063265
C89	C	1.577166	-0.975434	-0.436726
C90	C	2.077166	-0.475434	0.063274
C91	C	1.510282	-0.948144	-0.503501
C92	C	2.010282	-0.448144	-0.003501
C93	C	1.576838	-0.527694	-0.436632
C94	C	2.076838	-0.027694	0.063368
C95	C	1.576787	-0.473089	-0.436620
C96	C	2.076787	0.026911	0.063380
C97	C	1.443051	-0.473116	-0.570168
C98	C	1.943051	0.026884	-0.070168
C99	C	1.443097	-0.527716	-0.570177
C100	C	1.943097	-0.027716	-0.070177
C101	C	1.510000	-0.555004	-0.503405
C102	C	2.010000	-0.055004	-0.003405
O103	O	1.386318	-0.614108	-0.626923
O104	O	1.886318	-0.114108	-0.126923
O105	O	1.633790	-0.614107	-0.379880
O106	O	2.133790	-0.114107	0.120120
C107	C	1.782627	-0.251852	-0.503438
C108	C	2.282627	0.248148	-0.003438
C109	C	1.898780	-0.251856	-0.503447
C110	C	2.398780	0.248144	-0.003447
C111	C	1.510129	-0.251791	-0.775988
C112	C	2.010129	0.248209	-0.275988
C113	C	1.510160	-0.251769	-0.892141
C114	C	2.010160	0.248231	-0.392141
C115	C	1.510262	-0.115469	-0.503489
C116	C	2.010262	0.384531	-0.003489
C117	C	1.510349	-0.057355	-0.503519
C118	C	2.010349	0.442645	-0.003519
C119	C	1.573762	-0.219965	-1.063992
C120	C	2.073762	0.280035	-0.563992
C121	C	1.573732	-0.219987	-0.943941
C122	C	2.073732	0.280013	-0.443941
C123	C	1.510046	-0.251854	-0.231908
C124	C	2.010046	0.248146	0.268092
C125	C	1.510217	-0.251729	-0.115755
C126	C	2.010217	0.248271	0.384245
H127	H	1.115271	-0.192929	-0.621508
H128	H	1.615271	0.307071	-0.121508
N129	N	1.304255	-0.694855	-0.709032
N130	N	1.804255	-0.194855	-0.209032
H131	H	1.255831	-0.672242	-0.666517
H132	H	1.755831	-0.172242	-0.166517
H133	H	1.346749	-0.672189	-0.757482
H134	H	1.846749	-0.172189	-0.257482
H135	H	1.698367	-0.801068	-0.315552
H136	H	2.198367	-0.301068	0.184448
N137	N	0.891718	-0.184126	-0.639239
N138	N	1.391718	0.315874	-0.139239
H139	H	0.814309	-0.189234	-0.629023
H140	H	1.314309	0.310766	-0.129023
H141	H	0.910773	-0.146766	-0.623124
H142	H	1.410773	0.353234	-0.123124
N143	N	1.370996	-0.557177	-0.642202
N144	N	1.870996	-0.057177	-0.142202
H145	H	1.322610	-0.579875	-0.599700
H146	H	1.822610	-0.079875	-0.099700
H147	H	1.328685	-0.531568	-0.684477
H148	H	1.828685	-0.031568	-0.184477
H149	H	1.628191	-0.192757	-1.108552
H150	H	2.128191	0.307243	-0.608552
H151	H	1.455747	-0.278962	-0.936650
H152	H	1.955747	0.221038	-0.436650
H153	H	0.943252	-0.279029	-0.448972
H154	H	1.443252	0.220971	0.051028
H155	H	1.455796	-0.278941	-1.071195
H156	H	1.955796	0.221059	-0.571195
N157	N	1.063326	-0.287834	-0.431261
N158	N	1.563326	0.212166	0.068739
H159	H	1.018032	-0.312071	-0.473688
H160	H	1.518032	0.187929	0.026312
H161	H	1.114397	-0.308977	-0.388805
H162	H	1.614397	0.191023	0.111195
H163	H	1.631223	-0.450855	-0.382231
H164	H	2.131223	0.049145	0.117769
H165	H	1.388590	-0.450887	-0.624524
H166	H	1.888590	0.049113	-0.124524
N167	N	1.649355	-1.059479	-0.364736
N168	N	2.149355	-0.559479	0.135264
H169	H	1.691704	-1.033896	-0.322427
H170	H	2.191704	-0.533896	0.177573
H171	H	1.606860	-1.082176	-0.316345
H172	H	2.106860	-0.582176	0.183655
H173	H	1.698289	-0.702021	-0.315525
H174	H	2.198289	-0.202021	0.184475
N175	N	1.648996	-0.557121	-0.364617
N176	N	2.148996	-0.057121	0.135383
H177	H	1.691328	-0.531529	-0.322315
H178	H	2.191328	-0.031529	0.177685
H179	H	1.606503	-0.579817	-0.316221
H180	H	2.106503	-0.079817	0.183779
N181	N	1.649269	-0.945980	-0.364697
N182	N	2.149269	-0.445980	0.135303
H183	H	1.691641	-0.971559	-0.322407
H184	H	2.191641	-0.471559	0.177593
H185	H	1.697596	-0.923287	-0.407274
H186	H	2.197596	-0.423287	0.092726
N187	N	1.371342	-1.059512	-0.642294
N188	N	1.871342	-0.559512	-0.142294
H189	H	1.328966	-1.033933	-0.684581
H190	H	1.828966	-0.533933	-0.184581
H191	H	1.413861	-1.082128	-0.690705
H192	H	1.913861	-0.582128	-0.190705
N193	N	1.371279	-0.946025	-0.642292
N194	N	1.871279	-0.446025	-0.142292
H195	H	1.328938	-0.971617	-0.684588
H196	H	1.828938	-0.471617	-0.184588
H197	H	1.322925	-0.923411	-0.599707
H198	H	1.822925	-0.423411	-0.099707
H199	H	1.321996	-0.801116	-0.691405
H200	H	1.821996	-0.301116	-0.191405
N201	N	1.645808	-0.183966	-0.884988
N202	N	2.145808	0.316034	-0.384988
H203	H	1.635575	-0.189090	-0.807585
H204	H	2.135575	0.310910	-0.307585
H205	H	1.720446	-0.192102	-0.904020
H206	H	2.220446	0.307898	-0.404020
