data_functionalizedCrystal
_audit_creation_method	'MofGen! by Chris Wilmer'
_symmetry_space_group_name_H-M	'P1'
_symmetry_Int_Tables_number	1
_symmetry_cell_setting	triclinic
loop_
_symmetry_equiv_pos_as_xyz
  x,y,z
_cell_length_a	17.639617
_cell_length_b	29.839131
_cell_length_c	17.640968
_cell_angle_alpha	78.759880
_cell_angle_beta	70.333968
_cell_angle_gamma	101.217837
loop_
_atom_site_label
_atom_site_type_symbol
_atom_site_fract_x
_atom_site_fract_y
_atom_site_fract_z
Zn1	Zn	1.354416	0.059430	-0.721274
Zn2	Zn	1.326400	-0.034761	-0.583383
Zn3	Zn	1.188686	0.021352	-0.555526
Zn4	Zn	1.216489	-0.034717	-0.693266
O5	O	1.271498	0.002826	-0.638362
O6	O	1.466056	0.062852	-0.726363
O7	O	1.284771	-0.043271	-0.464335
O8	O	1.210760	0.089288	-0.577576
O9	O	1.445473	-0.006349	-0.625055
O10	O	1.332521	0.117263	-0.699351
O11	O	1.183593	-0.002045	-0.443869
O12	O	1.077018	-0.002003	-0.550417
O13	O	1.258146	-0.006275	-0.812334
O14	O	1.097444	-0.043197	-0.651614
O15	O	1.359480	0.062895	-0.832912
O16	O	1.311730	-0.097640	-0.597896
O17	O	1.230980	-0.097608	-0.678626
C18	C	1.057321	-0.026727	-0.594954
C19	C	0.965699	-0.039378	-0.576403
C20	C	0.717996	0.098972	-0.779494
C21	C	0.631900	0.087071	-0.762046
C22	C	0.610457	0.015086	-0.656402
C23	C	0.696554	0.026980	-0.673844
C24	C	0.750317	0.068924	-0.735390
C25	C	0.728875	-0.003069	-0.629740
C26	C	0.814963	0.008826	-0.647178
C27	C	0.868731	0.050768	-0.708720
C28	C	0.836405	0.080818	-0.752828
C29	C	0.675110	-0.045011	-0.568190
C30	C	0.707431	-0.075060	-0.524087
C31	C	0.793521	-0.063167	-0.541528
C32	C	0.847289	-0.021224	-0.603070
C33	C	0.825847	-0.093217	-0.497420
C34	C	0.911936	-0.081322	-0.514857
C35	C	0.933378	-0.009330	-0.620507
C36	C	1.271358	-0.113924	-0.638267
C37	C	1.271379	-0.163855	-0.638270
C38	C	1.334902	-0.458864	-0.701843
C39	C	1.335002	-0.646518	-0.701911
O40	O	1.388878	-0.658364	-0.755887
N41	N	1.271656	-0.684584	-0.638482
C42	C	1.208278	-0.675735	-0.575035
O43	O	1.154396	-0.712419	-0.521091
C44	C	1.208176	-0.488082	-0.574971
C45	C	1.271531	-0.450017	-0.638400
C46	C	1.398251	-0.420800	-0.765267
C47	C	1.398228	-0.373890	-0.765247
C48	C	1.334856	-0.365043	-0.701803
C49	C	1.271508	-0.403107	-0.638380
C50	C	1.144795	-0.479234	-0.511528
C51	C	1.144774	-0.432316	-0.511519
C52	C	1.208129	-0.394251	-0.574948
C53	C	1.208113	-0.347349	-0.574916
N54	N	1.271458	-0.309283	-0.638345
C55	C	1.334830	-0.318130	-0.701788
C56	C	1.208337	-0.774255	-0.575072
C57	C	1.208363	-0.821168	-0.575087
C58	C	1.335086	-0.791947	-0.701964
C59	C	1.335063	-0.745033	-0.701945
C60	C	1.271683	-0.736188	-0.638501
C61	C	1.334778	-0.219616	-0.701741
C62	C	1.334751	-0.172702	-0.701713
C63	C	1.208026	-0.201927	-0.574839
C64	C	1.208054	-0.248836	-0.574864
C65	C	1.271434	-0.257678	-0.638322
O66	O	1.154260	-0.335468	-0.520973
O67	O	1.388694	-0.281440	-0.755734
C68	C	1.334925	-0.505775	-0.701863
C69	C	1.271576	-0.543838	-0.638440
C70	C	1.208205	-0.534991	-0.574996
C71	C	1.271603	-0.590751	-0.638455
C72	C	1.334974	-0.599598	-0.701898
C73	C	1.398320	-0.561532	-0.765327
C74	C	1.398297	-0.514621	-0.765307
C75	C	1.144859	-0.573058	-0.511567
C76	C	1.144888	-0.619967	-0.511592
C77	C	1.208259	-0.628814	-0.575036
C78	C	1.486511	0.032494	-0.681941
C79	C	1.578137	0.045137	-0.700511
C80	C	1.315040	0.032562	-0.853369
C81	C	1.333595	0.045234	-0.944992
C82	C	1.271664	0.120037	-0.638480
C83	C	1.271735	0.169985	-0.638531
C84	C	1.130854	-0.093153	-1.192766
C85	C	1.148307	-0.081238	-1.278863
C86	C	1.253817	-0.009218	-1.300278
C87	C	1.236371	-0.021126	-1.214180
C88	C	1.174889	-0.063095	-1.160431
C89	C	1.280405	0.008933	-1.181846
C90	C	1.262963	-0.002976	-1.095756
C91	C	1.201486	-0.044943	-1.042001
C92	C	1.157446	-0.075003	-1.074341
C93	C	1.341891	0.050899	-1.235598
C94	C	1.385926	0.080958	-1.203263
C95	C	1.368479	0.069052	-1.117171
C96	C	1.307002	0.027084	-1.063416
C97	C	1.412519	0.099112	-1.084831
C98	C	1.395076	0.087203	-0.998741
C99	C	1.289560	0.015176	-0.977327
C100	C	1.228173	-0.026756	-0.424202
C101	C	1.209778	-0.039279	-0.332612
H102	H	0.566672	-0.019064	-0.606289
H103	H	0.605008	-0.054687	-0.553977
H104	H	1.156471	-0.279831	-0.523210
C105	C	1.031593	-0.548933	-0.477546
C106	C	1.075142	-0.521066	-0.441813
H107	H	0.988590	-0.574759	-0.434504
H108	H	1.007312	-0.530021	-0.507041
H109	H	1.069342	-0.560923	-0.515318
H110	H	1.037394	-0.509073	-0.404045
H111	H	1.099423	-0.539980	-0.412304
H112	H	0.782060	-0.127365	-0.447303
C113	C	1.243955	-0.070127	-0.942597
C114	C	1.221994	-0.030961	-0.918226
H115	H	1.202252	-0.098610	-0.906105
H116	H	1.248017	-0.067342	-0.998482
H117	H	1.296486	-0.070996	-0.939719
H118	H	1.169465	-0.030090	-0.921111
H119	H	1.217922	-0.033747	-0.862327
H120	H	1.156431	-0.194716	-0.523182
H121	H	0.977156	0.024824	-0.670627
C122	C	1.391375	-0.850894	-0.758320
C123	C	1.404742	-0.801677	-0.771708
H124	H	1.434370	-0.856901	-0.801381
H125	H	1.392286	-0.864573	-0.705412
H126	H	1.338407	-0.864583	-0.759103
H127	H	1.457707	-0.787988	-0.770919
H128	H	1.403839	-0.787992	-0.824631
C129	C	1.054919	-0.145019	-1.061814
C130	C	1.089883	-0.121144	-1.015254
H131	H	1.013221	-0.173506	-1.025337
H132	H	1.030195	-0.125154	-1.089005
H133	H	1.097629	-0.152593	-1.102669
H134	H	1.047174	-0.113566	-0.974404
H135	H	1.114607	-0.141012	-0.988050
C136	C	0.772827	0.143717	-0.924539
C137	C	0.777104	0.145075	-0.847154
H138	H	0.809315	0.172179	-0.966306
H139	H	0.789336	0.117123	-0.939335
H140	H	0.716928	0.140937	-0.920461
H141	H	0.833001	0.147852	-0.851231
H142	H	0.760599	0.171677	-0.832356
C143	C	1.042249	-0.153631	-1.249043
C144	C	1.099895	-0.114281	-1.314404
H145	H	1.012362	-0.174028	-1.270986
H146	H	1.071339	-0.170507	-1.222727
H147	H	1.003943	-0.143043	-1.209094
H148	H	1.138206	-0.124869	-1.354350
H149	H	1.070803	-0.097402	-1.340734
H150	H	1.303878	0.024952	-1.344053
C151	C	0.608218	-0.150474	-0.492807
C152	C	0.648331	-0.121165	-0.456440
H153	H	0.571738	-0.178940	-0.451045
H154	H	0.576648	-0.134281	-0.516568
H155	H	0.649065	-0.158087	-0.535464
H156	H	0.607484	-0.113550	-0.413787
H157	H	0.679903	-0.137362	-0.432666
C158	C	1.429954	0.165167	-0.980423
C159	C	1.443473	0.120241	-0.963186
H160	H	1.459831	0.185561	-0.958466
H161	H	1.449147	0.178266	-1.039380
H162	H	1.371716	0.162143	-0.955097
H163	H	1.501711	0.123266	-0.988517
H164	H	1.424285	0.107140	-0.904217
H165	H	1.093296	-0.650958	-0.459934
C166	C	0.977899	0.131014	-0.826474
C167	C	0.895512	0.126922	-0.820486
H168	H	1.014387	0.159474	-0.868244
H169	H	0.980786	0.131930	-0.773974
H170	H	0.994400	0.104415	-0.841278
H171	H	0.879008	0.153519	-0.805675
H172	H	0.892622	0.126010	-0.872997
H173	H	1.187289	-0.054640	-0.971903
C174	C	1.557506	0.143924	-1.139636
C175	C	1.480102	0.145240	-1.143920
H176	H	1.599229	0.172401	-1.176119
H177	H	1.553414	0.141138	-1.083743
H178	H	1.572375	0.117344	-1.156157
H179	H	1.465229	0.171819	-1.127393
H180	H	1.484193	0.148031	-1.199826
H181	H	1.080770	-0.127320	-1.148995
C182	C	0.997051	-0.442787	-0.442966
C183	C	1.075103	-0.422595	-0.441777
H184	H	0.954041	-0.436788	-0.399907
H185	H	0.996161	-0.429096	-0.495879
H186	H	0.988012	-0.476174	-0.433903
H187	H	1.084145	-0.389208	-0.450846
H188	H	1.075995	-0.436285	-0.388851
H189	H	0.938829	0.060453	-0.722913
H190	H	1.356092	0.060593	-1.305697
C191	C	1.432023	-0.304193	-0.878432
C192	C	1.467863	-0.332052	-0.834977
H193	H	1.475015	-0.278365	-0.921481
H194	H	1.402469	-0.323109	-0.902645
H195	H	1.394287	-0.292206	-0.840642
H196	H	1.505595	-0.344043	-0.872766
H197	H	1.497431	-0.313134	-0.810764
C198	C	1.459514	0.131196	-1.344741
C199	C	1.453502	0.127090	-1.262348
H200	H	1.501230	0.159678	-1.381214
H201	H	1.474400	0.104623	-1.361260
H202	H	1.406991	0.132079	-1.347628
H203	H	1.506024	0.126203	-1.259460
H204	H	1.438621	0.153670	-1.245825
H205	H	0.605588	0.111545	-0.797961
H206	H	1.093253	-0.565860	-0.459905
C207	C	0.882104	-0.153684	-0.408690
C208	C	0.947471	-0.114354	-0.466387
H209	H	0.904044	-0.174077	-0.378770
H210	H	0.842166	-0.143076	-0.370425
H211	H	0.855779	-0.170576	-0.437751
H212	H	0.973792	-0.097460	-0.437326
H213	H	0.987424	-0.124962	-0.504658
H214	H	1.386345	-0.141709	-0.753365
H215	H	1.449857	-0.427996	-0.816935
H216	H	1.386383	-0.226808	-0.753419
H217	H	1.156781	-0.852158	-0.523430
C218	C	1.460319	-0.720874	-0.827360
C219	C	1.404696	-0.703195	-0.771674
H220	H	1.503304	-0.695045	-0.870413
H221	H	1.484622	-0.739771	-0.797871
H222	H	1.430753	-0.739790	-0.851571
H223	H	1.434261	-0.684281	-0.747458
H224	H	1.380391	-0.684290	-0.801167
C225	C	1.083087	-0.807860	-0.449654
C226	C	1.138670	-0.764538	-0.505320
H227	H	1.040084	-0.801862	-0.406588
H228	H	1.058804	-0.825553	-0.479154
H229	H	1.112679	-0.825544	-0.425458
H230	H	1.109080	-0.746856	-0.529521
H231	H	1.162955	-0.746838	-0.475816
C232	C	1.523552	-0.490466	-0.890721
C233	C	1.467934	-0.472784	-0.835036
H234	H	1.566540	-0.464638	-0.933773
H235	H	1.547851	-0.509365	-0.861231
H236	H	1.493983	-0.509380	-0.914933
H237	H	1.497502	-0.453873	-0.810818
H238	H	1.443633	-0.453876	-0.864529
H239	H	1.449922	-0.568743	-0.816983
