data_functionalizedCrystal
_audit_creation_method	'MofGen! by Chris Wilmer'
_symmetry_space_group_name_H-M	'P1'
_symmetry_Int_Tables_number	1
_symmetry_cell_setting	triclinic
loop_
_symmetry_equiv_pos_as_xyz
  x,y,z
_cell_length_a	19.288840
_cell_length_b	16.109301
_cell_length_c	17.766277
_cell_angle_alpha	89.992214
_cell_angle_beta	89.983415
_cell_angle_gamma	83.293748
loop_
_atom_site_label
_atom_site_type_symbol
_atom_site_fract_x
_atom_site_fract_y
_atom_site_fract_z
O1	O	0.921612	0.103617	-0.062722
O2	O	1.254945	0.436950	0.270611
O3	O	1.588278	0.770283	0.603944
O4	O	0.719382	0.117630	-0.062697
O5	O	1.052715	0.450963	0.270637
O6	O	1.386049	0.784296	0.603970
O7	O	0.826052	-0.010427	-0.062702
O8	O	1.159385	0.322906	0.270631
O9	O	1.492719	0.656239	0.603964
O10	O	0.814941	0.231674	-0.062716
O11	O	1.148275	0.565007	0.270617
O12	O	1.481608	0.898340	0.603950
O13	O	0.826033	-0.010434	0.062486
O14	O	1.159367	0.322899	0.395819
O15	O	1.492700	0.656233	0.729153
O16	O	0.719363	0.117623	0.062492
O17	O	1.052696	0.450956	0.395825
O18	O	1.386030	0.784290	0.729159
O19	O	0.921593	0.103610	0.062466
O20	O	1.254926	0.436944	0.395800
O21	O	1.588259	0.770277	0.729133
Cu22	Cu	0.820476	0.110616	0.073910
Cu23	Cu	1.153810	0.443949	0.407243
Cu24	Cu	1.487143	0.777283	0.740576
Cu25	Cu	0.820498	0.110624	-0.074140
Cu26	Cu	1.153832	0.443957	0.259193
Cu27	Cu	1.487165	0.777290	0.592527
O28	O	0.814923	0.231667	0.062472
O29	O	1.148256	0.565001	0.395805
O30	O	1.481589	0.898334	0.729139
C31	C	0.693495	0.117179	-0.000099
C32	C	1.026828	0.450512	0.333234
C33	C	1.360161	0.783846	0.666568
C34	C	0.616387	0.115836	-0.000089
C35	C	0.949720	0.449169	0.333245
C36	C	1.283054	0.782503	0.666578
C37	C	0.580192	0.115194	-0.068331
C38	C	0.913525	0.448528	0.265002
C39	C	1.246859	0.781861	0.598336
C40	C	0.507742	0.113923	-0.068340
C41	C	0.841076	0.447256	0.264993
C42	C	1.174409	0.780590	0.598327
C43	C	0.471492	0.113277	-0.000103
C44	C	0.804825	0.446610	0.333230
C45	C	1.138158	0.779943	0.666563
C46	C	0.507695	0.113923	0.068148
C47	C	0.841028	0.447257	0.401481
C48	C	1.174361	0.780590	0.734815
C49	C	0.580142	0.115203	0.068155
C50	C	0.913476	0.448536	0.401488
C51	C	1.246809	0.781870	0.734822
C52	C	0.362035	0.062549	0.052168
C53	C	0.695368	0.395882	0.385502
C54	C	1.028702	0.729216	0.718835
C55	C	0.289589	0.061264	0.052158
C56	C	0.622923	0.394598	0.385492
C57	C	0.956256	0.727931	0.718825
C58	C	0.248039	0.109334	-0.000123
C59	C	0.581372	0.442667	0.333211
C60	C	0.914705	0.776000	0.666544
C61	C	0.278944	0.158677	-0.052406
C62	C	0.612277	0.492011	0.280927
C63	C	0.945610	0.825344	0.614261
C64	C	0.351391	0.159957	-0.052399
C65	C	0.684725	0.493290	0.280934
C66	C	1.018058	0.826624	0.614268
C67	C	0.392934	0.111890	-0.000103
C68	C	0.726268	0.445223	0.333230
C69	C	1.059601	0.778556	0.666563
C70	C	0.133285	0.107315	-0.068379
C71	C	0.466618	0.440648	0.264954
C72	C	0.799952	0.773982	0.598287
C73	C	0.060833	0.106049	-0.068386
C74	C	0.394167	0.439382	0.264948
C75	C	0.727500	0.772715	0.598281
C76	C	0.060788	0.106041	0.068104
C77	C	0.394122	0.439374	0.401438
C78	C	0.727455	0.772707	0.734771
C79	C	0.133238	0.107315	0.068109
C80	C	0.466571	0.440648	0.401442
C81	C	0.799904	0.773982	0.734775
C82	C	0.169482	0.107948	-0.000135
C83	C	0.502816	0.441282	0.333198
C84	C	0.836149	0.774615	0.666531
C85	C	0.825593	-0.041404	-0.000108
C86	C	1.158926	0.291929	0.333226
C87	C	1.492259	0.625263	0.666559
C88	C	0.824243	-0.133694	-0.000107
C89	C	1.157577	0.199639	0.333227
C90	C	1.490910	0.532972	0.666560
C91	C	0.884402	-0.356179	-0.000126
C92	C	1.217735	-0.022846	0.333207
C93	C	1.551069	0.310488	0.666541
C94	C	0.883129	-0.442895	-0.000132
C95	C	1.216462	-0.109562	0.333201
C96	C	1.549795	0.223772	0.666535
C97	C	0.756568	-0.422574	-0.000113
C98	C	1.089901	-0.089241	0.333220
C99	C	1.423235	0.244093	0.666554
C100	C	0.757842	-0.335860	-0.000112
C101	C	1.091175	-0.002527	0.333221
C102	C	1.424509	0.330807	0.666554
C103	C	0.821761	-0.302665	-0.000115
C104	C	1.155094	0.030668	0.333218
C105	C	1.488428	0.364002	0.666552
C106	C	0.819214	-0.476095	-0.000122
C107	C	1.152547	-0.142762	0.333212
C108	C	1.485880	0.190572	0.666545
C109	C	0.817833	-0.570116	-0.000128
C110	C	1.151166	-0.236783	0.333205
C111	C	1.484499	0.096550	0.666538
C112	C	0.823142	-0.208638	-0.000110
C113	C	1.156476	0.124695	0.333223
C114	C	1.489809	0.458029	0.666557
C115	C	0.947480	0.104061	-0.000133
C116	C	1.280813	0.437394	0.333200
C117	C	1.614147	0.770728	0.666534
C118	C	1.024588	0.105404	-0.000148
C119	C	1.357921	0.438737	0.333185
C120	C	1.691254	0.772071	0.666519
C121	C	0.815382	0.262644	-0.000124
C122	C	1.148715	0.595977	0.333209
C123	C	1.482049	0.929310	0.666542
C124	C	0.816731	0.354934	-0.000130
C125	C	1.150065	0.688268	0.333203
C126	C	1.483398	1.021601	0.666536
N127	N	0.820466	0.110610	0.178040
N128	N	1.153799	0.443944	0.511373
N129	N	1.487132	0.777277	0.844707
N130	N	0.820514	0.110623	-0.178270
N131	N	1.153848	0.443956	0.155063
N132	N	1.487181	0.777290	0.488396
C133	C	0.867715	0.053934	0.217424
C134	C	1.201048	0.387268	0.550758
C135	C	1.534381	0.720601	0.884091
C136	C	0.867719	0.053930	0.296226
C137	C	1.201052	0.387264	0.629560
C138	C	1.534385	0.720597	0.962893
C139	C	0.820480	0.110617	0.335641
C140	C	1.153814	0.443950	0.668974
C141	C	1.487147	0.777283	1.002307
C142	C	0.773223	0.167297	0.296247
C143	C	1.106556	0.500630	0.629580
C144	C	1.439889	0.833964	0.962914
C145	C	0.773215	0.167294	0.217447
C146	C	1.106549	0.500627	0.550780
C147	C	1.439882	0.833960	0.884113
C148	C	0.811362	0.186371	0.460475
C149	C	1.144696	0.519705	0.793808
C150	C	1.478029	0.853038	1.127142
C151	C	0.811374	0.186376	0.539274
C152	C	1.144708	0.519709	0.872607
C153	C	1.478041	0.853042	1.205941
C154	C	0.820499	0.110627	0.578687
C155	C	1.153832	0.443960	0.912020
C156	C	1.487166	0.777293	1.245354
C157	C	0.829626	0.034870	0.539292
C158	C	1.162959	0.368204	0.872625
C159	C	1.496293	0.701537	1.205958
C160	C	0.829619	0.034867	0.460491
C161	C	1.162952	0.368200	0.793825
C162	C	1.496285	0.701534	1.127158
C163	C	0.820483	0.110626	0.421086
C164	C	1.153816	0.443960	0.754420
C165	C	1.487149	0.777293	1.087753
C166	C	0.867755	0.053942	0.703517
C167	C	1.201088	0.387275	1.036851
C168	C	1.534421	0.720609	1.370184
C169	C	0.867754	0.053937	0.782320
C170	C	1.201087	0.387270	1.115654
C171	C	1.534421	0.720604	1.448987
C172	C	0.773261	0.167311	0.782340
C173	C	1.106595	0.500644	1.115673
C174	C	1.439928	0.833978	1.449006
C175	C	0.773259	0.167309	0.703538
C176	C	1.106592	0.500642	1.036871
C177	C	1.439925	0.833975	1.370205
C178	C	0.820509	0.110625	0.664131
C179	C	1.153843	0.443958	0.997465
C180	C	1.487176	0.777292	1.330798
H181	H	0.245114	0.197824	-0.094976
H182	H	0.578447	0.531157	0.238358
H183	H	0.911781	0.864490	0.571691
H184	H	0.934137	-0.486463	-0.000143
H185	H	1.267471	-0.153130	0.333191
H186	H	1.600804	0.180203	0.666524
H187	H	0.376551	0.200136	-0.094968
H188	H	0.709884	0.533469	0.238365
H189	H	1.043218	0.866803	0.571699
Br190	Br	0.672823	-0.263227	-0.000108
Br191	Br	1.006156	0.070106	0.333226
Br192	Br	1.339490	0.403440	0.666559
H193	H	0.906196	0.007776	0.328299
H194	H	1.239529	0.341110	0.661632
H195	H	1.572862	0.674443	0.994965
Br196	Br	0.669825	-0.467630	-0.000112
Br197	Br	1.003158	-0.134297	0.333222
Br198	Br	1.336492	0.199037	0.666555
Br199	Br	0.709108	0.244224	0.349735
Br200	Br	1.042441	0.577557	0.683068
Br201	Br	1.375774	0.910891	1.016402
Br202	Br	0.709144	0.244234	0.835824
Br203	Br	1.042478	0.577568	1.169157
Br204	Br	1.375811	0.910901	1.502491
Br205	Br	0.931836	-0.022994	0.163944
Br206	Br	1.265169	0.310340	0.497277
Br207	Br	1.598503	0.643673	0.830610
H208	H	0.837048	-0.026816	0.428419
H209	H	1.170382	0.306517	0.761752
H210	H	1.503715	0.639850	1.095086
Br211	Br	0.842019	-0.067939	0.592770
Br212	Br	1.175352	0.265394	0.926104
Br213	Br	1.508685	0.598727	1.259437
Br214	Br	0.182363	0.108184	0.160728
Br215	Br	0.515697	0.441517	0.494062
Br216	Br	0.849030	0.774850	0.827395
Br217	Br	0.709086	0.244216	0.163992
Br218	Br	1.042420	0.577549	0.497325
Br219	Br	1.375753	0.910883	0.830658
H220	H	0.734787	0.213463	0.671469
H221	H	1.068120	0.546796	1.004802
H222	H	1.401454	0.880130	1.338136
H223	H	0.906227	0.007784	0.671431
H224	H	1.239560	0.341117	1.004765
H225	H	1.572894	0.674451	1.338098
Br226	Br	0.931876	-0.022993	0.835775
Br227	Br	1.265210	0.310340	1.169108
Br228	Br	1.598543	0.643673	1.502442
Br229	Br	0.798996	0.289186	0.592731
Br230	Br	1.132329	0.622519	0.926064
Br231	Br	1.465663	0.955853	1.259398
Br232	Br	0.799048	0.289185	0.406994
Br233	Br	1.132381	0.622518	0.740327
Br234	Br	1.465715	0.955852	1.073661
H235	H	0.609698	0.115710	-0.123901
H236	H	0.943031	0.449043	0.209433
H237	H	1.276365	0.782376	0.542766
H238	H	0.478266	0.113402	-0.123913
H239	H	0.811600	0.446735	0.209421
H240	H	1.144933	0.780068	0.542754
H241	H	0.031364	0.105531	-0.123959
H242	H	0.364697	0.438865	0.209374
H243	H	0.698031	0.772198	0.542708
Br244	Br	0.182478	0.108180	-0.160993
Br245	Br	0.515811	0.441513	0.172340
Br246	Br	0.849145	0.774847	0.505673
H247	H	0.031273	0.105520	0.123664
H248	H	0.364607	0.438853	0.456997
H249	H	0.697940	0.772186	0.790331
Br250	Br	0.629267	0.116076	0.160777
Br251	Br	0.962601	0.449409	0.494110
Br252	Br	1.295934	0.782742	0.827444
H253	H	0.264433	0.021082	0.094727
H254	H	0.597766	0.354415	0.428060
H255	H	0.931099	0.687748	0.761394
H256	H	0.395861	0.023403	0.094745
H257	H	0.729194	0.356736	0.428079
H258	H	1.062527	0.690070	0.761412
H259	H	0.478175	0.113399	0.123707
H260	H	0.811508	0.446732	0.457040
H261	H	1.144841	0.780066	0.790374
H262	H	0.936449	-0.329155	-0.000130
H263	H	1.269782	0.004178	0.333203
H264	H	1.603115	0.337512	0.666537
