data_functionalizedCrystal
_audit_creation_method	'MofGen! by Chris Wilmer'
_symmetry_space_group_name_H-M	'P1'
_symmetry_Int_Tables_number	1
_symmetry_cell_setting	triclinic
loop_
_symmetry_equiv_pos_as_xyz
  x,y,z
_cell_length_a	14.908571
_cell_length_b	12.759394
_cell_length_c	14.909227
_cell_angle_alpha	86.675575
_cell_angle_beta	83.209827
_cell_angle_gamma	86.711101
loop_
_atom_site_label
_atom_site_type_symbol
_atom_site_fract_x
_atom_site_fract_y
_atom_site_fract_z
Zn1	Zn	1.413412	-0.473620	-0.591533
Zn2	Zn	1.913412	0.026380	-0.091533
Zn3	Zn	1.404588	-0.658904	-0.440168
Zn4	Zn	1.904588	-0.158904	0.059832
Zn5	Zn	1.253306	-0.473643	-0.431464
Zn6	Zn	1.753306	0.026357	0.068536
Zn7	Zn	1.262026	-0.639657	-0.582770
Zn8	Zn	1.762026	-0.139657	-0.082770
O9	O	1.333333	-0.561456	-0.511484
O10	O	1.833333	-0.061456	-0.011484
O11	O	1.538910	-0.506243	-0.578765
O12	O	2.038910	-0.006243	-0.078765
O13	O	1.377178	-0.642394	-0.312345
O14	O	1.877178	-0.142394	0.187655
O15	O	1.274588	-0.326620	-0.452723
O16	O	1.774588	0.173380	0.047277
O17	O	1.532426	-0.642371	-0.467557
O18	O	2.032426	-0.142371	0.032443
O19	O	1.392218	-0.326603	-0.570325
O20	O	1.892218	0.173397	-0.070325
O21	O	1.266031	-0.506283	-0.305950
O22	O	1.766031	-0.006283	0.194050
O23	O	1.127795	-0.487620	-0.444225
O24	O	1.627795	0.012380	0.055775
O25	O	1.289450	-0.609567	-0.710601
O26	O	1.789450	-0.109567	-0.210601
O27	O	1.134201	-0.609590	-0.555389
O28	O	1.634201	-0.109590	-0.055389
O29	O	1.400673	-0.487580	-0.717040
O30	O	1.900673	0.012420	-0.217040
O31	O	1.385633	-0.803371	-0.459060
O32	O	1.885633	-0.303371	0.040940
O33	O	1.280893	-0.789230	-0.563829
O34	O	1.780893	-0.289230	-0.063829
C35	C	1.098154	-0.546520	-0.497912
C36	C	1.598154	-0.046520	0.002088
C37	C	0.997545	-0.540154	-0.492128
C38	C	1.497545	-0.040154	0.007872
C39	C	1.333277	-0.834422	-0.511459
C40	C	1.833277	-0.334422	-0.011459
C41	C	1.333338	-0.951201	-0.511483
C42	C	1.833338	-0.451201	-0.011483
C43	C	0.815200	-0.655418	-0.596857
C44	C	1.315200	-0.155418	-0.096857
C45	C	0.720669	-0.649439	-0.591425
C46	C	1.220669	-0.149439	-0.091425
C47	C	0.713950	-0.522215	-0.475837
C48	C	1.213950	-0.022215	0.024163
C49	C	0.808481	-0.528193	-0.481269
C50	C	1.308481	-0.028193	0.018731
C51	C	0.859103	-0.594798	-0.541780
C52	C	1.359103	-0.094798	-0.041780
C53	C	0.953635	-0.600781	-0.547207
C54	C	1.453635	-0.100781	-0.047207
C55	C	0.946915	-0.473551	-0.431624
C56	C	1.446915	0.026449	0.068376
C57	C	0.852384	-0.467573	-0.426192
C58	C	1.352384	0.032427	0.073808
C59	C	1.442496	-0.965872	-0.402479
C60	C	1.942496	-0.465872	0.097521
C61	C	1.497099	-1.028070	-0.347989
C62	C	1.997099	-0.528070	0.152011
C63	C	1.497153	-1.137793	-0.348017
C64	C	1.997153	-0.637793	0.151983
C65	C	1.442601	-1.185321	-0.402542
C66	C	1.942601	-0.685321	0.097458
C67	C	1.387998	-1.123123	-0.457033
C68	C	1.887998	-0.623123	0.042967
C69	C	1.387947	-1.013398	-0.456997
C70	C	1.887947	-0.513398	0.043003
C71	C	1.278846	-1.108452	-0.566040
C72	C	1.778846	-0.608452	-0.066040
C73	C	1.278786	-0.998728	-0.566009
C74	C	1.778786	-0.498728	-0.066009
C75	C	1.224294	-1.155980	-0.620566
C76	C	1.724294	-0.655980	-0.120566
C77	C	1.169685	-1.093782	-0.675052
C78	C	1.669685	-0.593782	-0.175052
C79	C	1.169632	-0.984053	-0.675022
C80	C	1.669632	-0.484053	-0.175022
C81	C	1.224183	-0.936531	-0.620499
C82	C	1.724183	-0.436531	-0.120499
C83	C	1.569430	-0.576451	-0.525109
C84	C	2.069430	-0.076451	-0.025109
C85	C	1.670041	-0.582841	-0.530916
C86	C	2.170041	-0.082841	-0.030916
C87	C	1.347018	-0.546424	-0.747583
C88	C	1.847018	-0.046424	-0.247583
C89	C	1.352850	-0.540018	-0.848194
C90	C	1.852850	-0.040018	-0.348194
C91	C	1.333415	-0.287425	-0.511530
C92	C	1.833415	0.212575	-0.011530
C93	C	1.333449	-0.170649	-0.511550
C94	C	1.833449	0.329351	-0.011550
C95	C	1.418971	-0.467484	-0.993354
C96	C	1.918971	0.032516	-0.493354
C97	C	1.413496	-0.473499	-0.898821
C98	C	1.913496	0.026501	-0.398821
C99	C	1.297677	-0.600529	-0.892106
C100	C	1.797677	-0.100529	-0.392106
C101	C	1.303152	-0.594514	-0.986639
C102	C	1.803152	-0.094514	-0.486639
C103	C	1.363800	-0.527988	-1.037260
C104	C	1.863800	-0.027988	-0.537260
C105	C	1.369270	-0.521968	-1.131794
C106	C	1.869270	-0.021968	-0.631794
C107	C	1.253455	-0.649002	-1.125078
C108	C	1.753455	-0.149002	-0.625078
C109	C	1.247980	-0.655017	-1.030545
C110	C	1.747980	-0.155017	-0.530545
C111	C	1.319753	-0.576357	-0.276307
C112	C	1.819753	-0.076357	0.223693
C113	C	1.314096	-0.582478	-0.175706
C114	C	1.814096	-0.082478	0.324294
H115	H	0.994850	-0.655016	-0.596477
H116	H	1.494850	-0.155016	-0.096477
H117	H	1.125277	-1.132489	-0.719447
H118	H	1.625277	-0.632489	-0.219447
H119	H	0.856417	-0.709656	-0.646122
H120	H	1.356417	-0.209656	-0.146122
F121	F	0.798500	-0.396687	-0.361799
F122	F	1.298500	0.103313	0.138201
H123	H	0.982671	-0.424192	-0.386774
H124	H	1.482671	0.075808	0.113226
H125	H	0.672718	-0.467981	-0.426577
H126	H	1.172718	0.032019	0.073423
H127	H	1.541620	-1.188434	-0.303651
H128	H	2.041620	-0.688434	0.196349
H129	H	1.248307	-0.654698	-0.850875
H130	H	1.748307	-0.154698	-0.350875
F131	F	1.442652	-0.849095	-0.402656
F132	F	1.942652	-0.349095	0.097344
F133	F	1.555158	-0.977480	-0.289966
F134	F	2.055158	-0.477480	0.210034
H135	H	1.442658	-1.274664	-0.402568
H136	H	1.942658	-0.774664	0.097432
H137	H	1.224139	-0.847190	-0.620463
H138	H	1.724139	-0.347190	-0.120463
H139	H	0.684927	-0.698800	-0.636276
H140	H	1.184927	-0.198800	-0.136276
H141	H	1.224346	-1.245323	-0.620589
H142	H	1.724346	-0.745323	-0.120589
F143	F	1.111520	-0.917865	-0.733024
F144	F	1.611520	-0.417865	-0.233024
F145	F	1.194728	-0.713391	-1.171812
F146	F	1.694728	-0.213391	-0.671812
H147	H	1.418648	-0.467794	-1.173008
H148	H	1.918648	0.032206	-0.673008
H149	H	1.458423	-0.424231	-0.863076
H150	H	1.958423	0.075769	-0.363076
H151	H	1.468344	-0.413305	-1.034569
H152	H	1.968344	0.086695	-0.534569
H153	H	1.198605	-0.709183	-0.989317
H154	H	1.698605	-0.209183	-0.489317
