data_functionalizedCrystal
_audit_creation_method	'MofGen! by Chris Wilmer'
_symmetry_space_group_name_H-M	'P1'
_symmetry_Int_Tables_number	1
_symmetry_cell_setting	triclinic
loop_
_symmetry_equiv_pos_as_xyz
  x,y,z
_cell_length_a	10.489716
_cell_length_b	16.992695
_cell_length_c	15.455313
_cell_angle_alpha	92.847427
_cell_angle_beta	87.292090
_cell_angle_gamma	87.598679
loop_
_atom_site_label
_atom_site_type_symbol
_atom_site_fract_x
_atom_site_fract_y
_atom_site_fract_z
O1	O	1.708937	0.107196	-0.072125
O2	O	1.338643	0.117606	-0.072128
O3	O	1.522305	-0.001750	-0.072120
O4	O	1.525275	0.226552	-0.072133
O5	O	1.511800	0.005047	0.072142
O6	O	1.328138	0.124403	0.072133
O7	O	1.698432	0.113993	0.072137
Cu8	Cu	1.512326	0.119818	0.085307
Cu9	Cu	1.524750	0.111780	-0.085299
O10	O	1.514770	0.233349	0.072128
C11	C	1.285790	0.120222	0.000002
C12	C	1.143956	0.117882	0.000001
C13	C	1.513233	-0.027585	0.000011
C14	C	1.501838	-0.114693	0.000011
C15	C	1.611788	-0.164319	0.000013
C16	C	1.601074	-0.246165	0.000004
C17	C	1.480408	-0.278385	0.000000
C18	C	1.370450	-0.228753	-0.000004
C19	C	1.381166	-0.146908	-0.000002
C20	C	1.435996	-0.522232	-0.000012
C21	C	1.425288	-0.604083	-0.000012
C22	C	1.655913	-0.621490	-0.000005
C23	C	1.666618	-0.539642	0.000003
C24	C	1.556660	-0.490018	-0.000006
N25	N	1.469453	-0.362045	-0.000006
N26	N	1.567616	-0.406359	-0.000007
C27	C	1.052650	0.191074	-0.000005
C28	C	0.966759	0.155750	0.071129
C29	C	0.977122	0.149031	-0.071101
C30	C	1.059929	0.082590	0.071195
C31	C	1.070303	0.075880	-0.071100
C32	C	0.984455	0.040502	0.000052
C33	C	1.751285	0.111377	0.000004
C34	C	1.893120	0.113716	-0.000000
C35	C	1.523842	0.259184	-0.000004
C36	C	1.535238	0.346292	-0.000010
N37	N	1.503596	0.125472	0.205302
N38	N	1.533488	0.106121	-0.205294
C39	C	1.581653	0.074784	0.250700
C40	C	1.575064	0.079067	0.341508
C41	C	1.490424	0.134041	0.386916
C42	C	1.412359	0.184731	0.341512
C43	C	1.418942	0.180444	0.250706
C44	C	1.462006	0.152524	0.658496
C45	C	1.455431	0.156808	0.749308
C46	C	1.618136	0.051143	0.749298
C47	C	1.624717	0.046864	0.658490
C48	C	1.546647	0.097551	0.613094
N49	N	1.483690	0.138422	0.479736
N50	N	1.553376	0.093166	0.520276
H51	H	1.710046	-0.138092	0.000021
H52	H	1.693638	0.002100	0.621521
H53	H	1.096175	0.054547	0.131393
C54	C	0.927946	0.186955	-0.152339
H55	H	0.951095	0.240414	-0.152250
H56	H	0.837589	0.184749	-0.152040
H57	H	0.964844	0.159108	-0.202847
H58	H	1.272202	-0.254993	-0.000013
H59	H	1.764876	-0.513415	0.000006
H60	H	1.082854	0.254744	0.000057
H61	H	1.386503	0.201578	0.786276
C62	C	0.943943	-0.045561	0.000112
H63	H	0.972412	-0.069056	0.050685
H64	H	0.980906	-0.074094	-0.049935
H65	H	0.853501	-0.046625	-0.000357
H66	H	1.690607	-0.286568	0.000008
C67	C	1.333085	0.236200	0.200764
H68	H	1.349119	0.225769	0.140181
H69	H	1.351195	0.289346	0.215632
H70	H	1.245960	0.227869	0.215661
H71	H	0.921586	0.189480	0.131264
C72	C	1.660923	0.023311	0.391446
H73	H	1.644871	0.033729	0.452030
H74	H	1.748045	0.031636	0.376553
H75	H	1.642801	-0.029836	0.376571
H76	H	1.115492	0.042172	-0.131237
C77	C	1.376144	0.208284	0.608571
H78	H	1.324806	0.241643	0.648623
H79	H	1.322706	0.178078	0.573161
H80	H	1.427955	0.239547	0.573136
C81	C	1.703995	-0.004616	0.799231
H82	H	1.755350	-0.037968	0.759182
H83	H	1.652190	-0.035875	0.834667
H84	H	1.757436	0.025596	0.834641
C85	C	1.776855	-0.676077	-0.000007
H86	H	1.753197	-0.729437	-0.000017
H87	H	1.822333	-0.663876	0.050298
H88	H	1.829645	-0.668605	-0.050323
C89	C	1.292551	-0.639524	-0.000031
H90	H	1.228599	-0.598248	-0.000047
H91	H	1.279901	-0.668724	0.050273
H92	H	1.287263	-0.673456	-0.050347
C93	C	1.674757	0.014311	0.200759
H94	H	1.720291	-0.015268	0.240805
H95	H	1.733327	0.041173	0.165321
H96	H	1.628078	-0.020296	0.165351
C97	C	1.319259	0.245203	0.391458
H98	H	1.326526	0.240503	0.452041
H99	H	1.234294	0.235475	0.376593
H100	H	1.339542	0.296945	0.376561
H101	H	1.346460	-0.481837	-0.000019
H102	H	1.291633	-0.106503	-0.000004
