data_functionalizedCrystal
_audit_creation_method	'MofGen! by Chris Wilmer'
_symmetry_space_group_name_H-M	'P1'
_symmetry_Int_Tables_number	1
_symmetry_cell_setting	triclinic
loop_
_symmetry_equiv_pos_as_xyz
  x,y,z
_cell_length_a	12.759395
_cell_length_b	16.625545
_cell_length_c	12.759387
_cell_angle_alpha	90.033270
_cell_angle_beta	90.020509
_cell_angle_gamma	90.027095
loop_
_atom_site_label
_atom_site_type_symbol
_atom_site_fract_x
_atom_site_fract_y
_atom_site_fract_z
Zn1	Zn	1.606189	-0.320926	0.593987
Zn2	Zn	1.606047	-0.455781	0.418300
Zn3	Zn	1.430488	-0.320970	0.418324
Zn4	Zn	1.430447	-0.455724	0.593939
O5	O	1.518293	-0.388350	0.506137
O6	O	1.753192	-0.338821	0.570692
O7	O	1.582716	-0.437941	0.271282
O8	O	1.453872	-0.208132	0.441656
O9	O	1.753087	-0.437898	0.441615
O10	O	1.582959	-0.208099	0.570715
O11	O	1.453733	-0.338895	0.271300
O12	O	1.283461	-0.338840	0.441610
O13	O	1.453802	-0.437800	0.740967
O14	O	1.283431	-0.437843	0.570633
O15	O	1.582919	-0.338765	0.741002
O16	O	1.582676	-0.568606	0.441569
O17	O	1.453664	-0.568564	0.570610
C18	C	1.245325	-0.388341	0.506119
C19	C	1.128548	-0.388356	0.506137
C20	C	1.128556	-0.491615	0.640272
C21	C	1.073698	-0.543250	0.707342
C22	C	0.963977	-0.543260	0.707355
C23	C	0.909110	-0.491627	0.640292
C24	C	0.963967	-0.439991	0.573222
C25	C	1.073691	-0.439989	0.573214
C26	C	0.963960	-0.336730	0.439094
C27	C	1.073681	-0.336723	0.439074
C28	C	0.909093	-0.285096	0.372031
C29	C	0.963950	-0.233463	0.304954
C30	C	1.073678	-0.233456	0.304943
C31	C	1.128539	-0.285087	0.372003
C32	C	1.518178	-0.597841	0.506104
C33	C	1.518226	-0.687462	0.506125
C34	C	1.518267	-0.760245	0.506146
C35	C	1.518328	-0.851553	0.506169
C36	C	1.518382	-0.924330	0.506183
C37	C	1.518442	-1.015644	0.506204
C38	C	1.792326	-0.388361	0.506156
C39	C	1.909103	-0.388365	0.506164
C40	C	1.518372	-0.388271	0.780171
C41	C	1.518406	-0.388238	0.896948
C42	C	1.518436	-0.178041	0.506194
C43	C	1.518497	-0.088420	0.506218
C44	C	1.518274	-0.388371	0.233170
C45	C	1.518444	-0.388177	0.116394
C46	C	1.652865	-0.285119	0.897004
C47	C	1.720109	-0.233547	0.951893
C48	C	1.720135	-0.233518	1.061615
C49	C	1.652907	-0.285064	1.116450
C50	C	1.585662	-0.336635	1.061561
C51	C	1.585646	-0.336661	0.951837
C52	C	1.451200	-0.439749	1.061505
C53	C	1.451178	-0.439784	0.951783
C54	C	1.383971	-0.491295	1.116340
C55	C	1.316731	-0.542872	1.061451
C56	C	1.316709	-0.542900	0.951722
C57	C	1.383934	-0.491355	0.896894
H58	H	0.919269	-0.191424	0.250362
H59	H	1.217880	-0.285088	0.371998
H60	H	1.774843	-0.191578	0.907235
N61	N	1.652864	-0.285146	0.784927
N62	N	1.712893	-0.239126	0.735980
H63	H	1.712894	-0.239143	0.656824
H64	H	1.261939	-0.584887	0.907038
N65	N	1.788816	-0.180827	1.117672
N66	N	1.848827	-0.134803	1.068708
H67	H	1.897333	-0.097588	1.108298
N68	N	1.652929	-0.285012	1.228528
N69	N	1.712964	-0.238956	1.277523
H70	H	1.712979	-0.238918	1.356679
N71	N	1.384018	-0.491261	1.228417
N72	N	1.465971	-0.508112	1.277392
H73	H	1.466007	-0.508090	1.356549
N74	N	1.240633	-0.491627	0.640257
N75	N	1.289608	-0.537733	0.700128
H76	H	1.368764	-0.537745	0.700120
N77	N	1.129760	-0.595978	0.775844
N78	N	1.227725	-0.595964	0.775830
H79	H	1.267317	-0.633201	0.824212
N80	N	0.907952	-0.596003	0.775878
N81	N	0.956945	-0.642095	0.835753
H82	H	0.917378	-0.679344	0.884149
N83	N	0.797033	-0.491635	0.640333
N84	N	0.748066	-0.537735	0.700231
H85	H	0.668910	-0.537739	0.700261
N86	N	1.129694	-0.180696	0.236435
N87	N	1.080689	-0.134600	0.176575
H88	H	1.120245	-0.097335	0.128192
H89	H	1.261994	-0.584832	1.106106
N90	N	0.797016	-0.285108	0.372063
N91	N	0.748046	-0.331214	0.431951
H92	H	0.668890	-0.331223	0.431972
H93	H	1.383927	-0.491376	0.807553
