data_functionalizedCrystal
_audit_creation_method	'MofGen! by Chris Wilmer'
_symmetry_space_group_name_H-M	'P1'
_symmetry_Int_Tables_number	1
_symmetry_cell_setting	triclinic
loop_
_symmetry_equiv_pos_as_xyz
  x,y,z
_cell_length_a	12.827893
_cell_length_b	12.645330
_cell_length_c	12.827885
_cell_angle_alpha	89.970832
_cell_angle_beta	89.980538
_cell_angle_gamma	90.017662
loop_
_atom_site_label
_atom_site_type_symbol
_atom_site_fract_x
_atom_site_fract_y
_atom_site_fract_z
Zn1	Zn	1.597655	-0.421987	-0.590855
Zn2	Zn	1.597541	-0.599288	-0.416117
Zn3	Zn	1.422896	-0.422039	-0.416128
Zn4	Zn	1.422875	-0.599209	-0.590817
O5	O	1.510242	-0.510631	-0.503479
O6	O	1.743876	-0.445518	-0.567686
O7	O	1.574336	-0.575831	-0.269883
O8	O	1.446134	-0.273685	-0.439326
O9	O	1.743792	-0.575780	-0.439308
O10	O	1.574529	-0.273647	-0.567697
O11	O	1.446024	-0.445607	-0.269891
O12	O	1.276657	-0.445530	-0.439290
O13	O	1.446098	-0.575645	-0.737058
O14	O	1.276641	-0.575695	-0.567633
O15	O	1.574509	-0.445441	-0.737086
O16	O	1.574315	-0.747625	-0.439271
O17	O	1.445988	-0.747566	-0.567623
C18	C	1.238732	-0.510610	-0.503459
C19	C	1.122579	-0.510627	-0.503476
C20	C	1.510165	-0.786060	-0.503465
C21	C	1.510228	-0.903890	-0.503493
C22	C	1.070814	-0.575138	-0.566886
C23	C	0.950763	-0.575157	-0.566904
C24	C	1.429831	-1.071462	-0.584488
C25	C	1.429419	-0.948902	-0.584228
C26	C	1.480415	-0.948493	-0.393362
C27	C	1.479925	-1.071091	-0.393854
C28	C	1.620931	-1.070978	-0.531736
C29	C	1.620252	-0.948371	-0.534144
C30	C	1.782812	-0.510652	-0.503500
C31	C	1.898965	-0.510661	-0.503509
C32	C	1.510314	-0.510528	-0.776050
C33	C	1.510344	-0.510484	-0.892203
C34	C	1.510347	-0.234125	-0.503517
C35	C	1.510391	-0.116295	-0.503533
C36	C	1.446823	-0.574887	-0.943974
C37	C	1.446853	-0.574843	-1.064024
C38	C	1.510230	-0.510656	-0.231969
C39	C	1.510402	-0.510402	-0.115817
H40	H	1.115373	-0.630350	-0.621164
H41	H	1.683435	-0.917724	-0.479474
Br42	Br	1.356143	-0.666852	-0.869726
Br43	Br	1.720973	-1.119321	-0.433479
H44	H	1.392464	-0.629974	-1.108547
H45	H	1.564783	-0.455256	-1.071301
H46	H	1.078020	-0.455407	-0.449206
Br47	Br	1.601038	-0.418534	-0.966451
H48	H	0.906247	-0.630390	-0.621189
H49	H	1.537232	-0.919339	-0.331396
H50	H	0.943475	-0.455432	-0.449214
Br51	Br	1.460626	-1.120474	-0.721049
Br52	Br	1.460506	-0.898627	-0.720336
H53	H	1.348394	-1.102364	-0.566042
H54	H	1.347471	-0.919669	-0.565543
H55	H	1.399120	-1.099784	-0.369962
H56	H	1.642735	-0.919214	-0.615195
H57	H	1.400453	-0.917884	-0.369038
Br58	Br	1.573466	-1.120537	-0.289886
H59	H	1.648127	-1.101816	-0.610678
