data_functionalizedCrystal
_audit_creation_method	'MofGen! by Chris Wilmer'
_symmetry_space_group_name_H-M	'P1'
_symmetry_Int_Tables_number	1
_symmetry_cell_setting	triclinic
loop_
_symmetry_equiv_pos_as_xyz
  x,y,z
_cell_length_a	18.101389
_cell_length_b	13.897449
_cell_length_c	13.897448
_cell_angle_alpha	89.981028
_cell_angle_beta	89.983259
_cell_angle_gamma	90.017847
loop_
_atom_site_label
_atom_site_type_symbol
_atom_site_fract_x
_atom_site_fract_y
_atom_site_fract_z
Zn1	Zn	-0.418719	-1.474675	-0.384083
Zn2	Zn	-0.294881	-1.474577	-0.545366
Zn3	Zn	-0.294895	-1.313372	-0.384090
Zn4	Zn	-0.418684	-1.313346	-0.545341
O5	O	-0.356795	-1.393993	-0.464720
O6	O	-0.402301	-1.609644	-0.405485
O7	O	-0.191250	-1.453163	-0.523985
O8	O	-0.311340	-1.334822	-0.249107
O9	O	-0.311318	-1.609572	-0.523979
O10	O	-0.402314	-1.453330	-0.249102
O11	O	-0.191260	-1.334727	-0.405497
O12	O	-0.311306	-1.178387	-0.405473
O13	O	-0.522322	-1.334777	-0.523937
O14	O	-0.402254	-1.178368	-0.523944
O15	O	-0.522348	-1.453304	-0.405461
O16	O	-0.311284	-1.453138	-0.680344
O17	O	-0.402241	-1.334682	-0.680326
C18	C	-0.356778	-1.143378	-0.464707
C19	C	-0.356788	-1.036164	-0.464725
C20	C	-0.549957	-1.394048	-0.464696
C21	C	-0.632271	-1.394072	-0.464685
C22	C	-0.356773	-1.393922	-0.715334
C23	C	-0.356789	-1.393980	-0.822548
C24	C	-0.931362	-1.394128	-0.464505
C25	C	-0.900021	-1.319297	-0.538809
C26	C	-0.814402	-1.319499	-0.539154
C27	C	-0.782979	-1.394100	-0.464594
C28	C	-0.814077	-1.495734	-0.492184
C29	C	-0.899722	-1.495317	-0.492672
C30	C	-0.899786	-1.368209	-0.362445
C31	C	-0.814136	-1.365948	-0.363034
C32	C	-0.699120	-1.394090	-0.464643
C33	C	-1.015222	-1.394145	-0.464458
C34	C	-0.164384	-1.393993	-0.464675
C35	C	-0.082071	-1.394156	-0.464413
C36	C	-0.356812	-1.645586	-0.464734
C37	C	-0.356820	-1.752800	-0.464740
C38	C	-0.356808	-0.839869	-0.464728
C39	C	-0.356795	-0.949102	-0.464724
C40	C	-0.356835	-1.394082	-1.018843
C41	C	-0.356812	-1.394023	-0.909611
C42	C	-0.356833	-1.394090	-0.213127
C43	C	-0.356849	-1.394131	-0.105913
H44	H	-0.793376	-1.244134	-0.521889
N45	N	-0.926875	-1.276857	-0.330897
N46	N	-0.994781	-1.263740	-0.321178
H47	H	-1.013915	-1.199220	-0.298906
N48	N	-0.925838	-1.224462	-0.517364
N49	N	-0.911193	-1.186884	-0.437920
H50	H	-0.929432	-1.119905	-0.422771
N51	N	-0.927034	-1.340553	-0.633127
N52	N	-0.969267	-1.410574	-0.645860
H53	H	-0.988348	-1.425589	-0.712471
H54	H	-0.793810	-1.291154	-0.342228
N55	N	-0.925226	-1.436564	-0.292986
N56	N	-0.962839	-1.409164	-0.222709
H57	H	-0.980809	-1.457442	-0.173659
N58	N	-0.787297	-1.429333	-0.289903
N59	N	-0.744583	-1.496591	-0.311542
H60	H	-0.725628	-1.541365	-0.259895
N61	N	-0.924809	-1.522859	-0.586262
N62	N	-0.992479	-1.527525	-0.603546
H63	H	-1.010195	-1.546974	-0.669647
N64	N	-0.788713	-1.341002	-0.634052
N65	N	-0.834037	-1.355914	-0.700232
H66	H	-0.815895	-1.371103	-0.767258
N67	N	-0.925727	-1.567633	-0.427723
N68	N	-0.880621	-1.618254	-0.382185
H69	H	-0.898983	-1.669328	-0.336317
N70	N	-0.788545	-1.567579	-0.426448
N71	N	-0.807733	-1.653325	-0.437089
H72	H	-0.789701	-1.704067	-0.390663
N73	N	-0.787172	-1.523767	-0.584781
N74	N	-0.745103	-1.469069	-0.630613
H75	H	-0.726101	-1.488862	-0.696011
