data_functionalizedCrystal
_audit_creation_method	'MofGen! by Chris Wilmer'
_symmetry_space_group_name_H-M	'P1'
_symmetry_Int_Tables_number	1
_symmetry_cell_setting	triclinic
loop_
_symmetry_equiv_pos_as_xyz
  x,y,z
_cell_length_a	12.837943
_cell_length_b	12.503552
_cell_length_c	12.837942
_cell_angle_alpha	93.893149
_cell_angle_beta	85.171060
_cell_angle_gamma	93.895408
loop_
_atom_site_label
_atom_site_type_symbol
_atom_site_fract_x
_atom_site_fract_y
_atom_site_fract_z
O1	O	1.407780	0.089301	-0.266687
O2	O	1.741114	0.422634	0.066646
O3	O	2.074447	0.755967	0.399979
O4	O	1.104647	0.089307	-0.253244
O5	O	1.437981	0.422640	0.080090
O6	O	1.771314	0.755974	0.413423
O7	O	1.249492	0.089297	-0.108399
O8	O	1.582825	0.422631	0.224934
O9	O	1.916158	0.755964	0.558268
O10	O	1.262936	0.089310	-0.411532
O11	O	1.596269	0.422644	-0.078198
O12	O	1.929603	0.755977	0.255135
O13	O	1.238586	-0.089344	-0.119301
O14	O	1.571919	0.243989	0.214032
O15	O	1.905252	0.577322	0.547365
O16	O	1.093741	-0.089335	-0.264146
O17	O	1.427075	0.243999	0.069187
O18	O	1.760408	0.577332	0.402521
O19	O	1.396874	-0.089341	-0.277590
O20	O	1.730208	0.243992	0.055744
O21	O	2.063541	0.577326	0.389077
Cu22	Cu	1.244312	-0.105649	-0.271863
Cu23	Cu	1.577645	0.227684	0.061470
Cu24	Cu	1.910979	0.561017	0.394803
Cu25	Cu	1.257210	0.105615	-0.258970
Cu26	Cu	1.590543	0.438949	0.074363
Cu27	Cu	1.923876	0.772282	0.407697
O28	O	1.252030	-0.089331	-0.422434
O29	O	1.585363	0.244002	-0.089101
O30	O	1.918696	0.577335	0.244233
C31	C	1.060125	-0.000013	-0.254153
C32	C	1.393458	0.333320	0.079180
C33	C	1.726792	0.666654	0.412513
C34	C	0.943710	-0.000011	-0.240609
C35	C	1.277044	0.333323	0.092725
C36	C	1.610377	0.666656	0.426058
N37	N	1.235248	-0.254241	-0.280932
N38	N	1.568581	0.079092	0.052401
N39	N	1.901915	0.412425	0.385735
C40	C	0.718836	-0.000019	-0.403439
C41	C	1.052169	0.333314	-0.070105
C42	C	1.385502	0.666647	0.263228
C43	C	0.609453	-0.000018	-0.390717
C44	C	0.942787	0.333315	-0.057384
C45	C	1.276120	0.666649	0.275950
C46	C	0.615561	-0.000014	-0.202446
C47	C	0.948894	0.333319	0.130888
C48	C	1.282227	0.666652	0.464221
C49	C	0.724943	-0.000016	-0.215167
C50	C	1.058276	0.333318	0.118166
C51	C	1.391610	0.666651	0.451499
C52	C	0.776577	-0.000017	-0.315667
C53	C	1.109910	0.333317	0.017667
C54	C	1.443243	0.666650	0.351000
C55	C	0.885961	-0.000010	-0.328387
C56	C	1.219295	0.333323	0.004947
C57	C	1.552628	0.666656	0.338280
C58	C	0.892066	-0.000014	-0.140117
C59	C	1.225400	0.333319	0.193217
C60	C	1.558733	0.666652	0.526550
C61	C	0.782684	-0.000013	-0.127395
C62	C	1.116017	0.333320	0.205938
C63	C	1.449351	0.666654	0.539271
C64	C	1.279609	-0.526678	-0.236550
C65	C	1.612942	-0.193344	0.096784
C66	C	1.946275	0.139989	0.430117
C67	C	1.221923	-0.473350	-0.294273
C68	C	1.555257	-0.140016	0.039060
C69	C	1.888590	0.193317	0.372394
C70	C	1.229339	-0.351426	-0.286848
C71	C	1.562672	-0.018093	0.046485
C72	C	1.896006	0.315240	0.379819
C73	C	1.272194	-0.648612	-0.243973
C74	C	1.605528	-0.315278	0.089360
C75	C	1.938861	0.018055	0.422693
C76	C	1.441397	-0.000019	-0.276680
C77	C	1.774730	0.333315	0.056654
C78	C	2.108063	0.666648	0.389987
C79	C	1.557812	-0.000014	-0.290224
C80	C	1.891145	0.333319	0.043109
C81	C	2.224479	0.666653	0.376443
C82	C	1.239497	-0.000023	-0.074781
C83	C	1.572831	0.333311	0.258552
C84	C	1.906164	0.666644	0.591886
C85	C	1.225953	-0.000021	0.041634
C86	C	1.559286	0.333313	0.374967
C87	C	1.892620	0.666646	0.708301
N88	N	1.266281	0.254207	-0.249894
N89	N	1.599614	0.587541	0.083439
N90	N	1.932948	0.920874	0.416773
C91	C	1.262024	-0.000009	-0.456052
C92	C	1.595358	0.333324	-0.122719
C93	C	1.928691	0.666658	0.210615
C94	C	1.275569	-0.000004	-0.572467
C95	C	1.608902	0.333329	-0.239133
C96	C	1.942236	0.666663	0.094200
C97	C	1.388784	-0.000002	0.266509
C98	C	1.722117	0.333332	0.599843
C99	C	2.055450	0.666665	0.933176
C100	C	1.376062	0.000000	0.375892
C101	C	1.709396	0.333334	0.709225
C102	C	2.042729	0.666667	1.042559
C103	C	1.187791	-0.000007	0.369784
C104	C	1.521124	0.333326	0.703118
C105	C	1.854457	0.666660	1.036451
C106	C	1.200512	-0.000009	0.260402
C107	C	1.533845	0.333324	0.593735
C108	C	1.867179	0.666658	0.927068
C109	C	1.301012	-0.000008	0.208768
C110	C	1.634345	0.333325	0.542101
C111	C	1.967678	0.666659	0.875435
C112	C	1.313731	-0.000018	0.099383
C113	C	1.647065	0.333316	0.432716
C114	C	1.980398	0.666649	0.766050
C115	C	1.125461	-0.000017	0.093278
C116	C	1.458794	0.333316	0.426611
C117	C	1.792128	0.666649	0.759945
C118	C	1.112740	-0.000015	0.202660
C119	C	1.446073	0.333318	0.535994
C120	C	1.779407	0.666651	0.869327
H121	H	0.928000	-0.000013	-0.410219
H122	H	1.261333	0.333321	-0.076885
H123	H	1.594666	0.666654	0.256448
Cl124	Cl	0.536867	-0.000024	-0.501064
Cl125	Cl	0.870201	0.333309	-0.167731
Cl126	Cl	1.203534	0.666642	0.165602
Cl127	Cl	0.717763	-0.000015	-0.001060
Cl128	Cl	1.051096	0.333319	0.332273
Cl129	Cl	1.384430	0.666652	0.665606
Cl130	Cl	0.986405	-0.000007	0.267582
Cl131	Cl	1.319739	0.333326	0.600915
Cl132	Cl	1.653072	0.666659	0.934249
Cl133	Cl	1.364455	-0.455799	-0.151650
Cl134	Cl	1.697789	-0.122466	0.181683
Cl135	Cl	2.031122	0.210867	0.515017
Cl136	Cl	1.440071	-0.000024	0.034473
Cl137	Cl	1.773405	0.333310	0.367806
Cl138	Cl	2.106738	0.666643	0.701140
H139	H	1.447536	0.000009	0.422901
H140	H	1.780869	0.333342	0.756235
H141	H	2.114203	0.666675	1.089568
H142	H	1.105969	0.000004	0.411844
H143	H	1.439303	0.333337	0.745178
H144	H	1.772636	0.666671	1.078511
Cl145	Cl	0.964663	0.000005	-0.029767
Cl146	Cl	1.297996	0.333339	0.303566
Cl147	Cl	1.631329	0.666672	0.636899
H148	H	0.760877	-0.000018	-0.485269
H149	H	1.094210	0.333315	-0.151936
H150	H	1.427543	0.666648	0.181398
Cl151	Cl	1.137080	-0.544232	-0.379184
Cl152	Cl	1.470414	-0.210899	-0.045851
Cl153	Cl	1.803747	0.122435	0.287483
H154	H	1.470614	-0.000011	0.224468
H155	H	1.803947	0.333322	0.557801
H156	H	2.137280	0.666655	0.891135
H157	H	0.573496	-0.000102	-0.120629
H158	H	0.906829	0.333231	0.212704
H159	H	1.240163	0.666564	0.546038
H160	H	1.053990	-0.000031	0.046253
H161	H	1.387324	0.333302	0.379586
H162	H	1.720657	0.666636	0.712919
