data_functionalizedCrystal
_audit_creation_method	'MofGen! by Chris Wilmer'
_symmetry_space_group_name_H-M	'P1'
_symmetry_Int_Tables_number	1
_symmetry_cell_setting	triclinic
loop_
_symmetry_equiv_pos_as_xyz
  x,y,z
_cell_length_a	13.635800
_cell_length_b	13.167930
_cell_length_c	11.168136
_cell_angle_alpha	82.040257
_cell_angle_beta	108.508683
_cell_angle_gamma	74.245432
loop_
_atom_site_label
_atom_site_type_symbol
_atom_site_fract_x
_atom_site_fract_y
_atom_site_fract_z
V1	V	2.053092	-0.148911	0.411147
O2	O	2.034822	0.007139	0.385368
O3	O	2.039418	-0.295250	0.425600
O4	O	2.041265	-0.146628	0.582585
O5	O	2.032962	-0.142511	0.227297
V6	V	2.291938	-0.130245	0.387059
O7	O	2.190115	-0.189857	0.463984
O8	O	2.380014	-0.089299	0.334222
O9	O	2.194009	0.016094	0.372606
O10	O	2.368906	-0.286295	0.412838
O11	O	2.370766	-0.136644	0.570909
O12	O	2.192161	-0.132528	0.215621
V13	V	2.553092	-0.148911	0.411147
O14	O	2.534822	0.007139	0.385368
O15	O	2.539418	-0.295250	0.425600
O16	O	2.541265	-0.146628	0.582585
O17	O	2.532962	-0.142511	0.227297
V18	V	2.791938	-0.130245	0.387059
O19	O	2.690115	-0.189857	0.463984
O20	O	2.880014	-0.089299	0.334222
O21	O	2.694009	0.016094	0.372606
O22	O	2.868906	-0.286295	0.412838
O23	O	2.870766	-0.136644	0.570909
O24	O	2.692161	-0.132528	0.215621
C25	C	1.964079	-0.330924	0.423570
C26	C	1.993625	-0.450557	0.436530
C27	C	1.989757	-0.644616	0.225988
C28	C	2.017517	-0.757022	0.238159
C29	C	2.076912	-0.787777	0.473043
C30	C	2.049152	-0.675371	0.460871
C31	C	2.005573	-0.603794	0.337340
C32	C	1.977806	-0.491386	0.325169
C33	C	2.037208	-0.522143	0.560053
C34	C	2.064967	-0.634549	0.572224
C35	C	1.966434	-0.141340	0.623817
C36	C	1.997476	-0.140442	0.764082
C37	C	2.101019	0.051762	0.374634
C38	C	2.061093	0.171395	0.361682
C39	C	2.098663	-0.137819	0.174383
C40	C	2.057240	-0.138712	0.034116
C41	C	2.464079	-0.330924	0.423570
C42	C	2.493625	-0.450557	0.436530
C43	C	2.466434	-0.141340	0.623817
C44	C	2.497476	-0.140442	0.764082
C45	C	2.098672	-0.145145	0.833325
C46	C	2.130758	-0.144217	0.978297
C47	C	2.601019	0.051762	0.374634
C48	C	2.561093	0.171395	0.361682
C49	C	2.598663	-0.137819	0.174383
C50	C	2.557240	-0.138712	0.034116
C51	C	2.599431	-0.512226	0.449568
C52	C	2.627212	-0.624638	0.461765
C53	C	2.549183	-0.675378	0.460915
C54	C	2.443369	-0.613701	0.447879
C55	C	2.415592	-0.501292	0.435692
C56	C	2.627781	0.233063	0.348647
C57	C	2.590272	0.345474	0.336456
C58	C	2.486079	0.396213	0.337309
C59	C	2.419385	0.334538	0.350342
C60	C	2.456891	0.222130	0.362523
C61	C	2.598672	-0.145145	0.833325
C62	C	2.630758	-0.144217	0.978297
H63	H	1.942316	-0.433108	0.224583
C64	C	2.112891	-0.713294	0.708100
N65	N	2.148980	-0.772604	0.810445
H66	H	2.661553	-0.149852	0.785278
C67	C	2.685285	-0.456435	0.450516
N68	N	2.749960	-0.414422	0.451240
H69	H	2.571815	-0.766909	0.470840
H70	H	2.470549	-0.134692	0.974604
C71	C	2.054606	-0.477231	0.682548
N72	N	2.067708	-0.443401	0.774809
H73	H	2.161553	-0.149852	0.785278
C74	C	2.383523	0.154304	0.376879
N75	N	2.328256	0.103223	0.387693
C76	C	1.940120	-0.133274	0.953716
N77	N	1.851902	-0.129177	0.893150
H78	H	2.434591	-0.135720	0.812125
H79	H	2.334547	0.375867	0.351033
C80	C	2.247876	-0.149654	1.058704
N81	N	2.336092	-0.153747	1.119270
C82	C	2.747876	-0.149654	1.058704
N83	N	2.836092	-0.153747	1.119270
H84	H	2.329432	-0.451089	0.425069
C85	C	2.743609	-0.692460	0.476089
N86	N	2.831279	-0.743539	0.486873
H87	H	1.954260	-0.586336	0.125402
H88	H	1.934591	-0.135720	0.812125
H89	H	2.004637	-0.790254	0.147484
H90	H	2.379845	-0.655031	0.447189
H91	H	2.712624	0.191766	0.347952
C92	C	2.663671	0.413290	0.322176
N93	N	2.718962	0.464363	0.311439
H94	H	2.455552	0.487744	0.327389
H95	H	2.112411	-0.846074	0.573617
