data_functionalizedCrystal
_audit_creation_method	'MofGen! by Chris Wilmer'
_symmetry_space_group_name_H-M	'P1'
_symmetry_Int_Tables_number	1
_symmetry_cell_setting	triclinic
loop_
_symmetry_equiv_pos_as_xyz
  x,y,z
_cell_length_a	14.908571
_cell_length_b	16.120484
_cell_length_c	14.908803
_cell_angle_alpha	83.995202
_cell_angle_beta	89.810884
_cell_angle_gamma	89.787312
loop_
_atom_site_label
_atom_site_type_symbol
_atom_site_fract_x
_atom_site_fract_y
_atom_site_fract_z
Zn1	Zn	1.319948	-0.435107	0.609961
Zn2	Zn	1.320927	-0.566886	0.466384
Zn3	Zn	1.179230	-0.419051	0.450135
Zn4	Zn	1.161977	-0.565938	0.607985
O5	O	1.245521	-0.496746	0.533616
O6	O	1.445490	-0.459704	0.598543
O7	O	1.309760	-0.540952	0.338080
O8	O	1.204708	-0.304559	0.465363
O9	O	1.446209	-0.556521	0.493057
O10	O	1.308093	-0.316355	0.582787
O11	O	1.205656	-0.432339	0.326142
O12	O	1.051530	-0.431420	0.463447
O13	O	1.175302	-0.554906	0.734395
O14	O	1.038854	-0.539338	0.579419
O15	O	1.291363	-0.458786	0.735847
O16	O	1.293030	-0.683382	0.491141
O17	O	1.176251	-0.682686	0.595174
C18	C	1.012674	-0.483535	0.519456
C19	C	0.913058	-0.477904	0.513420
C20	C	0.712719	-0.579855	0.622693
C21	C	0.619121	-0.574567	0.617026
C22	C	0.632263	-0.462037	0.496422
C23	C	0.725861	-0.467325	0.502090
C24	C	0.766085	-0.526237	0.565227
C25	C	0.859685	-0.531528	0.570889
C26	C	0.872825	-0.418994	0.450291
C27	C	0.779227	-0.413707	0.444623
C28	C	1.232898	-0.713275	0.544727
C29	C	1.227578	-0.805914	0.549516
C30	C	1.217869	-0.975527	0.558277
C31	C	1.273332	-1.017134	0.508980
C32	C	1.267930	-1.111512	0.513855
C33	C	1.223270	-0.881140	0.553404
C34	C	1.479277	-0.510009	0.547833
C35	C	1.578890	-0.515661	0.553891
C36	C	1.231299	-0.508531	0.768745
C37	C	1.225239	-0.513554	0.868943
C38	C	1.258216	-0.279373	0.522483
C39	C	1.263626	-0.186741	0.517739
C40	C	1.334704	-0.422881	1.058737
C41	C	1.329013	-0.427597	1.152882
C42	C	1.208162	-0.527697	1.151378
C43	C	1.213853	-0.522981	1.057233
C44	C	1.277127	-0.470572	1.010916
C45	C	1.282822	-0.465861	0.916770
C46	C	1.161967	-0.565956	0.915268
C47	C	1.156276	-0.570672	1.009412
C48	C	1.259680	-0.485025	1.299403
C49	C	1.265745	-0.480005	1.199206
H50	H	0.745471	-0.627827	0.674097
H51	H	0.575673	-0.618227	0.663823
H52	H	1.115086	-0.604792	0.876322
F53	F	0.902494	-0.594228	0.638082
F54	F	0.589437	-0.399334	0.429244
H55	H	1.386228	-0.380212	1.021026
F56	F	0.736407	-0.351009	0.377435
F57	F	1.390293	-0.376837	1.203773
F58	F	1.350165	-0.410086	0.867478
H59	H	0.916286	-0.375336	0.403495
H60	H	1.156647	-0.570366	1.189105
H61	H	1.166332	-1.010784	0.604139
F62	F	1.340697	-0.971049	0.449027
F63	F	1.088938	-0.626445	1.058716
