data_functionalizedCrystal
_audit_creation_method	'MofGen! by Chris Wilmer'
_symmetry_space_group_name_H-M	'P1'
_symmetry_Int_Tables_number	1
_symmetry_cell_setting	triclinic
loop_
_symmetry_equiv_pos_as_xyz
  x,y,z
_cell_length_a	16.992694
_cell_length_b	13.101039
_cell_length_c	16.992695
_cell_angle_alpha	86.408978
_cell_angle_beta	90.668223
_cell_angle_gamma	93.581737
loop_
_atom_site_label
_atom_site_type_symbol
_atom_site_fract_x
_atom_site_fract_y
_atom_site_fract_z
O1	O	1.054903	0.085087	0.162849
O2	O	1.388236	0.418420	0.496183
O3	O	1.721569	0.751753	0.829516
O4	O	0.826504	0.085117	0.161017
O5	O	1.159837	0.418450	0.494350
O6	O	1.493171	0.751783	0.827683
O7	O	0.939787	0.085094	0.047733
O8	O	1.273121	0.418427	0.381067
O9	O	1.606454	0.751760	0.714400
O10	O	0.941619	0.085110	0.276133
O11	O	1.274953	0.418443	0.609466
O12	O	1.608286	0.751776	0.942799
O13	O	0.931660	-0.085335	0.055876
O14	O	1.264994	0.247999	0.389209
O15	O	1.598327	0.581332	0.722542
O16	O	0.818377	-0.085311	0.169159
O17	O	1.151710	0.248022	0.502492
O18	O	1.485044	0.581355	0.835826
O19	O	1.046776	-0.085342	0.170992
O20	O	1.380109	0.247992	0.504325
O21	O	1.713442	0.581325	0.837658
Zn22	Zn	0.931286	-0.112386	0.171368
Zn23	Zn	1.264619	0.220948	0.504701
Zn24	Zn	1.597953	0.554281	0.838035
Zn25	Zn	0.941994	0.112161	0.160640
Zn26	Zn	1.275327	0.445494	0.493974
Zn27	Zn	1.608660	0.778827	0.827307
O28	O	0.933492	-0.085319	0.284275
O29	O	1.266826	0.248015	0.617608
O30	O	1.600159	0.581348	0.950942
C31	C	0.793081	-0.000094	0.162732
C32	C	1.126414	0.333240	0.496065
C33	C	1.459747	0.666573	0.829399
C34	C	0.705597	-0.000082	0.155703
C35	C	1.038930	0.333251	0.489036
C36	C	1.372263	0.666584	0.822369
N37	N	0.923984	-0.265633	0.178689
N38	N	1.257317	0.067701	0.512023
N39	N	1.590651	0.401034	0.845356
C40	C	0.659606	-0.000078	0.223520
C41	C	0.992939	0.333255	0.556854
C42	C	1.326273	0.666588	0.890187
C43	C	0.577404	-0.000093	0.216912
C44	C	0.910738	0.333240	0.550245
C45	C	1.244071	0.666574	0.883579
C46	C	0.541196	-0.000104	0.142485
C47	C	0.874529	0.333229	0.475818
C48	C	1.207862	0.666563	0.809152
C49	C	0.587192	-0.000111	0.074662
C50	C	0.920526	0.333222	0.407996
C51	C	1.253859	0.666556	0.741329
C52	C	0.669392	-0.000104	0.081272
C53	C	1.002725	0.333229	0.414605
C54	C	1.336058	0.666563	0.747938
C55	C	0.295880	-0.000133	0.115092
C56	C	0.629213	0.333200	0.448425
C57	C	0.962547	0.666533	0.781759
C58	C	0.213674	-0.000138	0.108488
C59	C	0.547008	0.333196	0.441821
C60	C	0.880341	0.666529	0.775154
C61	C	0.203892	-0.000121	0.250738
C62	C	0.537225	0.333212	0.584071
C63	C	0.870559	0.666545	0.917405
C64	C	0.286094	-0.000108	0.257341
C65	C	0.619427	0.333225	0.590674
C66	C	0.952761	0.666559	0.924007
C67	C	0.332083	-0.000120	0.189518
C68	C	0.665416	0.333213	0.522852
C69	C	0.998750	0.666546	0.856185
N70	N	0.457173	-0.000116	0.135728
N71	N	0.790506	0.333218	0.469062
N72	N	1.123839	0.666551	0.802395
N73	N	0.416104	-0.000116	0.196276
N74	N	0.749437	0.333217	0.529609
N75	N	1.082771	0.666551	0.862943
C76	C	0.914050	-0.474673	0.188658
C77	C	1.247383	-0.141340	0.521991
C78	C	1.580716	0.191993	0.855324
C79	C	0.959233	-0.525558	0.143347
C80	C	1.292567	-0.192225	0.476681
C81	C	1.625900	0.141108	0.810014
C82	C	0.953706	-0.641876	0.148894
C83	C	1.287039	-0.308542	0.482227
C84	C	1.620373	0.024791	0.815560
C85	C	0.919576	-0.358345	0.183112
C86	C	1.252910	-0.025012	0.516445
C87	C	1.586243	0.308321	0.849779
C88	C	1.080199	-0.000129	0.169276
C89	C	1.413533	0.333204	0.502610
C90	C	1.746866	0.666538	0.835943
C91	C	1.167684	-0.000134	0.176305
C92	C	1.501017	0.333200	0.509639
C93	C	1.834350	0.666533	0.842972
C94	C	0.933368	-0.000120	0.022444
C95	C	1.266702	0.333213	0.355778
C96	C	1.600035	0.666547	0.689111
C97	C	0.926339	-0.000119	-0.065040
C98	C	1.259673	0.333215	0.268293
C99	C	1.593006	0.666548	0.601626
N100	N	0.949302	0.265408	0.153313
N101	N	1.282635	0.598741	0.486646
N102	N	1.615968	0.932074	0.819980
C103	C	0.994157	-0.000129	-0.111031
C104	C	1.327490	0.333204	0.222303
C105	C	1.660824	0.666538	0.555636
C106	C	0.987549	-0.000118	-0.193232
C107	C	1.320882	0.333215	0.140101
C108	C	1.654215	0.666548	0.473435
C109	C	0.913122	-0.000105	-0.229441
C110	C	1.246455	0.333228	0.103892
C111	C	1.579788	0.666562	0.437226
C112	C	0.845299	-0.000092	-0.183445
C113	C	1.178632	0.333241	0.149889
C114	C	1.511966	0.666575	0.483222
C115	C	0.851909	-0.000095	-0.101245
C116	C	1.185242	0.333238	0.232088
C117	C	1.518575	0.666572	0.565421
C118	C	0.885728	-0.000087	-0.474756
C119	C	1.219061	0.333246	-0.141423
C120	C	1.552395	0.666579	0.191911
C121	C	0.879123	-0.000087	-0.556961
C122	C	1.212457	0.333246	-0.223628
C123	C	1.545790	0.666580	0.109705
C124	C	1.021373	-0.000112	-0.566743
C125	C	1.354707	0.333222	-0.233410
C126	C	1.688040	0.666555	0.099923
C127	C	1.027976	-0.000121	-0.484542
C128	C	1.361310	0.333212	-0.151208
C129	C	1.694643	0.666546	0.182125
C130	C	0.960154	-0.000102	-0.438553
C131	C	1.293487	0.333231	-0.105219
C132	C	1.626821	0.666564	0.228114
N133	N	0.906365	-0.000097	-0.313464
N134	N	1.239698	0.333236	0.019870
N135	N	1.573031	0.666569	0.353203
N136	N	0.966912	-0.000103	-0.354532
N137	N	1.300245	0.333231	-0.021199
N138	N	1.633579	0.666564	0.312135
C139	C	0.939912	-0.000103	0.309564
C140	C	1.273245	0.333231	0.642897
C141	C	1.606578	0.666564	0.976231
C142	C	0.946941	-0.000097	0.397048
C143	C	1.280274	0.333236	0.730382
C144	C	1.613607	0.666570	1.063715
H145	H	0.689081	-0.000068	0.284127
H146	H	1.022414	0.333265	0.617460
H147	H	1.355747	0.666598	0.950794
Cl148	Cl	0.353684	-0.000148	0.029828
Cl149	Cl	0.687018	0.333185	0.363161
Cl150	Cl	1.020351	0.666519	0.696495
Cl151	Cl	1.025686	-0.457950	0.077345
Cl152	Cl	1.359020	-0.124617	0.410678
Cl153	Cl	1.692353	0.208716	0.744012
Cl154	Cl	0.541672	-0.000132	-0.018904
Cl155	Cl	0.875005	0.333202	0.314430
Cl156	Cl	1.208339	0.666535	0.647763
Cl157	Cl	1.087727	-0.000156	-0.065519
Cl158	Cl	1.421060	0.333177	0.267814
Cl159	Cl	1.754393	0.666511	0.601148
Cl160	Cl	0.800465	-0.000061	-0.416952
Cl161	Cl	1.133798	0.333272	-0.083619
Cl162	Cl	1.467131	0.666605	0.249714
Cl163	Cl	0.519591	-0.000082	0.302173
Cl164	Cl	0.852924	0.333252	0.635506
Cl165	Cl	1.186258	0.666585	0.968840
H166	H	0.315570	-0.000087	0.317946
H167	H	0.648903	0.333246	0.651280
H168	H	0.982236	0.666580	0.984613
H169	H	0.706837	-0.000106	0.026047
H170	H	1.040170	0.333227	0.359380
H171	H	1.373504	0.666560	0.692714
H172	H	1.042773	-0.000129	-0.230674
H173	H	1.376106	0.333205	0.102659
H174	H	1.709440	0.666538	0.435993
H175	H	0.796684	-0.000087	-0.063800
H176	H	1.130018	0.333247	0.269533
H177	H	1.463351	0.666580	0.602866
H178	H	0.871219	-0.518462	0.231612
H179	H	1.204552	-0.185128	0.564945
H180	H	1.537885	0.148205	0.898279
H181	H	1.088582	-0.000132	-0.455066
H182	H	1.421916	0.333201	-0.121733
H183	H	1.755249	0.666535	0.211600
H184	H	0.166439	-0.000113	0.305955
H185	H	0.499772	0.333220	0.639288
H186	H	0.833106	0.666553	0.972622
H187	H	1.076590	-0.000125	-0.604196
H188	H	1.409924	0.333209	-0.270863
H189	H	1.743257	0.666542	0.062471
H190	H	0.818512	-0.000093	-0.586439
H191	H	1.151845	0.333241	-0.253105
H192	H	1.485179	0.666574	0.080228
H193	H	0.184196	-0.000146	0.047877
H194	H	0.517530	0.333188	0.381210
H195	H	0.850863	0.666521	0.714544
Cl196	Cl	0.751734	-0.000063	-0.228965
Cl197	Cl	1.085067	0.333271	0.104368
Cl198	Cl	1.418400	0.666604	0.437702
