data_functionalizedCrystal
_audit_creation_method	'MofGen! by Chris Wilmer'
_symmetry_space_group_name_H-M	'P1'
_symmetry_Int_Tables_number	1
_symmetry_cell_setting	triclinic
loop_
_symmetry_equiv_pos_as_xyz
  x,y,z
_cell_length_a	27.731993
_cell_length_b	27.732048
_cell_length_c	14.421503
_cell_angle_alpha	89.999321
_cell_angle_beta	90.003981
_cell_angle_gamma	82.631525
loop_
_atom_site_label
_atom_site_type_symbol
_atom_site_fract_x
_atom_site_fract_y
_atom_site_fract_z
O1	O	0.640947	0.057385	-0.076872
O2	O	1.140947	0.557385	0.423128
O3	O	0.500150	0.066158	-0.076930
O4	O	1.000150	0.566158	0.423070
O5	O	0.574922	-0.008626	-0.076882
O6	O	1.074922	0.491374	0.423118
O7	O	0.566176	0.132169	-0.076921
O8	O	1.066176	0.632169	0.423079
O9	O	0.574909	-0.008615	0.077342
O10	O	1.074909	0.491385	0.577342
O11	O	0.500138	0.066169	0.077293
O12	O	1.000138	0.566169	0.577293
O13	O	0.640935	0.057396	0.077351
O14	O	1.140935	0.557396	0.577351
Cu15	Cu	0.570535	0.061783	0.091404
Cu16	Cu	1.070535	0.561783	0.591404
Cu17	Cu	0.570550	0.061770	-0.090983
Cu18	Cu	1.070550	0.561770	0.409017
O19	O	0.566164	0.132180	0.077303
O20	O	1.066164	0.632180	0.577303
C21	C	0.482137	0.065983	0.000174
C22	C	0.982137	0.565983	0.500174
C23	C	0.428480	0.065441	0.000153
C24	C	0.928480	0.565441	0.500153
C25	C	0.045327	0.061504	-0.083868
C26	C	0.545327	0.561504	0.416132
C27	C	0.246984	0.063571	-0.083894
C28	C	0.746984	0.563571	0.416106
O29	O	0.273063	0.063814	-0.155391
O30	O	0.773063	0.563814	0.344609
N31	N	0.272198	0.063836	0.000172
N32	N	0.772198	0.563836	0.500172
C33	C	0.246994	0.063581	0.084249
C34	C	0.746994	0.563581	0.584249
O35	O	0.273068	0.063848	0.155751
O36	O	0.773068	0.563848	0.655751
C37	C	0.045338	0.061510	0.084274
C38	C	0.545338	0.561510	0.584274
C39	C	0.020127	0.061251	0.000203
C40	C	0.520127	0.561251	0.500203
C41	C	0.020115	0.061244	-0.167932
C42	C	0.520115	0.561244	0.332068
C43	C	-0.030296	0.060730	-0.167925
C44	C	0.469704	0.560730	0.332075
C45	C	-0.055497	0.060476	-0.083853
C46	C	0.444503	0.560476	0.416147
C47	C	-0.030285	0.060736	0.000210
C48	C	0.469715	0.560736	0.500210
C49	C	0.020136	0.061252	0.168351
C50	C	0.520136	0.561252	0.668351
C51	C	-0.030281	0.060733	0.168349
C52	C	0.469719	0.560733	0.668349
C53	C	-0.055492	0.060473	0.084279
C54	C	0.444508	0.560473	0.584279
C55	C	-0.105897	0.059969	0.084289
C56	C	0.394103	0.559969	0.584289
N57	N	-0.131110	0.059704	0.000224
N58	N	0.368890	0.559704	0.500224
C59	C	-0.105910	0.059958	-0.083848
C60	C	0.394090	0.559958	0.416152
C61	C	0.352866	0.064669	0.084230
C62	C	0.852866	0.564669	0.584230
C63	C	0.403280	0.065187	0.084224
C64	C	0.903280	0.565187	0.584224
C65	C	0.403267	0.065177	-0.083919
C66	C	0.903267	0.565177	0.416081
C67	C	0.352852	0.064662	-0.083912
C68	C	0.852852	0.564662	0.416088
C69	C	0.327653	0.064404	0.000165
C70	C	0.827653	0.564404	0.500165
C71	C	-0.211778	0.058879	-0.083826
C72	C	0.288222	0.558879	0.416174
C73	C	-0.262195	0.058366	-0.083811
C74	C	0.237805	0.558366	0.416189
C75	C	-0.262177	0.058374	0.084331
C76	C	0.237823	0.558374	0.584331
C77	C	-0.211765	0.058889	0.084317
C78	C	0.288235	0.558889	0.584317
C79	C	-0.186567	0.059139	0.000231
C80	C	0.313433	0.559139	0.500231
O81	O	-0.132006	0.059720	0.155749
O82	O	0.367994	0.559720	0.655749
O83	O	-0.131991	0.059679	-0.155339
O84	O	0.368009	0.559679	0.344661
C85	C	0.095739	0.062018	-0.083875
C86	C	0.595739	0.562018	0.416125
C87	C	0.120950	0.062279	0.000189
C88	C	0.620950	0.562279	0.500189
C89	C	0.095750	0.062025	0.084260
C90	C	0.595750	0.562025	0.584260
C91	C	0.171364	0.062797	0.000183
C92	C	0.671364	0.562797	0.500183
C93	C	0.196564	0.063051	-0.083888
C94	C	0.696564	0.563051	0.416112
C95	C	0.171350	0.062786	-0.167954
C96	C	0.671350	0.562786	0.332046
C97	C	0.120939	0.062272	-0.167946
C98	C	0.620939	0.562272	0.332054
C99	C	0.120964	0.062290	0.168325
C100	C	0.620964	0.562290	0.668325
C101	C	0.171375	0.062804	0.168311
C102	C	0.671375	0.562804	0.668311
C103	C	0.196575	0.063058	0.084240
C104	C	0.696575	0.563058	0.584240
C105	C	0.574732	-0.026628	0.000233
C106	C	1.074732	0.473372	0.500233
C107	C	0.574179	-0.080282	0.000240
C108	C	1.074179	0.419718	0.500240
C109	C	0.614884	-0.419105	0.000209
C110	C	1.114884	0.080895	0.500209
C111	C	0.612833	-0.620765	0.000195
C112	C	1.112833	-0.120765	0.500195
O113	O	0.650055	-0.652028	0.000170
O114	O	1.150055	-0.152028	0.500170
N115	N	0.568497	-0.639880	0.000178
N116	N	1.068497	-0.139880	0.500178
C117	C	0.524670	-0.608576	0.000158
C118	C	1.024670	-0.108576	0.500158
O119	O	0.486912	-0.629462	0.000133
O120	O	0.986912	-0.129462	0.500133
C121	C	0.526721	-0.406918	0.000165
C122	C	1.026721	0.093082	0.500165
C123	C	0.571061	-0.387806	0.000192
C124	C	1.071061	0.112194	0.500192
C125	C	0.659220	-0.399993	0.000235
C126	C	1.159220	0.100007	0.500235
C127	C	0.659732	-0.349581	0.000243
C128	C	1.159732	0.150419	0.500243
C129	C	0.615909	-0.318282	0.000226
C130	C	1.115909	0.181718	0.500226
C131	C	0.571573	-0.337394	0.000200
C132	C	1.071573	0.162606	0.500200
C133	C	0.482895	-0.375616	0.000138
C134	C	0.982895	0.124384	0.500138
C135	C	0.483412	-0.325199	0.000138
C136	C	0.983412	0.174801	0.500138
C137	C	0.527751	-0.306087	0.000165
C138	C	1.027751	0.193913	0.500165
C139	C	0.528262	-0.255683	0.000192
C140	C	1.028262	0.244317	0.500192
N141	N	0.572598	-0.236568	0.000209
N142	N	1.072598	0.263432	0.500209
C143	C	0.616422	-0.267867	0.000226
C144	C	1.116422	0.232133	0.500226
C145	C	0.523596	-0.714450	0.000156
C146	C	1.023596	-0.214450	0.500156
C147	C	0.523083	-0.764865	0.000156
C148	C	1.023083	-0.264865	0.500156
C149	C	0.611246	-0.777049	0.000192
C150	C	1.111246	-0.277049	0.500192
C151	C	0.611759	-0.726634	0.000198
C152	C	1.111759	-0.226634	0.500198
C153	C	0.567932	-0.695335	0.000173
C154	C	1.067932	-0.195335	0.500173
C155	C	0.617494	-0.161998	0.000245
C156	C	1.117494	0.338002	0.500245
C157	C	0.618003	-0.111582	0.000257
C158	C	1.118003	0.388418	0.500257
C159	C	0.529839	-0.099401	0.000217
C160	C	1.029839	0.400599	0.500217
C161	C	0.529331	-0.149814	0.000209
C162	C	1.029331	0.350186	0.500209
C163	C	0.573162	-0.181112	0.000220
C164	C	1.073162	0.318888	0.500220
O165	O	0.491060	-0.224392	0.000206
O166	O	0.991060	0.275608	0.500206
O167	O	0.654174	-0.246972	0.000230
O168	O	1.154174	0.253028	0.500230
C169	C	0.614372	-0.469517	0.000201
C170	C	1.114372	0.030483	0.500201
C171	C	0.570036	-0.488630	0.000175
C172	C	1.070036	0.011370	0.500175
C173	C	0.526213	-0.457331	0.000158
C174	C	1.026213	0.042669	0.500158
C175	C	0.569523	-0.539044	0.000175
C176	C	1.069523	-0.039044	0.500175
C177	C	0.613346	-0.570343	0.000192
C178	C	1.113346	-0.070343	0.500192
C179	C	0.657683	-0.551228	0.000209
C180	C	1.157683	-0.051228	0.500209
C181	C	0.658195	-0.500817	0.000218
C182	C	1.158195	-0.000817	0.500218
C183	C	0.481876	-0.476446	0.000140
C184	C	0.981876	0.023554	0.500140
C185	C	0.481368	-0.526858	0.000133
C186	C	0.981368	-0.026858	0.500133
C187	C	0.525191	-0.558157	0.000150
C188	C	1.025191	-0.058157	0.500150
C189	C	0.658949	0.057570	0.000245
C190	C	1.158949	0.557570	0.500245
C191	C	0.712605	0.058113	0.000260
C192	C	1.212605	0.558113	0.500260
C193	C	0.566353	0.150181	0.000187
C194	C	1.066353	0.650181	0.500187
C195	C	0.566906	0.203836	0.000173
C196	C	1.066906	0.703836	0.500173
N197	N	0.570529	0.061792	0.219685
N198	N	1.070529	0.561792	0.719685
N199	N	0.570561	0.061757	-0.219264
N200	N	1.070561	0.561757	0.280736
C201	C	0.535948	0.096357	0.469317
C202	C	1.035948	0.596357	0.969317
C203	C	0.579558	0.105405	0.531134
C204	C	1.079558	0.605405	1.031134
C205	C	0.570540	0.061781	0.408847
C206	C	1.070540	0.561781	0.908847
C207	C	0.526941	0.052745	0.531123
C208	C	1.026941	0.552745	1.031123
C209	C	0.570548	0.061771	0.591568
C210	C	1.070548	0.561771	1.091568
C211	C	0.614172	0.070850	0.469304
C212	C	1.114172	0.570850	0.969304
C213	C	0.561527	0.018171	0.469287
C214	C	1.061527	0.518171	0.969287
C215	C	0.605169	0.027200	0.531077
C216	C	1.105169	0.527200	1.031077
C217	C	0.570535	0.061788	0.303586
C218	C	1.070535	0.561788	0.803586
C219	C	0.570558	0.061763	0.696827
C220	C	1.070558	0.561763	1.196827
H221	H	0.100416	0.062061	-0.236406
H222	H	0.600416	0.562061	0.263594
H223	H	0.506724	0.125620	0.442200
H224	H	1.006724	0.625620	0.942200
O225	O	0.475260	-0.785477	0.000139
O226	O	0.975260	-0.285477	0.500139
H227	H	0.444876	-0.755238	0.000119
H228	H	0.944876	-0.255238	0.500119
H229	H	0.332355	0.064457	0.152700
H230	H	0.832355	0.564457	0.652700
H231	H	0.587189	0.142280	0.558300
H232	H	1.087189	0.642280	1.058300
O233	O	0.707559	-0.328977	0.000255
O234	O	1.207559	0.171023	0.500255
H235	H	0.709908	-0.306304	0.063117
H236	H	1.209908	0.193696	0.563117
H237	H	0.634457	-0.002047	0.558024
H238	H	1.134457	0.497953	1.058024
H239	H	0.654110	-0.096024	0.000281
H240	H	1.154110	0.403976	0.500281
O241	O	-0.289404	0.058419	0.175005
O242	O	0.210596	0.558419	0.675005
H243	H	-0.328710	0.058129	0.160877
H244	H	0.171290	0.558129	0.660877
H245	H	0.651054	0.078532	0.442263
H246	H	1.151054	0.578532	0.942263
H247	H	0.553882	-0.018693	0.442099
H248	H	1.053882	0.481307	0.942099
H249	H	-0.050796	0.060527	0.236817
H250	H	0.449204	0.560527	0.736817
O251	O	0.664768	-0.195752	0.000270
O252	O	1.164768	0.304248	0.500270
H253	H	0.695679	-0.173985	0.000301
H254	H	1.195679	0.326015	0.500301
H255	H	0.040655	0.061462	0.236810
H256	H	0.540655	0.561462	0.736810
H257	H	0.490067	0.045106	0.558280
H258	H	0.990067	0.545106	1.058280
O259	O	0.198536	0.063052	-0.258634
O260	O	0.698536	0.563052	0.241366
H261	H	0.237827	0.063448	-0.244505
H262	H	0.737827	0.563448	0.255495
H263	H	0.487905	-0.688970	0.000136
H264	H	0.987905	-0.188970	0.500136
H265	H	0.646929	-0.802542	0.000206
H266	H	1.146929	-0.302542	0.500206
O267	O	-0.057483	0.060423	-0.258601
O268	O	0.442517	0.560423	0.241399
H269	H	-0.031481	0.060673	-0.317054
H270	H	0.468519	0.560673	0.182946
H271	H	-0.282720	0.058156	-0.152275
H272	H	0.217280	0.558156	0.347725
O273	O	-0.184573	0.059173	0.174995
O274	O	0.315427	0.559173	0.674995
H275	H	-0.166163	0.092367	0.179014
H276	H	0.333837	0.592367	0.679014
H277	H	0.191898	0.063020	0.236777
H278	H	0.691898	0.563020	0.736777
H279	H	-0.191268	0.059083	-0.152297
H280	H	0.308732	0.559083	0.347703
H281	H	0.446789	-0.391168	0.000111
H282	H	0.946789	0.108832	0.500111
O283	O	0.436141	-0.291440	0.000122
O284	O	0.936141	0.208560	0.500122
H285	H	0.405227	-0.313203	0.000113
H286	H	0.905227	0.186797	0.500113
H287	H	0.494160	-0.073909	0.000206
H288	H	0.994160	0.426091	0.500206
O289	O	0.047291	0.061521	-0.258616
O290	O	0.547291	0.561521	0.241384
H291	H	0.021282	0.061257	-0.317060
H292	H	0.521282	0.561257	0.182940
H293	H	0.493226	-0.165375	0.000213
H294	H	0.993226	0.334625	0.500213
O295	O	0.706018	-0.480205	0.000228
O296	O	1.206018	0.019795	0.500228
H297	H	0.736401	-0.510445	0.000227
H298	H	1.236401	-0.010445	0.500227
H299	H	0.423793	0.065385	-0.152373
H300	H	0.923793	0.565385	0.347627
O301	O	0.325662	0.064367	-0.174586
O302	O	0.825662	0.564367	0.325414
H303	H	0.351660	0.064624	-0.233042
H304	H	0.851660	0.564624	0.266958
O305	O	0.704951	-0.584991	0.000228
O306	O	1.204951	-0.084991	0.500228
H307	H	0.697141	-0.623256	0.000213
H308	H	1.197141	-0.123256	0.500213
H309	H	0.423802	0.065407	0.152683
H310	H	0.923802	0.565407	0.652683
H311	H	0.100451	0.062081	0.236787
H312	H	0.600451	0.562081	0.736787
H313	H	0.694908	-0.425472	0.000246
H314	H	1.194908	0.074528	0.500246
H315	H	0.647864	-0.711077	0.000219
H316	H	1.147864	-0.211077	0.500219
H317	H	0.445259	-0.542414	0.000119
H318	H	0.945259	-0.042414	0.500119
H319	H	0.446189	-0.450966	0.000124
H320	H	0.946189	0.049034	0.500124
