data_functionalizedCrystal
_audit_creation_method	'MofGen! by Chris Wilmer'
_symmetry_space_group_name_H-M	'P1'
_symmetry_Int_Tables_number	1
_symmetry_cell_setting	triclinic
loop_
_symmetry_equiv_pos_as_xyz
  x,y,z
_cell_length_a	17.639617
_cell_length_b	19.121063
_cell_length_c	17.639306
_cell_angle_alpha	104.052388
_cell_angle_beta	65.670249
_cell_angle_gamma	104.083010
loop_
_atom_site_label
_atom_site_type_symbol
_atom_site_fract_x
_atom_site_fract_y
_atom_site_fract_z
Zn1	Zn	1.347478	-0.168671	-0.727857
Zn2	Zn	1.315563	-0.267801	-0.593974
Zn3	Zn	1.181802	-0.168644	-0.562148
Zn4	Zn	1.204027	-0.307788	-0.705432
O5	O	1.262218	-0.228226	-0.647353
O6	O	1.459259	-0.165097	-0.732801
O7	O	1.275162	-0.237902	-0.473757
O8	O	1.207834	-0.068929	-0.580196
O9	O	1.435811	-0.237928	-0.634437
O10	O	1.329556	-0.068948	-0.701941
O11	O	1.176888	-0.165051	-0.450375
O12	O	1.068736	-0.203825	-0.558451
O13	O	1.245714	-0.306080	-0.824402
O14	O	1.085065	-0.306054	-0.663721
O15	O	1.351107	-0.203871	-0.840877
O16	O	1.296713	-0.372824	-0.612693
O17	O	1.214768	-0.402202	-0.694581
C18	C	1.046820	-0.259276	-0.605200
C19	C	0.954674	-0.272580	-0.587187
C20	C	0.712689	-0.127175	-0.784398
C21	C	0.626101	-0.139691	-0.767456
C22	C	0.601683	-0.215357	-0.664872
C23	C	0.688272	-0.202850	-0.681808
C24	C	0.743768	-0.158758	-0.741572
C25	C	0.719351	-0.234432	-0.638981
C26	C	0.805931	-0.221923	-0.655913
C27	C	0.861433	-0.177832	-0.715672
C28	C	0.830349	-0.146249	-0.758503
C29	C	0.663852	-0.278520	-0.579214
C30	C	0.694931	-0.310102	-0.536387
C31	C	0.781513	-0.297598	-0.553323
C32	C	0.837015	-0.253506	-0.613082
C33	C	0.812597	-0.329180	-0.510492
C34	C	0.899178	-0.316671	-0.527424
C35	C	0.923595	-0.240997	-0.630014
C36	C	1.254715	-0.413368	-0.654680
C37	C	1.251586	-0.492566	-0.657857
C38	C	1.292831	-0.514455	-0.616767
C39	C	1.289894	-0.588871	-0.619760
C40	C	1.245708	-0.641397	-0.663840
C41	C	1.204463	-0.619504	-0.704935
C42	C	1.207405	-0.545089	-0.701946
C43	C	1.234693	-0.866847	-0.675001
C44	C	1.231752	-0.941266	-0.677985
C45	C	1.317186	-0.910627	-0.592811
C46	C	1.320119	-0.836213	-0.589821
C47	C	1.278878	-0.814326	-0.630920
C48	C	1.242703	-0.717462	-0.666899
C49	C	1.281888	-0.738262	-0.627866
C50	C	1.478457	-0.197055	-0.689670
C51	C	1.570605	-0.183772	-0.707704
C52	C	1.304450	-0.259439	-0.863557
C53	C	1.322446	-0.272740	-0.955690
C54	C	1.269776	-0.042360	-0.640020
C55	C	1.272997	0.036845	-0.636895
C56	C	1.125831	-0.126867	-1.197866
C57	C	1.142760	-0.139377	-1.284444
C58	C	1.245082	-0.215229	-1.308769
C59	C	1.228164	-0.202721	-1.222192
C60	C	1.168538	-0.158540	-1.166747
C61	C	1.270871	-0.234395	-1.191073
C62	C	1.253952	-0.221892	-1.104504
C63	C	1.194326	-0.177715	-1.049053
C64	C	1.151618	-0.146037	-1.080178
C65	C	1.330493	-0.278580	-1.246519
C66	C	1.373200	-0.310254	-1.215400
C67	C	1.356285	-0.297746	-1.128830
C68	C	1.296659	-0.253569	-1.073379
C69	C	1.398993	-0.329424	-1.097705
C70	C	1.382073	-0.316921	-1.011135
C71	C	1.279740	-0.241066	-0.986809
C72	C	1.220200	-0.197076	-0.431997
C73	C	1.202372	-0.183551	-0.339887
H74	H	0.649734	-0.345999	-0.487726
C75	C	0.773745	-0.078680	-0.850141
H76	H	0.829760	-0.075758	-0.854092
H77	H	0.759133	-0.031098	-0.833434
H78	H	0.770019	-0.099276	-0.903461
H79	H	1.206725	-0.760237	-0.702787
H80	H	0.968785	-0.205096	-0.678682
H81	H	1.323479	-0.606688	-0.586300
C82	C	1.341428	-0.456680	-0.568273
H83	H	1.337267	-0.409225	-0.572368
H84	H	1.399020	-0.462555	-0.591831
H85	H	1.317966	-0.462611	-0.510692
H86	H	1.416861	-0.342702	-0.985800
H87	H	0.556486	-0.251254	-0.616210
C88	C	1.214158	-0.192463	-0.925812
H89	H	1.210204	-0.189551	-0.869799
H90	H	1.160802	-0.212964	-0.929511
H91	H	1.231021	-0.144880	-0.940488
C92	C	1.086020	-0.097448	-1.019181
H93	H	1.063001	-0.080378	-1.050110
H94	H	1.112385	-0.056950	-0.990381
H95	H	1.042191	-0.125053	-0.979428
H96	H	1.356099	-0.793446	-0.553928
C97	C	0.751546	-0.377675	-0.444755
H98	H	0.695531	-0.380603	-0.440806
H99	H	0.755278	-0.357089	-0.391439
H100	H	0.766158	-0.425261	-0.461475
C101	C	0.956671	-0.164068	-0.734302
H102	H	0.985268	-0.133281	-0.776023
H103	H	0.977195	-0.209294	-0.754203
H104	H	0.966304	-0.141121	-0.684169
C105	C	1.155857	-0.677280	-0.753419
H106	H	1.160003	-0.724734	-0.749307
H107	H	1.179306	-0.671357	-0.810998
H108	H	1.098262	-0.671399	-0.729848
H109	H	1.180545	-0.167541	-0.978562
C110	C	1.464575	-0.378022	-1.158699
H111	H	1.468536	-0.380930	-1.214714
H112	H	1.447724	-0.425599	-1.144020
H113	H	1.517933	-0.357507	-1.155001
H114	H	1.350764	-0.928456	-0.559352
H115	H	0.600801	-0.113966	-0.802331
C116	C	0.933370	-0.351420	-0.480326
H117	H	0.887920	-0.379479	-0.442317
H118	H	0.961198	-0.314034	-0.449783
H119	H	0.972078	-0.382200	-0.519828
H120	H	0.593350	-0.288685	-0.565411
H121	H	1.173820	-0.527270	-0.735407
H122	H	1.293627	-0.251203	-1.353923
C123	C	1.330491	-0.680490	-0.579380
H124	H	1.354639	-0.704180	-0.555337
H125	H	1.292890	-0.650848	-0.535878
H126	H	1.373941	-0.650803	-0.617022
H127	H	0.875539	-0.110348	-0.807172
H128	H	1.195783	-0.984033	-0.713896
H129	H	1.077286	-0.090882	-1.152720
C130	C	1.189312	-0.842781	-0.720190
H131	H	1.162565	-0.884722	-0.746858
H132	H	1.229195	-0.814363	-0.761369
H133	H	1.148158	-0.814415	-0.680212
C134	C	1.349217	-0.292230	-1.341762
H135	H	1.390869	-0.323054	-1.370330
H136	H	1.369266	-0.246961	-1.362237
H137	H	1.299096	-0.315080	-1.351482
H138	H	1.107982	-0.113578	-1.309776
C139	C	1.438788	-0.358846	-1.276393
H140	H	1.442753	-0.361753	-1.332409
H141	H	1.421943	-0.406424	-1.261718
H142	H	1.492143	-0.338327	-1.272690
