data_functionalizedCrystal
_audit_creation_method	'MofGen! by Chris Wilmer'
_symmetry_space_group_name_H-M	'P1'
_symmetry_Int_Tables_number	1
_symmetry_cell_setting	triclinic
loop_
_symmetry_equiv_pos_as_xyz
  x,y,z
_cell_length_a	21.295418
_cell_length_b	21.295417
_cell_length_c	17.640968
_cell_angle_alpha	101.233941
_cell_angle_beta	101.240429
_cell_angle_gamma	90.045515
loop_
_atom_site_label
_atom_site_type_symbol
_atom_site_fract_x
_atom_site_fract_y
_atom_site_fract_z
Zn1	Zn	1.034385	-0.178287	0.447373
Zn2	Zn	1.367718	0.155046	0.780707
Zn3	Zn	1.701051	0.488379	1.114040
Zn4	Zn	1.013004	-0.304854	0.315169
Zn5	Zn	1.346337	0.028480	0.648503
Zn6	Zn	1.679671	0.361813	0.981836
Zn7	Zn	0.907820	-0.199635	0.315147
Zn8	Zn	1.241153	0.133698	0.648481
Zn9	Zn	1.574487	0.467032	0.981814
Zn10	Zn	0.929063	-0.283567	0.447278
Zn11	Zn	1.262397	0.049766	0.780611
Zn12	Zn	1.595730	0.383100	1.113944
O13	O	0.971068	-0.241586	0.381242
O14	O	1.304401	0.091748	0.714575
O15	O	1.637735	0.425081	1.047909
O16	O	1.119646	-0.195051	0.429886
O17	O	1.452979	0.138282	0.763219
O18	O	1.786312	0.471616	1.096552
O19	O	0.981213	-0.308739	0.204541
O20	O	1.314546	0.024594	0.537875
O21	O	1.647880	0.357928	0.871208
O22	O	0.924666	-0.108709	0.332718
O23	O	1.258000	0.224625	0.666052
O24	O	1.591333	0.557958	0.999385
O25	O	1.103938	-0.288039	0.332756
O26	O	1.437271	0.045294	0.666089
O27	O	1.770604	0.378628	0.999422
O28	O	1.017653	-0.093025	0.429864
O29	O	1.350986	0.240309	0.763198
O30	O	1.684320	0.573642	1.096531
O31	O	0.903935	-0.231435	0.204525
O32	O	1.237268	0.101898	0.537858
O33	O	1.570601	0.435231	0.871192
O34	O	0.822541	-0.210794	0.332625
O35	O	1.155874	0.122539	0.665959
O36	O	1.489207	0.455872	0.999292
O37	O	0.960873	-0.251759	0.557916
O38	O	1.294206	0.081575	0.891249
O39	O	1.627539	0.414908	1.224582
O40	O	0.838148	-0.272459	0.429701
O41	O	1.171481	0.060875	0.763034
O42	O	1.504815	0.394208	1.096368
O43	O	1.038252	-0.174410	0.557986
O44	O	1.371585	0.158923	0.891319
O45	O	1.704918	0.492256	1.224653
O46	O	1.001812	-0.390124	0.332663
O47	O	1.335145	-0.056791	0.665996
O48	O	1.668478	0.276542	0.999329
O49	O	0.940141	-0.374485	0.429722
O50	O	1.273474	-0.041152	0.763056
O51	O	1.606807	0.292181	1.096389
C52	C	0.807502	-0.241634	0.381151
C53	C	1.140835	0.091700	0.714484
C54	C	1.474168	0.425033	1.047818
C55	C	0.737530	-0.241666	0.381131
C56	C	1.070864	0.091667	0.714464
C57	C	1.404197	0.425001	1.047797
C58	C	0.970981	-0.405144	0.381202
C59	C	1.304315	-0.071811	0.714535
C60	C	1.637648	0.261523	1.047869
C61	C	0.971006	-0.475110	0.381211
C62	C	1.304339	-0.141777	0.714545
C63	C	1.637673	0.191556	1.047878
C64	C	0.712795	-0.273840	0.431603
C65	C	1.046128	0.059493	0.764936
C66	C	1.379461	0.392826	1.098269
C67	C	0.647058	-0.273819	0.431638
C68	C	0.980391	0.059514	0.764971
C69	C	1.313725	0.392848	1.098305
C70	C	0.606057	-0.241633	0.381188
C71	C	0.939390	0.091701	0.714521
C72	C	1.272724	0.425034	1.047854
C73	C	0.630800	-0.209451	0.330712
C74	C	0.964133	0.123882	0.664046
C75	C	1.297467	0.457216	0.997379
C76	C	0.696537	-0.209468	0.330684
C77	C	1.029870	0.123865	0.664017
C78	C	1.363203	0.457199	0.997351
N79	N	0.491649	-0.247853	0.312045
N80	N	0.824983	0.085480	0.645378
N81	N	1.158316	0.418814	0.978711
N82	N	0.429202	-0.247840	0.312074
N83	N	0.762536	0.085493	0.645407
N84	N	1.095869	0.418826	0.978741
C85	C	0.407996	-0.241579	0.381271
C86	C	0.741329	0.091754	0.714605
C87	C	1.074662	0.425088	1.047938
N88	N	0.451595	-0.235343	0.450440
N89	N	0.784929	0.097991	0.783773
N90	N	1.118262	0.431324	1.117107
N91	N	0.514047	-0.235359	0.450410
N92	N	0.847381	0.097975	0.783743
N93	N	1.180714	0.431308	1.117077
C94	C	0.534776	-0.241610	0.381213
C95	C	0.868109	0.091723	0.714547
C96	C	1.201442	0.425056	1.047880
C97	C	0.311982	-0.273732	0.431786
C98	C	0.645315	0.059602	0.765119
C99	C	0.978648	0.392935	1.098453
C100	C	0.246244	-0.273706	0.431823
C101	C	0.579577	0.059628	0.765156
C102	C	0.912911	0.392961	1.098490
C103	C	0.229986	-0.209342	0.330890
C104	C	0.563319	0.123991	0.664223
C105	C	0.896653	0.457325	0.997557
C106	C	0.295724	-0.209364	0.330860
C107	C	0.629057	0.123970	0.664194
C108	C	0.962390	0.457303	0.997527
C109	C	0.336717	-0.241562	0.381307
C110	C	0.670051	0.091772	0.714640
C111	C	1.003384	0.425105	1.047974
C112	C	1.019407	-0.499747	0.431831
C113	C	1.352740	-0.166414	0.765165
C114	C	1.686074	0.166919	1.098498
C115	C	1.019432	-0.565487	0.431851
C116	C	1.352766	-0.232153	0.765184
C117	C	1.686099	0.101180	1.098517
C118	C	0.971061	-0.606589	0.381236
C119	C	1.304394	-0.273256	0.714569
C120	C	1.637728	0.060078	1.047903
C121	C	0.922652	-0.581945	0.330612
C122	C	1.255985	-0.248611	0.663946
C123	C	1.589319	0.084722	0.997279
C124	C	0.922624	-0.516205	0.330600
C125	C	1.255958	-0.182872	0.663933
C126	C	1.589291	0.150461	0.997267
N127	N	0.955163	-0.720997	0.312049
N128	N	1.288496	-0.387664	0.645383
N129	N	1.621830	-0.054331	0.978716
N130	N	0.955193	-0.783446	0.312063
N131	N	1.288526	-0.450113	0.645397
N132	N	1.621860	-0.116780	0.978730
C133	C	0.971140	-0.804658	0.381272
C134	C	1.304474	-0.471325	0.714605
C135	C	1.637807	-0.137991	1.047939
N136	N	0.987069	-0.761061	0.450467
N137	N	1.320402	-0.427727	0.783801
N138	N	1.653736	-0.094394	1.117134
N139	N	0.987042	-0.698606	0.450452
N140	N	1.320375	-0.365273	0.783786
N141	N	1.653709	-0.031939	1.117119
C142	C	0.971085	-0.677873	0.381244
C143	C	1.304419	-0.344540	0.714578
C144	C	1.637752	-0.011206	1.047911
C145	C	1.019572	-0.900576	0.431917
C146	C	1.352905	-0.567243	0.765251
C147	C	1.686238	-0.233910	1.098584
C148	C	1.019593	-0.966317	0.431938
C149	C	1.352926	-0.632983	0.765272
C150	C	1.686259	-0.299650	1.098605
C151	C	0.922814	-0.982774	0.330693
C152	C	1.256148	-0.649441	0.664026
C153	C	1.589481	-0.316108	0.997360
C154	C	0.922791	-0.917034	0.330679
C155	C	1.256124	-0.583701	0.664012
C156	C	1.589458	-0.250367	0.997346
C157	C	0.971173	-0.875939	0.381290
C158	C	1.304506	-0.542606	0.714624
C159	C	1.637840	-0.209272	1.047957
C160	C	1.135273	-0.241538	0.381334
C161	C	1.468606	0.091795	0.714667
C162	C	1.801940	0.425128	1.048000
C163	C	1.205247	-0.241518	0.381373
C164	C	1.538581	0.091815	0.714706
C165	C	1.871914	0.425149	1.048040
C166	C	1.004317	-0.208329	0.587437
C167	C	1.337650	0.125005	0.920770
C168	C	1.670983	0.458338	1.254103
C169	C	1.018485	-0.194157	0.675304
C170	C	1.351819	0.139177	1.008638
C171	C	1.685152	0.472510	1.341971
C172	C	0.971175	-0.077386	0.381299
C173	C	1.304508	0.255947	0.714633
C174	C	1.637842	0.589280	1.047966
C175	C	0.971220	-0.007414	0.381324
C176	C	1.304554	0.325919	0.714657
C177	C	1.637887	0.659253	1.047991
C178	C	0.937985	-0.274668	0.175849
C179	C	1.271318	0.058665	0.509183
C180	C	1.604651	0.391999	0.842516
C181	C	0.923938	-0.288663	0.087982
C182	C	1.257272	0.044671	0.421315
C183	C	1.590605	0.378004	0.754649
C184	C	0.863672	-0.348908	0.964108
C185	C	1.197006	-0.015574	1.297441
C186	C	1.530339	0.317759	1.630774
C187	C	0.876999	-0.335583	1.046673
C188	C	1.210332	-0.002250	1.380006
C189	C	1.543666	0.331084	1.713340
C190	C	0.957567	-0.255047	1.046736
C191	C	1.290900	0.078287	1.380069
C192	C	1.624234	0.411620	1.713402
C193	C	0.944245	-0.268363	0.964169
C194	C	1.277578	0.064971	1.297502
C195	C	1.610911	0.398304	1.630835
C196	C	0.897297	-0.315294	0.922861
C197	C	1.230631	0.018039	1.256195
C198	C	1.563964	0.351372	1.589528
C199	C	0.977870	-0.234749	0.922922
C200	C	1.311203	0.098584	1.256256
C201	C	1.644537	0.431917	1.589589
C202	C	0.964551	-0.248067	0.840363
C203	C	1.297884	0.085267	1.173696
C204	C	1.631217	0.418600	1.507029
C205	C	0.917607	-0.294998	0.799049
C206	C	1.250940	0.038336	1.132383
C207	C	1.584273	0.371669	1.465716
C208	C	0.883978	-0.328612	0.840302
C209	C	1.217311	0.004721	1.173635
C210	C	1.550645	0.338055	1.506968
C211	C	1.024820	-0.187821	0.964231
C212	C	1.358154	0.145512	1.297565
C213	C	1.691487	0.478846	1.630898
C214	C	1.058445	-0.154207	0.922985
C215	C	1.391779	0.179126	1.256318
C216	C	1.725112	0.512459	1.589652
C217	C	1.045123	-0.167522	0.840424
C218	C	1.378457	0.165812	1.173757
C219	C	1.711790	0.499145	1.507090
C220	C	0.998179	-0.214452	0.799111
C221	C	1.331513	0.118881	1.132444
C222	C	1.664846	0.452214	1.465777
C223	C	1.078752	-0.133907	0.799172
C224	C	1.412085	0.199426	1.132505
C225	C	1.745419	0.532759	1.465838
C226	C	1.065433	-0.147225	0.716612
C227	C	1.398766	0.186109	1.049945
C228	C	1.732100	0.519442	1.383279
C229	C	0.984860	-0.227770	0.716551
C230	C	1.318194	0.105563	1.049884
C231	C	1.651527	0.438897	1.383217
H232	H	0.746169	-0.300058	0.472681
H233	H	1.079502	0.033276	0.806015
H234	H	1.412835	0.366609	1.139348
H235	H	0.995794	-0.216837	1.080380
H236	H	1.329127	0.116497	1.413713
H237	H	1.662460	0.449830	1.747046
F238	F	0.587164	-0.175193	0.277023
F239	F	0.920497	0.158140	0.610356
F240	F	1.253830	0.491474	0.943689
F241	F	1.070897	-0.456014	0.485700
F242	F	1.404230	-0.122681	0.819034
F243	F	1.737563	0.210653	1.152367
F244	F	0.871276	-0.890813	0.276801
F245	F	1.204609	-0.557480	0.610134
F246	F	1.537943	-0.224146	0.943468
F247	F	0.219920	-0.307948	0.485549
F248	F	0.553254	0.025386	0.818882
F249	F	0.886587	0.358719	1.152216
H250	H	0.345361	-0.299945	0.472867
H251	H	0.678695	0.033388	0.806200
H252	H	1.012028	0.366721	1.139534
H253	H	1.058842	-0.585549	0.473081
H254	H	1.392176	-0.252216	0.806414
H255	H	1.725509	0.081118	1.139748
H256	H	1.035665	-0.176981	1.031457
H257	H	1.368998	0.156352	1.364790
H258	H	1.702331	0.489686	1.698124
H259	H	0.716675	-0.183266	0.289583
H260	H	1.050008	0.150067	0.622917
H261	H	1.383342	0.483401	0.956250
H262	H	0.626914	-0.300018	0.472741
H263	H	0.960248	0.033315	0.806074
H264	H	1.293581	0.366648	1.139408
H265	H	0.196604	-0.183132	0.289816
H266	H	0.529937	0.150202	0.623149
H267	H	0.863271	0.483535	0.956483
H268	H	0.883210	-0.496147	0.289378
H269	H	1.216543	-0.162813	0.622712
H270	H	1.549876	0.170520	0.956045
H271	H	1.096672	-0.115997	0.956629
H272	H	1.430005	0.217336	1.289962
H273	H	1.763339	0.550669	1.623296
H274	H	1.058965	-0.867115	0.473131
H275	H	1.392299	-0.533781	0.806464
H276	H	1.725632	-0.200448	1.139797
F277	F	0.934888	-0.277715	0.672584
F278	F	1.268221	0.055618	1.005917
F279	F	1.601555	0.388951	1.339250
H280	H	1.092813	-0.119852	0.683028
H281	H	1.426146	0.213481	1.016362
H282	H	1.759480	0.546814	1.349695
F283	F	0.813700	-0.398853	0.920141
F284	F	1.147033	-0.065520	1.253474
F285	F	1.480367	0.267813	1.586807
H286	H	0.883267	-0.615414	0.289403
H287	H	1.216600	-0.282081	0.622737
H288	H	1.549933	0.051253	0.956070
F289	F	0.322049	-0.175121	0.277139
F290	F	0.655383	0.158212	0.610472
F291	F	0.988716	0.491546	0.943805
F292	F	1.128721	-0.083967	0.843144
F293	F	1.462054	0.249366	1.176478
F294	F	1.795388	0.582700	1.509811
F295	F	0.841205	-0.371361	1.090568
F296	F	1.174539	-0.038028	1.423901
F297	F	1.507872	0.295305	1.757234
F298	F	0.871332	-1.026514	0.276826
F299	F	1.204666	-0.693180	0.610160
F300	F	1.537999	-0.359847	0.943493
F301	F	1.071105	-0.992535	0.485826
F302	F	1.404439	-0.659201	0.819160
F303	F	1.737772	-0.325868	1.152493
H304	H	0.906766	-0.305842	0.731824
H305	H	1.240099	0.027491	1.065157
H306	H	1.573432	0.360824	1.398491
F307	F	0.834006	-0.378557	0.796334
F308	F	1.167339	-0.045224	1.129668
F309	F	1.500673	0.288109	1.463001
