data_functionalizedCrystal
_audit_creation_method	'MofGen! by Chris Wilmer'
_symmetry_space_group_name_H-M	'P1'
_symmetry_Int_Tables_number	1
_symmetry_cell_setting	triclinic
loop_
_symmetry_equiv_pos_as_xyz
  x,y,z
_cell_length_a	10.489711
_cell_length_b	14.519709
_cell_length_c	13.596369
_cell_angle_alpha	90.006934
_cell_angle_beta	89.993154
_cell_angle_gamma	95.896423
loop_
_atom_site_label
_atom_site_type_symbol
_atom_site_fract_x
_atom_site_fract_y
_atom_site_fract_z
O1	O	1.692722	-0.129986	-0.081829
O2	O	2.192722	0.370014	0.418171
O3	O	1.321394	-0.142227	-0.081824
O4	O	1.821394	0.357773	0.418176
O5	O	1.516903	-0.001921	-0.081818
O6	O	2.016903	0.498079	0.418182
O7	O	1.497213	-0.270292	-0.081835
O8	O	1.997213	0.229708	0.418165
O9	O	1.516884	-0.001913	0.081765
O10	O	2.016884	0.498087	0.581765
O11	O	1.321374	-0.142220	0.081759
O12	O	1.821374	0.357780	0.581759
O13	O	1.692703	-0.129978	0.081754
O14	O	2.192703	0.370022	0.581754
Zn15	Zn	1.507035	-0.136098	0.107729
Zn16	Zn	2.007035	0.363902	0.607729
Zn17	Zn	1.507061	-0.136108	-0.107799
Zn18	Zn	2.007061	0.363892	0.392201
O19	O	1.497193	-0.270284	0.081748
O20	O	1.997193	0.229716	0.581748
C21	C	1.273861	-0.141305	-0.000031
C22	C	1.773861	0.358695	0.499969
C23	C	1.132259	-0.138556	-0.000029
C24	C	1.632259	0.361444	0.499971
C25	C	0.948993	-0.222932	-0.000046
C26	C	1.448993	0.277068	0.499954
C27	C	1.041587	-0.180789	-0.080696
C28	C	1.541587	0.319211	0.419304
C29	C	1.041541	-0.180759	0.080583
C30	C	1.541541	0.319241	0.580583
C31	C	0.972567	-0.091469	-0.080767
C32	C	1.472567	0.408531	0.419233
C33	C	0.972512	-0.091451	0.080585
C34	C	1.472512	0.408549	0.580585
C35	C	1.065079	-0.049243	-0.000085
C36	C	1.565079	0.450757	0.499915
C37	C	1.515976	0.032448	-0.000026
C38	C	2.015976	0.532448	0.499974
C39	C	1.513226	0.134844	-0.000026
C40	C	2.013226	0.634844	0.499974
C41	C	1.740235	-0.130901	-0.000041
C42	C	2.240235	0.369099	0.499959
C43	C	1.881838	-0.133649	-0.000050
C44	C	2.381838	0.366351	0.499950
C45	C	1.498121	-0.304653	-0.000046
C46	C	1.998121	0.195347	0.499954
C47	C	1.500871	-0.407049	-0.000053
C48	C	2.000871	0.092951	0.499947
N49	N	1.507027	-0.136090	0.254821
N50	N	2.007027	0.363910	0.754821
C51	C	1.503102	0.509794	-0.000051
C52	C	2.003102	1.009794	0.499949
C53	C	1.505914	0.405471	-0.000044
C54	C	2.005914	0.905471	0.499956
C55	C	1.508164	0.322322	-0.000037
C56	C	2.008164	0.822322	0.499963
C57	C	1.510976	0.217992	-0.000032
C58	C	2.010976	0.717992	0.499968
N59	N	1.507079	-0.136108	-0.254891
N60	N	2.007079	0.363892	0.245109
C61	C	1.507059	-0.136109	0.656111
C62	C	2.007059	0.363891	1.156111
C63	C	1.507047	-0.136107	0.544460
C64	C	2.007047	0.363893	1.044460
C65	C	1.507044	-0.136100	0.455470
C66	C	2.007044	0.363900	0.955470
C67	C	1.507030	-0.136097	0.343811
C68	C	2.007030	0.363903	0.843811
H69	H	1.115303	0.024209	-0.000121
H70	H	1.615303	0.524209	0.499879
C71	C	0.931108	-0.040457	0.172704
C72	C	1.431108	0.459543	0.672704
H73	H	0.954449	-0.072263	0.229959
H74	H	1.454449	0.427737	0.729959
H75	H	0.972456	0.020896	0.173290
H76	H	1.472456	0.520896	0.673290
H77	H	0.840859	-0.038567	0.171708
H78	H	1.340859	0.461433	0.671708
H79	H	0.898537	-0.296316	-0.000131
H80	H	1.398537	0.203684	0.499869
H81	H	1.072095	-0.218548	0.148768
H82	H	1.572095	0.281452	0.648768
H83	H	1.072196	-0.218572	-0.148883
H84	H	1.572196	0.281428	0.351117
H85	H	0.942160	-0.053730	-0.149031
H86	H	1.442160	0.446270	0.350969
