data_functionalizedCrystal
_audit_creation_method	'MofGen! by Chris Wilmer'
_symmetry_space_group_name_H-M	'P1'
_symmetry_Int_Tables_number	1
_symmetry_cell_setting	triclinic
loop_
_symmetry_equiv_pos_as_xyz
  x,y,z
_cell_length_a	11.792240
_cell_length_b	17.038272
_cell_length_c	10.268362
_cell_angle_alpha	90.001146
_cell_angle_beta	90.014630
_cell_angle_gamma	92.347513
loop_
_atom_site_label
_atom_site_type_symbol
_atom_site_fract_x
_atom_site_fract_y
_atom_site_fract_z
O1	O	-0.246565	1.038457	-0.108184
O2	O	0.253435	1.538457	0.391816
O3	O	-0.242650	0.810809	-0.108221
O4	O	0.257350	1.310809	0.391779
O5	O	-0.079921	0.930157	-0.108162
O6	O	0.420079	1.430157	0.391838
O7	O	-0.409294	0.919108	-0.108243
O8	O	0.090706	1.419108	0.391757
O9	O	-0.079913	0.930146	0.108438
O10	O	0.420087	1.430146	0.608438
O11	O	-0.242642	0.810798	0.108379
O12	O	0.257358	1.310798	0.608379
O13	O	-0.246557	1.038446	0.108417
O14	O	0.253443	1.538446	0.608417
Cu15	Cu	-0.244599	0.924621	0.128175
Cu16	Cu	0.255401	1.424621	0.628175
Cu17	Cu	-0.244608	0.924633	-0.127980
Cu18	Cu	0.255392	1.424633	0.372020
O19	O	-0.409286	0.919098	0.108357
O20	O	0.090714	1.419098	0.608357
C21	C	-0.239085	0.781659	0.000075
C22	C	0.260915	1.281659	0.500075
C23	C	-0.228461	0.694819	0.000062
C24	C	0.271539	1.194819	0.500062
C25	C	-0.037565	0.929458	0.000145
C26	C	0.462435	1.429458	0.500145
C27	C	0.088630	0.927380	0.000167
C28	C	0.588630	1.427380	0.500167
C29	C	0.319677	0.923561	0.000187
C30	C	0.819677	1.423561	0.500187
C31	C	0.191106	0.925683	0.000176
C32	C	0.691106	1.425683	0.500176
C33	C	0.548358	0.919797	0.000093
C34	C	1.048358	1.419797	0.500093
C35	C	0.422163	0.921874	0.000201
C36	C	0.922163	1.421874	0.500201
C37	C	-0.326001	0.645136	0.000039
C38	C	0.173999	1.145136	0.500039
C39	C	-0.316012	0.563542	0.000060
C40	C	0.183988	1.063542	0.500060
C41	C	-0.208482	0.531632	0.000094
C42	C	0.291518	1.031632	0.500094
C43	C	-0.110935	0.581321	0.000121
C44	C	0.389065	1.081321	0.500121
C45	C	-0.120925	0.662914	0.000110
C46	C	0.379075	1.162914	0.500110
C47	C	-0.173189	0.285718	0.000137
C48	C	0.326811	0.785718	0.500137
C49	C	-0.163206	0.204118	0.000144
C50	C	0.336794	0.704118	0.500144
C51	C	-0.368284	0.186344	0.000086
C52	C	0.131716	0.686344	0.500086
C53	C	-0.378265	0.267940	0.000067
C54	C	0.121735	0.767940	0.500067
C55	C	-0.280718	0.317622	0.000101
C56	C	0.219282	0.817622	0.500101
C57	C	-0.198269	0.448229	0.000111
C58	C	0.301731	0.948229	0.500111
C59	C	-0.290932	0.401023	0.000093
C60	C	0.209068	0.901023	0.500093
C61	C	-0.250122	1.067595	0.000118
C62	C	0.249878	1.567595	0.500118
C63	C	-0.260746	1.154435	0.000122
C64	C	0.239254	1.654435	0.500122
N65	N	-0.244592	0.924618	0.308341
N66	N	0.255408	1.424618	0.808341
N67	N	-0.244607	0.924643	-0.308146
N68	N	0.255393	1.424643	0.191854
C69	C	-0.244606	0.924630	0.574012
C70	C	0.255394	1.424630	1.074012
C71	C	-0.244601	0.924621	0.426174
C72	C	0.255399	1.424621	0.926174
H73	H	-0.413563	0.671111	0.000011
H74	H	0.086437	1.171111	0.500011
C75	C	-0.571994	0.176973	0.000022
C76	C	-0.071994	0.676973	0.500022
C77	C	-0.475504	0.131733	0.000057
C78	C	0.024496	0.631733	0.500057
H79	H	-0.638189	0.143257	-0.000001
H80	H	-0.138189	0.643257	0.499999
H81	H	-0.571622	0.209168	0.075549
H82	H	-0.071622	0.709168	0.575549
H83	H	-0.571617	0.209166	-0.075519
H84	H	-0.071617	0.709166	0.424481
H85	H	-0.475877	0.099544	0.075603
H86	H	0.024123	0.599544	0.575603
H87	H	-0.475877	0.099524	-0.075477
H88	H	0.024123	0.599524	0.424523
H89	H	-0.075638	0.178141	0.000171
H90	H	0.424362	0.678141	0.500171
H91	H	-0.041497	0.703366	0.000127
H92	H	0.458503	1.203366	0.500127
H93	H	-0.395440	0.523092	0.000040
H94	H	0.104560	1.023092	0.500040
C95	C	-0.421120	0.482458	-0.111312
C96	C	0.078880	0.982458	0.388688
C97	C	-0.409129	0.436094	0.000047
C98	C	0.090871	0.936094	0.500047
H99	H	-0.494094	0.504109	-0.111347
H100	H	0.005906	1.004109	0.388653
H101	H	-0.364461	0.523719	-0.111282
H102	H	0.135539	1.023719	0.388718
H103	H	-0.412955	0.450984	-0.186829
H104	H	0.087045	0.950984	0.313171
H105	H	-0.417285	0.467569	0.075564
H106	H	0.082715	0.967569	0.575564
H107	H	-0.465804	0.394827	0.000029
H108	H	0.034196	0.894827	0.500029
C109	C	0.066935	0.571353	-0.111174
C110	C	0.566935	1.071353	0.388826
C111	C	0.007266	0.546249	0.000156
C112	C	0.507266	1.046249	0.500156
H113	H	0.139910	0.549705	-0.111149
H114	H	0.639910	1.049705	0.388851
H115	H	0.026440	0.554322	-0.186702
H116	H	0.526440	1.054322	0.313298
H117	H	0.074936	0.627058	-0.111159
H118	H	0.574936	1.127058	0.388841
H119	H	-0.000743	0.490544	0.000136
H120	H	0.499257	0.990544	0.500136
H121	H	0.047771	0.563275	0.075703
H122	H	0.547771	1.063275	0.575703
H123	H	-0.093758	0.326160	0.000166
H124	H	0.406242	0.826160	0.500166
H125	H	-0.110718	0.422239	0.000175
H126	H	0.389282	0.922239	0.500175
C127	C	-0.508463	0.349345	-0.111388
C128	C	-0.008463	0.849345	0.388612
C129	C	-0.496476	0.302997	-0.000011
C130	C	0.003524	0.802997	0.499989
H131	H	-0.581448	0.370979	-0.111454
H132	H	-0.081448	0.870979	0.388546
H133	H	-0.451823	0.390619	-0.111354
H134	H	0.048177	0.890619	0.388646
H135	H	-0.500264	0.317866	-0.186892
H136	H	-0.000264	0.817866	0.313108
H137	H	-0.504666	0.334478	0.075494
H138	H	-0.004666	0.834478	0.575494
H139	H	-0.553132	0.261717	-0.000034
H140	H	-0.053132	0.761717	0.499966
