data_functionalizedCrystal
_audit_creation_method	'MofGen! by Chris Wilmer'
_symmetry_space_group_name_H-M	'P1'
_symmetry_Int_Tables_number	1
_symmetry_cell_setting	triclinic
loop_
_symmetry_equiv_pos_as_xyz
  x,y,z
_cell_length_a	15.538191
_cell_length_b	15.625429
_cell_length_c	16.053802
_cell_angle_alpha	74.515382
_cell_angle_beta	88.440717
_cell_angle_gamma	66.736792
loop_
_atom_site_label
_atom_site_type_symbol
_atom_site_fract_x
_atom_site_fract_y
_atom_site_fract_z
O1	O	1.248461	-0.291305	0.018742
O2	O	1.748461	0.208695	0.518742
O3	O	0.976098	-0.189514	-0.012071
O4	O	1.476098	0.310486	0.487929
O5	O	1.117341	-0.371139	0.042914
O6	O	1.617341	0.128861	0.542914
O7	O	1.107218	-0.109680	-0.036243
O8	O	1.607218	0.390320	0.463757
O9	O	1.109566	-0.361173	0.178756
O10	O	1.609566	0.138827	0.678756
O11	O	0.968323	-0.179548	0.123771
O12	O	1.468323	0.320452	0.623771
O13	O	1.240686	-0.281339	0.154584
O14	O	1.740686	0.218661	0.654584
Zn15	Zn	1.103270	-0.228861	0.160745
Zn16	Zn	1.603270	0.271139	0.660745
Zn17	Zn	1.113514	-0.241992	-0.018232
Zn18	Zn	1.613514	0.258008	0.481768
O19	O	1.099443	-0.099714	0.099599
O20	O	1.599443	0.400286	0.599599
C21	C	0.937313	-0.173881	0.052626
C22	C	1.437313	0.326119	0.552626
C23	C	0.833330	-0.142158	0.043024
C24	C	1.333330	0.357842	0.543024
C25	C	0.539670	-0.457316	0.138425
C26	C	1.039670	0.042684	0.638425
C27	C	0.441960	-0.427486	0.129393
C28	C	0.941960	0.072514	0.629393
C29	C	0.422642	-0.259696	0.078595
C30	C	0.922642	0.240304	0.578595
C31	C	0.520353	-0.289512	0.087626
C32	C	1.020353	0.210488	0.587626
C33	C	0.578859	-0.388323	0.117541
C34	C	1.078859	0.111677	0.617541
C35	C	0.559542	-0.220519	0.066742
C36	C	1.059542	0.279481	0.566742
C37	C	0.657244	-0.250334	0.075769
C38	C	1.157244	0.249666	0.575769
C39	C	0.715757	-0.349141	0.105680
C40	C	1.215757	0.150859	0.605680
C41	C	0.676561	-0.418138	0.126567
C42	C	1.176561	0.081862	0.626567
C43	C	0.501034	-0.121708	0.036822
C44	C	1.001034	0.378292	0.536822
C45	C	0.540223	-0.052716	0.015938
C46	C	1.040223	0.447284	0.515938
C47	C	0.637926	-0.082529	0.024971
C48	C	1.137926	0.417471	0.524971
C49	C	0.696439	-0.181337	0.054881
C50	C	1.196439	0.318663	0.554881
C51	C	0.677122	-0.013532	0.004083
C52	C	1.177122	0.486468	0.504083
C53	C	0.774824	-0.043347	0.013110
C54	C	1.274824	0.456653	0.513110
C55	C	0.794141	-0.211151	0.063908
C56	C	1.294141	0.288849	0.563908
C57	C	1.112226	-0.398802	0.120716
C58	C	1.612226	0.101198	0.620716
C59	C	1.108556	-0.496071	0.150159
C60	C	1.608556	0.003929	0.650159
C61	C	1.117649	-0.843133	-0.123215
C62	C	1.617649	-0.343133	0.376785
C63	C	1.114194	-0.934529	-0.095524
C64	C	1.614194	-0.434529	0.404476
C65	C	1.105719	-0.923650	0.052561
C66	C	1.605719	-0.423650	0.552561
C67	C	1.109177	-0.832254	0.024883
C68	C	1.609177	-0.332254	0.524883
C69	C	1.115141	-0.792002	-0.063006
C70	C	1.615141	-0.292002	0.436994
C71	C	1.106669	-0.781123	0.085092
C72	C	1.606669	-0.281123	0.585092
C73	C	1.110122	-0.689732	0.057415
C74	C	1.610122	-0.189732	0.557415
C75	C	1.116083	-0.649472	-0.030471
C76	C	1.616083	-0.149472	0.469529
C77	C	1.118593	-0.700611	-0.090683
C78	C	1.618593	-0.200611	0.409317
C79	C	1.100699	-0.821373	0.172980
C80	C	1.600699	-0.321373	0.672980
C81	C	1.098191	-0.770242	0.233189
C82	C	1.598191	-0.270242	0.733189
C83	C	1.101650	-0.678853	0.205513
C84	C	1.601650	-0.178853	0.705513
C85	C	1.107611	-0.638593	0.117627
C86	C	1.607611	-0.138593	0.617627
C87	C	1.099140	-0.627714	0.265726
C88	C	1.599140	-0.127714	0.765726
C89	C	1.102592	-0.536323	0.238049
C90	C	1.602592	-0.036323	0.738049
C91	C	1.111064	-0.547202	0.089951
C92	C	1.611064	-0.047202	0.589951
C93	C	1.279471	-0.296972	0.089885
C94	C	1.779471	0.203028	0.589885
C95	C	1.383454	-0.328695	0.099482
C96	C	1.883454	0.171305	0.599482
C97	C	1.104558	-0.072051	0.021795
C98	C	1.604558	0.427949	0.521795
C99	C	1.108228	0.025218	-0.007654
C100	C	1.608228	0.525218	0.492346
N101	N	1.096286	-0.219902	0.282893
N102	N	1.596286	0.280098	0.782893
N103	N	1.120506	-0.250961	-0.140377
N104	N	1.620506	0.249039	0.359623
C105	C	1.156408	-0.297170	0.349979
C106	C	1.656408	0.202830	0.849979
C107	C	1.151531	-0.290898	0.435487
C108	C	1.651531	0.209102	0.935487
C109	C	1.086536	-0.207353	0.453906
C110	C	1.586536	0.292647	0.953906
C111	C	1.026408	-0.130080	0.386813
C112	C	1.526408	0.369920	0.886813
C113	C	1.031280	-0.136356	0.301308
C114	C	1.531280	0.363644	0.801308
C115	C	1.065250	-0.179964	0.707024
C116	C	1.565250	0.320036	1.207024
C117	C	1.060384	-0.173692	0.792537
C118	C	1.560384	0.326308	1.292537
C119	C	1.185506	-0.334511	0.841205
C120	C	1.685506	0.165489	1.341205
C121	C	1.190377	-0.340778	0.755695
C122	C	1.690377	0.159222	1.255695
C123	C	1.130245	-0.263507	0.688610
C124	C	1.630245	0.236493	1.188610
N125	N	1.081552	-0.200939	0.541308
N126	N	1.581552	0.299061	1.041308
N127	N	1.135226	-0.269925	0.601211
N128	N	1.635226	0.230075	1.101211
H129	H	0.374994	-0.179243	0.054235
H130	H	0.874994	0.320757	0.554235
Br131	Br	0.972172	-0.060297	0.817525
Br132	Br	1.472172	0.439703	1.317525
H133	H	0.982322	-0.073437	0.246685
H134	H	1.482322	0.426563	0.746685
Br135	Br	1.278588	-0.454158	0.730696
Br136	Br	1.778588	0.045842	1.230696
H137	H	0.410057	-0.483676	0.146400
H138	H	0.910057	0.016324	0.646400
Br139	Br	1.096007	-0.945403	0.210542
Br140	Br	1.596007	-0.445403	0.710542
H141	H	1.094274	-0.660497	0.337284
H142	H	1.594274	-0.160497	0.837284
H143	H	0.841781	-0.291613	0.088272
H144	H	1.341781	0.208387	0.588272
H145	H	1.118884	-0.575051	-0.053005
H146	H	1.618884	-0.075051	0.446995
Br147	Br	0.983647	-0.075098	0.615985
Br148	Br	1.483647	0.424902	1.115985
Br149	Br	1.117589	-1.003915	-0.177248
Br150	Br	1.617589	-0.503915	0.322752
Br151	Br	0.828016	0.050286	-0.015238
Br152	Br	1.328016	0.550286	0.484762
H153	H	1.115929	-0.514431	0.018384
H154	H	1.615929	-0.014431	0.518384
H155	H	1.123458	-0.667840	-0.162250
H156	H	1.623458	-0.167840	0.337750
Br157	Br	1.244627	-0.410554	0.324991
Br158	Br	1.744627	0.089446	0.824991
H159	H	0.421479	-0.097437	0.029471
H160	H	0.921479	0.402563	0.529471
H161	H	0.973483	-0.062058	0.401815
H162	H	1.473483	0.437942	0.901815
Br163	Br	0.597711	0.120563	-0.036532
Br164	Br	1.097711	0.620563	0.463468
Br165	Br	0.848355	-0.389609	0.117923
Br166	Br	1.348355	0.110391	0.617923
H167	H	1.122513	-0.810361	-0.194782
H168	H	1.622513	-0.310361	0.305218
Br169	Br	0.460815	0.081381	-0.024666
Br170	Br	0.960815	0.581381	0.475334
Br171	Br	1.090086	-0.824873	0.352462
Br172	Br	1.590086	-0.324873	0.852462
Br173	Br	0.755971	-0.552240	0.167180
Br174	Br	1.255971	-0.052240	0.667180
H175	H	1.100530	-0.494682	0.287074
H176	H	1.600530	0.005318	0.787074
Br177	Br	0.619080	-0.591419	0.179037
Br178	Br	1.119080	-0.091419	0.679037
Br179	Br	1.233123	-0.395766	0.526536
Br180	Br	1.733123	0.104234	1.026536
H181	H	1.100860	-0.956435	0.124120
H182	H	1.600860	-0.456435	0.624120
H183	H	1.234462	-0.397422	0.895833
H184	H	1.734462	0.102578	1.395833
