data_functionalizedCrystal
_audit_creation_method	'MofGen! by Chris Wilmer'
_symmetry_space_group_name_H-M	'P1'
_symmetry_Int_Tables_number	1
_symmetry_cell_setting	triclinic
loop_
_symmetry_equiv_pos_as_xyz
  x,y,z
_cell_length_a	14.519709
_cell_length_b	13.339070
_cell_length_c	12.376457
_cell_angle_alpha	75.601917
_cell_angle_beta	101.308721
_cell_angle_gamma	99.654720
loop_
_atom_site_label
_atom_site_type_symbol
_atom_site_fract_x
_atom_site_fract_y
_atom_site_fract_z
O1	O	-1.270325	-0.113336	-0.093849
O2	O	-0.770325	0.386664	0.406151
O3	O	-1.005827	-0.128953	-0.093882
O4	O	-0.505827	0.371047	0.406118
O5	O	-1.107720	0.026174	-0.093866
O6	O	-0.607720	0.526174	0.406134
O7	O	-1.168433	-0.268463	-0.093865
O8	O	-0.668433	0.231537	0.406135
O9	O	-1.082246	-0.012555	0.094142
O10	O	-0.582246	0.487445	0.594142
O11	O	-0.980353	-0.167681	0.094126
O12	O	-0.480353	0.332319	0.594126
O13	O	-1.244851	-0.152065	0.094159
O14	O	-0.744851	0.347935	0.594159
Zn15	Zn	-1.108558	-0.166022	0.123993
Zn16	Zn	-0.608558	0.333978	0.623993
Zn17	Zn	-1.142121	-0.114995	-0.123716
Zn18	Zn	-0.642121	0.385005	0.376284
O19	O	-1.142959	-0.307192	0.094143
O20	O	-0.642959	0.192808	0.594143
C21	C	-0.958546	-0.147588	0.000117
C22	C	-0.458546	0.352412	0.500117
C23	C	-0.855611	-0.145403	0.000104
C24	C	-0.355611	0.354597	0.500104
C25	C	-1.084728	0.044518	0.000135
C26	C	-0.584728	0.544518	0.500135
C27	C	-1.054160	0.156877	0.000127
C28	C	-0.554160	0.656877	0.500127
C29	C	-1.292133	-0.133429	0.000157
C30	C	-0.792133	0.366571	0.500157
C31	C	-1.395069	-0.135612	0.000163
C32	C	-0.895069	0.364388	0.500163
C33	C	-0.478665	-0.137381	0.000155
C34	C	0.021335	0.362619	0.500155
C35	C	-0.583543	-0.139609	0.000141
C36	C	-0.083543	0.360391	0.500141
C37	C	-0.667135	-0.141392	0.000129
C38	C	-0.167135	0.358608	0.500129
C39	C	-0.772019	-0.143620	0.000116
C40	C	-0.272019	0.356380	0.500116
C41	C	-1.165951	-0.325535	0.000139
C42	C	-0.665951	0.174465	0.500139
C43	C	-1.196520	-0.437892	0.000140
C44	C	-0.696520	0.062108	0.500140
N45	N	-1.085658	-0.200846	0.293047
N46	N	-0.585658	0.299154	0.793047
C47	C	-1.291847	0.521234	0.000157
C48	C	-0.791847	1.021234	0.500157
C49	C	-1.320569	0.415666	0.000172
C50	C	-0.820569	0.915666	0.500172
C51	C	-1.253969	0.350964	0.000160
C52	C	-0.753969	0.850964	0.500160
C53	C	-1.158642	0.391839	0.000135
C54	C	-0.658642	0.891839	0.500135
C55	C	-1.129915	0.497415	0.000129
C56	C	-0.629915	0.997415	0.500129
C57	C	-1.092038	0.327146	0.000132
C58	C	-0.592038	0.827146	0.500132
C59	C	-0.996711	0.368021	0.000107
C60	C	-0.496711	0.868021	0.500107
C61	C	-0.967989	0.473587	0.000101
C62	C	-0.467989	0.973587	0.500101
C63	C	-1.034589	0.538289	0.000112
C64	C	-0.534589	1.038289	0.500112
C65	C	-1.120764	0.221569	0.000137
C66	C	-0.620764	0.721569	0.500137
C67	C	-0.958833	0.197751	0.000109
C68	C	-0.458833	0.697751	0.500109
C69	C	-0.930111	0.303319	0.000095
C70	C	-0.430111	0.803319	0.500095
N71	N	-1.165026	-0.080163	-0.292771
N72	N	-0.665026	0.419837	0.207229
C73	C	-1.218177	0.000694	0.648054
C74	C	-0.718177	0.500694	1.148054
C75	C	-1.234200	0.025068	0.529716
C76	C	-0.734200	0.525068	1.029716
C77	C	-1.197065	-0.031408	0.470543
C78	C	-0.697065	0.468592	0.970543
C79	C	-1.143907	-0.112263	0.529719
C80	C	-0.643907	0.387737	1.029719
C81	C	-1.127889	-0.136644	0.648068
C82	C	-0.627889	0.363356	1.148068
C83	C	-1.106777	-0.168747	0.470558
C84	C	-0.606777	0.331253	0.970558
C85	C	-1.053619	-0.249601	0.529734
C86	C	-0.553619	0.250399	1.029734
C87	C	-1.037603	-0.273977	0.648071
C88	C	-0.537603	0.226023	1.148071
C89	C	-1.074737	-0.217501	0.707244
C90	C	-0.574737	0.282499	1.207244
C91	C	-1.122795	-0.144365	0.352209
C92	C	-0.622795	0.355635	0.852209
C93	C	-1.032506	-0.281703	0.352223
C94	C	-0.532506	0.218297	0.852223
C95	C	-1.016484	-0.306077	0.470560
C96	C	-0.516484	0.193923	0.970560
H97	H	-1.277361	0.265007	0.000172
H98	H	-0.777361	0.765007	0.500172
O99	O	-0.827292	0.347404	0.000088
O100	O	-0.327292	0.847404	0.500088
H101	H	-0.818510	0.431680	0.000097
H102	H	-0.318510	0.931680	0.500097
O103	O	-1.423381	0.371582	0.000174
O104	O	-0.923381	0.871582	0.500174
H105	H	-1.464870	0.434309	0.000164
H106	H	-0.964870	0.934309	0.500164
H107	H	-1.061689	-0.237343	0.803604
H108	H	-0.561689	0.262657	1.303604
O109	O	-0.865171	0.517675	0.000093
O110	O	-0.365171	1.017675	0.500093
H111	H	-0.842243	0.507495	-0.076545
H112	H	-0.342243	1.007495	0.423455
H113	H	-1.346061	0.573921	0.000176
H114	H	-0.846061	1.073921	0.500176
O115	O	-0.886986	0.127981	0.000101
O116	O	-0.386986	0.627981	0.500101
H117	H	-0.906576	0.095103	-0.076531
H118	H	-0.406576	0.595103	0.423469
H119	H	-1.011208	0.624253	0.000097
H120	H	-0.511208	1.124253	0.500097
H121	H	-1.002270	-0.327693	0.304045
H122	H	-0.502270	0.172307	0.804045
O123	O	-1.258231	0.061590	0.711880
O124	O	-0.758231	0.561590	1.211880
H125	H	-1.297891	0.121906	0.650855
H126	H	-0.797891	0.621906	1.150855
O127	O	-1.223579	0.177496	0.000143
O128	O	-0.723579	0.677496	0.500143
H129	H	-1.246510	0.187696	0.076770
H130	H	-0.746510	0.687696	0.576770
O131	O	-0.959160	-0.393292	0.534388
O132	O	-0.459160	0.106708	1.034388
H133	H	-0.954271	-0.400758	0.626617
H134	H	-0.454271	0.099242	1.126617
H135	H	-1.166077	-0.078534	0.304038
H136	H	-0.666077	0.421466	0.804038
O137	O	-1.214327	-0.005113	0.342908
O138	O	-0.714327	0.494887	0.842908
H139	H	-1.257518	0.060607	0.311699
H140	H	-0.757518	0.560607	0.811699
H141	H	-1.277482	0.090897	0.481540
H142	H	-0.777482	0.590897	0.981540
H143	H	-0.994327	-0.339821	0.696252
H144	H	-0.494327	0.160179	1.196252
