data_functionalizedCrystal
_audit_creation_method	'MofGen! by Chris Wilmer'
_symmetry_space_group_name_H-M	'P1'
_symmetry_Int_Tables_number	1
_symmetry_cell_setting	triclinic
loop_
_symmetry_equiv_pos_as_xyz
  x,y,z
_cell_length_a	14.044191
_cell_length_b	27.731996
_cell_length_c	13.101039
_cell_angle_alpha	93.327690
_cell_angle_beta	86.337551
_cell_angle_gamma	87.906582
loop_
_atom_site_label
_atom_site_type_symbol
_atom_site_fract_x
_atom_site_fract_y
_atom_site_fract_z
O1	O	1.261209	0.114036	-0.085190
O2	O	1.761209	0.614036	0.414810
O3	O	0.985303	0.109829	-0.085202
O4	O	1.485303	0.609829	0.414798
O5	O	1.131850	0.041938	-0.085173
O6	O	1.631850	0.541938	0.414827
O7	O	1.114663	0.181927	-0.085218
O8	O	1.614663	0.681927	0.414782
O9	O	1.121335	0.046818	0.085254
O10	O	1.621335	0.546818	0.585254
O11	O	0.974789	0.114709	0.085226
O12	O	1.474789	0.614709	0.585226
O13	O	1.250695	0.118916	0.085238
O14	O	1.750695	0.618916	0.585238
Zn15	Zn	1.111072	0.117587	0.112291
Zn16	Zn	1.611072	0.617587	0.612291
Zn17	Zn	1.124926	0.111158	-0.112255
Zn18	Zn	1.624926	0.611158	0.387745
O19	O	1.104148	0.186807	0.085209
O20	O	1.604148	0.686807	0.585209
C21	C	0.944759	0.110429	0.000011
C22	C	1.444759	0.610429	0.500011
C23	C	0.839616	0.104941	0.000007
C24	C	1.339616	0.604941	0.500007
C25	C	0.588896	0.133832	0.000008
C26	C	1.088896	0.633832	0.500008
C27	C	0.647108	0.094915	0.000019
C28	C	1.147108	0.594915	0.500019
C29	C	0.754229	0.100494	0.000012
C30	C	1.254229	0.600494	0.500012
C31	C	0.481765	0.128253	0.000015
C32	C	0.981765	0.628253	0.500015
C33	C	1.126239	0.026354	0.000044
C34	C	1.626239	0.526354	0.500044
C35	C	1.125175	-0.027352	0.000054
C36	C	1.625175	0.472648	0.500054
C37	C	1.124218	-0.363044	-0.092896
C38	C	1.624218	0.136956	0.407104
C39	C	1.120180	-0.564892	-0.092914
C40	C	1.620180	-0.064892	0.407086
O41	O	1.124492	-0.593251	-0.171923
O42	O	1.624492	-0.093251	0.328077
N43	N	1.113947	-0.587473	-0.000015
N44	N	1.613947	-0.087473	0.499985
C45	C	1.108717	-0.559588	0.092895
C46	C	1.608717	-0.059588	0.592895
O47	O	1.103313	-0.583425	0.171912
O48	O	1.603313	-0.083425	0.671912
C49	C	1.112748	-0.357740	0.092913
C50	C	1.612748	0.142260	0.592913
C51	C	1.118991	-0.335163	0.000007
C52	C	1.618991	0.164837	0.500007
C53	C	1.130459	-0.340466	-0.185794
C54	C	1.630459	0.159534	0.314206
C55	C	1.131474	-0.290007	-0.185788
C56	C	1.631474	0.209993	0.314212
C57	C	1.126247	-0.262126	-0.092885
C58	C	1.626247	0.237874	0.407115
C59	C	1.120005	-0.284704	0.000013
C60	C	1.620005	0.215296	0.500013
C61	C	1.107511	-0.329856	0.185822
C62	C	1.607511	0.170144	0.685822
C63	C	1.108517	-0.279391	0.185818
C64	C	1.608517	0.220609	0.685818
C65	C	1.114760	-0.256814	0.092913
C66	C	1.614760	0.243186	0.592913
C67	C	1.115793	-0.206364	0.092921
C68	C	1.615793	0.293636	0.592921
N69	N	1.122026	-0.183783	0.000022
N70	N	1.622026	0.316217	0.500022
C71	C	1.127253	-0.211664	-0.092881
C72	C	1.627253	0.288336	0.407119
C73	C	1.106603	-0.665561	0.092880
C74	C	1.606603	-0.165561	0.592880
C75	C	1.105597	-0.716023	0.092876
C76	C	1.605597	-0.216023	0.592876
C77	C	1.117058	-0.721323	-0.092934
C78	C	1.617058	-0.221323	0.407066
C79	C	1.118071	-0.670861	-0.092929
C80	C	1.618071	-0.170861	0.407071
C81	C	1.112836	-0.642980	-0.000019
C82	C	1.612836	-0.142980	0.499981
C83	C	1.129384	-0.105696	-0.092863
C84	C	1.629384	0.394304	0.407137
C85	C	1.130402	-0.055233	-0.092849
C86	C	1.630402	0.444767	0.407151
C87	C	1.118935	-0.049936	0.092961
C88	C	1.618935	0.450064	0.592961
C89	C	1.117922	-0.100396	0.092948
C90	C	1.617922	0.399604	0.592948
C91	C	1.123144	-0.128275	0.000028
C92	C	1.623144	0.371725	0.500028
O93	O	1.111474	-0.177974	0.171889
O94	O	1.611474	0.322026	0.671889
O95	O	1.132635	-0.187817	-0.171885
O96	O	1.632635	0.312183	0.328115
C97	C	1.123203	-0.413503	-0.092902
C98	C	1.623203	0.086497	0.407098
C99	C	1.116962	-0.436081	-0.000004
C100	C	1.616962	0.063919	0.499996
C101	C	1.111735	-0.408199	0.092900
C102	C	1.611735	0.091801	0.592900
C103	C	1.115956	-0.486542	-0.000008
C104	C	1.615956	0.013458	0.499992
C105	C	1.121183	-0.514423	-0.092911
C106	C	1.621183	-0.014423	0.407089
C107	C	1.127416	-0.491843	-0.185810
C108	C	1.627416	0.008157	0.314190
C109	C	1.128430	-0.441384	-0.185805
C110	C	1.628430	0.058616	0.314195
C111	C	1.105502	-0.430780	0.185799
C112	C	1.605502	0.069220	0.685799
C113	C	1.104489	-0.481239	0.185786
C114	C	1.604489	0.018761	0.685786
C115	C	1.109716	-0.509120	0.092882
C116	C	1.609716	-0.009120	0.592882
C117	C	1.291239	0.118316	0.000023
C118	C	1.791239	0.618316	0.500023
C119	C	1.396383	0.123804	0.000020
C120	C	1.896383	0.623804	0.500020
C121	C	1.109759	0.202391	-0.000010
C122	C	1.609759	0.702391	0.499990
C123	C	1.110824	0.256096	-0.000027
C124	C	1.610824	0.756096	0.499973
N125	N	1.101625	0.121975	0.265538
N126	N	1.601625	0.621975	0.765538
N127	N	1.134381	0.106766	-0.265502
N128	N	1.634381	0.606766	0.234498
C129	C	1.088770	0.127950	0.474578
C130	C	1.588770	0.627950	0.974578
C131	C	1.147232	0.100793	0.525465
C132	C	1.647232	0.600793	1.025465
C133	C	1.140080	0.104118	0.641782
C134	C	1.640080	0.604118	1.141782
C135	C	1.095921	0.124626	0.358250
C136	C	1.595921	0.624626	0.858250
H137	H	0.619507	0.171338	-0.000007
H138	H	1.119507	0.671338	0.499993
H139	H	1.202655	0.075048	0.481673
H140	H	1.702655	0.575048	0.981673
H141	H	1.135488	-0.036853	-0.168507
H142	H	1.635488	0.463147	0.331493
H143	H	1.133631	-0.128389	-0.168527
H144	H	1.633631	0.371611	0.331473
H145	H	0.616500	0.057403	-0.000041
H146	H	1.116500	0.557403	0.499959
H147	H	1.136554	-0.271629	-0.261442
H148	H	1.636554	0.228371	0.238558
H149	H	1.134713	-0.363161	-0.261451
H150	H	1.634713	0.136839	0.238549
H151	H	1.112847	-0.118779	0.168599
H152	H	1.612847	0.381221	0.668599
H153	H	1.033353	0.153694	0.518364
H154	H	1.533353	0.653694	1.018364
H155	H	1.123153	-0.652482	-0.168581
H156	H	1.623153	-0.152482	0.331419
H157	H	1.121315	-0.744033	-0.168580
H158	H	1.621315	-0.244033	0.331420
H159	H	1.100527	-0.734401	0.168529
H160	H	1.600527	-0.234401	0.668529
H161	H	1.102344	-0.642865	0.168543
H162	H	1.602344	-0.142865	0.668543
H163	H	1.131676	-0.514552	-0.261456
H164	H	1.631676	-0.014552	0.238544
H165	H	1.102428	-0.348230	0.261476
H166	H	1.602428	0.151770	0.761476
H167	H	1.104239	-0.256693	0.261478
H168	H	1.604239	0.243307	0.761478
H169	H	1.133514	-0.423006	-0.261458
H170	H	1.633514	0.076994	0.238542
H171	H	1.114684	-0.027227	0.168600
H172	H	1.614684	0.472773	0.668600
H173	H	1.099412	-0.499617	0.261446
H174	H	1.599412	0.000383	0.761446
H175	H	1.101246	-0.408084	0.261454
H176	H	1.601246	0.091916	0.761454
