data_functionalizedCrystal
_audit_creation_method	'MofGen! by Chris Wilmer'
_symmetry_space_group_name_H-M	'P1'
_symmetry_Int_Tables_number	1
_symmetry_cell_setting	triclinic
loop_
_symmetry_equiv_pos_as_xyz
  x,y,z
_cell_length_a	23.532361
_cell_length_b	23.532407
_cell_length_c	22.010155
_cell_angle_alpha	90.000423
_cell_angle_beta	89.995873
_cell_angle_gamma	97.160827
loop_
_atom_site_label
_atom_site_type_symbol
_atom_site_fract_x
_atom_site_fract_y
_atom_site_fract_z
O1	O	0.755281	-0.069001	-0.050470
O2	O	1.088614	0.264333	0.282863
O3	O	1.421948	0.597666	0.616196
O4	O	0.589414	-0.079032	-0.050486
O5	O	0.922747	0.254302	0.282848
O6	O	1.256080	0.587635	0.616181
O7	O	0.677349	0.008916	-0.050466
O8	O	1.010682	0.342250	0.282867
O9	O	1.344016	0.675583	0.616200
O10	O	0.667346	-0.156949	-0.050490
O11	O	1.000679	0.176385	0.282844
O12	O	1.334012	0.509718	0.616177
O13	O	0.677333	0.008903	0.050584
O14	O	1.010666	0.342237	0.383917
O15	O	1.344000	0.675570	0.717251
O16	O	0.589398	-0.079045	0.050565
O17	O	0.922731	0.254289	0.383898
O18	O	1.256064	0.587622	0.717231
O19	O	0.755265	-0.069014	0.050580
O20	O	1.088598	0.264320	0.383913
O21	O	1.421932	0.597653	0.717247
Cu22	Cu	0.672330	-0.074030	0.059799
Cu23	Cu	1.005663	0.259303	0.393132
Cu24	Cu	1.338997	0.592636	0.726466
Cu25	Cu	0.672349	-0.074015	-0.059705
Cu26	Cu	1.005682	0.259318	0.273629
Cu27	Cu	1.339015	0.592652	0.606962
O28	O	0.667330	-0.156962	0.050561
O29	O	1.000663	0.176372	0.383894
O30	O	1.333996	0.509705	0.717227
C31	C	0.568189	-0.078787	0.000038
C32	C	0.901523	0.254546	0.333371
C33	C	1.234856	0.587880	0.666704
C34	C	0.504971	-0.078032	0.000032
C35	C	0.838304	0.255302	0.333366
C36	C	1.171637	0.588635	0.666699
C37	C	0.231736	-0.074721	-0.055046
C38	C	0.565069	0.258612	0.278287
C39	C	0.898402	0.591946	0.611620
C40	C	0.291136	-0.075436	-0.055048
C41	C	0.624469	0.257897	0.278285
C42	C	0.957802	0.591231	0.611619
O43	O	0.321869	-0.075780	-0.101892
O44	O	0.655202	0.257553	0.231441
O45	O	0.988535	0.590887	0.564774
N46	N	0.320832	-0.075804	0.000035
N47	N	0.654166	0.257529	0.333368
N48	N	0.987499	0.590862	0.666702
C49	C	0.291127	-0.075452	0.055123
C50	C	0.624461	0.257881	0.388456
C51	C	0.957794	0.591215	0.721789
O52	O	0.321841	-0.075830	0.101975
O53	O	0.655175	0.257503	0.435308
O54	O	0.988508	0.590836	0.768641
C55	C	0.231729	-0.074733	0.055124
C56	C	0.565063	0.258600	0.388457
C57	C	0.898396	0.591934	0.721790
C58	C	0.202035	-0.074370	0.000037
C59	C	0.535368	0.258963	0.333371
C60	C	0.868701	0.592296	0.666704
C61	C	0.202041	-0.074358	-0.110128
C62	C	0.535374	0.258975	0.223205
C63	C	0.868708	0.592309	0.556539
C64	C	0.142645	-0.073644	-0.110126
C65	C	0.475979	0.259689	0.223207
C66	C	0.809312	0.593023	0.556540
C67	C	0.112944	-0.073293	-0.055043
C68	C	0.446277	0.260040	0.278291
C69	C	0.779611	0.593373	0.611624
C70	C	0.142639	-0.073657	0.000039
C71	C	0.475972	0.259677	0.333373
C72	C	0.809305	0.593010	0.666706
C73	C	0.202026	-0.074376	0.110211
C74	C	0.535359	0.258957	0.443544
C75	C	0.868693	0.592290	0.776878
C76	C	0.142624	-0.073657	0.110207
C77	C	0.475957	0.259677	0.443541
C78	C	0.809290	0.593010	0.776874
C79	C	0.112929	-0.073294	0.055121
C80	C	0.446262	0.260039	0.388454
C81	C	0.779596	0.593372	0.721788
C82	C	0.053542	-0.072592	0.055125
C83	C	0.386875	0.260741	0.388458
C84	C	0.720209	0.594075	0.721791
N85	N	0.023845	-0.072224	0.000042
N86	N	0.357178	0.261110	0.333375
N87	N	0.690512	0.594443	0.666709
C88	C	0.053546	-0.072574	-0.055042
C89	C	0.386879	0.260759	0.278292
C90	C	0.720213	0.594092	0.611625
C91	C	0.415868	-0.076961	0.055117
C92	C	0.749201	0.256372	0.388450
C93	C	1.082534	0.589706	0.721783
C94	C	0.475264	-0.077684	0.055116
C95	C	0.808597	0.255649	0.388450
C96	C	1.141931	0.588983	0.721783
C97	C	0.475268	-0.077667	-0.055055
C98	C	0.808602	0.255666	0.278279
C99	C	1.141935	0.589000	0.611612
C100	C	0.415870	-0.076948	-0.055054
C101	C	0.749203	0.256385	0.278280
C102	C	1.082537	0.589719	0.611613
C103	C	0.386171	-0.076593	0.000034
C104	C	0.719504	0.256741	0.333367
C105	C	1.052837	0.590074	0.666701
C106	C	-0.071190	-0.071076	-0.055034
C107	C	0.262144	0.262257	0.278300
C108	C	0.595477	0.595591	0.611633
C109	C	-0.130591	-0.070364	-0.055027
C110	C	0.202742	0.262969	0.278306
C111	C	0.536076	0.596302	0.611640
C112	C	-0.130589	-0.070378	0.055144
C113	C	0.202744	0.262955	0.388477
C114	C	0.536077	0.596288	0.721810
C115	C	-0.071194	-0.071093	0.055137
C116	C	0.262140	0.262240	0.388471
C117	C	0.595473	0.595574	0.721804
C118	C	-0.041495	-0.071440	0.000044
C119	C	0.291838	0.261894	0.333377
C120	C	0.625172	0.595227	0.666710
O121	O	0.022771	-0.072245	0.101945
O122	O	0.356104	0.261088	0.435279
O123	O	0.689438	0.594421	0.768612
O124	O	0.022826	-0.072188	-0.101886
O125	O	0.356159	0.261145	0.231448
O126	O	0.689493	0.594478	0.564781
C127	C	0.677086	0.030126	0.000060
C128	C	1.010420	0.363459	0.333394
C129	C	1.343753	0.696793	0.666727
C130	C	0.676320	0.093343	0.000065
C131	C	1.009654	0.426676	0.333398
C132	C	1.342987	0.760009	0.666732
C133	C	0.776489	-0.069258	0.000055
C134	C	1.109823	0.264075	0.333389
C135	C	1.443156	0.597408	0.666722
C136	C	0.839708	-0.070014	0.000057
C137	C	1.173041	0.263320	0.333390
C138	C	1.506375	0.596653	0.666723
C139	C	0.667592	-0.178171	0.000033
C140	C	1.000926	0.155162	0.333366
C141	C	1.334259	0.488495	0.666699
C142	C	0.668358	-0.241388	0.000024
C143	C	1.001692	0.091945	0.333357
C144	C	1.335025	0.425279	0.666691
N145	N	0.672321	-0.074041	0.143851
N146	N	1.005654	0.259292	0.477185
N147	N	1.338987	0.592626	0.810518
C148	C	0.723555	0.492454	0.000036
C149	C	1.056888	0.825787	0.333369
C150	C	1.390222	1.159120	0.666703
C151	C	0.722844	0.551854	0.000031
C152	C	1.056177	0.885187	0.333365
C153	C	1.389510	1.218521	0.666698
O154	O	0.766630	0.588606	0.000013
O155	O	1.099964	0.921939	0.333346
O156	O	1.433297	1.255272	0.666680
N157	N	0.670566	0.574471	0.000027
N158	N	1.003899	0.907805	0.333360
N159	N	1.337233	1.241138	0.666694
C160	C	0.618997	0.537685	0.000021
C161	C	0.952330	0.871018	0.333354
C162	C	1.285663	1.204352	0.666688
O163	O	0.574465	0.562377	0.000016
O164	O	0.907799	0.895711	0.333349
O165	O	1.241132	1.229044	0.666683
C166	C	0.619709	0.478286	0.000021
C167	C	0.953042	0.811619	0.333355
C168	C	1.286375	1.144953	0.666688
C169	C	0.671990	0.455672	0.000032
C170	C	1.005323	0.789006	0.333365
C171	C	1.338656	1.122339	0.666699
C172	C	0.775832	0.469839	0.000046
C173	C	1.109165	0.803173	0.333379
C174	C	1.442498	1.136506	0.666713
C175	C	0.776543	0.410443	0.000052
C176	C	1.109876	0.743777	0.333385
C177	C	1.443210	1.077110	0.666718
C178	C	0.724977	0.373662	0.000048
C179	C	1.058311	0.706995	0.333381
C180	C	1.391644	1.040328	0.666714
C181	C	0.672701	0.396276	0.000038
C182	C	1.006034	0.729610	0.333371
C183	C	1.339367	1.062943	0.666704
C184	C	0.568140	0.441501	0.000011
C185	C	0.901473	0.774834	0.333344
C186	C	1.234807	1.108168	0.666678
C187	C	0.568857	0.382099	0.000011
C188	C	0.902190	0.715432	0.333344
C189	C	1.235523	1.048765	0.666678
C190	C	0.621137	0.359485	0.000021
C191	C	0.954471	0.692818	0.333355
C192	C	1.287804	1.026151	0.666688
C193	C	0.621847	0.300099	0.000039
C194	C	0.955180	0.633432	0.333373
C195	C	1.288513	0.966765	0.666706
N196	N	0.674124	0.277481	0.000044
N197	N	1.007457	0.610815	0.333377
N198	N	1.340791	0.944148	0.666710
C199	C	0.725690	0.314263	0.000048
C200	C	1.059023	0.647596	0.333381
C201	C	1.392356	0.980929	0.666715
C202	C	0.617505	0.662427	0.000019
C203	C	0.950839	0.995761	0.333352
C204	C	1.284172	1.329094	0.666686
C205	C	0.616793	0.721825	0.000023
C206	C	0.950126	1.055158	0.333357
C207	C	1.283459	1.388492	0.666690
C208	C	0.720640	0.735990	0.000032
C209	C	1.053973	1.069323	0.333366
C210	C	1.387306	1.402657	0.666699
C211	C	0.721352	0.676591	0.000033
C212	C	1.054685	1.009924	0.333366
C213	C	1.388018	1.343258	0.666699
C214	C	0.669783	0.639810	0.000024
C215	C	1.003116	0.973143	0.333357
C216	C	1.336449	1.306477	0.666690
C217	C	0.727179	0.189526	0.000061
C218	C	1.060513	0.522860	0.333394
C219	C	1.393846	0.856193	0.666727
C220	C	0.727886	0.130124	0.000069
C221	C	1.061219	0.463458	0.333402
C222	C	1.394553	0.796791	0.666736
C223	C	0.624039	0.115965	0.000057
C224	C	0.957372	0.449298	0.333390
C225	C	1.290706	0.782631	0.666723
C226	C	0.623332	0.175361	0.000051
C227	C	0.956665	0.508695	0.333385
C228	C	1.289999	0.842028	0.666718
C229	C	0.674907	0.212141	0.000051
C230	C	1.008240	0.545475	0.333385
C231	C	1.341574	0.878808	0.666718
O232	O	0.578083	0.263312	0.000055
O233	O	0.911416	0.596645	0.333389
O234	O	1.244749	0.929979	0.666722
O235	O	0.770214	0.289562	0.000045
O236	O	1.103547	0.622896	0.333378
O237	O	1.436880	0.956229	0.666711
N238	N	0.672362	-0.074000	-0.143757
N239	N	1.005696	0.259334	0.189576
N240	N	1.339029	0.592667	0.522909
C241	C	0.711289	-0.035077	0.563639
C242	C	1.044622	0.298256	0.896973
C243	C	1.377955	0.631590	1.230306
C244	C	0.711291	-0.035073	0.627247
C245	C	1.044625	0.298260	0.960580
C246	C	1.377958	0.631594	1.293914
O247	O	0.744400	-0.001952	0.660146
O248	O	1.077734	0.331382	0.993479
O249	O	1.411067	0.664715	1.326812
N250	N	0.672349	-0.074003	0.659059
N251	N	1.005682	0.259330	0.992392
N252	N	1.339015	0.592664	1.325725
C253	C	0.633397	-0.112935	0.627259
C254	C	0.966730	0.220398	0.960593
C255	C	1.300063	0.553731	1.293926
O256	O	0.600272	-0.146048	0.660158
O257	O	0.933606	0.187286	0.993492
O258	O	1.266939	0.520619	1.326825
C259	C	0.633392	-0.112936	0.563653
C260	C	0.966725	0.220397	0.896986
C261	C	1.300058	0.553730	1.230319
C262	C	0.672341	-0.074008	0.531845
C263	C	1.005674	0.259326	0.865178
C264	C	1.339008	0.592659	1.198511
C265	C	0.750235	0.003849	0.531831
C266	C	1.083568	0.337182	0.865164
C267	C	1.416901	0.670516	1.198498
C268	C	0.750232	0.003844	0.468228
C269	C	1.083566	0.337177	0.801561
C270	C	1.416899	0.670511	1.134895
C271	C	0.711285	-0.035087	0.436433
C272	C	1.044618	0.298247	0.769766
C273	C	1.377951	0.631580	1.103100
C274	C	0.672339	-0.074012	0.468241
C275	C	1.005672	0.259321	0.801575
C276	C	1.339006	0.592654	1.134908
C277	C	0.594437	-0.151866	0.531855
C278	C	0.927771	0.181468	0.865188
C279	C	1.261104	0.514801	1.198521
C280	C	0.594436	-0.151863	0.468244
C281	C	0.927769	0.181471	0.801577
C282	C	1.261102	0.514804	1.134911
C283	C	0.633385	-0.112934	0.436436
C284	C	0.966718	0.220399	0.769769
C285	C	1.300052	0.553733	1.103102
C286	C	0.633389	-0.112948	0.372843
C287	C	0.966722	0.220386	0.706177
C288	C	1.300056	0.553719	1.039510
N289	N	0.672332	-0.074018	0.341032
N290	N	1.005665	0.259315	0.674365
N291	N	1.338999	0.592649	1.007698
C292	C	0.711280	-0.035087	0.372827
C293	C	1.044613	0.298246	0.706160
C294	C	1.377946	0.631579	1.039493
C295	C	0.633409	-0.112930	0.760837
C296	C	0.966743	0.220403	1.094170
C297	C	1.300076	0.553736	1.427504
C298	C	0.633416	-0.112933	0.824442
C299	C	0.966750	0.220401	1.157776
C300	C	1.300083	0.553734	1.491109
C301	C	0.711311	-0.035069	0.824426
C302	C	1.044644	0.298264	1.157759
C303	C	1.377977	0.631597	1.491092
C304	C	0.711306	-0.035070	0.760819
C305	C	1.044639	0.298263	1.094153
C306	C	1.377972	0.631597	1.427486
C307	C	0.672352	-0.074000	0.729025
C308	C	1.005685	0.259333	1.062359
C309	C	1.339019	0.592666	1.395692
C310	C	0.711273	-0.035101	0.239255
C311	C	1.044606	0.298233	0.572589
C312	C	1.377939	0.631566	0.905922
C313	C	0.711269	-0.035110	0.175646
C314	C	1.044602	0.298223	0.508980
C315	C	1.377935	0.631556	0.842313
C316	C	0.633373	-0.112971	0.175669
C317	C	0.966706	0.220362	0.509002
C318	C	1.300039	0.553695	0.842335
C319	C	0.633378	-0.112964	0.239272
C320	C	0.966712	0.220369	0.572605
C321	C	1.300045	0.553703	0.905938
C322	C	0.672331	-0.074024	0.271064
C323	C	1.005664	0.259310	0.604397
C324	C	1.338997	0.592643	0.937730
O325	O	0.600295	-0.146051	0.339904
O326	O	0.933629	0.187283	0.673237
O327	O	1.266962	0.520616	1.006571
O328	O	0.744393	-0.001976	0.339920
O329	O	1.077727	0.331358	0.673253
O330	O	1.411060	0.664691	1.006587
H331	H	0.391689	-0.076679	0.099978
H332	H	0.725022	0.256655	0.433312
H333	H	1.058356	0.589988	0.766645
H334	H	0.580761	0.193774	0.000060
H335	H	0.914094	0.527108	0.333393
H336	H	1.247427	0.860441	0.666726
H337	H	0.499462	-0.077952	-0.099907
H338	H	0.832795	0.255381	0.233427
H339	H	1.166128	0.588715	0.566760
H340	H	0.499435	-0.077988	0.099973
H341	H	0.832769	0.255345	0.433306
H342	H	1.166102	0.588678	0.766640
H343	H	0.226218	-0.074642	-0.154986
H344	H	0.559551	0.258692	0.178347
H345	H	0.892884	0.592025	0.511680
H346	H	0.582056	0.086007	0.000055
H347	H	0.915389	0.419340	0.333389
H348	H	1.248723	0.752673	0.666722
H349	H	0.743023	-0.003369	0.850325
H350	H	1.076357	0.329964	1.183658
H351	H	1.409690	0.663298	1.516991
H352	H	0.781947	0.035545	0.442333
H353	H	1.115280	0.368878	0.775667
H354	H	1.448613	0.702211	1.109000
H355	H	0.526862	0.352154	0.000003
H356	H	0.860195	0.685487	0.333336
H357	H	1.193528	1.018820	0.666669
H358	H	0.742988	-0.003410	0.149750
H359	H	1.076321	0.329923	0.483083
H360	H	1.409655	0.663257	0.816417
H361	H	0.601690	-0.144637	0.734954
H362	H	0.935023	0.188697	1.068287
H363	H	1.268356	0.522030	1.401620
H364	H	0.817825	0.499782	0.000047
H365	H	1.151158	0.833115	0.333380
H366	H	1.484492	1.166448	0.666714
H367	H	0.763923	0.658183	0.000041
H368	H	1.097257	0.991517	0.333374
H369	H	1.430590	1.324850	0.666707
H370	H	0.601706	-0.144638	0.850336
H371	H	0.935040	0.188696	1.183670
H372	H	1.268373	0.522029	1.517003
H373	H	0.226193	-0.074670	0.155068
H374	H	0.559527	0.258664	0.488402
H375	H	0.892860	0.591997	0.821735
H376	H	0.762627	0.765949	0.000033
H377	H	1.095960	1.099282	0.333367
H378	H	1.429294	1.432615	0.666700
H379	H	0.601663	-0.144670	0.149771
H380	H	0.934997	0.188663	0.483105
H381	H	1.268330	0.521997	0.816438
H382	H	0.742990	-0.003391	0.265133
H383	H	1.076324	0.329942	0.598466
H384	H	1.409657	0.663275	0.931800
H385	H	-0.154766	-0.070071	-0.099887
H386	H	0.178567	0.263262	0.233447
H387	H	0.511901	0.596596	0.566780
H388	H	0.743021	-0.003371	0.734925
H389	H	1.076355	0.329962	1.068258
H390	H	1.409688	0.663296	1.401591
H391	H	0.562721	-0.183564	0.557744
H392	H	0.896055	0.149769	0.891077
H393	H	1.229388	0.483102	1.224411
H394	H	0.118445	-0.073372	0.155067
H395	H	0.451778	0.259961	0.488401
H396	H	0.785112	0.593294	0.821734
H397	H	0.781951	0.035553	0.557713
H398	H	1.115284	0.368887	0.891046
H399	H	1.448617	0.702220	1.224380
H400	H	0.118474	-0.073346	-0.154983
H401	H	0.451807	0.259987	0.178350
H402	H	0.785140	0.593320	0.511683
H403	H	0.562713	-0.183564	0.442360
H404	H	0.896046	0.149770	0.775694
H405	H	1.229380	0.483103	1.109027
H406	H	0.525567	0.459902	-0.000001
H407	H	0.858901	0.793236	0.333332
H408	H	1.192234	1.126569	0.666665
H409	H	0.601668	-0.144669	0.265171
H410	H	0.935001	0.188665	0.598504
H411	H	1.268334	0.521998	0.931837
H412	H	0.391697	-0.076653	-0.099910
H413	H	0.725030	0.256681	0.233423
H414	H	1.058363	0.590014	0.566757
H415	H	0.574220	0.740232	0.000025
H416	H	0.907554	1.073565	0.333358
H417	H	1.240887	1.406898	0.666692
H418	H	-0.047017	-0.071399	0.099993
H419	H	0.286317	0.261934	0.433326
H420	H	0.619650	0.595267	0.766660
H421	H	-0.154783	-0.070095	0.099991
H422	H	0.178550	0.263238	0.433325
H423	H	0.511883	0.596572	0.766658
H424	H	0.770461	0.111716	0.000079
H425	H	1.103794	0.445049	0.333412
H426	H	1.437128	0.778382	0.666746
H427	H	-0.047016	-0.071359	-0.099896
H428	H	0.286317	0.261974	0.233437
H429	H	0.619651	0.595308	0.566771
H430	H	0.769176	0.219466	0.000058
H431	H	1.102510	0.552799	0.333392
H432	H	1.435843	0.886133	0.666725
H433	H	0.819115	0.392037	0.000058
H434	H	1.152449	0.725370	0.333391
H435	H	1.485782	1.058704	0.666724
H436	H	0.575509	0.632483	0.000017
H437	H	0.908842	0.965816	0.333350
H438	H	1.242175	1.299149	0.666684
