data_functionalizedCrystal
_audit_creation_method	'MofGen! by Chris Wilmer'
_symmetry_space_group_name_H-M	'P1'
_symmetry_Int_Tables_number	1
_symmetry_cell_setting	triclinic
loop_
_symmetry_equiv_pos_as_xyz
  x,y,z
_cell_length_a	19.077105
_cell_length_b	18.050590
_cell_length_c	19.076919
_cell_angle_alpha	87.729485
_cell_angle_beta	89.923776
_cell_angle_gamma	87.714864
loop_
_atom_site_label
_atom_site_type_symbol
_atom_site_fract_x
_atom_site_fract_y
_atom_site_fract_z
Zn1	Zn	1.058306	-0.359282	0.440410
Zn2	Zn	1.062957	-0.478691	0.322901
Zn3	Zn	0.945523	-0.349334	0.318204
Zn4	Zn	0.940779	-0.478243	0.435654
O5	O	1.001891	-0.416388	0.379292
O6	O	1.157255	-0.379473	0.428779
O7	O	1.051311	-0.457555	0.223947
O8	O	0.960522	-0.246732	0.334440
O9	O	1.160673	-0.467202	0.342445
O10	O	1.043383	-0.254041	0.424224
O11	O	0.965032	-0.362517	0.220496
O12	O	0.846561	-0.362083	0.329827
O13	O	0.952437	-0.466439	0.534616
O14	O	0.843076	-0.456792	0.416117
O15	O	1.038784	-0.379039	0.538111
O16	O	1.046712	-0.582553	0.337833
O17	O	0.956948	-0.582224	0.420672
C18	C	0.819322	-0.408310	0.371947
C19	C	0.741218	-0.404873	0.368821
C20	C	1.001838	-0.609336	0.379262
C21	C	1.001879	-0.691884	0.379275
C22	C	0.702731	-0.452637	0.412209
C23	C	0.629343	-0.449397	0.409275
C24	C	0.594444	-0.398397	0.362950
C25	C	0.632936	-0.350628	0.319561
C26	C	0.706322	-0.353864	0.322498
C27	C	0.375155	-0.383420	0.349358
C28	C	0.301764	-0.380189	0.346422
C29	C	0.298176	-0.478958	0.436137
C30	C	0.371564	-0.482193	0.439068
C31	C	0.410049	-0.434421	0.395681
N32	N	0.519430	-0.395087	0.359949
N33	N	0.485062	-0.437728	0.398687
C34	C	1.050788	-0.891494	0.334297
C35	C	1.065373	-0.944195	0.399117
C36	C	1.001918	-0.843017	0.379305
C37	C	0.987403	-0.937403	0.314516
C38	C	1.001957	-0.989005	0.379328
C39	C	1.016535	-0.894634	0.444160
C40	C	0.938536	-0.887835	0.359515
C41	C	0.953096	-0.940514	0.424378
C42	C	1.001897	-0.758918	0.379291
C43	C	1.001977	-1.073103	0.379349
C44	C	1.185173	-0.424497	0.386667
C45	C	1.263277	-0.427953	0.389809
C46	C	0.994562	-0.423799	0.562572
C47	C	0.991439	-0.426957	0.640675
C48	C	1.001963	-0.222687	0.379339
C49	C	1.001993	-0.140143	0.379358
C50	C	1.009232	-0.408953	0.196727
C51	C	1.012491	-0.405592	0.118630
C52	C	1.034926	-0.382938	0.679189
C53	C	1.031983	-0.385902	0.752575
C54	C	0.985556	-0.432890	0.787446
C55	C	0.942065	-0.476910	0.748927
C56	C	0.945005	-0.473941	0.675542
C57	C	0.971940	-0.446644	1.006726
C58	C	0.969005	-0.449611	1.080116
C59	C	1.058922	-0.358602	1.083759
C60	C	1.061860	-0.355641	1.010373
C61	C	1.018367	-0.399658	0.971860
N62	N	0.982549	-0.435922	0.862458
N63	N	1.021371	-0.396621	0.896850
H64	H	0.731140	-0.494169	0.449929
H65	H	0.399974	-0.523724	0.476789
H66	H	0.598010	-0.488293	0.444605
O67	O	0.260683	-0.525280	0.478258
C68	C	0.188427	-0.511504	0.465722
H69	H	0.179328	-0.452786	0.442403
H70	H	0.169082	-0.553060	0.427396
C71	C	0.159098	-0.591756	0.563943
C72	C	0.147922	-0.519635	0.535307
H73	H	0.134112	-0.596775	0.606865
H74	H	0.207778	-0.601040	0.572387
H75	H	0.142977	-0.626378	0.531997
H76	H	0.164051	-0.485016	0.567249
H77	H	0.099244	-0.510346	0.526870
O78	O	0.412428	-0.336985	0.307143
C79	C	0.365885	-0.291267	0.265640
H80	H	0.313668	-0.319281	0.261058
H81	H	0.357059	-0.235612	0.291162
C82	C	0.461637	-0.244261	0.197648
C83	C	0.397504	-0.278671	0.192015
H84	H	0.481141	-0.236487	0.152233
H85	H	0.492994	-0.275060	0.225611
H86	H	0.454273	-0.197885	0.218918
H87	H	0.404870	-0.325050	0.170753
H88	H	0.366149	-0.247879	0.164047
O89	O	0.923858	-0.495150	1.114063
C90	C	0.876784	-0.452567	1.154679
H91	H	0.901157	-0.397835	1.166687
H92	H	0.825848	-0.440949	1.124300
C93	C	0.831310	-0.562904	1.209115
C94	C	0.861248	-0.495683	1.223868
H95	H	0.821723	-0.589501	1.251793
H96	H	0.863022	-0.591593	1.181749
H97	H	0.788866	-0.553213	1.183797
H98	H	0.903694	-0.505376	1.249178
H99	H	0.829542	-0.466997	1.251240
H100	H	1.067396	-0.350060	0.783929
H101	H	1.072733	-0.344678	0.650802
H102	H	0.604515	-0.309100	0.281845
H103	H	0.911783	-0.961907	0.462496
O104	O	0.929791	-0.489444	0.969255
C105	C	0.971469	-0.537482	0.928417
H106	H	1.025170	-0.513206	0.919560
H107	H	0.978040	-0.593999	0.957002
C108	C	0.869620	-0.576223	0.868035
C109	C	0.935575	-0.546403	0.857152
H110	H	0.847479	-0.581729	0.824077
H111	H	0.841540	-0.543861	0.895550
H112	H	0.875105	-0.623317	0.891857
H113	H	0.930088	-0.499306	0.833338
H114	H	0.963653	-0.578758	0.829631
O115	O	0.267823	-0.330735	0.301361
C116	C	0.227148	-0.369215	0.254213
H117	H	0.249432	-0.428488	0.250627
H118	H	0.170672	-0.370253	0.273726
C119	C	0.201534	-0.256979	0.185598
C120	C	0.228908	-0.329777	0.181190
H121	H	0.202617	-0.232650	0.140555
H122	H	0.228936	-0.231053	0.217364
H123	H	0.154473	-0.257853	0.201862
H124	H	0.275970	-0.328901	0.164935
H125	H	0.201514	-0.355702	0.149419
H126	H	0.884936	-0.863176	0.342744
O127	O	1.100047	-0.865682	0.288943
C128	C	1.098952	-0.787540	0.289094
H129	H	1.045467	-0.765896	0.307817
H130	H	1.141442	-0.769224	0.325864
C131	C	1.178295	-0.782746	0.191301
C132	C	1.112603	-0.756162	0.214292
H133	H	1.186719	-0.763390	0.145161
H134	H	1.179035	-0.835392	0.191201
H135	H	1.213697	-0.767481	0.221949
H136	H	1.077202	-0.771436	0.183649
H137	H	1.111857	-0.703519	0.214385
H138	H	1.118990	-0.968837	0.415870
H139	H	1.028773	-0.875827	0.499005
O140	O	0.743605	-0.307440	0.280277
C141	C	0.697067	-0.261721	0.238769
H142	H	0.644845	-0.289727	0.234192
H143	H	0.688250	-0.206060	0.264283
C144	C	0.792824	-0.214739	0.170769
C145	C	0.728686	-0.249140	0.165142
H146	H	0.812329	-0.206975	0.125353
H147	H	0.824178	-0.245539	0.198735
H148	H	0.785468	-0.168359	0.192033
H149	H	0.736045	-0.295523	0.143886
H150	H	0.697334	-0.218348	0.137171
H151	H	1.099668	-0.317381	0.981986
O152	O	0.972815	-0.959861	0.249092
C153	C	1.024463	-0.934920	0.201809
H154	H	1.050364	-0.884915	0.223718
H155	H	1.065773	-0.981323	0.194307
C156	C	0.958274	-0.973955	0.103788
C157	C	0.990083	-0.912535	0.130695
H158	H	0.937068	-0.960150	0.059920
H159	H	0.923479	-0.990761	0.135643
H160	H	0.992704	-1.012619	0.097542
H161	H	0.955651	-0.873876	0.136948
H162	H	1.024871	-0.895722	0.098839
H163	H	0.904261	-0.515165	0.777324
O164	O	0.902745	-0.516785	0.638236
C165	C	0.861129	-0.558885	0.684748
H166	H	0.887811	-0.564838	0.738220
H167	H	0.807454	-0.529653	0.690402
C168	C	0.819363	-0.629010	0.590007
C169	C	0.852137	-0.636327	0.655682
H170	H	0.813813	-0.676779	0.572077
H171	H	0.847398	-0.600645	0.558670
H172	H	0.774637	-0.604647	0.594728
H173	H	0.896865	-0.660681	0.650958
H174	H	0.824109	-0.664698	0.687017
H175	H	1.094331	-0.322764	1.115124
