data_functionalizedCrystal
_audit_creation_method	'MofGen! by Chris Wilmer'
_symmetry_space_group_name_H-M	'P1'
_symmetry_Int_Tables_number	1
_symmetry_cell_setting	triclinic
loop_
_symmetry_equiv_pos_as_xyz
  x,y,z
_cell_length_a	19.077068
_cell_length_b	19.077241
_cell_length_c	19.076919
_cell_angle_alpha	89.886096
_cell_angle_beta	85.529249
_cell_angle_gamma	85.292229
loop_
_atom_site_label
_atom_site_type_symbol
_atom_site_fract_x
_atom_site_fract_y
_atom_site_fract_z
Zn1	Zn	-0.256332	-1.047582	0.450414
Zn2	Zn	0.077002	-0.714249	0.783747
Zn3	Zn	0.410335	-0.380916	1.117081
Zn4	Zn	-0.369488	-1.047495	0.337255
Zn5	Zn	-0.036155	-0.714162	0.670589
Zn6	Zn	0.297178	-0.380829	1.003922
Zn7	Zn	-0.255959	-0.934813	0.328177
Zn8	Zn	0.077374	-0.601480	0.661511
Zn9	Zn	0.410707	-0.268147	0.994844
Zn10	Zn	-0.378906	-0.924921	0.450353
Zn11	Zn	-0.045573	-0.591588	0.783686
Zn12	Zn	0.287760	-0.258254	1.117019
O13	O	-0.315171	-0.988703	0.391550
O14	O	0.018162	-0.655370	0.724883
O15	O	0.351495	-0.322036	1.058216
O16	O	-0.267556	-1.146062	0.439228
O17	O	0.065777	-0.812729	0.772561
O18	O	0.399110	-0.479396	1.105895
O19	O	-0.350331	-1.036651	0.237563
O20	O	-0.016998	-0.703318	0.570896
O21	O	0.316335	-0.369985	0.904230
O22	O	-0.157199	-0.953949	0.340619
O23	O	0.176135	-0.620616	0.673952
O24	O	0.509468	-0.287282	1.007285
O25	O	-0.350692	-1.145999	0.356091
O26	O	-0.017359	-0.812665	0.689424
O27	O	0.315975	-0.479332	1.022757
O28	O	-0.157472	-1.036800	0.430426
O29	O	0.175861	-0.703466	0.763759
O30	O	0.509195	-0.370133	1.097092
O31	O	-0.266922	-0.953864	0.230893
O32	O	0.066411	-0.620531	0.564227
O33	O	0.399745	-0.287198	0.897560
O34	O	-0.276054	-0.835009	0.340559
O35	O	0.057279	-0.501676	0.673893
O36	O	0.390612	-0.168343	1.007226
O37	O	-0.366744	-0.937089	0.548849
O38	O	-0.033410	-0.603756	0.882182
O39	O	0.299923	-0.270422	1.215515
O40	O	-0.366383	-0.827742	0.430321
O41	O	-0.033050	-0.494408	0.763654
O42	O	0.300284	-0.161075	1.096987
O43	O	-0.276689	-1.027207	0.548894
O44	O	0.056645	-0.693874	0.882227
O45	O	0.389978	-0.360541	1.215561
O46	O	-0.469548	-1.027059	0.356031
O47	O	-0.136214	-0.693726	0.689365
O48	O	0.197119	-0.360392	1.022698
O49	O	-0.476467	-0.937004	0.439123
O50	O	-0.143134	-0.603671	0.772457
O51	O	0.190200	-0.270338	1.105790
C52	C	-0.322201	-0.805838	0.384449
C53	C	0.011133	-0.472504	0.717782
C54	C	0.344466	-0.139171	1.051115
C55	C	-0.325226	-0.727606	0.381428
C56	C	0.008108	-0.394272	0.714762
C57	C	0.341441	-0.060939	1.048095
C58	C	-0.283437	-0.690880	0.423366
C59	C	0.049896	-0.357547	0.756699
C60	C	0.383230	-0.024213	1.090032
C61	C	-0.286276	-0.617373	0.420521
C62	C	0.047058	-0.284040	0.753855
C63	C	0.380391	0.049293	1.087188
C64	C	-0.330907	-0.580593	0.375743
C65	C	0.002426	-0.247260	0.709076
C66	C	0.335760	0.086074	1.042409
C67	C	-0.372697	-0.617324	0.333801
C68	C	-0.039364	-0.283990	0.667134
C69	C	0.293969	0.049343	1.000467
C70	C	-0.369855	-0.690829	0.336642
C71	C	-0.036521	-0.357496	0.669975
C72	C	0.296812	-0.024163	1.003308
C73	C	-0.344039	-0.360751	0.362593
C74	C	-0.010706	-0.027418	0.695926
C75	C	0.322628	0.305916	1.029260
C76	C	-0.346880	-0.287240	0.359757
C77	C	-0.013547	0.046093	0.693090
C78	C	0.319786	0.379427	1.026423
C79	C	-0.260457	-0.287295	0.446477
C80	C	0.072876	0.046039	0.779810
C81	C	0.406209	0.379372	1.113144
C82	C	-0.257622	-0.360802	0.449317
C83	C	0.075712	-0.027468	0.782651
C84	C	0.409045	0.305865	1.115984
C85	C	-0.299409	-0.397526	0.407372
C86	C	0.033924	-0.064193	0.740706
C87	C	0.367258	0.269140	1.074039
N88	N	-0.333811	-0.505457	0.372836
N89	N	-0.000478	-0.172124	0.706169
N90	N	0.332855	0.161210	1.039503
N91	N	-0.296501	-0.472661	0.410276
N92	N	0.036833	-0.139328	0.743609
N93	N	0.370166	0.194005	1.076943
C94	C	-0.498628	-0.980967	0.398572
C95	C	-0.165294	-0.647634	0.731905
C96	C	0.168039	-0.314301	1.065238
C97	C	-0.577110	-0.977721	0.401602
C98	C	-0.243776	-0.644388	0.734935
C99	C	0.089557	-0.311055	1.068269
C100	C	-0.610355	-1.023116	0.359802
C101	C	-0.277022	-0.689783	0.693136
C102	C	0.056312	-0.356450	1.026469
C103	C	-0.684097	-1.020067	0.362657
C104	C	-0.350764	-0.686734	0.695990
C105	C	-0.017430	-0.353401	1.029323
C106	C	-0.724593	-0.971619	0.407307
C107	C	-0.391260	-0.638286	0.740640
C108	C	-0.057926	-0.304953	1.073974
C109	C	-0.691343	-0.926222	0.449111
C110	C	-0.358009	-0.592889	0.782445
C111	C	-0.024676	-0.259556	1.115778
C112	C	-0.617602	-0.929275	0.446260
C113	C	-0.284268	-0.595942	0.779594
C114	C	0.049065	-0.262609	1.112927
C115	C	-0.945524	-0.957461	0.420472
C116	C	-0.612191	-0.624127	0.753806
C117	C	-0.278857	-0.290794	1.087139
C118	C	-1.019270	-0.954410	0.423319
C119	C	-0.685937	-0.621076	0.756652
C120	C	-0.352603	-0.287743	1.089985
C121	C	-1.012019	-1.048256	0.336865
C122	C	-0.678686	-0.714923	0.670198
C123	C	-0.345353	-0.381589	1.003531
C124	C	-0.938277	-1.051302	0.334015
C125	C	-0.604944	-0.717968	0.667348
C126	C	-0.271610	-0.384635	1.000681
C127	C	-0.905033	-1.005907	0.375821
C128	C	-0.571700	-0.672574	0.709155
C129	C	-0.238367	-0.339241	1.042488
N130	N	-0.799970	-0.968500	0.410224
N131	N	-0.466636	-0.635167	0.743557
N132	N	-0.133303	-0.301834	1.076891
N133	N	-0.829658	-1.009030	0.372908
N134	N	-0.496325	-0.675697	0.706241
N135	N	-0.162991	-0.342364	1.039574
C136	C	-0.130999	-0.996487	0.384516
C137	C	0.202335	-0.663154	0.717850
C138	C	0.535668	-0.329821	1.051183
C139	C	-0.052515	-0.999805	0.381519
C140	C	0.280818	-0.666471	0.714853
C141	C	0.614152	-0.333138	1.048186
C142	C	-0.322808	-0.981054	0.575122
C143	C	0.010525	-0.647721	0.908456
C144	C	0.343858	-0.314388	1.241789
C145	C	-0.326063	-0.977795	0.653350
C146	C	0.007271	-0.644462	0.986683
C147	C	0.340604	-0.311128	1.320017
C148	C	-0.308111	-0.172283	0.398673
C149	C	0.025222	0.161051	0.732007
C150	C	0.358556	0.494384	1.065340
C151	C	-0.305092	-0.250515	0.401694
C152	C	0.028242	0.082819	0.735028
C153	C	0.361575	0.416152	1.068361
C154	C	-0.307512	-0.996364	0.208691
C155	C	0.025822	-0.663031	0.542024
C156	C	0.359155	-0.329698	0.875358
C157	C	-0.304053	-0.999769	0.130461
C158	C	0.029280	-0.666435	0.463795
C159	C	0.362613	-0.333102	0.797128
C160	C	-0.280707	-1.023181	0.690126
C161	C	0.052627	-0.689848	1.023459
C162	C	0.385960	-0.356515	1.356793
C163	C	-0.283762	-1.020110	0.763629
C164	C	0.049571	-0.686777	1.096962
C165	C	0.382904	-0.353444	1.430296
C166	C	-0.332177	-0.971656	0.800354
C167	C	0.001156	-0.638323	1.133688
C168	C	0.334489	-0.304989	1.467021
C169	C	-0.377535	-0.926265	0.763573
C170	C	-0.044202	-0.592931	1.096906
C171	C	0.289131	-0.259598	1.430240
C172	C	-0.374476	-0.929333	0.690071
C173	C	-0.041143	-0.596000	1.023405
C174	C	0.292191	-0.262666	1.356738
C175	C	-0.346352	-0.957446	1.020178
C176	C	-0.013018	-0.624112	1.353512
C177	C	0.320315	-0.290779	1.686845
C178	C	-0.349409	-0.954382	1.093685
C179	C	-0.016076	-0.621049	1.427019
C180	C	0.317258	-0.287716	1.760352
C181	C	-0.255635	-1.048227	1.093736
C182	C	0.077699	-0.714894	1.427069
C183	C	0.411032	-0.381561	1.760403
C184	C	-0.252583	-1.051294	1.020233
C185	C	0.080751	-0.717961	1.353566
C186	C	0.414084	-0.384627	1.686900
C187	C	-0.297938	-1.005900	0.983458
C188	C	0.035396	-0.672567	1.316791
C189	C	0.368729	-0.339234	1.650124
N190	N	-0.335303	-0.968517	0.875486
N191	N	-0.001970	-0.635184	1.208820
N192	N	0.331363	-0.301851	1.542153
N193	N	-0.294808	-1.009036	0.908327
N194	N	0.038525	-0.675703	1.241660
N195	N	0.371859	-0.342370	1.574994
H196	H	-0.409034	-0.587371	0.297337
H197	H	-0.075700	-0.254038	0.630671
H198	H	0.257633	0.079295	0.964004
H199	H	-0.383228	-0.257295	0.323292
H200	H	-0.049895	0.076038	0.656626
H201	H	0.283439	0.409371	0.989959
H202	H	-0.905307	-1.090752	0.297657
H203	H	-0.571973	-0.757418	0.630990
H204	H	-0.238640	-0.424085	0.964323
H205	H	-0.213160	-1.090752	0.990336
H206	H	0.120174	-0.757419	1.323670
H207	H	0.453507	-0.424086	1.657003
H208	H	-0.378066	-0.390643	0.328439
H209	H	-0.044733	-0.057310	0.661773
H210	H	0.288600	0.276023	0.995106
C211	C	-1.048585	-1.098190	0.290885
C212	C	-0.715252	-0.764857	0.624218
C213	C	-0.381919	-0.431524	0.957551
H214	H	-1.013906	-1.127478	0.263881
H215	H	-0.680573	-0.794144	0.597215
H216	H	-0.347239	-0.460811	0.930548
H217	H	-1.077257	-1.126523	0.320131
H218	H	-0.743923	-0.793190	0.653465
H219	H	-0.410590	-0.459856	0.986798
H220	H	-1.077145	-1.071374	0.260262
H221	H	-0.743811	-0.738041	0.593595
H222	H	-0.410478	-0.404708	0.926928
H223	H	-0.918463	-0.920497	0.454512
H224	H	-0.585130	-0.587164	0.787845
H225	H	-0.251796	-0.253831	1.121178
H226	H	-0.403883	-0.720730	0.302491
H227	H	-0.070550	-0.387397	0.635824
H228	H	0.262784	-0.054064	0.969158
H229	H	-0.711162	-1.057032	0.328619
H230	H	-0.377828	-0.723699	0.661952
H231	H	-0.044495	-0.390366	0.995285
H232	H	-0.577388	-1.062565	0.323440
H233	H	-0.244054	-0.729232	0.656773
H234	H	0.089279	-0.395898	0.990107
C235	C	-1.063814	-0.901120	0.472442
C236	C	-0.730481	-0.567787	0.805776
C237	C	-0.397148	-0.234454	1.139109
H238	H	-1.033455	-0.874527	0.496939
H239	H	-0.700122	-0.541194	0.830272
H240	H	-0.366788	-0.207860	1.163605
H241	H	-1.092678	-0.870404	0.445422
H242	H	-0.759344	-0.537070	0.778755
H243	H	-0.426011	-0.203737	1.112089
H244	H	-1.092785	-0.925562	0.505282
H245	H	-0.759451	-0.592229	0.838616
H246	H	-0.426118	-0.258895	1.171949
H247	H	-0.724320	-0.886778	0.485470
H248	H	-0.390987	-0.553445	0.818803
H249	H	-0.057654	-0.220111	1.152136
H250	H	-0.590535	-0.892311	0.480299
H251	H	-0.257201	-0.558977	0.813632
H252	H	0.076132	-0.225644	1.146965
H253	H	-0.241284	-1.062640	0.660230
H254	H	0.092050	-0.729307	0.993563
H255	H	0.425383	-0.395974	1.326896
C256	C	-0.233874	-1.070039	0.804080
C257	C	0.099459	-0.736705	1.137413
C258	C	0.432793	-0.403372	1.470747
H259	H	-0.204608	-1.099342	0.771681
H260	H	0.128725	-0.766008	1.105014
H261	H	0.462058	-0.432675	1.438348
H262	H	-0.205333	-1.043223	0.830531
H263	H	0.128000	-0.709889	1.163864
H264	H	0.461334	-0.376556	1.497198
H265	H	-0.260906	-1.098367	0.834977
H266	H	0.072427	-0.765033	1.168310
H267	H	0.405761	-0.431700	1.501644
C268	C	-0.205744	-1.098150	1.134189
C269	C	0.127590	-0.764817	1.467523
C270	C	0.460923	-0.431484	1.800856
H271	H	-0.214494	-1.089382	1.183224
H272	H	0.118840	-0.756048	1.516557
H273	H	0.452173	-0.422715	1.849891
H274	H	-0.213756	-1.145506	1.124378
H275	H	0.119577	-0.812173	1.457711
H276	H	0.452911	-0.478839	1.791044
H277	H	-0.158194	-1.090351	1.119930
H278	H	0.175139	-0.757018	1.453263
H279	H	0.508473	-0.423684	1.786597
C280	C	-0.208520	-0.401256	0.498567
C281	C	0.124813	-0.067922	0.831900
C282	C	0.458146	0.265411	1.165234
H283	H	-0.184033	-0.368855	0.523132
H284	H	0.149301	-0.035522	0.856465
H285	H	0.482634	0.297811	1.189798
H286	H	-0.235739	-0.427525	0.531333
H287	H	0.097594	-0.094192	0.864666
H288	H	0.430927	0.239141	1.198000
H289	H	-0.175485	-0.432338	0.471614
H290	H	0.157849	-0.099004	0.804948
H291	H	0.491182	0.234329	1.138281
H292	H	-0.252248	-0.587474	0.454673
H293	H	0.081085	-0.254141	0.788006
H294	H	0.414418	0.079192	1.121340
C295	C	-0.402666	-0.901078	1.134082
C296	C	-0.069333	-0.567745	1.467415
C297	C	0.264000	-0.234412	1.800749
H298	H	-0.429236	-0.874479	1.101653
H299	H	-0.095903	-0.541145	1.434987
H300	H	0.237430	-0.207812	1.768320
H301	H	-0.433591	-0.925505	1.164976
H302	H	-0.100258	-0.592172	1.498309
H303	H	0.233075	-0.258838	1.831642
H304	H	-0.378021	-0.870359	1.160532
H305	H	-0.044687	-0.537025	1.493865
H306	H	0.288646	-0.203692	1.827199
H307	H	-0.383293	-0.920493	0.990245
H308	H	-0.049960	-0.587159	1.323579
H309	H	0.283374	-0.253826	1.656912
C310	C	-0.430792	-0.872965	0.803966
C311	C	-0.097459	-0.539632	1.137299
C312	C	0.235875	-0.206298	1.470633
H313	H	-0.457362	-0.846370	0.771534
H314	H	-0.124029	-0.513036	1.104867
H315	H	0.209305	-0.179703	1.438200
H316	H	-0.461717	-0.897391	0.834860
H317	H	-0.128384	-0.564057	1.168194
H318	H	0.204950	-0.230724	1.501527
H319	H	-0.406150	-0.842241	0.830414
H320	H	-0.072816	-0.508908	1.163748
H321	H	0.260517	-0.175574	1.497081
C322	C	-0.234342	-0.731332	0.472623
C323	C	0.098991	-0.397999	0.805956
C324	C	0.432325	-0.064666	1.139289
H325	H	-0.209856	-0.698930	0.497186
H326	H	0.123477	-0.365596	0.830520
H327	H	0.456810	-0.032263	1.163853
H328	H	-0.261563	-0.757600	0.505389
H329	H	0.071770	-0.424266	0.838722
H330	H	0.405104	-0.090933	1.172056
H331	H	-0.201305	-0.762416	0.445674
H332	H	0.132029	-0.429083	0.779007
H333	H	0.465362	-0.095749	1.112341
C334	C	-0.214489	-0.246897	0.492605
C335	C	0.118844	0.086436	0.825939
C336	C	0.452178	0.419770	1.159272
H337	H	-0.222568	-0.197852	0.484498
H338	H	0.110766	0.135481	0.817831
H339	H	0.444099	0.468814	1.151164
H340	H	-0.226393	-0.256545	0.540741
H341	H	0.106940	0.076789	0.874074
H342	H	0.440274	0.410122	1.207408
H343	H	-0.166138	-0.261366	0.481023
H344	H	0.167196	0.071968	0.814357
H345	H	0.500529	0.405301	1.147690
C346	C	-0.424384	-0.879425	0.649619
C347	C	-0.091051	-0.546091	0.982952
C348	C	0.242283	-0.212758	1.316286
H349	H	-0.453666	-0.850136	0.682018
H350	H	-0.120332	-0.516803	1.015351
H351	H	0.213001	-0.183470	1.348684
H352	H	-0.397373	-0.851092	0.618714
H353	H	-0.064040	-0.517759	0.952047
H354	H	0.269294	-0.184425	1.285380
H355	H	-0.452919	-0.906263	0.623177
H356	H	-0.119585	-0.572930	0.956510
H357	H	0.213748	-0.239596	1.289844
