data_functionalizedCrystal
_audit_creation_method	'MofGen! by Chris Wilmer'
_symmetry_space_group_name_H-M	'P1'
_symmetry_Int_Tables_number	1
_symmetry_cell_setting	triclinic
loop_
_symmetry_equiv_pos_as_xyz
  x,y,z
_cell_length_a	19.121102
_cell_length_b	19.121063
_cell_length_c	19.121504
_cell_angle_alpha	94.868905
_cell_angle_beta	85.146587
_cell_angle_gamma	90.126902
loop_
_atom_site_label
_atom_site_type_symbol
_atom_site_fract_x
_atom_site_fract_y
_atom_site_fract_z
Zn1	Zn	1.079009	-0.344575	-0.457756
Zn2	Zn	1.069182	-0.456954	-0.344679
Zn3	Zn	0.956620	-0.334299	-0.334672
Zn4	Zn	0.956714	-0.456745	-0.457284
O5	O	1.015381	-0.398143	-0.398597
O6	O	1.175994	-0.363870	-0.447141
O7	O	1.050098	-0.436471	-0.244714
O8	O	0.976928	-0.237387	-0.347009
O9	O	1.168774	-0.446434	-0.364064
O10	O	1.066847	-0.244937	-0.437438
O11	O	0.967399	-0.346357	-0.237362
O12	O	0.858344	-0.346154	-0.346551
O13	O	0.977089	-0.446078	-0.555983
O14	O	0.858413	-0.436114	-0.436634
O15	O	1.066938	-0.363667	-0.556330
O16	O	1.050190	-0.555201	-0.363606
O17	O	0.967560	-0.555047	-0.446337
C18	C	0.832893	-0.389997	-0.390456
C19	C	0.754824	-0.386530	-0.386990
C20	C	0.718195	-0.431803	-0.432195
C21	C	0.644842	-0.428536	-0.428942
C22	C	0.608117	-0.379998	-0.380480
C23	C	0.644751	-0.334720	-0.335273
C24	C	0.718104	-0.337984	-0.338530
C25	C	0.386637	-0.367793	-0.368305
C26	C	0.313279	-0.364534	-0.365050
C27	C	0.313375	-0.458349	-0.458720
C28	C	0.386729	-0.461611	-0.461970
C29	C	0.423357	-0.416331	-0.416766
C30	C	0.533138	-0.376659	-0.377151
C31	C	0.498335	-0.419667	-0.420098
C32	C	1.007839	-0.580607	-0.406023
C33	C	1.004677	-0.658670	-0.409226
C34	C	1.046249	-0.695404	-0.367696
C35	C	1.043280	-0.768753	-0.370713
C36	C	0.998735	-0.805366	-0.415256
C37	C	0.957161	-0.768627	-0.456790
C38	C	0.960134	-0.695280	-0.453777
C39	C	0.987607	-1.026824	-0.426511
C40	C	0.984636	-1.100176	-0.429520
C41	C	1.070756	-1.100297	-0.343443
C42	C	1.073722	-1.026948	-0.340430
C43	C	1.032151	-0.990216	-0.381967
C44	C	0.995698	-0.880340	-0.418339
C45	C	1.035193	-0.915243	-0.378887
C46	C	1.198582	-0.406322	-0.406771
C47	C	1.276651	-0.409807	-0.410255
C48	C	1.023120	-0.405996	-0.582447
C49	C	1.026418	-0.409342	-0.660793
C50	C	1.022973	-0.214968	-0.391160
C51	C	1.026208	-0.136910	-0.387990
C52	C	1.007715	-0.390272	-0.215463
C53	C	1.004561	-0.386734	-0.137116
C54	C	1.046471	-0.431674	-0.104101
C55	C	1.043497	-0.428354	-0.030485
C56	C	0.998617	-0.380090	0.010115
C57	C	0.956703	-0.335148	-0.022904
C58	C	0.959673	-0.338472	-0.096519
C59	C	0.987474	-0.367724	0.232573
C60	C	0.984508	-0.364402	0.306193
C61	C	1.071302	-0.457609	0.298607
C62	C	1.074271	-0.460926	0.224991
C63	C	1.032355	-0.415987	0.191978
C64	C	0.995578	-0.376693	0.085362
C65	C	1.035390	-0.419388	0.116732
H66	H	0.416625	-0.501137	-0.501432
Cl67	Cl	0.907872	-0.649100	-0.505990
H68	H	0.283381	-0.325001	-0.325590
Cl69	Cl	0.934746	-0.311259	0.191081
H70	H	0.614844	-0.295197	-0.295817
Cl71	Cl	1.129735	-0.980926	-0.284441
H72	H	1.104602	-1.130212	-0.309627
H73	H	1.110817	-0.500228	0.191939
Cl74	Cl	0.267325	-0.515270	-0.515544
Cl75	Cl	0.901165	-0.814655	-0.512792
H76	H	1.071465	-0.885431	-0.342623
Cl77	Cl	0.544504	-0.480683	-0.481020
H78	H	1.077132	-0.798658	-0.336894
H79	H	0.925547	-0.301877	-0.123398
H80	H	0.416450	-0.330927	-0.331491
H81	H	0.747926	-0.301115	-0.301723
H82	H	0.503229	-0.337141	-0.337692
H83	H	1.082520	-0.665598	-0.331421
H84	H	0.959038	-0.337396	0.118427
H85	H	0.947963	-0.325095	0.339248
Cl86	Cl	0.928622	-1.146202	-0.485512
H87	H	0.953757	-0.996922	-0.460331
H88	H	0.920158	-0.295854	0.010158
Cl89	Cl	0.939699	-0.926374	-0.474334
Cl90	Cl	1.102898	-0.492348	-0.155135
Cl91	Cl	1.096187	-0.484851	0.011015
Cl92	Cl	1.123992	-0.514102	0.340113
Cl93	Cl	1.091806	-0.480063	0.065691
Cl94	Cl	0.764356	-0.492828	-0.493119
Cl95	Cl	0.598798	-0.485454	-0.485774
