data_functionalizedCrystal
_audit_creation_method	'MofGen! by Chris Wilmer'
_symmetry_space_group_name_H-M	'P1'
_symmetry_Int_Tables_number	1
_symmetry_cell_setting	triclinic
loop_
_symmetry_equiv_pos_as_xyz
  x,y,z
_cell_length_a	12.759401
_cell_length_b	16.959454
_cell_length_c	16.959447
_cell_angle_alpha	89.973264
_cell_angle_beta	89.987743
_cell_angle_gamma	90.020236
loop_
_atom_site_label
_atom_site_type_symbol
_atom_site_fract_x
_atom_site_fract_y
_atom_site_fract_z
Zn1	Zn	1.606151	-0.314663	-0.446885
Zn2	Zn	1.606048	-0.446855	-0.314715
Zn3	Zn	1.430473	-0.314695	-0.314727
Zn4	Zn	1.430426	-0.446803	-0.446858
O5	O	1.518275	-0.380754	-0.380796
O6	O	1.753159	-0.332206	-0.429358
O7	O	1.582734	-0.429359	-0.204105
O8	O	1.453839	-0.204080	-0.332275
O9	O	1.753083	-0.429328	-0.332253
O10	O	1.582910	-0.204056	-0.429370
O11	O	1.453740	-0.332261	-0.204115
O12	O	1.283445	-0.332211	-0.332249
O13	O	1.453759	-0.429239	-0.557472
O14	O	1.283411	-0.429271	-0.429324
O15	O	1.582864	-0.332156	-0.557492
O16	O	1.582689	-0.557459	-0.332227
O17	O	1.453660	-0.557421	-0.429312
C18	C	1.245307	-0.380739	-0.380785
C19	C	1.128531	-0.380752	-0.380800
C20	C	1.073678	-0.431372	-0.431263
C21	C	0.963954	-0.431382	-0.431272
C22	C	0.963945	-0.330150	-0.330346
C23	C	1.073667	-0.330137	-0.330342
C24	C	1.073683	-0.489820	-0.489530
C25	C	0.963958	-0.489830	-0.489538
C26	C	1.518186	-0.586120	-0.380783
C27	C	1.518245	-0.673977	-0.380803
C28	C	1.451186	-1.045463	-0.431343
C29	C	1.585655	-1.045442	-0.330330
C30	C	1.585619	-0.962896	-0.330323
C31	C	1.518364	-0.921630	-0.380825
C32	C	1.451145	-0.962909	-0.431336
C33	C	1.652828	-0.921611	-0.279808
C34	C	1.652793	-0.839060	-0.279798
C35	C	1.585543	-0.797792	-0.330305
C36	C	1.518323	-0.839076	-0.380818
C37	C	1.451068	-0.797810	-0.431321
C38	C	1.383852	-0.839093	-0.481838
C39	C	1.383895	-0.921641	-0.481843
C40	C	1.585500	-0.715243	-0.330300
C41	C	1.451027	-0.715256	-0.431314
C42	C	1.792308	-0.380769	-0.380807
C43	C	1.909084	-0.380776	-0.380812
C44	C	1.518318	-0.380689	-0.586964
C45	C	1.518337	-0.380661	-0.674821
C46	C	1.518391	-0.174586	-0.380827
C47	C	1.518441	-0.086729	-0.380840
C48	C	1.451243	-0.431124	-1.046289
C49	C	1.585682	-0.330031	-1.046305
C50	C	1.585654	-0.330047	-0.963759
C51	C	1.518421	-0.380604	-0.922474
C52	C	1.451215	-0.431144	-0.963735
C53	C	1.652865	-0.279514	-0.922491
C54	C	1.652840	-0.279529	-0.839940
C55	C	1.585601	-0.330083	-0.798654
C56	C	1.518393	-0.380624	-0.839921
C57	C	1.451160	-0.431181	-0.798636
C58	C	1.383945	-0.481719	-0.839901
C59	C	1.383976	-0.481697	-0.922449
C60	C	1.585570	-0.330104	-0.716106
C61	C	1.451132	-0.431201	-0.716082
C62	C	1.518291	-0.380762	-0.175430
C63	C	1.518476	-0.380567	-0.087574
H64	H	1.396263	-0.681662	-0.472442
Br65	Br	1.148107	-0.261418	-0.261871
Br66	Br	1.744020	-0.783040	-0.211246
H67	H	1.396372	-0.472364	-0.682474
Br68	Br	0.907272	-0.453415	-0.586529
Br69	Br	1.130379	-0.586717	-0.452891
Br70	Br	1.123364	-0.462621	-0.591607
Br71	Br	1.292769	-0.550281	-0.978456
Br72	Br	1.292573	-0.783078	-0.550369
Br73	Br	1.292682	-0.977672	-0.550396
Br74	Br	0.914278	-0.591825	-0.462011
Br75	Br	1.359977	-1.101485	-0.499905
H76	H	1.329208	-0.522885	-0.806276
H77	H	1.707576	-0.955216	-0.238685
Br78	Br	1.676698	-0.659220	-0.261736
Br79	Br	1.676924	-1.101447	-0.261792
H80	H	1.640425	-0.288874	-1.079924
Br81	Br	0.889480	-0.261459	-0.261874
H82	H	1.396516	-0.472269	-1.079891
Br83	Br	1.744115	-0.210914	-0.978523
Br84	Br	1.744056	-0.210942	-0.783945
H85	H	1.640298	-0.288959	-0.682512
