data_functionalizedCrystal
_audit_creation_method	'MofGen! by Chris Wilmer'
_symmetry_space_group_name_H-M	'P1'
_symmetry_Int_Tables_number	1
_symmetry_cell_setting	triclinic
loop_
_symmetry_equiv_pos_as_xyz
  x,y,z
_cell_length_a	15.298530
_cell_length_b	13.032831
_cell_length_c	13.033255
_cell_angle_alpha	76.666554
_cell_angle_beta	91.339298
_cell_angle_gamma	88.690182
loop_
_atom_site_label
_atom_site_type_symbol
_atom_site_fract_x
_atom_site_fract_y
_atom_site_fract_z
Zn1	Zn	0.603830	1.561599	-0.667851
Zn2	Zn	0.726573	1.510781	-0.462075
Zn3	Zn	0.562054	1.371009	-0.477333
Zn4	Zn	0.726496	1.355810	-0.617134
O5	O	0.654738	1.449800	-0.556099
O6	O	0.637628	1.699476	-0.655394
O7	O	0.687298	1.477333	-0.319474
O8	O	0.447407	1.423919	-0.530217
O9	O	0.727806	1.662140	-0.504212
O10	O	0.478100	1.563944	-0.670189
O11	O	0.566426	1.374643	-0.330684
O12	O	0.566351	1.224375	-0.481038
O13	O	0.727675	1.398015	-0.768487
O14	O	0.687166	1.213208	-0.583750
O15	O	0.637553	1.549207	-0.805749
O16	O	0.846751	1.462596	-0.455033
O17	O	0.846694	1.348740	-0.568955
C18	C	0.622218	1.181293	-0.528547
C19	C	0.608329	1.066423	-0.516780
C20	C	0.430719	1.501296	-0.607562
C21	C	0.335255	1.523240	-0.629493
C22	C	0.661987	1.009684	-0.562240
C23	C	0.647633	0.890959	-0.550079
C24	C	0.002239	1.293488	-0.399801
C25	C	0.091931	1.272872	-0.379189
C26	C	0.152767	1.335462	-0.441763
C27	C	0.123901	1.418672	-0.524953
C28	C	0.034200	1.439295	-0.545562
C29	C	0.184728	1.481269	-0.587525
C30	C	0.155862	1.564480	-0.670714
C31	C	0.066170	1.585099	-0.691320
C32	C	0.005335	1.522509	-0.628746
C33	C	0.274429	1.460646	-0.566916
C34	C	0.306390	1.606453	-0.712677
C35	C	0.216698	1.627070	-0.733289
C36	C	0.877892	1.398534	-0.504860
C37	C	0.973373	1.376701	-0.482985
C38	C	0.687265	1.477584	-0.825666
C39	C	0.701126	1.489425	-0.940540
C40	C	0.687386	1.719354	-0.583758
C41	C	0.701298	1.834222	-0.595545
C42	C	0.661826	1.456138	-1.116035
C43	C	0.647497	1.443893	-0.997306
C44	C	0.622283	1.422197	-0.287600
C45	C	0.608204	1.410612	-0.172803
H46	H	0.718548	1.049004	-0.610167
Cl47	Cl	0.180398	1.731672	-0.837868
H48	H	-0.047297	1.242539	-0.348855
Cl49	Cl	-0.107427	1.548219	-0.654859
H50	H	0.042669	1.652861	-0.759050
H51	H	0.355923	1.657421	-0.763628
Cl52	Cl	0.788394	1.563599	-1.001193
H53	H	0.590978	1.395844	-0.958013
Cl54	Cl	0.520947	1.336430	-1.112139
H55	H	0.551763	1.027105	-0.468862
Cl56	Cl	0.560292	0.830269	-0.476090
H57	H	0.757862	0.873537	-0.643479
Cl58	Cl	0.310706	1.356041	-0.462339
H59	H	0.225797	1.318671	-0.424976
H60	H	0.115427	1.205123	-0.311454
Cl61	Cl	0.749091	1.530305	-1.176694
