data_functionalizedCrystal
_audit_creation_method	'MofGen! by Chris Wilmer'
_symmetry_space_group_name_H-M	'P1'
_symmetry_Int_Tables_number	1
_symmetry_cell_setting	triclinic
loop_
_symmetry_equiv_pos_as_xyz
  x,y,z
_cell_length_a	15.021413
_cell_length_b	15.944551
_cell_length_c	15.944551
_cell_angle_alpha	83.498738
_cell_angle_beta	90.003065
_cell_angle_gamma	89.997174
loop_
_atom_site_label
_atom_site_type_symbol
_atom_site_fract_x
_atom_site_fract_y
_atom_site_fract_z
O1	O	0.073941	-1.114529	-0.108321
O2	O	0.073964	-0.869979	-0.121677
O3	O	0.073944	-0.998932	0.007276
O4	O	0.073961	-0.985576	-0.237274
O5	O	-0.074121	-0.998912	0.007257
O6	O	-0.074101	-0.869959	-0.121695
O7	O	-0.074123	-1.114508	-0.108339
Zn8	Zn	-0.097620	-0.992230	-0.115020
Zn9	Zn	0.097461	-0.992257	-0.114996
O10	O	-0.074103	-0.985555	-0.237292
C11	C	-0.000066	-0.838675	-0.121132
C12	C	-0.000057	-0.745429	-0.119470
C13	C	-0.000089	-0.998367	0.038561
C14	C	-0.000089	-0.996705	0.131807
N15	N	-0.230758	-0.992218	-0.115036
C16	C	-0.470432	-0.932581	-0.174636
C17	C	-0.529772	-1.008481	-0.190943
C18	C	-0.412365	-0.992239	-0.115015
C19	C	-0.529766	-0.916360	-0.098727
C20	C	-0.587789	-0.992253	-0.114997
C21	C	-0.470398	-1.068178	-0.131360
C22	C	-0.470387	-0.976006	-0.039111
C23	C	-0.529701	-1.051962	-0.055386
C24	C	-0.311307	-0.992230	-0.115028
C25	C	-0.688844	-0.992271	-0.114984
N26	N	0.230598	-0.992276	-0.114973
C27	C	-0.000092	-1.145813	-0.108885
C28	C	-0.000094	-1.239059	-0.110547
C29	C	-0.000081	-0.530572	-0.035565
C30	C	0.072926	-0.469562	-0.074518
C31	C	-0.000068	-0.574703	-0.116462
C32	C	-0.073054	-0.469564	-0.074556
C33	C	-0.000083	-0.409790	-0.113551
C34	C	0.072998	-0.514921	-0.155438
C35	C	-0.073047	-0.514930	-0.155464
C36	C	-0.000023	-0.453937	-0.194476
C37	C	-0.000059	-0.669705	-0.118137
C38	C	-0.000085	-0.314789	-0.111883
C39	C	-0.000069	-0.986120	-0.268577
C40	C	-0.000063	-0.987782	-0.361823
C41	C	-0.000069	-0.912801	0.346663
C42	C	-0.073077	-0.951753	0.407672
C43	C	-0.000082	-0.993698	0.302533
C44	C	0.072903	-0.951792	0.407673
C45	C	-0.000071	-0.990787	0.467445
C46	C	-0.073150	-1.032672	0.362313
C47	C	0.072895	-1.032700	0.362308
C48	C	-0.000131	-1.071711	0.423298
C49	C	-0.000089	-0.995372	0.207530
C50	C	-0.000070	-0.989119	0.562446
H51	H	-0.444409	-0.882181	-0.225096
O52	O	0.146604	-0.910981	0.431506
C53	C	0.197841	-0.883212	0.359604
H54	H	0.181636	-0.923329	0.306788
H55	H	0.181718	-0.814284	0.337958
C56	C	0.317382	-0.842523	0.446518
C57	C	0.297484	-0.891801	0.381650
H58	H	0.378846	-0.847818	0.460116
H59	H	0.282862	-0.861229	0.494960
H60	H	0.303939	-0.785088	0.428471
H61	H	0.310916	-0.949236	0.399702
H62	H	0.332009	-0.873106	0.333212
O63	O	-0.560857	-1.024735	-0.267568
C64	C	-0.530648	-0.961697	-0.330259
H65	H	-0.513996	-0.902100	-0.300138
H66	H	-0.468557	-0.984943	-0.361643
C67	C	-0.624470	-1.015138	-0.434032
C68	C	-0.604025	-0.941938	-0.397036
H69	H	-0.669730	-1.002952	-0.475225
H70	H	-0.644820	-1.057611	-0.391797
H71	H	-0.572722	-1.034503	-0.460178
H72	H	-0.655769	-0.922580	-0.370882
H73	H	-0.583685	-0.899461	-0.439269
H74	H	-0.555847	-0.852184	-0.084959
O75	O	-0.560600	-1.112106	0.004867
C76	C	-0.612262	-1.073703	0.063722
H77	H	-0.592204	-1.004608	0.062347
H78	H	-0.685731	-1.077857	0.046738
C79	C	-0.621181	-1.204345	0.154499
C80	C	-0.596540	-1.119482	0.152816
H81	H	-0.611486	-1.232584	0.209456
H82	H	-0.586378	-1.230219	0.114846
H83	H	-0.682403	-1.207794	0.140342
H84	H	-0.535316	-1.116033	0.166962
H85	H	-0.631332	-1.093608	0.192473
H86	H	-0.444283	-0.962240	0.025051
H87	H	-0.134767	-0.535052	-0.189659
O88	O	0.000157	-0.570282	0.044551
C89	C	0.077263	-0.547295	0.086906
H90	H	0.130794	-0.525302	0.038693
H91	H	0.060603	-0.493910	0.126167
C92	C	0.045934	-0.651020	0.204481
C93	C	0.111685	-0.624015	0.145265
H94	H	0.067166	-0.698342	0.240483
H95	H	-0.006015	-0.666505	0.175948
H96	H	0.032057	-0.606526	0.237190
H97	H	0.125552	-0.668505	0.112551
H98	H	0.163637	-0.608539	0.173794
H99	H	0.134642	-0.449461	-0.040295
H100	H	-0.444430	-1.132368	-0.145206
O101	O	0.146455	-1.073505	0.338153
C102	C	0.144990	-1.075142	0.249937
H103	H	0.073545	-1.067616	0.226158
H104	H	0.187378	-1.021229	0.218378
C105	C	0.270393	-1.169165	0.257530
C106	C	0.182641	-1.159930	0.228326
H107	H	0.293621	-1.221464	0.244197
H108	H	0.271382	-1.168061	0.316963
H109	H	0.305705	-1.124233	0.231228
H110	H	0.147329	-1.204856	0.254635
H111	H	0.181647	-1.161044	0.168896
O112	O	0.146689	-0.538917	-0.196158
C113	C	0.145813	-0.627215	-0.197219
H114	H	0.102545	-0.657407	-0.143304
H115	H	0.117593	-0.642965	-0.259939
C116	C	0.294569	-0.624522	-0.252701
C117	C	0.241432	-0.661606	-0.186478
H118	H	0.353551	-0.645737	-0.246080
H119	H	0.295158	-0.565034	-0.251990
H120	H	0.271042	-0.637651	-0.304962
H121	H	0.264953	-0.648468	-0.134220
H122	H	0.240849	-0.721092	-0.187180
O123	O	0.000184	-0.414410	-0.274665
C124	C	0.077248	-0.437549	-0.316986
H125	H	0.130800	-0.459458	-0.268757
H126	H	0.060531	-0.491035	-0.356098
C127	C	0.045896	-0.334066	-0.434768
C128	C	0.111672	-0.360970	-0.375532
H129	H	0.067129	-0.286831	-0.470885
H130	H	-0.006025	-0.318479	-0.406257
H131	H	0.031971	-0.378646	-0.467352
H132	H	0.125588	-0.316394	-0.342942
H133	H	0.163597	-0.376548	-0.404039
H134	H	-0.134773	-0.449470	-0.040332
H135	H	-0.000136	-0.845652	0.313356
O136	O	-0.146638	-0.910792	0.431601
C137	C	-0.146385	-0.827049	0.392181
H138	H	-0.075341	-0.807564	0.373943
H139	H	-0.189650	-0.822642	0.333099
C140	C	-0.270890	-0.791776	0.475967
C141	C	-0.183632	-0.767842	0.453574
H142	H	-0.293869	-0.755254	0.513835
H143	H	-0.271064	-0.848196	0.502524
H144	H	-0.306934	-0.788103	0.426726
H145	H	-0.147588	-0.771525	0.502813
H146	H	-0.183453	-0.711421	0.427027
H147	H	-0.134941	-1.066851	0.342314
H148	H	-0.000178	-1.138919	0.456457
