data_functionalizedCrystal
_audit_creation_method	'MofGen! by Chris Wilmer'
_symmetry_space_group_name_H-M	'P1'
_symmetry_Int_Tables_number	1
_symmetry_cell_setting	triclinic
loop_
_symmetry_equiv_pos_as_xyz
  x,y,z
_cell_length_a	13.897449
_cell_length_b	13.897447
_cell_length_c	18.215399
_cell_angle_alpha	90.025056
_cell_angle_beta	90.021193
_cell_angle_gamma	90.020357
loop_
_atom_site_label
_atom_site_type_symbol
_atom_site_fract_x
_atom_site_fract_y
_atom_site_fract_z
Zn1	Zn	1.474669	-0.384003	0.416157
Zn2	Zn	1.808003	-0.050670	0.749491
Zn3	Zn	2.141336	0.282663	1.082824
Zn4	Zn	1.474564	-0.545313	0.293097
Zn5	Zn	1.807898	-0.211980	0.626431
Zn6	Zn	2.141231	0.121354	0.959764
Zn7	Zn	1.313365	-0.384036	0.293102
Zn8	Zn	1.646698	-0.050703	0.626435
Zn9	Zn	1.980031	0.282631	0.959769
Zn10	Zn	1.313335	-0.545261	0.416119
Zn11	Zn	1.646668	-0.211927	0.749453
Zn12	Zn	1.980002	0.121406	1.082786
O13	O	1.393983	-0.464653	0.354619
O14	O	1.727317	-0.131320	0.687952
O15	O	2.060650	0.202013	1.021286
O16	O	1.609637	-0.405410	0.399847
O17	O	1.942970	-0.072077	0.733181
O18	O	2.276304	0.261257	1.066514
O19	O	1.453149	-0.523955	0.190114
O20	O	1.786483	-0.190622	0.523447
O21	O	2.119816	0.142712	0.856780
O22	O	1.334818	-0.249050	0.309443
O23	O	1.668152	0.084283	0.642777
O24	O	2.001485	0.417617	0.976110
O25	O	1.609560	-0.523923	0.309436
O26	O	1.942893	-0.190590	0.642769
O27	O	2.276227	0.142743	0.976102
O28	O	1.453328	-0.249026	0.399852
O29	O	1.786662	0.084307	0.733185
O30	O	2.119995	0.417640	1.066518
O31	O	1.334717	-0.405466	0.190117
O32	O	1.668050	-0.072132	0.523450
O33	O	2.001383	0.261201	0.856784
O34	O	1.178379	-0.405415	0.309406
O35	O	1.511712	-0.072081	0.642740
O36	O	1.845046	0.261252	0.976073
O37	O	1.334768	-0.523834	0.519109
O38	O	1.668101	-0.190500	0.852442
O39	O	2.001435	0.142833	1.185775
O40	O	1.178357	-0.523865	0.399787
O41	O	1.511691	-0.190532	0.733120
O42	O	1.845024	0.142801	1.066453
O43	O	1.453300	-0.405359	0.519137
O44	O	1.786633	-0.072026	0.852470
O45	O	2.119966	0.261308	1.185803
O46	O	1.453121	-0.680288	0.309399
O47	O	1.786454	-0.346954	0.642732
O48	O	2.119787	-0.013621	0.976065
O49	O	1.334666	-0.680249	0.399782
O50	O	1.667999	-0.346916	0.733116
O51	O	2.001333	-0.013582	1.066449
C52	C	1.143369	-0.464638	0.354593
C53	C	1.476702	-0.131305	0.687927
C54	C	1.810036	0.202028	1.021260
C55	C	1.036155	-0.464655	0.354600
C56	C	1.369488	-0.131322	0.687933
C57	C	1.702822	0.202011	1.021266
C58	C	0.949085	-0.464659	0.354612
C59	C	1.282419	-0.131325	0.687945
C60	C	1.615752	0.202008	1.021279
C61	C	0.839853	-0.464665	0.354634
C62	C	1.173186	-0.131332	0.687968
C63	C	1.506520	0.202001	1.021301
C64	C	1.393905	-0.715268	0.354602
C65	C	1.727238	-0.381934	0.687935
C66	C	2.060572	-0.048601	1.021269
C67	C	1.393960	-0.822482	0.354619
C68	C	1.727293	-0.489148	0.687953
C69	C	2.060626	-0.155815	1.021286
C70	C	1.394006	-0.909551	0.354636
C71	C	1.727340	-0.576218	0.687969
C72	C	2.060673	-0.242885	1.021303
C73	C	1.394074	-1.018784	0.354655
C74	C	1.727407	-0.685450	0.687988
C75	C	2.060741	-0.352117	1.021322
C76	C	1.645576	-0.464669	0.354645
C77	C	1.978910	-0.131336	0.687978
C78	C	2.312243	0.201998	1.021312
C79	C	1.752790	-0.464676	0.354656
C80	C	2.086124	-0.131342	0.687990
C81	C	2.419457	0.201991	1.021323
C82	C	1.394042	-0.464587	0.546572
C83	C	1.727375	-0.131254	0.879905
C84	C	2.060709	0.202080	1.213239
C85	C	1.394067	-0.464558	0.628371
C86	C	1.727401	-0.131225	0.961704
C87	C	2.060734	0.202108	1.295038
C88	C	1.394088	-0.213060	0.354652
C89	C	1.727422	0.120273	0.687986
C90	C	2.060755	0.453606	1.021319
C91	C	1.394133	-0.105846	0.354666
C92	C	1.727466	0.227487	0.688000
C93	C	2.060800	0.560820	1.021333
C94	C	1.393980	-0.464650	0.163413
C95	C	1.727314	-0.131317	0.496746
C96	C	2.060647	0.202017	0.830079
C97	C	1.394142	-0.464407	0.081614
C98	C	1.727476	-0.131073	0.414948
C99	C	2.060809	0.202260	0.748281
C100	C	1.455809	-0.402811	0.816581
C101	C	1.789142	-0.069478	1.149914
C102	C	2.122475	0.263856	1.483247
C103	C	1.455820	-0.402783	0.893439
C104	C	1.789154	-0.069449	1.226773
C105	C	2.122487	0.263884	1.560106
C106	C	1.332394	-0.526157	0.893399
C107	C	1.665727	-0.192824	1.226732
C108	C	1.999060	0.140510	1.560066
C109	C	1.332378	-0.526179	0.816542
C110	C	1.665711	-0.192846	1.149875
C111	C	1.999045	0.140487	1.483208
C112	C	1.394091	-0.464508	0.778134
C113	C	1.727424	-0.131175	1.111468
C114	C	2.060758	0.202159	1.444801
C115	C	1.394118	-0.464457	0.931851
C116	C	1.727452	-0.131124	1.265184
C117	C	2.060785	0.202209	1.598517
C118	C	1.394130	-0.464427	1.015184
C119	C	1.727464	-0.131094	1.348518
C120	C	2.060797	0.202239	1.681851
C121	C	1.394078	-0.464536	0.694795
C122	C	1.727411	-0.131203	1.028129
C123	C	2.060745	0.202130	1.361462
H124	H	1.506057	-0.352591	0.785312
H125	H	1.839390	-0.019258	1.118645
H126	H	2.172723	0.314075	1.451978
F127	F	1.521515	-0.337123	0.934353
F128	F	1.854848	-0.003789	1.267687
F129	F	2.188182	0.329544	1.601020
H130	H	1.282113	-0.576420	0.785238
H131	H	1.615447	-0.243086	1.118571
H132	H	1.948780	0.090247	1.451905
H133	H	1.282151	-0.576370	0.924680
H134	H	1.615485	-0.243036	1.258013
H135	H	1.948818	0.090297	1.591346
