data_functionalizedCrystal
_audit_creation_method	'MofGen! by Chris Wilmer'
_symmetry_space_group_name_H-M	'P1'
_symmetry_Int_Tables_number	1
_symmetry_cell_setting	triclinic
loop_
_symmetry_equiv_pos_as_xyz
  x,y,z
_cell_length_a	18.215407
_cell_length_b	16.959453
_cell_length_c	18.215399
_cell_angle_alpha	90.028056
_cell_angle_beta	90.019833
_cell_angle_gamma	90.025269
loop_
_atom_site_label
_atom_site_type_symbol
_atom_site_fract_x
_atom_site_fract_y
_atom_site_fract_z
Zn1	Zn	1.125072	-0.314680	0.416115
Zn2	Zn	1.124981	-0.446866	0.293049
Zn3	Zn	1.002005	-0.314706	0.293063
Zn4	Zn	1.001971	-0.446822	0.416074
O5	O	1.063507	-0.380768	0.354575
O6	O	1.228044	-0.332222	0.399802
O7	O	1.108644	-0.429364	0.190066
O8	O	1.018383	-0.204092	0.309409
O9	O	1.227977	-0.429339	0.309385
O10	O	1.108800	-0.204073	0.399815
O11	O	1.018294	-0.332267	0.190077
O12	O	0.899016	-0.332224	0.309369
O13	O	1.018325	-0.429264	0.519064
O14	O	0.898991	-0.429289	0.399744
O15	O	1.108767	-0.332180	0.519094
O16	O	1.108611	-0.557471	0.309345
O17	O	1.018236	-0.557438	0.399731
C18	C	0.872301	-0.380755	0.354554
C19	C	0.790502	-0.380768	0.354562
C20	C	0.602314	-0.431389	0.401562
C21	C	0.525456	-0.431392	0.401571
C22	C	0.525452	-0.330162	0.307604
C23	C	0.602309	-0.330156	0.307599
C24	C	0.640739	-0.380774	0.354577
C25	C	0.487022	-0.380783	0.354591
C26	C	0.403689	-0.380785	0.354601
C27	C	0.724078	-0.380771	0.354569
C28	C	1.063430	-0.586135	0.354548
C29	C	1.063464	-0.673991	0.354561
C30	C	1.016387	-0.715277	0.401588
C31	C	1.110578	-0.715259	0.307551
C32	C	1.110614	-0.797804	0.307564
C33	C	1.063537	-0.839091	0.354591
C34	C	1.016423	-0.797831	0.401604
C35	C	1.157732	-0.839070	0.260557
C36	C	1.157771	-0.921621	0.260569
C37	C	1.110690	-0.962909	0.307593
C38	C	1.063574	-0.921644	0.354607
C39	C	1.016496	-0.962930	0.401634
C40	C	0.969376	-0.921667	0.448645
C41	C	0.969342	-0.839119	0.448627
C42	C	1.110724	-1.045457	0.307610
C43	C	1.016533	-1.045484	0.401650
C44	C	1.255460	-0.380783	0.354597
C45	C	1.337259	-0.380789	0.354606
C46	C	1.063552	-0.380714	0.546528
C47	C	1.063571	-0.380691	0.628327
C48	C	1.063605	-0.174600	0.354618
C49	C	1.063647	-0.086744	0.354637
C50	C	1.063505	-0.380766	0.163369
C51	C	1.063628	-0.380566	0.081570
C52	C	1.110681	-0.330092	0.816538
C53	C	1.110690	-0.330069	0.893397
C54	C	1.016513	-0.431167	0.893354
C55	C	1.016501	-0.431186	0.816497
C56	C	1.063589	-0.380649	0.778091
C57	C	1.063610	-0.380608	0.931807
C58	C	1.063619	-0.380583	1.015141
C59	C	1.063579	-0.380673	0.694752
H60	H	0.978197	-1.079093	0.439945
C61	C	0.483190	-0.487072	0.453254
C62	C	0.493722	-0.576920	0.447097
C63	C	0.451457	-0.632602	0.498783
C64	C	0.398659	-0.598436	0.556626
C65	C	0.388125	-0.508583	0.562785
C66	C	0.430390	-0.452901	0.511099
H67	H	0.532808	-0.602216	0.404277
H68	H	0.459255	-0.699117	0.494224
H69	H	0.367372	-0.639655	0.594887
H70	H	0.349039	-0.483286	0.605606
H71	H	0.422592	-0.386385	0.515658
C72	C	1.162493	-0.274456	0.935689
C73	C	1.214284	-0.218869	0.893441
C74	C	1.266088	-0.163252	0.935733
C75	C	1.266101	-0.163222	1.020273
C76	C	1.214308	-0.218811	1.062526
C77	C	1.162504	-0.274428	1.020234
H78	H	1.214276	-0.218889	0.830855
H79	H	1.304429	-0.122101	0.904455
H80	H	1.304450	-0.122051	1.051581
H81	H	1.214316	-0.218791	1.125112
H82	H	1.124164	-0.315579	1.051513
H83	H	0.978177	-0.472314	0.924633
C84	C	0.964694	-0.486803	0.774201
C85	C	0.881038	-0.480345	0.784758
C86	C	0.829230	-0.535957	0.742465
C87	C	0.861079	-0.598026	0.689614
C88	C	0.944740	-0.604487	0.679055
C89	C	0.996547	-0.548875	0.721348
H90	H	0.857457	-0.434395	0.823884
H91	H	0.767298	-0.531174	0.750282
H92	H	0.822728	-0.639193	0.658306
H93	H	0.968320	-0.650437	0.639929
H94	H	1.058479	-0.553658	0.713531
H95	H	0.633595	-0.288934	0.269339
H96	H	1.149093	-1.079050	0.269339
C97	C	1.162471	-0.274497	0.774290
C98	C	1.156501	-0.184637	0.784878
C99	C	1.208290	-0.129039	0.742633
C100	C	1.266048	-0.163301	0.689800
C101	C	1.272020	-0.253165	0.679209
C102	C	1.220231	-0.308763	0.721455
H103	H	1.113743	-0.159271	0.823991
H104	H	1.203869	-0.062515	0.750473
H105	H	1.304386	-0.122143	0.658527
H106	H	1.314778	-0.278532	0.640097
H107	H	1.224652	-0.375287	0.713615
H108	H	0.633601	-0.472604	0.439816
C109	C	0.483178	-0.274491	0.255925
C110	C	0.398638	-0.274498	0.255924
C111	C	0.356366	-0.218827	0.204240
C112	C	0.398634	-0.163150	0.152559
C113	C	0.483179	-0.163141	0.152558
C114	C	0.525451	-0.218811	0.204241
H115	H	0.367344	-0.315715	0.294183
H116	H	0.293780	-0.218834	0.204241
H117	H	0.367342	-0.121940	0.114300
H118	H	0.514472	-0.121923	0.114298
H119	H	0.588037	-0.218804	0.204240
H120	H	0.931049	-0.955293	0.486937
H121	H	0.930979	-0.805517	0.486903
C122	C	1.162363	-0.669844	0.255829
C123	C	1.130489	-0.613162	0.198013
C124	C	1.182277	-0.567742	0.146290
C125	C	1.265940	-0.579004	0.152383
C126	C	1.297819	-0.635689	0.210202
C127	C	1.246030	-0.681109	0.261925
H128	H	1.068553	-0.604822	0.193500
H129	H	1.158678	-0.525780	0.103488
H130	H	1.304277	-0.545382	0.114095
H131	H	1.359755	-0.644028	0.214715
H132	H	1.269630	-0.723070	0.304727
C133	C	0.964556	-0.669892	0.453297
C134	C	0.880904	-0.681334	0.447207
C135	C	0.829072	-0.635947	0.498916
C136	C	0.860892	-0.579119	0.556715
C137	C	0.944549	-0.567674	0.562808
C138	C	0.996380	-0.613061	0.511099
H139	H	0.857345	-0.723404	0.404418
H140	H	0.767144	-0.644420	0.494405
H141	H	0.822524	-0.545521	0.594993
H142	H	0.968108	-0.525604	0.605596
H143	H	1.058308	-0.604588	0.515609
C144	C	1.209519	-0.793651	0.208840
C145	C	1.177645	-0.736973	0.151019
C146	C	1.229435	-0.691547	0.099302
C147	C	1.313098	-0.702800	0.105405
C148	C	1.344976	-0.759480	0.163228
C149	C	1.293186	-0.804906	0.214945
H150	H	1.115709	-0.728641	0.146499
H151	H	1.205836	-0.649589	0.056498
H152	H	1.351436	-0.669173	0.067121
H153	H	1.406912	-0.767812	0.167748
H154	H	1.316785	-0.846865	0.257749
C155	C	1.209599	-0.967005	0.208855
C156	C	1.203642	-0.955718	0.125186
C157	C	1.255469	-1.001102	0.073470
C158	C	1.313253	-1.057773	0.105424
C159	C	1.319212	-1.069062	0.189097
C160	C	1.267385	-1.023678	0.240813
H161	H	1.160865	-0.913765	0.101528
H162	H	1.251057	-0.992745	0.011529
H163	H	1.351618	-1.091369	0.067141
H164	H	1.361989	-1.111015	0.212755
H165	H	1.271797	-1.032035	0.302754
