data_functionalizedCrystal
_audit_creation_method	'MofGen! by Chris Wilmer'
_symmetry_space_group_name_H-M	'P1'
_symmetry_Int_Tables_number	1
_symmetry_cell_setting	triclinic
loop_
_symmetry_equiv_pos_as_xyz
  x,y,z
_cell_length_a	12.759401
_cell_length_b	12.645330
_cell_length_c	12.759393
_cell_angle_alpha	89.967817
_cell_angle_beta	89.981504
_cell_angle_gamma	90.012807
loop_
_atom_site_label
_atom_site_type_symbol
_atom_site_fract_x
_atom_site_fract_y
_atom_site_fract_z
Zn1	Zn	1.606270	-0.421972	-0.593977
Zn2	Zn	1.606171	-0.599276	-0.418295
Zn3	Zn	1.430572	-0.422028	-0.418316
Zn4	Zn	1.430567	-0.599195	-0.593937
O5	O	1.518395	-0.510618	-0.506131
O6	O	1.753278	-0.445503	-0.570680
O7	O	1.582838	-0.575821	-0.271277
O8	O	1.453923	-0.273673	-0.441644
O9	O	1.753205	-0.575767	-0.441608
O10	O	1.583007	-0.273632	-0.570701
O11	O	1.453826	-0.445598	-0.271292
O12	O	1.283551	-0.445518	-0.441605
O13	O	1.453914	-0.575628	-0.740963
O14	O	1.283547	-0.575682	-0.570632
O15	O	1.583002	-0.445424	-0.740993
O16	O	1.582833	-0.747613	-0.441569
O17	O	1.453818	-0.747553	-0.570612
C18	C	1.245428	-0.510598	-0.506117
C19	C	1.128651	-0.510615	-0.506136
C20	C	1.073815	-0.578500	-0.573209
C21	C	0.964091	-0.578514	-0.573221
C22	C	0.964049	-0.442755	-0.439076
C23	C	1.073771	-0.442737	-0.439071
C24	C	1.128695	-0.646379	-0.640274
C25	C	1.073858	-0.714270	-0.707352
C26	C	0.964134	-0.714284	-0.707364
C27	C	0.909247	-0.646406	-0.640297
C28	C	1.518343	-0.786047	-0.506106
C29	C	1.518416	-0.903877	-0.506131
C30	C	1.599449	-1.071435	-0.424785
C31	C	1.599713	-0.948875	-0.424984
C32	C	1.548444	-0.948249	-0.616875
C33	C	1.549087	-1.070848	-0.616443
C34	C	1.407324	-1.071208	-0.477824
C35	C	1.407856	-0.948604	-0.475340
C36	C	1.792428	-0.510638	-0.506146
C37	C	1.909205	-0.510647	-0.506152
C38	C	1.518469	-0.510511	-0.780165
C39	C	1.518500	-0.510465	-0.896941
C40	C	1.518477	-0.234112	-0.506179
C41	C	1.518511	-0.116282	-0.506200
C42	C	1.585726	-0.442661	-0.951821
C43	C	1.585751	-0.442623	-1.061545
C44	C	1.451322	-0.578202	-1.061501
C45	C	1.451292	-0.578234	-0.951779
C46	C	1.652934	-0.374893	-0.896983
C47	C	1.720166	-0.307084	-0.951862
C48	C	1.720191	-0.307046	-1.061587
C49	C	1.652984	-0.374816	-1.116432
C50	C	1.518382	-0.510648	-0.233164
C51	C	1.518555	-0.510395	-0.116388
H52	H	1.580926	-0.918879	-0.342869
H53	H	1.580897	-1.100995	-0.342430
H54	H	1.630360	-1.099358	-0.640480
H55	H	1.652997	-0.374767	-1.205776
H56	H	1.774876	-0.251901	-0.907201
H57	H	1.118420	-0.387451	-0.384461
H58	H	1.491287	-0.919098	-0.679160
H59	H	1.681361	-1.102163	-0.443343
H60	H	1.344298	-0.917984	-0.530291
H61	H	1.492718	-1.100509	-0.679193
H62	H	1.628799	-0.917459	-0.641312
H63	H	1.380017	-1.102224	-0.398476
H64	H	1.396605	-0.633376	-1.106164
H65	H	1.396535	-0.633429	-0.907095
H66	H	1.218038	-0.646378	-0.640271
H67	H	0.919351	-0.387493	-0.384473
H68	H	0.819902	-0.646413	-0.640321
H69	H	1.118555	-0.769527	-0.761962
H70	H	0.919489	-0.769556	-0.761989
H71	H	1.385215	-0.919614	-0.393842
H72	H	1.652923	-0.374918	-0.807640
H73	H	1.682066	-0.919465	-0.443752
H74	H	1.347018	-1.100210	-0.537121
H75	H	1.774926	-0.251825	-1.106266
