data_functionalizedCrystal
_audit_creation_method	'MofGen! by Chris Wilmer'
_symmetry_space_group_name_H-M	'P1'
_symmetry_Int_Tables_number	1
_symmetry_cell_setting	triclinic
loop_
_symmetry_equiv_pos_as_xyz
  x,y,z
_cell_length_a	14.519731
_cell_length_b	14.519709
_cell_length_c	16.776229
_cell_angle_alpha	89.992406
_cell_angle_beta	89.992771
_cell_angle_gamma	83.684499
loop_
_atom_site_label
_atom_site_type_symbol
_atom_site_fract_x
_atom_site_fract_y
_atom_site_fract_z
O1	O	1.223859	0.120987	-0.066292
O2	O	1.557192	0.454320	0.267042
O3	O	1.890525	0.787654	0.600375
O4	O	0.955384	0.135203	-0.066293
O5	O	1.288718	0.468536	0.267040
O6	O	1.622051	0.801870	0.600374
O7	O	1.096740	-0.006143	-0.066285
O8	O	1.430073	0.327190	0.267048
O9	O	1.763406	0.660524	0.600382
O10	O	1.082503	0.262333	-0.066300
O11	O	1.415837	0.595666	0.267034
O12	O	1.749170	0.929000	0.600367
O13	O	1.096721	-0.006152	0.066291
O14	O	1.430054	0.327182	0.399625
O15	O	1.763388	0.660515	0.732958
O16	O	0.955366	0.135194	0.066283
O17	O	1.288699	0.468528	0.399617
O18	O	1.622032	0.801861	0.732950
O19	O	1.223840	0.120978	0.066285
O20	O	1.557173	0.454312	0.399618
O21	O	1.890507	0.787645	0.732952
Zn22	Zn	1.089600	0.128085	0.087333
Zn23	Zn	1.422933	0.461418	0.420667
Zn24	Zn	1.756266	0.794751	0.754000
Zn25	Zn	1.089625	0.128096	-0.087342
Zn26	Zn	1.422958	0.461430	0.245992
Zn27	Zn	1.756291	0.794763	0.579325
O28	O	1.082485	0.262324	0.066277
O29	O	1.415818	0.595657	0.399610
O30	O	1.749151	0.928991	0.732944
C31	C	0.921016	0.134532	-0.000005
C32	C	1.254349	0.467866	0.333328
C33	C	1.587682	0.801199	0.666662
C34	C	0.818635	0.132536	-0.000005
C35	C	1.151969	0.465870	0.333328
C36	C	1.485302	0.799203	0.666661
C37	C	0.735491	0.130915	-0.000008
C38	C	1.068825	0.464248	0.333325
C39	C	1.402158	0.797581	0.666658
C40	C	0.631182	0.128888	-0.000009
C41	C	0.964516	0.462221	0.333325
C42	C	1.297849	0.795555	0.666658
C43	C	0.548043	0.127280	-0.000008
C44	C	0.881377	0.460613	0.333325
C45	C	1.214710	0.793946	0.666658
C46	C	0.443728	0.125253	-0.000010
C47	C	0.777061	0.458586	0.333323
C48	C	1.110395	0.791920	0.666657
C49	C	1.096067	-0.040507	0.000003
C50	C	1.429400	0.292826	0.333337
C51	C	1.762734	0.626160	0.666670
C52	C	1.094079	-0.142889	0.000004
C53	C	1.427412	0.190445	0.333337
C54	C	1.760745	0.523778	0.666670
C55	C	1.086759	-0.517785	-0.000017
C56	C	1.420093	-0.184452	0.333316
C57	C	1.753426	0.148882	0.666650
C58	C	1.088792	-0.413477	-0.000011
C59	C	1.422125	-0.080143	0.333322
C60	C	1.755459	0.253190	0.666656
C61	C	1.090419	-0.330340	-0.000006
C62	C	1.423752	0.002993	0.333327
C63	C	1.757085	0.336327	0.666661
C64	C	1.092452	-0.226025	-0.000001
C65	C	1.425785	0.107308	0.333332
C66	C	1.759118	0.440641	0.666665
C67	C	1.258209	0.121649	-0.000005
C68	C	1.591542	0.454982	0.333328
C69	C	1.924875	0.788315	0.666662
C70	C	1.360589	0.123645	-0.000010
C71	C	1.693922	0.456978	0.333323
C72	C	2.027256	0.790311	0.666657
C73	C	1.083157	0.296688	-0.000013
C74	C	1.416491	0.630022	0.333320
C75	C	1.749824	0.963355	0.666653
C76	C	1.085146	0.399070	-0.000019
C77	C	1.418479	0.732403	0.333314
C78	C	1.751812	1.065736	0.666648
N79	N	1.089590	0.128076	0.206545
N80	N	1.422923	0.461410	0.539878
N81	N	1.756256	0.794743	0.873211
N82	N	1.089642	0.128097	-0.206553
N83	N	1.422975	0.461431	0.126780
N84	N	1.756309	0.794764	0.460114
C85	C	1.152201	0.065514	0.248265
C86	C	1.485534	0.398848	0.581599
C87	C	1.818868	0.732181	0.914932
C88	C	1.152206	0.065513	0.331718
C89	C	1.485539	0.398847	0.665051
C90	C	1.818873	0.732180	0.998384
C91	C	1.089604	0.128080	0.373448
C92	C	1.422937	0.461413	0.706781
C93	C	1.756270	0.794747	1.040114
C94	C	1.026986	0.190645	0.331721
C95	C	1.360319	0.523979	0.665055
C96	C	1.693652	0.857312	0.998388
C97	C	1.026977	0.190641	0.248271
C98	C	1.360310	0.523974	0.581604
C99	C	1.693643	0.857307	0.914937
C100	C	1.027019	0.190663	0.668268
C101	C	1.360352	0.523997	1.001602
C102	C	1.693686	0.857330	1.334935
C103	C	1.027034	0.190665	0.751725
C104	C	1.360368	0.523998	1.085058
C105	C	1.693701	0.857331	1.418392
C106	C	1.152248	0.065536	0.751715
C107	C	1.485582	0.398869	1.085049
C108	C	1.818915	0.732203	1.418382
C109	C	1.152239	0.065532	0.668265
C110	C	1.485573	0.398865	1.001598
C111	C	1.818906	0.732198	1.334931
C112	C	1.089619	0.128093	0.626546
C113	C	1.422952	0.461426	0.959879
C114	C	1.756285	0.794760	1.293212
C115	C	1.089613	0.128092	0.536057
C116	C	1.422946	0.461425	0.869391
C117	C	1.756279	0.794759	1.202724
C118	C	1.089613	0.128086	0.463934
C119	C	1.422947	0.461420	0.797268
C120	C	1.756280	0.794753	1.130601
H121	H	1.203183	0.014569	0.214294
H122	H	1.536516	0.347903	0.547627
H123	H	1.869849	0.681236	0.880961
C124	C	1.221105	-0.003298	0.622366
C125	C	1.554438	0.330035	0.955700
C126	C	1.887771	0.663368	1.289033
N127	N	1.272972	-0.055146	0.587797
N128	N	1.606306	0.278187	0.921130
N129	N	1.939639	0.611521	1.254463
C130	C	1.221061	-0.003332	0.377606
C131	C	1.554395	0.330001	0.710940
C132	C	1.887728	0.663335	1.044273
N133	N	1.272918	-0.055198	0.412169
N134	N	1.606251	0.278135	0.745503
N135	N	1.939584	0.611468	1.078836
H136	H	1.203235	0.014592	0.785692
H137	H	1.536568	0.347925	1.119025
H138	H	1.869902	0.681259	1.452359
H139	H	0.976052	0.241616	0.785700
H140	H	1.309386	0.574949	1.119034
H141	H	1.642719	0.908283	1.452367
H142	H	0.976033	0.241605	0.634307
H143	H	1.309366	0.574938	0.967641
H144	H	1.642699	0.908271	1.300974
C145	C	0.958113	0.259461	0.377627
C146	C	1.291447	0.592794	0.710961
C147	C	1.624780	0.926127	1.044294
N148	N	0.906237	0.311294	0.412203
N149	N	1.239570	0.644627	0.745536
N150	N	1.572904	0.977960	1.078870
H151	H	0.975991	0.241584	0.214302
H152	H	1.309324	0.574917	0.547636
H153	H	1.642658	0.908251	0.880969
