data_functionalizedCrystal
_audit_creation_method	'MofGen! by Chris Wilmer'
_symmetry_space_group_name_H-M	'P1'
_symmetry_Int_Tables_number	1
_symmetry_cell_setting	triclinic
loop_
_symmetry_equiv_pos_as_xyz
  x,y,z
_cell_length_a	18.101398
_cell_length_b	18.101395
_cell_length_c	18.101390
_cell_angle_alpha	89.968664
_cell_angle_beta	89.985301
_cell_angle_gamma	90.029256
loop_
_atom_site_label
_atom_site_type_symbol
_atom_site_fract_x
_atom_site_fract_y
_atom_site_fract_z
Zn1	Zn	1.132124	-0.294838	-0.418650
Zn2	Zn	1.382124	-0.044838	-0.168650
Zn3	Zn	1.632124	0.205162	0.081350
Zn4	Zn	1.882124	0.455162	0.331350
Zn5	Zn	1.132019	-0.418695	-0.294812
Zn6	Zn	1.382019	-0.168695	-0.044812
Zn7	Zn	1.632019	0.081305	0.205188
Zn8	Zn	1.882019	0.331305	0.455188
Zn9	Zn	1.008282	-0.294868	-0.294832
Zn10	Zn	1.258282	-0.044868	-0.044832
Zn11	Zn	1.508282	0.205132	0.205168
Zn12	Zn	1.758282	0.455132	0.455168
Zn13	Zn	1.008233	-0.418638	-0.418622
Zn14	Zn	1.258233	-0.168638	-0.168622
Zn15	Zn	1.508233	0.081362	0.081378
Zn16	Zn	1.758233	0.331362	0.331378
O17	O	1.070164	-0.356760	-0.356729
O18	O	1.320164	-0.106760	-0.106729
O19	O	1.570164	0.143240	0.143271
O20	O	1.820164	0.393240	0.393271
O21	O	1.235743	-0.311279	-0.402225
O22	O	1.485743	-0.061279	-0.152225
O23	O	1.735743	0.188721	0.097775
O24	O	1.985743	0.438721	0.347775
O25	O	1.115581	-0.402305	-0.191181
O26	O	1.365581	-0.152305	0.058819
O27	O	1.615581	0.097695	0.308819
O28	O	1.865581	0.347695	0.558819
O29	O	1.024774	-0.191231	-0.311277
O30	O	1.274774	0.058769	-0.061277
O31	O	1.524774	0.308769	0.188723
O32	O	1.774774	0.558769	0.438723
O33	O	1.235665	-0.402276	-0.311242
O34	O	1.485665	-0.152276	-0.061242
O35	O	1.735665	0.097724	0.188758
O36	O	1.985665	0.347724	0.438758
O37	O	1.115760	-0.191209	-0.402245
O38	O	1.365760	0.058791	-0.152245
O39	O	1.615760	0.308791	0.097755
O40	O	1.865760	0.558791	0.347755
O41	O	1.024672	-0.311330	-0.191197
O42	O	1.274672	-0.061330	0.058803
O43	O	1.524672	0.188670	0.308803
O44	O	1.774672	0.438670	0.558803
O45	O	0.904642	-0.311275	-0.311250
O46	O	1.154642	-0.061275	-0.061250
O47	O	1.404642	0.188725	0.188750
O48	O	1.654642	0.438725	0.438750
O49	O	1.024691	-0.402179	-0.522258
O50	O	1.274691	-0.152179	-0.272258
O51	O	1.524691	0.097821	-0.022258
O52	O	1.774691	0.347821	0.227742
O53	O	0.904607	-0.402208	-0.402198
O54	O	1.154607	-0.152208	-0.152198
O55	O	1.404607	0.097792	0.097802
O56	O	1.654607	0.347792	0.347802
O57	O	1.115713	-0.311224	-0.522279
O58	O	1.365713	-0.061224	-0.272279
O59	O	1.615713	0.188776	-0.022279
O60	O	1.865713	0.438776	0.227721
O61	O	1.115534	-0.522320	-0.311215
O62	O	1.365534	-0.272320	-0.061215
O63	O	1.615534	-0.022320	0.188785
O64	O	1.865534	0.227680	0.438785
O65	O	1.024589	-0.522279	-0.402178
O66	O	1.274589	-0.272279	-0.152178
O67	O	1.524589	-0.022279	0.097822
O68	O	1.774589	0.227721	0.347822
C69	C	0.877754	-0.356739	-0.356724
C70	C	1.127754	-0.106739	-0.106724
C71	C	1.377754	0.143261	0.143276
C72	C	1.627754	0.393261	0.393276
C73	C	0.795440	-0.356748	-0.356739
C74	C	1.045440	-0.106748	-0.106739
C75	C	1.295440	0.143252	0.143261
C76	C	1.545440	0.393252	0.393261
C77	C	1.070065	-0.549170	-0.356707
C78	C	1.320065	-0.299170	-0.106707
C79	C	1.570065	-0.049170	0.143293
C80	C	1.820065	0.200830	0.393293
C81	C	1.070091	-0.631484	-0.356722
C82	C	1.320091	-0.381484	-0.106722
C83	C	1.570091	-0.131484	0.143278
C84	C	1.820091	0.118516	0.393278
C85	C	0.644731	-0.356762	-0.356738
C86	C	0.894731	-0.106762	-0.106738
C87	C	1.144731	0.143238	0.143262
C88	C	1.394731	0.393238	0.393262
C89	C	0.613380	-0.414063	-0.413871
C90	C	0.863380	-0.164063	-0.163871
C91	C	1.113380	0.085937	0.086129
C92	C	1.363380	0.335937	0.336129
C93	C	0.527761	-0.414295	-0.413702
C94	C	0.777761	-0.164295	-0.163702
C95	C	1.027761	0.085705	0.086298
C96	C	1.277761	0.335705	0.336298
C97	C	0.496349	-0.356776	-0.356738
C98	C	0.746349	-0.106776	-0.106738
C99	C	0.996349	0.143224	0.143262
C100	C	1.246349	0.393224	0.393262
C101	C	0.527401	-0.377609	-0.278597
C102	C	0.777401	-0.127609	-0.028597
C103	C	1.027401	0.122391	0.221403
C104	C	1.277401	0.372391	0.471403
C105	C	0.613046	-0.378017	-0.278927
C106	C	0.863046	-0.128017	-0.028927
C107	C	1.113046	0.121983	0.221073
C108	C	1.363046	0.371983	0.471073
C109	C	0.613210	-0.278486	-0.377064
C110	C	0.863210	-0.028486	-0.127064
C111	C	1.113210	0.221514	0.122936
C112	C	1.363210	0.471514	0.372936
C113	C	0.527560	-0.278915	-0.378785
C114	C	0.777560	-0.028915	-0.128785
C115	C	1.027560	0.221085	0.121215
C116	C	1.277560	0.471085	0.371215
C117	C	0.412489	-0.356782	-0.356733
C118	C	0.662489	-0.106782	-0.106733
C119	C	0.912489	0.143218	0.143267
C120	C	1.162489	0.393218	0.393267
C121	C	0.728591	-0.356758	-0.356737
C122	C	0.978591	-0.106758	-0.106737
C123	C	1.228591	0.143242	0.143263
C124	C	1.478591	0.393242	0.393263
C125	C	1.070253	-0.930575	-0.356762
C126	C	1.320253	-0.680575	-0.106762
C127	C	1.570253	-0.430575	0.143238
C128	C	1.820253	-0.180575	0.393238
C129	C	1.013166	-0.899255	-0.414136
C130	C	1.263166	-0.649255	-0.164136
C131	C	1.513166	-0.399255	0.085864
C132	C	1.763166	-0.149255	0.335864
C133	C	1.012895	-0.813637	-0.413956
C134	C	1.262895	-0.563637	-0.163956
C135	C	1.512895	-0.313637	0.086044
C136	C	1.762895	-0.063637	0.336044
C137	C	1.070172	-0.782193	-0.356743
C138	C	1.320172	-0.532193	-0.106743
C139	C	1.570172	-0.282193	0.143257
C140	C	1.820172	-0.032193	0.393257
C141	C	1.049043	-0.813349	-0.278695
C142	C	1.299043	-0.563349	-0.028695
C143	C	1.549043	-0.313349	0.221305
C144	C	1.799043	-0.063349	0.471305
C145	C	1.048675	-0.898994	-0.279039
C146	C	1.298675	-0.648994	-0.029039
C147	C	1.548675	-0.398994	0.220961
C148	C	1.798675	-0.148994	0.470961
C149	C	1.148595	-0.898920	-0.376750
C150	C	1.398595	-0.648920	-0.126750
C151	C	1.648595	-0.398920	0.123250
C152	C	1.898595	-0.148920	0.373250
C153	C	1.148134	-0.813269	-0.378461
C154	C	1.398134	-0.563269	-0.128461
C155	C	1.648134	-0.313269	0.121539
C156	C	1.898134	-0.063269	0.371539
C157	C	1.070128	-0.698333	-0.356728
C158	C	1.320128	-0.448333	-0.106728
C159	C	1.570128	-0.198333	0.143272
C160	C	1.820128	0.051667	0.393272
C161	C	1.070296	-1.014435	-0.356773
C162	C	1.320296	-0.764435	-0.106773
C163	C	1.570296	-0.514435	0.143227
C164	C	1.820296	-0.264435	0.393227
C165	C	1.263326	-0.356781	-0.356734
C166	C	1.513326	-0.106781	-0.106734
C167	C	1.763326	0.143219	0.143266
C168	C	2.013326	0.393219	0.393266
C169	C	1.345640	-0.356790	-0.356737
C170	C	1.595640	-0.106790	-0.106737
C171	C	1.845640	0.143210	0.143263
C172	C	2.095640	0.393210	0.393263
C173	C	1.070208	-0.356692	-0.549891
C174	C	1.320208	-0.106692	-0.299891
C175	C	1.570208	0.143308	-0.049891
C176	C	1.820208	0.393308	0.200109
C177	C	1.070227	-0.356663	-0.632205
C178	C	1.320227	-0.106663	-0.382205
C179	C	1.570227	0.143337	-0.132205
C180	C	1.820227	0.393337	0.117795
C181	C	1.070284	-0.163598	-0.356767
C182	C	1.320284	0.086402	-0.106767
C183	C	1.570284	0.336402	0.143233
C184	C	1.820284	0.586402	0.393233
C185	C	1.070335	-0.081284	-0.356783
C186	C	1.320335	0.168716	-0.106783
C187	C	1.570335	0.418716	0.143217
C188	C	1.820335	0.668716	0.393217
C189	C	1.070267	-0.356617	-0.931296
C190	C	1.320267	-0.106617	-0.681296
C191	C	1.570267	0.143383	-0.431296
C192	C	1.820267	0.393383	-0.181296
C193	C	1.127724	-0.299592	-0.899984
C194	C	1.377724	-0.049592	-0.649984
C195	C	1.627724	0.200408	-0.399984
C196	C	1.877724	0.450408	-0.149984
C197	C	1.127545	-0.299380	-0.814365
C198	C	1.377545	-0.049380	-0.564365
C199	C	1.627545	0.200620	-0.314365
C200	C	1.877545	0.450620	-0.064365
C201	C	1.070248	-0.356640	-0.782913
C202	C	1.320248	-0.106640	-0.532913
C203	C	1.570248	0.143360	-0.282913
C204	C	1.820248	0.393360	-0.032913
C205	C	0.992231	-0.335434	-0.813993
C206	C	1.242231	-0.085434	-0.563993
C207	C	1.492231	0.164566	-0.313993
C208	C	1.742231	0.414566	-0.063993
C209	C	0.992575	-0.335007	-0.899638
C210	C	1.242575	-0.085007	-0.649638
C211	C	1.492575	0.164993	-0.399638
C212	C	1.742575	0.414993	-0.149638
C213	C	1.090140	-0.434995	-0.899709
C214	C	1.340140	-0.184995	-0.649709
C215	C	1.590140	0.065005	-0.399709
C216	C	1.840140	0.315005	-0.149709
C217	C	1.091852	-0.434595	-0.814059
C218	C	1.341852	-0.184595	-0.564059
C219	C	1.591852	0.065405	-0.314059
C220	C	1.841852	0.315405	-0.064059
C221	C	1.070232	-0.356654	-0.699054
C222	C	1.320232	-0.106654	-0.449054
C223	C	1.570232	0.143346	-0.199054
C224	C	1.820232	0.393346	0.050946
C225	C	1.070277	-0.356601	-1.015156
C226	C	1.320277	-0.106601	-0.765156
C227	C	1.570277	0.143399	-0.515156
C228	C	1.820277	0.393399	-0.265156
C229	C	1.070163	-0.356774	-0.164318
C230	C	1.320163	-0.106774	0.085682
C231	C	1.570163	0.143226	0.335682
C232	C	1.820163	0.393226	0.585682
C233	C	1.070288	-0.356594	-0.082005
C234	C	1.320288	-0.106594	0.167995
C235	C	1.570288	0.143406	0.417995
C236	C	1.820288	0.393406	0.667995
H237	H	0.506767	-0.401299	-0.471633
H238	H	0.756767	-0.151299	-0.221633
H239	H	1.006767	0.098701	0.028367
H240	H	1.256767	0.348701	0.278367
H241	H	0.955450	-0.920840	-0.401063
H242	H	1.205450	-0.670840	-0.151063
H243	H	1.455450	-0.420840	0.098937
H244	H	1.705450	-0.170840	0.348937
H245	H	0.505921	-0.434194	-0.261125
H246	H	0.755921	-0.184194	-0.011125
H247	H	1.005921	0.065806	0.238875
H248	H	1.255921	0.315806	0.488875
Cl249	Cl	0.645240	-0.394252	-0.503589
Cl250	Cl	0.895240	-0.144252	-0.253589
Cl251	Cl	1.145240	0.105748	-0.003589
Cl252	Cl	1.395240	0.355748	0.246411
H253	H	0.507239	-0.472302	-0.400217
H254	H	0.757239	-0.222302	-0.150217
H255	H	1.007239	0.027698	0.099783
H256	H	1.257239	0.277698	0.349783
H257	H	0.633487	-0.235798	-0.335455
H258	H	0.883487	0.014202	-0.085455
H259	H	1.133487	0.264202	0.164545
H260	H	1.383487	0.514202	0.414545
H261	H	1.146032	-0.454304	-0.921349
H262	H	1.396032	-0.204304	-0.671349
H263	H	1.646032	0.045696	-0.421349
H264	H	1.896032	0.295696	-0.171349
H265	H	0.634868	-0.471736	-0.400549
H266	H	0.884868	-0.221736	-0.150549
H267	H	1.134868	0.028264	0.099451
H268	H	1.384868	0.278264	0.349451
Cl269	Cl	0.923240	-0.782098	-0.393519
Cl270	Cl	1.173240	-0.532098	-0.143519
Cl271	Cl	1.423240	-0.282098	0.106481
Cl272	Cl	1.673240	-0.032098	0.356481
Cl273	Cl	0.960258	-0.929941	-0.252898
Cl274	Cl	1.210258	-0.679941	-0.002898
Cl275	Cl	1.460258	-0.429941	0.247102
Cl276	Cl	1.710258	-0.179941	0.497102
H277	H	1.089314	-0.792983	-0.234783
H278	H	1.339314	-0.542983	0.015217
H279	H	1.589314	-0.292983	0.265217
H280	H	1.839314	-0.042983	0.515217
H281	H	1.088451	-0.919716	-0.234834
H282	H	1.338451	-0.669716	0.015166
H283	H	1.588451	-0.419716	0.265166
H284	H	1.838451	-0.169716	0.515166
Cl285	Cl	0.965748	-0.247956	-0.780903
Cl286	Cl	1.215748	0.002044	-0.530903
Cl287	Cl	1.465748	0.252044	-0.280903
Cl288	Cl	1.715748	0.502044	-0.030903
H289	H	1.149265	-0.450586	-0.793744
H290	H	1.399265	-0.200586	-0.543744
H291	H	1.649265	0.049414	-0.293744
H292	H	1.899265	0.299414	-0.043744
H293	H	0.632988	-0.435225	-0.261748
H294	H	0.882988	-0.185225	-0.011748
H295	H	1.132988	0.064775	0.238252
H296	H	1.382988	0.314775	0.488252
H297	H	0.506179	-0.233968	-0.340239
H298	H	0.756179	0.016032	-0.090239
H299	H	1.006179	0.266032	0.159761
H300	H	1.256179	0.516032	0.409761
Cl301	Cl	0.961560	-0.780338	-0.252084
Cl302	Cl	1.211560	-0.530338	-0.002084
Cl303	Cl	1.461560	-0.280338	0.247916
Cl304	Cl	1.711560	-0.030338	0.497916
H305	H	1.191127	-0.919174	-0.334963
H306	H	1.441127	-0.669174	-0.084963
H307	H	1.691127	-0.419174	0.165037
H308	H	1.941127	-0.169174	0.415037
H309	H	1.026114	-0.792569	-0.471828
H310	H	1.276114	-0.542569	-0.221828
H311	H	1.526114	-0.292569	0.028172
H312	H	1.776114	-0.042569	0.278172
H313	H	1.114736	-0.241852	-0.921521
H314	H	1.364736	0.008148	-0.671521
H315	H	1.614736	0.258148	-0.421521
H316	H	1.864736	0.508148	-0.171521
H317	H	1.053046	-0.479367	-0.792646
H318	H	1.303046	-0.229367	-0.542646
H319	H	1.553046	0.020633	-0.292646
H320	H	1.803046	0.270633	-0.042646
Cl321	Cl	0.924223	-0.396329	-0.931620
Cl322	Cl	1.174223	-0.146329	-0.681620
Cl323	Cl	1.424223	0.103671	-0.431620
Cl324	Cl	1.674223	0.353671	-0.181620
Cl325	Cl	0.645069	-0.316362	-0.210929
Cl326	Cl	0.895069	-0.066362	0.039071
Cl327	Cl	1.145069	0.183638	0.289071
Cl328	Cl	1.395069	0.433638	0.539071
Cl329	Cl	0.495989	-0.315151	-0.211065
Cl330	Cl	0.745989	-0.065151	0.038935
Cl331	Cl	0.995989	0.184849	0.288935
Cl332	Cl	1.245989	0.434849	0.538935
Cl333	Cl	1.025527	-0.500594	-0.930968
Cl334	Cl	1.275527	-0.250594	-0.680968
Cl335	Cl	1.525527	-0.000594	-0.430968
Cl336	Cl	1.775527	0.249406	-0.180968
Cl337	Cl	1.107234	-0.209734	-0.782751
Cl338	Cl	1.357234	0.040266	-0.532751
Cl339	Cl	1.607234	0.290266	-0.282751
Cl340	Cl	1.857234	0.540266	-0.032751
Cl341	Cl	1.033368	-0.930976	-0.503778
Cl342	Cl	1.283368	-0.680976	-0.253778
Cl343	Cl	1.533368	-0.430976	-0.003778
Cl344	Cl	1.783368	-0.180976	0.246222
Cl345	Cl	0.646597	-0.249102	-0.463556
Cl346	Cl	0.896597	0.000898	-0.213556
Cl347	Cl	1.146597	0.250898	0.036444
Cl348	Cl	1.396597	0.500898	0.286444
H349	H	1.167859	-0.920465	-0.432692
H350	H	1.417859	-0.670465	-0.182692
H351	H	1.667859	-0.420465	0.067308
H352	H	1.917859	-0.170465	0.317308
H353	H	0.507268	-0.263199	-0.436293
H354	H	0.757268	-0.013199	-0.186293
H355	H	1.007268	0.236801	0.063707
H356	H	1.257268	0.486801	0.313707
H357	H	1.164068	-0.792902	-0.435900
H358	H	1.414068	-0.542902	-0.185900
H359	H	1.664068	-0.292902	0.064100
H360	H	1.914068	-0.042902	0.314100
Cl361	Cl	1.217280	-0.780212	-0.318651
Cl362	Cl	1.467280	-0.530212	-0.068651
Cl363	Cl	1.717280	-0.280212	0.181349
Cl364	Cl	1.967280	-0.030212	0.431349
H365	H	1.185396	-0.312660	-0.793353
H366	H	1.435396	-0.062660	-0.543353
H367	H	1.685396	0.187340	-0.293353
H368	H	1.935396	0.437340	-0.043353
H369	H	1.185764	-0.312708	-0.920581
H370	H	1.435764	-0.062708	-0.670581
H371	H	1.685764	0.187292	-0.420581
H372	H	1.935764	0.437292	-0.170581
Cl373	Cl	0.966531	-0.246560	-0.930506
Cl374	Cl	1.216531	0.003440	-0.680506
Cl375	Cl	1.466531	0.253440	-0.430506
Cl376	Cl	1.716531	0.503440	-0.180506
Cl377	Cl	0.924340	-0.397589	-0.782547
Cl378	Cl	1.174340	-0.147589	-0.532547
Cl379	Cl	1.424340	0.102411	-0.282547
Cl380	Cl	1.674340	0.352411	-0.032547
