data_functionalizedCrystal
_audit_creation_method	'MofGen! by Chris Wilmer'
_symmetry_space_group_name_H-M	'P1'
_symmetry_Int_Tables_number	1
_symmetry_cell_setting	triclinic
loop_
_symmetry_equiv_pos_as_xyz
  x,y,z
_cell_length_a	19.188930
_cell_length_b	12.837942
_cell_length_c	11.892110
_cell_angle_alpha	85.696939
_cell_angle_beta	93.900102
_cell_angle_gamma	88.986860
loop_
_atom_site_label
_atom_site_type_symbol
_atom_site_fract_x
_atom_site_fract_y
_atom_site_fract_z
O1	O	-0.939057	-0.122706	-0.094371
O2	O	-0.439057	0.377294	0.405629
O3	O	-0.736937	-0.140128	-0.094294
O4	O	-0.236937	0.359872	0.405706
O5	O	-0.833515	0.019464	-0.094324
O6	O	-0.333515	0.519464	0.405676
O7	O	-0.842479	-0.282299	-0.094341
O8	O	-0.342479	0.217701	0.405659
O9	O	-0.825460	0.006177	0.093686
O10	O	-0.325460	0.506177	0.593686
O11	O	-0.728882	-0.153416	0.093716
O12	O	-0.228882	0.346584	0.593716
O13	O	-0.931002	-0.135994	0.093639
O14	O	-0.431002	0.364006	0.593639
Zn15	Zn	-0.828663	-0.146815	0.123528
Zn16	Zn	-0.328663	0.353185	0.623528
Zn17	Zn	-0.839276	-0.129308	-0.124183
Zn18	Zn	-0.339276	0.370692	0.375817
O19	O	-0.834424	-0.295587	0.093669
O20	O	-0.334424	0.204413	0.593669
C21	C	-0.826460	0.051427	-0.000319
C22	C	-0.326460	0.551427	0.499681
C23	C	-0.817429	0.166463	-0.000317
C24	C	-0.317429	0.666463	0.499683
C25	C	-0.706859	-0.146209	-0.000279
C26	C	-0.206859	0.353791	0.499721
C27	C	-0.629238	-0.144518	-0.000249
C28	C	-0.129238	0.355482	0.499751
C29	C	-0.961080	-0.129913	-0.000379
C30	C	-0.461080	0.370087	0.499621
C31	C	-1.038702	-0.131604	-0.000416
C32	C	-0.538702	0.368396	0.499584
C33	C	-0.590737	-0.238159	-0.000273
C34	C	-0.090737	0.261841	0.499727
C35	C	-0.517805	-0.236568	-0.000285
C36	C	-0.017805	0.263432	0.499715
C37	C	-0.483377	-0.141328	-0.000297
C38	C	0.016623	0.358672	0.499703
C39	C	-0.521886	-0.047675	-0.000267
C40	C	-0.021886	0.452325	0.499733
C41	C	-0.594816	-0.049270	-0.000244
C42	C	-0.094816	0.450730	0.499756
N43	N	-0.373147	-0.064005	-0.064326
N44	N	0.126853	0.435995	0.435674
N45	N	-0.303866	-0.062496	-0.064351
N46	N	0.196134	0.437504	0.435649
C47	C	-0.263641	-0.136517	-0.000366
C48	C	0.236359	0.363483	0.499634
N49	N	-0.295316	-0.212119	0.063631
N50	N	0.204684	0.287881	0.563631
N51	N	-0.364603	-0.213631	0.063651
N52	N	0.135397	0.286369	0.563651
C53	C	-0.404296	-0.139588	-0.000322
C54	C	0.095704	0.360412	0.499678
C55	C	-0.146059	-0.228439	-0.000401
C56	C	0.353941	0.271561	0.499599
C57	C	-0.073126	-0.226844	-0.000406
C58	C	0.426874	0.273156	0.499594
C59	C	-0.077208	-0.037948	-0.000400
C60	C	0.422792	0.462052	0.499600
C61	C	-0.150140	-0.039547	-0.000383
C62	C	0.349860	0.460453	0.499617
C63	C	-0.184561	-0.134794	-0.000389
C64	C	0.315439	0.365206	0.499611
C65	C	-0.841480	-0.327550	-0.000339
C66	C	-0.341480	0.172450	0.499661
C67	C	-0.850511	-0.442585	-0.000348
C68	C	-0.350511	0.057415	0.499652
N69	N	-0.821426	-0.158762	0.292584
N70	N	-0.321426	0.341238	0.792584
C71	C	-0.925999	0.407919	-0.000382
C72	C	-0.425999	0.907919	0.499618
C73	C	-0.917517	0.516006	-0.000381
C74	C	-0.417517	1.016006	0.499619
C75	C	-0.791983	0.490728	-0.000321
C76	C	-0.291983	0.990728	0.499679
C77	C	-0.800465	0.382641	-0.000322
C78	C	-0.300465	0.882641	0.499678
C79	C	-0.867475	0.341240	-0.000351
C80	C	-0.367475	0.841240	0.499649
C81	C	-0.875956	0.233150	-0.000344
C82	C	-0.375956	0.733150	0.499656
C83	C	-0.750424	0.207875	-0.000293
C84	C	-0.250424	0.707875	0.499707
C85	C	-0.741941	0.315962	-0.000292
C86	C	-0.241941	0.815962	0.499708
C87	C	-0.896868	-0.034173	0.529209
C88	C	-0.396868	0.465827	1.029209
C89	C	-0.891814	-0.042532	0.647552
C90	C	-0.391814	0.457468	1.147552
C91	C	-0.806262	-0.183833	0.647617
C92	C	-0.306262	0.316167	1.147617
C93	C	-0.811315	-0.175474	0.529273
C94	C	-0.311315	0.324526	1.029273
C95	C	-0.856621	-0.100643	0.470073
C96	C	-0.356621	0.399357	0.970073
C97	C	-0.861677	-0.092290	0.351728
C98	C	-0.361677	0.407710	0.851728
C99	C	-0.776122	-0.233585	0.351794
C100	C	-0.276122	0.266415	0.851794
C101	C	-0.771068	-0.241944	0.470138
C102	C	-0.271068	0.258056	0.970138
N103	N	-0.846513	-0.117360	0.706760
N104	N	-0.346513	0.382640	1.206760
H105	H	-0.486452	-0.312824	-0.000301
H106	H	0.013548	0.187176	0.499699
O107	O	-0.031594	-0.327848	-0.000421
O108	O	0.468406	0.172152	0.499579
H109	H	-0.047909	-0.368019	-0.077057
H110	H	0.452091	0.131981	0.422943
H111	H	-0.702769	0.153572	-0.000259
H112	H	-0.202769	0.653572	0.499741
O113	O	-0.627864	-0.340888	-0.000246
O114	O	-0.127864	0.159112	0.499754
H115	H	-0.588834	-0.405737	-0.000248
H116	H	-0.088834	0.094263	0.499752
H117	H	-0.898569	-0.031361	0.303528
H118	H	-0.398569	0.468639	0.803528
O119	O	-0.484759	0.055051	-0.000281
O120	O	0.015241	0.555051	0.499719
H121	H	-0.427577	0.040430	-0.000312
H122	H	0.072423	0.540430	0.499688
O123	O	-0.757386	-0.264524	0.711471
O124	O	-0.257386	0.235476	1.211471
H125	H	-0.772613	-0.343679	0.688751
H126	H	-0.272613	0.156321	1.188751
H127	H	-0.734179	-0.302867	0.518352
H128	H	-0.234179	0.197133	1.018352
O129	O	-0.945714	0.046558	0.465355
O130	O	-0.445714	0.546558	0.965355
H131	H	-0.942462	0.041208	0.373128
H132	H	-0.442462	0.541208	0.873128
H133	H	-0.930519	0.199444	-0.000364
H134	H	-0.430519	0.699444	0.499636
O135	O	-0.040087	0.064779	-0.000413
O136	O	0.459913	0.564779	0.499587
H137	H	0.017095	0.050159	-0.000439
H138	H	0.517095	0.550159	0.499561
O139	O	-0.935231	0.029147	0.711340
O140	O	-0.435231	0.529147	1.211340
H141	H	-0.967588	0.082575	0.650288
H142	H	-0.467588	0.582575	1.150288
H143	H	-0.737427	0.524457	-0.000310
H144	H	-0.237427	1.024457	0.499690
H145	H	-0.743352	-0.287712	0.303633
H146	H	-0.243352	0.212288	0.803633
H147	H	-0.626163	0.026986	-0.000225
H148	H	-0.126163	0.526986	0.499775
O149	O	-0.183193	-0.331165	-0.000384
O150	O	0.316807	0.168835	0.499616
H151	H	-0.144165	-0.396016	-0.000380
H152	H	0.355835	0.103984	0.499620
H153	H	-0.181488	0.036707	-0.000370
H154	H	0.318512	0.536707	0.499630
H155	H	-0.980561	0.374209	-0.000394
H156	H	-0.480561	0.874209	0.499606
O157	O	-0.980637	0.587928	-0.000400
O158	O	-0.480637	1.087928	0.499600
H159	H	-1.028655	0.540975	-0.000410
H160	H	-0.528655	1.040975	0.499590
O161	O	-0.669668	0.360615	-0.000245
O162	O	-0.169668	0.860615	0.499755
H163	H	-0.673600	0.446977	-0.000238
H164	H	-0.173600	0.946977	0.499762
