data_functionalizedCrystal
_audit_creation_method	'MofGen! by Chris Wilmer'
_symmetry_space_group_name_H-M	'P1'
_symmetry_Int_Tables_number	1
_symmetry_cell_setting	triclinic
loop_
_symmetry_equiv_pos_as_xyz
  x,y,z
_cell_length_a	18.101398
_cell_length_b	18.101395
_cell_length_c	18.101389
_cell_angle_alpha	90.016841
_cell_angle_beta	89.975673
_cell_angle_gamma	89.973629
loop_
_atom_site_label
_atom_site_type_symbol
_atom_site_fract_x
_atom_site_fract_y
_atom_site_fract_z
Zn1	Zn	1.132121	0.295001	-0.418847
Zn2	Zn	1.132017	0.418826	-0.295009
Zn3	Zn	1.008280	0.294993	-0.295008
Zn4	Zn	1.008231	0.418795	-0.418797
O5	O	1.070162	0.356904	-0.356915
O6	O	1.235740	0.311443	-0.402440
O7	O	1.115580	0.402410	-0.191376
O8	O	1.024772	0.191361	-0.311456
O9	O	1.235664	0.402417	-0.311457
O10	O	1.115757	0.191367	-0.402440
O11	O	1.024671	0.311430	-0.191375
O12	O	0.904641	0.311399	-0.311408
O13	O	1.024688	0.402363	-0.522437
O14	O	0.904604	0.402356	-0.402355
O15	O	1.115710	0.311412	-0.522473
O16	O	1.115532	0.522455	-0.311409
O17	O	1.024587	0.522432	-0.402356
C18	C	1.070063	0.549314	-0.356893
C19	C	1.070088	0.631628	-0.356909
C20	C	0.877752	0.356874	-0.356877
C21	C	0.795437	0.356879	-0.356878
C22	C	1.070205	0.356885	-0.550077
C23	C	1.070223	0.356877	-0.632391
C24	C	0.496347	0.356925	-0.356940
C25	C	0.527670	0.299412	-0.299997
C26	C	0.613288	0.299566	-0.299754
C27	C	0.644729	0.356901	-0.356909
C28	C	0.613611	0.434909	-0.335587
C29	C	0.527966	0.434590	-0.335191
C30	C	0.527961	0.337109	-0.435339
C31	C	0.613612	0.335371	-0.434911
C32	C	0.728589	0.356893	-0.356893
C33	C	0.412487	0.356939	-0.356954
C34	C	1.263324	0.356934	-0.356954
C35	C	1.345638	0.356948	-0.356971
C36	C	1.070282	0.163742	-0.356953
C37	C	1.070333	0.081428	-0.356970
C38	C	1.070251	0.930719	-0.356949
C39	C	1.013163	0.899410	-0.414312
C40	C	1.012892	0.813792	-0.414133
C41	C	1.070170	0.782337	-0.356930
C42	C	1.049041	0.813472	-0.278878
C43	C	1.048673	0.899117	-0.279221
C44	C	1.148593	0.899073	-0.376950
C45	C	1.148132	0.813422	-0.378661
C46	C	1.070126	0.698477	-0.356914
C47	C	1.070293	1.014579	-0.356959
C48	C	1.070266	0.356738	-0.931482
C49	C	1.012801	0.413780	-0.900134
C50	C	1.012956	0.414045	-0.814516
C51	C	1.070244	0.356807	-0.783100
C52	C	1.148270	0.377998	-0.814206
C53	C	1.147949	0.378372	-0.899851
C54	C	1.050385	0.278379	-0.899905
C55	C	1.048649	0.278832	-0.814254
C56	C	1.070237	0.356845	-0.699240
C57	C	1.070279	0.356702	-1.015342
C58	C	1.070162	0.356869	-0.164505
C59	C	1.070287	0.356668	-0.082191
H60	H	0.634329	0.241719	-0.313119
H61	H	1.192915	0.792007	-0.339927
C62	C	1.170722	0.457031	-1.004181
C63	C	1.170711	0.455695	-0.926837
H64	H	1.184781	0.504767	-1.020836
H65	H	1.122618	0.445808	-1.021853
H66	H	1.204784	0.421431	-1.022304
H67	H	1.136644	0.491292	-0.908713
H68	H	1.218821	0.466928	-0.909157
H69	H	0.506120	0.312363	-0.242242
C70	C	1.239204	0.813997	-0.475138
C71	C	1.169630	0.785987	-0.456223
H72	H	1.252464	0.797071	-0.523029
H73	H	1.274770	0.797467	-0.440291
H74	H	1.237556	0.866450	-0.474933
H75	H	1.171279	0.733533	-0.456422
H76	H	1.134055	0.802513	-0.491079
C77	C	1.136421	0.184238	-0.845123
C78	C	1.101025	0.218404	-0.785393
H79	H	1.168756	0.146930	-0.827305
H80	H	1.163999	0.219965	-0.871872
H81	H	1.100513	0.162636	-0.876694
H82	H	1.136933	0.240010	-0.753824
H83	H	1.073446	0.182670	-0.758631
H84	H	1.192217	0.338629	-0.920590
H85	H	0.955097	0.400784	-0.793483
C86	C	0.422629	0.219807	-0.314650
C87	C	0.499908	0.221080	-0.317851
H88	H	0.405491	0.171446	-0.325675
H89	H	0.403117	0.253690	-0.349633
H90	H	0.406871	0.233410	-0.266463
H91	H	0.515667	0.207482	-0.366040
H92	H	0.519428	0.187186	-0.282866
H93	H	0.507705	0.378999	-0.477766
H94	H	0.507244	0.478892	-0.374857
H95	H	1.026082	0.472127	-0.794035
C96	C	0.686474	0.461467	-0.443210
C97	C	0.641105	0.494313	-0.389815
H98	H	0.703451	0.498142	-0.476685
H99	H	0.659160	0.425152	-0.469432
H100	H	0.727587	0.438841	-0.419724
H101	H	0.599989	0.516934	-0.413300
H102	H	0.668420	0.530641	-0.363590
C103	C	0.936828	0.333645	-0.973568
C104	C	0.934453	0.396062	-0.927915
H105	H	0.888458	0.322710	-0.990725
H106	H	0.955413	0.292790	-0.946395
H107	H	0.968215	0.343111	-1.014555
H108	H	0.903070	0.386594	-0.886926
H109	H	0.915858	0.436926	-0.955090
C110	C	0.580303	0.327758	-0.174387
C111	C	0.640907	0.317254	-0.221333
H112	H	0.597355	0.338684	-0.125973
H113	H	0.551294	0.284062	-0.173269
H114	H	0.551165	0.367663	-0.192077
H115	H	0.670041	0.277346	-0.203647
H116	H	0.669928	0.360956	-0.222449
H117	H	0.955448	0.920990	-0.401230
C118	C	0.975616	0.191776	-0.745870
C119	C	0.971136	0.257246	-0.786809
H120	H	0.927762	0.178450	-0.728929
H121	H	1.007340	0.199023	-0.704721
H122	H	0.994774	0.153451	-0.776203
H123	H	0.951984	0.295573	-0.756474
H124	H	0.939401	0.250003	-0.827964
H125	H	1.089313	0.793097	-0.234972
C126	C	1.041746	0.845486	-0.539656
C127	C	1.030720	0.785366	-0.492263
H128	H	1.052742	0.827938	-0.587894
H129	H	1.081749	0.874507	-0.522063
H130	H	0.998216	0.874779	-0.541160
H131	H	1.074252	0.756076	-0.490755
H132	H	0.990714	0.756333	-0.509861
C133	C	1.026773	0.491815	-1.006460
C134	C	1.030346	0.491712	-0.929189
H135	H	1.037613	0.539926	-1.024395
H136	H	0.978549	0.477910	-1.021736
H137	H	1.061744	0.457685	-1.025652
H138	H	0.995372	0.525838	-0.909996
H139	H	1.078577	0.505626	-0.913905
H140	H	1.192236	0.337757	-0.793859
H141	H	0.954823	0.793362	-0.400884
H142	H	1.026252	0.919970	-0.472374
H143	H	1.165415	0.434671	-0.792765
H144	H	1.092240	0.235880	-0.920179
C145	C	0.925814	0.865228	-0.242480
C146	C	0.971364	0.926170	-0.256358
H147	H	0.878084	0.881928	-0.228370
H148	H	0.946431	0.836444	-0.203763
H149	H	0.922027	0.835989	-0.285899
H150	H	0.975155	0.955407	-0.212936
H151	H	0.950742	0.954967	-0.295078
C152	C	1.079728	0.901159	-0.150290
C153	C	1.102360	0.927103	-0.219560
H154	H	1.112868	0.918443	-0.113460
H155	H	1.079600	0.848687	-0.150481
H156	H	1.031370	0.918764	-0.139949
H157	H	1.150717	0.909494	-0.229904
H158	H	1.102496	0.979585	-0.219371
C159	C	1.120543	0.974943	-0.482044
C160	C	1.174599	0.928169	-0.452477
H161	H	1.136591	0.992901	-0.528676
H162	H	1.112637	1.015344	-0.449489
H163	H	1.075743	0.948298	-0.488031
H164	H	1.219397	0.954816	-0.446486
H165	H	1.182514	0.887761	-0.485040
H166	H	0.507954	0.451397	-0.277877
C167	C	1.208588	1.003709	-0.321809
C168	C	1.206018	0.926408	-0.320560
H169	H	1.244040	1.020586	-0.286999
H170	H	1.161371	1.023001	-0.309434
H171	H	1.222109	1.019963	-0.369840
H172	H	1.192492	0.910154	-0.272531
H173	H	1.253246	0.907108	-0.332930
H174	H	0.994478	0.259074	-0.921490
C175	C	0.719814	0.460971	-0.260575
C176	C	0.642532	0.457980	-0.259052
H177	H	0.737672	0.475202	-0.213324
H178	H	0.735251	0.496042	-0.296411
H179	H	0.738929	0.413691	-0.273011
H180	H	0.623417	0.505261	-0.246621
H181	H	0.627088	0.422906	-0.223204
C182	C	0.421628	0.263868	-0.465584
C183	C	0.498844	0.261655	-0.461513
H184	H	0.403653	0.217282	-0.481733
H185	H	0.406967	0.301031	-0.499593
H186	H	0.401898	0.274780	-0.418181
H187	H	0.518574	0.250749	-0.508917
H188	H	0.513512	0.224481	-0.427502
C189	C	0.682027	0.262398	-0.522100
C190	C	0.641060	0.257873	-0.456625
H191	H	0.698968	0.214552	-0.535506
H192	H	0.723178	0.294109	-0.514816
H193	H	0.651713	0.281592	-0.560387
H194	H	0.671376	0.238684	-0.418337
H195	H	0.599904	0.226151	-0.463906
H196	H	0.635017	0.374209	-0.479611
H197	H	0.992380	0.792080	-0.261633
