data_functionalizedCrystal
_audit_creation_method	'MofGen! by Chris Wilmer'
_symmetry_space_group_name_H-M	'P1'
_symmetry_Int_Tables_number	1
_symmetry_cell_setting	triclinic
loop_
_symmetry_equiv_pos_as_xyz
  x,y,z
_cell_length_a	19.077212
_cell_length_b	18.101397
_cell_length_c	19.076919
_cell_angle_alpha	92.268541
_cell_angle_beta	89.885058
_cell_angle_gamma	92.312452
loop_
_atom_site_label
_atom_site_type_symbol
_atom_site_fract_x
_atom_site_fract_y
_atom_site_fract_z
Zn1	Zn	1.058311	-0.268841	-0.440571
Zn2	Zn	1.062959	-0.387521	-0.323058
Zn3	Zn	0.945526	-0.268451	-0.318346
Zn4	Zn	0.940779	-0.397399	-0.435791
O5	O	1.001893	-0.330553	-0.379441
O6	O	1.157261	-0.280613	-0.428955
O7	O	1.051313	-0.367429	-0.224103
O8	O	0.960529	-0.164869	-0.334588
O9	O	1.160676	-0.367807	-0.342619
O10	O	1.043391	-0.165156	-0.424386
O11	O	0.965036	-0.279949	-0.220641
O12	O	0.846563	-0.289527	-0.329953
O13	O	0.952437	-0.384643	-0.534755
O14	O	0.843075	-0.384265	-0.416239
O15	O	1.038788	-0.290192	-0.538267
O16	O	1.046710	-0.492465	-0.337984
O17	O	0.956944	-0.499722	-0.420808
C18	C	0.819322	-0.337926	-0.372067
C19	C	0.741216	-0.341099	-0.368928
C20	C	0.301754	-0.363825	-0.346453
C21	C	0.375143	-0.360839	-0.349396
C22	C	0.410059	-0.314030	-0.395891
C23	C	0.371582	-0.270198	-0.439441
C24	C	0.298194	-0.273180	-0.436494
C25	C	0.629352	-0.300249	-0.409531
C26	C	0.702745	-0.297272	-0.412476
C27	C	0.706301	-0.387912	-0.322430
C28	C	0.632912	-0.390894	-0.319490
C29	C	0.594442	-0.347059	-0.363037
N30	N	0.485074	-0.310979	-0.398903
N31	N	0.519428	-0.350106	-0.360021
C32	C	1.001835	-0.522965	-0.379405
C33	C	1.001873	-0.605277	-0.379415
C34	C	1.001960	-0.904368	-0.379483
C35	C	1.058292	-0.868445	-0.327221
C36	C	1.058474	-0.782825	-0.327369
C37	C	1.001917	-0.755985	-0.379449
C38	C	1.019013	-0.789438	-0.454324
C39	C	1.019444	-0.875053	-0.454044
C40	C	0.928362	-0.875051	-0.357506
C41	C	0.928795	-0.789314	-0.355868
C42	C	1.001891	-0.672126	-0.379434
C43	C	1.001987	-0.988227	-0.379503
C44	C	1.185178	-0.323152	-0.386845
C45	C	1.263283	-0.319998	-0.390001
C46	C	0.994564	-0.338563	-0.562720
C47	C	0.991441	-0.341976	-0.640823
C48	C	1.001971	-0.137390	-0.379494
C49	C	1.002004	-0.055075	-0.379517
C50	C	1.034930	-0.294406	-0.679345
C51	C	1.031986	-0.297610	-0.752730
C52	C	0.985558	-0.348389	-0.787592
C53	C	0.942065	-0.395961	-0.749064
C54	C	0.945005	-0.392753	-0.675680
C55	C	0.971941	-0.363255	-1.006870
C56	C	0.969005	-0.366462	-1.080259
C57	C	1.058926	-0.268110	-1.083919
C58	C	1.061865	-0.264909	-1.010534
C59	C	1.018370	-0.312478	-0.972013
N60	N	0.982550	-0.351668	-0.862603
N61	N	1.021375	-0.309196	-0.897003
C62	C	1.009234	-0.322519	-0.196878
C63	C	1.012494	-0.318892	-0.118781
H64	H	1.048124	-0.759956	-0.271945
N65	N	1.111943	-0.210129	-0.972951
H66	H	1.100532	-0.158219	-0.985303
H67	H	1.107194	-0.215368	-0.920626
H68	H	1.112575	-0.888242	-0.341842
H69	H	1.072739	-0.253058	-0.650966
N70	N	0.256704	-0.225908	-0.483468
H71	H	0.224955	-0.258715	-0.514755
H72	H	0.227439	-0.191537	-0.453702
N73	N	1.105836	-0.216804	-1.125466
H74	H	1.096930	-0.226539	-1.177244
H75	H	1.095433	-0.163795	-1.112210
H76	H	0.400016	-0.232082	-0.477296
N77	N	0.587877	-0.252959	-0.456496
H78	H	0.598651	-0.266214	-0.507196
H79	H	0.536101	-0.261954	-0.447520
H80	H	1.113052	-0.760605	-0.342147
N81	N	0.918926	-0.421222	-1.117877
H82	H	0.930318	-0.473142	-1.105540
H83	H	0.869253	-0.411119	-1.103073
N84	N	1.089340	-0.759036	-0.478848
H85	H	1.099872	-0.780893	-0.527072
H86	H	1.088192	-0.703425	-0.480825
N87	N	1.078878	-0.246289	-0.794279
H88	H	1.108734	-0.213633	-0.761059
H89	H	1.110167	-0.276440	-0.826043
H90	H	0.936534	-0.402000	-0.975515
H91	H	0.915851	-0.767270	-0.300751
H92	H	1.048100	-0.887167	-0.271638
N93	N	0.870520	-0.765394	-0.402262
H94	H	0.890784	-0.732471	-0.439393
H95	H	0.846164	-0.810485	-0.425488
H96	H	0.904259	-0.437304	-0.777455
H97	H	0.909585	-0.431482	-0.644316
H98	H	0.912233	-0.895116	-0.303698
N99	N	1.090590	-0.899466	-0.478225
H100	H	1.099958	-0.882300	-0.527224
H101	H	1.127850	-0.877231	-0.445320
N102	N	0.264098	-0.414317	-0.296307
H103	H	0.299609	-0.441626	-0.269166
H104	H	0.234945	-0.383935	-0.262620
H105	H	0.604489	-0.429010	-0.281627
N106	N	0.416639	-0.408105	-0.302422
H107	H	0.383384	-0.438213	-0.272522
H108	H	0.445950	-0.442434	-0.332184
N109	N	0.967246	-0.906982	-0.507596
H110	H	0.944060	-0.865430	-0.531282
H111	H	0.992370	-0.938340	-0.543859
H112	H	0.737631	-0.423600	-0.286976
H113	H	0.731171	-0.259149	-0.450338
H114	H	0.979108	-0.772458	-0.494439
H115	H	0.886426	-0.898693	-0.395535
