data_functionalizedCrystal
_audit_creation_method	'MofGen! by Chris Wilmer'
_symmetry_space_group_name_H-M	'P1'
_symmetry_Int_Tables_number	1
_symmetry_cell_setting	triclinic
loop_
_symmetry_equiv_pos_as_xyz
  x,y,z
_cell_length_a	6.817900
_cell_length_b	16.417825
_cell_length_c	11.102228
_cell_angle_alpha	93.887652
_cell_angle_beta	108.604565
_cell_angle_gamma	103.385495
loop_
_atom_site_label
_atom_site_type_symbol
_atom_site_fract_x
_atom_site_fract_y
_atom_site_fract_z
V1	V	-4.084993	-0.115887	-0.396702
O2	O	-4.071824	0.005567	-0.388692
O3	O	-4.035703	-0.229783	-0.394429
O4	O	-4.062176	-0.114105	-0.569516
O5	O	-4.045167	-0.110911	-0.212393
V6	V	-4.565422	-0.101360	-0.374603
O7	O	-4.353040	-0.147754	-0.445176
O8	O	-4.747572	-0.069493	-0.326129
O9	O	-4.391506	0.012536	-0.376876
O10	O	-4.695988	-0.222814	-0.382613
O11	O	-4.722645	-0.106335	-0.558912
O12	O	-4.365032	-0.103142	-0.201789
C13	C	-3.879659	-0.257548	-0.388285
C14	C	-3.920815	-0.350660	-0.387579
C15	C	-3.958127	-0.552923	-0.269549
C16	C	-3.996822	-0.640413	-0.268895
C17	C	-4.111669	-0.664324	-0.501771
C18	C	-4.072989	-0.576836	-0.502423
C19	C	-3.996207	-0.521138	-0.386308
C20	C	-4.073582	-0.696115	-0.385002
C21	C	-4.115537	-0.790975	-0.384294
C22	C	-3.954253	-0.426272	-0.387015
C23	C	-3.913427	-0.109989	-0.611624
C24	C	-3.976049	-0.109286	-0.752903
C25	C	-4.048079	-0.185658	-0.837721
C26	C	-4.106931	-0.184996	-0.970468
C27	C	-4.021708	-0.031582	-0.933566
C28	C	-3.962871	-0.032245	-0.800822
C29	C	-4.356191	-0.278930	-1.178218
C30	C	-4.428190	-0.355305	-1.263040
C31	C	-4.329040	-0.420556	-1.232077
C32	C	-4.157845	-0.409433	-1.116292
C33	C	-4.085830	-0.333056	-1.031476
C34	C	-4.185028	-0.267809	-1.062440
C35	C	-3.713596	0.061684	-0.593070
C36	C	-3.641566	0.138062	-0.508251
C37	C	-3.740698	0.203321	-0.539209
C38	C	-3.911860	0.192207	-0.654995
C39	C	-3.983891	0.115829	-0.739814
C40	C	-3.884758	0.050570	-0.708847
C41	C	-4.210891	0.040297	-0.383017
C42	C	-4.148974	0.133408	-0.383731
C43	C	-4.177122	-0.107261	-0.159675
C44	C	-4.093738	-0.107960	-0.018394
H45	H	-4.174185	-0.709684	-0.596307
C46	C	-4.048762	-0.481210	-1.082243
C47	C	-4.180693	-0.568006	-1.069792
C48	C	-4.071611	-0.639785	-1.035739
C49	C	-3.830597	-0.624768	-1.014136
C50	C	-3.698651	-0.537969	-1.026587
C51	C	-3.807734	-0.466190	-1.060640
H52	H	-4.359119	-0.579125	-1.085784
H53	H	-4.169287	-0.704039	-1.026522
H54	H	-3.749848	-0.677904	-0.988928
H55	H	-3.520226	-0.526850	-1.010595
H56	H	-3.710057	-0.401935	-1.069856
H57	H	-4.058814	-0.248389	-0.798711
H58	H	-3.965814	-0.666287	-0.173818
C59	C	-4.172178	0.103599	-0.867180
C60	C	-4.281234	0.175379	-0.901246
C61	C	-4.469515	0.163149	-1.028611
C62	C	-4.548741	0.079139	-1.121909
C63	C	-4.439684	0.007353	-1.087846
C64	C	-4.251403	0.019583	-0.960481
H65	H	-4.222587	0.237574	-0.832179
H66	H	-4.550246	0.216291	-1.053826
H67	H	-4.688118	0.070086	-1.216192
H68	H	-4.498331	-0.054841	-1.156913
H69	H	-4.170672	-0.033558	-0.935266
H70	H	-4.387668	-0.482742	-1.301150
H71	H	-3.895608	-0.507575	-0.175000
H72	H	-4.104012	-0.550958	-0.597509
C73	C	-3.897542	-0.320816	-0.904116
C74	C	-3.788456	-0.392588	-0.870052
C75	C	-3.600175	-0.380353	-0.742686
C76	C	-3.520979	-0.296345	-0.649384
C77	C	-3.630066	-0.224567	-0.683446
C78	C	-3.818347	-0.236803	-0.810813
H79	H	-3.847081	-0.454781	-0.939121
H80	H	-3.519422	-0.433488	-0.717471
H81	H	-3.381602	-0.287288	-0.555100
H82	H	-3.571442	-0.162375	-0.614377
H83	H	-3.899100	-0.183667	-0.836027
H84	H	-3.992580	0.245346	-0.680203
C85	C	-4.616512	-0.367544	-1.390393
C86	C	-4.598556	-0.307867	-1.489843
C87	C	-4.786865	-0.320108	-1.617197
C88	C	-4.993131	-0.392025	-1.645101
C89	C	-5.011096	-0.451707	-1.545649
C90	C	-4.822787	-0.439466	-1.418295
H91	H	-4.445857	-0.254625	-1.469189
H92	H	-4.773565	-0.275927	-1.690818
H93	H	-5.132529	-0.401086	-1.739376
H94	H	-5.163794	-0.504949	-1.566303
H95	H	-4.836087	-0.483647	-1.344674
H96	H	-4.436960	-0.225806	-1.203433
C97	C	-3.661467	0.287341	-0.445909
C98	C	-3.576591	0.371074	-0.490198
C99	C	-3.497376	0.455092	-0.396905
C100	C	-3.503038	0.455376	-0.259323
C101	C	-3.587917	0.371639	-0.215028
C102	C	-3.667132	0.287621	-0.308321
H103	H	-3.572397	0.370867	-0.592050
H104	H	-3.434543	0.517079	-0.429695
H105	H	-3.444399	0.517570	-0.190262
H106	H	-3.592111	0.371846	-0.113176
H107	H	-3.729965	0.225634	-0.275530
C108	C	-3.453268	0.150311	-0.380884
C109	C	-3.471248	0.090659	-0.281406
C110	C	-3.282951	0.102917	-0.154041
C111	C	-3.076674	0.174825	-0.126155
C112	C	-3.058686	0.234481	-0.225636
C113	C	-3.246982	0.222224	-0.353001
H114	H	-3.623954	0.037424	-0.302046
H115	H	-3.296269	0.058755	-0.080398
H116	H	-2.937286	0.183899	-0.031871
H117	H	-2.905980	0.287717	-0.204995
H118	H	-3.233665	0.266386	-0.426643
H119	H	-4.010982	0.031142	-0.972598
H120	H	-3.632864	0.008547	-0.567851
