data_functionalizedCrystal
_audit_creation_method	'MofGen! by Chris Wilmer'
_symmetry_space_group_name_H-M	'P1'
_symmetry_Int_Tables_number	1
_symmetry_cell_setting	triclinic
loop_
_symmetry_equiv_pos_as_xyz
  x,y,z
_cell_length_a	18.627243
_cell_length_b	18.627245
_cell_length_c	18.627297
_cell_angle_alpha	90.002039
_cell_angle_beta	59.997824
_cell_angle_gamma	119.999685
loop_
_atom_site_label
_atom_site_type_symbol
_atom_site_fract_x
_atom_site_fract_y
_atom_site_fract_z
O1	O	0.633240	-0.492484	-0.021356
O2	O	0.486232	-0.388088	0.021256
O3	O	0.633235	-0.388087	-0.125751
O4	O	0.486237	-0.492485	0.125650
O5	O	0.513833	-0.507489	-0.125750
O6	O	0.366830	-0.507489	0.021256
O7	O	0.513838	-0.611886	-0.021356
Zn8	Zn	0.421376	-0.578645	-0.000050
Zn9	Zn	0.578694	-0.421328	-0.000051
O10	O	0.366835	-0.611886	0.125650
C11	C	0.356044	-0.256979	0.030935
C12	C	0.406443	-0.162282	0.024836
C13	C	0.269040	-0.300580	0.031539
C14	C	0.356039	-0.386983	0.030943
C15	C	0.406432	-0.431286	0.024852
C16	C	0.269035	-0.430386	0.031548
C17	C	0.226044	-0.386979	0.030935
C18	C	0.137446	-0.431279	0.024835
C19	C	0.398838	-0.300583	0.031548
O20	O	-0.104350	-0.611881	-0.021369
O21	O	0.104442	-0.507482	0.021239
O22	O	0.104453	-0.507489	-0.125766
O23	O	-0.104360	-0.611875	0.125635
O24	O	0.104457	-0.388084	-0.125773
O25	O	0.104446	-0.388078	0.021231
O26	O	-0.104345	-0.492477	-0.021377
Zn27	Zn	0.000051	-0.421319	-0.000074
Zn28	Zn	0.000046	-0.578640	-0.000064
O29	O	-0.104356	-0.492470	0.125628
C30	C	0.644032	-0.386986	-0.387050
C31	C	0.593636	-0.431285	-0.431350
C32	C	0.731038	-0.300587	-0.430453
C33	C	0.644032	-0.386986	-0.257049
C34	C	0.593635	-0.431287	-0.162352
C35	C	0.731037	-0.300588	-0.300650
C36	C	0.774032	-0.256986	-0.387049
C37	C	0.862632	-0.162290	-0.431348
C38	C	0.601235	-0.430390	-0.300651
C39	C	0.774046	-0.612982	-0.031065
C40	C	0.862649	-0.568681	-0.024971
C41	C	0.731054	-0.699380	-0.031674
C42	C	0.644041	-0.612985	-0.031058
C43	C	0.593641	-0.568686	-0.024957
C44	C	0.601246	-0.699383	-0.031667
C45	C	0.644046	-0.742983	-0.031064
C46	C	0.593651	-0.837679	-0.024969
C47	C	0.731049	-0.569580	-0.031668
O48	O	0.513853	0.125721	-0.021375
O49	O	0.366846	-0.125678	0.021232
O50	O	0.513856	0.021315	-0.125772
O51	O	0.366843	-0.021272	0.125629
O52	O	0.633253	0.021311	-0.125765
O53	O	0.486243	-0.125682	0.021240
O54	O	0.633250	0.125717	-0.021368
Zn55	Zn	0.578703	0.000017	-0.000063
Zn56	Zn	0.421393	0.000022	-0.000073
O57	O	0.486240	-0.021275	0.125637
O58	O	1.104430	0.125707	-0.492538
O59	O	0.895633	-0.125690	-0.388147
O60	O	0.895628	0.021307	-0.388137
O61	O	1.104435	-0.021290	-0.492548
O62	O	0.895631	0.021311	-0.507540
O63	O	0.895636	-0.125686	-0.507550
O64	O	1.104433	0.125711	-0.611941
Zn65	Zn	1.000035	0.000013	-0.578704
Zn66	Zn	1.000031	0.000008	-0.421384
O67	O	1.104438	-0.021286	-0.611951
O68	O	0.486231	-0.492490	-0.611948
O69	O	0.633235	-0.388087	-0.507553
O70	O	0.486230	-0.388090	-0.507544
O71	O	0.633237	-0.492487	-0.611956
O72	O	0.366830	-0.507490	-0.388142
O73	O	0.513836	-0.507487	-0.388151
O74	O	0.366832	-0.611890	-0.492545
Zn75	Zn	0.421376	-0.578646	-0.421390
Zn76	Zn	0.578691	-0.421331	-0.578708
O77	O	0.513837	-0.611887	-0.492554
C78	C	0.226037	-0.742989	0.386948
C79	C	0.137437	-0.837686	0.431246
C80	C	0.269030	-0.699389	0.430353
C81	C	0.356038	-0.612988	0.256949
C82	C	0.406435	-0.568687	0.162252
C83	C	0.398834	-0.569585	0.300552
C84	C	0.356036	-0.612990	0.386950
C85	C	0.406432	-0.568691	0.431252
C86	C	0.269032	-0.699387	0.300549
C87	C	0.356073	-0.256995	-0.387073
C88	C	0.406473	-0.162299	-0.431376
C89	C	0.398871	-0.300599	-0.430474
C90	C	0.226065	-0.386990	-0.257069
C91	C	0.137460	-0.431286	-0.162372
C92	C	0.269060	-0.430398	-0.300668
C93	C	0.356070	-0.386997	-0.387067
C94	C	0.406468	-0.431300	-0.431364
C95	C	0.269063	-0.300593	-0.300674
C96	C	-0.355975	-0.612964	0.386929
C97	C	-0.406373	-0.568662	0.431227
C98	C	-0.398774	-0.699362	0.430336
C99	C	-0.225968	-0.612970	0.256931
C100	C	-0.137363	-0.568673	0.162234
C101	C	-0.268966	-0.699367	0.300535
C102	C	-0.355976	-0.742966	0.386934
C103	C	-0.406376	-0.837662	0.431237
C104	C	-0.268964	-0.569563	0.300530
C105	C	0.774043	0.030962	-0.387056
C106	C	0.862639	0.024856	-0.431349
C107	C	0.731051	0.031564	-0.430463
C108	C	0.644049	0.030986	-0.257064
C109	C	0.593654	0.024905	-0.162369
C110	C	0.601253	0.031588	-0.300669
C111	C	0.644048	0.030966	-0.387064
C112	C	0.593653	0.024863	-0.431366
C113	C	0.731051	0.031584	-0.300660
O114	O	0.633303	0.125701	-0.611972
O115	O	0.486281	-0.125700	-0.507577
O116	O	0.633272	0.021288	-0.507558
O117	O	0.486311	-0.021287	-0.611991
O118	O	0.513861	0.021292	-0.388162
O119	O	0.366869	-0.125696	-0.388181
O120	O	0.513891	0.125706	-0.492576
Zn121	Zn	0.421421	0.000006	-0.421421
Zn122	Zn	0.578751	0.000000	-0.578731
O123	O	0.366900	-0.021282	-0.492594
C124	C	0.356047	-0.030927	0.386929
C125	C	0.406443	-0.024826	0.431231
C126	C	0.269046	-0.031525	0.430327
C127	C	0.356047	-0.030947	0.256928
C128	C	0.406442	-0.024866	0.162234
C129	C	0.269045	-0.031545	0.300525
C130	C	0.226053	-0.030923	0.386920
C131	C	0.137458	-0.024816	0.431213
C132	C	0.398842	-0.031549	0.300533
H133	H	0.767008	-0.265581	-0.265636
H134	H	0.468895	-0.265589	-0.501459
O135	O	0.226161	-0.515119	-0.259041
C136	C	0.197053	-0.568568	-0.306073
H137	H	0.243830	-0.526439	-0.377421
H138	H	0.210760	-0.621410	-0.303541
H139	H	0.113034	-0.601076	-0.275289
O140	O	0.226299	-0.258704	-0.258959
C141	C	0.297243	-0.182950	-0.254554
H142	H	0.377395	-0.161142	-0.308761
H143	H	0.288426	-0.127973	-0.263565
H144	H	0.283273	-0.198478	-0.187776
H145	H	0.767030	-0.498593	-0.032637
H146	H	0.767042	-0.734382	-0.032654
H147	H	-0.232978	-0.734371	0.265528
H148	H	0.233059	-0.265571	0.032519
O149	O	0.482254	-0.484850	0.258820
C150	C	0.459594	-0.431397	0.234434
H151	H	0.374108	-0.464635	0.278307
H152	H	0.499847	-0.364923	0.242366
H153	H	0.486502	-0.421410	0.162913
H154	H	0.767042	0.032539	-0.501453
O155	O	0.482462	-0.258808	0.032563
C156	C	0.562598	-0.254473	-0.042746
H157	H	0.548997	-0.260136	-0.096374
H158	H	0.637380	-0.189043	-0.067366
H159	H	0.566217	-0.310733	-0.025396
O160	O	0.773845	-0.258799	-0.515094
C161	C	0.702899	-0.254425	-0.519930
H162	H	0.643607	-0.260085	-0.452701
H163	H	0.743737	-0.188982	-0.570088
H164	H	0.663986	-0.310669	-0.540914
H165	H	0.233032	-0.734393	0.501347
H166	H	-0.233028	-0.498597	0.265502
O167	O	-0.482436	-0.741176	0.514960
C168	C	-0.562556	-0.745536	0.519731
H169	H	-0.548875	-0.739829	0.452471
H170	H	-0.637331	-0.810994	0.569842
H171	H	-0.566248	-0.689314	0.540737
H172	H	0.531240	0.032565	-0.265661
O173	O	0.225985	-0.741118	0.258860
C174	C	0.125482	-0.765509	0.305911
H175	H	0.117103	-0.721640	0.347528
H176	H	0.107191	-0.757579	0.257727
H177	H	0.070883	-0.837029	0.350522
O178	O	0.482280	-0.032842	0.258727
C179	C	0.459567	-0.108999	0.234412
H180	H	0.392874	-0.133562	0.229756
H181	H	0.528647	-0.092786	0.167874
H182	H	0.438816	-0.162229	0.285944
O183	O	0.517782	-0.515110	-0.258854
C184	C	0.540447	-0.568588	-0.234521
H185	H	0.607126	-0.526488	-0.229840
H186	H	0.471343	-0.621450	-0.167991
H187	H	0.561197	-0.601070	-0.286055
H188	H	0.531229	-0.734388	-0.032637
H189	H	0.233055	-0.501375	0.032526
H190	H	0.767034	0.032562	-0.265654
O191	O	0.226284	-0.032595	0.258636
C192	C	0.297234	0.042744	0.182873
H193	H	0.377384	0.068683	0.161063
H194	H	0.288413	0.024908	0.127900
H195	H	0.283276	0.095561	0.198393
H196	H	0.233063	-0.032497	0.501316
