data_functionalizedCrystal
_audit_creation_method	'MofGen! by Chris Wilmer'
_symmetry_space_group_name_H-M	'P1'
_symmetry_Int_Tables_number	1
_symmetry_cell_setting	triclinic
loop_
_symmetry_equiv_pos_as_xyz
  x,y,z
_cell_length_a	19.805407
_cell_length_b	12.645330
_cell_length_c	19.805399
_cell_angle_alpha	89.976872
_cell_angle_beta	89.983114
_cell_angle_gamma	90.017692
loop_
_atom_site_label
_atom_site_type_symbol
_atom_site_fract_x
_atom_site_fract_y
_atom_site_fract_z
Zn1	Zn	1.034759	-0.422049	-0.382747
Zn2	Zn	1.034696	-0.599332	-0.269571
Zn3	Zn	0.921579	-0.422083	-0.269572
Zn4	Zn	0.921554	-0.599271	-0.382717
O5	O	0.978147	-0.510684	-0.326152
O6	O	1.129467	-0.445577	-0.367746
O7	O	1.019675	-0.575859	-0.174854
O8	O	0.936629	-0.273731	-0.284598
O9	O	1.129421	-0.575826	-0.284596
O10	O	1.019782	-0.273706	-0.367747
O11	O	0.936568	-0.445635	-0.174855
O12	O	0.826859	-0.445576	-0.284569
O13	O	0.936587	-0.575723	-0.477438
O14	O	0.826841	-0.575755	-0.367696
O15	O	1.019758	-0.445519	-0.477460
O16	O	1.019651	-0.747671	-0.284567
O17	O	0.936526	-0.747626	-0.367695
C18	C	0.802291	-0.510663	-0.326130
C19	C	0.727059	-0.510680	-0.326137
C20	C	0.691723	-0.578567	-0.369351
C21	C	0.621035	-0.578569	-0.369361
C22	C	0.585683	-0.510689	-0.326152
C23	C	0.621024	-0.442795	-0.282935
C24	C	0.691711	-0.442788	-0.282930
C25	C	0.335951	-0.442818	-0.282958
C26	C	0.265259	-0.442832	-0.282965
C27	C	0.265274	-0.578598	-0.369388
C28	C	0.335961	-0.578592	-0.369383
C29	C	0.371296	-0.510695	-0.326169
C30	C	0.447944	-0.510692	-0.326160
C31	C	0.509036	-0.510696	-0.326157
C32	C	0.978098	-0.786113	-0.326142
C33	C	0.978138	-0.903943	-0.326161
C34	C	0.926060	-1.071524	-0.378618
C35	C	0.925794	-0.948964	-0.378450
C36	C	0.958835	-0.948534	-0.254828
C37	C	0.958518	-1.071133	-0.255147
C38	C	1.049838	-1.071034	-0.344457
C39	C	1.049399	-0.948427	-0.346017
C40	C	1.154690	-0.510705	-0.326174
C41	C	1.229922	-0.510714	-0.326184
C42	C	0.978177	-0.510610	-0.502695
C43	C	0.978189	-0.510579	-0.577927
C44	C	0.978215	-0.234178	-0.326176
C45	C	0.978244	-0.116348	-0.326186
C46	C	0.934928	-0.442765	-0.613271
C47	C	0.934937	-0.442744	-0.683959
C48	C	0.978212	-0.510533	-0.719302
C49	C	1.021475	-0.578355	-0.683953
C50	C	1.021462	-0.578380	-0.613266
C51	C	1.021529	-0.578255	-0.969027
C52	C	1.021540	-0.578223	-1.039719
C53	C	0.935004	-0.442620	-1.039720
C54	C	0.934991	-0.442645	-0.969033
C55	C	0.978251	-0.510470	-0.933690
C56	C	0.978240	-0.510493	-0.857041
C57	C	0.978227	-0.510505	-0.795949
C58	C	0.978156	-0.510680	-0.150296
C59	C	0.978275	-0.510413	-0.075064
H60	H	0.364741	-0.633871	-0.404566
N61	N	1.005010	-0.911954	-0.204486
N62	N	1.052772	-0.852467	-0.220658
H63	H	1.085385	-0.826631	-0.185105
H64	H	0.907045	-0.917922	-0.239071
H65	H	1.056707	-0.633555	-0.712735
H66	H	0.899755	-0.387440	-0.940260
N67	N	0.229137	-0.373481	-0.238840
N68	N	0.166024	-0.373500	-0.238855
H69	H	0.140511	-0.324524	-0.207694
N70	N	0.890818	-0.373342	-1.075833
N71	N	0.890832	-0.373323	-1.138946
H72	H	0.859629	-0.324394	-1.164451
H73	H	1.056781	-0.633429	-1.068493
H74	H	0.899707	-0.387527	-0.712733
H75	H	0.720501	-0.633846	-0.404534
H76	H	1.056747	-0.633494	-0.940259
N77	N	1.065656	-0.647632	-0.577150
N78	N	1.065639	-0.647645	-0.514037
H79	H	1.096851	-0.696558	-0.488529
N80	N	0.229169	-0.647951	-0.413527
N81	N	0.166056	-0.647953	-0.413529
H82	H	0.140557	-0.696934	-0.444699
N83	N	0.584955	-0.647935	-0.413501
N84	N	0.592838	-0.745743	-0.408899
H85	H	0.567359	-0.794738	-0.440076
N86	N	0.372028	-0.373465	-0.238810
N87	N	0.340453	-0.312872	-0.200231
H88	H	0.365934	-0.263890	-0.169047
H89	H	1.067448	-1.101880	-0.395589
H90	H	0.592235	-0.387521	-0.247757
H91	H	0.937870	-0.918813	-0.431342
N92	N	1.100743	-0.909970	-0.301603
N93	N	1.111278	-0.812799	-0.296779
H94	H	1.147538	-0.785640	-0.265405
N95	N	1.067655	-0.911857	-0.411874
N96	N	1.028368	-0.853248	-0.444104
H97	H	1.041258	-0.827415	-0.490617
H98	H	0.720481	-0.387502	-0.247744
H99	H	0.873315	-1.102424	-0.366668
N100	N	0.941110	-1.108354	-0.445196
N101	N	0.990467	-1.168077	-0.454783
H102	H	1.001110	-1.194069	-0.501808
H103	H	0.872717	-0.919729	-0.366345
H104	H	0.906182	-1.099823	-0.239669
H105	H	1.088716	-1.100020	-0.306269
N106	N	1.004107	-1.108338	-0.204449
N107	N	0.994842	-1.084183	-0.143959
H108	H	1.027031	-1.110459	-0.108148
N109	N	0.890727	-0.373499	-0.577182
N110	N	0.852106	-0.312954	-0.608752
H111	H	0.820887	-0.264031	-0.583266
