data_functionalizedCrystal
_audit_creation_method	'MofGen! by Chris Wilmer'
_symmetry_space_group_name_H-M	'P1'
_symmetry_Int_Tables_number	1
_symmetry_cell_setting	triclinic
loop_
_symmetry_equiv_pos_as_xyz
  x,y,z
_cell_length_a	14.971486
_cell_length_b	27.731996
_cell_length_c	14.048226
_cell_angle_alpha	89.987595
_cell_angle_beta	89.998499
_cell_angle_gamma	83.117759
loop_
_atom_site_label
_atom_site_type_symbol
_atom_site_fract_x
_atom_site_fract_y
_atom_site_fract_z
O1	O	1.185930	0.062992	-0.079064
O2	O	0.925408	0.070536	-0.079092
O3	O	1.063784	-0.003597	-0.079056
O4	O	1.047553	0.137125	-0.079099
O5	O	1.063768	-0.003601	0.079265
O6	O	0.925391	0.070531	0.079230
O7	O	1.185913	0.062988	0.079257
Zn8	Zn	1.055650	0.066759	0.104380
Zn9	Zn	1.055671	0.066765	-0.104215
O10	O	1.047537	0.137121	0.079222
C11	C	0.892080	0.070196	0.000066
C12	C	0.792800	0.069185	0.000056
C13	C	0.734871	0.112736	0.000044
C14	C	0.641587	0.111784	0.000059
C15	C	0.606233	0.067279	0.000079
C16	C	0.664169	0.023725	0.000093
C17	C	0.757452	0.024678	0.000086
C18	C	0.469739	0.021741	0.000107
C19	C	0.376450	0.020787	0.000113
C20	C	0.353874	0.108846	0.000080
C21	C	0.447157	0.109800	0.000073
C22	C	0.505086	0.066245	0.000086
C23	C	1.063443	-0.021608	0.000107
C24	C	1.062438	-0.075269	0.000117
C25	C	1.056129	-0.408012	-0.086231
C26	C	1.052315	-0.609688	-0.086248
O27	O	1.051791	-0.635759	-0.159644
N28	N	1.051833	-0.634910	0.000052
C29	C	1.052298	-0.609709	0.086362
O30	O	1.051790	-0.635788	0.159766
C31	C	1.056105	-0.408033	0.086379
C32	C	1.056597	-0.382815	0.000073
C33	C	1.056620	-0.382793	-0.172530
C34	C	1.057578	-0.332378	-0.172525
C35	C	1.058045	-0.307181	-0.086221
C36	C	1.057555	-0.332399	0.000078
C37	C	1.056563	-0.382833	0.172688
C38	C	1.057513	-0.332411	0.172684
C39	C	1.058005	-0.307193	0.086379
C40	C	1.058981	-0.256787	0.086387
N41	N	1.059463	-0.231565	0.000087
C42	C	1.058996	-0.256762	-0.086217
C43	C	1.050301	-0.715591	0.086348
C44	C	1.049350	-0.766010	0.086344
C45	C	1.049366	-0.765986	-0.086267
C46	C	1.050323	-0.715566	-0.086262
C47	C	1.050783	-0.690370	0.000048
C48	C	1.061009	-0.150886	-0.086200
C49	C	1.061971	-0.100466	-0.086187
C50	C	1.061950	-0.100495	0.086424
C51	C	1.060993	-0.150910	0.086411
C52	C	1.060519	-0.176104	0.000092
O53	O	1.059495	-0.230684	0.159745
O54	O	1.059483	-0.230673	-0.159609
C55	C	1.055171	-0.458428	-0.086236
C56	C	1.054680	-0.483646	0.000063
C57	C	1.055148	-0.458449	0.086366
C58	C	1.053730	-0.534065	0.000059
C59	C	1.053262	-0.559262	-0.086245
C60	C	1.053745	-0.534040	-0.172545
C61	C	1.054703	-0.483625	-0.172540
C62	C	1.054665	-0.483671	0.172666
C63	C	1.053708	-0.534087	0.172654
C64	C	1.053240	-0.559284	0.086350
C65	C	1.219241	0.063328	0.000098
C66	C	1.318522	0.064338	0.000101
C67	C	1.047879	0.155132	0.000056
C68	C	1.048883	0.208793	0.000040
N69	N	1.055642	0.066755	0.246741
N70	N	1.055687	0.066765	-0.246575
C71	C	1.116934	0.033942	0.296575
C72	C	1.116940	0.033942	0.396232
C73	C	1.055657	0.066757	0.446055
C74	C	0.994359	0.099571	0.396214
C75	C	0.994349	0.099569	0.296558
C76	C	0.994384	0.099574	0.603928
C77	C	0.994395	0.099578	0.703591
C78	C	1.116975	0.033948	0.703602
C79	C	1.116965	0.033946	0.603947
C80	C	1.055668	0.066760	0.554113
H81	H	0.306703	0.144310	0.000074
C82	C	1.053228	-0.561767	-0.267480
N83	N	1.052832	-0.582652	-0.338980
C84	C	0.533460	-0.026172	0.000118
N85	N	0.581454	-0.062259	0.000119
H86	H	1.166870	0.007228	0.563382
C87	C	1.056011	-0.410561	0.267633
N88	N	1.055590	-0.431445	0.339152
H89	H	0.944457	0.126288	0.436785
H90	H	0.763648	0.148977	0.000028
H91	H	0.804617	-0.010786	0.000095
C92	C	0.926930	0.135669	0.241742
N93	N	0.876148	0.162861	0.200455
H94	H	1.057874	-0.311898	0.242970
C95	C	1.053165	-0.561821	0.267604
N96	N	1.052747	-0.582708	0.339119
C97	C	0.486043	0.158757	0.000055
N98	N	0.515333	0.195632	0.000047
H99	H	1.060601	-0.171445	0.156688
C100	C	0.926944	0.135668	0.549114
N101	N	0.876149	0.162852	0.507827
H102	H	1.166840	0.007223	0.256016
H103	H	0.594425	0.147247	0.000048
C104	C	1.062509	-0.072729	-0.181134
N105	N	1.062912	-0.051838	-0.252646
C106	C	0.337563	-0.028169	0.000136
N107	N	0.308274	-0.065045	0.000153
C108	C	1.060503	-0.178593	-0.181155
N109	N	1.060133	-0.199463	-0.252676
H110	H	1.166885	0.007229	0.744183
H111	H	0.635377	-0.012511	0.000123
C112	C	0.926976	0.135673	0.758393
N113	N	0.876194	0.162860	0.799671
C114	C	1.058109	-0.304643	-0.267469
N115	N	1.058504	-0.283757	-0.338986
H116	H	1.055047	-0.463161	0.242947
H117	H	1.056236	-0.403303	-0.242813
H118	H	1.050722	-0.695037	-0.156540
H119	H	1.048987	-0.786510	-0.156539
H120	H	1.048964	-0.786540	0.156623
H121	H	1.055103	-0.463096	-0.242819
H122	H	1.050680	-0.695081	0.156636
C123	C	1.062456	-0.072768	0.181353
N124	N	1.062827	-0.051882	0.252855
H125	H	1.166848	0.007223	0.436806
