data_functionalizedCrystal
_audit_creation_method	'MofGen! by Chris Wilmer'
_symmetry_space_group_name_H-M	'P1'
_symmetry_Int_Tables_number	1
_symmetry_cell_setting	triclinic
loop_
_symmetry_equiv_pos_as_xyz
  x,y,z
_cell_length_a	18.215407
_cell_length_b	10.686685
_cell_length_c	18.215399
_cell_angle_alpha	94.351788
_cell_angle_beta	89.983176
_cell_angle_gamma	85.640488
loop_
_atom_site_label
_atom_site_type_symbol
_atom_site_fract_x
_atom_site_fract_y
_atom_site_fract_z
Zn1	Zn	1.147585	-0.502265	-0.438637
Zn2	Zn	1.647585	-0.002265	0.061363
Zn3	Zn	1.156968	-0.713269	-0.325032
Zn4	Zn	1.656968	-0.213269	0.174968
Zn5	Zn	1.024527	-0.502315	-0.315587
Zn6	Zn	1.524527	-0.002315	0.184413
Zn7	Zn	1.033948	-0.713190	-0.448054
Zn8	Zn	1.533948	-0.213190	0.051946
O9	O	1.090757	-0.607759	-0.381828
O10	O	1.590757	-0.107759	0.118172
O11	O	1.251815	-0.530267	-0.423580
O12	O	1.751815	-0.030267	0.076420
O13	O	1.139383	-0.685339	-0.220798
O14	O	1.639383	-0.185339	0.279202
O15	O	1.032982	-0.325750	-0.324016
O16	O	1.532982	0.174250	0.175984
O17	O	1.258708	-0.685291	-0.340115
O18	O	1.758708	-0.185291	0.159885
O19	O	1.123392	-0.325713	-0.414421
O20	O	1.623392	0.174287	0.085579
O21	O	1.042079	-0.530352	-0.213858
O22	O	1.542079	-0.030352	0.286142
O23	O	0.922792	-0.530276	-0.333147
O24	O	1.422792	-0.030276	0.166853
O25	O	1.049038	-0.685156	-0.549787
O26	O	1.549038	-0.185156	-0.049787
O27	O	0.929713	-0.685205	-0.430470
O28	O	1.429713	-0.185205	0.069530
O29	O	1.132527	-0.530190	-0.542868
O30	O	1.632527	-0.030190	-0.042868
O31	O	1.148518	-0.889816	-0.349245
O32	O	1.648518	-0.389816	0.150755
O33	O	1.058136	-0.889758	-0.439629
O34	O	1.558136	-0.389758	0.060371
C35	C	0.899550	-0.607738	-0.381806
C36	C	1.399550	-0.107738	0.118194
C37	C	0.817752	-0.607759	-0.381815
C38	C	1.317752	-0.107759	0.118185
C39	C	1.105387	-0.935566	-0.396500
C40	C	1.605387	-0.435566	0.103500
C41	C	1.111713	-1.075804	-0.402801
C42	C	1.611713	-0.575804	0.097199
C43	C	0.633187	-0.688557	-0.432438
C44	C	1.133187	-0.188557	0.067562
C45	C	0.556328	-0.688561	-0.432447
C46	C	1.056328	-0.188561	0.067553
C47	C	0.549080	-0.526984	-0.331235
C48	C	1.049080	-0.026984	0.168765
C49	C	0.625937	-0.526975	-0.331229
C50	C	1.125937	-0.026975	0.168771
C51	C	0.667989	-0.607769	-0.381830
C52	C	1.167989	-0.107769	0.118170
C53	C	0.514273	-0.607782	-0.381845
C54	C	1.014273	-0.107782	0.118155
C55	C	0.430940	-0.607786	-0.381855
C56	C	0.930940	-0.107786	0.118145
C57	C	0.751327	-0.607764	-0.381821
C58	C	1.251327	-0.107764	0.118179
C59	C	1.282711	-0.607782	-0.381850
C60	C	1.782711	-0.107782	0.118150
C61	C	1.364510	-0.607792	-0.381860
C62	C	1.864510	-0.107792	0.118140
C63	C	1.090787	-0.607659	-0.573776
C64	C	1.590787	-0.107659	-0.073776
C65	C	1.090800	-0.607616	-0.655573
C66	C	1.590800	-0.107616	-0.155573
C67	C	1.076090	-0.278672	-0.367114
C68	C	1.576090	0.221328	0.132886
C69	C	1.069839	-0.138435	-0.360844
C70	C	1.569839	0.361565	0.139156
C71	C	1.040171	-0.526860	-0.840152
C72	C	1.540171	-0.026860	-0.340152
C73	C	1.040183	-0.526834	-0.917010
C74	C	1.540183	-0.026834	-0.417010
C75	C	1.141510	-0.688221	-0.924225
C76	C	1.641510	-0.188221	-0.424225
C77	C	1.141494	-0.688252	-0.847369
C78	C	1.641494	-0.188252	-0.347369
C79	C	1.090826	-0.607564	-0.805334
C80	C	1.590826	-0.107564	-0.305334
C81	C	1.090853	-0.607508	-0.959048
C82	C	1.590853	-0.107508	-0.459048
C83	C	1.090866	-0.607481	-1.042381
C84	C	1.590866	-0.107481	-0.542381
C85	C	1.090812	-0.607592	-0.721997
C86	C	1.590812	-0.107592	-0.221997
C87	C	1.090765	-0.607769	-0.190622
C88	C	1.590765	-0.107769	0.309378
C89	C	1.090879	-0.607456	-0.108809
C90	C	1.590879	-0.107456	0.391191
H91	H	0.667423	-0.754342	-0.473642
H92	H	1.167423	-0.254342	0.026358
H93	H	0.654273	-0.461179	-0.290018
H94	H	1.154273	0.038821	0.209982
F95	F	0.986262	-0.440951	-0.954063
F96	F	1.486262	0.059049	-0.454063
F97	F	0.519293	-0.774545	-0.486312
F98	F	1.019293	-0.274545	0.013688
F99	F	0.986244	-0.440988	-0.795418
F100	F	1.486244	0.059012	-0.295418
H101	H	0.514832	-0.461207	-0.290037
H102	H	1.014832	0.038793	0.209963
F103	F	1.164902	-1.145944	-0.456046
F104	F	1.664902	-0.645944	0.043954
F105	F	1.016655	-1.068289	-0.307589
F106	F	1.516655	-0.568289	0.192411
F107	F	1.195433	-0.774089	-0.968968
F108	F	1.695433	-0.274089	-0.468968
F109	F	1.195408	-0.774158	-0.810312
F110	F	1.695408	-0.274158	-0.310312
