data_functionalizedCrystal
_audit_creation_method	'MofGen! by Chris Wilmer'
_symmetry_space_group_name_H-M	'P1'
_symmetry_Int_Tables_number	1
_symmetry_cell_setting	triclinic
loop_
_symmetry_equiv_pos_as_xyz
  x,y,z
_cell_length_a	11.792241
_cell_length_b	15.944551
_cell_length_c	10.268362
_cell_angle_alpha	89.993764
_cell_angle_beta	89.999626
_cell_angle_gamma	83.846077
loop_
_atom_site_label
_atom_site_type_symbol
_atom_site_fract_x
_atom_site_fract_y
_atom_site_fract_z
O1	O	1.505960	0.115128	-0.108177
O2	O	2.005960	0.615128	0.391823
O3	O	1.175521	0.126993	-0.108207
O4	O	1.675521	0.626993	0.391793
O5	O	1.349764	-0.001173	-0.108180
O6	O	1.849764	0.498827	0.391820
O7	O	1.331717	0.243295	-0.108205
O8	O	1.831717	0.743295	0.391795
O9	O	1.349749	-0.001179	0.108421
O10	O	1.849749	0.498821	0.608421
O11	O	1.175506	0.126988	0.108393
O12	O	1.675506	0.626988	0.608393
O13	O	1.505945	0.115123	0.108424
O14	O	2.005945	0.615123	0.608424
Cu15	Cu	1.340724	0.121055	0.128186
Cu16	Cu	1.840724	0.621055	0.628186
Cu17	Cu	1.340742	0.121061	-0.127970
Cu18	Cu	1.840742	0.621061	0.372030
O19	O	1.331702	0.243290	0.108396
O20	O	1.831702	0.743290	0.608396
C21	C	1.133229	0.126245	0.000089
C22	C	1.633229	0.626245	0.500089
C23	C	1.007234	0.124015	0.000078
C24	C	1.507234	0.624015	0.500078
C25	C	0.776555	0.119913	0.000116
C26	C	1.276555	0.619913	0.500116
C27	C	0.904922	0.122192	0.000095
C28	C	1.404922	0.622192	0.500095
C29	C	1.349008	-0.032473	0.000121
C30	C	1.849008	0.467527	0.500121
C31	C	1.346761	-0.125729	0.000121
C32	C	1.846761	0.374271	0.500121
C33	C	1.233389	-0.341098	0.000093
C34	C	1.733389	0.158902	0.500093
C35	C	1.286028	-0.401880	0.106895
C36	C	1.786028	0.098120	0.606895
C37	C	1.342698	-0.296474	0.000111
C38	C	1.842698	0.203526	0.500111
C39	C	1.286069	-0.401858	-0.106656
C40	C	1.786069	0.098142	0.393344
C41	C	1.338765	-0.461404	0.000095
C42	C	1.838765	0.038596	0.500095
C43	C	1.395367	-0.356028	0.107001
C44	C	1.895367	0.143972	0.607001
C45	C	1.395392	-0.355999	-0.106646
C46	C	1.895392	0.144001	0.393354
C47	C	1.448111	-0.416764	0.000182
C48	C	1.948111	0.083236	0.500182
C49	C	1.344961	-0.201461	0.000121
C50	C	1.844961	0.298539	0.500121
C51	C	1.336511	-0.556415	0.000095
C52	C	1.836511	-0.056415	0.500095
C53	C	1.548237	0.115871	0.000124
C54	C	2.048237	0.615871	0.500124
C55	C	1.674233	0.118102	0.000127
C56	C	2.174233	0.618102	0.500127
C57	C	1.332459	0.274590	0.000093
C58	C	1.832459	0.774590	0.500093
C59	C	1.334705	0.367846	0.000084
C60	C	1.834705	0.867846	0.500084
N61	N	1.340720	0.121050	0.308352
N62	N	1.840720	0.621050	0.808352
N63	N	1.340756	0.121060	-0.308135
N64	N	1.840756	0.621060	0.191865
C65	C	1.340736	0.121060	0.574022
C66	C	1.840736	0.621060	1.074022
C67	C	1.340724	0.121057	0.426184
C68	C	1.840724	0.621057	0.926184
H69	H	1.142657	-0.308200	0.000191
H70	H	1.642657	0.191800	0.500191
H71	H	1.239788	-0.422199	0.197179
H72	H	1.739788	0.077801	0.697179
C73	C	1.457761	-0.328745	0.229121
C74	C	1.957761	0.171255	0.729121
N75	N	1.504751	-0.308194	0.321103
N76	N	2.004751	0.191806	0.821103
C77	C	1.570788	-0.461015	0.000278
C78	C	2.070788	0.038985	0.500278
N79	N	1.663187	-0.494348	0.000358
N80	N	2.163187	0.005652	0.500358
H81	H	1.441593	-0.335658	-0.196935
H82	H	1.941593	0.164342	0.303065
C83	C	1.223594	-0.429272	-0.228635
C84	C	1.723594	0.070728	0.271365
N85	N	1.176531	-0.449916	-0.320505
N86	N	1.676531	0.050084	0.179495
