data_functionalizedCrystal
_audit_creation_method	'MofGen! by Chris Wilmer'
_symmetry_space_group_name_H-M	'P1'
_symmetry_Int_Tables_number	1
_symmetry_cell_setting	triclinic
loop_
_symmetry_equiv_pos_as_xyz
  x,y,z
_cell_length_a	15.995300
_cell_length_b	15.944493
_cell_length_c	15.072220
_cell_angle_alpha	90.004743
_cell_angle_beta	89.985917
_cell_angle_gamma	83.473426
loop_
_atom_site_label
_atom_site_type_symbol
_atom_site_fract_x
_atom_site_fract_y
_atom_site_fract_z
O1	O	1.111006	0.108066	-0.073803
O2	O	1.611006	0.608066	0.426197
O3	O	0.867223	0.121480	-0.073796
O4	O	1.367223	0.621480	0.426204
O5	O	0.995797	-0.007507	-0.073807
O6	O	1.495797	0.492493	0.426193
O7	O	0.982432	0.237053	-0.073792
O8	O	1.482432	0.737053	0.426208
O9	O	0.995765	-0.007500	0.073758
O10	O	1.495765	0.492500	0.573758
O11	O	0.867191	0.121487	0.073769
O12	O	1.367191	0.621487	0.573769
O13	O	1.110974	0.108073	0.073762
O14	O	1.610974	0.608073	0.573762
Zn15	Zn	0.989077	0.114781	0.097194
Zn16	Zn	1.489077	0.614781	0.597194
Zn17	Zn	0.989119	0.114772	-0.097229
Zn18	Zn	1.489119	0.614772	0.402771
O19	O	0.982400	0.237060	0.073773
O20	O	1.482400	0.737060	0.573773
C21	C	0.836011	0.120937	-0.000013
C22	C	1.336011	0.620937	0.499987
C23	C	0.743059	0.119296	-0.000011
C24	C	1.243059	0.619296	0.499989
C25	C	0.572876	0.116267	-0.000018
C26	C	1.072876	0.616267	0.499982
C27	C	0.525397	0.208109	-0.000011
C28	C	1.025397	0.708109	0.499989
C29	C	0.428709	0.206433	-0.000348
C30	C	0.928709	0.706433	0.499652
C31	C	0.405320	0.113286	-0.000024
C32	C	0.905320	0.613286	0.499976
C33	C	0.446478	0.067716	-0.084128
C34	C	0.946478	0.567716	0.415872
C35	C	0.543111	0.070040	-0.084196
C36	C	1.043111	0.570040	0.415804
C37	C	0.543354	0.068688	0.083619
C38	C	1.043354	0.568688	0.583619
C39	C	0.446410	0.068697	0.084722
C40	C	0.946410	0.568697	0.584722
C41	C	0.310625	0.111596	-0.000030
C42	C	0.810625	0.611596	0.499970
C43	C	0.667572	0.117954	-0.000018
C44	C	1.167572	0.617954	0.499982
C45	C	0.995235	-0.038798	-0.000029
C46	C	1.495235	0.461202	0.499971
C47	C	0.993597	-0.132046	-0.000040
C48	C	1.493597	0.367954	0.499960
C49	C	1.069278	-0.367824	-0.000025
C50	C	1.569278	0.132176	0.499975
C51	C	1.028482	-0.418386	-0.072781
C52	C	1.528482	0.081614	0.427219
C53	C	0.990562	-0.302766	-0.000029
C54	C	1.490562	0.197234	0.499971
C55	C	1.028432	-0.418355	0.072707
C56	C	1.528432	0.081645	0.572707
C57	C	0.987637	-0.467675	-0.000014
C58	C	1.487637	0.032325	0.499986
C59	C	0.949787	-0.352100	-0.072845
C60	C	1.449787	0.147900	0.427155
C61	C	0.949749	-0.352066	0.072708
C62	C	1.449749	0.147934	0.572708
C63	C	0.908895	-0.402595	-0.000065
C64	C	1.408895	0.097405	0.499935
C65	C	0.992250	-0.207767	-0.000038
C66	C	1.492250	0.292233	0.499962
C67	C	0.985943	-0.562672	-0.000012
C68	C	1.485943	-0.062672	0.499988
C69	C	1.142185	0.108616	-0.000023
C70	C	1.642185	0.608616	0.499977
C71	C	1.235138	0.110257	-0.000031
C72	C	1.735138	0.610257	0.499969
C73	C	0.982962	0.268351	-0.000008
C74	C	1.482962	0.768351	0.499992
C75	C	0.984600	0.361599	-0.000003
C76	C	1.484600	0.861599	0.499997
N77	N	0.989055	0.114787	0.229883
N78	N	1.489055	0.614787	0.729883
N79	N	0.989148	0.114759	-0.229918
N80	N	1.489148	0.614759	0.270082
C81	C	0.989118	0.114769	0.589085
C82	C	1.489118	0.614769	1.089085
C83	C	0.920089	0.183556	0.551484
C84	C	1.420089	0.683556	1.051484
C85	C	0.920247	0.183807	0.448658
C86	C	1.420247	0.683807	0.948658
C87	C	0.989086	0.114778	0.410881
C88	C	1.489086	0.614778	0.910881
C89	C	1.076450	0.133905	0.448171
C90	C	1.576450	0.633905	0.948171
C91	C	1.076063	0.134394	0.551029
C92	C	1.576063	0.634394	1.051029
C93	C	0.971561	0.026651	0.551180
C94	C	1.471561	0.526651	1.051180
C95	C	0.969556	0.027239	0.448317
C96	C	1.469556	0.527239	0.948317
C97	C	0.989073	0.114781	0.310167
C98	C	1.489073	0.614781	0.810167
C99	C	0.989136	0.114767	0.689798
C100	C	1.489136	0.614767	1.189798
H101	H	0.400869	0.242080	-0.060984
H102	H	0.900869	0.742080	0.439016
C103	C	1.147505	0.068032	0.415111
C104	C	1.647505	0.568032	0.915111
H105	H	1.199763	0.080788	0.438447
H106	H	1.699763	0.580788	0.938447
H107	H	1.149505	0.069218	0.352139
H108	H	1.649505	0.569218	0.852139
H109	H	1.137087	0.013446	0.434370
H110	H	1.637087	0.513446	0.934370
H111	H	1.016568	-0.026346	0.422604
H112	H	1.516568	0.473654	0.922604
H113	H	0.855308	0.172413	0.423448
H114	H	1.355308	0.672413	0.923448
C115	C	0.586304	-0.022783	0.084719
C116	C	1.086304	0.477217	0.584719
H117	H	0.568212	-0.051213	0.135403
H118	H	1.068212	0.448787	0.635403
H119	H	0.645617	-0.022447	0.086889
H120	H	1.145617	0.477553	0.586889
H121	H	0.571566	-0.051123	0.032541
H122	H	1.071566	0.448877	0.532541
C123	C	0.550354	0.257981	0.081445
C124	C	1.050354	0.757981	0.581445
H125	H	0.589958	0.223244	0.116178
H126	H	1.089958	0.723244	0.616178
H127	H	0.501746	0.274977	0.116082
H128	H	1.001746	0.774977	0.616082
H129	H	0.574778	0.306487	0.062325
H130	H	1.074778	0.806487	0.562325
H131	H	0.545013	0.244464	-0.060227
H132	H	1.045013	0.744464	0.439773
C133	C	0.817231	-0.423475	-0.000114
C134	C	1.317231	0.076525	0.499886
H135	H	0.789413	-0.400568	-0.051844
H136	H	1.289413	0.099432	0.448156
H137	H	0.789067	-0.399761	0.051080
H138	H	1.289067	0.100239	0.551080
H139	H	0.816667	-0.482988	0.000370
H140	H	1.316667	0.017012	0.500370
H141	H	1.091536	0.198657	0.575014
H142	H	1.591536	0.698657	1.075014
C143	C	1.147537	0.069294	0.584637
C144	C	1.647537	0.569294	1.084637
H145	H	1.147782	0.069149	0.647668
H146	H	1.647782	0.569149	1.147668
H147	H	1.199948	0.083794	0.563428
H148	H	1.699948	0.583794	1.063428
H149	H	1.138966	0.014774	0.563556
H150	H	1.638966	0.514774	1.063556
C151	C	0.904938	-0.313169	-0.156037
C152	C	1.404938	0.186831	0.343963
H153	H	0.906297	-0.253758	-0.155551
H154	H	1.406297	0.246242	0.344449
H155	H	0.848144	-0.325273	-0.156250
H156	H	1.348144	0.174727	0.343750
H157	H	0.932722	-0.336453	-0.207639
H158	H	1.432722	0.163547	0.292361
H159	H	0.916521	-0.323094	0.134223
H160	H	1.416521	0.176906	0.634223
C161	C	1.073337	-0.457436	0.155801
C162	C	1.573337	0.042564	0.655801
H163	H	1.130280	-0.445786	0.155702
H164	H	1.630280	0.054214	0.655702
H165	H	1.071513	-0.516777	0.155496
H166	H	1.571513	-0.016777	0.655496
H167	H	1.045929	-0.433837	0.207469
H168	H	1.545929	0.066163	0.707469
C169	C	1.160870	-0.346725	-0.000118
C170	C	1.660870	0.153275	0.499882
H171	H	1.170681	-0.315220	0.051603
H172	H	1.670681	0.184780	0.551603
H173	H	1.170327	-0.314368	-0.051321
H174	H	1.670327	0.185632	0.448679
H175	H	1.198111	-0.397577	-0.000680
H176	H	1.698111	0.102423	0.499320
H177	H	1.061738	-0.447342	-0.134293
H178	H	1.561738	0.052658	0.365707
C179	C	0.832077	0.168430	0.584943
C180	C	1.332077	0.668430	1.084943
H181	H	0.836637	0.120033	0.622150
H182	H	1.336637	0.620033	1.122150
H183	H	0.796990	0.159658	0.535748
H184	H	1.296990	0.659658	1.035748
H185	H	0.808309	0.216269	0.617598
H186	H	1.308309	0.716269	1.117598
H187	H	1.092293	0.197436	0.422405
H188	H	1.592293	0.697436	0.922405
C189	C	0.887351	0.001816	0.586252
C190	C	1.387351	0.501816	1.086252
H191	H	0.862111	0.044962	0.624344
H192	H	1.362111	0.544962	1.124344
H193	H	0.897141	-0.049670	0.618283
H194	H	1.397141	0.450330	1.118283
H195	H	0.850840	-0.005143	0.537760
H196	H	1.350840	0.494857	1.037760
H197	H	0.931144	0.248579	0.577326
H198	H	1.431144	0.748579	1.077326
C199	C	0.935395	0.272141	0.415405
C200	C	1.435395	0.772141	0.915405
H201	H	0.941483	0.308010	0.464760
H202	H	1.441483	0.808010	0.964760
H203	H	0.888891	0.294971	0.380429
H204	H	1.388891	0.794971	0.880429
H205	H	0.985171	0.267939	0.380522
H206	H	1.485171	0.767939	0.880522
H207	H	0.905290	0.012723	0.423945
H208	H	1.405290	0.512723	0.923945
C209	C	0.567874	0.114404	-0.169435
C210	C	1.067874	0.614404	0.330565
H211	H	0.518898	0.130843	-0.203694
H212	H	1.018898	0.630843	0.296306
H213	H	0.605886	0.076773	-0.202993
H214	H	1.105886	0.576773	0.297007
H215	H	0.594101	0.162982	-0.154203
H216	H	1.094101	0.662982	0.345797
C217	C	0.408187	0.109942	-0.168996
C218	C	0.908187	0.609942	0.331004
H219	H	0.367129	0.155336	-0.153356
H220	H	0.867129	0.655336	0.346644
H221	H	0.382493	0.069708	-0.202952
H222	H	0.882493	0.569708	0.297048
H223	H	0.451321	0.130854	-0.203032
H224	H	0.951321	0.630854	0.296968
C225	C	1.039552	-0.042507	0.584032
C226	C	1.539552	0.457493	1.084032
H227	H	1.028610	-0.095605	0.560906
H228	H	1.528610	0.404395	1.060906
H229	H	1.038732	-0.044420	0.647016
H230	H	1.538732	0.455580	1.147016
H231	H	1.093265	-0.030162	0.564429
H232	H	1.593265	0.469838	1.064429
C233	C	0.390228	0.254807	0.081074
C234	C	0.890228	0.754807	0.581074
H235	H	0.433682	0.275665	0.114654
H236	H	0.933682	0.775665	0.614654
H237	H	0.361932	0.217903	0.116854
H238	H	0.861932	0.717903	0.616854
H239	H	0.351339	0.300715	0.061941
H240	H	0.851339	0.800715	0.561941
H241	H	0.575395	0.002600	-0.087793
H242	H	1.075395	0.502600	0.412207
C243	C	0.427442	-0.024741	-0.088050
C244	C	0.927442	0.475259	0.411950
H245	H	0.394142	-0.036399	-0.038313
H246	H	0.894142	0.463601	0.461687
H247	H	0.478746	-0.061153	-0.087137
H248	H	0.978746	0.438847	0.412863
H249	H	0.397677	-0.033706	-0.141118
H250	H	0.897677	0.466294	0.358882
H251	H	0.419051	0.101975	0.146943
H252	H	0.919051	0.601975	0.646943
C253	C	0.571012	0.109543	0.169762
C254	C	1.071012	0.609543	0.669762
H255	H	0.600825	0.156006	0.155522
H256	H	1.100825	0.656006	0.655522
H257	H	0.606483	0.069129	0.202813
H258	H	1.106483	0.569129	0.702813
H259	H	0.522780	0.128723	0.204087
H260	H	1.022780	0.628723	0.704087
C261	C	0.425677	-0.023035	0.091936
C262	C	0.925677	0.476965	0.591936
H263	H	0.391547	-0.035399	0.043134
H264	H	0.891547	0.464601	0.543134
H265	H	0.396296	-0.029951	0.145744
H266	H	0.896296	0.470049	0.645744
H267	H	0.476398	-0.060349	0.091364
H268	H	0.976398	0.439651	0.591364
