data_functionalizedCrystal
_audit_creation_method	'MofGen! by Chris Wilmer'
_symmetry_space_group_name_H-M	'P1'
_symmetry_Int_Tables_number	1
_symmetry_cell_setting	triclinic
loop_
_symmetry_equiv_pos_as_xyz
  x,y,z
_cell_length_a	8.497374
_cell_length_b	8.497374
_cell_length_c	13.033293
_cell_angle_alpha	97.166474
_cell_angle_beta	97.195495
_cell_angle_gamma	90.001110
loop_
_atom_site_label
_atom_site_type_symbol
_atom_site_fract_x
_atom_site_fract_y
_atom_site_fract_z
Zn1	Zn	1.198892	-0.322419	1.597621
Zn2	Zn	1.698892	0.177581	2.097621
Zn3	Zn	0.935134	-0.586167	1.597629
Zn4	Zn	1.435134	-0.086167	2.097629
Zn5	Zn	0.901565	-0.355847	1.422917
Zn6	Zn	1.401565	0.144153	1.922917
Zn7	Zn	1.165308	-0.619603	1.422911
Zn8	Zn	1.665308	-0.119603	1.922911
O9	O	1.050225	-0.471009	1.510270
O10	O	1.550225	0.028991	2.010270
O11	O	1.192008	-0.329423	1.743857
O12	O	1.692008	0.170577	2.243857
O13	O	0.709920	-0.555611	1.574459
O14	O	1.209920	-0.055611	2.074459
O15	O	0.941012	-0.130650	1.446092
O16	O	1.441012	0.369350	1.946092
O17	O	0.998226	-0.523197	1.743863
O18	O	1.498226	-0.023197	2.243863
O19	O	1.159457	-0.106091	1.574446
O20	O	1.659457	0.393909	2.074446
O21	O	0.685257	-0.386396	1.446099
O22	O	1.185257	0.113604	1.946099
O23	O	0.908447	-0.418817	1.276682
O24	O	1.408447	0.081183	1.776682
O25	O	1.390524	-0.580184	1.446080
O26	O	1.890524	-0.080184	1.946080
O27	O	1.102218	-0.612598	1.276677
O28	O	1.602218	-0.112598	1.776677
O29	O	1.415198	-0.361844	1.574440
O30	O	1.915198	0.138156	2.074440
O31	O	0.965661	-0.811364	1.574453
O32	O	1.465661	-0.311364	2.074453
O33	O	1.134769	-0.835930	1.446088
O34	O	1.634769	-0.335930	1.946088
C35	C	0.998047	-0.522964	1.238762
C36	C	1.498047	-0.022964	1.738762
C37	C	0.975762	-0.545229	1.122610
C38	C	1.475762	-0.045229	1.622610
C39	C	1.640346	-0.471033	1.510276
C40	C	2.140346	0.028967	2.010276
C41	C	1.461700	-0.471028	1.510265
C42	C	1.961700	0.028972	2.010265
C43	C	1.061855	-0.459428	1.070823
C44	C	1.561855	0.040572	1.570823
C45	C	1.038825	-0.482438	0.950774
C46	C	1.538825	0.017562	1.450774
C47	C	1.050231	-0.059530	1.510261
C48	C	1.550231	0.440470	2.010261
C49	C	1.050235	0.119114	1.510261
C50	C	1.550235	0.619114	2.010261
C51	C	1.102607	-0.418852	1.782837
C52	C	1.602607	0.081148	2.282837
C53	C	1.124930	-0.396625	1.898989
C54	C	1.624930	0.103375	2.398989
H55	H	1.152606	-0.368931	1.115362
H56	H	1.652606	0.131069	1.615362
H57	H	0.948058	-0.572933	0.906239
H58	H	1.448058	-0.072933	1.406239
F59	F	1.243555	-0.278324	0.957193
F60	F	1.743555	0.221676	1.457193
F61	F	0.857125	-0.663503	1.064400
F62	F	1.357125	-0.163503	1.564400
