data_functionalizedCrystal
_audit_creation_method	'MofGen! by Chris Wilmer'
_symmetry_space_group_name_H-M	'P1'
_symmetry_Int_Tables_number	1
_symmetry_cell_setting	triclinic
loop_
_symmetry_equiv_pos_as_xyz
  x,y,z
_cell_length_a	8.497374
_cell_length_b	17.077402
_cell_length_c	17.077404
_cell_angle_alpha	89.976892
_cell_angle_beta	89.996537
_cell_angle_gamma	90.012222
loop_
_atom_site_label
_atom_site_type_symbol
_atom_site_fract_x
_atom_site_fract_y
_atom_site_fract_z
Zn1	Zn	0.891988	-0.312640	-1.199930
Zn2	Zn	1.391988	0.187360	-0.699930
Zn3	Zn	0.628173	-0.443874	-1.199874
Zn4	Zn	1.128173	0.056126	-0.699874
Zn5	Zn	0.628207	-0.312627	-1.068699
Zn6	Zn	1.128207	0.187373	-0.568699
Zn7	Zn	0.891897	-0.443868	-1.068630
Zn8	Zn	1.391897	0.056132	-0.568630
O9	O	0.760066	-0.378252	-1.134283
O10	O	1.260066	0.121748	-0.634283
O11	O	0.857016	-0.330056	-1.309770
O12	O	1.357016	0.169944	-0.809770
O13	O	0.407415	-0.426461	-1.182479
O14	O	0.907415	0.073539	-0.682479
O15	O	0.663251	-0.202782	-1.086159
O16	O	1.163251	0.297218	-0.586159
O17	O	0.663193	-0.426474	-1.309729
O18	O	1.163193	0.073526	-0.809729
O19	O	0.857049	-0.202791	-1.182574
O20	O	1.357049	0.297209	-0.682574
O21	O	0.407440	-0.330034	-1.086105
O22	O	0.907440	0.169966	-0.586105
O23	O	0.663162	-0.330028	-0.958843
O24	O	1.163162	0.169972	-0.458843
O25	O	1.112671	-0.426463	-1.086042
O26	O	1.612671	0.073537	-0.586042
O27	O	0.856894	-0.426450	-0.958792
O28	O	1.356894	0.073550	-0.458792
O29	O	1.112738	-0.330050	-1.182508
O30	O	1.612738	0.169950	-0.682508
O31	O	0.663104	-0.553720	-1.182412
O32	O	1.163104	-0.053720	-0.682412
O33	O	0.856861	-0.553716	-1.085988
O34	O	1.356861	-0.053716	-0.585988
C35	C	0.760023	-0.378238	-0.930336
C36	C	1.260023	0.121762	-0.430336
C37	C	0.760042	-0.378251	-0.843086
C38	C	1.260042	0.121749	-0.343086
C39	C	0.760003	-0.582200	-1.134208
C40	C	1.260003	-0.082200	-0.634208
C41	C	0.760029	-0.669450	-1.134247
C42	C	1.260029	-0.169450	-0.634247
C43	C	0.659248	-0.710416	-1.184506
C44	C	1.159248	-0.210416	-0.684506
C45	C	0.659289	-0.792397	-1.184545
C46	C	1.159289	-0.292397	-0.684545
C47	C	0.760103	-0.833409	-1.134319
C48	C	1.260103	-0.333409	-0.634319
C49	C	0.860895	-0.792437	-1.084058
C50	C	1.360895	-0.292437	-0.584058
C51	C	0.860861	-0.710458	-1.084024
C52	C	1.360861	-0.210458	-0.584024
C53	C	0.860955	-0.963307	-1.084130
C54	C	1.360955	-0.463307	-0.584130
C55	C	0.860986	-1.045291	-1.084163
C56	C	1.360986	-0.545291	-0.584163
C57	C	0.659382	-1.045246	-1.184651
C58	C	1.159382	-0.545246	-0.684651
C59	C	0.659349	-0.963267	-1.184618
C60	C	1.159349	-0.463267	-0.684618
C61	C	0.760139	-0.922300	-1.134355
C62	C	1.260139	-0.422300	-0.634355
C63	C	1.171547	-0.378253	-1.134278
C64	C	1.671547	0.121747	-0.634278
C65	C	1.350191	-0.378262	-1.134279
C66	C	1.850191	0.121738	-0.634279
C67	C	0.760111	-0.378267	-1.339028
C68	C	1.260111	0.121733	-0.839028
C69	C	0.760130	-0.378273	-1.426277
C70	C	1.260130	0.121727	-0.926277
C71	C	0.760164	-0.173508	-1.134381
C72	C	1.260164	0.326492	-0.634381
C73	C	0.760206	-0.086258	-1.134422
C74	C	1.260206	0.413742	-0.634422
C75	C	0.860756	-0.428533	-0.802090
C76	C	1.360756	0.071467	-0.302090
C77	C	0.860781	-0.428535	-0.720109
C78	C	1.360781	0.071465	-0.220109
C79	C	0.760083	-0.378257	-0.679126
C80	C	1.260083	0.121743	-0.179126
C81	C	0.659364	-0.327969	-0.720128
C82	C	1.159364	0.172031	-0.220128
C83	C	0.659348	-0.327964	-0.802107
C84	C	1.159348	0.172036	-0.302107
C85	C	0.659402	-0.327985	-0.549258
C86	C	1.159402	0.172015	-0.049258
C87	C	0.659416	-0.327991	-0.467273
C88	C	1.159416	0.172009	0.032727
C89	C	0.860835	-0.428556	-0.467260
C90	C	1.360835	0.071444	0.032740
C91	C	0.860819	-0.428551	-0.549239
C92	C	1.360819	0.071449	-0.049239
C93	C	0.760098	-0.378263	-0.590235
C94	C	1.260098	0.121737	-0.090235
H95	H	0.577147	-0.677029	-1.225403
H96	H	1.077147	-0.177029	-0.725403
H97	H	0.577222	-0.825748	-1.225471
H98	H	1.077222	-0.325748	-0.725471
F99	F	0.552101	-1.088846	-1.238140
F100	F	1.052101	-0.588846	-0.738140
F101	F	0.967976	-0.482053	-0.676482
F102	F	1.467976	0.017947	-0.176482
F103	F	0.967927	-0.482051	-0.845700
F104	F	1.467927	0.017949	-0.345700
F105	F	0.552203	-0.274455	-0.676509
F106	F	1.052203	0.225545	-0.176509
F107	F	0.967983	-0.482067	-0.592855
F108	F	1.467983	0.017933	-0.092855
F109	F	0.552049	-0.919620	-1.238072
F110	F	1.052049	-0.419620	-0.738072
H111	H	0.577345	-0.287015	-0.835485
H112	H	1.077345	0.212985	-0.335485
F113	F	0.552205	-0.274462	-0.592887
F114	F	1.052205	0.225538	-0.092887
H115	H	0.943108	-1.078682	-1.043279
H116	H	1.443108	-0.578682	-0.543279
F117	F	0.968130	-0.666859	-1.030533
F118	F	1.468130	-0.166859	-0.530533
H119	H	0.943034	-0.929955	-1.043203
H120	H	1.443034	-0.429955	-0.543203
H121	H	0.942850	-0.469499	-0.433878
H122	H	1.442850	0.030501	0.066122
H123	H	0.577437	-0.287041	-0.433907
H124	H	1.077437	0.212959	0.066093
H125	H	0.942986	-0.825836	-1.043166
H126	H	1.442986	-0.325836	-0.543166
