data_functionalizedCrystal
_audit_creation_method	'MofGen! by Chris Wilmer'
_symmetry_space_group_name_H-M	'P1'
_symmetry_Int_Tables_number	1
_symmetry_cell_setting	triclinic
loop_
_symmetry_equiv_pos_as_xyz
  x,y,z
_cell_length_a	17.699083
_cell_length_b	15.944551
_cell_length_c	16.176319
_cell_angle_alpha	89.992246
_cell_angle_beta	89.998611
_cell_angle_gamma	83.390877
loop_
_atom_site_label
_atom_site_type_symbol
_atom_site_fract_x
_atom_site_fract_y
_atom_site_fract_z
O1	O	1.004260	0.106222	-0.068632
O2	O	0.783905	0.120042	-0.068660
O3	O	0.900100	-0.009156	-0.068638
O4	O	0.888065	0.235419	-0.068654
O5	O	0.900084	-0.009164	0.068855
O6	O	0.783889	0.120033	0.068833
O7	O	1.004244	0.106214	0.068861
Cu8	Cu	0.894065	0.113123	0.081401
Cu9	Cu	0.894084	0.113133	-0.081200
O10	O	0.888049	0.235411	0.068839
C11	C	0.755700	0.119542	0.000083
C12	C	0.671679	0.118057	0.000073
C13	C	0.623187	0.193893	0.000068
C14	C	0.544242	0.192492	0.000079
C15	C	0.513789	0.115254	0.000089
C16	C	0.562287	0.039412	0.000096
C17	C	0.641231	0.040814	0.000091
C18	C	0.243914	0.033758	0.000117
C19	C	0.164964	0.032362	0.000119
C20	C	0.146925	0.185436	0.000105
C21	C	0.225869	0.186837	0.000100
C22	C	0.274360	0.110996	0.000112
C23	C	0.359962	0.112516	0.000102
C24	C	0.428189	0.113733	0.000093
C25	C	0.899593	-0.040453	0.000109
C26	C	0.898095	-0.133696	0.000109
C27	C	0.822492	-0.348393	0.000088
C28	C	0.857591	-0.409488	0.067885
C29	C	0.895385	-0.304416	0.000102
C30	C	0.857624	-0.409464	-0.067672
C31	C	0.892762	-0.469323	0.000092
C32	C	0.930505	-0.364283	0.067955
C33	C	0.930527	-0.364252	-0.067663
C34	C	0.965680	-0.425329	0.000150
C35	C	0.896894	-0.209417	0.000109
C36	C	0.891259	-0.564321	0.000092
C37	C	1.032450	0.106713	0.000116
C38	C	1.116471	0.108199	0.000121
C39	C	0.888557	0.266708	0.000090
C40	C	0.890055	0.359951	0.000085
N41	N	0.894058	0.113116	0.195767
N42	N	0.894098	0.113133	-0.195565
C43	C	0.945524	0.055930	0.239040
C44	C	0.945528	0.055929	0.325588
C45	C	0.894068	0.113118	0.368859
C46	C	0.842596	0.170306	0.325579
C47	C	0.842589	0.170303	0.239034
C48	C	0.842622	0.170322	0.674608
C49	C	0.842634	0.170323	0.761159
C50	C	0.945561	0.055949	0.761161
C51	C	0.945554	0.055945	0.674616
C52	C	0.894080	0.113130	0.631343
C53	C	0.894075	0.113129	0.537499
C54	C	0.894076	0.113124	0.462702
H55	H	0.250659	0.249732	0.000088
C56	C	1.047488	-0.470306	0.000214
N57	N	1.109105	-0.504185	0.000267
H58	H	0.987432	0.009364	0.203814
H59	H	0.107434	0.247189	0.000100
C60	C	0.740755	-0.303217	0.000171
N61	N	0.679193	-0.269187	0.000238
H62	H	0.826754	-0.429535	0.125194
H63	H	0.537486	-0.023476	0.000116
H64	H	0.283386	-0.027997	0.000127
C65	C	0.786017	0.233233	0.808756
N66	N	0.743375	0.280614	0.844606
C67	C	0.131468	-0.052610	0.000140
N68	N	0.106239	-0.116607	0.000158
H69	H	0.800693	0.216868	0.360816
H70	H	0.987472	0.009383	0.796403
C71	C	0.785978	0.233218	0.191433
N72	N	0.743337	0.280608	0.155581
H73	H	0.961339	-0.344183	-0.124975
C74	C	0.694572	-0.042612	0.000094
N75	N	0.734747	-0.105451	0.000098
H76	H	0.961303	-0.344360	0.125335
H77	H	0.647975	0.256789	0.000060
C78	C	0.815966	-0.436507	-0.145103
N79	N	0.784584	-0.456871	-0.203421
H80	H	0.987435	0.009364	0.360821
C81	C	0.786097	0.233336	0.627019
N82	N	0.743555	0.280840	0.591173
H83	H	0.987460	0.009379	0.639387
C84	C	0.490904	0.275918	0.000089
N85	N	0.450730	0.338758	0.000102
