data_functionalizedCrystal
_audit_creation_method	'MofGen! by Chris Wilmer'
_symmetry_space_group_name_H-M	'P1'
_symmetry_Int_Tables_number	1
_symmetry_cell_setting	triclinic
loop_
_symmetry_equiv_pos_as_xyz
  x,y,z
_cell_length_a	10.654550
_cell_length_b	8.559649
_cell_length_c	9.130313
_cell_angle_alpha	90.000859
_cell_angle_beta	89.996220
_cell_angle_gamma	77.131784
loop_
_atom_site_label
_atom_site_type_symbol
_atom_site_fract_x
_atom_site_fract_y
_atom_site_fract_z
O1	O	1.644677	0.224178	-0.121910
O2	O	1.276992	0.245536	-0.121886
O3	O	1.493228	0.002614	-0.121899
O4	O	1.428441	0.467100	-0.121898
O5	O	1.493225	0.002621	0.121700
O6	O	1.276989	0.245543	0.121713
O7	O	1.644674	0.224184	0.121688
Cu8	Cu	1.460831	0.234864	0.143943
Cu9	Cu	1.460835	0.234856	-0.144141
O10	O	1.428438	0.467107	0.121701
C11	C	1.230355	0.243972	-0.000084
C12	C	1.091396	0.239279	-0.000075
C13	C	0.997136	0.382308	-0.000096
C14	C	0.866571	0.377890	-0.000121
C15	C	0.924542	0.087401	-0.000111
C16	C	1.055103	0.091821	-0.000075
C17	C	0.963666	0.550020	-0.000108
C18	C	0.833101	0.545601	-0.000133
C19	C	1.498136	-0.056858	-0.000103
C20	C	1.512750	-0.234076	-0.000112
C21	C	1.691311	0.225749	-0.000117
C22	C	1.830270	0.230441	-0.000136
C23	C	1.423530	0.526579	-0.000098
C24	C	1.408916	0.703797	-0.000099
N25	N	1.460838	0.234869	0.346566
N26	N	1.460839	0.234839	-0.346763
C27	C	1.556605	0.127340	0.423212
C28	C	1.556604	0.127320	0.576549
C29	C	1.365062	0.342374	0.576580
C30	C	1.365060	0.342384	0.423245
C31	C	1.667194	0.003185	0.423195
C32	C	1.667192	0.003166	0.576532
H33	H	0.782193	0.596289	0.105035
C34	C	1.258920	-0.088192	-0.125335
C35	C	1.273806	-0.184996	-0.000102
H36	H	1.175504	-0.019538	-0.125340
H37	H	1.322094	-0.025478	-0.125331
H38	H	1.269045	-0.153913	-0.210269
H39	H	1.263690	-0.119275	0.084832
H40	H	1.210613	-0.247715	-0.000094
H41	H	1.131848	-0.024647	-0.000037
C42	C	0.750139	-0.048359	-0.000160
C43	C	0.884643	-0.074679	-0.000125
H44	H	0.725513	-0.148425	-0.000180
H45	H	0.716823	0.010585	0.084778
H46	H	0.716865	0.010594	-0.085119
H47	H	0.917916	-0.133622	0.084840
H48	H	0.917973	-0.133648	-0.085072
H49	H	1.754362	0.042059	0.375631
C50	C	1.135486	0.622993	-0.134889
C51	C	1.004367	0.622117	-0.142074
H52	H	1.160613	0.667492	-0.222539
H53	H	1.150481	0.685696	-0.053635
H54	H	1.184287	0.516375	-0.123644
H55	H	0.955565	0.728736	-0.153308
H56	H	0.989361	0.559415	-0.223351
C57	C	1.138873	0.433504	0.623818
C58	C	1.259788	0.460549	0.660875
H59	H	1.073883	0.506457	0.675866
H60	H	1.125175	0.448913	0.521542
H61	H	1.135555	0.326804	0.648941
H62	H	1.263111	0.567246	0.635743
H63	H	1.273491	0.445153	0.763175
H64	H	1.658424	-0.119498	0.381577
C65	C	1.521991	-0.174117	0.593340
C66	C	1.642209	-0.153366	0.640711
H67	H	1.506582	-0.270762	0.632950
H68	H	1.456722	-0.086286	0.625509
H69	H	1.521147	-0.179401	0.489430
H70	H	1.643049	-0.148070	0.744621
H71	H	1.707495	-0.241220	0.608550
H72	H	1.760879	0.030513	0.618142
H73	H	0.986220	0.615614	0.101844
H74	H	1.612835	-0.316473	-0.000107
C75	C	0.716452	0.522991	-0.221245
C76	C	0.767946	0.630890	-0.137766
H77	H	0.676224	0.575648	-0.306204
H78	H	0.783513	0.435261	-0.249542
H79	H	0.654678	0.484910	-0.164604
H80	H	0.829727	0.668962	-0.194403
H81	H	0.700877	0.718649	-0.109470
H82	H	1.287069	0.429928	0.360841
