data_functionalizedCrystal
_audit_creation_method	'MofGen! by Chris Wilmer'
_symmetry_space_group_name_H-M	'P1'
_symmetry_Int_Tables_number	1
_symmetry_cell_setting	triclinic
loop_
_symmetry_equiv_pos_as_xyz
  x,y,z
_cell_length_a	13.897448
_cell_length_b	12.759401
_cell_length_c	12.759393
_cell_angle_alpha	89.980404
_cell_angle_beta	89.967728
_cell_angle_gamma	90.017969
loop_
_atom_site_label
_atom_site_type_symbol
_atom_site_fract_x
_atom_site_fract_y
_atom_site_fract_z
Zn1	Zn	-0.383961	1.606244	-0.593970
Zn2	Zn	-0.545288	1.606126	-0.418284
Zn3	Zn	-0.384009	1.430543	-0.418309
Zn4	Zn	-0.545217	1.430526	-0.593926
O5	O	-0.464619	1.518360	-0.506122
O6	O	-0.405371	1.753250	-0.570673
O7	O	-0.523943	1.582793	-0.271266
O8	O	-0.249021	1.453907	-0.441639
O9	O	-0.523897	1.753163	-0.441597
O10	O	-0.248986	1.582994	-0.570696
O11	O	-0.405453	1.453793	-0.271284
O12	O	-0.405384	1.283520	-0.441597
O13	O	-0.523776	1.453878	-0.740952
O14	O	-0.523822	1.283507	-0.570621
O15	O	-0.405302	1.582977	-0.740985
O16	O	-0.680260	1.582776	-0.441555
O17	O	-0.680208	1.453763	-0.570598
C18	C	-0.464601	1.245393	-0.506108
C19	C	-0.464617	1.128616	-0.506126
C20	C	-0.526397	0.964044	-0.573211
C21	C	-0.526386	1.073768	-0.573200
C22	C	-0.402862	1.073734	-0.439051
C23	C	-0.402878	0.964012	-0.439058
C24	C	-0.715233	1.518283	-0.506092
C25	C	-0.822447	1.518347	-0.506114
C26	C	-1.018742	1.518457	-0.506180
C27	C	-0.909509	1.518393	-0.506146
C28	C	-0.213026	1.518466	-0.506176
C29	C	-0.105812	1.518511	-0.506198
C30	C	-0.464526	1.518439	-0.780155
C31	C	-0.464486	1.518472	-0.896932
C32	C	-0.464637	1.792393	-0.506137
C33	C	-0.464644	1.909170	-0.506144
C34	C	-0.402787	1.585699	-0.951813
C35	C	-0.402746	1.585717	-1.061537
C36	C	-0.526111	1.451278	-1.061490
C37	C	-0.526147	1.451255	-0.951768
C38	C	-0.464641	1.518342	-0.233155
C39	C	-0.464409	1.518512	-0.116379
H40	H	-0.352573	1.118401	-0.384434
F41	F	-0.592136	0.905680	-0.644607
F42	F	-0.592113	1.132164	-0.644580
F43	F	-0.337083	1.657277	-1.119940
F44	F	-0.337152	0.905608	-0.367668
F45	F	-0.337161	1.657235	-0.893456
H46	H	-0.576314	1.396554	-1.106151
F47	F	-0.591814	1.379694	-0.893357
