data_functionalizedCrystal
_audit_creation_method	'MofGen! by Chris Wilmer'
_symmetry_space_group_name_H-M	'P1'
_symmetry_Int_Tables_number	1
_symmetry_cell_setting	triclinic
loop_
_symmetry_equiv_pos_as_xyz
  x,y,z
_cell_length_a	10.723024
_cell_length_b	19.188930
_cell_length_c	9.198806
_cell_angle_alpha	89.991701
_cell_angle_beta	89.996352
_cell_angle_gamma	83.806325
loop_
_atom_site_label
_atom_site_type_symbol
_atom_site_fract_x
_atom_site_fract_y
_atom_site_fract_z
O1	O	1.655155	0.097922	-0.120901
O2	O	2.155155	0.597922	0.379099
O3	O	1.291808	0.107295	-0.120908
O4	O	1.791808	0.607295	0.379092
O5	O	1.483967	0.001021	-0.120876
O6	O	1.983967	0.501021	0.379124
O7	O	1.462996	0.204196	-0.120933
O8	O	1.962996	0.704196	0.379067
O9	O	1.483952	0.001021	0.120909
O10	O	1.983952	0.501021	0.620909
O11	O	1.291793	0.107295	0.120877
O12	O	1.791793	0.607295	0.620877
O13	O	1.655140	0.097922	0.120884
O14	O	2.155140	0.597922	0.620884
Cu15	Cu	1.473465	0.102608	0.142957
Cu16	Cu	1.973465	0.602608	0.642957
Cu17	Cu	1.473483	0.102609	-0.142982
Cu18	Cu	1.973483	0.602609	0.357018
O19	O	1.462981	0.204196	0.120852
O20	O	1.962981	0.704196	0.620852
C21	C	1.245315	0.106613	-0.000016
C22	C	1.745315	0.606613	0.499984
C23	C	1.106803	0.104572	-0.000017
C24	C	1.606803	0.604572	0.499983
C25	C	0.916362	0.041179	-0.000002
C26	C	1.416362	0.541179	0.499998
C27	C	1.059522	0.043287	-0.000001
C28	C	1.559522	0.543287	0.499999
C29	C	1.483280	-0.024995	0.000021
C30	C	1.983280	0.475005	0.500021
C31	C	1.481242	-0.102512	0.000033
C32	C	1.981242	0.397488	0.500033
C33	C	1.593994	-0.146704	0.000042
C34	C	2.093994	0.353296	0.500042
C35	C	1.592079	-0.219540	0.000019
C36	C	2.092079	0.280460	0.500019
C37	C	1.477405	-0.248182	0.000016
C38	C	1.977405	0.251818	0.500016
C39	C	1.364638	-0.203981	-0.000002
C40	C	1.864638	0.296019	0.499998
C41	C	1.366556	-0.131146	0.000007
C42	C	1.866556	0.368854	0.500007
N43	N	1.389745	-0.356756	0.082298
N44	N	1.889745	0.143244	0.582298
N45	N	1.387930	-0.425947	0.082293
N46	N	1.887930	0.074053	0.582293
C47	C	1.471618	-0.467628	-0.000014
C48	C	1.971618	0.032372	0.499986
N49	N	1.557208	-0.437506	-0.082297
N50	N	2.057208	0.062494	0.417703
N51	N	1.559026	-0.368310	-0.082285
N52	N	2.059026	0.131690	0.417715
C53	C	1.475312	-0.327158	0.000005
C54	C	1.975312	0.172842	0.500005
C55	C	1.582302	-0.590797	-0.000032
C56	C	2.082302	-0.090797	0.499968
C57	C	1.580382	-0.663634	-0.000065
C58	C	2.080382	-0.163634	0.499935
C59	C	1.352937	-0.648073	-0.000070
C60	C	1.852937	-0.148073	0.499930
C61	C	1.354860	-0.575238	-0.000053
C62	C	1.854860	-0.075238	0.499947
C63	C	1.469546	-0.546604	-0.000027
C64	C	1.969546	-0.046604	0.499973
C65	C	1.701633	0.098604	-0.000012
C66	C	2.201633	0.598604	0.499988
C67	C	1.840145	0.100645	-0.000020
C68	C	2.340145	0.600645	0.499980
C69	C	1.463668	0.230211	-0.000048
C70	C	1.963668	0.730211	0.499952
C71	C	1.465706	0.307729	-0.000070
C72	C	1.965706	0.807729	0.499930
N73	N	1.473462	0.102608	0.344071
N74	N	1.973462	0.602608	0.844071
N75	N	1.473496	0.102604	-0.344096
N76	N	1.973496	0.602604	0.155904
C77	C	1.554148	0.057789	0.416282
C78	C	2.054148	0.557789	0.916282
C79	C	1.554167	0.057787	0.583694
C80	C	2.054167	0.557787	1.083694
H81	H	1.125011	-0.007620	0.000005
H82	H	1.625011	0.492380	0.500005
H83	H	1.259567	-0.671393	-0.000080
H84	H	1.759567	-0.171393	0.499920
H85	H	1.041321	0.155482	-0.000038
H86	H	1.541321	0.655482	0.499962
Br87	Br	1.745111	-0.279525	0.000025
Br88	Br	2.245111	0.220475	0.500025
Br89	Br	1.669320	-0.006165	0.687186
Br90	Br	2.169320	0.493835	1.187186
H91	H	1.675686	-0.567482	-0.000018
H92	H	2.175686	-0.067482	0.499982
Br93	Br	0.908021	0.188105	-0.000026
Br94	Br	1.408021	0.688105	0.499974
H95	H	0.875629	-0.011292	0.000034
H96	H	1.375629	0.488708	0.500034
Br97	Br	1.358360	0.166569	0.552421
Br98	Br	1.858360	0.666569	1.052421
H99	H	1.404393	0.140974	0.406188
H100	H	1.904393	0.640974	0.906188
H101	H	1.687380	-0.123395	0.000058
H102	H	2.187380	0.376605	0.500058
Br103	Br	1.213522	-0.071168	-0.000009
Br104	Br	1.713522	0.428832	0.499991
Br105	Br	1.733417	-0.723611	-0.000068
Br106	Br	2.233417	-0.223611	0.499932
Br107	Br	1.209007	-0.242849	-0.000024
Br108	Br	1.709007	0.257151	0.499976
H109	H	1.623208	0.019418	0.354167
H110	H	2.123208	0.519418	0.854167
Br111	Br	1.201830	-0.515260	-0.000063
Br112	Br	1.701830	-0.015260	0.499937
