data_functionalizedCrystal
_audit_creation_method	'MofGen! by Chris Wilmer'
_symmetry_space_group_name_H-M	'P1'
_symmetry_Int_Tables_number	1
_symmetry_cell_setting	triclinic
loop_
_symmetry_equiv_pos_as_xyz
  x,y,z
_cell_length_a	21.295418
_cell_length_b	21.295417
_cell_length_c	21.295411
_cell_angle_alpha	90.021644
_cell_angle_beta	90.043738
_cell_angle_gamma	90.046319
loop_
_atom_site_label
_atom_site_type_symbol
_atom_site_fract_x
_atom_site_fract_y
_atom_site_fract_z
Zn1	Zn	0.962356	-0.250415	0.356234
Zn2	Zn	1.212356	-0.000415	0.606234
Zn3	Zn	1.462356	0.249585	0.856234
Zn4	Zn	1.712356	0.499585	1.106234
Zn5	Zn	0.962258	-0.355667	0.250959
Zn6	Zn	1.212258	-0.105667	0.500959
Zn7	Zn	1.462258	0.144333	0.750959
Zn8	Zn	1.712258	0.394333	1.000959
Zn9	Zn	0.857079	-0.250445	0.250943
Zn10	Zn	1.107079	-0.000445	0.500943
Zn11	Zn	1.357079	0.249555	0.750943
Zn12	Zn	1.607079	0.499555	1.000943
Zn13	Zn	0.857048	-0.355680	0.356155
Zn14	Zn	1.107048	-0.105680	0.606155
Zn15	Zn	1.357048	0.144320	0.856155
Zn16	Zn	1.607048	0.394320	1.106155
O17	O	0.909685	-0.303052	0.303573
O18	O	1.159685	-0.053052	0.553573
O19	O	1.409685	0.196948	0.803573
O20	O	1.659685	0.446948	1.053573
O21	O	1.050432	-0.264360	0.342308
O22	O	1.300432	-0.014360	0.592308
O23	O	1.550432	0.235640	0.842308
O24	O	1.800432	0.485640	1.092308
O25	O	0.948278	-0.341716	0.162867
O26	O	1.198278	-0.091716	0.412867
O27	O	1.448278	0.158284	0.662867
O28	O	1.698278	0.408284	0.912867
O29	O	0.871098	-0.162351	0.264937
O30	O	1.121098	0.087649	0.514937
O31	O	1.371098	0.337649	0.764937
O32	O	1.621098	0.587649	1.014937
O33	O	1.050361	-0.341688	0.264963
O34	O	1.300361	-0.091688	0.514963
O35	O	1.550361	0.158312	0.764963
O36	O	1.800361	0.408312	1.014963
O37	O	0.948444	-0.162330	0.342293
O38	O	1.198444	0.087670	0.592293
O39	O	1.448444	0.337670	0.842293
O40	O	1.698444	0.587670	1.092293
O41	O	0.871003	-0.264410	0.162856
O42	O	1.121003	-0.014410	0.412856
O43	O	1.371003	0.235590	0.662856
O44	O	1.621003	0.485590	0.912856
O45	O	0.768985	-0.264422	0.264861
O46	O	1.018985	-0.014422	0.514861
O47	O	1.268985	0.235578	0.764861
O48	O	1.518985	0.485578	1.014861
O49	O	0.871046	-0.341709	0.444255
O50	O	1.121046	-0.091709	0.694255
O51	O	1.371046	0.158291	0.944255
O52	O	1.621046	0.408291	1.194255
O53	O	0.768963	-0.341738	0.342160
O54	O	1.018963	-0.091738	0.592160
O55	O	1.268963	0.158262	0.842160
O56	O	1.518963	0.408262	1.092160
O57	O	0.948415	-0.264372	0.444313
O58	O	1.198415	-0.014372	0.694313
O59	O	1.448415	0.235628	0.944313
O60	O	1.698415	0.485628	1.194313
O61	O	0.948248	-0.443758	0.264887
O62	O	1.198248	-0.193758	0.514887
O63	O	1.448248	0.056242	0.764887
O64	O	1.698248	0.306242	1.014887
O65	O	0.870951	-0.443767	0.342175
O66	O	1.120951	-0.193767	0.592175
O67	O	1.370951	0.056233	0.842175
O68	O	1.620951	0.306233	1.092175
C69	C	0.746134	-0.303085	0.303500
C70	C	0.996134	-0.053085	0.553500
C71	C	1.246134	0.196915	0.803500
C72	C	1.496134	0.446915	1.053500
C73	C	0.676166	-0.303114	0.303484
C74	C	0.926166	-0.053114	0.553484
C75	C	1.176166	0.196886	0.803484
C76	C	1.426166	0.446886	1.053484
C77	C	0.643304	-0.343426	0.343674
C78	C	0.893304	-0.093426	0.593674
C79	C	1.143304	0.156574	0.843674
C80	C	1.393304	0.406574	1.093674
C81	C	0.577561	-0.343410	0.343702
C82	C	0.827561	-0.093410	0.593702
C83	C	1.077561	0.156590	0.843702
C84	C	1.327561	0.406590	1.093702
C85	C	0.544683	-0.303090	0.303530
C86	C	0.794683	-0.053090	0.553530
C87	C	1.044683	0.196910	0.803530
C88	C	1.294683	0.446910	1.053530
C89	C	0.577553	-0.262770	0.263337
C90	C	0.827553	-0.012770	0.513337
C91	C	1.077553	0.237230	0.763337
C92	C	1.327553	0.487230	1.013337
C93	C	0.643294	-0.262783	0.263315
C94	C	0.893294	-0.012783	0.513315
C95	C	1.143294	0.237217	0.763315
C96	C	1.393294	0.487217	1.013315
N97	N	0.441407	-0.298163	0.248472
N98	N	0.691407	-0.048163	0.498472
N99	N	0.941407	0.201837	0.748472
N100	N	1.191407	0.451837	0.998472
N101	N	0.378956	-0.298155	0.248495
N102	N	0.628956	-0.048155	0.498495
N103	N	0.878956	0.201845	0.748495
N104	N	1.128956	0.451845	0.998495
C105	C	0.346608	-0.303050	0.303596
C106	C	0.596608	-0.053050	0.553596
C107	C	0.846608	0.196950	0.803596
C108	C	1.096608	0.446950	1.053596
N109	N	0.379072	-0.307965	0.358675
N110	N	0.629072	-0.057965	0.608675
N111	N	0.879072	0.192035	0.858675
N112	N	1.129072	0.442035	1.108675
N113	N	0.441529	-0.307976	0.358650
N114	N	0.691529	-0.057976	0.608650
N115	N	0.941529	0.192024	0.858650
N116	N	1.191529	0.442024	1.108650
C117	C	0.473398	-0.303072	0.303550
C118	C	0.723398	-0.053072	0.553550
C119	C	0.973398	0.196928	0.803550
C120	C	1.223398	0.446928	1.053550
C121	C	0.242461	-0.343346	0.343820
C122	C	0.492461	-0.093346	0.593820
C123	C	0.742461	0.156654	0.843820
C124	C	0.992461	0.406654	1.093820
C125	C	0.176717	-0.343326	0.343849
C126	C	0.426717	-0.093326	0.593849
C127	C	0.676717	0.156674	0.843849
C128	C	0.926717	0.406674	1.093849
C129	C	0.176710	-0.262690	0.263479
C130	C	0.426710	-0.012690	0.513479
C131	C	0.676710	0.237310	0.763479
C132	C	0.926710	0.487310	1.013479
C133	C	0.242453	-0.262707	0.263455
C134	C	0.492453	-0.012707	0.513455
C135	C	0.742453	0.237293	0.763455
C136	C	0.992453	0.487293	1.013455
C137	C	0.275324	-0.303038	0.303625
C138	C	0.525324	-0.053038	0.553625
C139	C	0.775324	0.196962	0.803625
C140	C	1.025324	0.446962	1.053625
C141	C	0.909603	-0.466603	0.303538
C142	C	1.159603	-0.216603	0.553538
C143	C	1.409603	0.033397	0.803538
C144	C	1.659603	0.283397	1.053538
C145	C	0.909625	-0.536571	0.303544
C146	C	1.159625	-0.286571	0.553544
C147	C	1.409625	-0.036571	0.803544
C148	C	1.659625	0.213429	1.053544
C149	C	0.949910	-0.569412	0.263342
C150	C	1.199910	-0.319412	0.513342
C151	C	1.449910	-0.069412	0.763342
C152	C	1.699910	0.180588	1.013342
C153	C	0.949939	-0.635155	0.263356
C154	C	1.199939	-0.385155	0.513356
C155	C	1.449939	-0.135155	0.763356
C156	C	1.699939	0.114845	1.013356
C157	C	0.909673	-0.668054	0.303566
C158	C	1.159673	-0.418054	0.553566
C159	C	1.409673	-0.168054	0.803566
C160	C	1.659673	0.081946	1.053566
C161	C	0.869386	-0.635205	0.343776
C162	C	1.119386	-0.385205	0.593776
C163	C	1.369386	-0.135205	0.843776
C164	C	1.619386	0.114795	1.093776
C165	C	0.869362	-0.569464	0.343765
C166	C	1.119362	-0.319464	0.593765
C167	C	1.369362	-0.069464	0.843765
C168	C	1.619362	0.180536	1.093765
N169	N	0.854606	-0.771336	0.308340
N170	N	1.104606	-0.521336	0.558340
N171	N	1.354606	-0.271336	0.808340
N172	N	1.604606	-0.021336	1.058340
N173	N	0.854630	-0.833787	0.308347
N174	N	1.104630	-0.583787	0.558347
N175	N	1.354630	-0.333787	0.808347
N176	N	1.604630	-0.083787	1.058347
C177	C	0.909743	-0.866129	0.303602
C178	C	1.159743	-0.616129	0.553602
C179	C	1.409743	-0.366129	0.803602
C180	C	1.659743	-0.116129	1.053602
N181	N	0.964832	-0.833659	0.298838
N182	N	1.214832	-0.583659	0.548838
N183	N	1.464832	-0.333659	0.798838
N184	N	1.714832	-0.083659	1.048838
N185	N	0.964807	-0.771202	0.298828
N186	N	1.214807	-0.521202	0.548828
N187	N	1.464807	-0.271202	0.798828
N188	N	1.714807	-0.021202	1.048828
C189	C	0.909695	-0.739339	0.303582
C190	C	1.159695	-0.489339	0.553582
C191	C	1.409695	-0.239339	0.803582
C192	C	1.659695	0.010661	1.053582
C193	C	0.950063	-0.970255	0.263413
C194	C	1.200063	-0.720255	0.513413
C195	C	1.450063	-0.470255	0.763413
C196	C	1.700063	-0.220255	1.013413
C197	C	0.950094	-1.035999	0.263431
C198	C	1.200094	-0.785999	0.513431
C199	C	1.450094	-0.535999	0.763431
C200	C	1.700094	-0.285999	1.013431
C201	C	0.869535	-1.036048	0.343848
C202	C	1.119535	-0.786048	0.593848
C203	C	1.369535	-0.536048	0.843848
C204	C	1.619535	-0.286048	1.093848
C205	C	0.869510	-0.970305	0.343833
C206	C	1.119510	-0.720305	0.593833
C207	C	1.369510	-0.470305	0.843833
C208	C	1.619510	-0.220305	1.093833
C209	C	0.909773	-0.937413	0.303612
C210	C	1.159773	-0.687413	0.553612
C211	C	1.409773	-0.437413	0.803612
C212	C	1.659773	-0.187413	1.053612
C213	C	1.073876	-0.303019	0.303646
C214	C	1.323876	-0.053019	0.553646
C215	C	1.573876	0.196981	0.803646
C216	C	1.823876	0.446981	1.053646
C217	C	1.143844	-0.303005	0.303677
C218	C	1.393844	-0.053005	0.553677
C219	C	1.643844	0.196995	0.803677
C220	C	1.893844	0.446995	1.053677
C221	C	0.909738	-0.303038	0.467763
C222	C	1.159738	-0.053038	0.717763
C223	C	1.409738	0.196962	0.967763
C224	C	1.659738	0.446962	1.217763
C225	C	0.909760	-0.303033	0.537731
C226	C	1.159760	-0.053033	0.787731
C227	C	1.409760	0.196967	1.037731
C228	C	1.659760	0.446967	1.287731
C229	C	0.909785	-0.138861	0.303622
C230	C	1.159785	0.111139	0.553622
C231	C	1.409785	0.361139	0.803622
C232	C	1.659785	0.611139	1.053622
C233	C	0.909828	-0.068893	0.303642
C234	C	1.159828	0.181107	0.553642
C235	C	1.409828	0.431107	0.803642
C236	C	1.659828	0.681107	1.053642
C237	C	0.909670	-0.303019	0.140021
C238	C	1.159670	-0.053019	0.390021
C239	C	1.409670	0.196981	0.640021
C240	C	1.659670	0.446981	0.890021
C241	C	0.909769	-0.302848	0.070054
C242	C	1.159769	-0.052848	0.320054
C243	C	1.409769	0.197152	0.570054
C244	C	1.659769	0.447152	0.820054
C245	C	0.950044	-0.262761	0.570629
C246	C	1.200044	-0.012761	0.820629
C247	C	1.450044	0.237239	1.070629
C248	C	1.700044	0.487239	1.320629
C249	C	0.950043	-0.262734	0.636371
C250	C	1.200043	-0.012734	0.886371
C251	C	1.450043	0.237266	1.136371
C252	C	1.700043	0.487266	1.386371
C253	C	0.909765	-0.302989	0.669214
C254	C	1.159765	-0.052989	0.919214
C255	C	1.409765	0.197011	1.169214
C256	C	1.659765	0.447011	1.419214
C257	C	0.869473	-0.343263	0.636308
C258	C	1.119473	-0.093263	0.886308
C259	C	1.369473	0.156737	1.136308
C260	C	1.619473	0.406737	1.386308
C261	C	0.869470	-0.343285	0.570567
C262	C	1.119470	-0.093285	0.820567
C263	C	1.369470	0.156715	1.070567
C264	C	1.619470	0.406715	1.320567
N265	N	0.904908	-0.358058	0.772428
N266	N	1.154908	-0.108058	1.022428
N267	N	1.404908	0.141942	1.272428
N268	N	1.654908	0.391942	1.522428
N269	N	0.904914	-0.358036	0.834879
N270	N	1.154914	-0.108036	1.084879
N271	N	1.404914	0.141964	1.334879
N272	N	1.654914	0.391964	1.584879
C273	C	0.909769	-0.302926	0.867289
C274	C	1.159769	-0.052926	1.117289
C275	C	1.409769	0.197074	1.367289
C276	C	1.659769	0.447074	1.617289
N277	N	0.914629	-0.247837	0.834888
N278	N	1.164629	0.002163	1.084888
N279	N	1.414629	0.252163	1.334888
N280	N	1.664629	0.502163	1.584888
N281	N	0.914627	-0.247860	0.772430
N282	N	1.164627	0.002140	1.022430
N283	N	1.414627	0.252140	1.272430
N284	N	1.664627	0.502140	1.522430
C285	C	0.909763	-0.302970	0.740499
C286	C	1.159763	-0.052970	0.990499
C287	C	1.409763	0.197030	1.240499
C288	C	1.659763	0.447030	1.490499
C289	C	0.950054	-0.262621	0.971472
C290	C	1.200054	-0.012621	1.221472
C291	C	1.450054	0.237379	1.471472
C292	C	1.700054	0.487379	1.721472
C293	C	0.950049	-0.262593	1.037216
C294	C	1.200049	-0.012593	1.287216
C295	C	1.450049	0.237407	1.537216
C296	C	1.700049	0.487407	1.787216
C297	C	0.869482	-0.343128	1.037151
C298	C	1.119482	-0.093128	1.287151
C299	C	1.369482	0.156872	1.537151
C300	C	1.619482	0.406872	1.787151
C301	C	0.869484	-0.343151	0.971409
C302	C	1.119484	-0.093151	1.221409
C303	C	1.369484	0.156849	1.471409
C304	C	1.619484	0.406849	1.721409
C305	C	0.909773	-0.302898	0.938573
C306	C	1.159773	-0.052898	1.188573
C307	C	1.409773	0.197102	1.438573
C308	C	1.659773	0.447102	1.688573
H309	H	0.982696	-0.542633	0.230593
H310	H	1.232696	-0.292633	0.480593
H311	H	1.482696	-0.042633	0.730593
H312	H	1.732696	0.207367	0.980593
C313	C	0.994249	-0.671288	0.219127
C314	C	1.244249	-0.421288	0.469127
C315	C	1.494249	-0.171288	0.719127
C316	C	1.744249	0.078712	0.969127
H317	H	1.018221	-0.642282	0.195169
H318	H	1.268221	-0.392282	0.445169
H319	H	1.518221	-0.142282	0.695169
H320	H	1.768221	0.107718	0.945169
H321	H	1.021675	-0.696892	0.243240
H322	H	1.271675	-0.446892	0.493240
H323	H	1.521675	-0.196892	0.743240
H324	H	1.771675	0.053108	0.993240
H325	H	0.970180	-0.696973	0.191675
H326	H	1.220180	-0.446973	0.441675
H327	H	1.470180	-0.196973	0.691675
H328	H	1.720180	0.053027	0.941675
H329	H	0.269226	-0.376183	0.376531
H330	H	0.519226	-0.126183	0.626531
H331	H	0.769226	0.123817	0.876531
H332	H	1.019226	0.373817	1.126531
H333	H	0.982846	-0.229937	0.663162
H334	H	1.232846	0.020063	0.913162
H335	H	1.482846	0.270063	1.163162
H336	H	1.732846	0.520063	1.413162
C337	C	0.825243	-1.072226	0.388081
C338	C	1.075243	-0.822226	0.638081
C339	C	1.325243	-0.572226	0.888081
C340	C	1.575243	-0.322226	1.138081
H341	H	0.801249	-1.043248	0.412025
H342	H	1.051249	-0.793248	0.662025
H343	H	1.301249	-0.543248	0.912025
H344	H	1.551249	-0.293248	1.162025
H345	H	0.797837	-1.097919	0.363974
H346	H	1.047837	-0.847919	0.613974
H347	H	1.297837	-0.597919	0.863974
H348	H	1.547837	-0.347919	1.113974
H349	H	0.849325	-1.097825	0.415547
H350	H	1.099325	-0.847825	0.665547
H351	H	1.349325	-0.597825	0.915547
H352	H	1.599325	-0.347825	1.165547
C353	C	0.140569	-0.387680	0.388051
C354	C	0.390569	-0.137680	0.638051
C355	C	0.640569	0.112320	0.888051
C356	C	0.890569	0.362320	1.138051
H357	H	0.169564	-0.411707	0.411962
H358	H	0.419564	-0.161707	0.661962
H359	H	0.669564	0.088293	0.911962
H360	H	0.919564	0.338293	1.161962
H361	H	0.114974	-0.363647	0.415538
H362	H	0.364974	-0.113647	0.665538
H363	H	0.614974	0.136353	0.915538
H364	H	0.864974	0.386353	1.165538
H365	H	0.114873	-0.415064	0.363914
H366	H	0.364873	-0.165064	0.613914
H367	H	0.614873	0.084936	0.863914
H368	H	0.864873	0.334936	1.113914
H369	H	0.982857	-0.229842	0.944736
H370	H	1.232857	0.020158	1.194736
H371	H	1.482857	0.270158	1.444736
H372	H	1.732857	0.520158	1.694736
C373	C	0.140552	-0.218330	0.219298
C374	C	0.390552	0.031670	0.469298
C375	C	0.640552	0.281670	0.719298
C376	C	0.890552	0.531670	0.969298
H377	H	0.096692	-0.224096	0.225067
H378	H	0.346692	0.025904	0.475067
H379	H	0.596692	0.275904	0.725067
H380	H	0.846692	0.525904	0.975067
H381	H	0.151384	-0.176054	0.228591
H382	H	0.401384	0.073946	0.478591
H383	H	0.651384	0.323946	0.728591
H384	H	0.901384	0.573946	0.978591
H385	H	0.151266	-0.227481	0.176977
H386	H	0.401266	0.022519	0.426977
H387	H	0.651266	0.272519	0.676977
H388	H	0.901266	0.522519	0.926977
H389	H	0.836676	-0.376038	0.663053
H390	H	1.086676	-0.126038	0.913053
H391	H	1.336676	0.123962	1.163053
H392	H	1.586676	0.373962	1.413053
C393	C	0.825093	-0.671391	0.388004
C394	C	1.075093	-0.421391	0.638004
C395	C	1.325093	-0.171391	0.888004
C396	C	1.575093	0.078609	1.138004
H397	H	0.830872	-0.715248	0.382249
H398	H	1.080872	-0.465248	0.632249
H399	H	1.330872	-0.215248	0.882249
H400	H	1.580872	0.034752	1.132249
H401	H	0.834280	-0.660585	0.430310
H402	H	1.084280	-0.410585	0.680310
H403	H	1.334280	-0.160585	0.930310
H404	H	1.584280	0.089415	1.180310
H405	H	0.782796	-0.660670	0.378733
H406	H	1.032796	-0.410670	0.628733
H407	H	1.282796	-0.160670	0.878733
H408	H	1.532796	0.089330	1.128733
C409	C	0.278606	-0.218369	0.219243
C410	C	0.528606	0.031631	0.469243
C411	C	0.778606	0.281631	0.719243
C412	C	1.028606	0.531631	0.969243
H413	H	0.322467	-0.224147	0.224986
H414	H	0.572467	0.025853	0.474986
H415	H	0.822467	0.275853	0.724986
H416	H	1.072467	0.525853	0.974986
H417	H	0.267776	-0.227515	0.176934
H418	H	0.517776	0.022485	0.426934
H419	H	0.767776	0.272485	0.676934
H420	H	1.017776	0.522485	0.926934
H421	H	0.267884	-0.176083	0.228543
H422	H	0.517884	0.073917	0.478543
H423	H	0.767884	0.323917	0.728543
H424	H	1.017884	0.573917	0.978543
H425	H	0.836663	-0.376078	0.543782
H426	H	1.086663	-0.126078	0.793782
H427	H	1.336663	0.123922	1.043782
H428	H	1.586663	0.373922	1.293782
C429	C	0.825044	-0.533337	0.387986
C430	C	1.075044	-0.283337	0.637986
C431	C	1.325044	-0.033337	0.887986
C432	C	1.575044	0.216663	1.137986
H433	H	0.801064	-0.562344	0.411935
H434	H	1.051064	-0.312344	0.661935
H435	H	1.301064	-0.062344	0.911935
H436	H	1.551064	0.187656	1.161935
H437	H	0.849099	-0.507645	0.415438
H438	H	1.099099	-0.257645	0.665438
H439	H	1.349099	-0.007645	0.915438
H440	H	1.599099	0.242355	1.165438
H441	H	0.797615	-0.507740	0.363861
H442	H	1.047615	-0.257740	0.613861
H443	H	1.297615	-0.007740	0.863861
H444	H	1.547615	0.242260	1.113861
C445	C	0.994364	-0.218292	1.073403
C446	C	1.244364	0.031708	1.323403
C447	C	1.494364	0.281708	1.573403
C448	C	1.744364	0.531708	1.823403
H449	H	1.018361	-0.194329	1.044429
H450	H	1.268361	0.055671	1.294429
H451	H	1.518361	0.305671	1.544429
H452	H	1.768361	0.555671	1.794429
H453	H	0.970306	-0.190858	1.099032
H454	H	1.220306	0.059142	1.349032
H455	H	1.470306	0.309142	1.599032
H456	H	1.720306	0.559142	1.849032
H457	H	1.021777	-0.242366	1.099068
H458	H	1.271777	0.007634	1.349068
H459	H	1.521777	0.257634	1.599068
H460	H	1.771777	0.507634	1.849068
C461	C	0.825180	-0.387412	1.073270
C462	C	1.075180	-0.137412	1.323270
C463	C	1.325180	0.112588	1.573270
C464	C	1.575180	0.362588	1.823270
H465	H	0.830954	-0.381636	1.117136
H466	H	1.080954	-0.131636	1.367136
H467	H	1.330954	0.118364	1.617136
H468	H	1.580954	0.368364	1.867136
H469	H	0.782889	-0.378217	1.062467
H470	H	1.032889	-0.128217	1.312467
H471	H	1.282889	0.121783	1.562467
H472	H	1.532889	0.371783	1.812467
H473	H	0.834376	-0.429710	1.062499
H474	H	1.084376	-0.179710	1.312499
H475	H	1.334376	0.070290	1.562499
H476	H	1.584376	0.320290	1.812499
C477	C	0.994357	-0.934071	0.219180
C478	C	1.244357	-0.684071	0.469180
C479	C	1.494357	-0.434071	0.719180
C480	C	1.744357	-0.184071	0.969180
H481	H	1.018361	-0.963048	0.195245
H482	H	1.268361	-0.713048	0.445245
H483	H	1.518361	-0.463048	0.695245
H484	H	1.768361	-0.213048	0.945245
H485	H	0.970283	-0.908469	0.191715
H486	H	1.220283	-0.658469	0.441715
H487	H	1.470283	-0.408469	0.691715
H488	H	1.720283	-0.158469	0.941715
H489	H	1.021764	-0.908380	0.243295
H490	H	1.271764	-0.658380	0.493295
H491	H	1.521764	-0.408380	0.743295
H492	H	1.771764	-0.158380	0.993295
C493	C	0.825175	-0.387454	0.935220
C494	C	1.075175	-0.137454	1.185220
C495	C	1.325175	0.112546	1.435220
C496	C	1.575175	0.362546	1.685220
H497	H	0.801189	-0.411429	0.964193
H498	H	1.051189	-0.161429	1.214193
H499	H	1.301189	0.088571	1.464193
H500	H	1.551189	0.338571	1.714193
H501	H	0.797762	-0.363388	0.909555
H502	H	1.047762	-0.113388	1.159555
H503	H	1.297762	0.136612	1.409555
H504	H	1.547762	0.386612	1.659555
H505	H	0.849241	-0.414889	0.909591
H506	H	1.099241	-0.164889	1.159591
H507	H	1.349241	0.085111	1.409591
H508	H	1.599241	0.335111	1.659591
H509	H	0.670063	-0.376266	0.376384
H510	H	0.920063	-0.126266	0.626384
H511	H	1.170063	0.123734	0.876384
H512	H	1.420063	0.373734	1.126384
C513	C	0.994409	-1.072124	0.219206
C514	C	1.244409	-0.822124	0.469206
C515	C	1.494409	-0.572124	0.719206
C516	C	1.744409	-0.322124	0.969206
H517	H	1.018378	-1.043116	0.195248
H518	H	1.268378	-0.793116	0.445248
H519	H	1.518378	-0.543116	0.695248
H520	H	1.768378	-0.293116	0.945248
H521	H	1.021837	-1.097724	0.243321
H522	H	1.271837	-0.847724	0.493321
H523	H	1.521837	-0.597724	0.743321
H524	H	1.771837	-0.347724	0.993321
H525	H	0.970345	-1.097813	0.191754
H526	H	1.220345	-0.847813	0.441754
H527	H	1.470345	-0.597813	0.691754
H528	H	1.720345	-0.347813	0.941754
H529	H	0.550779	-0.229940	0.230630
H530	H	0.800779	0.020060	0.480630
H531	H	1.050779	0.270060	0.730630
H532	H	1.300779	0.520060	0.980630
C533	C	0.541405	-0.387718	0.387948
C534	C	0.791405	-0.137718	0.637948
C535	C	1.041405	0.112282	0.887948
C536	C	1.291405	0.362282	1.137948
H537	H	0.570398	-0.411730	0.411878
H538	H	0.820398	-0.161730	0.661878
H539	H	1.070398	0.088270	0.911878
H540	H	1.320398	0.338270	1.161878
H541	H	0.515832	-0.363640	0.415417
H542	H	0.765832	-0.113640	0.665417
H543	H	1.015832	0.136360	0.915417
H544	H	1.265832	0.386360	1.165417
H545	H	0.515688	-0.415118	0.363854
H546	H	0.765688	-0.165118	0.613854
H547	H	1.015688	0.084882	0.863854
H548	H	1.265688	0.334882	1.113854
H549	H	0.670050	-0.229954	0.230588
H550	H	0.920050	0.020046	0.480588
H551	H	1.170050	0.270046	0.730588
H552	H	1.420050	0.520046	0.980588
H553	H	0.836704	-0.943564	0.376567
H554	H	1.086704	-0.693564	0.626567
H555	H	1.336704	-0.443564	0.876567
H556	H	1.586704	-0.193564	1.126567
C557	C	0.994356	-0.218481	0.534513
C558	C	1.244356	0.031519	0.784513
C559	C	1.494356	0.281519	1.034513
C560	C	1.744356	0.531519	1.284513
H561	H	1.018344	-0.194489	0.563525
H562	H	1.268344	0.055511	0.813525
H563	H	1.518344	0.305511	1.063525
H564	H	1.768344	0.555511	1.313525
H565	H	1.021767	-0.242562	0.508884
H566	H	1.271767	0.007438	0.758884
H567	H	1.521767	0.257438	1.008884
H568	H	1.771767	0.507438	1.258884
H569	H	0.970288	-0.191062	0.508854
H570	H	1.220288	0.058938	0.758854
H571	H	1.470288	0.308938	1.008854
H572	H	1.720288	0.558938	1.258854
