data_functionalizedCrystal
_audit_creation_method	'MofGen! by Chris Wilmer'
_symmetry_space_group_name_H-M	'P1'
_symmetry_Int_Tables_number	1
_symmetry_cell_setting	triclinic
loop_
_symmetry_equiv_pos_as_xyz
  x,y,z
_cell_length_a	6.817900
_cell_length_b	17.458011
_cell_length_c	17.078481
_cell_angle_alpha	95.903756
_cell_angle_beta	99.306161
_cell_angle_gamma	106.367272
loop_
_atom_site_label
_atom_site_type_symbol
_atom_site_fract_x
_atom_site_fract_y
_atom_site_fract_z
V1	V	-3.994431	-0.110379	-0.248072
O2	O	-3.967309	0.005496	-0.242617
O3	O	-3.960837	-0.219047	-0.247080
O4	O	-3.925238	-0.108597	-0.355944
O5	O	-4.003154	-0.105719	-0.133000
V6	V	-4.478835	-0.096529	-0.234223
O7	O	-4.253757	-0.140760	-0.278451
O8	O	-4.669706	-0.066148	-0.203844
O9	O	-4.289222	0.012140	-0.235215
O10	O	-4.623354	-0.212404	-0.239678
O11	O	-4.587508	-0.101189	-0.349295
O12	O	-4.324821	-0.098311	-0.126352
C13	C	-3.810113	-0.245541	-0.243349
C14	C	-3.863794	-0.334379	-0.243256
C15	C	-4.185523	-0.834863	-0.243076
C16	C	-4.135073	-0.751392	-0.243173
C17	C	-3.927945	-0.705595	-0.239242
C18	C	-3.771256	-0.743272	-0.235206
C19	C	-3.821706	-0.826740	-0.235103
C20	C	-3.757554	-0.455524	-0.239117
C21	C	-3.707116	-0.372050	-0.239223
C22	C	-4.070936	-0.380176	-0.247189
C23	C	-4.121372	-0.463646	-0.247090
C24	C	-3.964678	-0.501315	-0.243050
N25	N	-3.876373	-0.620275	-0.239344
N26	N	-4.016249	-0.586633	-0.242942
C27	C	-3.764701	-0.104649	-0.382214
C28	C	-3.789510	-0.103911	-0.470404
C29	C	-3.983040	-0.107554	-0.515903
C30	C	-4.006339	-0.106860	-0.598767
C31	C	-3.836107	-0.102529	-0.636131
C32	C	-3.642559	-0.098884	-0.590625
C33	C	-3.619260	-0.099572	-0.507762
C34	C	-3.886284	-0.100038	-0.883518
C35	C	-3.909600	-0.099353	-0.966387
C36	C	-4.273377	-0.107327	-0.974523
C37	C	-4.250064	-0.108020	-0.891659
C38	C	-4.056517	-0.104370	-0.846160
N39	N	-3.859919	-0.101822	-0.720831
N40	N	-4.032704	-0.105071	-0.761460
C41	C	-4.103289	0.038629	-0.238945
C42	C	-4.028845	0.127466	-0.239042
C43	C	-4.148701	-0.102261	-0.100078
C44	C	-4.103131	-0.102995	-0.011887
H45	H	-4.290033	-0.500929	-0.250292
O46	O	-4.304042	-0.710749	-0.247529
H47	H	-4.310605	-0.681411	-0.302142
H48	H	-4.388688	-0.111545	-0.861243
O49	O	-4.482110	-0.111250	-1.023599
H50	H	-4.596567	-0.114380	-0.983697
O51	O	-3.677545	-0.096116	-0.834455
H52	H	-3.622422	-0.041522	-0.787690
O53	O	-3.483695	-0.322660	-0.234982
H54	H	-3.472904	-0.292952	-0.289225
O55	O	-4.408926	-0.884251	-0.247306
H56	H	-4.461535	-0.930975	-0.301831
O57	O	-4.239934	-0.339548	-0.251535
H58	H	-4.170063	-0.273812	-0.250939
O59	O	-3.726024	-0.094663	-1.006718
H60	H	-3.692277	-0.039447	-1.035459
H61	H	-3.629953	-0.486182	-0.235817
H62	H	-4.121669	-0.111086	-0.485489
O63	O	-3.458945	-0.094217	-0.630919
H64	H	-3.507662	-0.094361	-0.696185
O65	O	-3.652725	-0.867378	-0.230763
H66	H	-3.534905	-0.840906	-0.174499
H67	H	-3.602604	-0.705976	-0.232000
O68	O	-4.215063	-0.110771	-0.647841
H69	H	-4.329522	-0.113902	-0.607939
O70	O	-3.410528	-0.095649	-0.458682
H71	H	-3.296072	-0.092531	-0.498584
