data_functionalizedCrystal
_audit_creation_method	'MofGen! by Chris Wilmer'
_symmetry_space_group_name_H-M	'P1'
_symmetry_Int_Tables_number	1
_symmetry_cell_setting	triclinic
loop_
_symmetry_equiv_pos_as_xyz
  x,y,z
_cell_length_a	14.908795
_cell_length_b	25.639240
_cell_length_c	14.908308
_cell_angle_alpha	86.744551
_cell_angle_beta	90.211334
_cell_angle_gamma	93.322536
loop_
_atom_site_label
_atom_site_type_symbol
_atom_site_fract_x
_atom_site_fract_y
_atom_site_fract_z
Zn1	Zn	1.345248	-0.182877	0.587771
Zn2	Zn	1.845248	0.317123	1.087771
Zn3	Zn	1.353800	-0.265003	0.437384
Zn4	Zn	1.853800	0.234997	0.937384
Zn5	Zn	1.203562	-0.182311	0.428743
Zn6	Zn	1.703562	0.317689	0.928743
Zn7	Zn	1.194822	-0.275013	0.579003
Zn8	Zn	1.694822	0.224987	1.079003
O9	O	1.274358	-0.226301	0.508225
O10	O	1.774358	0.273699	1.008225
O11	O	1.472212	-0.189819	0.575109
O12	O	1.972212	0.310181	1.075109
O13	O	1.341107	-0.249607	0.310416
O14	O	1.841107	0.250393	0.810416
O15	O	1.222436	-0.109220	0.449891
O16	O	1.722436	0.390780	0.949891
O17	O	1.478495	-0.250156	0.464620
O18	O	1.978495	0.249844	0.964620
O19	O	1.326532	-0.109636	0.566729
O20	O	1.826532	0.390364	1.066729
O21	O	1.230728	-0.188853	0.304067
O22	O	1.730728	0.311147	0.804067
O23	O	1.076574	-0.198561	0.441389
O24	O	1.576574	0.301439	0.941389
O25	O	1.207540	-0.267218	0.705988
O26	O	1.707540	0.232782	1.205988
O27	O	1.070153	-0.266669	0.551784
O28	O	1.570153	0.233331	1.051784
O29	O	1.318057	-0.199526	0.712430
O30	O	1.818057	0.300474	1.212430
O31	O	1.332632	-0.339497	0.456117
O32	O	1.832632	0.160503	0.956117
O33	O	1.215832	-0.346852	0.560163
O34	O	1.715832	0.153148	1.060163
C35	C	1.040737	-0.233640	0.494697
C36	C	1.540737	0.266360	0.994697
C37	C	0.940792	-0.236793	0.488932
C38	C	1.440792	0.263207	0.988932
C39	C	1.274235	-0.362145	0.508148
C40	C	1.774235	0.137855	1.008148
C41	C	1.274263	-0.420258	0.508149
C42	C	1.774263	0.079742	1.008149
C43	C	0.803201	-0.272592	0.423191
C44	C	1.303201	0.227408	0.923191
C45	C	0.897109	-0.269632	0.428608
C46	C	1.397109	0.230368	0.928608
C47	C	0.890560	-0.206911	0.543840
C48	C	1.390560	0.293089	1.043840
C49	C	0.796653	-0.209871	0.538423
C50	C	1.296653	0.290129	1.038423
C51	C	0.752976	-0.242714	0.478097
C52	C	1.252976	0.257286	0.978097
C53	C	0.659067	-0.245676	0.472685
C54	C	1.159067	0.254324	0.972685
C55	C	0.652521	-0.182953	0.587913
C56	C	1.152521	0.317047	1.087913
C57	C	0.746428	-0.179993	0.593330
C58	C	1.246428	0.320007	1.093330
C59	C	1.328584	-0.780802	0.569168
C60	C	1.828584	-0.280802	1.069168
C61	C	1.328609	-0.835406	0.569188
C62	C	1.828609	-0.335406	1.069188
O63	O	1.374647	-0.863798	0.620987
O64	O	1.874647	-0.363798	1.120987
N65	N	1.274478	-0.862539	0.508319
N66	N	1.774478	-0.362539	1.008319
C67	C	1.220311	-0.835066	0.447433
C68	C	1.720311	-0.335066	0.947433
O69	O	1.174270	-0.863159	0.395662
O70	O	1.674270	-0.363159	0.895662
C71	C	1.220281	-0.780463	0.447418
C72	C	1.720281	-0.280463	0.947418
C73	C	1.274423	-0.753332	0.508285
C74	C	1.774423	-0.253332	1.008285
C75	C	1.382720	-0.753671	0.630030
C76	C	1.882720	-0.253671	1.130030
C77	C	1.382696	-0.699070	0.630009
C78	C	1.882696	-0.199070	1.130009
C79	C	1.328535	-0.671601	0.569126
C80	C	1.828535	-0.171601	1.069126
C81	C	1.274398	-0.698732	0.508264
C82	C	1.774398	-0.198732	1.008264
C83	C	1.166110	-0.752991	0.386537
C84	C	1.666110	-0.252991	0.886537
C85	C	1.166084	-0.698385	0.386528
C86	C	1.666084	-0.198385	0.886528
C87	C	1.220226	-0.671254	0.447394
C88	C	1.720226	-0.171254	0.947394
C89	C	1.220213	-0.616662	0.447359
C90	C	1.720213	-0.116662	0.947359
N91	N	1.274344	-0.589529	0.508228
N92	N	1.774344	-0.089529	1.008228
C93	C	1.328505	-0.616998	0.569111
C94	C	1.828505	-0.116998	1.069111
C95	C	1.220376	-0.949736	0.447470
C96	C	1.720376	-0.449736	0.947470
C97	C	1.220410	-1.004337	0.447480
C98	C	1.720410	-0.504337	0.947480
C99	C	1.328707	-1.004673	0.569236
C100	C	1.828707	-0.504673	1.069236
C101	C	1.328677	-0.950070	0.569221
C102	C	1.828677	-0.450070	1.069221
C103	C	1.274507	-0.922602	0.508339
C104	C	1.774507	-0.422602	1.008339
C105	C	1.328450	-0.502333	0.569061
C106	C	1.828450	-0.002333	1.069061
C107	C	1.328424	-0.447728	0.569032
C108	C	1.828424	0.052272	1.069032
C109	C	1.220123	-0.447397	0.447280
C110	C	1.720123	0.052603	0.947280
C111	C	1.220153	-0.501997	0.447305
C112	C	1.720153	-0.001997	0.947305
C113	C	1.274319	-0.529464	0.508204
C114	C	1.774319	-0.029464	1.008204
O115	O	1.174195	-0.588235	0.395589
O116	O	1.674195	-0.088235	0.895589
O117	O	1.374530	-0.588899	0.620881
O118	O	1.874530	-0.088899	1.120881
C119	C	1.508891	-0.218934	0.521806
C120	C	2.008891	0.281066	1.021806
C121	C	1.608836	-0.215794	0.527594
C122	C	2.108836	0.284206	1.027594
C123	C	1.260870	-0.234552	0.742745
C124	C	1.760870	0.265448	1.242745
C125	C	1.255122	-0.238068	0.842684
C126	C	1.755122	0.261932	1.342684
C127	C	1.274505	-0.089926	0.508324
C128	C	1.774505	0.410074	1.008324
C129	C	1.274568	-0.031812	0.508367
C130	C	1.774568	0.468188	1.008367
C131	C	1.287846	-0.218043	0.274621
C132	C	1.787846	0.281957	0.774621
C133	C	1.293768	-0.214374	0.174693
C134	C	1.793768	0.285626	0.674693
C135	C	1.359400	-0.174175	1.037188
C136	C	1.859400	0.325825	1.537188
C137	C	1.354003	-0.177477	1.131090
C138	C	1.854003	0.322523	1.631090
C139	C	1.238925	-0.247971	1.124389
C140	C	1.738925	0.252029	1.624389
C141	C	1.244322	-0.244669	1.030487
C142	C	1.744322	0.255331	1.530487
C143	C	1.304563	-0.207770	0.986891
C144	C	1.804563	0.292230	1.486891
C145	C	1.309965	-0.204472	0.892988
C146	C	1.809965	0.295528	1.392988
C147	C	1.194883	-0.274962	0.886289
C148	C	1.694883	0.225038	1.386289
C149	C	1.189485	-0.278264	0.980190
C150	C	1.689485	0.221736	1.480190
H151	H	0.623507	-0.272420	0.423568
H152	H	1.123507	0.227580	0.923568
Br153	Br	0.743920	-0.317175	0.341344
Br154	Br	1.243920	0.182825	0.841344
Br155	Br	1.146625	-0.410106	0.364655
Br156	Br	1.646625	0.089894	0.864655
H157	H	1.140437	-0.308304	1.015699
H158	H	1.640437	0.191696	1.515699
Br159	Br	1.402158	-0.913256	0.651828
Br160	Br	1.902158	-0.413256	1.151828
H161	H	1.122022	-0.775072	0.336973
H162	H	1.622022	-0.275072	0.836973
H163	H	0.937998	-0.293961	0.383896
H164	H	1.437998	0.206039	0.883896
Br165	Br	0.949851	-0.162340	0.625698
Br166	Br	1.449851	0.337660	1.125698
Br167	Br	1.402213	-1.041964	0.651864
Br168	Br	1.902213	-0.541964	1.151864
Br169	Br	0.805711	-0.135422	0.675195
Br170	Br	1.305711	0.364578	1.175195
Br171	Br	1.456171	-0.662259	0.712624
Br172	Br	1.956171	-0.162259	1.212624
H173	H	1.121970	-0.676023	0.336951
H174	H	1.621970	-0.176023	0.836951
Br175	Br	1.428424	-0.131880	1.199349
Br176	Br	1.928424	0.368120	1.699349
H177	H	0.611618	-0.158625	0.632623
H178	H	1.111618	0.341375	1.132623
Br179	Br	1.401910	-0.410910	0.651639
Br180	Br	1.901910	0.089090	1.151639
Br181	Br	1.391723	-0.154399	0.833822
Br182	Br	1.891723	0.345601	1.333822
H183	H	1.408455	-0.144134	1.001692
H184	H	1.908455	0.355866	1.501692
H185	H	1.189879	-0.278011	1.159901
H186	H	1.689879	0.221989	1.659901
Br187	Br	1.120470	-0.320566	0.818023
Br188	Br	1.620470	0.179434	1.318023
H189	H	1.426824	-0.776031	0.679614
H190	H	1.926824	-0.276031	1.179614
Br191	Br	1.401963	-0.539601	0.651708
Br192	Br	1.901963	-0.039601	1.151708
Br193	Br	1.146945	-1.041150	0.364858
Br194	Br	1.646945	-0.541150	0.864858
H195	H	1.176267	-0.927373	0.397885
H196	H	1.676267	-0.427373	0.897885
H197	H	1.176074	-0.524088	0.397736
H198	H	1.676074	-0.024088	0.897736
