data_functionalizedCrystal
_audit_creation_method	'MofGen! by Chris Wilmer'
_symmetry_space_group_name_H-M	'P1'
_symmetry_Int_Tables_number	1
_symmetry_cell_setting	triclinic
loop_
_symmetry_equiv_pos_as_xyz
  x,y,z
_cell_length_a	11.792241
_cell_length_b	12.837943
_cell_length_c	11.295483
_cell_angle_alpha	94.538773
_cell_angle_beta	94.123059
_cell_angle_gamma	90.488822
loop_
_atom_site_label
_atom_site_type_symbol
_atom_site_fract_x
_atom_site_fract_y
_atom_site_fract_z
O1	O	0.288341	-1.384055	-0.099005
O2	O	0.273757	-1.082168	-0.099012
O3	O	0.116622	-1.240437	-0.099000
O4	O	0.445476	-1.225787	-0.099017
O5	O	0.130400	-1.226536	0.099050
O6	O	0.287535	-1.068267	0.099038
O7	O	0.302119	-1.370154	0.099045
Cu8	Cu	0.296085	-1.217941	0.117125
Cu9	Cu	0.279791	-1.234381	-0.117092
O10	O	0.459254	-1.211885	0.099033
C11	C	0.275719	-1.036570	0.000012
C12	C	0.261025	-0.921410	0.000010
C13	C	0.081127	-1.232566	0.000025
C14	C	-0.045167	-1.229812	0.000023
N15	N	0.307545	-1.206386	0.281860
C16	C	-0.276394	-1.224748	0.000003
C17	C	-0.147723	-1.227561	0.000014
C18	C	0.494749	-1.219756	0.000006
C19	C	0.621042	-1.222512	-0.000001
C20	C	0.300157	-1.415753	0.000018
C21	C	0.314850	-1.530913	0.000013
C22	C	0.437671	-0.681444	0.000018
C23	C	0.423870	-0.573241	0.000016
C24	C	0.219624	-0.596797	0.000014
C25	C	0.233425	-0.705001	0.000016
C26	C	0.342452	-0.747320	0.000016
C27	C	0.356251	-0.855526	0.000008
C28	C	0.152006	-0.879080	0.000015
C29	C	0.138205	-0.770877	0.000013
N30	N	0.268322	-1.245945	-0.281827
C31	C	0.185760	-1.329126	0.531159
C32	C	0.194430	-1.320401	0.655822
C33	C	0.333547	-1.180207	0.655852
C34	C	0.324878	-1.188932	0.531189
C35	C	0.250983	-1.263395	0.468847
C36	C	0.242320	-1.272124	0.344181
C37	C	0.381431	-1.131925	0.344213
C38	C	0.390100	-1.123200	0.468876
H39	H	0.526445	-0.715901	0.000016
H40	H	0.182155	-1.332758	0.293424
H41	H	0.501409	-0.519607	0.000021
C42	C	0.166767	-1.479983	0.390971
C43	C	0.104564	-1.411004	0.462643
H44	H	0.116644	-1.530542	0.348685
H45	H	0.204340	-1.442082	0.336009
H46	H	0.221493	-1.514119	0.439618
H47	H	0.049844	-1.376862	0.413994
H48	H	0.066973	-1.448909	0.517611
H49	H	0.049439	-0.736404	0.000027
H50	H	0.141318	-1.373924	0.706553
H51	H	0.393702	-1.119573	0.706627
H52	H	0.450261	-1.062571	0.519649
H53	H	0.434543	-1.078406	0.293464
H54	H	0.445026	-0.889980	0.000010
H55	H	0.130866	-0.562315	0.000112
H56	H	0.074471	-0.932729	0.000005
