data_functionalizedCrystal
_audit_creation_method	'MofGen! by Chris Wilmer'
_symmetry_space_group_name_H-M	'P1'
_symmetry_Int_Tables_number	1
_symmetry_cell_setting	triclinic
loop_
_symmetry_equiv_pos_as_xyz
  x,y,z
_cell_length_a	17.019282
_cell_length_b	17.019294
_cell_length_c	15.500227
_cell_angle_alpha	88.951630
_cell_angle_beta	91.034464
_cell_angle_gamma	83.655696
loop_
_atom_site_label
_atom_site_type_symbol
_atom_site_fract_x
_atom_site_fract_y
_atom_site_fract_z
O1	O	1.046640	0.100371	-0.001416
O2	O	1.546640	0.600371	0.498584
O3	O	0.817876	0.112284	-0.019354
O4	O	1.317876	0.612284	0.480646
O5	O	0.938207	-0.008055	-0.001416
O6	O	1.438207	0.491945	0.498584
O7	O	0.926309	0.220711	-0.019354
O8	O	1.426309	0.720711	0.480646
O9	O	0.930905	-0.000782	0.141386
O10	O	1.430905	0.499218	0.641386
O11	O	0.810574	0.119558	0.123448
O12	O	1.310574	0.619558	0.623448
O13	O	1.039338	0.107645	0.141386
O14	O	1.539338	0.607645	0.641386
Cu15	Cu	0.924289	0.114266	0.145456
Cu16	Cu	1.424289	0.614266	0.645456
Cu17	Cu	0.932925	0.105664	-0.023424
Cu18	Cu	1.432925	0.605664	0.476576
O19	O	0.919007	0.227985	0.123448
O20	O	1.419007	0.727985	0.623448
C21	C	0.784946	0.115328	0.049909
C22	C	1.284946	0.615328	0.549909
C23	C	0.697702	0.113551	0.043538
C24	C	1.197702	0.613551	0.543538
C25	C	0.652740	0.116679	0.118389
C26	C	1.152740	0.616679	0.618389
C27	C	0.570767	0.114996	0.112407
C28	C	1.070767	0.614996	0.612407
C29	C	0.533757	0.110191	0.031573
C30	C	1.033757	0.610191	0.531573
C31	C	0.578726	0.107061	-0.043283
C32	C	1.078726	0.607061	0.456717
C33	C	0.660699	0.108737	-0.037300
C34	C	1.160699	0.608737	0.462700
C35	C	0.286454	0.104925	0.009613
C36	C	0.786454	0.604925	0.509613
C37	C	0.204475	0.103250	0.003635
C38	C	0.704475	0.603250	0.503635
C39	C	0.196521	0.111185	0.159327
C40	C	0.696521	0.611185	0.659327
C41	C	0.278495	0.112866	0.165302
C42	C	0.778495	0.612866	0.665302
C43	C	0.323457	0.109731	0.090446
C44	C	0.823457	0.609731	0.590446
C45	C	0.449967	0.108474	0.025456
C46	C	0.949967	0.608474	0.525456
C47	C	0.407246	0.111443	0.096565
C48	C	0.907246	0.611443	0.596565
C49	C	0.933961	-0.033698	0.072121
C50	C	1.433961	0.466302	0.572121
C51	C	0.932179	-0.120943	0.078485
C52	C	1.432179	0.379057	0.578485
C53	C	0.935323	-0.165891	0.003635
C54	C	1.435323	0.334109	0.503635
C55	C	0.933643	-0.247865	0.009617
C56	C	1.433643	0.252135	0.509617
C57	C	0.928824	-0.284891	0.090451
C58	C	1.428824	0.215109	0.590451
C59	C	0.925677	-0.239937	0.165307
C60	C	1.425677	0.260063	0.665307
C61	C	0.927351	-0.157963	0.159324
C62	C	1.427351	0.342037	0.659324
C63	C	0.923563	-0.532200	0.112412
C64	C	1.423563	-0.032200	0.612412
C65	C	0.921891	-0.614180	0.118390
C66	C	1.421891	-0.114180	0.618390
C67	C	0.929856	-0.622103	-0.037302
C68	C	1.429856	-0.122103	0.462698
C69	C	0.931535	-0.540128	-0.043278
C70	C	1.431535	-0.040128	0.456722
C71	C	0.928384	-0.495180	0.031578
C72	C	1.428384	0.004820	0.531578
C73	C	0.927109	-0.368682	0.096568
C74	C	1.427109	0.131318	0.596568
C75	C	0.930093	-0.411390	0.025460
C76	C	1.430093	0.088610	0.525460
C77	C	1.072269	0.104601	0.072121
C78	C	1.572269	0.604601	0.572121
C79	C	1.159512	0.106378	0.078486
C80	C	1.659512	0.606378	0.578486
C81	C	0.923253	0.253628	0.049909
C82	C	1.423253	0.753628	0.549909
C83	C	0.925036	0.340872	0.043539
C84	C	1.425036	0.840872	0.543539
N85	N	0.918221	0.120316	0.264238
N86	N	1.418221	0.620316	0.764238
N87	N	0.938999	0.099608	-0.142205
N88	N	1.438999	0.599608	0.357795
C89	C	0.969228	0.069342	0.317115
C90	C	1.469228	0.569342	0.817115
C91	C	0.964646	0.073925	0.407005
C92	C	1.464646	0.573925	0.907005
C93	C	0.909061	0.129485	0.444016
C94	C	1.409061	0.629485	0.944016
C95	C	0.858049	0.180461	0.391131
C96	C	1.358049	0.680461	0.891131
C97	C	0.862628	0.175874	0.301243
C98	C	1.362628	0.675874	0.801243
C99	C	0.892566	0.145996	0.715022
C100	C	1.392566	0.645996	1.215022
C101	C	0.887993	0.150581	0.804917
C102	C	1.387993	0.650581	1.304917
C103	C	0.994589	0.044044	0.820785
C104	C	1.494589	0.544044	1.320785
C105	C	0.999166	0.039465	0.730895
C106	C	1.499166	0.539465	1.230895
C107	C	0.948152	0.090437	0.678018
C108	C	1.448152	0.590437	1.178018
C109	C	0.904378	0.134172	0.535897
C110	C	1.404378	0.634172	1.035897
C111	C	0.952832	0.085746	0.586138
C112	C	1.452832	0.585746	1.086138
H113	H	0.534163	0.117530	0.173360
H114	H	1.034163	0.617530	0.673360
H115	H	0.682865	0.120598	0.184213
H116	H	1.182865	0.620598	0.684213
H117	H	1.044428	-0.005777	0.700763
H118	H	1.544428	0.494223	1.200763
F119	F	0.920539	-0.279343	0.251337
F120	F	1.420539	0.220657	0.751337
F121	F	0.410576	0.103333	-0.060569
F122	F	0.910576	0.603333	0.439431
H123	H	0.821092	0.217381	0.258190
H124	H	1.321092	0.717381	0.758190
H125	H	0.308622	0.116775	0.231127
H126	H	0.808622	0.616775	0.731127
F127	F	0.935224	-0.371983	-0.060567
F128	F	1.435224	0.128017	0.439433
H129	H	0.159904	0.113735	0.220270
H130	H	0.659904	0.613735	0.720270
H131	H	0.917963	-0.644323	0.184218
H132	H	1.417963	-0.144323	0.684218
H133	H	0.924779	-0.121365	0.220275
H134	H	1.424779	0.378635	0.720275
F135	F	0.165089	0.098138	-0.082404
F136	F	0.665089	0.598138	0.417596
F137	F	0.940458	-0.126493	-0.082401
F138	F	1.440458	0.373507	0.417599
H139	H	0.548588	0.103143	-0.109100
H140	H	1.048588	0.603143	0.390900
F141	F	0.838275	0.200247	0.658754
F142	F	1.338275	0.700247	1.158754
H143	H	0.932421	-0.658708	-0.098245
H144	H	1.432421	-0.158708	0.401755
H145	H	0.697306	0.106192	-0.098252
H146	H	1.197306	0.606192	0.401748
F147	F	0.334296	0.101589	-0.070056
F148	F	0.834296	0.601589	0.429944
H149	H	0.437383	0.115351	0.162380
H150	H	0.937383	0.615351	0.662380
H151	H	1.006179	0.032418	0.450058
H152	H	1.506179	0.532418	0.950058
H153	H	0.936207	-0.284459	-0.051335
H154	H	1.436207	0.215541	0.448665
F155	F	0.921977	-0.408095	0.182596
F156	F	1.421977	0.091905	0.682596
F157	F	0.936666	-0.500729	-0.129313
F158	F	1.436666	-0.000729	0.370687
H159	H	0.842727	0.195828	0.835046
H160	H	1.342727	0.695828	1.335046
H161	H	0.812786	0.225697	0.421270
H162	H	1.312786	0.725697	0.921270
H163	H	0.998086	0.040506	0.556002
H164	H	1.498086	0.540506	1.056002
F165	F	0.920199	-0.484372	0.192080
F166	F	1.420199	0.015628	0.692080
H167	H	1.014494	0.024102	0.286988
H168	H	1.514494	0.524102	0.786988
H169	H	1.036122	0.002543	0.863845
H170	H	1.536122	0.502543	1.363845
H171	H	0.859120	0.179412	0.566038
H172	H	1.359120	0.679412	1.066038
