data_functionalizedCrystal
_audit_creation_method	'MofGen! by Chris Wilmer'
_symmetry_space_group_name_H-M	'P1'
_symmetry_Int_Tables_number	1
_symmetry_cell_setting	triclinic
loop_
_symmetry_equiv_pos_as_xyz
  x,y,z
_cell_length_a	16.120530
_cell_length_b	18.050590
_cell_length_c	16.120256
_cell_angle_alpha	92.872767
_cell_angle_beta	90.128265
_cell_angle_gamma	87.114013
loop_
_atom_site_label
_atom_site_type_symbol
_atom_site_fract_x
_atom_site_fract_y
_atom_site_fract_z
Zn1	Zn	1.247477	-0.376264	-0.534555
Zn2	Zn	1.580810	-0.042931	-0.201222
Zn3	Zn	1.914144	0.290402	0.132111
Zn4	Zn	1.254440	-0.494486	-0.395493
Zn5	Zn	1.587773	-0.161152	-0.062160
Zn6	Zn	1.921106	0.172181	0.271173
Zn7	Zn	1.115466	-0.363711	-0.388473
Zn8	Zn	1.448800	-0.030377	-0.055140
Zn9	Zn	1.782133	0.302956	0.278194
Zn10	Zn	1.108396	-0.493805	-0.527463
Zn11	Zn	1.441729	-0.160472	-0.194130
Zn12	Zn	1.775062	0.172861	0.139203
O13	O	1.181445	-0.432067	-0.461496
O14	O	1.514778	-0.098733	-0.128163
O15	O	1.848111	0.234600	0.205170
O16	O	1.364767	-0.397485	-0.522014
O17	O	1.698101	-0.064152	-0.188681
O18	O	2.031434	0.269182	0.144652
O19	O	1.241877	-0.472169	-0.278196
O20	O	1.575211	-0.138836	0.055137
O21	O	1.908544	0.194497	0.388470
O22	O	1.133023	-0.261455	-0.407881
O23	O	1.466356	0.071879	-0.074548
O24	O	1.799690	0.405212	0.258786
O25	O	1.369883	-0.484342	-0.419846
O26	O	1.703216	-0.151008	-0.086513
O27	O	2.036549	0.182325	0.246820
O28	O	1.230011	-0.270678	-0.515207
O29	O	1.563344	0.062656	-0.181874
O30	O	1.896677	0.395989	0.151460
O31	O	1.139774	-0.376089	-0.273038
O32	O	1.473107	-0.042756	0.060295
O33	O	1.806441	0.290577	0.393628
O34	O	0.998161	-0.375430	-0.401004
O35	O	1.331495	-0.042096	-0.067671
O36	O	1.664828	0.291237	0.265662
O37	O	1.120972	-0.483182	-0.644770
O38	O	1.454306	-0.149849	-0.311436
O39	O	1.787639	0.183484	0.021897
O40	O	0.992967	-0.471010	-0.503120
O41	O	1.326300	-0.137676	-0.169786
O42	O	1.659634	0.195657	0.163547
O43	O	1.223155	-0.396825	-0.649980
O44	O	1.556488	-0.063492	-0.316647
O45	O	1.889821	0.269841	0.016686
O46	O	1.235021	-0.598317	-0.412969
O47	O	1.568355	-0.264983	-0.079636
O48	O	1.901688	0.068350	0.253697
O49	O	1.127724	-0.597817	-0.509927
O50	O	1.461057	-0.264484	-0.176594
O51	O	1.794390	0.068850	0.156740
C52	C	0.965392	-0.421784	-0.450531
C53	C	1.298725	-0.088451	-0.117198
C54	C	1.632058	0.244882	0.216136
C55	C	0.872962	-0.417404	-0.445860
C56	C	1.206295	-0.084071	-0.112527
C57	C	1.539629	0.249263	0.220807
C58	C	0.703732	-0.409390	-0.437339
C59	C	1.037065	-0.076057	-0.104005
C60	C	1.370398	0.257277	0.229328
C61	C	0.659995	-0.454800	-0.485714
C62	C	0.993328	-0.121467	-0.152381
C63	C	1.326662	0.211866	0.180952
C64	C	0.565829	-0.450341	-0.480973
C65	C	0.899163	-0.117008	-0.147640
C66	C	1.232496	0.216325	0.185694
C67	C	0.797906	-0.413848	-0.442079
C68	C	1.131239	-0.080515	-0.108746
C69	C	1.464573	0.252819	0.224588
C70	C	1.181382	-0.625014	-0.461460
C71	C	1.514716	-0.291681	-0.128126
C72	C	1.848049	0.041652	0.205207
C73	C	1.181430	-0.707563	-0.461476
C74	C	1.514764	-0.374230	-0.128143
C75	C	1.848097	-0.040896	0.205191
C76	C	1.239891	-0.907267	-0.408834
C77	C	1.573224	-0.573934	-0.075500
C78	C	1.906557	-0.240600	0.257833
C79	C	1.256356	-0.960823	-0.485756
C80	C	1.589689	-0.627489	-0.152422
C81	C	1.923022	-0.294156	0.180911
C82	C	1.181476	-0.858697	-0.461511
C83	C	1.514809	-0.525364	-0.128178
C84	C	1.848143	-0.192030	0.205155
C85	C	1.165094	-0.952229	-0.384628
C86	C	1.498427	-0.618895	-0.051294
C87	C	1.831760	-0.285562	0.282039
C88	C	1.181522	-1.004685	-0.461539
C89	C	1.514855	-0.671352	-0.128206
C90	C	1.848188	-0.338019	0.205127
C91	C	1.197978	-0.911169	-0.538475
C92	C	1.531311	-0.577835	-0.205142
C93	C	1.864645	-0.244502	0.128191
C94	C	1.106683	-0.902566	-0.437294
C95	C	1.440017	-0.569233	-0.103961
C96	C	1.773350	-0.235900	0.229372
C97	C	1.123117	-0.956100	-0.514267
C98	C	1.456450	-0.622767	-0.180934
C99	C	1.789784	-0.289434	0.152399
C100	C	1.181452	-0.774597	-0.461494
C101	C	1.514785	-0.441263	-0.128161
C102	C	1.848118	-0.107930	0.205172
C103	C	1.181546	-1.088784	-0.461565
C104	C	1.514879	-0.755451	-0.128231
C105	C	1.848212	-0.422117	0.205102
C106	C	1.398341	-0.442390	-0.472505
C107	C	1.731675	-0.109056	-0.139171
C108	C	2.065008	0.224277	0.194162
C109	C	1.490770	-0.446789	-0.477196
C110	C	1.824103	-0.113455	-0.143862
C111	C	2.157436	0.219878	0.189471
C112	C	1.170498	-0.441328	-0.678391
C113	C	1.503832	-0.107995	-0.345058
C114	C	1.837165	0.225338	-0.011724
C115	C	1.165834	-0.445275	-0.770819
C116	C	1.499167	-0.111942	-0.437485
C117	C	1.832500	0.221392	-0.104152
C118	C	1.181529	-0.238367	-0.461552
C119	C	1.514862	0.094966	-0.128219
C120	C	1.848196	0.428299	0.205115
C121	C	1.181565	-0.155824	-0.461576
C122	C	1.514898	0.177509	-0.128243
C123	C	1.848231	0.510843	0.205091
C124	C	1.205769	-0.411465	-0.983804
C125	C	1.539102	-0.078132	-0.650470
C126	C	1.872436	0.255201	-0.317137
C127	C	1.157289	-0.452449	-0.940038
C128	C	1.490622	-0.119115	-0.606705
C129	C	1.823956	0.214218	-0.273372
C130	C	1.162045	-0.448456	-0.845876
C131	C	1.495378	-0.115123	-0.512542
C132	C	1.828711	0.218211	-0.179209
C133	C	1.201015	-0.415457	-1.077975
C134	C	1.534348	-0.082124	-0.744642
C135	C	1.867681	0.251209	-0.411308
C136	C	1.192396	-0.422790	-0.245448
C137	C	1.525730	-0.089456	0.087886
C138	C	1.859063	0.243877	0.421219
C139	C	1.197222	-0.418641	-0.153029
C140	C	1.530555	-0.085308	0.180305
C141	C	1.863889	0.248025	0.513638
H142	H	0.693271	-0.497025	-0.530692
H143	H	1.026605	-0.163692	-0.197358
H144	H	1.359938	0.169642	0.135975
Br145	Br	0.648272	-0.339015	-0.362379
Br146	Br	0.981605	-0.005681	-0.029046
Br147	Br	1.314938	0.327652	0.304287
H148	H	1.289303	-0.885822	-0.364335
H149	H	1.622636	-0.552488	-0.031002
H150	H	1.955970	-0.219155	0.302332
H151	H	1.319625	-0.986266	-0.506256
H152	H	1.652959	-0.652933	-0.172922
H153	H	1.986292	-0.319600	0.160411
H154	H	1.211787	-0.893084	-0.603559
H155	H	1.545120	-0.559750	-0.270225
H156	H	1.878454	-0.226417	0.063108
H157	H	1.112208	-0.490530	-0.973288
H158	H	1.445541	-0.157196	-0.639955
H159	H	1.778875	0.176137	-0.306621
H160	H	1.043433	-0.877107	-0.416773
H161	H	1.376767	-0.543773	-0.083440
H162	H	1.710100	-0.210440	0.249894
Br163	Br	1.141967	-0.982527	-0.276241
Br164	Br	1.475300	-0.649194	0.057093
Br165	Br	1.808634	-0.315861	0.390426
H166	H	1.250842	-0.373384	-0.950556
H167	H	1.584176	-0.040050	-0.617222
H168	H	1.917509	0.293283	-0.283889
H169	H	1.073735	-0.977415	-0.558881
H170	H	1.407068	-0.644082	-0.225548
H171	H	1.740401	-0.310748	0.107785
