data_functionalizedCrystal
_audit_creation_method	'MofGen! by Chris Wilmer'
_symmetry_space_group_name_H-M	'P1'
_symmetry_Int_Tables_number	1
_symmetry_cell_setting	triclinic
loop_
_symmetry_equiv_pos_as_xyz
  x,y,z
_cell_length_a	27.354012
_cell_length_b	27.353283
_cell_length_c	27.349551
_cell_angle_alpha	60.005606
_cell_angle_beta	60.011434
_cell_angle_gamma	59.993282
loop_
_atom_site_label
_atom_site_type_symbol
_atom_site_fract_x
_atom_site_fract_y
_atom_site_fract_z
O1	O	0.067635	-0.714267	0.597330
O2	O	0.567635	-0.214267	1.097330
O3	O	0.025429	-0.556105	0.481282
O4	O	0.525429	-0.056105	0.981282
O5	O	0.125575	-0.656186	0.481214
O6	O	0.625575	-0.156186	0.981214
O7	O	-0.032512	-0.614186	0.597397
O8	O	0.467488	-0.114186	1.097397
O9	O	0.158797	-0.622968	0.514367
O10	O	0.658797	-0.122968	1.014367
O11	O	0.058650	-0.522887	0.514434
O12	O	0.558650	-0.022887	1.014434
O13	O	0.100856	-0.681048	0.630482
O14	O	0.600856	-0.181048	1.130482
Zn15	Zn	0.085028	-0.596693	0.577722
Zn16	Zn	0.585028	-0.096693	1.077722
Zn17	Zn	0.041257	-0.640460	0.534042
Zn18	Zn	0.541257	-0.140460	1.034042
O19	O	0.000709	-0.580967	0.630549
O20	O	0.500709	-0.080967	1.130549
N21	N	0.114901	-0.566828	0.607534
N22	N	0.614901	-0.066828	1.107534
N23	N	0.011389	-0.670331	0.504229
N24	N	0.511389	-0.170331	1.004229
C25	C	0.179404	-0.338196	0.672015
C26	C	0.679404	0.161804	1.172015
C27	C	0.179501	-0.502386	0.836160
C28	C	0.679501	-0.002386	1.336160
C29	C	0.179415	-0.502363	0.671996
C30	C	0.679415	-0.002363	1.171996
C31	C	0.343611	-0.502373	0.671960
C32	C	0.843611	-0.002373	1.171960
C33	C	0.197478	-0.392371	0.690061
C34	C	0.697478	0.107629	1.190061
C35	C	0.197534	-0.484321	0.781984
C36	C	0.697534	0.015679	1.281984
C37	C	0.289434	-0.484312	0.690032
C38	C	0.789434	0.015688	1.190032
C39	C	0.197486	-0.484308	0.690051
C40	C	0.697486	0.015692	1.190051
C41	C	0.156398	-0.269238	0.649045
C42	C	0.656398	0.230762	1.149045
C43	C	0.156418	-0.525342	0.649015
C44	C	0.656418	-0.025342	1.149015
C45	C	0.220484	-0.461329	0.713032
C46	C	0.720484	0.038671	1.213032
C47	C	0.443889	-0.485097	0.619172
C48	C	0.943889	0.014903	1.119172
C49	C	0.506571	-0.505993	0.598266
C50	C	1.006571	-0.005993	1.098266
C51	C	0.506589	-0.607412	0.636940
C52	C	1.006589	-0.107412	1.136940
C53	C	0.443909	-0.586515	0.657848
C54	C	0.943909	-0.086515	1.157848
C55	C	0.171510	-0.237888	0.587422
C56	C	0.671510	0.262112	1.087422
C57	C	0.150593	-0.175201	0.566543
C58	C	0.650593	0.324799	1.066543
C59	C	0.099458	-0.175218	0.668913
C60	C	0.599458	0.324782	1.168913
C61	C	0.120375	-0.237905	0.689792
C62	C	0.620375	0.262095	1.189792
C63	C	0.094789	-0.510201	0.664176
C64	C	0.594789	-0.010201	1.164176
C65	C	0.073888	-0.531091	0.643278
C66	C	0.573888	-0.031091	1.143278
C67	C	0.176239	-0.582263	0.592072
C68	C	0.676239	-0.082263	1.092072
C69	C	0.197142	-0.561373	0.612963
C70	C	0.697142	-0.061373	1.112963
C71	C	0.094933	-0.510244	0.936476
C72	C	0.594933	-0.010244	1.436476
C73	C	0.074073	-0.531151	0.999161
C74	C	0.574073	-0.031151	1.499161
C75	C	0.176453	-0.582335	0.999126
C76	C	0.676453	-0.082335	1.499126
C77	C	0.197312	-0.561429	0.936439
C78	C	0.697312	-0.061429	1.436439
C79	C	0.156551	-0.525382	0.905116
C80	C	0.656551	-0.025382	1.405116
C81	C	0.412561	-0.525357	0.648961
C82	C	0.912561	-0.025357	1.148961
C83	C	-0.098513	-0.688235	0.485867
C84	C	0.401487	-0.188235	0.985867
C85	C	-0.006461	-0.688368	0.394066
C86	C	0.493539	-0.188368	0.894066
C87	C	-0.006645	-0.780264	0.486040
C88	C	0.493355	-0.280264	0.986040
C89	C	-0.006630	-0.688361	0.486097
C90	C	0.493370	-0.188361	0.986097
C91	C	-0.029562	-0.711308	0.463018
C92	C	0.470438	-0.211308	0.963018
N93	N	0.537030	-0.566846	0.607436
N94	N	1.037030	-0.066846	1.107436
O95	O	0.741877	-0.576849	0.459995
O96	O	1.241877	-0.076849	0.959995
O97	O	0.742050	-0.693241	0.618010
O98	O	1.242050	-0.193241	1.118010
O99	O	0.741986	-0.692977	0.517791
O100	O	1.241986	-0.192977	1.017791
O101	O	0.741941	-0.577114	0.560214
O102	O	1.241941	-0.077114	1.060214
O103	O	0.642405	-0.659839	0.551046
O104	O	1.142405	-0.159839	1.051046
O105	O	0.642469	-0.660104	0.651265
O106	O	1.142469	-0.160104	1.151265
O107	O	0.642296	-0.543712	0.493251
O108	O	1.142296	-0.043712	0.993251
Zn109	Zn	0.626572	-0.596646	0.577538
Zn110	Zn	1.126572	-0.096646	1.077538
Zn111	Zn	0.757774	-0.640307	0.533723
Zn112	Zn	1.257774	-0.140307	1.033723
O113	O	0.642360	-0.543976	0.593469
O114	O	1.142360	-0.043976	1.093469
N115	N	0.847316	-0.670107	0.503818
N116	N	1.347316	-0.170107	1.003818
N117	N	0.114877	-0.144758	0.607577
N118	N	0.614877	0.355242	1.107577
O119	O	-0.032498	0.060193	0.597441
O120	O	0.467502	0.560193	1.097441
O121	O	0.125523	0.060193	0.481067
O122	O	0.625523	0.560193	0.981067
O123	O	0.025289	0.060179	0.481345
O124	O	0.525289	0.560179	0.981345
O125	O	0.067736	0.060207	0.597163
O126	O	0.567736	0.560207	1.097163
O127	O	0.058511	-0.039410	0.514543
O128	O	0.558511	0.460590	1.014543
O129	O	0.158745	-0.039397	0.514265
O130	O	0.658745	0.460603	1.014265
O131	O	0.000724	-0.039396	0.630638
O132	O	0.500724	0.460604	1.130638
Zn133	Zn	0.085009	-0.055208	0.577722
Zn134	Zn	0.585009	0.444792	1.077722
Zn135	Zn	0.041238	0.076005	0.533983
Zn136	Zn	0.541238	0.576005	1.033983
O137	O	0.100958	-0.039382	0.630360
O138	O	0.600958	0.460618	1.130360
N139	N	0.011362	0.165555	0.504130
N140	N	0.511362	0.665555	1.004130
N141	N	0.115121	-0.566884	1.029592
N142	N	0.615121	-0.066884	1.529592
O143	O	0.104990	-0.714248	1.234528
O144	O	0.604990	-0.214248	1.734528
O145	O	-0.011371	-0.556177	1.234539
O146	O	0.488629	-0.056177	1.734539
O147	O	-0.011103	-0.656395	1.234497
O148	O	0.488897	-0.156395	1.734497
O149	O	0.104722	-0.614030	1.234569
O150	O	0.604722	-0.114030	1.734569
O151	O	0.022090	-0.623190	1.134913
O152	O	0.522090	-0.123190	1.634913
O153	O	0.021822	-0.522972	1.134954
O154	O	0.521822	-0.022972	1.634954
O155	O	0.138182	-0.681044	1.134943
O156	O	0.638182	-0.181044	1.634943
Zn157	Zn	0.085272	-0.596736	1.119137
Zn158	Zn	0.585272	-0.096736	1.619137
Zn159	Zn	0.041539	-0.640484	1.250344
Zn160	Zn	0.541539	-0.140484	1.750344
O161	O	0.137914	-0.580826	1.134984
O162	O	0.637914	-0.080826	1.634984
N163	N	0.011689	-0.670343	1.339890
N164	N	0.511689	-0.170343	1.839890
C165	C	0.038085	-0.519567	0.481870
C166	C	0.538085	-0.019567	0.981870
C167	C	0.162104	-0.643505	0.481786
C168	C	0.662104	-0.143505	0.981786
C169	C	0.088200	-0.717587	0.629893
C170	C	0.588200	-0.217587	1.129893
C171	C	-0.035819	-0.593649	0.629977
C172	C	0.464181	-0.093649	1.129977
C173	C	0.692280	-0.692701	0.654545
C174	C	1.192280	-0.192701	1.154545
C175	C	0.692203	-0.692374	0.530435
C176	C	1.192203	-0.192374	1.030435
C177	C	0.692063	-0.544251	0.456717
C178	C	1.192063	-0.044251	0.956717
C179	C	0.692144	-0.544580	0.580825
C180	C	1.192144	-0.044580	1.080825
C181	C	0.162000	0.010521	0.481600
C182	C	0.662000	0.510521	0.981600
C183	C	0.037914	0.010381	0.481984
C184	C	0.537914	0.510381	0.981984
C185	C	-0.035795	0.010399	0.630065
C186	C	0.464205	0.510399	1.130065
C187	C	0.088333	0.010415	0.629722
C188	C	0.588333	0.510415	1.129722
C189	C	-0.010799	-0.519660	1.184747
C190	C	0.489201	-0.019660	1.684747
C191	C	-0.010461	-0.643761	1.184677
C192	C	0.489539	-0.143761	1.684677
C193	C	0.137610	-0.717561	1.184734
C194	C	0.637610	-0.217561	1.684734
C195	C	0.137280	-0.593452	1.184783
C196	C	0.637280	-0.093452	1.684783
H197	H	0.023897	-0.518815	1.024687
H198	H	0.523897	-0.018815	1.524687
C199	C	0.641008	-0.721137	0.504210
C200	C	1.141008	-0.221137	1.004210
C201	C	0.692222	-0.741513	0.518186
C202	C	1.192222	-0.241513	1.018186
H203	H	0.641019	-0.751476	0.496652
H204	H	1.141019	-0.251476	0.996652
H205	H	0.640970	-0.686287	0.469614
H206	H	1.140970	-0.186287	0.969614
H207	H	0.606301	-0.711840	0.536891
H208	H	1.106301	-0.211840	1.036891
H209	H	0.726928	-0.750806	0.485503
H210	H	1.226928	-0.250806	0.985503
H211	H	0.692265	-0.776373	0.552786
H212	H	1.192265	-0.276373	1.052786
H213	H	-0.047330	-0.474261	1.184750
H214	H	0.452670	0.025739	1.684750
H215	H	0.692005	-0.507708	0.411338
H216	H	1.192005	-0.007708	0.911338
C217	C	0.692174	-0.517018	0.651509
C218	C	1.192174	-0.017018	1.151509
C219	C	0.692123	-0.495441	0.593076
C220	C	1.192123	0.004559	1.093076
H221	H	0.692157	-0.486680	0.659072
H222	H	1.192157	0.013320	1.159072
H223	H	0.726922	-0.551053	0.655945
H224	H	1.226922	-0.051053	1.155945
H225	H	0.657469	-0.527945	0.679139
H226	H	1.157469	-0.027945	1.179139
H227	H	0.726830	-0.484519	0.565445
H228	H	1.226830	0.015481	1.065445
H229	H	0.657371	-0.461395	0.588635
H230	H	1.157371	0.038605	1.088635
H231	H	0.207290	0.010797	0.444973
H232	H	0.707290	0.510797	0.944973
H233	H	0.028825	0.010378	0.445599
H234	H	0.528825	0.510378	0.945599
H235	H	0.173667	-0.584388	1.184797
H236	H	0.673667	-0.084388	1.684797
C237	C	0.032527	-0.465903	0.382501
C238	C	0.532527	0.034097	0.882501
C239	C	0.025922	-0.458237	0.432662
C240	C	0.525922	0.041763	0.932662
H241	H	0.025021	-0.428040	0.352121
H242	H	0.525021	0.071960	0.852121
H243	H	0.004878	-0.483874	0.393416
H244	H	0.504878	0.016126	0.893416
H245	H	0.072164	-0.490987	0.367941
H246	H	0.572164	0.009013	0.867941
H247	H	-0.013716	-0.433156	0.447224
H248	H	0.486284	0.066844	0.947224
H249	H	0.053571	-0.440257	0.421747
H250	H	0.553571	0.059743	0.921747
C251	C	0.525836	-0.419436	0.514175
C252	C	1.025836	0.080564	1.014175
C253	C	0.541014	-0.461740	0.565515
C254	C	1.041014	0.038260	1.065515
H255	H	0.547103	-0.392119	0.493952
H256	H	1.047103	0.107881	0.993952
H257	H	0.484024	-0.398239	0.525358
H258	H	0.984024	0.101761	1.025358
H259	H	0.536097	-0.439262	0.488391
H260	H	1.036097	0.060738	0.988391
H261	H	0.530749	-0.441914	0.591301
H262	H	1.030749	0.058086	1.091301
H263	H	0.582835	-0.482939	0.554332
H264	H	1.082835	0.017061	1.054332
H265	H	0.097215	-0.763020	0.666340
H266	H	0.597215	-0.263020	1.166340
H267	H	-0.081227	-0.584696	0.666460
H268	H	0.418773	-0.084696	1.166460
H269	H	0.692323	-0.729239	0.699929
H270	H	1.192323	-0.229239	1.199929
H271	H	-0.081177	0.010398	0.666600
H272	H	0.418823	0.510398	1.166600
C273	C	0.059884	0.061617	0.694909
C274	C	0.559884	0.561617	1.194909
C275	C	0.100601	0.010421	0.678841
C276	C	0.600601	0.510421	1.178841
H277	H	0.067462	0.061620	0.725230
H278	H	0.567462	0.561620	1.225230
H279	H	0.020245	0.061610	0.709544
H280	H	0.520245	0.561610	1.209544
H281	H	0.064339	0.096341	0.660850
H282	H	0.564339	0.596341	1.160850
H283	H	0.096143	-0.024304	0.712899
H284	H	0.596143	0.475696	1.212899
H285	H	0.140249	0.010422	0.664208
H286	H	0.640249	0.510422	1.164208
C287	C	-0.037985	-0.714405	1.184555
C288	C	0.462015	-0.214405	1.684555
C289	C	-0.059563	-0.655968	1.184588
C290	C	0.440437	-0.155968	1.684588
H291	H	-0.068299	-0.721939	1.184496
H292	H	0.431701	-0.221939	1.684496
H293	H	-0.027113	-0.742036	1.219297
H294	H	0.472887	-0.242036	1.719297
H295	H	-0.003914	-0.718868	1.149842
H296	H	0.496086	-0.218868	1.649842
H297	H	-0.093632	-0.651507	1.219304
H298	H	0.406368	-0.151507	1.719304
H299	H	-0.070444	-0.628329	1.149842
H300	H	0.429556	-0.128329	1.649842
H301	H	0.174144	-0.762957	1.184724
H302	H	0.674144	-0.262957	1.684724
H303	H	0.209648	-0.611676	1.024626
H304	H	0.709648	-0.111676	1.524626
C305	C	0.014090	-0.501974	0.917205
C306	C	0.514090	-0.001974	1.417205
C307	C	0.050125	-0.470620	0.902048
C308	C	0.550125	0.029380	1.402048
H309	H	-0.013570	-0.477514	0.895947
H310	H	0.486430	0.022486	1.395947
H311	H	-0.007147	-0.512254	0.959020
H312	H	0.492853	-0.012254	1.459020
H313	H	0.038548	-0.537415	0.906917
H314	H	0.538548	-0.037415	1.406917
H315	H	0.025667	-0.435181	0.912340
H316	H	0.525667	0.064819	1.412340
H317	H	0.071363	-0.460332	0.860223
H318	H	0.571363	0.039668	1.360223
C319	C	0.291006	-0.640416	0.917110
C320	C	0.791006	-0.140416	1.417110
C321	C	0.265048	-0.578070	0.901972
C322	C	0.765048	-0.078070	1.401972
H323	H	0.332823	-0.650688	0.895835
H324	H	0.832823	-0.150688	1.395835
H325	H	0.273399	-0.654825	0.906835
H326	H	0.773399	-0.154825	1.406835
H327	H	0.284408	-0.658017	0.958927
H328	H	0.784408	-0.158017	1.458927
H329	H	0.271642	-0.560470	0.860155
H330	H	0.771642	-0.060470	1.360155
H331	H	0.282661	-0.563655	0.912242
H332	H	0.782661	-0.063655	1.412242
C333	C	-0.008483	-0.461706	0.712681
C334	C	0.491517	0.038294	1.212681
C335	C	0.050023	-0.470589	0.703797
C336	C	0.550023	0.029411	1.203797
H337	H	-0.036119	-0.437248	0.737140
H338	H	0.463881	0.062752	1.237140
H339	H	-0.014494	-0.499274	0.731818
H340	H	0.485506	0.000726	1.231818
H341	H	-0.014517	-0.442562	0.675111
H342	H	0.485483	0.057438	1.175111
H343	H	0.056058	-0.489738	0.741367
H344	H	0.556058	0.010262	1.241367
H345	H	0.056037	-0.433015	0.684661
H346	H	0.556037	0.066985	1.184661
H347	H	0.209407	-0.611608	0.562721
H348	H	0.709407	-0.111608	1.062721
C349	C	-0.009029	-0.483084	0.607701
C350	C	0.490971	0.016916	1.107701
C351	C	0.006144	-0.514448	0.659941
C352	C	0.506144	-0.014448	1.159941
H353	H	-0.050852	-0.472806	0.617990
H354	H	0.449148	0.027194	1.117990
H355	H	0.012228	-0.507530	0.583243
H356	H	0.512228	-0.007530	1.083243
H357	H	0.001238	-0.447640	0.586447
H358	H	0.501238	0.052360	1.086447
H359	H	-0.004119	-0.549895	0.681193
H360	H	0.495881	-0.049895	1.181193
H361	H	-0.015121	-0.490002	0.684408
H362	H	0.484879	0.009998	1.184408
C363	C	0.290788	-0.556737	0.533950
C364	C	0.790788	-0.056737	1.033950
C365	C	0.264885	-0.578006	0.596296
C366	C	0.764885	-0.078006	1.096296
H367	H	0.332610	-0.567007	0.523661
H368	H	0.832610	-0.067007	1.023661
H369	H	0.273163	-0.514446	0.519556
H370	H	0.773163	-0.014446	1.019556
H371	H	0.284168	-0.574342	0.516354
H372	H	0.784168	-0.074342	1.016354
H373	H	0.271502	-0.560396	0.613892
H374	H	0.771502	-0.060396	1.113892
H375	H	0.282517	-0.620304	0.610697
H376	H	0.782517	-0.120304	1.110697
C377	C	0.450233	-0.688863	0.693968
C378	C	0.950233	-0.188863	1.193968
C379	C	0.409475	-0.630772	0.690591
C380	C	0.909475	-0.130772	1.190591
H381	H	0.428973	-0.716185	0.714179
H382	H	0.928973	-0.216185	1.214179
H383	H	0.474693	-0.699348	0.715320
H384	H	0.974693	-0.199348	1.215320
H385	H	0.474667	-0.690452	0.654692
H386	H	0.974667	-0.190452	1.154692
H387	H	0.385043	-0.629181	0.729867
H388	H	0.885043	-0.129181	1.229867
H389	H	0.385004	-0.620284	0.669240
H390	H	0.885004	-0.120284	1.169240
C391	C	0.234119	-0.703707	0.418732
C392	C	0.734119	-0.203707	0.918732
C393	C	0.223398	-0.655588	0.432530
C394	C	0.723398	-0.155588	0.932530
H395	H	0.271962	-0.711168	0.388326
H396	H	0.771962	-0.211168	0.888326
H397	H	0.203668	-0.694227	0.404980
H398	H	0.703668	-0.194227	0.904980
H399	H	0.234008	-0.738362	0.453533
H400	H	0.734008	-0.238362	0.953533
H401	H	0.223505	-0.620932	0.397730
H402	H	0.723505	-0.120932	0.897730
H403	H	0.253858	-0.665065	0.446280
H404	H	0.753858	-0.165065	0.946280
C405	C	0.373371	-0.396203	0.575558
C406	C	0.873371	0.103797	1.075558
C407	C	0.409430	-0.417869	0.609406
C408	C	0.909430	0.082131	1.109406
H409	H	0.352103	-0.354699	0.569524
H410	H	0.852103	0.145301	1.069524
H411	H	0.345742	-0.417185	0.596292
H412	H	0.845742	0.082815	1.096292
H413	H	0.397818	-0.402023	0.537896
H414	H	0.897818	0.097977	1.037896
H415	H	0.384983	-0.412053	0.647069
H416	H	0.884983	0.087947	1.147069
H417	H	0.437062	-0.396881	0.588672
H418	H	0.937062	0.103119	1.088672
C419	C	0.577115	-0.696301	0.680543
C420	C	1.077115	-0.196301	1.180543
C421	C	0.541050	-0.674636	0.646702
C422	C	1.041050	-0.174636	1.146702
H423	H	0.598394	-0.737802	0.686565
H424	H	1.098394	-0.237802	1.186565
H425	H	0.552677	-0.690490	0.718204
H426	H	1.052677	-0.190490	1.218204
H427	H	0.604742	-0.675308	0.659804
H428	H	1.104742	-0.175308	1.159804
H429	H	0.513420	-0.695626	0.667444
H430	H	1.013420	-0.195626	1.167444
H431	H	0.565491	-0.680453	0.609035
H432	H	1.065491	-0.180453	1.109035
H433	H	0.162897	-0.149674	0.516363
H434	H	0.662897	0.350326	1.016363
C435	C	0.219942	-0.231571	0.484131
C436	C	0.719942	0.268429	0.984131
C437	C	0.211103	-0.272328	0.542631
C438	C	0.711103	0.227672	1.042631
H439	H	0.244383	-0.252836	0.456481
H440	H	0.744383	0.247164	0.956481
H441	H	0.239079	-0.207122	0.478106
H442	H	0.739079	0.292878	0.978106
H443	H	0.182358	-0.207121	0.478130
H444	H	0.682358	0.292879	0.978130
H445	H	0.248688	-0.296775	0.548634
H446	H	0.748688	0.203225	1.048634
H447	H	0.191968	-0.296787	0.548658
H448	H	0.691968	0.203213	1.048658
H449	H	0.070133	-0.149706	0.702094
H450	H	0.570133	0.350294	1.202094
H451	H	0.108067	-0.263426	0.739970
H452	H	0.608067	0.236574	1.239970
