data_functionalizedCrystal
_audit_creation_method	'MofGen! by Chris Wilmer'
_symmetry_space_group_name_H-M	'P1'
_symmetry_Int_Tables_number	1
_symmetry_cell_setting	triclinic
loop_
_symmetry_equiv_pos_as_xyz
  x,y,z
_cell_length_a	8.497374
_cell_length_b	8.497374
_cell_length_c	13.032831
_cell_angle_alpha	97.172717
_cell_angle_beta	97.192176
_cell_angle_gamma	90.005237
loop_
_atom_site_label
_atom_site_type_symbol
_atom_site_fract_x
_atom_site_fract_y
_atom_site_fract_z
Zn1	Zn	0.935186	1.198019	1.597645
Zn2	Zn	1.435186	1.698019	2.097645
Zn3	Zn	1.198930	0.934283	1.597637
Zn4	Zn	1.698930	1.434283	2.097637
Zn5	Zn	0.901603	0.900793	1.422934
Zn6	Zn	1.401603	1.400793	1.922934
Zn7	Zn	1.165357	1.164558	1.422909
Zn8	Zn	1.665357	1.664558	1.922909
O9	O	1.050269	1.049413	1.510281
O10	O	1.550269	1.549413	2.010281
O11	O	0.998277	1.191053	1.743885
O12	O	1.498277	1.691053	2.243885
O13	O	1.159485	0.709079	1.574469
O14	O	1.659485	1.209079	2.074469
O15	O	0.685298	0.940208	1.446124
O16	O	1.185298	1.440208	1.946124
O17	O	1.192049	0.997287	1.743879
O18	O	1.692049	1.497287	2.243879
O19	O	0.709972	1.158579	1.574483
O20	O	1.209972	1.658579	2.074483
O21	O	0.941040	0.684474	1.446116
O22	O	1.441040	1.184474	1.946116
O23	O	0.908486	0.907763	1.276690
O24	O	1.408486	1.407763	1.776690
O25	O	1.134828	1.389758	1.446081
O26	O	1.634828	1.889758	1.946081
O27	O	1.102264	1.101550	1.276672
O28	O	1.602264	1.601550	1.776672
O29	O	0.965723	1.414341	1.574459
O30	O	1.465723	1.914341	2.074459
O31	O	1.415236	0.964841	1.574445
O32	O	1.915236	1.464841	2.074445
O33	O	1.390570	1.134024	1.446073
O34	O	1.890570	1.634024	1.946073
C35	C	0.998089	0.997392	1.238762
C36	C	1.498089	1.497392	1.738762
C37	C	0.975804	0.975175	1.122605
C38	C	1.475804	1.475175	1.622605
C39	C	1.061900	1.061008	1.070837
C40	C	1.561900	1.561008	1.570837
C41	C	1.038870	1.038048	0.950783
C42	C	1.538870	1.538048	1.450783
C43	C	1.460146	1.049433	1.510268
C44	C	1.960146	1.549433	2.010268
C45	C	1.638796	1.049413	1.510296
C46	C	2.138796	1.549413	2.010296
C47	C	1.050270	1.460892	1.510273
C48	C	1.550270	1.960892	2.010273
C49	C	1.050287	1.639536	1.510276
C50	C	1.550287	2.139536	2.010276
C51	C	1.102654	1.101638	1.782861
C52	C	1.602654	1.601638	2.282861
C53	C	1.124978	1.123893	1.899018
C54	C	1.624978	1.623893	2.399018
H55	H	1.215736	1.214393	0.943571
H56	H	1.715736	1.714393	1.443571
N57	N	0.855586	0.855305	1.063595
N58	N	1.355586	1.355305	1.563595
H59	H	0.856181	0.855887	0.986197
H60	H	1.356181	1.355887	1.486197
H61	H	0.883604	0.746217	1.082613
H62	H	1.383604	1.246217	1.582613
N63	N	0.918648	0.918169	0.891776
N64	N	1.418648	1.418169	1.391776
H65	H	0.837013	0.973778	0.846484
H66	H	1.337013	1.473778	1.346484
H67	H	0.974159	0.836408	0.846550
H68	H	1.474159	1.336408	1.346550
H69	H	1.152655	1.151497	1.115396
H70	H	1.652655	1.651497	1.615396
