data_functionalizedCrystal
_audit_creation_method	'MofGen! by Chris Wilmer'
_symmetry_space_group_name_H-M	'P1'
_symmetry_Int_Tables_number	1
_symmetry_cell_setting	triclinic
loop_
_symmetry_equiv_pos_as_xyz
  x,y,z
_cell_length_a	27.440280
_cell_length_b	27.440280
_cell_length_c	19.377372
_cell_angle_alpha	48.612532
_cell_angle_beta	89.992595
_cell_angle_gamma	59.994730
loop_
_atom_site_label
_atom_site_type_symbol
_atom_site_fract_x
_atom_site_fract_y
_atom_site_fract_z
Zr1	Zr	0.455151	0.562091	-0.114651
O2	O	0.359923	0.698596	-0.253952
O3	O	0.484348	0.449731	-0.071927
O4	O	0.461603	0.596902	-0.253929
O5	O	0.400604	0.515547	0.071594
O6	O	0.541804	0.596896	-0.253934
O7	O	0.382668	0.551426	-0.071950
O8	O	0.582492	0.333634	0.071634
O9	O	0.359917	0.778808	-0.253975
O10	O	0.556648	0.486999	-0.053734
O11	O	0.510180	0.460228	0.053394
O12	O	0.483400	0.633502	-0.160890
O13	O	0.436933	0.606731	-0.053761
Zr14	Zr	0.611669	0.504858	0.114276
Zr15	Zr	0.583063	0.562081	-0.114659
Zr16	Zr	0.483757	0.504868	0.114285
Zr17	Zr	0.455141	0.690020	-0.114687
Zr18	Zr	0.611678	0.376930	0.114313
O19	O	0.582471	0.617218	0.071553
O20	O	0.541797	0.698582	-0.253963
O21	O	0.400597	0.617233	0.071565
O22	O	0.706897	0.368353	0.253577
O23	O	0.666223	0.449717	-0.071939
O24	O	0.525023	0.368368	0.253589
O25	O	0.666215	0.551403	-0.071968
O26	O	0.605216	0.470047	0.253555
O27	O	0.525015	0.470054	0.253560
O28	O	0.684151	0.515524	0.071575
O29	O	0.461590	0.778800	-0.253981
O30	O	0.605230	0.288150	0.253607
O31	O	0.706903	0.288141	0.253600
O32	O	0.684165	0.333626	0.071627
O33	O	0.382655	0.733324	-0.072002
O34	O	0.484328	0.733315	-0.072008
O35	O	0.583419	0.433447	0.160515
O36	O	0.629887	0.460218	0.053387
O37	O	0.556639	0.606721	-0.053769
O38	O	0.510171	0.579950	0.053360
C39	C	0.533421	0.373456	-0.000141
C40	C	0.533425	0.319147	-0.000126
C41	C	0.479337	0.046444	-0.079307
C42	C	0.479335	-0.004570	-0.079318
O43	O	0.433362	0.023445	-0.146605
N44	N	0.533402	-0.094047	-0.000229
C45	C	0.587478	-0.132510	0.078870
O46	O	0.633466	-0.213301	0.146140
C47	C	0.587481	-0.081494	0.078876
C48	C	0.533407	0.007983	-0.000212
C49	C	0.425268	0.135916	-0.158389
C50	C	0.425270	0.186926	-0.158377
C51	C	0.479340	0.148465	-0.079282
C52	C	0.533409	0.058993	-0.000200
C53	C	0.641557	-0.119956	0.157970
C54	C	0.641556	-0.068932	0.157968
C55	C	0.587482	0.020545	0.078880
C56	C	0.587481	0.071541	0.078908
N57	N	0.533413	0.161018	-0.000181
C58	C	0.479343	0.199480	-0.079276
C59	C	0.587468	-0.239640	0.078851
C60	C	0.587463	-0.290656	0.078850
C61	C	0.479321	-0.162712	-0.079339
C62	C	0.479324	-0.111697	-0.079334
C63	C	0.533400	-0.150163	-0.000238
C64	C	0.479350	0.306600	-0.079243
C65	C	0.479355	0.357608	-0.079221
C66	C	0.587498	0.229662	0.078965
C67	C	0.587492	0.178656	0.078947
C68	C	0.533414	0.217133	-0.000166
O69	O	0.633432	0.043587	0.146158
O70	O	0.433366	0.280270	-0.146543
C71	C	0.373411	0.533488	-0.000177
C72	C	0.319110	0.533492	-0.000173
C73	C	-0.027471	0.553226	-0.079268
C74	C	-0.078489	0.553221	-0.079269
O75	O	-0.113265	0.570000	-0.146500
N76	N	-0.094126	0.533457	-0.000191
C77	C	-0.058737	0.513687	0.078899
O78	O	-0.076722	0.496875	0.146162
C79	C	-0.007717	0.513686	0.078903
C80	C	0.007912	0.533460	-0.000186
C81	C	-0.011841	0.572998	-0.158350
C82	C	0.039173	0.573004	-0.158351
C83	C	0.074556	0.553238	-0.079269
C84	C	0.058926	0.533467	-0.000186
C85	C	0.027673	0.493911	0.157997
C86	C	0.078696	0.493911	0.157995
C87	C	0.094325	0.513685	0.078905
C88	C	0.145322	0.513707	0.078896
N89	N	0.160959	0.533472	-0.000182
C90	C	0.125576	0.553237	-0.079264
C91	C	-0.165883	0.513689	0.078886
C92	C	-0.216905	0.513696	0.078878
C93	C	-0.236652	0.553229	-0.079289
C94	C	-0.185632	0.553228	-0.079285
C95	C	-0.150246	0.533454	-0.000192
C96	C	0.232709	0.553250	-0.079260
C97	C	0.283726	0.553258	-0.079255
C98	C	0.303472	0.513721	0.078915
C99	C	0.252457	0.513717	0.078908
C100	C	0.217077	0.533480	-0.000184
O101	O	0.180128	0.496933	0.146095
O102	O	0.143574	0.570036	-0.146508
C103	C	0.693408	0.533462	-0.000198
C104	C	0.747710	0.533457	-0.000201
C105	C	0.497628	0.605052	-0.286550
C106	C	0.485484	0.629345	-0.383739
C107	C	0.533398	0.693494	-0.000233
C108	C	0.533394	0.747803	-0.000248
C109	C	0.636696	0.326883	-0.423718
C110	C	0.625272	0.349730	-0.515057
C111	C	0.548808	0.502668	-0.626909
C112	C	0.560227	0.479834	-0.535579
C113	C	0.604172	0.391940	-0.433988
C114	C	0.527703	0.544891	-0.545848
C115	C	0.539120	0.522059	-0.454525
C116	C	0.583061	0.434169	-0.352932
C117	C	0.615589	0.369108	-0.342665
C118	C	0.483755	0.632785	-0.647440
C119	C	0.451231	0.697842	-0.657709
C120	C	0.462651	0.675010	-0.566385
C121	C	0.506592	0.587120	-0.464793
C122	C	0.430123	0.740071	-0.576653
C123	C	0.441539	0.717239	-0.485330
C124	C	0.518008	0.564288	-0.373469
C125	C	0.569192	0.461897	0.286176
C126	C	0.581336	0.437605	0.383365
C127	C	0.693420	0.373443	-0.000152
C128	C	0.747726	0.319129	-0.000140
C129	C	0.569203	0.301879	0.286222
C130	C	0.581351	0.223277	0.383426
C131	C	0.729202	0.301866	0.286211
C132	C	0.795651	0.223259	0.383412
C133	C	0.337618	0.765084	-0.286585
C134	C	0.271168	0.843690	-0.383786
C135	C	0.373400	0.693507	-0.000222
C136	C	0.319094	0.747820	-0.000234
C137	C	0.497616	0.765071	-0.286596
C138	C	0.485468	0.843673	-0.383800
C139	C	0.734997	0.307605	-0.056060
C140	C	0.786016	0.256584	-0.056070
C141	C	0.849763	0.217084	-0.000153
C142	C	0.862491	0.228612	0.055768
C143	C	0.811472	0.279638	0.055772
C144	C	0.625287	0.172383	0.485000
C145	C	0.636700	0.098533	0.576343
C146	C	0.604180	0.075576	0.566109
C147	C	0.560239	0.126477	0.464524
C148	C	0.548823	0.200329	0.373184
C149	C	0.851118	0.200320	0.373139
C150	C	0.913559	0.126470	0.464460
C151	C	0.920531	0.075558	0.566055
C152	C	0.865058	0.098504	0.576326
C153	C	0.802619	0.172355	0.485005
C154	C	0.215701	0.866636	-0.373513
C155	C	0.153261	0.940501	-0.464835
C156	C	0.146288	0.991416	-0.566429
C157	C	0.201761	0.968467	-0.576701
C158	C	0.264200	0.894607	-0.485380
C159	C	0.331821	0.759352	0.055676
C160	C	0.280799	0.810393	0.055661
C161	C	0.217051	0.849897	-0.000259
C162	C	0.204324	0.838364	-0.056176
C163	C	0.255345	0.787329	-0.056167
C164	C	0.517998	0.866605	-0.373533
C165	C	0.506597	0.940451	-0.464858
C166	C	0.462661	0.991366	-0.566450
C167	C	0.430130	0.968428	-0.576715
C168	C	0.441536	0.894580	-0.485391
H169	H	0.435290	-0.038844	-0.143728
C170	C	0.405771	0.788798	-0.496621
H171	H	0.377971	0.844414	-0.570203
H172	H	0.380368	0.783077	-0.463317
H173	H	0.436911	0.783059	-0.463322
H174	H	0.152414	0.870535	-0.101705
H175	H	0.592352	0.415581	-0.278574
C176	C	0.500497	0.256301	0.261459
H177	H	0.482772	0.232041	0.268456
H178	H	0.466182	0.313969	0.223483
H179	H	0.522728	0.257408	0.223516
C180	C	0.381798	1.024445	-0.688469
H181	H	0.379663	1.071714	-0.741379
H182	H	0.396216	0.989829	-0.696493
H183	H	0.339687	1.046370	-0.696486
C184	C	0.542377	0.965677	-0.453547
H185	H	0.570165	0.924784	-0.379961
H186	H	0.567792	0.965628	-0.486828
H187	H	0.511241	1.022182	-0.486858
H188	H	0.435318	0.430467	-0.143622
C189	C	0.419846	-0.120410	-0.166347
H190	H	0.427595	-0.163611	-0.155024
H191	H	0.382109	-0.094708	-0.163076
H192	H	0.413151	-0.076825	-0.234622
H193	H	0.533764	0.107774	0.456208
H194	H	0.891300	0.175537	-0.000164
H195	H	0.958720	0.107798	0.456078
C196	C	0.989216	-0.005680	0.666498
H197	H	1.021249	-0.012050	0.645820
H198	H	0.994390	0.000709	0.707814
H199	H	0.994389	-0.055826	0.707817
C200	C	0.450116	1.072600	-0.666897
H201	H	0.475780	1.078966	-0.646222
H202	H	0.461681	1.066210	-0.708214
H203	H	0.405144	1.122749	-0.708213
C204	C	0.077603	1.072649	-0.666872
H205	H	0.045571	1.079011	-0.646194
H206	H	0.072422	1.122799	-0.708209
H207	H	0.072438	1.066240	-0.708171
H208	H	0.415450	0.769405	-0.740434
H209	H	0.631491	-0.363513	0.143262
C210	C	0.092251	0.965725	-0.453517
H211	H	0.105351	0.924812	-0.379931
H212	H	0.066882	1.022220	-0.486810
H213	H	0.066886	0.965686	-0.486815
H214	H	0.613482	0.015439	0.640493
H215	H	0.196076	1.009931	-0.659429
H216	H	0.394339	0.811634	-0.659379
C217	C	0.843458	0.256316	0.261394
H218	H	0.798330	0.303585	0.208468
H219	H	0.863653	0.278225	0.253379
H220	H	0.863663	0.221679	0.253395
H221	H	0.631503	-0.270974	0.143269
H222	H	0.051896	0.589102	-0.222749
H223	H	0.309361	0.875927	-0.493757
C224	C	-0.050759	0.594749	-0.245353
H225	H	-0.034138	0.606528	-0.292448
H226	H	-0.046616	0.546655	-0.212878
H227	H	-0.095536	0.644504	-0.284433
H228	H	0.383725	0.727189	0.101220
H229	H	0.683093	0.339771	-0.101607
C230	C	0.825483	0.292296	0.117302
H231	H	0.870757	0.261453	0.150609
H232	H	0.800849	0.352534	0.069043
H233	H	0.813499	0.270691	0.170235
H234	H	0.685590	-0.192806	0.222371
C235	C	0.294811	0.823060	0.117184
H236	H	0.340087	0.792208	0.150502
H237	H	0.270183	0.883297	0.068918
H238	H	0.282819	0.801467	0.170108
C239	C	0.701039	-0.111250	0.244980
H240	H	0.733237	-0.171845	0.292080
H241	H	0.718807	-0.085066	0.212503
H242	H	0.687769	-0.102959	0.284055
C243	C	0.300919	0.575004	-0.166252
H244	H	0.272541	0.586764	-0.213341
H245	H	0.295947	0.624750	-0.205328
H246	H	0.344877	0.526896	-0.133749
C247	C	0.365793	0.285348	-0.245386
H248	H	0.333599	0.300939	-0.292494
H249	H	0.348020	0.298980	-0.212915
H250	H	0.379069	0.316848	-0.284450
H251	H	0.672482	0.057096	0.659048
C252	C	0.661055	0.197631	0.496278
H253	H	0.688847	0.156743	0.569859
H254	H	0.686466	0.197589	0.462988
H255	H	0.629913	0.254136	0.462963
H256	H	0.175513	0.891451	-0.000258
C257	C	0.646966	0.080231	0.165951
H258	H	0.679169	0.064633	0.213058
H259	H	0.633696	0.048726	0.205006
H260	H	0.664737	0.066616	0.133458
C261	C	0.741609	0.197579	0.496314
H262	H	0.703419	0.248857	0.427382
H263	H	0.741888	0.151453	0.534276
H264	H	0.741875	0.208005	0.534252
C265	C	0.241339	0.774637	-0.117657
H266	H	0.196067	0.805468	-0.150948
H267	H	0.253327	0.796219	-0.170582
H268	H	0.265973	0.714391	-0.069366
C269	C	0.663929	0.272426	-0.230911
H270	H	0.681665	0.236946	-0.237870
H271	H	0.698236	0.260340	-0.192965
H272	H	0.641700	0.260345	-0.192962
H273	H	0.381236	0.167248	-0.222804
H274	H	0.870745	0.057041	0.659056
C275	C	0.223361	0.810642	-0.261769
H276	H	0.268490	0.763359	-0.208842
H277	H	0.203164	0.845275	-0.253768
H278	H	0.203160	0.788737	-0.253754
H279	H	0.914400	0.196444	0.101294
H280	H	0.332287	0.497631	0.143300
C281	C	0.566331	0.810609	-0.261794
H282	H	0.584073	0.834847	-0.268773
H283	H	0.544109	0.809489	-0.223841
H284	H	0.600643	0.752943	-0.223838
H285	H	0.631520	0.198356	0.143364
C286	C	0.193795	0.574997	-0.166264
H287	H	0.210413	0.586779	-0.213362
H288	H	0.197943	0.526899	-0.133783
H289	H	0.149017	0.624748	-0.205341
C290	C	0.772006	0.243902	-0.117573
H291	H	0.726735	0.274723	-0.150854
H292	H	0.783987	0.265496	-0.170507
H293	H	0.796647	0.183655	-0.069288
C294	C	-0.168438	0.574967	-0.166273
H295	H	-0.196820	0.586732	-0.213364
H296	H	-0.173405	0.624710	-0.205348
H297	H	-0.124483	0.526856	-0.133769
H298	H	0.435315	0.337940	-0.143666
C299	C	-0.275570	0.574950	-0.166263
H300	H	-0.308186	0.572103	-0.154923
H301	H	-0.295734	0.631992	-0.234551
H302	H	-0.246794	0.534133	-0.162952
H303	H	-0.229632	0.497607	0.143270
C304	C	0.405739	0.869370	-0.496693
H305	H	0.418820	0.818096	-0.427760
H306	H	0.359894	0.915504	-0.534652
H307	H	0.416427	0.858944	-0.534634
H308	H	-0.137075	0.497593	0.143291
H309	H	0.014956	0.477808	0.222399
C310	C	0.117620	0.472161	0.244995
H311	H	0.150247	0.474988	0.233680
H312	H	0.088853	0.512958	0.241711
H313	H	0.137783	0.415108	0.313272
C314	C	0.566360	0.467607	-0.261714
H315	H	0.568505	0.463330	-0.208799
H316	H	0.551947	0.439909	-0.253674
H317	H	0.608465	0.439941	-0.253719
C318	C	0.685037	0.230201	-0.311965
H319	H	0.702773	0.194721	-0.318924
H320	H	0.719344	0.218116	-0.274019
H321	H	0.662808	0.218120	-0.274015
C322	C	0.235255	0.491981	0.165892
H323	H	0.263637	0.480210	0.212990
H324	H	0.191299	0.540079	0.133395
H325	H	0.240235	0.442225	0.204973
H326	H	0.513026	0.574231	-0.709634
C327	C	0.471194	0.657905	-0.747897
H328	H	0.440358	0.719568	-0.809871
H329	H	0.510997	0.634829	-0.747910
H330	H	0.454464	0.634827	-0.747894
H331	H	0.651759	0.296746	-0.506682
