data_functionalizedCrystal
_audit_creation_method	'MofGen! by Chris Wilmer'
_symmetry_space_group_name_H-M	'P1'
_symmetry_Int_Tables_number	1
_symmetry_cell_setting	triclinic
loop_
_symmetry_equiv_pos_as_xyz
  x,y,z
_cell_length_a	21.395362
_cell_length_b	16.120484
_cell_length_c	21.395355
_cell_angle_alpha	92.880721
_cell_angle_beta	89.956060
_cell_angle_gamma	92.942400
loop_
_atom_site_label
_atom_site_type_symbol
_atom_site_fract_x
_atom_site_fract_y
_atom_site_fract_z
Zn1	Zn	0.945244	-0.331659	-0.367215
Zn2	Zn	0.939845	-0.471058	-0.267746
Zn3	Zn	0.840458	-0.331698	-0.262418
Zn4	Zn	0.835126	-0.471075	-0.372451
O5	O	0.890168	-0.401372	-0.317458
O6	O	1.032207	-0.350127	-0.354059
O7	O	0.926633	-0.452580	-0.179362
O8	O	0.858849	-0.215024	-0.271898
O9	O	1.028240	-0.452543	-0.280979
O10	O	0.935836	-0.214995	-0.348892
O11	O	0.853614	-0.350193	-0.175447
O12	O	0.752072	-0.350210	-0.276976
O13	O	0.849761	-0.452572	-0.459434
O14	O	0.748154	-0.452609	-0.357817
O15	O	0.930665	-0.350144	-0.455587
O16	O	0.921462	-0.587728	-0.286057
O17	O	0.844526	-0.587741	-0.362983
C18	C	0.727379	-0.401416	-0.317387
C19	C	0.657736	-0.401455	-0.317372
C20	C	0.622997	-0.454845	-0.359409
C21	C	0.557562	-0.454825	-0.359436
C22	C	0.526869	-0.401423	-0.317415
C23	C	0.561617	-0.348022	-0.275375
C24	C	0.627050	-0.348039	-0.275354
C25	C	0.423400	-0.394707	-0.260754
C26	C	0.357967	-0.394696	-0.260775
C27	C	0.325050	-0.401369	-0.317482
C28	C	0.357574	-0.408069	-0.374171
C29	C	0.423007	-0.408085	-0.374149
C30	C	0.455918	-0.401399	-0.317434
C31	C	0.219359	-0.454740	-0.359552
C32	C	0.153924	-0.454713	-0.359580
C33	C	0.157979	-0.347915	-0.275514
C34	C	0.223414	-0.347937	-0.275492
C35	C	0.254100	-0.401354	-0.317510
C36	C	0.881846	-0.617986	-0.325680
C37	C	0.878344	-0.710654	-0.329218
C38	C	0.871952	-0.880320	-0.335692
C39	C	0.908497	-0.921584	-0.299234
C40	C	0.904940	-1.015992	-0.302836
C41	C	0.875507	-0.785903	-0.332091
C42	C	1.053593	-0.401328	-0.317529
C43	C	1.123235	-0.401310	-0.317560
C44	C	0.890221	-0.401355	-0.480880
C45	C	0.890243	-0.401348	-0.550521
C46	C	0.898540	-0.183913	-0.309217
C47	C	0.902107	-0.091245	-0.305705
C48	C	0.932368	-0.348011	-0.581232
C49	C	0.932369	-0.347976	-0.646666
C50	C	0.890250	-0.401291	-0.681388
C51	C	0.848117	-0.454632	-0.650669
C52	C	0.848114	-0.454660	-0.585236
C53	C	0.882419	-0.476362	-0.787910
C54	C	0.882427	-0.476335	-0.853342
C55	C	0.890258	-0.401203	-0.883205
C56	C	0.898094	-0.326096	-0.847628
C57	C	0.898090	-0.326124	-0.782195
C58	C	0.890249	-0.401266	-0.752339
C59	C	0.932385	-0.347823	-0.984867
C60	C	0.932382	-0.347786	-1.050302
C61	C	0.848133	-0.454449	-1.054304
C62	C	0.848134	-0.454479	-0.988870
C63	C	0.890263	-0.401167	-0.954155
C64	C	0.890154	-0.401329	-0.154668
C65	C	0.890262	-0.401101	-0.085019
H66	H	0.450195	-0.389270	-0.214573
O67	O	0.120247	-0.506540	-0.400502
C68	C	0.136999	-0.488444	-0.462280
H69	H	0.185753	-0.456409	-0.462387
H70	H	0.101858	-0.445616	-0.481829
C71	C	0.077030	-0.609150	-0.503080
C72	C	0.136912	-0.569810	-0.503212
H73	H	0.076974	-0.659339	-0.528330
H74	H	0.065742	-0.621340	-0.461459
H75	H	0.047752	-0.573451	-0.519369
H76	H	0.166188	-0.605504	-0.486916
H77	H	0.148206	-0.557627	-0.544831
H78	H	0.904471	-0.264916	-0.871941
H79	H	0.331492	-0.389246	-0.214616
H80	H	0.529272	-0.498301	-0.393669
O81	O	0.949060	-0.879279	-0.258751
C82	C	0.982327	-0.936240	-0.225546
H83	H	0.982197	-0.998319	-0.253534
H84	H	0.959058	-0.945536	-0.178282
C85	C	1.050437	-0.825799	-0.180935
C86	C	1.050281	-0.902043	-0.215314
H87	H	1.092353	-0.804704	-0.174621
H88	H	1.028023	-0.787423	-0.203304
H89	H	1.031043	-0.833556	-0.141552
H90	H	1.069668	-0.894283	-0.254699
H91	H	1.072700	-0.940418	-0.192952
H92	H	0.966684	-0.304348	-1.075305
O93	O	0.973325	-0.295953	-0.951235
C94	C	1.010514	-0.248875	-0.992376
H95	H	0.984962	-0.245974	-1.038890
H96	H	1.056925	-0.279388	-1.000535
C97	C	1.054340	-0.163716	-0.906335
C98	C	1.022955	-0.160146	-0.963463
H99	H	1.062017	-0.108984	-0.888500
H100	H	1.029288	-0.195434	-0.878617
H101	H	1.093013	-0.189146	-0.913142
H102	H	0.984279	-0.134726	-0.956654
H103	H	1.048001	-0.128421	-0.991179
H104	H	0.132990	-0.304430	-0.241303
O105	O	0.807283	-0.506221	-1.088120
C106	C	0.816309	-0.494746	-1.152459
H107	H	0.865711	-0.467415	-1.160390
H108	H	0.780849	-0.450359	-1.169313
C109	C	0.746655	-0.612661	-1.179518
C110	C	0.807334	-0.579099	-1.189259
H111	H	0.741116	-0.664693	-1.202219
H112	H	0.740572	-0.620391	-1.136172
H113	H	0.717112	-0.575664	-1.193563
H114	H	0.836875	-0.616091	-1.175207
H115	H	0.813421	-0.571378	-1.232604
O116	O	0.531873	-0.296190	-0.234469
C117	C	0.547083	-0.314306	-0.172683
H118	H	0.593348	-0.346364	-0.172548
H119	H	0.508573	-0.357120	-0.153162
C120	C	0.496398	-0.193580	-0.131906
C121	C	0.553224	-0.232949	-0.131740
H122	H	0.500184	-0.143396	-0.106650
H123	H	0.486149	-0.181377	-0.173532
H124	H	0.464313	-0.229267	-0.115640
H125	H	0.585307	-0.197266	-0.148013
H126	H	0.563479	-0.245144	-0.090116
H127	H	0.251699	-0.304465	-0.241258
O128	O	0.660863	-0.296293	-0.234488
C129	C	0.696814	-0.343694	-0.195737
H130	H	0.704186	-0.406923	-0.220154
H131	H	0.671192	-0.352755	-0.149647
C132	C	0.751685	-0.220163	-0.152695
C133	C	0.760744	-0.297820	-0.182687
H134	H	0.791119	-0.191865	-0.144643
H135	H	0.727463	-0.188227	-0.178801
H136	H	0.730331	-0.227725	-0.114291
H137	H	0.782090	-0.290257	-0.221094
H138	H	0.784971	-0.329753	-0.156588
H139	H	0.876050	-0.537492	-0.882304
H140	H	0.837996	-0.915892	-0.369606
H141	H	0.966673	-0.304600	-0.552972
H142	H	0.966671	-0.304538	-0.671676
O143	O	0.874884	-0.549324	-0.758858
C144	C	0.927800	-0.560130	-0.721463
H145	H	0.952411	-0.497008	-0.709237
H146	H	0.961323	-0.601544	-0.748296
C147	C	0.876847	-0.678785	-0.675900
C148	C	0.907072	-0.601256	-0.660880
H149	H	0.864062	-0.704157	-0.638531
H150	H	0.841197	-0.671507	-0.701096
H151	H	0.904787	-0.713286	-0.698262
H152	H	0.879129	-0.566753	-0.638526
H153	H	0.942717	-0.608529	-0.635679
O154	O	0.905676	-0.253094	-0.747729
C155	C	0.912605	-0.186771	-0.788111
H156	H	0.890796	-0.206491	-0.835493
H157	H	0.964473	-0.169438	-0.794444
C158	C	0.906354	-0.086878	-0.701468
C159	C	0.879564	-0.111096	-0.759661
H160	H	0.885976	-0.040196	-0.683918
H161	H	0.901688	-0.131560	-0.674261
H162	H	0.949577	-0.072440	-0.706753
H163	H	0.836344	-0.125544	-0.754374
H164	H	0.884222	-0.066414	-0.786866
O165	O	0.807193	-0.506374	-0.959133
C166	C	0.770006	-0.553409	-1.003807
H167	H	0.795561	-0.556272	-1.050578
H168	H	0.723597	-0.522885	-1.009570
C169	C	0.726167	-0.638638	-0.924196
C170	C	0.757557	-0.642160	-0.981640
H171	H	0.718485	-0.693383	-0.910522
H172	H	0.751219	-0.606948	-0.894098
H173	H	0.687496	-0.613197	-0.929006
H174	H	0.796229	-0.667591	-0.976827
H175	H	0.732510	-0.673857	-1.011737
H176	H	0.813808	-0.498092	-0.560232
O177	O	0.652706	-0.506754	-0.400287
C178	C	0.608007	-0.553888	-0.437386
H179	H	0.562690	-0.519732	-0.438315
H180	H	0.598569	-0.617160	-0.416766
C181	C	0.688802	-0.607996	-0.503366
C182	C	0.633145	-0.566041	-0.504512
H183	H	0.704309	-0.615497	-0.544773
H184	H	0.718918	-0.576244	-0.478371
H185	H	0.680930	-0.660718	-0.486180
H186	H	0.641020	-0.513317	-0.521691
H187	H	0.603032	-0.597786	-0.529512
O188	O	0.454505	-0.414554	-0.429269
C189	C	0.411426	-0.420462	-0.479328
H190	H	0.365852	-0.392410	-0.463483
H191	H	0.401842	-0.488616	-0.494847
C192	C	0.494856	-0.407200	-0.553913
C193	C	0.438883	-0.372739	-0.534453
H194	H	0.511793	-0.377765	-0.587918
H195	H	0.523880	-0.403222	-0.520188
H196	H	0.486861	-0.463994	-0.566841
H197	H	0.446880	-0.315949	-0.521518
H198	H	0.409861	-0.376706	-0.568177
H199	H	0.330774	-0.413500	-0.420348
H200	H	0.813823	-0.498039	-0.678943
H201	H	0.244345	-0.498230	-0.393769
