data_functionalizedCrystal
_audit_creation_method	'MofGen! by Chris Wilmer'
_symmetry_space_group_name_H-M	'P1'
_symmetry_Int_Tables_number	1
_symmetry_cell_setting	triclinic
loop_
_symmetry_equiv_pos_as_xyz
  x,y,z
_cell_length_a	12.811438
_cell_length_b	11.295483
_cell_length_c	12.837942
_cell_angle_alpha	94.530417
_cell_angle_beta	90.586849
_cell_angle_gamma	88.710055
loop_
_atom_site_label
_atom_site_type_symbol
_atom_site_fract_x
_atom_site_fract_y
_atom_site_fract_z
O1	O	1.403249	-0.052536	-0.143392
O2	O	1.101287	-0.019920	-0.156287
O3	O	1.245572	-0.035512	0.001143
O4	O	1.258964	-0.036944	-0.300822
O5	O	1.232897	-0.232193	-0.012663
O6	O	1.088612	-0.216601	-0.170093
O7	O	1.390574	-0.249217	-0.157198
Cu8	Cu	1.238436	-0.250868	-0.164906
Cu9	Cu	1.253425	-0.018269	-0.148579
O10	O	1.246289	-0.233625	-0.314628
C11	C	1.056031	-0.114057	-0.162043
C12	C	0.940066	-0.101531	-0.158613
N13	N	1.227900	-0.414465	-0.176389
C14	C	0.783523	0.023321	-0.146254
C15	C	0.892484	0.011562	-0.149475
C16	C	0.878680	-0.202872	-0.164527
C17	C	0.769719	-0.191113	-0.161306
C18	C	0.722145	-0.078013	-0.152171
C19	C	0.613182	-0.066255	-0.148957
C20	C	0.599380	-0.280688	-0.164001
C21	C	0.708341	-0.292447	-0.167222
C22	C	1.339802	-0.675848	-0.054369
C23	C	1.331849	-0.799652	-0.063054
C24	C	1.204035	-0.785880	-0.202439
C25	C	1.211988	-0.662075	-0.193754
C26	C	1.279875	-0.607064	-0.119717
C27	C	1.287834	-0.483258	-0.111038
C28	C	1.160015	-0.469488	-0.250417
C29	C	1.152062	-0.593292	-0.259102
C30	C	1.435830	-0.155078	-0.151442
C31	C	1.551796	-0.167596	-0.154871
C32	C	1.234711	-0.133363	0.032914
C33	C	1.221219	-0.131904	0.148153
N34	N	1.263968	0.145328	-0.137088
C35	C	1.257151	-0.135771	-0.346399
C36	C	1.270643	-0.137223	-0.461637
C37	C	1.383421	-0.149399	0.387176
C38	C	1.370748	-0.148028	0.495453
C39	C	1.183204	-0.127783	0.472987
C40	C	1.195876	-0.129154	0.364710
C41	C	1.295987	-0.139964	0.321809
C42	C	1.308658	-0.141343	0.213529
C43	C	1.121115	-0.121090	0.191065
C44	C	1.108443	-0.119719	0.299343
H45	H	0.744788	0.115412	-0.138827
O46	O	1.491393	-0.161065	0.340900
H47	H	1.485515	-0.160441	0.254625
H48	H	1.390173	-0.150150	0.178600
O49	O	1.026806	-0.110927	0.120554
H50	H	0.955066	-0.103195	0.168581
H51	H	0.917434	-0.294953	-0.171952
H52	H	1.441946	-0.155708	0.548673
H53	H	1.395086	-0.631058	0.005907
O54	O	0.958682	0.120862	-0.143084
H55	H	1.042443	0.093688	-0.146847
O56	O	1.000473	-0.108070	0.345627
H57	H	0.963098	-0.023314	0.325090
H58	H	1.148755	-0.830685	-0.262710
H59	H	1.101698	-0.118970	0.507938
H60	H	0.747091	-0.384530	-0.174656
O61	O	0.533179	-0.389996	-0.170477
H62	H	0.449417	-0.362822	-0.166732
O63	O	1.396495	-0.873847	0.007415
H64	H	1.445043	-0.814791	0.060345
H65	H	1.096786	-0.638096	-0.319378
O66	O	0.561863	0.055725	-0.139079
H67	H	0.622854	0.124212	-0.135487
H68	H	1.343113	-0.438470	-0.050757
O69	O	1.095366	-0.395302	-0.320902
H70	H	1.112293	-0.299969	-0.302422
