data_functionalizedCrystal
_audit_creation_method	'MofGen! by Chris Wilmer'
_symmetry_space_group_name_H-M	'P1'
_symmetry_Int_Tables_number	1
_symmetry_cell_setting	triclinic
loop_
_symmetry_equiv_pos_as_xyz
  x,y,z
_cell_length_a	22.610064
_cell_length_b	11.026607
_cell_length_c	11.026607
_cell_angle_alpha	108.586017
_cell_angle_beta	90.007110
_cell_angle_gamma	89.990583
loop_
_atom_site_label
_atom_site_type_symbol
_atom_site_fract_x
_atom_site_fract_y
_atom_site_fract_z
O1	O	0.049183	-1.726738	-0.533608
O2	O	0.049184	-1.360158	-0.472845
O3	O	0.049182	-1.513067	-0.319936
O4	O	0.049186	-1.573830	-0.686516
O5	O	-0.049188	-1.513038	-0.319957
O6	O	-0.049185	-1.360130	-0.472866
O7	O	-0.049186	-1.726710	-0.533629
Zn8	Zn	-0.064804	-1.543416	-0.503251
Zn9	Zn	0.064802	-1.543453	-0.503223
O10	O	-0.049184	-1.573802	-0.686537
C11	C	-0.000000	-1.312485	-0.461645
C12	C	-0.000000	-1.170471	-0.428228
C13	C	-0.000002	-1.501843	-0.272287
C14	C	-0.000000	-1.468426	-0.130273
N15	N	-0.153256	-1.543399	-0.503271
C16	C	-0.561899	-1.611168	-0.435529
C17	C	-0.623819	-1.611172	-0.435522
O18	O	-0.655838	-1.668741	-0.377933
N19	N	-0.654793	-1.543446	-0.503196
C20	C	-0.623845	-1.475701	-0.570873
O21	O	-0.655877	-1.418094	-0.628434
C22	C	-0.561926	-1.475690	-0.570872
C23	C	-0.530955	-1.543431	-0.503204
C24	C	-0.530927	-1.678902	-0.367865
C25	C	-0.469012	-1.678899	-0.367875
C26	C	-0.438068	-1.611162	-0.435550
C27	C	-0.469039	-1.543428	-0.503214
C28	C	-0.530979	-1.407938	-0.638541
C29	C	-0.469056	-1.407932	-0.638534
C30	C	-0.438084	-1.475673	-0.570865
C31	C	-0.376179	-1.475688	-0.570898
N32	N	-0.345205	-1.543414	-0.503223
C33	C	-0.376149	-1.611151	-0.435549
C34	C	-0.753879	-1.475728	-0.570867
C35	C	-0.815796	-1.475745	-0.570875
C36	C	-0.815766	-1.611215	-0.435522
C37	C	-0.753847	-1.611204	-0.435522
C38	C	-0.722904	-1.543453	-0.503192
C39	C	-0.246121	-1.611141	-0.435576
C40	C	-0.184200	-1.611136	-0.435597
C41	C	-0.184236	-1.475662	-0.570944
C42	C	-0.246152	-1.475671	-0.570930
C43	C	-0.277093	-1.543413	-0.503236
O44	O	-0.344120	-1.418144	-0.628454
O45	O	-0.344109	-1.668734	-0.377984
N46	N	0.153254	-1.543477	-0.503195
C47	C	-0.000000	-1.774384	-0.544828
C48	C	0.000003	-1.916398	-0.578245
C49	C	0.000001	-1.116821	-0.520498
C50	C	0.000002	-0.970043	-0.485962
C51	C	0.000002	-1.585026	-0.734187
C52	C	0.000003	-1.618443	-0.876200
C53	C	0.000000	-1.560695	-0.076624
C54	C	0.000003	-1.526160	0.070155
H55	H	-0.158985	-1.666303	-0.380494
Br56	Br	-0.572999	-1.315999	-0.730380
H57	H	-0.841009	-1.420601	-0.625994
Br58	Br	0.000012	-1.351868	0.174697
Br59	Br	-0.000000	-1.221368	-0.694783
H60	H	-0.000003	-1.665258	-0.139357
H61	H	-0.443865	-1.352757	-0.693637
H62	H	0.000047	-1.723013	0.061072
H63	H	-0.271307	-1.666301	-0.380452
Br64	Br	-0.426986	-1.770828	-0.276028
Br65	Br	-0.000007	-0.865500	-0.311670
H66	H	0.000004	-1.363863	-0.067540
H67	H	-0.271370	-1.420526	-0.626047
Br68	Br	-0.142231	-1.383740	-0.662789
Br69	Br	-0.000006	-1.020937	-0.752539
H70	H	-0.728634	-1.666363	-0.380419
H71	H	-0.840972	-1.666368	-0.380416
H72	H	-0.728688	-1.420563	-0.625983
H73	H	-0.556116	-1.734060	-0.312751
Br74	Br	-0.000009	-1.065924	-0.253943
