data_functionalizedCrystal
_audit_creation_method	'MofGen! by Chris Wilmer'
_symmetry_space_group_name_H-M	'P1'
_symmetry_Int_Tables_number	1
_symmetry_cell_setting	triclinic
loop_
_symmetry_equiv_pos_as_xyz
  x,y,z
_cell_length_a	8.597366
_cell_length_b	10.654550
_cell_length_c	9.730223
_cell_angle_alpha	90.004253
_cell_angle_beta	97.698681
_cell_angle_gamma	95.089963
loop_
_atom_site_label
_atom_site_type_symbol
_atom_site_fract_x
_atom_site_fract_y
_atom_site_fract_z
O1	O	2.084438	-0.187449	0.132541
O2	O	1.627669	-0.201834	0.078450
O3	O	1.866555	-0.011958	0.106748
O4	O	1.845552	-0.377325	0.104243
O5	O	1.866540	-0.011953	0.335326
O6	O	1.627654	-0.201829	0.307028
O7	O	2.084423	-0.187444	0.361119
Zn8	Zn	1.856036	-0.194635	0.370365
Zn9	Zn	1.856056	-0.194642	0.069204
O10	O	1.845536	-0.377320	0.332821
C11	C	1.569174	-0.200287	0.185813
C12	C	1.394900	-0.195671	0.165175
C13	C	1.865006	0.034851	0.220853
C14	C	1.860391	0.174318	0.220305
N15	N	1.856033	-0.194630	0.575901
C16	C	2.142918	-0.188991	0.253753
C17	C	2.317192	-0.193607	0.274382
C18	C	1.847086	-0.424129	0.218712
C19	C	1.851700	-0.563596	0.219252
C20	C	2.001044	0.253058	0.236961
C21	C	1.996699	0.384102	0.236429
C22	C	1.711037	0.357654	0.202591
C23	C	1.715383	0.226612	0.203112
N24	N	1.856071	-0.194638	-0.136331
C25	C	1.961848	-0.110589	0.660362
C26	C	1.961864	-0.110590	0.804247
C27	C	1.750244	-0.278683	0.779197
C28	C	1.750222	-0.278675	0.635314
H29	H	1.328106	-0.193898	0.055882
C30	C	1.568337	-0.200271	0.414528
C31	C	1.407357	-0.195998	0.421939
H32	H	1.623997	-0.201755	0.505622
H33	H	1.606274	-0.127937	0.367810
H34	H	1.583915	-0.274036	0.365142
H35	H	1.391778	-0.122228	0.471316
H36	H	1.369408	-0.268340	0.468677
C37	C	2.157513	0.546835	0.372965
C38	C	2.151305	0.470659	0.254738
H39	H	2.252960	0.600276	0.384258
H40	H	2.153271	0.495177	0.452165
H41	H	2.070526	0.596729	0.362639
H42	H	2.238286	0.420758	0.265069
H43	H	2.155562	0.522322	0.175520
C44	C	1.554559	0.063895	0.066557
C45	C	1.560764	0.140052	0.184798
H46	H	1.459103	0.010464	0.055245
H47	H	1.641529	0.014002	0.076873
H48	H	1.558812	0.115574	-0.012640
H49	H	1.556523	0.088373	0.263998
H50	H	1.473770	0.189950	0.174492
H51	H	1.664097	-0.347112	0.827586
H52	H	2.119119	0.210486	0.250957
C53	C	2.171012	0.055573	0.699578
C54	C	2.078139	-0.018196	0.595052
H55	H	2.242796	0.112621	0.659257
H56	H	2.228043	0.002569	0.762427
H57	H	2.105178	0.101576	0.747923
H58	H	2.143972	-0.064206	0.546714
H59	H	2.021104	0.034815	0.532179
H60	H	1.592976	0.400247	0.188596
H61	H	2.048026	-0.042155	0.873012
H62	H	1.664047	-0.347112	0.566540
