data_functionalizedCrystal
_audit_creation_method	'MofGen! by Chris Wilmer'
_symmetry_space_group_name_H-M	'P1'
_symmetry_Int_Tables_number	1
_symmetry_cell_setting	triclinic
loop_
_symmetry_equiv_pos_as_xyz
  x,y,z
_cell_length_a	10.685980
_cell_length_b	16.959453
_cell_length_c	10.686551
_cell_angle_alpha	85.591100
_cell_angle_beta	81.591741
_cell_angle_gamma	94.386467
loop_
_atom_site_label
_atom_site_type_symbol
_atom_site_fract_x
_atom_site_fract_y
_atom_site_fract_z
Zn1	Zn	1.995762	-0.177169	-0.866685
Zn2	Zn	1.979318	-0.320365	-0.654406
Zn3	Zn	1.767185	-0.199169	-0.638147
Zn4	Zn	1.783441	-0.320288	-0.850316
O5	O	1.881427	-0.254248	-0.752389
O6	O	2.171215	-0.186989	-0.852180
O7	O	1.937493	-0.313527	-0.474616
O8	O	1.797585	-0.085633	-0.668509
O9	O	2.159134	-0.292195	-0.696220
O10	O	1.965519	-0.069470	-0.836415
O11	O	1.781640	-0.224485	-0.462671
O12	O	1.591707	-0.224410	-0.652637
O13	O	1.825291	-0.292064	-1.030121
O14	O	1.603650	-0.313396	-0.808517
O15	O	1.981282	-0.186915	-1.042147
O16	O	1.953256	-0.430971	-0.680348
O17	O	1.809346	-0.430915	-0.824283
C18	C	1.551620	-0.271283	-0.727037
C19	C	1.410529	-0.278588	-0.716222
C20	C	1.881317	-0.459622	-0.752334
C21	C	1.881390	-0.547473	-0.752362
C22	C	1.968986	-0.910458	-0.839978
C23	C	1.794237	-0.927406	-0.665015
C24	C	1.794187	-0.844864	-0.664982
C25	C	1.881537	-0.795115	-0.752450
C26	C	1.968936	-0.827908	-0.839951
C27	C	1.706781	-0.812065	-0.577491
C28	C	1.706728	-0.729518	-0.577456
C29	C	1.794085	-0.679767	-0.664919
C30	C	1.881488	-0.712565	-0.752422
C31	C	1.968838	-0.662816	-0.839890
C32	C	2.056249	-0.695613	-0.927389
C33	C	2.056293	-0.778158	-0.927414
C34	C	1.794040	-0.597222	-0.664894
C35	C	1.968789	-0.580267	-0.839863
C36	C	2.212521	-0.237146	-0.777840
C37	C	2.353614	-0.229859	-0.788686
C38	C	1.906934	-0.237027	-1.083480
C39	C	1.917804	-0.229688	-1.224571
C40	C	1.881573	-0.048068	-0.752474
C41	C	1.881636	0.039793	-0.752510
C42	C	1.856091	-0.271341	-0.422591
C43	C	1.845467	-0.278444	-0.281519
H44	H	1.412824	-0.182547	-0.858997
H45	H	1.635555	-0.702821	-0.506209
H46	H	1.635663	-0.852576	-0.506282
H47	H	1.351312	-0.325899	-0.645898
C48	C	2.064878	-0.525545	-0.936082
C49	C	2.160315	-0.466467	-0.888806
C50	C	2.256403	-0.411746	-0.985024
C51	C	2.257054	-0.416104	-1.128519
C52	C	2.161613	-0.475184	-1.175802
C53	C	2.065525	-0.529905	-1.079583
H54	H	2.159836	-0.463240	-0.782576
H55	H	2.327055	-0.368011	-0.950021
H56	H	2.328184	-0.375596	-1.199745
H57	H	2.162092	-0.478412	-1.282031
H58	H	1.994874	-0.573640	-1.114586
C59	C	1.750563	-0.342421	-1.201576
C60	C	1.607641	-0.342494	-1.208593
C61	C	1.512734	-0.406472	-1.128640
C62	C	1.560751	-0.470379	-1.041670
C63	C	1.703681	-0.470308	-1.034649
C64	C	1.798587	-0.406330	-1.114602
H65	H	1.572089	-0.295184	-1.272976
H66	H	1.406928	-0.406524	-1.133838
H67	H	1.490496	-0.517739	-0.982484
H68	H	1.739232	-0.517618	-0.970266
H69	H	1.904393	-0.406278	-1.109404
C70	C	2.152330	-0.640883	-1.023603
C71	C	2.247755	-0.581801	-0.976317
C72	C	2.343832	-0.527068	-1.072528
C73	C	2.344485	-0.531417	-1.216024
C74	C	2.249057	-0.590502	-1.263317
C75	C	2.152980	-0.645235	-1.167106
H76	H	2.247274	-0.578580	-0.870086
H77	H	2.414474	-0.483330	-1.037518
H78	H	2.415608	-0.490901	-1.287245
H79	H	2.249538	-0.593723	-1.369548
H80	H	2.082338	-0.688973	-1.202116
C81	C	2.152422	-0.814238	-1.023667
C82	C	2.247920	-0.868669	-0.976439
C83	C	2.344040	-0.904754	-1.072695
C84	C	2.344662	-0.886408	-1.216180
C85	C	2.249161	-0.831973	-1.263415
C86	C	2.153041	-0.795888	-1.167159
H87	H	2.247463	-0.882253	-0.870216
H88	H	2.414737	-0.945050	-1.037727
H89	H	2.415816	-0.913120	-1.287434
H90	H	2.249618	-0.818390	-1.369638
H91	H	2.082344	-0.755593	-1.202126
C92	C	2.065129	-0.946530	-0.936227
C93	C	2.160640	-1.000949	-0.888991
C94	C	2.256781	-1.037022	-0.985241
C95	C	2.257412	-1.018677	-1.128727
C96	C	2.161898	-0.964255	-1.175971
C97	C	2.065756	-0.928182	-1.079720
H98	H	2.160176	-1.014531	-0.782767
H99	H	2.327488	-1.077308	-0.950268
H100	H	2.328582	-1.045380	-1.199978
H101	H	2.162361	-0.950673	-1.282194
H102	H	1.995050	-0.887896	-1.114694
C103	C	1.698157	-0.982129	-0.568807
C104	C	1.745610	-1.041214	-0.473455
C105	C	1.649529	-1.095943	-0.377242
C106	C	1.505995	-1.091586	-0.376379
C107	C	1.458535	-1.032499	-0.471733
C108	C	1.554616	-0.977770	-0.567947
H109	H	1.851869	-1.044441	-0.474091
H110	H	1.684663	-1.139683	-0.306654
H111	H	1.434870	-1.132100	-0.305156
H112	H	1.352277	-1.029272	-0.471098
H113	H	1.519483	-0.934030	-0.638535
C114	C	2.012714	-0.165707	-1.304521
C115	C	2.023826	-0.158206	-1.450331
C116	C	2.118734	-0.094227	-1.530280
C117	C	2.202528	-0.037748	-1.464419
C118	C	2.191418	-0.045247	-1.318601
C119	C	2.096511	-0.109227	-1.238652
H120	H	1.961794	-0.200017	-1.499092
H121	H	2.126958	-0.088676	-1.638224
H122	H	2.272784	0.009613	-1.523602
H123	H	2.253450	-0.003437	-1.269839
H124	H	2.088287	-0.114778	-1.130707
H125	H	1.722866	-0.570523	-0.593659
