data_functionalizedCrystal
_audit_creation_method	'MofGen! by Chris Wilmer'
_symmetry_space_group_name_H-M	'P1'
_symmetry_Int_Tables_number	1
_symmetry_cell_setting	triclinic
loop_
_symmetry_equiv_pos_as_xyz
  x,y,z
_cell_length_a	13.897449
_cell_length_b	12.594510
_cell_length_c	13.897448
_cell_angle_alpha	89.963457
_cell_angle_beta	90.018519
_cell_angle_gamma	89.977688
loop_
_atom_site_label
_atom_site_type_symbol
_atom_site_fract_x
_atom_site_fract_y
_atom_site_fract_z
Zn1	Zn	1.474692	-0.601878	-0.383906
Zn2	Zn	1.974692	-0.101878	0.116094
Zn3	Zn	1.474589	-0.423892	-0.545245
Zn4	Zn	1.974589	0.076108	-0.045245
Zn5	Zn	1.313385	-0.423903	-0.383968
Zn6	Zn	1.813385	0.076097	0.116032
Zn7	Zn	1.313363	-0.601819	-0.545163
Zn8	Zn	1.813363	-0.101819	-0.045163
O9	O	1.394007	-0.512873	-0.464570
O10	O	1.894007	-0.012873	0.035430
O11	O	1.609660	-0.578288	-0.405316
O12	O	2.109660	-0.078288	0.094684
O13	O	1.453171	-0.274948	-0.523911
O14	O	1.953171	0.225052	-0.023911
O15	O	1.334834	-0.447541	-0.248978
O16	O	1.834834	0.052459	0.251022
O17	O	1.609585	-0.447523	-0.523851
O18	O	2.109585	0.052477	-0.023851
O19	O	1.453347	-0.578298	-0.248933
O20	O	1.953347	-0.078298	0.251067
O21	O	1.334735	-0.274956	-0.405421
O22	O	1.834735	0.225044	0.094579
O23	O	1.178400	-0.447483	-0.405342
O24	O	1.678400	0.052517	0.094658
O25	O	1.334798	-0.750772	-0.523712
O26	O	1.834798	-0.250772	-0.023712
O27	O	1.178384	-0.578197	-0.523772
O28	O	1.678384	-0.078197	-0.023772
O29	O	1.453326	-0.750816	-0.405238
O30	O	1.953326	-0.250816	0.094762
O31	O	1.453150	-0.447466	-0.680216
O32	O	1.953150	0.052534	-0.180216
O33	O	1.334698	-0.578187	-0.680156
O34	O	1.834698	-0.078187	-0.180156
C35	C	1.143393	-0.512836	-0.464556
C36	C	1.643393	-0.012836	0.035444
C37	C	1.036179	-0.512845	-0.464572
C38	C	1.536179	-0.012845	0.035428
C39	C	0.949109	-0.512863	-0.464576
C40	C	1.449109	-0.012863	0.035424
C41	C	0.839877	-0.512895	-0.464582
C42	C	1.339877	-0.012895	0.035418
C43	C	1.394071	-0.790494	-0.464459
C44	C	1.894071	-0.290494	0.035541
C45	C	1.394098	-0.908800	-0.464412
C46	C	1.894098	-0.408800	0.035588
C47	C	1.458585	-0.978076	-0.399968
C48	C	1.958585	-0.478076	0.100032
C49	C	1.370611	-1.048866	-0.376360
C50	C	1.870611	-0.548866	0.123640
C51	C	1.482124	-1.048809	-0.487953
C52	C	1.982124	-0.548809	0.012047
C53	C	1.306077	-0.978031	-0.440757
C54	C	1.806077	-0.478031	0.059243
C55	C	1.417650	-0.977968	-0.552392
C56	C	1.917650	-0.477968	-0.052392
C57	C	1.329615	-1.048725	-0.528816
C58	C	1.829615	-0.548725	-0.028816
C59	C	1.645600	-0.512911	-0.464586
C60	C	2.145600	-0.012911	0.035414
C61	C	1.752814	-0.512927	-0.464593
C62	C	2.252814	-0.012927	0.035407
C63	C	1.393937	-0.512842	-0.715185
C64	C	1.893937	-0.012842	-0.215185
C65	C	1.393995	-0.512865	-0.822399
C66	C	1.893995	-0.012865	-0.322399
C67	C	1.393999	-0.236332	-0.464612
C68	C	1.893999	0.263668	0.035388
C69	C	1.394159	-0.118027	-0.464388
C70	C	1.894159	0.381973	0.035612
C71	C	1.394096	-0.512931	-1.018694
C72	C	1.894096	-0.012931	-0.518694
C73	C	1.394037	-0.512897	-0.909461
C74	C	1.894037	-0.012897	-0.409461
C75	C	1.394104	-0.512927	-0.212977
C76	C	1.894104	-0.012927	0.287023
C77	C	1.394146	-0.512950	-0.105764
C78	C	1.894146	-0.012950	0.394236
H79	H	1.513023	-0.947051	-0.345439
H80	H	2.013023	-0.447051	0.154561
C81	C	1.443355	-0.824718	-0.651950
C82	C	1.943355	-0.324718	-0.151950
C83	C	1.444543	-0.935884	-0.652817
C84	C	1.944543	-0.435884	-0.152817
H85	H	1.459960	-0.798739	-0.713951
H86	H	1.959960	-0.298739	-0.213951
H87	H	1.488504	-0.799484	-0.606028
H88	H	1.988504	-0.299484	-0.106028
H89	H	1.380786	-0.800541	-0.635296
H90	H	1.880786	-0.300541	-0.135296
H91	H	1.507114	-0.960062	-0.669464
H92	H	2.007114	-0.460062	-0.169464
H93	H	1.399392	-0.961129	-0.698754
H94	H	1.899392	-0.461129	-0.198754
C95	C	1.303323	-1.151534	-0.671859
C96	C	1.803323	-0.651534	-0.171859
C97	C	1.255952	-1.090361	-0.602367
C98	C	1.755952	-0.590361	-0.102367
H99	H	1.257844	-1.177237	-0.717263
H100	H	1.757844	-0.677237	-0.217263
H101	H	1.334429	-1.209806	-0.641551
H102	H	1.834429	-0.709806	-0.141551
H103	H	1.349814	-1.109037	-0.703904
H104	H	1.849814	-0.609037	-0.203904
H105	H	1.209465	-1.132860	-0.570317
H106	H	1.709465	-0.632860	-0.070317
H107	H	1.224831	-1.032081	-0.632679
H108	H	1.724831	-0.532081	-0.132679
H109	H	1.350711	-1.080009	-0.301946
H110	H	1.850711	-0.580009	0.198054
C111	C	1.206478	-0.825074	-0.413956
C112	C	1.706478	-0.325074	0.086044
C113	C	1.205588	-0.936247	-0.413739
C114	C	1.705588	-0.436247	0.086261
H115	H	1.144444	-0.799279	-0.397268
H116	H	1.644444	-0.299279	0.102732
H117	H	1.223284	-0.800216	-0.476261
H118	H	1.723284	-0.300216	0.023739
H119	H	1.252302	-0.800330	-0.368471
H120	H	1.752302	-0.300330	0.131529
H121	H	1.159769	-0.960991	-0.459229
H122	H	1.659769	-0.460991	0.040771
H123	H	1.188771	-0.961115	-0.351425
H124	H	1.688771	-0.461115	0.148575
C125	C	1.649951	-1.055108	-0.447280
C126	C	2.149951	-0.555108	0.052720
C127	C	1.582582	-1.090777	-0.514856
C128	C	2.082582	-0.590777	-0.014856
H129	H	1.711971	-1.081011	-0.463888
H130	H	2.211971	-0.581011	0.036112
H131	H	1.632800	-1.080431	-0.385223
H132	H	2.132800	-0.580431	0.114777
H133	H	1.650783	-0.979690	-0.446913
H134	H	2.150783	-0.479690	0.053087
H135	H	1.581745	-1.166195	-0.515217
H136	H	2.081745	-0.666195	-0.015217
H137	H	1.599738	-1.065460	-0.576929
H138	H	2.099738	-0.565460	-0.076929
