data_functionalizedCrystal
_audit_creation_method	'MofGen! by Chris Wilmer'
_symmetry_space_group_name_H-M	'P1'
_symmetry_Int_Tables_number	1
_symmetry_cell_setting	triclinic
loop_
_symmetry_equiv_pos_as_xyz
  x,y,z
_cell_length_a	16.992694
_cell_length_b	14.853567
_cell_length_c	15.455313
_cell_angle_alpha	92.672621
_cell_angle_beta	87.142206
_cell_angle_gamma	87.151577
loop_
_atom_site_label
_atom_site_type_symbol
_atom_site_fract_x
_atom_site_fract_y
_atom_site_fract_z
O1	O	1.044027	0.187488	-0.072010
O2	O	1.544027	0.687488	0.427990
O3	O	0.815740	0.185390	-0.072036
O4	O	1.315740	0.685390	0.427964
O5	O	0.935981	0.055640	-0.072025
O6	O	1.435981	0.555640	0.427975
O7	O	0.923785	0.317238	-0.072021
O8	O	1.423785	0.817238	0.427979
O9	O	0.929105	0.063027	0.072237
O10	O	1.429105	0.563027	0.572237
O11	O	0.808864	0.192777	0.072226
O12	O	1.308864	0.692777	0.572226
O13	O	1.037151	0.194875	0.072251
O14	O	1.537151	0.694875	0.572251
Cu15	Cu	0.922380	0.194501	0.085411
Cu16	Cu	1.422380	0.694501	0.585411
Cu17	Cu	0.930511	0.185764	-0.085195
Cu18	Cu	1.430511	0.685764	0.414805
O19	O	0.916909	0.324625	0.072241
O20	O	1.416909	0.824625	0.572241
C21	C	0.783087	0.186385	0.000092
C22	C	1.283087	0.686385	0.500092
C23	C	0.696034	0.178334	0.000081
C24	C	1.196034	0.678334	0.500081
C25	C	0.645878	0.256009	0.000083
C26	C	1.145878	0.756009	0.500083
C27	C	0.564083	0.248440	0.000095
C28	C	1.064083	0.748440	0.500095
C29	C	0.532445	0.163195	0.000099
C30	C	1.032445	0.663195	0.500099
C31	C	0.582608	0.085514	0.000100
C32	C	1.082608	0.585514	0.500100
C33	C	0.664401	0.093084	0.000094
C34	C	1.164401	0.593084	0.500094
C35	C	0.288813	0.131820	0.000122
C36	C	0.788813	0.631820	0.500122
C37	C	0.207013	0.124255	0.000125
C38	C	0.707013	0.624255	0.500125
C39	C	0.188493	0.287183	0.000122
C40	C	0.688493	0.787183	0.500122
C41	C	0.270290	0.294745	0.000111
C42	C	0.770290	0.794745	0.500111
C43	C	0.320445	0.217064	0.000116
C44	C	0.820445	0.717064	0.500116
N45	N	0.448838	0.155456	0.000108
N46	N	0.948838	0.655456	0.500108
N47	N	0.404050	0.224804	0.000113
N48	N	0.904050	0.724804	0.500113
C49	C	0.931991	0.025705	0.000103
C50	C	1.431991	0.525705	0.500103
C51	C	0.930335	-0.074496	0.000096
C52	C	1.430335	0.425504	0.500096
C53	C	0.851909	-0.492567	0.000103
C54	C	1.351909	0.007433	0.500103
C55	C	0.994758	-0.503760	0.000119
C56	C	1.494758	-0.003760	0.500119
C57	C	0.996315	-0.409617	0.000114
C58	C	1.496315	0.090383	0.500114
C59	C	0.925668	-0.356944	0.000105
C60	C	1.425668	0.143056	0.500105
C61	C	0.853464	-0.398414	0.000101
C62	C	1.353464	0.101586	0.500101
C63	C	1.068518	-0.368139	0.000127
C64	C	1.568518	0.131861	0.500127
C65	C	1.070078	-0.273990	0.000123
C66	C	1.570078	0.226010	0.500123
C67	C	0.999430	-0.221316	0.000108
C68	C	1.499430	0.278684	0.500108
C69	C	0.927223	-0.262791	0.000103
C70	C	1.427223	0.237209	0.500103
C71	C	0.856576	-0.210118	0.000094
C72	C	1.356576	0.289882	0.500094
C73	C	0.784368	-0.251593	0.000082
C74	C	1.284368	0.248407	0.500082
C75	C	0.782816	-0.345740	0.000086
C76	C	1.282816	0.154260	0.500086
C77	C	1.000982	-0.127169	0.000105
C78	C	1.500982	0.372831	0.500105
C79	C	0.858131	-0.115966	0.000091
C80	C	1.358131	0.384034	0.500091
C81	C	1.069804	0.193880	0.000122
C82	C	1.569804	0.693880	0.500122
C83	C	1.156857	0.201931	0.000127
C84	C	1.656857	0.701931	0.500127
C85	C	0.920900	0.354560	0.000110
C86	C	1.420900	0.854560	0.500110
C87	C	0.922556	0.454760	0.000112
C88	C	1.422556	0.954760	0.500112
N89	N	0.916666	0.200645	0.205406
N90	N	1.416666	0.700645	0.705406
N91	N	0.936231	0.179613	-0.205190
N92	N	1.436231	0.679613	0.294810
C93	C	0.967766	0.145545	0.250805
C94	C	1.467766	0.645545	0.750805
C95	C	0.963453	0.150201	0.341612
C96	C	1.463453	0.650201	0.841612
C97	C	0.908042	0.209961	0.387019
C98	C	1.408042	0.709961	0.887019
C99	C	0.856936	0.265063	0.341614
C100	C	1.356936	0.765063	0.841614
C101	C	0.861246	0.260402	0.250808
C102	C	1.361246	0.760402	0.750808
C103	C	0.889436	0.230054	0.658599
C104	C	1.389436	0.730054	1.158599
C105	C	0.885131	0.234713	0.749411
C106	C	1.385131	0.734713	1.249411
C107	C	0.991647	0.119849	0.749403
C108	C	1.491647	0.619849	1.249403
C109	C	0.995956	0.115198	0.658595
C110	C	1.495956	0.615198	1.158595
C111	C	0.944847	0.170296	0.613198
C112	C	1.444847	0.670296	1.113198
N113	N	0.903633	0.214723	0.479839
N114	N	1.403633	0.714723	0.979839
N115	N	0.949253	0.165529	0.520380
N116	N	1.449253	0.665529	1.020380
H117	H	0.671631	0.325425	0.000080
H118	H	1.171631	0.825425	0.500080
H119	H	1.052275	-0.546652	0.000134
H120	H	1.552275	-0.046652	0.500134
C121	C	0.547809	-0.008255	0.000102
C122	C	1.047809	0.491745	0.500102
H123	H	0.491912	-0.001640	0.000097
H124	H	0.991912	0.498360	0.500097
H125	H	0.562627	-0.037911	0.050408
H126	H	1.062627	0.462089	0.550408
H127	H	0.567412	-0.043059	-0.050213
H128	H	1.067412	0.456941	0.449787
H129	H	0.705238	0.029832	0.000092
H130	H	1.205238	0.529832	0.500092
C131	C	0.772485	-0.538179	0.000086
C132	C	1.272485	-0.038179	0.500086
H133	H	0.730636	-0.493322	0.000073
H134	H	1.230636	0.006678	0.500073
H135	H	0.766505	-0.572100	0.050389
H136	H	1.266505	-0.072100	0.550389
H137	H	0.771310	-0.577245	-0.050231
H138	H	1.271310	-0.077245	0.449769
H139	H	1.126034	-0.411032	0.000143
H140	H	1.626034	0.088968	0.500143
C141	C	0.833225	0.290668	0.608673
C142	C	1.333225	0.790668	1.108673
H143	H	0.799615	0.326933	0.648724
H144	H	1.299615	0.826933	1.148724
H145	H	0.802228	0.254048	0.573257
H146	H	1.302228	0.754048	1.073257
H147	H	0.863157	0.328437	0.573244
H148	H	1.363157	0.828437	1.073244
C149	C	0.703395	-0.391358	0.000074
C150	C	1.203395	0.108642	0.500074
H151	H	0.661542	-0.346507	0.000058
H152	H	1.161542	0.153493	0.500058
H153	H	0.697420	-0.425275	0.050381
H154	H	1.197420	0.074725	0.550381
H155	H	0.702223	-0.430431	-0.050239
H156	H	1.202223	0.069569	0.449761
H157	H	1.128874	-0.240230	0.000132
H158	H	1.628874	0.259770	0.500132
C159	C	0.780417	-0.058032	0.000082
C160	C	1.280417	0.441968	0.500082
H161	H	0.737195	-0.096218	0.000082
H162	H	1.237195	0.403782	0.500082
H163	H	0.780452	-0.023647	-0.050223
H164	H	1.280452	0.476353	0.449777
H165	H	0.775656	-0.018499	0.050397
H166	H	1.275656	0.481501	0.550397
C167	C	1.080400	-0.081550	0.000120
C168	C	1.580400	0.418450	0.500120
H169	H	1.122252	-0.126404	0.000124
H170	H	1.622252	0.373596	0.500124
H171	H	1.081575	-0.042474	0.050424
H172	H	1.581575	0.457526	0.550424
H173	H	1.086377	-0.047639	-0.050196
H174	H	1.586377	0.452361	0.449804
C175	C	0.508915	0.333884	0.000094
C176	C	1.008915	0.833884	0.500094
H177	H	0.539472	0.385736	0.000080
H178	H	1.039472	0.885736	0.500080
H179	H	0.474233	0.336899	0.050404
H180	H	0.974233	0.836899	0.550404
H181	H	0.479013	0.331737	-0.050216
H182	H	0.979013	0.831737	0.449784
H183	H	1.033256	0.074990	0.786374
H184	H	1.533256	0.574990	1.286374
C185	C	1.028718	0.079807	0.200865
C186	C	1.528718	0.579807	0.700865
H187	H	1.058528	0.047653	0.240912
H188	H	1.558528	0.547653	0.740912
H189	H	1.063076	0.112792	0.165432
H190	H	1.563076	0.612792	0.665432
H191	H	1.002147	0.038403	0.165451
H192	H	1.502147	0.538403	0.665451
C193	C	1.019671	0.089600	0.391547
C194	C	1.519671	0.589600	0.891547
H195	H	1.053297	0.053353	0.351499
H196	H	1.553297	0.553353	0.851499
H197	H	0.989752	0.051830	0.426980
H198	H	1.489752	0.551830	0.926980
H199	H	1.050662	0.126239	0.426960
H200	H	1.550662	0.626239	0.926960
H201	H	1.041076	0.066536	0.621627
H202	H	1.541076	0.566536	1.121627
H203	H	0.296043	0.364161	0.000098
H204	H	0.796043	0.864161	0.500098
H205	H	0.147649	0.350426	0.000119
H206	H	0.647649	0.850426	0.500119
C207	C	0.795986	0.330799	0.391559
C208	C	1.295986	0.830799	0.891559
H209	H	0.800743	0.325692	0.452142
H210	H	1.300743	0.825692	0.952142
H211	H	0.744349	0.316441	0.376688
H212	H	1.244349	0.816441	0.876688
H213	H	0.805278	0.390831	0.376668
H214	H	1.305278	0.890831	0.876668
H215	H	0.840006	0.283380	0.786377
H216	H	1.340006	0.783380	1.286377
C217	C	0.172213	0.030481	0.000131
C218	C	0.672213	0.530481	0.500131
H219	H	0.213797	-0.014699	0.000140
H220	H	0.713797	0.485301	0.500140
H221	H	0.143083	0.021565	-0.050176
H222	H	0.643083	0.521565	0.449824
H223	H	0.138297	0.026725	0.050445
H224	H	0.638297	0.526725	0.550445
H225	H	0.819634	0.305269	0.213845
H226	H	1.319634	0.805269	0.713845
H227	H	0.329639	0.068566	0.000127
H228	H	0.829639	0.568566	0.500127
H229	H	0.726847	-0.208694	0.000081
H230	H	1.226847	0.291306	0.500081
