data_functionalizedCrystal
_audit_creation_method	'MofGen! by Chris Wilmer'
_symmetry_space_group_name_H-M	'P1'
_symmetry_Int_Tables_number	1
_symmetry_cell_setting	triclinic
loop_
_symmetry_equiv_pos_as_xyz
  x,y,z
_cell_length_a	18.050591
_cell_length_b	16.120484
_cell_length_c	18.050582
_cell_angle_alpha	92.874938
_cell_angle_beta	89.979078
_cell_angle_gamma	92.921875
loop_
_atom_site_label
_atom_site_type_symbol
_atom_site_fract_x
_atom_site_fract_y
_atom_site_fract_z
Zn1	Zn	1.120307	-0.332050	-0.435016
Zn2	Zn	1.113926	-0.471458	-0.317117
Zn3	Zn	0.996126	-0.332053	-0.310827
Zn4	Zn	0.989785	-0.471414	-0.441251
O5	O	1.055036	-0.401744	-0.376053
O6	O	1.223384	-0.350560	-0.419400
O7	O	1.098283	-0.452986	-0.212359
O8	O	1.017923	-0.215387	-0.322060
O9	O	1.218696	-0.452983	-0.332780
O10	O	1.109158	-0.215384	-0.413301
O11	O	1.011736	-0.350565	-0.207738
O12	O	0.891361	-0.350523	-0.328105
O13	O	1.007115	-0.452908	-0.544347
O14	O	0.886702	-0.452911	-0.423927
O15	O	1.103009	-0.350517	-0.539767
O16	O	1.092134	-0.588119	-0.338825
O17	O	1.000928	-0.588086	-0.430026
C18	C	1.045171	-0.618353	-0.385801
C19	C	1.041018	-0.711019	-0.389996
C20	C	0.862085	-0.401713	-0.376010
C21	C	0.779539	-0.401720	-0.376011
C22	C	1.033441	-0.880681	-0.397670
C23	C	1.076764	-0.921967	-0.354448
C24	C	1.072548	-1.016372	-0.358718
C25	C	1.037656	-0.786266	-0.393401
C26	C	0.582603	-0.345977	-0.324014
C27	C	0.529752	-0.422017	-0.309170
C28	C	0.628408	-0.401745	-0.376045
C29	C	0.534176	-0.325731	-0.390889
C30	C	0.482422	-0.401763	-0.376077
C31	C	0.576642	-0.477825	-0.361167
C32	C	0.581072	-0.381488	-0.442916
C33	C	0.528241	-0.457581	-0.428099
C34	C	0.712506	-0.401734	-0.376025
C35	C	0.398324	-0.401783	-0.376098
C36	C	1.248740	-0.401776	-0.376096
C37	C	1.331285	-0.401789	-0.376114
C38	C	1.055067	-0.401707	-0.569757
C39	C	1.055080	-0.401691	-0.652302
C40	C	1.064960	-0.184290	-0.366283
C41	C	1.069189	-0.091623	-0.362120
C42	C	1.002974	-0.457295	-0.854240
C43	C	1.069809	-0.477680	-0.904558
C44	C	1.055119	-0.401628	-0.803429
C45	C	0.988322	-0.381220	-0.900192
C46	C	1.055151	-0.401568	-0.949412
C47	C	1.121988	-0.422052	-0.852662
C48	C	1.040457	-0.325557	-0.848290
C49	C	1.107341	-0.345913	-0.898585
C50	C	1.055100	-0.401664	-0.719333
C51	C	1.055179	-0.401531	-1.033507
C52	C	1.055051	-0.401721	-0.183100
C53	C	1.055192	-0.401502	-0.100544
H54	H	1.117019	-0.886411	-0.314236
C55	C	0.496280	-0.521373	-0.487563
C56	C	0.411772	-0.532759	-0.499035
C57	C	0.379810	-0.596554	-0.558494
C58	C	0.432357	-0.648963	-0.606480
C59	C	0.516870	-0.637578	-0.595009
C60	C	0.548832	-0.573784	-0.535550
H61	H	0.372869	-0.493961	-0.463512
H62	H	0.317247	-0.604981	-0.566985
H63	H	0.408697	-0.696187	-0.650495
H64	H	0.555773	-0.676376	-0.630532
H65	H	0.611395	-0.565357	-0.527059
C66	C	0.508822	-0.238880	-0.407841
C67	C	0.425502	-0.223171	-0.411629
C68	C	0.400151	-0.136319	-0.428574
C69	C	0.458121	-0.065176	-0.441731
C70	C	0.541446	-0.080883	-0.437943
C71	C	0.566797	-0.167735	-0.420998
H72	H	0.382585	-0.275837	-0.401889
H73	H	0.338468	-0.124692	-0.431378
H74	H	0.439354	-0.000883	-0.454274
H75	H	0.584363	-0.028217	-0.447683
H76	H	0.628480	-0.179362	-0.418194
H77	H	0.958913	-0.504433	-0.834690
H78	H	1.178504	-0.439361	-0.831847
C79	C	1.086588	-0.564548	-0.937806
C80	C	1.034598	-0.640217	-0.921740
C81	C	1.051370	-0.727086	-0.954985
C82	C	1.120133	-0.738285	-1.004297
C83	C	1.172128	-0.662613	-1.020365
C84	C	1.155356	-0.575744	-0.987119
H85	H	0.983691	-0.631930	-0.885234
H86	H	1.012879	-0.783104	-0.943090
H87	H	1.132549	-0.802591	-1.028907
H88	H	1.223035	-0.670901	-1.056870
H89	H	1.193846	-0.519726	-0.999014
H90	H	0.993188	-0.916234	-0.437877
C91	C	0.499347	-0.445185	-0.232790
C92	C	0.452203	-0.384013	-0.187419
C93	C	0.421808	-0.407174	-0.111036
C94	C	0.438559	-0.491508	-0.080024
C95	C	0.485706	-0.552685	-0.125396
C96	C	0.516100	-0.529524	-0.201779
H97	H	0.439801	-0.321579	-0.210375
H98	H	0.386907	-0.361886	-0.077448
H99	H	0.416059	-0.508654	-0.023480
H100	H	0.498108	-0.615119	-0.102439
H101	H	0.551002	-0.574812	-0.235366
H102	H	0.603603	-0.364318	-0.499435
H103	H	1.151500	-0.298811	-0.918000
H104	H	1.028016	-0.261270	-0.823672
H105	H	0.606387	-0.298866	-0.279970
C106	C	0.601864	-0.564704	-0.344128
C107	C	0.685150	-0.580739	-0.340930
C108	C	0.710374	-0.667615	-0.323888
C109	C	0.652313	-0.738456	-0.310044
C110	C	0.569022	-0.722423	-0.313242
C111	C	0.543798	-0.635548	-0.330284
H112	H	0.728135	-0.528296	-0.351178
H113	H	0.772031	-0.679482	-0.321521
H114	H	0.670985	-0.802766	-0.297429
H115	H	0.526037	-0.774866	-0.302994
H116	H	0.482140	-0.623680	-0.332652
H117	H	0.931820	-0.363984	-0.921102
