data_functionalizedCrystal
_audit_creation_method	'MofGen! by Chris Wilmer'
_symmetry_space_group_name_H-M	'P1'
_symmetry_Int_Tables_number	1
_symmetry_cell_setting	triclinic
loop_
_symmetry_equiv_pos_as_xyz
  x,y,z
_cell_length_a	16.992694
_cell_length_b	16.053802
_cell_length_c	16.992695
_cell_angle_alpha	87.258926
_cell_angle_beta	90.668223
_cell_angle_gamma	92.750953
loop_
_atom_site_label
_atom_site_type_symbol
_atom_site_fract_x
_atom_site_fract_y
_atom_site_fract_z
O1	O	1.053959	0.069325	0.163815
O2	O	0.825560	0.069350	0.161983
O3	O	0.938844	0.069331	0.048699
O4	O	0.940676	0.069344	0.277099
O5	O	0.932607	-0.069527	0.054907
O6	O	0.819323	-0.069508	0.168191
O7	O	1.047722	-0.069533	0.170023
Zn8	Zn	0.932532	-0.091567	0.170093
Zn9	Zn	0.940750	0.091384	0.161913
O10	O	0.934438	-0.069514	0.283307
C11	C	0.793082	-0.000076	0.162731
C12	C	0.705597	-0.000067	0.155702
C13	C	0.659607	-0.000064	0.223520
C14	C	0.577405	-0.000076	0.216911
C15	C	0.541197	-0.000085	0.142484
C16	C	0.587193	-0.000091	0.074661
C17	C	0.669393	-0.000085	0.081270
C18	C	0.295881	-0.000109	0.115090
C19	C	0.213676	-0.000112	0.108486
C20	C	0.203893	-0.000099	0.250737
C21	C	0.286095	-0.000088	0.257339
C22	C	0.332084	-0.000098	0.189517
N23	N	0.457174	-0.000094	0.135727
N24	N	0.416105	-0.000094	0.196275
C25	C	0.933370	-0.000098	0.022443
C26	C	0.926341	-0.000097	-0.065042
C27	C	1.080201	-0.000105	0.169275
C28	C	1.167685	-0.000109	0.176304
N29	N	0.926930	-0.216427	0.175675
C30	C	0.975152	-0.260129	0.127492
C31	C	0.971241	-0.347535	0.131404
C32	C	0.919110	-0.391237	0.183504
C33	C	0.870883	-0.347529	0.231689
C34	C	0.874791	-0.260125	0.227772
C35	C	0.902039	-0.652644	0.200593
C36	C	0.898136	-0.740055	0.204508
C37	C	0.998493	-0.740054	0.104222
C38	C	1.002400	-0.652648	0.100313
C39	C	0.954169	-0.608948	0.148494
N40	N	0.915113	-0.480580	0.187507
N41	N	0.958163	-0.519606	0.144487
N42	N	0.946358	0.216243	0.156325
C43	C	0.994158	-0.000105	-0.111032
C44	C	0.987550	-0.000096	-0.193233
C45	C	0.913123	-0.000086	-0.229442
C46	C	0.845300	-0.000075	-0.183446
C47	C	0.851910	-0.000078	-0.101246
C48	C	0.885729	-0.000071	-0.474757
C49	C	0.879124	-0.000071	-0.556962
C50	C	1.021375	-0.000091	-0.566745
C51	C	1.027978	-0.000099	-0.484543
C52	C	0.960155	-0.000083	-0.438554
N53	N	0.906366	-0.000079	-0.313465
N54	N	0.966913	-0.000084	-0.354533
C55	C	0.939913	-0.000084	0.309563
C56	C	0.946942	-0.000079	0.397047
H57	H	0.539963	-0.000072	0.272136
H58	H	0.830503	-0.000059	-0.437322
C59	C	1.059425	-0.071478	-0.288176
C60	C	1.062093	-0.000104	-0.243792
H61	H	1.105445	-0.071476	-0.319393
H62	H	1.056878	-0.119895	-0.253748
H63	H	1.014148	-0.071460	-0.321497
H64	H	1.107368	-0.000125	-0.210467
H65	H	1.064649	0.048326	-0.278224
C66	C	0.896064	-0.554351	0.302248
C67	C	0.849035	-0.604619	0.253568
H68	H	0.863340	-0.524698	0.334953
H69	H	0.929078	-0.588441	0.334152
H70	H	0.927658	-0.515812	0.270649
H71	H	0.817445	-0.643163	0.285166
H72	H	0.816007	-0.570526	0.221660
H73	H	0.784700	-0.000061	-0.212933
C74	C	0.799745	-0.000086	0.028241
C75	C	0.719950	-0.000088	0.006724
H76	H	0.830954	-0.000096	-0.017783
H77	H	0.813370	0.048338	0.056375
H78	H	0.809027	-0.048509	0.060716
H79	H	0.710667	0.048338	-0.025746
H80	H	0.706321	-0.048516	-0.021422
C81	C	0.130107	0.071255	0.015334
C82	C	0.173871	-0.000126	0.026671
H83	H	0.105537	0.071248	-0.035174
H84	H	0.090960	0.071255	0.054778
H85	H	0.164150	0.119673	0.018697
H86	H	0.139827	-0.048545	0.023313
H87	H	0.213023	-0.000134	-0.012784
C88	C	1.074409	-0.000087	-0.697094
C89	C	1.095922	-0.000096	-0.617298
H90	H	1.120435	-0.000082	-0.728302
H91	H	1.041936	-0.048505	-0.706391
H92	H	1.046275	0.048341	-0.710707
H93	H	1.124051	-0.048527	-0.603683
H94	H	1.128408	0.048327	-0.607996
H95	H	0.689081	-0.000056	0.284126
H96	H	0.818513	-0.000076	-0.586440
C97	C	0.772068	-0.338744	0.330414
C98	C	0.813574	-0.395564	0.288954
H99	H	0.736684	-0.368399	0.365763
H100	H	0.808129	-0.304647	0.359277
H101	H	0.743231	-0.304660	0.294316
H102	H	0.842415	-0.429644	0.325051
H103	H	0.777507	-0.429676	0.260089
H104	H	0.835522	-0.224543	0.267007
C105	C	0.297283	-0.000116	-0.026180
C106	C	0.346426	-0.000113	0.040540
H107	H	0.328491	-0.000114	-0.072206
H108	H	0.262851	-0.048537	-0.023631
H109	H	0.267186	0.048309	-0.027957
H110	H	0.376518	-0.048542	0.042320
H111	H	0.380872	0.048312	0.037991
H112	H	0.315571	-0.000071	0.317945
C113	C	1.121143	0.071273	-0.400968
C114	C	1.109792	-0.000105	-0.444747
H115	H	1.171651	0.071263	-0.376397
H116	H	1.117785	0.119688	-0.434993
H117	H	1.081696	0.071267	-0.361812
H118	H	1.149235	-0.000096	-0.483907
H119	H	1.113157	-0.048532	-0.410719
H120	H	0.557705	-0.000110	0.014061
H121	H	1.017605	-0.224552	0.085070
C122	C	0.202482	-0.000082	0.392006
C123	C	0.153341	-0.000093	0.325285
H124	H	0.171272	-0.000075	0.438030
H125	H	0.232576	-0.048500	0.393790
H126	H	0.236917	0.048346	0.389453
H127	H	0.118910	-0.048524	0.327836
H128	H	0.123234	0.048331	0.323501
H129	H	1.010506	-0.383116	0.092170
H130	H	1.054765	-0.000119	-0.081557
C131	C	0.710639	-0.000064	-0.099828
C132	C	0.777362	-0.000071	-0.050690
H133	H	0.664616	-0.000062	-0.068615
H134	H	0.713196	0.048355	-0.134253
H135	H	0.708847	-0.048491	-0.129931
H136	H	0.779157	0.048359	-0.020591
H137	H	0.774805	-0.048495	-0.016251
H138	H	1.044848	-0.617067	0.057889
C139	C	1.004467	-0.838358	0.002573
C140	C	1.051497	-0.788093	0.051254
H141	H	1.037189	-0.868011	-0.030133
H142	H	0.972871	-0.876889	0.034165
H143	H	0.971453	-0.804260	-0.029338
H144	H	1.084506	-0.822192	0.083170
H145	H	1.083106	-0.749557	0.019659
C146	C	0.799303	-0.731281	0.303227
C147	C	0.840818	-0.788095	0.261769
H148	H	0.763916	-0.760941	0.338569
H149	H	0.835358	-0.697184	0.332097
H150	H	0.770469	-0.697196	0.267127
H151	H	0.869657	-0.822176	0.297868
H152	H	0.804758	-0.822206	0.232897
