data_functionalizedCrystal
_audit_creation_method	'MofGen! by Chris Wilmer'
_symmetry_space_group_name_H-M	'P1'
_symmetry_Int_Tables_number	1
_symmetry_cell_setting	triclinic
loop_
_symmetry_equiv_pos_as_xyz
  x,y,z
_cell_length_a	10.967926
_cell_length_b	19.188924
_cell_length_c	18.266242
_cell_angle_alpha	90.007204
_cell_angle_beta	77.879694
_cell_angle_gamma	83.944562
loop_
_atom_site_label
_atom_site_type_symbol
_atom_site_fract_x
_atom_site_fract_y
_atom_site_fract_z
O1	O	1.655097	0.097916	-0.147930
O2	O	2.155097	0.597916	0.352070
O3	O	1.291763	0.107290	-0.102088
O4	O	1.791763	0.607290	0.397912
O5	O	1.483920	0.001015	-0.126341
O6	O	1.983920	0.501015	0.373659
O7	O	1.462941	0.204191	-0.123677
O8	O	1.962941	0.704191	0.376323
O9	O	1.483887	0.001012	-0.248099
O10	O	1.983887	0.501012	0.251901
O11	O	1.291731	0.107287	-0.223846
O12	O	1.791731	0.607287	0.276154
O13	O	1.655064	0.097912	-0.269688
O14	O	2.155064	0.597912	0.230312
Zn15	Zn	1.473392	0.102599	-0.266098
Zn16	Zn	1.973392	0.602599	0.233902
Zn17	Zn	1.473435	0.102603	-0.105677
Zn18	Zn	1.973435	0.602603	0.394323
O19	O	1.462908	0.204188	-0.245435
O20	O	1.962908	0.704188	0.254565
C21	C	1.245263	0.106607	-0.157102
C22	C	1.745263	0.606607	0.342898
C23	C	1.106757	0.104567	-0.139627
C24	C	1.606757	0.604567	0.360373
C25	C	1.044989	0.103656	-0.194911
C26	C	1.544989	0.603656	0.305089
C27	C	0.901835	0.101547	-0.176851
C28	C	1.401835	0.601547	0.323149
C29	C	1.483225	-0.025002	-0.187135
C30	C	1.983225	0.474998	0.312865
C31	C	1.481190	-0.102520	-0.186880
C32	C	1.981190	0.397480	0.313120
C33	C	1.480258	-0.138923	-0.120390
C34	C	1.980258	0.361077	0.379610
C35	C	1.478328	-0.211759	-0.120141
C36	C	1.978328	0.288241	0.379859
C37	C	1.477356	-0.248189	-0.186389
C38	C	1.977356	0.251811	0.313611
C39	C	1.478281	-0.211777	-0.252887
C40	C	1.978281	0.288223	0.247113
C41	C	1.480198	-0.138942	-0.253133
C42	C	1.980198	0.361058	0.246867
N43	N	1.545337	-0.367412	-0.244364
N44	N	2.045337	0.132588	0.255636
N45	N	1.543518	-0.436602	-0.244127
N46	N	2.043518	0.063398	0.255873
C47	C	1.471576	-0.467636	-0.185653
C48	C	1.971576	0.032364	0.314347
N49	N	1.401537	-0.426867	-0.127416
N50	N	1.901537	0.073133	0.372584
N51	N	1.403362	-0.357671	-0.127652
N52	N	1.903362	0.142329	0.372348
C53	C	1.475276	-0.327166	-0.186130
C54	C	1.975276	0.172834	0.313870
C55	C	1.468550	-0.583016	-0.118888
C56	C	1.968550	-0.083016	0.381112
C57	C	1.466612	-0.655852	-0.118640
C58	C	1.966612	-0.155852	0.381360
C59	C	1.466577	-0.655869	-0.251390
C60	C	1.966577	-0.155869	0.248610
C61	C	1.468502	-0.583034	-0.251634
C62	C	1.968502	-0.083034	0.248366
C63	C	1.469494	-0.546612	-0.185381
C64	C	1.969494	-0.046612	0.314619
C65	C	1.701564	0.098596	-0.214672
C66	C	2.201564	0.598596	0.285328
C67	C	1.840071	0.100636	-0.232142
C68	C	2.340071	0.600636	0.267858
C69	C	1.463602	0.230205	-0.184639
C70	C	1.963602	0.730205	0.315361
C71	C	1.465637	0.307723	-0.184889
C72	C	1.965637	0.807723	0.315111
N73	N	1.473372	0.102596	-0.375583
N74	N	1.973372	0.602596	0.124417
C75	C	1.548801	0.145331	-0.423399
C76	C	2.048801	0.645331	0.076601
C77	C	1.548822	0.145330	-0.500046
C78	C	2.048822	0.645330	-0.000046
C79	C	1.473390	0.102600	-0.528872
C80	C	1.973390	0.602600	-0.028872
C81	C	1.397956	0.059856	-0.481046
C82	C	1.897956	0.559856	0.018954
C83	C	1.397947	0.059854	-0.404402
C84	C	1.897947	0.559854	0.095598
N85	N	1.364115	0.100171	-0.635438
N86	N	1.864115	0.600171	-0.135438
N87	N	1.364126	0.100177	-0.708247
N88	N	1.864126	0.600177	-0.208247
C89	C	1.473415	0.102603	-0.759798
C90	C	1.973415	0.602603	-0.259798
N91	N	1.582693	0.105037	-0.735788
N92	N	2.082693	0.605037	-0.235788
N93	N	1.582679	0.105034	-0.662971
N94	N	2.082679	0.605034	-0.162971
C95	C	1.473392	0.102598	-0.611979
C96	C	1.973392	0.602598	-0.111979
C97	C	1.548873	0.145339	-0.890724
C98	C	2.048873	0.645339	-0.390724
C99	C	1.548896	0.145332	-0.967373
C100	C	2.048896	0.645332	-0.467373
C101	C	1.398019	0.059863	-0.948371
C102	C	1.898019	0.559863	-0.448371
C103	C	1.398008	0.059865	-0.871724
C104	C	1.898008	0.559865	-0.371724
C105	C	1.473432	0.102607	-0.842905
C106	C	1.973432	0.602607	-0.342905
N107	N	1.473466	0.102601	0.003806
N108	N	1.973466	0.602601	0.503806
H109	H	1.098089	0.104433	-0.255611
H110	H	1.598089	0.604433	0.244389
H111	H	0.848741	0.100764	-0.116147
H112	H	1.348741	0.600764	0.383853
F113	F	1.477335	-0.250509	-0.049370
F114	F	1.977335	0.249491	0.450630
H115	H	0.893164	0.101414	-0.292847
H116	H	1.393164	0.601414	0.207153
F117	F	1.037360	0.103541	-0.060286
F118	F	1.537360	0.603541	0.439714
H119	H	1.481063	-0.109273	-0.066442
H120	H	1.981063	0.390727	0.433558
H121	H	1.477485	-0.241443	-0.306826
H122	H	1.977485	0.258557	0.193174
F123	F	1.317750	0.014380	-0.979046
F124	F	1.817750	0.514380	-0.479046
H125	H	1.480952	-0.109303	-0.307278
H126	H	1.980952	0.390697	0.192722
H127	H	1.465775	-0.685530	-0.305330
H128	H	1.965775	-0.185530	0.194670
F129	F	1.465612	-0.694594	-0.047867
F130	F	1.965612	-0.194594	0.452133
H131	H	1.469350	-0.553359	-0.064940
H132	H	1.969350	-0.053359	0.435060
F133	F	1.629189	0.190816	-1.018264
F134	F	2.129189	0.690816	-0.518264
H135	H	1.610289	0.180141	-0.867259
H136	H	2.110289	0.680141	-0.367259
F137	F	1.317704	0.014391	-0.820830
F138	F	1.817704	0.514391	-0.320830
H139	H	1.469272	-0.553395	-0.305779
H140	H	1.969272	-0.053395	0.194221
H141	H	1.610223	0.180132	-0.399940
H142	H	2.110223	0.680132	0.100060
H143	H	1.610246	0.180132	-0.538985
H144	H	2.110246	0.680132	-0.038985
F145	F	1.317680	0.014379	-0.511726
F146	F	1.817680	0.514379	-0.011726
H147	H	1.336521	0.025053	-0.365469
H148	H	1.836521	0.525053	0.134531
