data_functionalizedCrystal
_audit_creation_method	'MofGen! by Chris Wilmer'
_symmetry_space_group_name_H-M	'P1'
_symmetry_Int_Tables_number	1
_symmetry_cell_setting	triclinic
loop_
_symmetry_equiv_pos_as_xyz
  x,y,z
_cell_length_a	34.408637
_cell_length_b	34.407814
_cell_length_c	34.404193
_cell_angle_alpha	60.004510
_cell_angle_beta	60.009006
_cell_angle_gamma	59.994604
loop_
_atom_site_label
_atom_site_type_symbol
_atom_site_fract_x
_atom_site_fract_y
_atom_site_fract_z
O1	O	0.053973	-0.567860	0.474801
O2	O	0.020377	-0.442124	0.382567
O3	O	0.100004	-0.521670	0.382483
O4	O	-0.025653	-0.488314	0.474886
O5	O	0.126426	-0.495253	0.408816
O6	O	0.046800	-0.415707	0.408900
O7	O	0.080396	-0.541443	0.501134
Zn8	Zn	0.067793	-0.474381	0.459198
Zn9	Zn	0.032980	-0.509186	0.424503
O10	O	0.000769	-0.461897	0.501219
N11	N	0.091552	-0.450631	0.482879
N12	N	0.009225	-0.532940	0.400823
C13	C	0.142848	-0.268847	0.534081
C14	C	0.142979	-0.399386	0.664559
C15	C	0.142862	-0.399365	0.534081
C16	C	0.273409	-0.399338	0.533986
C17	C	0.157225	-0.311914	0.548422
C18	C	0.157300	-0.385019	0.621491
C19	C	0.230339	-0.384991	0.548370
C20	C	0.157235	-0.385007	0.548422
C21	C	0.124548	-0.214028	0.515827
C22	C	0.124571	-0.417639	0.515827
C23	C	0.175526	-0.366733	0.566676
C24	C	0.353121	-0.385580	0.491988
C25	C	0.402952	-0.402180	0.475348
C26	C	0.402981	-0.482812	0.506096
C27	C	0.353151	-0.466211	0.522737
C28	C	0.136544	-0.189099	0.466839
C29	C	0.119905	-0.139265	0.450247
C30	C	0.079280	-0.139291	0.531632
C31	C	0.095918	-0.189125	0.548224
C32	C	0.075577	-0.405615	0.527900
C33	C	0.058953	-0.422228	0.511301
C34	C	0.140315	-0.462889	0.470566
C35	C	0.156941	-0.446276	0.487159
C36	C	0.075772	-0.405653	0.744326
C37	C	0.059206	-0.422280	0.794159
C38	C	0.140607	-0.462951	0.794094
C39	C	0.157172	-0.446325	0.744260
C40	C	0.124753	-0.417674	0.719377
C41	C	0.328223	-0.417595	0.515681
C42	C	-0.172390	-0.583988	0.349141
C43	C	-0.041751	-0.584138	0.218783
C44	C	-0.041941	-0.584130	0.349402
C45	C	-0.041957	-0.714607	0.349338
C46	C	-0.129326	-0.598388	0.334853
C47	C	-0.056165	-0.598473	0.261852
C48	C	-0.056282	-0.671535	0.334962
C49	C	-0.056272	-0.598469	0.334999
C50	C	-0.227205	-0.565659	0.367327
C51	C	-0.023703	-0.565882	0.367734
C52	C	-0.074511	-0.616717	0.316667
C53	C	-0.055754	-0.794298	0.391257
C54	C	-0.039181	-0.844132	0.407888
C55	C	0.041447	-0.844215	0.377269
C56	C	0.024873	-0.794381	0.360637
C57	C	-0.252183	-0.577666	0.416302
C58	C	-0.302014	-0.561001	0.432833
C59	C	-0.301886	-0.520329	0.351410
C60	C	-0.252055	-0.536994	0.334880
C61	C	-0.035709	-0.516892	0.355682
C62	C	-0.019129	-0.500308	0.372353
C63	C	0.021465	-0.581700	0.413115
C64	C	0.004884	-0.598286	0.396450
C65	C	-0.035389	-0.516907	0.139026
C66	C	-0.018707	-0.500324	0.089193
C67	C	0.021949	-0.581721	0.089240
C68	C	0.005268	-0.598303	0.139074
C69	C	-0.023402	-0.565894	0.163965
C70	C	-0.023728	-0.769425	0.367633
N71	N	0.427173	-0.450553	0.482630
O72	O	0.589997	-0.458460	0.365361
O73	O	0.590185	-0.550997	0.490963
O74	O	0.590104	-0.550786	0.411309
O75	O	0.590077	-0.458671	0.445016
O76	O	0.510940	-0.524462	0.437777
O77	O	0.511020	-0.524674	0.517432
O78	O	0.510832	-0.432136	0.391830
Zn79	Zn	0.498357	-0.474225	0.458833
Zn80	Zn	0.602660	-0.508908	0.423960
O81	O	0.510913	-0.432348	0.471484
N82	N	0.673844	-0.532580	0.400158
N83	N	0.091520	-0.115070	0.482873
O84	O	-0.025663	0.047841	0.474857
O85	O	0.099940	0.047877	0.382299
O86	O	0.020247	0.047844	0.382560
O87	O	0.054030	0.047874	0.474596
O88	O	0.046674	-0.031326	0.408942
O89	O	0.126367	-0.031293	0.408680
O90	O	0.000764	-0.031329	0.501238
Zn91	Zn	0.067761	-0.043881	0.459148
Zn92	Zn	0.032943	0.060429	0.424389
O93	O	0.080457	-0.031296	0.500977
N94	N	0.009178	0.131618	0.400665
N95	N	0.091852	-0.450680	0.818332
O96	O	0.083862	-0.567845	0.981235
O97	O	-0.008657	-0.442198	0.981276
O98	O	-0.008441	-0.521875	0.981252
O99	O	0.083646	-0.488168	0.981258
O100	O	0.017919	-0.495468	0.902085
O101	O	0.017703	-0.415791	0.902109
O102	O	0.110222	-0.541438	0.902067
Zn103	Zn	0.068148	-0.474422	0.889518
Zn104	Zn	0.033417	-0.509214	0.993825
O105	O	0.110006	-0.461761	0.902091
N106	N	0.009712	-0.532961	1.065011
C107	C	0.030439	-0.413071	0.383027
C108	C	0.129046	-0.511580	0.382922
C109	C	0.070334	-0.570496	0.500675
C110	C	-0.028274	-0.471987	0.500780
C111	C	0.550625	-0.550579	0.520021
C112	C	0.550527	-0.550317	0.421379
C113	C	0.550389	-0.432554	0.362773
C114	C	0.550491	-0.432816	0.461414
C115	C	0.128944	0.008394	0.382712
C116	C	0.030287	0.008256	0.383068
C117	C	-0.028273	0.008252	0.500793
C118	C	0.070417	0.008292	0.500470
C119	C	-0.008218	-0.413165	0.941698
C120	C	-0.007945	-0.511830	0.941653
C121	C	0.109783	-0.570471	0.941646
C122	C	0.109516	-0.471800	0.941673
H123	H	0.019320	-0.412483	0.814467
H124	H	-0.064344	0.008241	0.529850
O125	O	0.144079	-0.463284	0.941688
C126	C	0.224301	-0.494414	0.941633
C127	C	0.185198	-0.504126	0.941628
H128	H	0.257559	-0.527424	0.941575
H129	H	0.211154	-0.485376	0.974777
H130	H	0.233149	-0.463232	0.908514
H131	H	0.176334	-0.535313	0.974725
H132	H	0.198367	-0.513135	0.908463
O133	O	0.021731	0.008268	0.348511
C134	C	0.052831	0.008237	0.268322
C135	C	0.062580	0.008235	0.307411
H136	H	0.085854	0.008200	0.235088
H137	H	0.021676	0.041370	0.259408
H138	H	0.043753	-0.024895	0.281549
H139	H	0.071679	0.041345	0.294217
H140	H	0.093722	-0.024920	0.316320
O141	O	0.021929	-0.369963	0.348477
C142	C	0.044913	-0.299988	0.296448
C143	C	0.054595	-0.348793	0.335582
H144	H	0.071324	-0.282863	0.286004
H145	H	0.007112	-0.276036	0.310344
H146	H	0.049153	-0.304951	0.263999
H147	H	0.050381	-0.343876	0.368045
H148	H	0.092392	-0.372728	0.321648
O149	O	0.079095	0.008209	0.534984
C150	C	0.127466	-0.032786	0.584981
C151	C	0.117684	-0.032755	0.545898
H152	H	0.158671	-0.065897	0.593809
H153	H	0.094489	-0.032828	0.618262
H154	H	0.136500	0.000367	0.571779
H155	H	0.108661	-0.065902	0.559054
H156	H	0.150669	-0.032688	0.512625
O157	O	0.044214	-0.377842	0.720231
C158	C	-0.038274	-0.339231	0.725559
C159	C	-0.002588	-0.370737	0.752906
H160	H	-0.076121	-0.333469	0.751964
H161	H	-0.032589	-0.357477	0.702243
H162	H	-0.032526	-0.303392	0.702218
H163	H	-0.008315	-0.406581	0.776273
H164	H	-0.008282	-0.352454	0.776191
H165	H	0.167007	-0.486271	0.814352
O166	O	0.550455	-0.584798	0.412783
C167	C	0.509444	-0.607537	0.391845
C168	C	0.509460	-0.568452	0.401578
H169	H	0.476308	-0.594332	0.382773
H170	H	0.509467	-0.640798	0.424848
H171	H	0.542567	-0.616407	0.360674
H172	H	0.476343	-0.559541	0.432733
H173	H	0.509462	-0.535215	0.368551
O174	O	0.550339	-0.397950	0.319708
C175	C	0.550207	-0.375802	0.241328
C176	C	0.550276	-0.415036	0.290072
H177	H	0.550146	-0.389598	0.217357
H178	H	0.583324	-0.365389	0.224171
H179	H	0.517063	-0.343356	0.246383
H180	H	0.583398	-0.447508	0.285058
H181	H	0.517138	-0.425409	0.307212
H182	H	0.550485	-0.403881	0.468626
O183	O	0.171905	0.008692	0.348003
C184	C	0.250201	0.009082	0.325712
C185	C	0.201565	0.008756	0.365058
H186	H	0.274198	0.009124	0.339490
H187	H	0.245015	0.042295	0.293355
H188	H	0.267406	-0.023969	0.315171
H189	H	0.184333	0.041784	0.375640
H190	H	0.206782	-0.024479	0.397389
H191	H	0.197059	-0.456117	0.723950
H192	H	-0.036863	-0.519031	0.941619
O193	O	0.044068	-0.377782	0.555722
C194	C	-0.038389	-0.339223	0.594393
C195	C	-0.002758	-0.370738	0.562872
H196	H	-0.076255	-0.333526	0.600192
H197	H	-0.032699	-0.303354	0.576141
H198	H	-0.032586	-0.357488	0.630213
H199	H	-0.008539	-0.352515	0.527047
H200	H	-0.008456	-0.406605	0.581161
O201	O	0.172098	-0.520133	0.348319
C202	C	0.229388	-0.568256	0.298073
C203	C	0.180629	-0.558628	0.337269
H204	H	0.236297	-0.599372	0.289120
H205	H	0.258475	-0.577323	0.311163
H206	H	0.229474	-0.535173	0.264893
H207	H	0.180497	-0.591695	0.370463
H208	H	0.151564	-0.549541	0.324140
O209	O	-0.042827	-0.370097	0.941733
C210	C	-0.064951	-0.291670	0.941727
C211	C	-0.025719	-0.340426	0.941698
H212	H	-0.051130	-0.267663	0.941689
H213	H	-0.097409	-0.296646	0.974869
H214	H	-0.075351	-0.274594	0.908606
H215	H	-0.015278	-0.357528	0.974796
H216	H	0.006713	-0.335418	0.908534
H217	H	0.550674	-0.579628	0.556096
H218	H	0.138832	-0.606554	0.941627
H219	H	0.019058	-0.412426	0.521121
O220	O	0.078965	-0.613619	0.535177
C221	C	0.135469	-0.691970	0.557067
C222	C	0.125754	-0.643159	0.517949
H223	H	0.173300	-0.715863	0.543157
H224	H	0.109123	-0.709162	0.567486
H225	H	0.131183	-0.687006	0.589537
H226	H	0.130046	-0.648081	0.485454
H227	H	0.152098	-0.625983	0.507570
H228	H	-0.028907	-0.460416	0.362542
H229	H	0.166679	-0.486211	0.447227
O230	O	0.204545	-0.457928	0.475347
C231	C	0.279128	-0.454057	0.412124
C232	C	0.225226	-0.440844	0.425436
H233	H	0.295864	-0.440242	0.371772
H234	H	0.295985	-0.494407	0.425820
H235	H	0.285434	-0.437275	0.428934
H236	H	0.218878	-0.457595	0.408631
H237	H	0.208397	-0.400490	0.411749
O238	O	0.328992	-0.497323	0.545674
C239	C	0.313778	-0.555935	0.541251
C240	C	0.341157	-0.520707	0.515218
H241	H	0.323612	-0.574858	0.516642
H242	H	0.273874	-0.535748	0.551921
H243	H	0.323606	-0.583304	0.574479
H244	H	0.331369	-0.493329	0.481973
H245	H	0.381055	-0.540926	0.504583
O246	O	0.427120	-0.371051	0.452259
C247	C	0.442290	-0.301950	0.385104
C248	C	0.414898	-0.337176	0.411202
H249	H	0.432411	-0.274548	0.351910
H250	H	0.482193	-0.322139	0.374383
H251	H	0.432519	-0.283067	0.409722
H252	H	0.424629	-0.356069	0.386611
H253	H	0.375002	-0.316961	0.421931
O254	O	0.328883	-0.338347	0.485074
C255	C	0.272556	-0.267564	0.450246
C256	C	0.299981	-0.321050	0.458032
H257	H	0.249175	-0.253565	0.428391
H258	H	0.298892	-0.247506	0.430428
H259	H	0.249271	-0.262032	0.486189
H260	H	0.323267	-0.326626	0.422110
H261	H	0.273619	-0.341081	0.477872
H262	H	0.423275	-0.522397	0.511838
H263	H	0.129672	-0.118967	0.410356
O264	O	0.164331	-0.213214	0.435303
C265	C	0.202888	-0.207929	0.352827
C266	C	0.171406	-0.180557	0.388488
H267	H	0.208625	-0.181538	0.314970
H268	H	0.184639	-0.231255	0.358549
H269	H	0.238736	-0.231264	0.358568
H270	H	0.135551	-0.157197	0.382769
H271	H	0.189691	-0.157261	0.382758
O272	O	-0.070262	-0.868320	0.430768
C273	C	-0.093027	-0.924572	0.431519
C274	C	-0.057803	-0.897199	0.405550
H275	H	-0.082961	-0.947935	0.411147
H276	H	-0.130618	-0.898198	0.433652
H277	H	-0.091558	-0.947873	0.469009
H278	H	-0.059229	-0.873898	0.368048
H279	H	-0.020227	-0.923599	0.403456
O280	O	0.051529	-0.115153	0.563149
C281	C	0.045236	-0.099899	0.627585
C282	C	0.076710	-0.127270	0.591923
H283	H	0.065585	-0.109678	0.650851
H284	H	0.011440	-0.109723	0.650974
H285	H	0.035389	-0.060001	0.607303
H286	H	0.086592	-0.167174	0.612166
H287	H	0.110482	-0.117406	0.568535
O288	O	0.084363	-0.213379	0.595802
C289	C	0.113094	-0.269583	0.661737
C290	C	0.126241	-0.242162	0.607843
H291	H	0.146944	-0.292854	0.671490
H292	H	0.092834	-0.292968	0.671614
H293	H	0.089765	-0.243199	0.682012
H294	H	0.149585	-0.268512	0.587531
H295	H	0.146477	-0.218770	0.598003
H296	H	-0.058738	-0.490513	0.159288
O297	O	-0.030443	-0.452731	0.064992
C298	C	-0.093569	-0.378054	0.049665
C299	C	-0.080346	-0.431948	0.077093
H300	H	-0.133917	-0.361233	0.059447
H301	H	-0.076760	-0.371736	0.009767
H302	H	-0.079816	-0.361288	0.059502
H303	H	-0.094097	-0.448750	0.067296
H304	H	-0.097149	-0.438232	0.116985
O305	O	0.049802	-0.613268	0.065135
C306	C	0.088333	-0.695752	0.070441
C307	C	0.056793	-0.660080	0.097800
H308	H	0.093986	-0.733608	0.096839
H309	H	0.124216	-0.690093	0.047179
H310	H	0.070115	-0.689961	0.047045
H311	H	0.074968	-0.665849	0.121221
H312	H	0.020911	-0.665748	0.121031
H313	H	0.015032	-0.638195	0.159378
H314	H	-0.064365	-0.464880	0.529794
H315	H	-0.058984	-0.490504	0.332300
H316	H	0.044746	-0.608091	0.436494
H317	H	0.050956	-0.774133	0.341399
O318	O	0.016526	-0.645886	0.408234
C319	C	0.012602	-0.720489	0.471415
C320	C	-0.000605	-0.666592	0.458139
H321	H	-0.001252	-0.737244	0.511762
H322	H	0.052950	-0.737355	0.457760
H323	H	-0.004146	-0.726763	0.454544
H324	H	0.016110	-0.660275	0.475005
H325	H	-0.040958	-0.649752	0.471785
O326	O	0.088676	-0.868384	0.370417
C327	C	0.166897	-0.863210	0.338318
C328	C	0.113425	-0.835777	0.346035
H329	H	0.186921	-0.836859	0.318613
H330	H	0.180976	-0.886536	0.316380
H331	H	0.172376	-0.886552	0.374281
H332	H	0.107906	-0.812410	0.310093
H333	H	0.099372	-0.812482	0.367994
H334	H	-0.095331	-0.773979	0.396956
H335	H	-0.322352	-0.570775	0.472713
O336	O	-0.228120	-0.605488	0.447887
C337	C	-0.233506	-0.644088	0.530393
C338	C	-0.260820	-0.612566	0.494678
H339	H	-0.259932	-0.649828	0.568231
H340	H	-0.210187	-0.625867	0.524735
H341	H	-0.210173	-0.679935	0.524650
H342	H	-0.284178	-0.576713	0.500400
H343	H	-0.284109	-0.630824	0.500345
H344	H	-0.322118	-0.496994	0.324987
H345	H	-0.231721	-0.527215	0.295000
