data_functionalizedCrystal
_audit_creation_method	'MofGen! by Chris Wilmer'
_symmetry_space_group_name_H-M	'P1'
_symmetry_Int_Tables_number	1
_symmetry_cell_setting	triclinic
loop_
_symmetry_equiv_pos_as_xyz
  x,y,z
_cell_length_a	10.967874
_cell_length_b	11.026623
_cell_length_c	9.482944
_cell_angle_alpha	81.872538
_cell_angle_beta	112.344705
_cell_angle_gamma	83.619608
loop_
_atom_site_label
_atom_site_type_symbol
_atom_site_fract_x
_atom_site_fract_y
_atom_site_fract_z
O1	O	1.794388	-0.250951	0.570432
O2	O	2.294388	0.249049	1.070432
O3	O	1.418170	-0.253984	0.476183
O4	O	1.918170	0.246016	0.976183
O5	O	1.575096	-0.074464	0.515488
O6	O	2.075096	0.425536	1.015488
O7	O	1.637462	-0.430471	0.531127
O8	O	2.137462	0.069529	1.031127
O9	O	1.530572	-0.038795	0.262540
O10	O	2.030572	0.461205	0.762540
O11	O	1.373646	-0.218315	0.223235
O12	O	1.873646	0.281685	0.723235
O13	O	1.749864	-0.215282	0.317484
O14	O	2.249864	0.284718	0.817484
Cu15	Cu	1.557689	-0.213542	0.247264
Cu16	Cu	2.057689	0.286458	0.747264
Cu17	Cu	1.610344	-0.255724	0.546404
Cu18	Cu	2.110344	0.244276	1.046404
O19	O	1.592938	-0.394802	0.278179
O20	O	2.092938	0.105198	0.778179
C21	C	1.346995	-0.233234	0.337456
C22	C	1.846995	0.266766	0.837456
C23	C	1.201247	-0.224532	0.300943
C24	C	1.701247	0.275468	0.800943
C25	C	1.159334	-0.239130	0.415699
C26	C	1.659334	0.260870	0.915699
C27	C	1.008696	-0.230136	0.377965
C28	C	1.508696	0.269864	0.877965
C29	C	1.541329	-0.010921	0.386133
C30	C	2.041329	0.489079	0.886133
C31	C	1.507033	0.125277	0.377545
C32	C	2.007033	0.625277	0.877545
C33	C	1.601729	0.194984	0.401269
C34	C	2.101729	0.694984	0.901269
C35	C	1.566285	0.335752	0.392393
C36	C	2.066285	0.835752	0.892393
C37	C	1.821039	-0.236033	0.456215
C38	C	2.321039	0.263967	0.956215
C39	C	1.966789	-0.244736	0.492737
C40	C	2.466789	0.255264	0.992737
N41	N	1.520664	-0.183873	0.036867
N42	N	2.020664	0.316127	0.536867
C43	C	1.626703	0.541655	0.407534
C44	C	2.126703	1.041655	0.907534
C45	C	1.660994	0.405456	0.416121
C46	C	2.160994	0.905456	0.916121
C47	C	1.599414	-0.246972	-0.015602
C48	C	2.099414	0.253028	0.484398
C49	C	1.568616	-0.222275	-0.190736
C50	C	2.068616	0.277725	0.309264
N51	N	1.647378	-0.285384	0.756802
N52	N	2.147378	0.214616	1.256802
H53	H	1.234972	-0.258292	0.541882
H54	H	1.734972	0.241708	1.041882
H55	H	1.709039	0.150449	0.428144
H56	H	2.209039	0.650449	0.928144
H57	H	1.042422	-0.263902	0.618929
H58	H	1.542422	0.236098	1.118929
N59	N	1.100857	-0.198771	0.133872
N60	N	1.600857	0.301229	0.633872
H61	H	1.049835	-0.269840	0.115122
H62	H	1.549835	0.230160	0.615122
H63	H	1.036190	-0.118956	0.112446
H64	H	1.536190	0.381044	0.612446
N65	N	1.424128	0.394720	0.356794
N66	N	1.924128	0.894720	0.856794
H67	H	1.418958	0.486920	0.355503
H68	H	1.918958	0.986920	0.855503
H69	H	1.362666	0.381512	0.251761
H70	H	1.862666	0.881512	0.751761
H71	H	1.768334	0.360911	0.443121
H72	H	2.268334	0.860911	0.943121
H73	H	1.399723	0.169812	0.350671
H74	H	1.899723	0.669812	0.850671
N75	N	0.908477	-0.204243	0.210796
N76	N	1.408477	0.295757	0.710796
H77	H	0.815050	-0.201240	0.207530
H78	H	1.315050	0.298760	0.707530
H79	H	0.914936	-0.121588	0.155261
H80	H	1.414936	0.378412	0.655261
N81	N	1.718935	-0.342741	0.096624
N82	N	2.218935	0.157259	0.596624
H83	H	1.723997	-0.346805	0.205827
H84	H	2.223997	0.153195	0.705827
H85	H	1.709285	-0.426926	0.067681
H86	H	2.209285	0.073074	0.567681
N87	N	1.449106	-0.126483	-0.302953
N88	N	1.949106	0.373517	0.197047
H89	H	1.444047	-0.122415	-0.412155
H90	H	1.944047	0.377585	0.087845
H91	H	1.364574	-0.150667	-0.297624
H92	H	1.864574	0.349333	0.202376
N93	N	1.766904	-0.381161	-0.130979
N94	N	2.266904	0.118839	0.369021
H95	H	1.771968	-0.385228	-0.021776
H96	H	2.271968	0.114772	0.478224
H97	H	1.757249	-0.465344	-0.159927
H98	H	2.257249	0.034656	0.340073
H99	H	1.430445	-0.111564	-0.047868
H100	H	1.930445	0.388436	0.452132
