data_functionalizedCrystal
_audit_creation_method	'MofGen! by Chris Wilmer'
_symmetry_space_group_name_H-M	'P1'
_symmetry_Int_Tables_number	1
_symmetry_cell_setting	triclinic
loop_
_symmetry_equiv_pos_as_xyz
  x,y,z
_cell_length_a	14.044220
_cell_length_b	17.699083
_cell_length_c	16.176319
_cell_angle_alpha	89.998611
_cell_angle_beta	90.005330
_cell_angle_gamma	91.764054
loop_
_atom_site_label
_atom_site_type_symbol
_atom_site_fract_x
_atom_site_fract_y
_atom_site_fract_z
O1	O	-0.119850	1.012346	-0.068628
O2	O	-0.135443	0.793044	-0.068655
O3	O	0.010330	0.899403	-0.068638
O4	O	-0.265624	0.905987	-0.068645
O5	O	0.010340	0.899387	0.068855
O6	O	-0.135434	0.793027	0.068838
O7	O	-0.119841	1.012330	0.068865
Cu8	Cu	-0.127637	0.902677	0.081406
Cu9	Cu	-0.127648	0.902696	-0.081196
O10	O	-0.265614	0.905970	0.068848
C11	C	-0.134880	0.764800	0.000088
C12	C	-0.133204	0.680666	0.000078
C13	C	-0.218769	0.637948	0.000076
C14	C	-0.217189	0.558895	0.000087
C15	C	-0.130041	0.522563	0.000094
C16	C	-0.044469	0.565287	0.000098
C17	C	-0.046050	0.644338	0.000093
C18	C	-0.038089	0.246484	0.000118
C19	C	-0.036514	0.167427	0.000121
C20	C	-0.209227	0.161041	0.000112
C21	C	-0.210809	0.240092	0.000108
C22	C	-0.125237	0.282809	0.000116
C23	C	-0.126952	0.368527	0.000106
C24	C	-0.128325	0.436847	0.000098
C25	C	-0.300927	0.908860	0.000101
C26	C	-0.406133	0.917456	0.000099
C27	C	-0.598758	0.933171	0.000105
C28	C	-0.656532	0.872205	0.000098
C29	C	-0.763715	0.880949	0.000101
C30	C	-0.491565	0.924428	0.000102
C31	C	0.045643	0.896513	0.000107
C32	C	0.150849	0.887917	0.000104
C33	C	-0.120404	1.040574	0.000120
C34	C	-0.122081	1.124707	0.000125
N35	N	-0.127628	0.902668	0.195771
N36	N	-0.127648	0.902710	-0.195561
C37	C	-0.063106	0.949782	0.239043
C38	C	-0.063105	0.949786	0.325590
C39	C	-0.127632	0.902679	0.368864
C40	C	-0.192157	0.855561	0.325586
C41	C	-0.192153	0.855554	0.239041
C42	C	-0.192175	0.855588	0.674614
C43	C	-0.192176	0.855600	0.761166
C44	C	-0.063127	0.949820	0.761164
C45	C	-0.063123	0.949813	0.674618
C46	C	-0.127644	0.902692	0.631348
C47	C	-0.127643	0.902687	0.537504
C48	C	-0.127638	0.902687	0.462706
H49	H	-0.286865	0.524117	0.000085
H50	H	-0.244723	0.817238	0.796398
H51	H	-0.010583	0.988174	0.639387
H52	H	-0.625496	0.813444	0.000092
H53	H	-0.244692	0.817202	0.360825
H54	H	-0.629792	0.991928	0.000115
H55	H	0.023626	0.679119	0.000094
O56	O	-0.295547	0.275264	0.000138
C57	C	-0.370733	0.220607	0.000120
H58	H	-0.344288	0.165194	0.026153
H59	H	-0.431584	0.241215	0.040037
H60	H	-0.397125	0.211217	-0.065842
H61	H	-0.244692	0.817188	0.203810
H62	H	-0.010565	0.988144	0.203815
H63	H	-0.010566	0.988148	0.360821
H64	H	-0.010587	0.988186	0.796403
H65	H	-0.244712	0.817222	0.639391
H66	H	0.034456	0.137848	0.000127
O67	O	-0.303486	0.673151	-0.000041
C68	C	-0.355630	0.651900	-0.071261
H69	H	-0.329925	0.595413	-0.094996
H70	H	-0.434577	0.646269	-0.055247
H71	H	-0.344555	0.696832	-0.121127
O72	O	-0.292292	0.119463	0.000002
C73	C	-0.296559	0.073556	-0.071213
H74	H	-0.221344	0.064483	-0.094946
H75	H	-0.332000	0.016616	-0.055195
H76	H	-0.339783	0.102443	-0.121083
O77	O	0.045060	0.287937	-0.000025
C78	C	0.097986	0.270545	-0.071222
H79	H	0.047884	0.246950	-0.120994
H80	H	0.136127	0.323977	-0.095123
H81	H	0.152743	0.226645	-0.055120
O82	O	0.040104	0.529876	0.000069
C83	C	0.023155	0.450943	0.000091
H84	H	-0.050848	0.437399	-0.025942
H85	H	0.078907	0.422940	-0.039823
H86	H	0.027700	0.428662	0.066055
