data_functionalizedCrystal
_audit_creation_method	'MofGen! by Chris Wilmer'
_symmetry_space_group_name_H-M	'P1'
_symmetry_Int_Tables_number	1
_symmetry_cell_setting	triclinic
loop_
_symmetry_equiv_pos_as_xyz
  x,y,z
_cell_length_a	8.597187
_cell_length_b	8.597304
_cell_length_c	7.088929
_cell_angle_alpha	76.027438
_cell_angle_beta	88.663715
_cell_angle_gamma	84.294415
loop_
_atom_site_label
_atom_site_type_symbol
_atom_site_fract_x
_atom_site_fract_y
_atom_site_fract_z
O1	O	2.032059	0.288415	-0.541213
O2	O	1.582604	0.299163	-0.468951
O3	O	1.819924	0.061848	-0.468947
O4	O	1.794739	0.525730	-0.541218
O5	O	1.851640	0.030059	-0.150959
O6	O	1.614320	0.267374	-0.150963
O7	O	2.063775	0.256626	-0.223225
Cu8	Cu	1.841943	0.259098	-0.158059
Cu9	Cu	1.804436	0.296692	-0.534117
O10	O	1.826455	0.493941	-0.223230
C11	C	1.540953	0.280343	-0.300003
C12	C	1.369595	0.271606	-0.270339
C13	C	1.834845	-0.013542	-0.300001
C14	C	1.832032	-0.190822	-0.270345
C15	C	2.105425	0.275447	-0.392178
C16	C	2.276782	0.284185	-0.421855
C17	C	1.811534	0.569332	-0.392180
C18	C	1.814345	0.746613	-0.421848
N19	N	1.868335	0.232655	0.106437
N20	N	1.778056	0.323122	-0.798614
H21	H	1.317959	0.254171	-0.117939
H22	H	1.801347	-0.171326	-0.574255
Br23	Br	2.024315	0.076412	0.242570
H24	H	1.845008	-0.272889	-0.117925
Br25	Br	1.362838	0.313281	-0.675891
H26	H	1.684493	0.416870	0.119707
