data_functionalizedCrystal
_audit_creation_method	'MofGen! by Chris Wilmer'
_symmetry_space_group_name_H-M	'P1'
_symmetry_Int_Tables_number	1
_symmetry_cell_setting	triclinic
loop_
_symmetry_equiv_pos_as_xyz
  x,y,z
_cell_length_a	16.120490
_cell_length_b	16.120531
_cell_length_c	16.120297
_cell_angle_alpha	84.389419
_cell_angle_beta	90.129683
_cell_angle_gamma	89.829344
loop_
_atom_site_label
_atom_site_type_symbol
_atom_site_fract_x
_atom_site_fract_y
_atom_site_fract_z
Zn1	Zn	1.224942	0.422327	-0.554758
Zn2	Zn	1.558275	0.755660	-0.221425
Zn3	Zn	1.891609	1.088994	0.111908
Zn4	Zn	1.224822	0.555010	-0.422054
Zn5	Zn	1.558156	0.888343	-0.088721
Zn6	Zn	1.891489	1.221676	0.244612
Zn7	Zn	1.093682	0.408236	-0.408005
Zn8	Zn	1.427016	0.741569	-0.074671
Zn9	Zn	1.760349	1.074902	0.258662
Zn10	Zn	1.078819	0.554234	-0.553990
Zn11	Zn	1.412152	0.887568	-0.220657
Zn12	Zn	1.745486	1.220901	0.112677
O13	O	1.155566	0.484952	-0.484702
O14	O	1.488900	0.818285	-0.151369
O15	O	1.822233	1.151618	0.181965
O16	O	1.340961	0.446149	-0.543356
O17	O	1.674295	0.779483	-0.210023
O18	O	2.007628	1.112816	0.123310
O19	O	1.213596	0.529967	-0.303558
O20	O	1.546930	0.863300	0.029775
O21	O	1.880263	1.196634	0.363108
O22	O	1.117365	0.293476	-0.421914
O23	O	1.450698	0.626809	-0.088580
O24	O	1.784031	0.960142	0.244753
O25	O	1.340873	0.543631	-0.445859
O26	O	1.674207	0.876964	-0.112526
O27	O	2.007540	1.210298	0.220807
O28	O	1.213800	0.303828	-0.529733
O29	O	1.547134	0.637162	-0.196400
O30	O	1.880467	0.970495	0.136934
O31	O	1.117249	0.422133	-0.293236
O32	O	1.450582	0.755466	0.040097
O33	O	1.783915	1.088799	0.373431
O34	O	0.975675	0.421381	-0.421169
O35	O	1.309009	0.754714	-0.087835
O36	O	1.642342	1.088048	0.245498
O37	O	1.092032	0.542309	-0.670724
O38	O	1.425366	0.875643	-0.337391
O39	O	1.758699	1.208976	-0.004058
O40	O	0.964755	0.528645	-0.528424
O41	O	1.298089	0.861979	-0.195090
O42	O	1.631422	1.195312	0.138243
O43	O	1.199388	0.445397	-0.671289
O44	O	1.532721	0.778731	-0.337956
O45	O	1.866055	1.112064	-0.004622
O46	O	1.199184	0.671536	-0.445114
O47	O	1.532518	1.004869	-0.111781
O48	O	1.865851	1.338203	0.221552
O49	O	1.091916	0.670966	-0.542047
O50	O	1.425250	1.004300	-0.208713
O51	O	1.758583	1.337633	0.124620
C52	C	0.940129	0.473401	-0.473189
C53	C	1.273462	0.806734	-0.139855
C54	C	1.606795	1.140067	0.193478
C55	C	0.847961	0.468480	-0.468284
C56	C	1.181295	0.801813	-0.134951
C57	C	1.514628	1.135147	0.198383
C58	C	0.632762	0.510469	-0.510144
C59	C	0.966095	0.843802	-0.176811
C60	C	1.299429	1.177136	0.156522
C61	C	0.679215	0.459504	-0.459329
C62	C	1.012548	0.792837	-0.125995
C63	C	1.345882	1.126170	0.207338
C64	C	0.773114	0.464500	-0.464313
C65	C	1.106447	0.797833	-0.130980
C66	C	1.439781	1.131166	0.202354
C67	C	0.538854	0.505474	-0.505161
C68	C	0.872187	0.838808	-0.171828
C69	C	1.205521	1.172141	0.161505
C70	C	1.143946	0.701494	-0.495041
C71	C	1.477279	1.034827	-0.161708
C72	C	1.810613	1.368161	0.171626
C73	C	1.139049	0.794137	-0.499496
C74	C	1.472382	1.127470	-0.166163
C75	C	1.805716	1.460804	0.167171
C76	C	1.130113	0.963758	-0.507647
C77	C	1.463446	1.297091	-0.174314
C78	C	1.796779	1.630425	0.159019
C79	C	1.181054	1.005304	-0.461711
C80	C	1.514387	1.338637	-0.128378
C81	C	1.847721	1.671971	0.204956
C82	C	1.176082	1.099687	-0.466246
C83	C	1.509415	1.433020	-0.132913
C84	C	1.842748	1.766354	0.200420
C85	C	1.135084	0.869367	-0.503113
C86	C	1.468417	1.202700	-0.169780
C87	C	1.801750	1.536033	0.163554
C88	C	1.371845	0.496548	-0.496261
C89	C	1.705179	0.829882	-0.162927
C90	C	2.038512	1.163215	0.170406
C91	C	1.464010	0.501490	-0.501186
C92	C	1.797344	0.834824	-0.167853
C93	C	2.130677	1.168157	0.165480
C94	C	1.144066	0.495339	-0.702094
C95	C	1.477399	0.828672	-0.368760
C96	C	1.810732	1.162005	-0.035427
C97	C	1.139165	0.499765	-0.794733
C98	C	1.472498	0.833098	-0.461400
C99	C	1.805831	1.166432	-0.128067
C100	C	1.167225	1.267564	-0.474325
C101	C	1.500558	1.600897	-0.140992
C102	C	1.833892	1.934230	0.192342
C103	C	1.172120	1.174920	-0.469860
C104	C	1.505453	1.508253	-0.136526
C105	C	1.838787	1.841587	0.196807
C106	C	1.130187	0.507826	-0.964344
C107	C	1.463521	0.841159	-0.631011
C108	C	1.796854	1.174493	-0.297677
C109	C	1.181122	0.461836	-1.005908
C110	C	1.514455	0.795170	-0.672575
C111	C	1.847789	1.128503	-0.339242
C112	C	1.176127	0.466321	-1.100286
C113	C	1.509460	0.799655	-0.766952
C114	C	1.842794	1.132988	-0.433619
C115	C	1.135181	0.503342	-0.869958
C116	C	1.468515	0.836675	-0.536625
C117	C	1.801848	1.170009	-0.203292
C118	C	1.167073	0.474547	-0.268156
C119	C	1.500407	0.807881	0.065178
C120	C	1.833740	1.141214	0.398511
C121	C	1.172147	0.469895	-0.175514
C122	C	1.505481	0.803228	0.157819
C123	C	1.838814	1.136562	0.491153
H124	H	0.648464	0.412119	-0.412080
H125	H	0.981798	0.745452	-0.078747
H126	H	1.315131	1.078786	0.254586
H127	H	0.663511	0.557851	-0.557388
H128	H	0.996844	0.891184	-0.224055
H129	H	1.330178	1.224517	0.109278
H130	H	1.082769	0.999071	-0.550376
H131	H	1.416102	1.332404	-0.217043
H132	H	1.749436	1.665738	0.116290
F133	F	1.242938	0.959147	-0.405853
F134	F	1.576271	1.292480	-0.072519
F135	F	1.909605	1.625813	0.260814
F136	F	1.243036	0.405984	-0.959779
F137	F	1.576370	0.739317	-0.626445
F138	F	1.909703	1.072651	-0.293112
H139	H	1.082834	0.550565	-0.999637
H140	H	1.416167	0.883899	-0.666304
H141	H	1.749501	1.217232	-0.332971
