data_functionalizedCrystal
_audit_creation_method	'MofGen! by Chris Wilmer'
_symmetry_space_group_name_H-M	'P1'
_symmetry_Int_Tables_number	1
_symmetry_cell_setting	triclinic
loop_
_symmetry_equiv_pos_as_xyz
  x,y,z
_cell_length_a	18.050590
_cell_length_b	18.050590
_cell_length_c	13.897441
_cell_angle_alpha	90.033006
_cell_angle_beta	90.006213
_cell_angle_gamma	90.007719
loop_
_atom_site_label
_atom_site_type_symbol
_atom_site_fract_x
_atom_site_fract_y
_atom_site_fract_z
Zn1	Zn	1.135393	-0.295851	0.544991
Zn2	Zn	1.385393	-0.045851	0.794991
Zn3	Zn	1.635393	0.204149	1.044991
Zn4	Zn	1.885393	0.454149	1.294991
Zn5	Zn	1.135310	-0.420055	0.383686
Zn6	Zn	1.385310	-0.170055	0.633686
Zn7	Zn	1.635310	0.079945	0.883686
Zn8	Zn	1.885310	0.329945	1.133686
Zn9	Zn	1.011198	-0.295860	0.383750
Zn10	Zn	1.261198	-0.045860	0.633750
Zn11	Zn	1.511198	0.204140	0.883750
Zn12	Zn	1.761198	0.454140	1.133750
Zn13	Zn	1.011182	-0.419980	0.544979
Zn14	Zn	1.261182	-0.169980	0.794979
Zn15	Zn	1.511182	0.080020	1.044979
Zn16	Zn	1.761182	0.330020	1.294979
O17	O	1.073271	-0.357936	0.464352
O18	O	1.323271	-0.107936	0.714352
O19	O	1.573271	0.142064	0.964352
O20	O	1.823271	0.392064	1.214352
O21	O	1.239307	-0.312354	0.523572
O22	O	1.489307	-0.062354	0.773572
O23	O	1.739307	0.187646	1.023572
O24	O	1.989307	0.437646	1.273572
O25	O	1.118818	-0.403615	0.248713
O26	O	1.368818	-0.153615	0.498713
O27	O	1.618818	0.096385	0.748713
O28	O	1.868818	0.346385	0.998713
O29	O	1.027714	-0.191934	0.405171
O30	O	1.277714	0.058066	0.655171
O31	O	1.527714	0.308066	0.905171
O32	O	1.777714	0.558066	1.155171
O33	O	1.239246	-0.403606	0.405061
O34	O	1.489246	-0.153606	0.655061
O35	O	1.739246	0.096394	0.905061
O36	O	1.989246	0.346394	1.155061
O37	O	1.118960	-0.191927	0.523634
O38	O	1.368960	0.058073	0.773634
O39	O	1.618960	0.308073	1.023634
O40	O	1.868960	0.558073	1.273634
O41	O	1.027633	-0.312370	0.248760
O42	O	1.277633	-0.062370	0.498760
O43	O	1.527633	0.187630	0.748760
O44	O	1.777633	0.437630	0.998760
O45	O	0.907271	-0.312297	0.405160
O46	O	1.157271	-0.062297	0.655160
O47	O	1.407271	0.187703	0.905160
O48	O	1.657271	0.437703	1.155160
O49	O	1.027687	-0.403479	0.679963
O50	O	1.277687	-0.153479	0.929963
O51	O	1.527687	0.096521	1.179963
O52	O	1.777687	0.346521	1.429963
O53	O	0.907259	-0.403487	0.523614
O54	O	1.157259	-0.153487	0.773614
O55	O	1.407259	0.096513	1.023614
O56	O	1.657259	0.346513	1.273614
O57	O	1.118945	-0.312281	0.679971
O58	O	1.368945	-0.062281	0.929971
O59	O	1.618945	0.187719	1.179971
O60	O	1.868945	0.437719	1.429971
O61	O	1.118802	-0.523969	0.405050
O62	O	1.368802	-0.273969	0.655050
O63	O	1.618802	-0.023969	0.905050
O64	O	1.868802	0.226031	1.155050
O65	O	1.027606	-0.523914	0.523551
O66	O	1.277606	-0.273914	0.773551
O67	O	1.527606	-0.023914	1.023551
O68	O	1.777606	0.226086	1.273551
C69	C	0.880319	-0.357885	0.464393
C70	C	1.130319	-0.107885	0.714393
C71	C	1.380319	0.142115	0.964393
C72	C	1.630319	0.392115	1.214393
C73	C	0.797773	-0.357882	0.464434
C74	C	1.047773	-0.107882	0.714434
C75	C	1.297773	0.142118	0.964434
C76	C	1.547773	0.392118	1.214434
C77	C	0.598337	-0.407613	0.528696
C78	C	0.848337	-0.157613	0.778696
C79	C	1.098337	0.092387	1.028696
C80	C	1.348337	0.342387	1.278696
C81	C	0.548935	-0.339895	0.552434
C82	C	0.798935	-0.089895	0.802434
C83	C	1.048935	0.160105	1.052434
C84	C	1.298935	0.410105	1.302434
C85	C	0.646642	-0.357923	0.464387
C86	C	0.896642	-0.107923	0.714387
C87	C	1.146642	0.142077	0.964387
C88	C	1.396642	0.392077	1.214387
C89	C	0.548963	-0.425680	0.440648
C90	C	0.798963	-0.175680	0.690648
C91	C	1.048963	0.074320	0.940648
C92	C	1.298963	0.324320	1.190648
C93	C	0.500657	-0.357969	0.464343
C94	C	0.750657	-0.107969	0.714343
C95	C	1.000657	0.142031	0.964343
C96	C	1.250657	0.392031	1.214343
C97	C	0.598327	-0.290169	0.488170
C98	C	0.848327	-0.040169	0.738170
C99	C	1.098327	0.209831	0.988170
C100	C	1.348327	0.459831	1.238170
C101	C	0.598360	-0.376000	0.376344
C102	C	0.848360	-0.126000	0.626344
C103	C	1.098360	0.124000	0.876344
C104	C	1.348360	0.374000	1.126344
C105	C	0.548980	-0.308235	0.400048
C106	C	0.798980	-0.058235	0.650048
C107	C	1.048980	0.191765	0.900048
C108	C	1.298980	0.441765	1.150048
C109	C	0.730741	-0.357898	0.464414
C110	C	0.980741	-0.107898	0.714414
C111	C	1.230741	0.142102	0.964414
C112	C	1.480741	0.392102	1.214414
C113	C	0.416561	-0.357987	0.464315
C114	C	0.666561	-0.107987	0.714315
C115	C	0.916561	0.142013	0.964315
C116	C	1.166561	0.392013	1.214315
C117	C	1.073214	-0.550888	0.464313
C118	C	1.323214	-0.300888	0.714313
C119	C	1.573214	-0.050888	0.964313
C120	C	1.823214	0.199112	1.214313
C121	C	1.073257	-0.633434	0.464329
C122	C	1.323257	-0.383434	0.714329
C123	C	1.573257	-0.133434	0.964329
C124	C	1.823257	0.116566	1.214329
C125	C	1.122953	-0.832888	0.399978
C126	C	1.372953	-0.582888	0.649978
C127	C	1.622953	-0.332888	0.899978
C128	C	1.872953	-0.082888	1.149978
C129	C	1.141097	-0.882218	0.488007
C130	C	1.391097	-0.632218	0.738007
C131	C	1.641097	-0.382218	0.988007
C132	C	1.891097	-0.132218	1.238007
C133	C	1.073299	-0.784564	0.464367
C134	C	1.323299	-0.534564	0.714367
C135	C	1.573299	-0.284564	0.964367
C136	C	1.823299	-0.034564	1.214367
C137	C	1.055231	-0.882316	0.376378
C138	C	1.305231	-0.632316	0.626378
C139	C	1.555231	-0.382316	0.876378
C140	C	1.805231	-0.132316	1.126378
C141	C	1.073341	-0.930550	0.464397
C142	C	1.323341	-0.680550	0.714397
C143	C	1.573341	-0.430550	0.964397
C144	C	1.823341	-0.180550	1.214397
C145	C	1.091478	-0.832808	0.552443
C146	C	1.341478	-0.582808	0.802443
C147	C	1.591478	-0.332808	1.052443
C148	C	1.841478	-0.082808	1.302443
C149	C	1.005581	-0.832901	0.440754
C150	C	1.255581	-0.582901	0.690754
C151	C	1.505581	-0.332901	0.940754
C152	C	1.755581	-0.082901	1.190754
C153	C	1.023699	-0.882209	0.528844
C154	C	1.273699	-0.632209	0.778844
C155	C	1.523699	-0.382209	1.028844
C156	C	1.773699	-0.132209	1.278844
C157	C	1.073277	-0.700466	0.464349
C158	C	1.323277	-0.450466	0.714349
C159	C	1.573277	-0.200466	0.964349
C160	C	1.823277	0.049534	1.214349
C161	C	1.073364	-1.014646	0.464425
C162	C	1.323364	-0.764646	0.714425
C163	C	1.573364	-0.514646	0.964425
C164	C	1.823364	-0.264646	1.214425
C165	C	1.266976	-0.357988	0.464310
C166	C	1.516976	-0.107988	0.714310
C167	C	1.766976	0.142012	0.964310
C168	C	2.016976	0.392012	1.214310
C169	C	1.349522	-0.358010	0.464293
C170	C	1.599522	-0.108010	0.714293
C171	C	1.849522	0.141990	0.964293
C172	C	2.099522	0.391990	1.214293
C173	C	1.073323	-0.357871	0.715945
C174	C	1.323323	-0.107871	0.965945
C175	C	1.573323	0.142129	1.215945
C176	C	1.823323	0.392129	1.465945
C177	C	1.073346	-0.357843	0.823159
C178	C	1.323346	-0.107843	1.073159
C179	C	1.573346	0.142157	1.323159
C180	C	1.823346	0.392157	1.573159
C181	C	1.073348	-0.164231	0.464411
C182	C	1.323348	0.085769	0.714411
C183	C	1.573348	0.335769	0.964411
C184	C	1.823348	0.585769	1.214411
C185	C	1.073381	-0.081685	0.464437
C186	C	1.323381	0.168315	0.714437
C187	C	1.573381	0.418315	0.964437
C188	C	1.823381	0.668315	1.214437
C189	C	1.073261	-0.357948	0.213737
C190	C	1.323261	-0.107948	0.463737
C191	C	1.573261	0.142052	0.713737
C192	C	1.823261	0.392052	0.963737
C193	C	1.073382	-0.357767	0.106524
C194	C	1.323382	-0.107767	0.356524
C195	C	1.573382	0.142233	0.606524
C196	C	1.823382	0.392233	0.856524
C197	C	1.073366	-0.357792	1.019454
C198	C	1.323366	-0.107792	1.269454
C199	C	1.573366	0.142208	1.519454
C200	C	1.823366	0.392208	1.769454
C201	C	1.073352	-0.357822	0.910221
C202	C	1.323352	-0.107822	1.160221
C203	C	1.573352	0.142178	1.410221
C204	C	1.823352	0.392178	1.660221
H205	H	0.527225	-0.324621	0.626872
H206	H	0.777225	-0.074621	0.876872
H207	H	1.027225	0.175379	1.126872
H208	H	1.277225	0.425379	1.376872
F209	F	0.930722	-0.804565	0.414594
F210	F	1.180722	-0.554565	0.664594
F211	F	1.430722	-0.304565	0.914594
F212	F	1.680722	-0.054565	1.164594
F213	F	1.177854	-0.804579	0.328877
F214	F	1.427854	-0.554579	0.578877
F215	F	1.677854	-0.304579	0.828877
F216	F	1.927854	-0.054579	1.078877
F217	F	0.520619	-0.500551	0.414427
F218	F	0.770619	-0.250551	0.664427
F219	F	1.020619	-0.000551	0.914427
F220	F	1.270619	0.249449	1.164427
H221	H	0.527444	-0.266185	0.345645
H222	H	0.777444	-0.016185	0.595645
H223	H	1.027444	0.233815	0.845645
H224	H	1.277444	0.483815	1.095645
F225	F	1.035233	-0.910740	0.279102
F226	F	1.285233	-0.660740	0.529102
F227	F	1.535233	-0.410740	0.779102
F228	F	1.785233	-0.160740	1.029102
H229	H	1.198383	-0.903883	0.507998
H230	H	1.448383	-0.653883	0.757998
H231	H	1.698383	-0.403883	1.007998
H232	H	1.948383	-0.153883	1.257998
F233	F	1.111571	-0.804508	0.649747
F234	F	1.361571	-0.554508	0.899747
F235	F	1.611571	-0.304508	1.149747
F236	F	1.861571	-0.054508	1.399747
F237	F	0.626666	-0.462444	0.599856
F238	F	0.876666	-0.212444	0.849856
F239	F	1.126666	0.037556	1.099856
F240	F	1.376666	0.287556	1.349856
F241	F	0.626548	-0.215275	0.514501
F242	F	0.876548	0.034725	0.764501
F243	F	1.126548	0.284725	1.014501
F244	F	1.376548	0.534725	1.264501
H245	H	0.981726	-0.903729	0.583372
H246	H	1.231726	-0.653729	0.833372
H247	H	1.481726	-0.403729	1.083372
H248	H	1.731726	-0.153729	1.333372
H249	H	0.620086	-0.391294	0.301927
H250	H	0.870086	-0.141294	0.551927
H251	H	1.120086	0.108706	0.801927
H252	H	1.370086	0.358706	1.051927
