data_functionalizedCrystal
_audit_creation_method	'MofGen! by Chris Wilmer'
_symmetry_space_group_name_H-M	'P1'
_symmetry_Int_Tables_number	1
_symmetry_cell_setting	triclinic
loop_
_symmetry_equiv_pos_as_xyz
  x,y,z
_cell_length_a	6.817900
_cell_length_b	10.992410
_cell_length_c	10.992668
_cell_angle_alpha	91.832960
_cell_angle_beta	108.769342
_cell_angle_gamma	108.764651
loop_
_atom_site_label
_atom_site_type_symbol
_atom_site_fract_x
_atom_site_fract_y
_atom_site_fract_z
V1	V	-4.114280	-0.400588	-0.177763
O2	O	-4.072374	-0.392968	0.008542
O3	O	-4.091890	-0.397843	-0.352475
O4	O	-4.091871	-0.575300	-0.175029
O5	O	-4.072393	-0.214282	-0.170132
V6	V	-4.591170	-0.378305	-0.155479
O7	O	-4.390089	-0.449467	-0.226646
O8	O	-4.765558	-0.329425	-0.106597
O9	O	-4.390353	-0.381050	0.019232
O10	O	-4.750472	-0.385925	-0.341785
O11	O	-4.750453	-0.564611	-0.163110
O12	O	-4.390371	-0.203592	-0.158213
C13	C	-3.942377	-0.391522	-0.395066
C14	C	-4.005531	-0.390442	-0.537895
C15	C	-4.252012	-0.397771	-0.600203
C16	C	-4.317510	-0.396139	-0.748689
C17	C	-3.920752	-0.261985	-0.718266
C18	C	-3.856485	-0.263077	-0.569698
C19	C	-3.980036	-0.508433	-0.607725
C20	C	-4.050700	-0.509050	-0.756740
C21	C	-3.942352	-0.617885	-0.168714
C22	C	-4.005486	-0.760713	-0.167635
C23	C	-3.872608	-0.955837	-0.157798
C24	C	-3.807058	-0.807354	-0.159453
C25	C	-4.203525	-0.837814	-0.294317
C26	C	-4.267838	-0.986380	-0.293197
C27	C	-4.145561	-0.948356	-0.047894
C28	C	-4.074851	-0.799343	-0.047294
C29	C	-4.203208	-0.387367	0.061817
C30	C	-4.119294	-0.388455	0.204644
C31	C	-4.203232	-0.161001	-0.164532
C32	C	-4.119335	-0.018171	-0.165605
H33	H	-3.871482	-0.173753	-0.523419
Br34	Br	-3.670326	-0.244978	-0.766300
Br35	Br	-4.292675	-0.256445	-0.520213
H36	H	-3.749893	-0.782536	-0.245204
Br37	Br	-3.553403	-0.245324	-0.498669
H38	H	-4.324546	-0.989196	-0.052498
H39	H	-4.369609	-0.489305	-0.581361
Br40	Br	-3.996038	-0.112762	-0.760929
Br41	Br	-4.411885	-0.252887	-0.790049
Br42	Br	-4.565199	-0.547851	-0.837595
H43	H	-4.042629	-0.968717	0.048305
Br44	Br	-4.290120	-0.664994	-0.843978
H45	H	-4.252292	-1.032648	-0.382325
Br46	Br	-4.152344	-0.668533	-0.573807
Br47	Br	-3.814185	-0.512156	-0.810981
H48	H	-4.216964	-0.766831	-0.045806
H49	H	-3.801239	-0.504187	-0.566899
H50	H	-3.658586	-0.754016	-0.068363
Br51	Br	-3.831054	-1.035814	-0.298764
H52	H	-4.449842	-1.029011	-0.304212
Br53	Br	-4.454180	-0.789819	-0.311925
H54	H	-4.157779	-0.812206	-0.383665
H55	H	-3.931581	-0.746988	0.046420
H56	H	-3.755388	-0.974669	-0.066082
