data_functionalizedCrystal
_audit_creation_method	'MofGen! by Chris Wilmer'
_symmetry_space_group_name_H-M	'P1'
_symmetry_Int_Tables_number	1
_symmetry_cell_setting	triclinic
loop_
_symmetry_equiv_pos_as_xyz
  x,y,z
_cell_length_a	14.971486
_cell_length_b	10.489741
_cell_length_c	13.448316
_cell_angle_alpha	89.993703
_cell_angle_beta	89.998199
_cell_angle_gamma	84.076651
loop_
_atom_site_label
_atom_site_type_symbol
_atom_site_fract_x
_atom_site_fract_y
_atom_site_fract_z
O1	O	1.187893	0.166222	-0.082577
O2	O	0.927607	0.186128	-0.082604
O3	O	1.063673	-0.009491	-0.082584
O4	O	1.051827	0.361841	-0.082597
O5	O	1.063655	-0.009503	0.082800
O6	O	0.927589	0.186116	0.082780
O7	O	1.187876	0.166210	0.082807
Cu8	Cu	1.057731	0.176162	0.097894
Cu9	Cu	1.057752	0.176176	-0.097691
O10	O	1.051810	0.361829	0.082787
C11	C	0.894268	0.185232	0.000085
C12	C	0.794956	0.182564	0.000074
C13	C	0.738385	0.297485	0.000072
C14	C	0.645071	0.294971	0.000087
C15	C	0.608330	0.177534	0.000097
C16	C	0.664909	0.062604	0.000103
C17	C	0.758221	0.065120	0.000095
C18	C	0.470416	0.057369	0.000117
C19	C	0.377098	0.054853	0.000123
C20	C	0.357267	0.287220	0.000108
C21	C	0.450579	0.289736	0.000101
C22	C	0.507151	0.174805	0.000104
C23	C	1.062769	-0.057019	0.000107
C24	C	1.060093	-0.198617	0.000105
C25	C	0.973518	-0.265755	0.000089
C26	C	1.014406	-0.358357	0.081636
C27	C	1.014444	-0.358320	-0.081419
C28	C	1.101017	-0.289354	0.081720
C29	C	1.101043	-0.289307	-0.081409
C30	C	1.141994	-0.381882	0.000158
C31	C	1.221215	0.167106	0.000116
C32	C	1.320527	0.169774	0.000120
C33	C	1.052713	0.409357	0.000094
C34	C	1.055390	0.550955	0.000089
N35	N	1.057723	0.176151	0.235459
N36	N	1.057766	0.176177	-0.235255
C37	C	1.117992	0.089567	0.287508
C38	C	1.117998	0.089566	0.391611
C39	C	1.057738	0.176156	0.443663
C40	C	0.997462	0.262745	0.391607
C41	C	0.997453	0.262739	0.287505
C42	C	0.997487	0.262753	0.608587
C43	C	0.997497	0.262761	0.712695
C44	C	1.118032	0.089580	0.712693
C45	C	1.118023	0.089574	0.608591
C46	C	1.057748	0.176165	0.556542
H47	H	0.634987	-0.033015	0.000126
H48	H	1.167067	0.019060	0.245134
Br49	Br	1.199836	-0.027928	0.783334
H50	H	1.137610	-0.258951	0.150739
H51	H	0.948393	0.333244	0.433993
Br52	Br	0.915712	0.380282	0.783330
Br53	Br	0.568298	0.450942	0.000080
Br54	Br	0.547193	-0.098609	0.000127
H55	H	0.902336	-0.215280	0.000164
H56	H	1.167073	0.019061	0.433989
Br57	Br	0.834998	-0.090850	0.000107
H58	H	0.977767	-0.388950	0.150571
H59	H	1.213239	-0.432131	0.000211
Br60	Br	0.280492	0.443198	0.000102
H61	H	0.948402	0.333261	0.566212
Br62	Br	0.500441	0.449115	0.000071
H63	H	1.167095	0.019072	0.566211
Br64	Br	1.162061	-0.238258	-0.196312
H65	H	0.948375	0.333243	0.245128
H66	H	0.347187	-0.040774	0.000132
Br67	Br	0.788237	0.456872	0.000047
Br68	Br	0.953375	-0.409253	-0.196319
