data_functionalizedCrystal
_audit_creation_method	'MofGen! by Chris Wilmer'
_symmetry_space_group_name_H-M	'P1'
_symmetry_Int_Tables_number	1
_symmetry_cell_setting	triclinic
loop_
_symmetry_equiv_pos_as_xyz
  x,y,z
_cell_length_a	16.992695
_cell_length_b	16.974897
_cell_length_c	14.048226
_cell_angle_alpha	86.341962
_cell_angle_beta	89.993436
_cell_angle_gamma	87.027201
loop_
_atom_site_label
_atom_site_type_symbol
_atom_site_fract_x
_atom_site_fract_y
_atom_site_fract_z
O1	O	0.099990	1.055456	-0.160386
O2	O	0.599990	1.555456	0.339614
O3	O	0.112706	0.826056	-0.142734
O4	O	0.612706	1.326056	0.357266
O5	O	-0.007794	0.939836	-0.151482
O6	O	0.492206	1.439836	0.348518
O7	O	0.220490	0.941676	-0.151639
O8	O	0.720490	1.441676	0.348361
O9	O	-0.007801	0.939821	0.006840
O10	O	0.492199	1.439821	0.506840
O11	O	0.112698	0.826041	0.015588
O12	O	0.612698	1.326041	0.515588
O13	O	0.099983	1.055441	-0.002064
O14	O	0.599983	1.555441	0.497936
Zn15	Zn	0.106340	0.940738	0.031899
Zn16	Zn	0.606340	1.440738	0.531899
Zn17	Zn	0.106349	0.940758	-0.176698
Zn18	Zn	0.606349	1.440758	0.323302
O19	O	0.220482	0.941661	0.006684
O20	O	0.720482	1.441661	0.506684
C21	C	0.112216	0.796559	-0.061304
C22	C	0.612216	1.296559	0.438696
C23	C	0.110759	0.708691	-0.054543
C24	C	0.610759	1.208691	0.445457
C25	C	-0.037008	0.937463	-0.072139
C26	C	0.462992	1.437463	0.427861
C27	C	-0.124045	0.930403	-0.071596
C28	C	0.375955	1.430403	0.428404
C29	C	0.110081	0.667412	-0.137661
C30	C	0.610081	1.167412	0.362339
C31	C	0.108724	0.584850	-0.131293
C32	C	0.608724	1.084850	0.368707
C33	C	0.108041	0.543569	-0.041807
C34	C	0.608041	1.043569	0.458193
C35	C	0.108722	0.584854	0.041317
C36	C	0.608722	1.084854	0.541317
C37	C	0.110084	0.667415	0.034949
C38	C	0.610084	1.167415	0.534949
C39	C	0.103972	0.296651	-0.013508
C40	C	0.603972	0.796651	0.486492
C41	C	0.102608	0.214085	-0.007146
C42	C	0.602608	0.714085	0.492854
C43	C	0.102612	0.214086	-0.179757
C44	C	0.602612	0.714086	0.320243
C45	C	0.103969	0.296648	-0.186117
C46	C	0.603969	0.796648	0.313883
C47	C	0.104654	0.337926	-0.102993
C48	C	0.604654	0.837926	0.397007
N49	N	0.106652	0.459178	-0.035297
N50	N	0.606652	0.959178	0.464703
N51	N	0.106049	0.422315	-0.109504
N52	N	0.606049	0.922315	0.390496
C53	C	-0.174355	0.998518	-0.076836
C54	C	0.325645	1.498518	0.423164
C55	C	-0.256135	0.991880	-0.076335
C56	C	0.243865	1.491880	0.423665
C57	C	-0.287603	0.917127	-0.070586
C58	C	0.212397	1.417127	0.429414
C59	C	-0.237286	0.849007	-0.065348
C60	C	0.262714	1.349007	0.434652
C61	C	-0.155508	0.855645	-0.065856
C62	C	0.344492	1.355645	0.434144
C63	C	-0.531172	0.889612	-0.068482
C64	C	-0.031172	1.389612	0.431518
C65	C	-0.612957	0.882979	-0.067970
C66	C	-0.112957	1.382979	0.432030
C67	C	-0.631800	1.025853	-0.078959
C68	C	-0.131800	1.525853	0.421041
C69	C	-0.550019	1.032485	-0.079461
C70	C	-0.050019	1.532485	0.420539
C71	C	-0.499710	0.964365	-0.074229
C72	C	0.000290	1.464365	0.425771
N73	N	-0.371194	0.910340	-0.070070
N74	N	0.128806	1.410340	0.429930
N75	N	-0.416119	0.971153	-0.074752
N76	N	0.083881	1.471153	0.425248
C77	C	0.249696	0.944034	-0.072662
C78	C	0.749696	1.444034	0.427338
C79	C	0.336733	0.951094	-0.073211
C80	C	0.836733	1.451094	0.426789
C81	C	0.100472	1.084937	-0.083496
C82	C	0.600472	1.584937	0.416504
C83	C	0.101929	1.172805	-0.090264
C84	C	0.601929	1.672805	0.409736
N85	N	0.106333	0.940731	0.174260
N86	N	0.606333	1.440731	0.674260
N87	N	0.106350	0.940772	-0.319059
N88	N	0.606350	1.440772	0.180941
C89	C	0.052998	0.991131	0.220204
C90	C	0.552998	1.491131	0.720204
C91	C	0.052997	0.991136	0.319861
C92	C	0.552997	1.491136	0.819861
C93	C	0.106336	0.940745	0.373573
C94	C	0.606336	1.440745	0.873573
C95	C	0.159674	0.890339	0.327623
C96	C	0.659674	1.390339	0.827623
C97	C	0.159670	0.890330	0.227968
C98	C	0.659670	1.390330	0.727968
C99	C	0.159680	0.890362	0.535336
C100	C	0.659680	1.390362	1.035336
C101	C	0.159685	0.890372	0.634998
C102	C	0.659685	1.390372	1.134998
C103	C	0.053007	0.991168	0.627228
C104	C	0.553007	1.491168	1.127228
C105	C	0.053003	0.991160	0.527573
C106	C	0.553003	1.491160	1.027573
C107	C	0.106342	0.940754	0.481630
C108	C	0.606342	1.440754	0.981630
H109	H	0.110634	0.701017	-0.210530
H110	H	0.610634	1.201017	0.289470
H111	H	0.203101	0.849305	0.371362
H112	H	0.703101	1.349305	0.871362
F113	F	0.104701	0.340571	0.074961
F114	F	0.604701	0.840571	0.574961
F115	F	-0.685348	1.098346	-0.084529
F116	F	-0.185348	1.598346	0.415471
F117	F	-0.003759	1.044813	0.676128
F118	F	0.496241	1.544813	1.176128
H119	H	0.102074	0.180475	0.065728
H120	H	0.602074	0.680475	0.565728
F121	F	-0.646445	0.803412	-0.061847
F122	F	-0.146445	1.303412	0.438153
H123	H	-0.262914	0.788140	-0.060673
H124	H	0.237086	1.288140	0.439327
H125	H	0.108170	0.551237	0.114178
H126	H	0.608170	1.051237	0.614178
F127	F	-0.516535	1.112048	-0.085604
F128	F	-0.016535	1.612048	0.414396
H129	H	0.009566	1.032169	0.176477
H130	H	0.509566	1.532169	0.676477
H131	H	0.108172	0.551244	-0.198977
H132	H	0.608172	1.051244	0.301023
H133	H	-0.114545	0.800178	-0.061589
H134	H	0.385455	1.300178	0.438411
F135	F	-0.003769	1.044777	0.368757
F136	F	0.496231	1.544777	0.868757
F137	F	-0.309675	1.064378	-0.081910
F138	F	0.190325	1.564378	0.418090
H139	H	0.110640	0.701023	0.102632
H140	H	0.610640	1.201023	0.602632
H141	H	-0.490219	0.834143	-0.064220
H142	H	0.009781	1.334143	0.435780
F143	F	0.216435	0.836684	0.179074
F144	F	0.716435	1.336684	0.679074
H145	H	-0.148740	1.059391	-0.081512
H146	H	0.351260	1.559391	0.418488
F147	F	-0.003761	1.044796	0.470408
F148	F	0.496239	1.544796	0.970408
H149	H	0.203111	0.849314	0.497933
H150	H	0.703111	1.349314	0.997933
F151	F	0.104692	0.340576	-0.281361
F152	F	0.604692	0.840576	0.218639
F153	F	0.216455	0.836736	0.692155
F154	F	0.716455	1.336736	1.192155
F155	F	0.101875	0.170150	-0.268218
F156	F	0.601875	0.670150	0.231782
