data_functionalizedCrystal
_audit_creation_method	'MofGen! by Chris Wilmer'
_symmetry_space_group_name_H-M	'P1'
_symmetry_Int_Tables_number	1
_symmetry_cell_setting	triclinic
loop_
_symmetry_equiv_pos_as_xyz
  x,y,z
_cell_length_a	10.654553
_cell_length_b	10.654550
_cell_length_c	9.730223
_cell_angle_alpha	89.999807
_cell_angle_beta	89.999314
_cell_angle_gamma	84.485540
loop_
_atom_site_label
_atom_site_type_symbol
_atom_site_fract_x
_atom_site_fract_y
_atom_site_fract_z
O1	O	1.667832	0.176412	-0.114302
O2	O	1.302354	0.193214	-0.114301
O3	O	1.493496	0.002074	-0.114296
O4	O	1.476690	0.367552	-0.114306
O5	O	1.493494	0.002079	0.114284
O6	O	1.302351	0.193219	0.114279
O7	O	1.667829	0.176417	0.114278
Zn8	Zn	1.485090	0.184818	0.150571
Zn9	Zn	1.485093	0.184812	-0.150593
O10	O	1.476687	0.367557	0.114274
C11	C	1.255555	0.191982	-0.000010
C12	C	1.116112	0.188288	-0.000010
C13	C	1.492261	-0.044722	-0.000008
C14	C	1.488569	-0.184165	-0.000012
C15	C	0.919570	0.183077	0.124579
C16	C	1.050591	0.186555	0.124587
C17	C	1.050603	0.186557	-0.124623
C18	C	0.919584	0.183088	-0.124630
C19	C	0.919565	0.183071	0.268459
C20	C	1.050586	0.186548	0.268467
C21	C	1.601110	-0.263650	-0.000009
C22	C	1.597634	-0.394670	-0.000018
C23	C	1.369064	-0.366710	-0.000030
C24	C	1.372542	-0.235691	-0.000030
C25	C	1.733073	-0.279794	0.000004
C26	C	1.729596	-0.410815	-0.000006
C27	C	1.714628	0.177649	-0.000015
C28	C	1.854072	0.181342	-0.000024
C29	C	1.477922	0.414352	-0.000018
C30	C	1.481614	0.553796	-0.000022
N31	N	1.485097	0.184822	0.356107
N32	N	1.485096	0.184799	-0.356129
C33	C	1.569757	0.100214	0.428035
C34	C	1.569754	0.100199	0.571918
C35	C	1.400427	0.269411	0.571932
C36	C	1.400425	0.269419	0.428052
C37	C	1.667520	0.002525	0.428028
C38	C	1.667517	0.002509	0.571911
H39	H	0.866258	0.181691	-0.226094
C40	C	1.796754	-0.467231	0.129228
N41	N	1.847332	-0.509723	0.226565
C42	C	1.307390	0.362590	0.348936
N43	N	1.237351	0.432810	0.289347
C44	C	1.626280	-0.120719	0.632196
N45	N	1.595213	-0.213530	0.677603
C46	C	1.802796	-0.240127	-0.129222
N47	N	1.855307	-0.210250	-0.226554
C48	C	1.122680	0.188468	-0.261682
N49	N	1.176968	0.189903	-0.364917
C50	C	1.307291	0.362460	0.651085
N51	N	1.237139	0.432547	0.710702
C52	C	0.857056	0.300119	0.343465
N53	N	0.809983	0.388205	0.400094
C54	C	1.241442	-0.423401	-0.000033
N55	N	1.145314	-0.466100	-0.000029
C56	C	0.879605	0.059337	0.328787
N57	N	0.849506	-0.033858	0.374229
C58	C	1.090534	0.310288	0.328800
N59	N	1.120625	0.403486	0.374242
C60	C	1.113119	0.069292	0.343086
N61	N	1.160218	-0.019025	0.399283
H62	H	1.758704	0.033114	0.383401
C63	C	1.783498	-0.472488	-0.133322
N64	N	1.824104	-0.518943	-0.233731
C65	C	1.638543	-0.127881	0.375265
N66	N	1.616714	-0.226100	0.335524
C67	C	1.248738	-0.148262	-0.000065
N68	N	1.155484	-0.082410	-0.000095
C69	C	1.797866	0.031677	0.624672
N70	N	1.896030	0.053682	0.664411
C71	C	1.789841	-0.231654	0.133336
N72	N	1.832597	-0.195394	0.233764
