data_functionalizedCrystal
_audit_creation_method	'MofGen! by Chris Wilmer'
_symmetry_space_group_name_H-M	'P1'
_symmetry_Int_Tables_number	1
_symmetry_cell_setting	triclinic
loop_
_symmetry_equiv_pos_as_xyz
  x,y,z
_cell_length_a	19.805407
_cell_length_b	16.625545
_cell_length_c	19.805399
_cell_angle_alpha	90.025578
_cell_angle_beta	90.019573
_cell_angle_gamma	90.025558
loop_
_atom_site_label
_atom_site_type_symbol
_atom_site_fract_x
_atom_site_fract_y
_atom_site_fract_z
Zn1	Zn	1.034740	-0.321020	0.382729
Zn2	Zn	1.534740	0.178980	0.882729
Zn3	Zn	1.034656	-0.455857	0.269545
Zn4	Zn	1.534656	0.044143	0.769545
Zn5	Zn	0.921554	-0.321043	0.269554
Zn6	Zn	1.421554	0.178957	0.769554
Zn7	Zn	0.921520	-0.455815	0.382692
Zn8	Zn	1.421520	0.044185	0.882692
O9	O	0.978117	-0.388434	0.326130
O10	O	1.478117	0.111566	0.826130
O11	O	1.129445	-0.338915	0.367727
O12	O	1.629445	0.161085	0.867727
O13	O	1.019633	-0.438001	0.174829
O14	O	1.519633	0.061999	0.674829
O15	O	0.936618	-0.208207	0.284586
O16	O	1.436618	0.291793	0.784586
O17	O	1.129384	-0.437980	0.284571
O18	O	1.629384	0.062020	0.784571
O19	O	1.019775	-0.208191	0.367736
O20	O	1.519775	0.291809	0.867736
O21	O	0.936537	-0.338953	0.174836
O22	O	1.436537	0.161047	0.674836
O23	O	0.826833	-0.338912	0.284550
O24	O	1.326833	0.161088	0.784550
O25	O	0.936559	-0.437907	0.477413
O26	O	1.436559	0.062093	0.977413
O27	O	0.826808	-0.437928	0.367672
O28	O	1.326808	0.062072	0.867672
O29	O	1.019741	-0.338874	0.477441
O30	O	1.519741	0.161126	0.977441
O31	O	1.019599	-0.568684	0.284535
O32	O	1.519599	-0.068684	0.784535
O33	O	0.936478	-0.568653	0.367663
O34	O	1.436478	-0.068653	0.867663
C35	C	0.802261	-0.388418	0.326108
C36	C	1.302261	0.111582	0.826108
C37	C	0.727029	-0.388431	0.326115
C38	C	1.227029	0.111569	0.826115
C39	C	0.691690	-0.440067	0.369326
C40	C	1.191690	0.059933	0.869326
C41	C	0.621001	-0.440068	0.369336
C42	C	1.121001	0.059932	0.869336
C43	C	0.585654	-0.388437	0.326130
C44	C	1.085654	0.111563	0.826130
C45	C	0.620999	-0.336796	0.282916
C46	C	1.120999	0.163204	0.782916
C47	C	0.691686	-0.336791	0.282911
C48	C	1.191686	0.163209	0.782911
C49	C	0.335925	-0.336814	0.282939
C50	C	0.835925	0.163186	0.782939
C51	C	0.265233	-0.336825	0.282946
C52	C	0.765233	0.163175	0.782946
C53	C	0.265241	-0.440091	0.369364
C54	C	0.765241	0.059909	0.869364
C55	C	0.335928	-0.440086	0.369358
C56	C	0.835928	0.059914	0.869358
C57	C	0.371266	-0.388442	0.326147
C58	C	0.871266	0.111558	0.826147
C59	C	0.447915	-0.388440	0.326138
C60	C	0.947915	0.111560	0.826138
C61	C	0.509007	-0.388443	0.326135
C62	C	1.009007	0.111557	0.826135
C63	C	0.978044	-0.597925	0.326108
C64	C	1.478044	-0.097925	0.826108
C65	C	0.978074	-0.687546	0.326122
C66	C	1.478074	-0.187546	0.826122
C67	C	0.978101	-0.760328	0.326135
C68	C	1.478101	-0.260328	0.826135
C69	C	0.978140	-0.851637	0.326150
C70	C	1.478140	-0.351637	0.826150
C71	C	0.978175	-0.924413	0.326159
C72	C	1.478175	-0.424413	0.826159
C73	C	0.978214	-1.015727	0.326173
C74	C	1.478214	-0.515727	0.826173
C75	C	1.154660	-0.388450	0.326152
C76	C	1.654660	0.111550	0.826152
C77	C	1.229892	-0.388457	0.326162
C78	C	1.729892	0.111543	0.826162
C79	C	0.978155	-0.388383	0.502673
C80	C	1.478155	0.111617	1.002673
C81	C	0.978172	-0.388361	0.577905
C82	C	1.478172	0.111639	1.077905
C83	C	0.978210	-0.178125	0.326166
C84	C	1.478210	0.321875	0.826166
C85	C	0.978249	-0.088504	0.326181
C86	C	1.478249	0.411496	0.826181
C87	C	0.978119	-0.388426	0.150274
C88	C	1.478119	0.111574	0.650274
C89	C	0.978234	-0.388221	0.075042
C90	C	1.478234	0.111779	0.575042
C91	C	1.021486	-0.336792	0.613264
C92	C	1.521486	0.163208	1.113264
C93	C	1.021493	-0.336769	0.683953
C94	C	1.521493	0.163231	1.183953
C95	C	0.978188	-0.388319	0.719280
C96	C	1.478188	0.111681	1.219280
C97	C	0.934870	-0.439890	0.683916
C98	C	1.434870	0.060110	1.183916
C99	C	0.934860	-0.439909	0.613228
C100	C	1.434860	0.060091	1.113228
C101	C	0.934908	-0.439815	0.968989
C102	C	1.434908	0.060185	1.468989
C103	C	0.934922	-0.439794	1.039681
C104	C	1.434922	0.060206	1.539681
C105	C	1.021541	-0.336675	1.039713
C106	C	1.521541	0.163325	1.539713
C107	C	1.021531	-0.336694	0.969026
C108	C	1.521531	0.163306	1.469026
C109	C	0.978210	-0.388262	0.933668
C110	C	1.478210	0.111738	1.433668
C111	C	0.978202	-0.388285	0.857019
C112	C	1.478202	0.111715	1.357019
C113	C	0.978199	-0.388300	0.795927
C114	C	1.478199	0.111700	1.295927
H115	H	0.236455	-0.294776	0.247763
H116	H	0.736455	0.205224	0.747763
H117	H	0.720464	-0.482113	0.404507
H118	H	1.220464	0.017887	0.904507
C119	C	0.730091	-0.280631	0.236105
C120	C	1.230091	0.219369	0.736105
C121	C	0.770692	-0.228993	0.274502
C122	C	1.270692	0.271007	0.774502
C123	C	0.806072	-0.177236	0.231409
C124	C	1.306072	0.322764	0.731409
H125	H	0.757700	-0.311332	0.206552
H126	H	1.257700	0.188668	0.706552
H127	H	0.698937	-0.249837	0.210385
H128	H	1.198937	0.250163	0.710385
H129	H	0.801842	-0.259784	0.300210
H130	H	1.301842	0.240216	0.800210
H131	H	0.743100	-0.198275	0.304053
H132	H	1.243100	0.301725	0.804053
H133	H	0.774917	-0.146442	0.205689
H134	H	1.274917	0.353558	0.705689
H135	H	0.833676	-0.207944	0.201858
H136	H	1.333676	0.292056	0.701858
H137	H	0.833618	-0.142189	0.257455
H138	H	1.333618	0.357811	0.757455
H139	H	0.364689	-0.294769	0.247749
H140	H	0.864689	0.205231	0.747749
C141	C	0.582502	-0.280822	0.236035
C142	C	1.082502	0.219178	0.736035
C143	C	0.513032	-0.291891	0.245275
C144	C	1.013032	0.208109	0.745275
C145	C	0.477550	-0.240348	0.202093
C146	C	0.977550	0.259652	0.702093
H147	H	0.594027	-0.226630	0.245981
H148	H	1.094027	0.273370	0.745981
H149	H	0.594024	-0.292554	0.190524
H150	H	1.094024	0.207446	0.690524
H151	H	0.501515	-0.280153	0.290776
H152	H	1.001515	0.219847	0.790776
H153	H	0.501487	-0.346073	0.235325
H154	H	1.001487	0.153927	0.735325
H155	H	0.489072	-0.252081	0.156582
H156	H	0.989072	0.247919	0.656582
H157	H	0.489081	-0.186159	0.212042
H158	H	0.989081	0.313841	0.712042
H159	H	0.430411	-0.247857	0.208352
H160	H	0.930411	0.252143	0.708352
C161	C	1.068474	-0.280906	0.574790
C162	C	1.568474	0.219094	1.074790
C163	C	1.059209	-0.291971	0.505316
C164	C	1.559209	0.208029	1.005316
C165	C	1.102487	-0.240505	0.469855
C166	C	1.602487	0.259495	0.969855
H167	H	1.058633	-0.226695	0.586303
H168	H	1.558633	0.273305	1.086303
H169	H	1.113964	-0.292712	0.586341
H170	H	1.613964	0.207288	1.086341
H171	H	1.013730	-0.280160	0.493769
H172	H	1.513730	0.219840	0.993769
H173	H	1.069055	-0.346171	0.493783
H174	H	1.569055	0.153829	0.993783
H175	H	1.147977	-0.252311	0.481406
H176	H	1.647977	0.247689	0.981406
H177	H	1.092643	-0.186298	0.481373
H178	H	1.592643	0.313702	0.981373
H179	H	1.096211	-0.248011	0.422713
H180	H	1.596211	0.251989	0.922713
H181	H	1.056765	-0.294778	0.712739
H182	H	1.556765	0.205222	1.212739
C183	C	1.068572	-0.280635	0.930793
C184	C	1.568572	0.219365	1.430793
C185	C	1.106494	-0.235451	0.976890
C186	C	1.606494	0.264549	1.476890
C187	C	1.149828	-0.183790	0.941696
C188	C	1.649828	0.316210	1.441696
H189	H	1.098106	-0.311398	0.903215
H190	H	1.598106	0.188602	1.403215
H191	H	1.042704	-0.245466	0.903235
H192	H	1.542704	0.254534	1.403235
H193	H	1.132360	-0.270615	1.004437
H194	H	1.632360	0.229385	1.504437
H195	H	1.076978	-0.204672	1.004470
H196	H	1.576978	0.295328	1.504470
H197	H	1.123960	-0.148621	0.914138
H198	H	1.623960	0.351379	1.414138
H199	H	1.179357	-0.214559	0.914119
H200	H	1.679357	0.285441	1.414119
H201	H	1.175558	-0.153121	0.972967
H202	H	1.675558	0.346879	1.472967
H203	H	1.056812	-0.294683	1.068511
H204	H	1.556812	0.205317	1.568511
C205	C	0.887739	-0.495761	0.722232
C206	C	1.387739	0.004239	1.222232
C207	C	0.820775	-0.478188	0.705042
C208	C	1.320775	0.021812	1.205042
C209	C	0.777341	-0.529636	0.740331
C210	C	1.277341	-0.029636	1.240331
H211	H	0.897530	-0.549969	0.710667
H212	H	1.397530	-0.049969	1.210667
H213	H	0.893903	-0.488361	0.769402
H214	H	1.393903	0.011639	1.269402
H215	H	0.814615	-0.485595	0.657883
H216	H	1.314615	0.014405	1.157883
H217	H	0.810964	-0.423990	0.716610
H218	H	1.310964	0.076010	1.216610
H219	H	0.783504	-0.522236	0.787501
H220	H	1.283504	-0.022236	1.287501
H221	H	0.787137	-0.583841	0.728762
H222	H	1.287137	-0.083841	1.228762
H223	H	0.731901	-0.517715	0.728677
H224	H	1.231901	-0.017715	1.228677
H225	H	0.364704	-0.482132	0.404538
H226	H	0.864704	0.017868	0.904538
H227	H	0.899656	-0.481774	1.068443
H228	H	1.399656	0.018226	1.568443
C229	C	0.887840	-0.495878	0.930728
C230	C	1.387840	0.004122	1.430728
C231	C	0.849928	-0.541027	0.976799
C232	C	1.349928	-0.041027	1.476799
C233	C	0.806561	-0.592684	0.941574
C234	C	1.306561	-0.092684	1.441574
H235	H	0.858300	-0.465115	0.903159
H236	H	1.358300	0.034885	1.403159
H237	H	0.913682	-0.531070	0.903158
H238	H	1.413682	-0.031070	1.403158
H239	H	0.824088	-0.505840	1.004357
H240	H	1.324088	-0.005840	1.504357
H241	H	0.879450	-0.571807	1.004369
H242	H	1.379450	-0.071807	1.504369
H243	H	0.832403	-0.627875	0.914004
H244	H	1.332403	-0.127875	1.414004
H245	H	0.777026	-0.561914	0.914006
H246	H	1.277026	-0.061914	1.414006
H247	H	0.780838	-0.623329	0.972828
H248	H	1.280838	-0.123329	1.472828
C249	C	0.887926	-0.496041	0.574866
C250	C	1.387926	0.003959	1.074866
C251	C	0.902650	-0.575814	0.592035
C252	C	1.402650	-0.075814	1.092035
C253	C	0.859435	-0.627546	0.556701
C254	C	1.359435	-0.127546	1.056701
H255	H	0.842429	-0.484348	0.586409
H256	H	1.342429	0.015652	1.086409
H257	H	0.894132	-0.488721	0.527703
H258	H	1.394132	0.011279	1.027703
H259	H	0.896438	-0.583131	0.639188
H260	H	1.396438	-0.083131	1.139188
H261	H	0.948139	-0.587532	0.580490
H262	H	1.448139	-0.087532	1.080490
H263	H	0.865640	-0.620226	0.509537
H264	H	1.365640	-0.120226	1.009537
H265	H	0.813940	-0.615846	0.568247
H266	H	1.313940	-0.115846	1.068247
H267	H	0.869423	-0.681678	0.568340
H268	H	1.369423	-0.181678	1.068340
C269	C	0.226750	-0.496069	0.416260
C270	C	0.726750	0.003931	0.916260
C271	C	0.157279	-0.485009	0.407036
C272	C	0.657279	0.014991	0.907036
C273	C	0.121803	-0.536555	0.450229
C274	C	0.621803	-0.036555	0.950229
H275	H	0.238231	-0.550260	0.406314
H276	H	0.738231	-0.050260	0.906314
H277	H	0.238321	-0.484332	0.461768
H278	H	0.738321	0.015668	0.961768
H279	H	0.145712	-0.496752	0.361538
H280	H	0.645712	0.003248	0.861538
H281	H	0.145778	-0.430829	0.416987
H282	H	0.645778	0.069171	0.916987
H283	H	0.133374	-0.524818	0.495737
H284	H	0.633374	-0.024818	0.995737
H285	H	0.133289	-0.590743	0.440279
H286	H	0.633289	-0.090743	0.940279
H287	H	0.074664	-0.529053	0.443981
H288	H	0.574664	-0.029053	0.943981
H289	H	0.592231	-0.482116	0.404522
H290	H	1.092231	0.017884	0.904522
