data_functionalizedCrystal
_audit_creation_method	'MofGen! by Chris Wilmer'
_symmetry_space_group_name_H-M	'P1'
_symmetry_Int_Tables_number	1
_symmetry_cell_setting	triclinic
loop_
_symmetry_equiv_pos_as_xyz
  x,y,z
_cell_length_a	25.639243
_cell_length_b	25.639239
_cell_length_c	12.759393
_cell_angle_alpha	89.957028
_cell_angle_beta	90.024249
_cell_angle_gamma	89.957395
loop_
_atom_site_label
_atom_site_type_symbol
_atom_site_fract_x
_atom_site_fract_y
_atom_site_fract_z
Zn1	Zn	0.799264	0.208082	0.594059
Zn2	Zn	0.799173	0.295529	0.418344
Zn3	Zn	0.711827	0.208113	0.418381
Zn4	Zn	0.711783	0.295492	0.593968
O5	O	0.755512	0.251804	0.506188
O6	O	0.872417	0.219684	0.570773
O7	O	0.787566	0.283961	0.271328
O8	O	0.723482	0.134944	0.441739
O9	O	0.872350	0.283931	0.441676
O10	O	0.787721	0.134921	0.570809
O11	O	0.723394	0.219737	0.271355
O12	O	0.638656	0.219702	0.441650
O13	O	0.723407	0.283869	0.741001
O14	O	0.638624	0.283899	0.570653
O15	O	0.787679	0.219649	0.741068
O16	O	0.787524	0.368689	0.441588
O17	O	0.723319	0.368662	0.570618
C18	C	0.619669	0.251801	0.506147
C19	C	0.561555	0.251812	0.506154
C20	C	0.201221	0.218403	0.573521
C21	C	0.146617	0.218403	0.573528
O22	O	0.118405	0.189988	0.630754
N23	N	0.119273	0.251803	0.506217
C24	C	0.146535	0.285201	0.438888
O25	O	0.118263	0.313610	0.381635
C26	C	0.201139	0.285198	0.438877
C27	C	0.228480	0.251800	0.506200
C28	C	0.228563	0.185008	0.640837
C29	C	0.283163	0.185009	0.640832
C30	C	0.310422	0.218406	0.573510
C31	C	0.283081	0.251802	0.506194
C32	C	0.228400	0.318594	0.371544
C33	C	0.283008	0.318588	0.371538
C34	C	0.310349	0.285190	0.438860
C35	C	0.364940	0.285200	0.438867
N36	N	0.392285	0.251800	0.506178
C37	C	0.365026	0.218403	0.573499
C38	C	0.031865	0.285203	0.438915
C39	C	-0.022738	0.285209	0.438931
C40	C	-0.022652	0.218410	0.573569
C41	C	0.031951	0.218407	0.573558
C42	C	0.059209	0.251804	0.506226
C43	C	0.479691	0.218409	0.573484
C44	C	0.534296	0.218415	0.573475
C45	C	0.534206	0.285211	0.438833
C46	C	0.479605	0.285208	0.438845
C47	C	0.452349	0.251802	0.506174
O48	O	0.393187	0.313599	0.381667
O49	O	0.393305	0.189995	0.630733
C50	C	0.755421	0.387647	0.506112
C51	C	0.755430	0.445761	0.506114
C52	C	0.788909	0.806073	0.573541
C53	C	0.788917	0.860678	0.573565
O54	O	0.817329	0.888871	0.630796
N55	N	0.755505	0.888043	0.506318
C56	C	0.722078	0.860802	0.439051
O57	O	0.693659	0.889092	0.381855
C58	C	0.722067	0.806198	0.439033
C59	C	0.755486	0.778836	0.506277
C60	C	0.822324	0.778711	0.640780
C61	C	0.822316	0.724110	0.640754
C62	C	0.788892	0.696872	0.573490
C63	C	0.755477	0.724235	0.506251
C64	C	0.688638	0.778958	0.371772
C65	C	0.688630	0.724351	0.371761
C66	C	0.722048	0.696988	0.439004
C67	C	0.722046	0.642397	0.438961
N68	N	0.755459	0.615031	0.506208
C69	C	0.788882	0.642269	0.573472
C70	C	0.722103	0.975472	0.439094
C71	C	0.722116	1.030074	0.439106
C72	C	0.788955	1.029947	0.573621
C73	C	0.788944	0.975343	0.573604
C74	C	0.755515	0.948107	0.506341
C75	C	0.788862	0.527604	0.573413
C76	C	0.788853	0.472998	0.573379
C77	C	0.722013	0.473131	0.438868
C78	C	0.722024	0.527732	0.438898
C79	C	0.755451	0.554967	0.506179
O80	O	0.693648	0.614168	0.381762
O81	O	0.817291	0.613972	0.630668
C82	C	0.891885	0.251808	0.506231
C83	C	0.949999	0.251810	0.506249
C84	C	0.755548	0.251751	0.780222
C85	C	0.755564	0.251729	0.896999
C86	C	0.755586	1.115431	0.506299
C87	C	0.755538	1.057317	0.506375
C88	C	0.755505	0.251819	0.233221
C89	C	0.755591	0.251694	0.116445
C90	C	0.789035	0.218286	0.951897
C91	C	0.789047	0.218267	1.061621
C92	C	0.722116	0.285138	1.061539
C93	C	0.722102	0.285154	0.951816
C94	C	0.822497	0.184861	0.897079
C95	C	0.855971	0.151416	0.951978
C96	C	0.855983	0.151397	1.061702
C97	C	0.822522	0.184823	1.116528
H98	H	-0.044856	0.191215	0.628383
H99	H	0.816068	0.450721	0.628136
H100	H	0.822491	0.184874	0.807736
H101	H	0.849526	0.701834	0.695513
H102	H	0.694816	0.550011	0.384134
Cl103	Cl	0.679997	0.438879	0.354312
Cl104	Cl	0.864346	0.812942	0.725355
H105	H	-0.044994	0.312411	0.384122
H106	H	0.054055	0.312403	0.384088
H107	H	0.883210	0.124199	0.907332
H108	H	0.661426	0.801227	0.317015
H109	H	0.054209	0.191211	0.628376
Cl110	Cl	0.568665	0.176426	0.658118
H111	H	0.694874	0.312352	1.106186
Cl112	Cl	0.898065	0.109355	1.130715
H113	H	0.694839	0.312378	0.907117
Cl114	Cl	0.830955	0.940950	0.658143
Cl115	Cl	0.822531	0.184791	1.254468
H116	H	0.816078	0.549772	0.628207
Cl117	Cl	0.646603	0.690113	0.287195
H118	H	0.457505	0.191205	0.628306
Cl119	Cl	0.194304	0.143017	0.725483
Cl120	Cl	0.194042	0.360572	0.286883
Cl121	Cl	0.317527	0.143018	0.725466
Cl122	Cl	0.317271	0.360576	0.286889
H123	H	0.556410	0.312403	0.384024
Cl124	Cl	0.445232	0.327210	0.354241
H125	H	0.816169	1.052134	0.628394
Cl126	Cl	0.680110	1.064467	0.354553
Cl127	Cl	0.680078	0.941237	0.354519
