data_functionalizedCrystal
_audit_creation_method	'MofGen! by Chris Wilmer'
_symmetry_space_group_name_H-M	'P1'
_symmetry_Int_Tables_number	1
_symmetry_cell_setting	triclinic
loop_
_symmetry_equiv_pos_as_xyz
  x,y,z
_cell_length_a	12.837943
_cell_length_b	12.837942
_cell_length_c	11.892095
_cell_angle_alpha	85.697431
_cell_angle_beta	85.689438
_cell_angle_gamma	85.171060
loop_
_atom_site_label
_atom_site_type_symbol
_atom_site_fract_x
_atom_site_fract_y
_atom_site_fract_z
O1	O	1.408367	-0.266110	-0.093982
O2	O	1.908367	0.233890	0.406018
O3	O	1.105234	-0.252667	-0.093989
O4	O	1.605234	0.247333	0.406011
O5	O	1.250078	-0.107822	-0.093979
O6	O	1.750078	0.392178	0.406021
O7	O	1.263522	-0.410955	-0.093992
O8	O	1.763522	0.089045	0.406008
O9	O	1.237999	-0.119879	0.094028
O10	O	1.737999	0.380121	0.594028
O11	O	1.093155	-0.264723	0.094018
O12	O	1.593155	0.235277	0.594018
O13	O	1.396288	-0.278167	0.094025
O14	O	1.896288	0.221833	0.594025
Zn15	Zn	1.242803	-0.273359	0.123871
Zn16	Zn	1.742803	0.226641	0.623871
Zn17	Zn	1.258718	-0.257474	-0.123836
Zn18	Zn	1.758718	0.242526	0.376164
O19	O	1.251443	-0.423011	0.094014
O20	O	1.751443	0.076989	0.594014
C21	C	1.060125	-0.254153	0.000014
C22	C	1.560125	0.245847	0.500014
C23	C	0.943710	-0.240609	0.000011
C24	C	1.443710	0.259391	0.500011
C25	C	0.718835	-0.403439	0.000020
C26	C	1.218835	0.096561	0.500020
C27	C	0.609453	-0.390717	0.000019
C28	C	1.109453	0.109283	0.500019
C29	C	0.615561	-0.202446	0.000015
C30	C	1.115561	0.297554	0.500015
C31	C	0.724943	-0.215167	0.000017
C32	C	1.224943	0.284833	0.500017
C33	C	0.776577	-0.315667	0.000017
C34	C	1.276577	0.184333	0.500017
C35	C	0.885961	-0.328387	0.000011
C36	C	1.385961	0.171613	0.500011
C37	C	0.892066	-0.140117	0.000015
C38	C	1.392066	0.359883	0.500015
C39	C	0.782684	-0.127395	0.000014
C40	C	1.282684	0.372605	0.500014
C41	C	1.239497	-0.074781	0.000024
C42	C	1.739497	0.425219	0.500024
C43	C	1.225953	0.041634	0.000022
C44	C	1.725953	0.541634	0.500022
C45	C	1.441397	-0.276680	0.000020
C46	C	1.941397	0.223320	0.500020
C47	C	1.557812	-0.290224	0.000015
C48	C	2.057812	0.209776	0.500015
C49	C	1.262024	-0.456052	0.000009
C50	C	1.762024	0.043948	0.500009
C51	C	1.275569	-0.572467	0.000004
C52	C	1.775569	-0.072467	0.500004
N53	N	1.231950	-0.284200	0.292925
N54	N	1.731950	0.215800	0.792925
C55	C	1.388784	0.266509	0.000002
C56	C	1.888784	0.766509	0.500002
C57	C	1.376062	0.375892	-0.000000
C58	C	1.876062	0.875892	0.500000
C59	C	1.187791	0.369784	0.000007
C60	C	1.687791	0.869784	0.500007
C61	C	1.200512	0.260402	0.000009
C62	C	1.700512	0.760402	0.500009
C63	C	1.301011	0.208768	0.000008
C64	C	1.801011	0.708768	0.500008
C65	C	1.313731	0.099383	0.000019
C66	C	1.813731	0.599383	0.500019
C67	C	1.125461	0.093278	0.000018
C68	C	1.625461	0.593278	0.500018
C69	C	1.112740	0.202660	0.000016
C70	C	1.612740	0.702660	0.500016
N71	N	1.269579	-0.246626	-0.292889
N72	N	1.769579	0.253374	0.207111
C73	C	1.345098	-0.171130	0.529580
C74	C	1.845098	0.328870	1.029580
C75	C	1.337519	-0.178716	0.647922
C76	C	1.837519	0.321284	1.147922
C77	C	1.209210	-0.306952	0.647951
C78	C	1.709210	0.193048	1.147951
C79	C	1.216788	-0.299366	0.529610
C80	C	1.716788	0.200634	1.029610
C81	C	1.284736	-0.231454	0.470428
C82	C	1.784736	0.268546	0.970428
C83	C	1.292319	-0.223874	0.352085
C84	C	1.792319	0.276126	0.852085
C85	C	1.164005	-0.352104	0.352116
C86	C	1.664005	0.147896	0.852116
C87	C	1.156426	-0.359690	0.470458
C88	C	1.656426	0.140310	0.970458
H89	H	0.573495	-0.120630	0.000108
H90	H	1.073495	0.379370	0.500108
N91	N	1.497171	0.210810	0.000020
N92	N	1.997171	0.710810	0.500020
H93	H	1.540597	0.235639	-0.069670
H94	H	2.040597	0.735639	0.430330
H95	H	1.491815	0.132769	0.000068
H96	H	1.991815	0.632769	0.500068
H97	H	1.153882	-0.362237	0.696151
H98	H	1.653882	0.137763	1.196151
H99	H	1.447536	0.422901	-0.000009
H100	H	1.947536	0.922901	0.499991
N101	N	1.030789	0.030993	0.000022
N102	N	1.530789	0.530993	0.500022
H103	H	0.991894	0.053157	-0.069670
H104	H	1.491894	0.553157	0.430330
H105	H	0.983026	0.044254	0.069765
H106	H	1.483026	0.544254	0.569765
N107	N	1.083139	-0.432929	0.534291
N108	N	1.583139	0.067071	1.034291
H109	H	1.087494	-0.428581	0.618236
H110	H	1.587494	0.071419	1.118236
H111	H	1.103895	-0.507068	0.513604
H112	H	1.603895	-0.007068	1.013604
N113	N	1.402634	-0.113664	0.711724
N114	N	1.902634	0.386336	1.211724
H115	H	1.384566	-0.036847	0.691135
H116	H	1.884566	0.463153	1.191135
H117	H	1.479417	-0.131873	0.691079
H118	H	1.979417	0.368127	1.191079
H119	H	1.105969	0.411844	-0.000004
H120	H	1.605969	0.911844	0.499996
H121	H	0.740628	-0.045572	0.000026
H122	H	1.240628	0.454428	0.500026
N123	N	0.954335	-0.045434	0.000010
N124	N	1.454335	0.454566	0.500010
H125	H	1.004327	-0.042049	-0.069687
H126	H	1.504327	0.457951	0.430313
H127	H	0.995315	-0.051030	0.069748
H128	H	1.495315	0.448970	0.569748
H129	H	1.400430	-0.115841	0.481394
H130	H	1.900430	0.384159	0.981394
N131	N	0.941657	-0.436776	0.000002
N132	N	1.441657	0.063224	0.500002
H133	H	0.888476	-0.490448	0.000006
H134	H	1.388476	0.009552	0.500006
H135	H	0.982433	-0.450622	0.069697
H136	H	1.482433	0.049378	0.569697
N137	N	0.774536	-0.511825	0.000003
N138	N	1.274536	-0.011825	0.500003
H139	H	0.721359	-0.565500	-0.000002
H140	H	1.221359	-0.065500	0.499998
H141	H	0.815311	-0.525677	0.069698
H142	H	1.315311	-0.025677	0.569698
N143	N	0.547170	-0.485387	0.000066
N144	N	1.047170	0.014613	0.500066
H145	H	0.596481	-0.550980	0.000080
H146	H	1.096481	-0.050980	0.500080
H147	H	0.506114	-0.479770	-0.069618
H148	H	1.006114	0.020230	0.430382
N149	N	1.422122	0.043691	0.000025
N150	N	1.922122	0.543691	0.500025
H151	H	1.465537	0.068524	-0.069673
H152	H	1.965537	0.568524	0.430327
H153	H	1.416773	-0.034352	0.000075
H154	H	1.916773	0.465648	0.500075
H155	H	1.030916	0.244716	0.000012
H156	H	1.530916	0.744716	0.500012
H157	H	1.114857	-0.401227	0.303941
H158	H	1.614857	0.098773	0.803941
H159	H	1.347647	-0.168579	0.303901
H160	H	1.847647	0.331421	0.803901
