data_functionalizedCrystal
_audit_creation_method	'MofGen! by Chris Wilmer'
_symmetry_space_group_name_H-M	'P1'
_symmetry_Int_Tables_number	1
_symmetry_cell_setting	triclinic
loop_
_symmetry_equiv_pos_as_xyz
  x,y,z
_cell_length_a	15.298068
_cell_length_b	15.297327
_cell_length_c	19.076919
_cell_angle_alpha	101.510342
_cell_angle_beta	82.175834
_cell_angle_gamma	110.796215
loop_
_atom_site_label
_atom_site_type_symbol
_atom_site_fract_x
_atom_site_fract_y
_atom_site_fract_z
Zn1	Zn	1.320489	-0.161771	-0.598389
Zn2	Zn	1.820489	0.338229	-0.098389
Zn3	Zn	1.299708	-0.311064	-0.498030
Zn4	Zn	1.799708	0.188936	0.001970
Zn5	Zn	1.173371	-0.180267	-0.463305
Zn6	Zn	1.673371	0.319733	0.036695
Zn7	Zn	1.138004	-0.344127	-0.598274
Zn8	Zn	1.638004	0.155873	-0.098274
O9	O	1.232893	-0.249307	-0.539500
O10	O	1.732893	0.250693	-0.039500
O11	O	1.446975	-0.159997	-0.599657
O12	O	1.946975	0.340003	-0.099657
O13	O	1.289053	-0.287617	-0.394938
O14	O	1.789053	0.212383	0.105062
O15	O	1.216384	-0.046758	-0.466740
O16	O	1.716384	0.453242	0.033260
O17	O	1.431707	-0.269682	-0.525924
O18	O	1.931707	0.230318	-0.025924
O19	O	1.324471	-0.033169	-0.565986
O20	O	1.824471	0.466831	-0.065986
O21	O	1.196234	-0.191522	-0.369425
O22	O	1.696234	0.308478	0.130575
O23	O	1.039436	-0.223581	-0.466628
O24	O	1.539436	0.276419	0.033372
O25	O	1.156107	-0.326033	-0.696776
O26	O	1.656107	0.173967	-0.196776
O27	O	1.013452	-0.343968	-0.565790
O28	O	1.513452	0.156032	-0.065790
O29	O	1.290177	-0.192057	-0.696860
O30	O	1.790177	0.307943	-0.196860
O31	O	1.254760	-0.446505	-0.525812
O32	O	1.754760	0.053495	-0.025812
O33	O	1.135956	-0.470796	-0.599461
O34	O	1.635956	0.029204	-0.099461
C35	C	0.992933	-0.289370	-0.512429
C36	C	1.492933	0.210630	-0.012429
C37	C	0.890272	-0.306533	-0.500867
C38	C	1.390272	0.193467	-0.000867
C39	C	0.632601	-0.126877	-0.622161
C40	C	1.132601	0.373123	-0.122161
C41	C	0.729056	-0.110754	-0.633028
C42	C	1.229056	0.389246	-0.133028
C43	C	0.769365	-0.159697	-0.599989
C44	C	1.269365	0.340303	-0.099989
C45	C	0.713209	-0.224766	-0.556081
C46	C	1.213209	0.275234	-0.056081
C47	C	0.616744	-0.240896	-0.545217
C48	C	1.116744	0.259104	-0.045217
C49	C	0.753508	-0.273716	-0.523045
C50	C	1.253508	0.226284	-0.023045
C51	C	0.697352	-0.338785	-0.479136
C52	C	1.197352	0.161215	0.020864
C53	C	0.600897	-0.354911	-0.468274
C54	C	1.100897	0.145089	0.031726
C55	C	0.560588	-0.305968	-0.501314
C56	C	1.060588	0.194032	-0.001314
C57	C	0.849973	-0.257587	-0.533908
C58	C	1.349973	0.242413	-0.033908
C59	C	0.834116	-0.371606	-0.456964
C60	C	1.334116	0.128394	0.043036
C61	C	0.737661	-0.387728	-0.446097
C62	C	1.237661	0.112272	0.053903
C63	C	1.189289	-0.492628	-0.566410
C64	C	1.689289	0.007372	-0.066410
C65	C	1.170719	-0.596709	-0.577956
C66	C	1.670719	-0.096709	-0.077956
C67	C	1.365986	-0.839357	-0.457265
C68	C	1.865986	-0.339357	0.042735
C69	C	1.383434	-0.741567	-0.446414
C70	C	1.883434	-0.241567	0.053586
C71	C	1.330257	-0.705348	-0.479298
C72	C	1.830257	-0.205348	0.020702
C73	C	1.259628	-0.766928	-0.523036
C74	C	1.759628	-0.266928	-0.023036
C75	C	1.242174	-0.864728	-0.533884
C76	C	1.742174	-0.364728	-0.033884
C77	C	1.206445	-0.730719	-0.555917
C78	C	1.706445	-0.230719	-0.055917
C79	C	1.135816	-0.792299	-0.599655
C80	C	1.635816	-0.292299	-0.099655
C81	C	1.118366	-0.890089	-0.610501
C82	C	1.618366	-0.390089	-0.110501
C83	C	1.171543	-0.926308	-0.577617
C84	C	1.671543	-0.426308	-0.077617
C85	C	1.223899	-0.632919	-0.545070
C86	C	1.723899	-0.132919	-0.045070
C87	C	1.100087	-0.658290	-0.621689
C88	C	1.600087	-0.158290	-0.121689
C89	C	1.082639	-0.756079	-0.632540
C90	C	1.582639	-0.256079	-0.132540
C91	C	1.473789	-0.209088	-0.566677
C92	C	1.973789	0.290912	-0.066677
C93	C	1.576445	-0.191949	-0.578258
C94	C	2.076445	0.308051	-0.078258
C95	C	1.221515	-0.260669	-0.723068
C96	C	1.721515	0.239331	-0.223068
C97	C	1.216666	-0.265511	-0.801294
C98	C	1.716666	0.234489	-0.301294
C99	C	1.276691	-0.005032	-0.512502
C100	C	1.776691	0.494968	-0.012502
C101	C	1.295355	0.099063	-0.500998
C102	C	1.795355	0.599063	-0.000998
C103	C	1.284188	-0.198035	-0.838090
C104	C	1.784188	0.301965	-0.338090
C105	C	1.279622	-0.202583	-0.911590
C106	C	1.779622	0.297417	-0.411590
C107	C	1.207537	-0.274612	-0.948294
C108	C	1.707537	0.225388	-0.448294
C109	C	1.140008	-0.342091	-0.911492
C110	C	1.640008	0.157909	-0.411492
C111	C	1.144571	-0.337539	-0.837993
C112	C	1.644571	0.162461	-0.337993
C113	C	1.186401	-0.295704	-1.168108
C114	C	1.686401	0.204296	-0.668108
C115	C	1.181844	-0.300253	-1.241614
C116	C	1.681844	0.199747	-0.741614
C117	C	1.321458	-0.160743	-1.241706
C118	C	1.821458	0.339257	-0.741706
C119	C	1.326018	-0.156200	-1.168206
C120	C	1.826018	0.343800	-0.668206
C121	C	1.258486	-0.223677	-1.131410
C122	C	1.758486	0.276323	-0.631410
N123	N	1.202869	-0.279264	-1.023423
N124	N	1.702869	0.220736	-0.523423
N125	N	1.263151	-0.219020	-1.056281
N126	N	1.763151	0.280980	-0.556281
C127	C	1.244291	-0.237912	-0.356644
C128	C	1.744291	0.262088	0.143356
C129	C	1.249366	-0.232777	-0.278409
C130	C	1.749366	0.267223	0.221591
H131	H	0.482046	-0.319098	-0.492473
H132	H	0.982046	0.180902	0.007527
H133	H	1.342891	-0.139384	-0.808212
H134	H	1.842891	0.360616	-0.308212
H135	H	0.599771	-0.087040	-0.649062
H136	H	1.099771	0.412960	-0.149062
H137	H	1.123140	-0.358910	-1.271496
H138	H	1.623140	0.141090	-0.771496
H139	H	0.895686	-0.204606	-0.569658
H140	H	1.395686	0.295394	-0.069658
F141	F	1.422570	-0.877911	-0.422270
F142	F	1.922570	-0.377911	0.077730
F143	F	1.007473	-0.821628	-0.679087
F144	F	1.507473	-0.321628	-0.179087
F145	F	1.299065	-0.567392	-0.498522
F146	F	1.799065	-0.067392	0.001478
H147	H	1.376437	-0.105806	-1.271672
H148	H	1.876437	0.394194	-0.771672
F149	F	1.043484	-0.619749	-0.656685
F150	F	1.543484	-0.119749	-0.156685
H151	H	0.866933	-0.411464	-0.430064
H152	H	1.366933	0.088536	0.069936
H153	H	0.847903	-0.146563	-0.608837
H154	H	1.347903	0.353437	-0.108837
H155	H	1.344466	-0.625722	-0.470460
H156	H	1.844466	-0.125722	0.029540
H157	H	1.089580	-0.392477	-0.808032
H158	H	1.589580	0.107523	-0.308032
H159	H	1.334608	-0.147639	-0.941546
H160	H	1.834608	0.352361	-0.441546
F161	F	1.402741	-0.079538	-1.129148
F162	F	1.902741	0.420462	-0.629148
H163	H	0.555176	-0.407902	-0.432527
H164	H	1.055176	0.092098	0.067473
H165	H	1.131423	-0.350659	-1.138161
H166	H	1.631423	0.149341	-0.638161
H167	H	1.081312	-0.400736	-0.941382
H168	H	1.581312	0.099264	-0.441382
H169	H	0.774770	-0.057778	-0.668781
H170	H	1.274770	0.442222	-0.168781
F171	F	0.677886	-0.456977	-0.399368
F172	F	1.177886	0.043023	0.100632
H173	H	1.440938	-0.691432	-0.410802
H174	H	1.940938	-0.191432	0.089198
H175	H	1.157342	-1.005935	-0.586451
H176	H	1.657342	-0.505935	-0.086451
H177	H	1.060845	-0.940227	-0.646106
H178	H	1.560845	-0.440227	-0.146106
