data_functionalizedCrystal
_audit_creation_method	'MofGen! by Chris Wilmer'
_symmetry_space_group_name_H-M	'P1'
_symmetry_Int_Tables_number	1
_symmetry_cell_setting	triclinic
loop_
_symmetry_equiv_pos_as_xyz
  x,y,z
_cell_length_a	12.594516
_cell_length_b	13.897449
_cell_length_c	13.897441
_cell_angle_alpha	90.026069
_cell_angle_beta	89.972755
_cell_angle_gamma	89.981899
loop_
_atom_site_label
_atom_site_type_symbol
_atom_site_fract_x
_atom_site_fract_y
_atom_site_fract_z
Zn1	Zn	-0.423710	-1.474699	-0.545541
Zn2	Zn	0.076290	-0.974699	-0.045541
Zn3	Zn	-0.601721	-1.474592	-0.384252
Zn4	Zn	-0.101721	-0.974592	0.115748
Zn5	Zn	-0.423757	-1.313389	-0.384244
Zn6	Zn	0.076243	-0.813389	0.115756
Zn7	Zn	-0.601647	-1.313369	-0.545489
Zn8	Zn	-0.101647	-0.813369	-0.045489
O9	O	-0.512709	-1.394012	-0.464882
O10	O	-0.012709	-0.894012	0.035118
O11	O	-0.447335	-1.609667	-0.524170
O12	O	0.052665	-1.109667	-0.024170
O13	O	-0.578164	-1.453171	-0.249269
O14	O	-0.078164	-0.953171	0.250731
O15	O	-0.274805	-1.334840	-0.405659
O16	O	0.225195	-0.834840	0.094341
O17	O	-0.578119	-1.609588	-0.405672
O18	O	-0.078119	-1.109588	0.094328
O19	O	-0.274771	-1.453354	-0.524163
O20	O	0.225229	-0.953354	-0.024163
O21	O	-0.447414	-1.334736	-0.249264
O22	O	0.052586	-0.834736	0.250736
O23	O	-0.447343	-1.178404	-0.405609
O24	O	0.052657	-0.678404	0.094391
O25	O	-0.577993	-1.334807	-0.680478
O26	O	-0.077993	-0.834807	-0.180478
O27	O	-0.578038	-1.178390	-0.524075
O28	O	-0.078038	-0.678390	-0.024075
O29	O	-0.447263	-1.453335	-0.680516
O30	O	0.052737	-0.953335	-0.180516
O31	O	-0.750657	-1.453152	-0.405622
O32	O	-0.250657	-0.953152	0.094378
O33	O	-0.750602	-1.334702	-0.524082
O34	O	-0.250602	-0.834702	-0.024082
C35	C	-0.512688	-1.143398	-0.464836
C36	C	-0.012688	-0.643398	0.035164
C37	C	-0.512705	-1.036184	-0.464840
C38	C	-0.012705	-0.536184	0.035160
C39	C	-0.789250	-1.393940	-0.464868
C40	C	-0.289250	-0.893940	0.035132
C41	C	-0.907555	-1.393997	-0.464895
C42	C	-0.407555	-0.893997	0.035105
C43	C	-0.512707	-0.949114	-0.464852
C44	C	-0.012707	-0.449114	0.035148
C45	C	-0.512712	-0.839882	-0.464876
C46	C	-0.012712	-0.339882	0.035124
C47	C	-1.047581	-1.329625	-0.529293
C48	C	-0.547581	-0.829625	-0.029293
C49	C	-0.976670	-1.417562	-0.552965
C50	C	-0.476670	-0.917562	-0.052965
C51	C	-0.976895	-1.306068	-0.441266
C52	C	-0.476895	-0.806068	0.058734
C53	C	-1.047429	-1.482139	-0.488649
C54	C	-0.547429	-0.982139	0.011351
C55	C	-1.047661	-1.370585	-0.376908
C56	C	-0.547661	-0.870585	0.123092
C57	C	-0.976781	-1.458584	-0.400547
C58	C	-0.476781	-0.958584	0.099453
C59	C	-0.235088	-1.394111	-0.464916
C60	C	0.264912	-0.894111	0.035084
C61	C	-0.116782	-1.394154	-0.464931
C62	C	0.383218	-0.894154	0.035069
C63	C	-0.512615	-1.394081	-0.716475
C64	C	-0.012615	-0.894081	-0.216475
C65	C	-0.512574	-1.394110	-0.823689
C66	C	-0.012574	-0.894110	-0.323689
C67	C	-0.512726	-0.645605	-0.464916
C68	C	-0.012726	-0.145605	0.035084
C69	C	-0.512722	-0.752819	-0.464901
C70	C	-0.012722	-0.252819	0.035099
C71	C	-0.512502	-1.394136	-1.019984
C72	C	-0.012502	-0.894136	-0.519984
C73	C	-0.512545	-1.394119	-0.910751
C74	C	-0.012545	-0.894119	-0.410751
C75	C	-0.512726	-1.394000	-0.214267
C76	C	-0.012726	-0.894000	0.285733
C77	C	-0.512466	-1.394157	-0.107054
C78	C	-0.012466	-0.894157	0.392946
H79	H	-0.945490	-1.437436	-0.627388
H80	H	-0.445490	-0.937436	-0.127388
H81	H	-1.078864	-1.350685	-0.302507
H82	H	-0.578864	-0.850685	0.197493
O83	O	-1.088287	-1.580755	-0.515272
O84	O	-0.588287	-1.080755	-0.015272
H85	H	-1.176413	-1.580036	-0.515119
H86	H	-0.676413	-1.080036	-0.015119
H87	H	-1.078664	-1.275188	-0.583779
H88	H	-0.578664	-0.775188	-0.083779
H89	H	-0.945905	-1.231641	-0.421266
H90	H	-0.445905	-0.731641	0.078734
H91	H	-0.945892	-1.513150	-0.346102
H92	H	-0.445892	-1.013150	0.153898
