data_functionalizedCrystal
_audit_creation_method	'MofGen! by Chris Wilmer'
_symmetry_space_group_name_H-M	'P1'
_symmetry_Int_Tables_number	1
_symmetry_cell_setting	triclinic
loop_
_symmetry_equiv_pos_as_xyz
  x,y,z
_cell_length_a	15.995350
_cell_length_b	10.654550
_cell_length_c	9.730223
_cell_angle_alpha	89.996251
_cell_angle_beta	89.999101
_cell_angle_gamma	96.011361
loop_
_atom_site_label
_atom_site_type_symbol
_atom_site_fract_x
_atom_site_fract_y
_atom_site_fract_z
O1	O	0.117599	-1.666298	0.114395
O2	O	0.128803	-1.300673	0.114373
O3	O	0.001371	-1.493480	0.114383
O4	O	0.245031	-1.473491	0.114385
O5	O	0.001375	-1.493478	-0.114197
O6	O	0.128806	-1.300671	-0.114207
O7	O	0.117602	-1.666295	-0.114185
Zn8	Zn	0.123205	-1.483483	-0.150488
Zn9	Zn	0.123200	-1.483486	0.150676
O10	O	0.245034	-1.473488	-0.114195
C11	C	-0.029827	-1.492652	0.000096
C12	C	-0.122791	-1.490175	0.000104
C13	C	0.127982	-1.253885	0.000080
C14	C	0.125521	-1.114473	0.000071
C15	C	0.118423	-1.713084	0.000111
C16	C	0.120884	-1.852495	0.000129
C17	C	-0.460591	-1.481278	0.000098
C18	C	-0.413954	-1.343964	0.000603
C19	C	-0.317249	-1.346442	0.000087
C20	C	-0.293004	-1.485691	0.000102
C21	C	-0.333687	-1.553417	-0.130422
C22	C	-0.430342	-1.549968	-0.130531
C23	C	-0.430688	-1.552807	0.129407
C24	C	-0.333743	-1.552775	0.131132
C25	C	-0.198292	-1.488192	0.000099
C26	C	-0.555303	-1.478780	0.000092
C27	C	0.276232	-1.474316	0.000095
C28	C	0.369197	-1.476793	0.000097
C29	C	0.200551	-1.034008	0.000092
C30	C	0.198233	-0.903017	0.000116
C31	C	0.045849	-0.932971	0.000104
C32	C	0.048168	-1.063959	0.000071
C33	C	0.277904	-1.084522	0.000093
C34	C	0.352940	-1.004055	0.000115
C35	C	0.350622	-0.873064	0.000138
C36	C	0.273268	-0.822541	0.000140
N37	N	0.123207	-1.483490	-0.356024
C38	C	0.066800	-1.568886	-0.427946
C39	C	0.066789	-1.568883	-0.571829
C40	C	0.179602	-1.398083	-0.571856
C41	C	0.179607	-1.398081	-0.427976
C42	C	0.010400	-1.654295	-0.355994
C43	C	-0.046012	-1.739700	-0.427915
C44	C	-0.046022	-1.739697	-0.571798
C45	C	0.010379	-1.654289	-0.643760
N46	N	0.123191	-1.483488	0.356212
H47	H	-0.432806	-1.289082	0.094203
O48	O	0.240447	-1.305986	-0.649457
H49	H	0.204830	-1.244957	-0.715026
O50	O	0.010367	-1.654291	-0.798950
H51	H	0.059062	-1.580558	-0.836901
O52	O	-0.032759	-1.150752	0.000040
H53	H	-0.018149	-1.250321	-0.000003
O54	O	-0.296454	-1.491118	-0.259104
H55	H	-0.308719	-1.390500	-0.260406
O56	O	-0.106864	-1.831786	-0.350313
H57	H	-0.097383	-1.817442	-0.238180
H58	H	0.010404	-1.654308	-0.238837
O59	O	0.436365	-1.058550	0.000103
H60	H	0.472451	-1.026216	-0.093065
O61	O	0.240428	-1.305962	-0.350376
H62	H	0.281449	-1.358803	-0.284800
O63	O	-0.312625	-1.687291	0.141596
H64	H	-0.272589	-1.708531	0.053169
H65	H	-0.091960	-1.809228	-0.630355
H66	H	-0.306783	-1.503258	0.227690
O67	O	0.431547	-0.786268	0.000155
H68	H	0.485721	-0.843406	0.000158
H69	H	0.271387	-0.715878	0.000138
H70	H	-0.289138	-1.293204	0.093652
O71	O	-0.440308	-1.271579	-0.122708
H72	H	-0.486476	-1.332977	-0.184355
H73	H	-0.289694	-1.292844	-0.093643
O74	O	-0.454973	-1.484536	-0.259772
H75	H	-0.397872	-1.455645	-0.321601
O76	O	-0.472294	-1.683497	-0.138396
H77	H	-0.423519	-1.750246	-0.142116
O78	O	0.280407	-1.225803	0.000050
H79	H	0.248127	-1.266833	0.093206
O80	O	-0.037580	-0.878487	0.000110
H81	H	-0.042287	-0.819560	0.093296
O82	O	-0.314181	-1.688924	-0.136862
H83	H	-0.339545	-1.739911	-0.043882
H84	H	-0.461861	-1.654048	0.130294
O85	O	-0.458230	-1.493343	0.260460
H86	H	-0.493544	-1.412134	0.234887
