data_functionalizedCrystal
_audit_creation_method	'MofGen! by Chris Wilmer'
_symmetry_space_group_name_H-M	'P1'
_symmetry_Int_Tables_number	1
_symmetry_cell_setting	triclinic
loop_
_symmetry_equiv_pos_as_xyz
  x,y,z
_cell_length_a	17.699097
_cell_length_b	10.654551
_cell_length_c	16.176319
_cell_angle_alpha	89.996057
_cell_angle_beta	89.988988
_cell_angle_gamma	83.886896
loop_
_atom_site_label
_atom_site_type_symbol
_atom_site_fract_x
_atom_site_fract_y
_atom_site_fract_z
O1	O	1.005083	0.158888	-0.068810
O2	O	0.784837	0.179532	-0.068796
O3	O	0.900024	-0.013617	-0.068804
O4	O	0.889897	0.352038	-0.068802
O5	O	0.900007	-0.013629	0.068689
O6	O	0.784821	0.179520	0.068697
O7	O	1.005067	0.158876	0.068683
Cu8	Cu	0.894943	0.169197	0.081244
Cu9	Cu	0.894962	0.169211	-0.081357
O10	O	0.889881	0.352025	0.068691
C11	C	0.756628	0.178783	-0.000048
C12	C	0.672596	0.176556	-0.000043
C13	C	0.156800	0.162908	-0.075024
C14	C	0.235757	0.164993	-0.075019
C15	C	0.275221	0.166030	-0.000069
C16	C	0.235724	0.164970	0.074883
C17	C	0.156769	0.162877	0.074878
C18	C	0.554142	0.173412	0.074905
C19	C	0.633102	0.175509	0.074904
C20	C	0.633130	0.175527	-0.074993
C21	C	0.554175	0.173434	-0.074998
C22	C	0.514685	0.172367	-0.000047
C23	C	0.429071	0.170105	-0.000052
C24	C	0.360833	0.168302	-0.000062
C25	C	0.899272	-0.060408	-0.000059
C26	C	0.897047	-0.199813	-0.000065
C27	C	0.896012	-0.265300	-0.075011
C28	C	0.893914	-0.396284	-0.075007
C29	C	0.893890	-0.396282	0.074896
C30	C	0.895982	-0.265300	0.074891
C31	C	0.897076	-0.199813	-0.149966
C32	C	0.896042	-0.265300	-0.224918
C33	C	0.893944	-0.396284	-0.224914
C34	C	0.892881	-0.461780	-0.149958
C35	C	1.033276	0.159625	-0.000067
C36	C	1.117308	0.161852	-0.000078
C37	C	0.890632	0.398816	-0.000056
C38	C	0.892858	0.538221	-0.000056
N39	N	0.894935	0.169186	0.195609
N40	N	0.894975	0.169212	-0.195723
C41	C	0.945955	0.083694	0.238870
C42	C	0.945959	0.083693	0.325417
C43	C	0.894945	0.169190	0.368702
C44	C	0.843920	0.254686	0.325435
C45	C	0.843913	0.254680	0.238890
C46	C	0.843946	0.254709	0.674464
C47	C	0.843958	0.254711	0.761015
C48	C	0.945992	0.083722	0.760991
C49	C	0.945985	0.083716	0.674446
C50	C	0.894957	0.169207	0.631186
C51	C	0.894952	0.169206	0.537342
C52	C	0.894953	0.169198	0.462545
H53	H	0.267908	0.165845	-0.136048
H54	H	0.522047	0.172595	-0.136030
F55	F	0.789641	0.345697	0.628430
H56	H	0.896809	-0.211975	0.135919
F57	F	0.114806	0.161813	-0.154798
F58	F	0.899311	-0.060410	-0.149977
H59	H	0.893025	-0.449620	0.135922
F60	F	0.277727	0.166071	0.154652
H61	H	0.896900	-0.211963	-0.285945
H62	H	0.802380	0.324295	0.360683
H63	H	0.891162	-0.568434	-0.149961
F64	F	0.789608	0.345669	0.192850
F65	F	1.000299	-0.007270	0.807037
F66	F	0.675164	0.176654	-0.154763
H67	H	0.987527	0.014101	0.639206
F68	F	1.000255	-0.007300	0.192811
H69	H	0.987503	0.014078	0.360640
H70	H	0.802414	0.324336	0.796256
H71	H	0.665232	0.176354	0.135942
H72	H	0.124615	0.162030	0.135907
F73	F	0.512123	0.172303	0.154675
F74	F	0.892836	-0.465975	-0.304683
