data_functionalizedCrystal
_audit_creation_method	'MofGen! by Chris Wilmer'
_symmetry_space_group_name_H-M	'P1'
_symmetry_Int_Tables_number	1
_symmetry_cell_setting	triclinic
loop_
_symmetry_equiv_pos_as_xyz
  x,y,z
_cell_length_a	19.077115
_cell_length_b	16.120444
_cell_length_c	19.077569
_cell_angle_alpha	89.308793
_cell_angle_beta	94.700051
_cell_angle_gamma	90.739546
loop_
_atom_site_label
_atom_site_type_symbol
_atom_site_fract_x
_atom_site_fract_y
_atom_site_fract_z
Zn1	Zn	1.078821	-0.361622	0.456709
Zn2	Zn	1.068063	-0.505856	0.344750
Zn3	Zn	0.956203	-0.361634	0.334106
Zn4	Zn	0.955403	-0.495080	0.457428
O5	O	1.014622	-0.431048	0.398248
O6	O	1.175858	-0.385260	0.446011
O7	O	1.049056	-0.491239	0.244873
O8	O	0.977305	-0.245423	0.345614
O9	O	1.167954	-0.491228	0.363755
O10	O	1.067392	-0.245414	0.435689
O11	O	0.966873	-0.385280	0.237052
O12	O	0.857632	-0.374831	0.346312
O13	O	0.975942	-0.472861	0.555798
O14	O	0.857045	-0.472873	0.436916
O15	O	1.066617	-0.374811	0.555270
O16	O	1.048281	-0.620636	0.364453
O17	O	0.965511	-0.612719	0.447237
C18	C	0.831808	-0.422684	0.390537
C19	C	0.753598	-0.419126	0.387256
C20	C	0.313397	-0.393566	0.363727
C21	C	0.386883	-0.396914	0.366814
C22	C	0.423329	-0.449724	0.415461
C23	C	0.386287	-0.499183	0.461028
C24	C	0.312803	-0.495830	0.457944
C25	C	0.643072	-0.465231	0.429739
C26	C	0.716561	-0.468583	0.432818
C27	C	0.717152	-0.366312	0.338605
C28	C	0.643666	-0.362968	0.335522
C29	C	0.606630	-0.412423	0.381092
N30	N	0.498443	-0.453150	0.418616
N31	N	0.531518	-0.408993	0.377939
C32	C	1.005661	-0.646809	0.407094
C33	C	1.001893	-0.739115	0.410905
C34	C	1.034348	-0.953137	0.378639
C35	C	0.995027	-0.908114	0.417870
C36	C	0.998849	-0.814074	0.413994
C37	C	1.030527	-1.047185	0.382515
C38	C	1.198151	-0.439445	0.405990
C39	C	1.276360	-0.443023	0.409289
C40	C	1.022390	-0.422633	0.581779
C41	C	1.025701	-0.419047	0.659989
C42	C	1.023638	-0.214444	0.389384
C43	C	1.027480	-0.122140	0.385607
C44	C	1.006927	-0.439372	0.215431
C45	C	1.003763	-0.442731	0.137218
C46	C	0.980048	-0.468408	0.697008
C47	C	0.983164	-0.465038	0.770495
C48	C	1.031930	-0.412303	0.806961
C49	C	1.077588	-0.362940	0.769936
C50	C	1.074475	-0.366314	0.696451
C51	C	1.046307	-0.396742	1.026708
C52	C	1.049416	-0.393370	1.100198
C53	C	0.954992	-0.495469	1.100752
C54	C	0.951880	-0.498835	1.027265
C55	C	0.997540	-0.449475	0.990247
N56	N	1.035115	-0.408856	0.882076
N57	N	0.994358	-0.452927	0.915134
H58	H	0.958493	-0.940194	0.454368
O59	O	1.082749	-0.910653	0.330304
H60	H	1.078191	-0.842387	0.334810
H61	H	0.940329	-0.511340	0.667323
O62	O	0.933917	-0.518268	0.810425
H63	H	0.899476	-0.555493	0.772722
H64	H	0.912180	-0.541791	0.997581
O65	O	0.905747	-0.548708	1.140676
H66	H	0.916105	-0.537509	1.197902
O67	O	1.102021	-0.336495	1.139534
H68	H	1.133254	-0.302745	1.101449
H69	H	0.417036	-0.356645	0.329709
H70	H	1.083487	-0.356550	0.996577
H71	H	0.613996	-0.319970	0.295904
O72	O	1.130171	-0.306037	0.809260
H73	H	1.124656	-0.311968	0.866578
H74	H	0.747315	-0.326048	0.301505
O75	O	1.123713	-0.313074	0.656517
H76	H	1.158142	-0.275831	0.694218
H77	H	0.283728	-0.350563	0.324112
H78	H	0.612926	-0.505505	0.466843
O79	O	0.755876	-0.525538	0.485294
H80	H	0.717778	-0.559358	0.516470
H81	H	0.415968	-0.542178	0.500640
H82	H	0.282648	-0.536100	0.495047
