data_functionalizedCrystal
_audit_creation_method	'MofGen! by Chris Wilmer'
_symmetry_space_group_name_H-M	'P1'
_symmetry_Int_Tables_number	1
_symmetry_cell_setting	triclinic
loop_
_symmetry_equiv_pos_as_xyz
  x,y,z
_cell_length_a	17.699083
_cell_length_b	17.699083
_cell_length_c	16.176319
_cell_angle_alpha	89.999648
_cell_angle_beta	90.001389
_cell_angle_gamma	96.716986
loop_
_atom_site_label
_atom_site_type_symbol
_atom_site_fract_x
_atom_site_fract_y
_atom_site_fract_z
O1	O	-1.004079	0.095713	-0.068619
O2	O	-0.504079	0.595713	0.431381
O3	O	-0.783700	0.108166	-0.068644
O4	O	-0.283700	0.608166	0.431356
O5	O	-0.900116	-0.008250	-0.068639
O6	O	-0.400116	0.491750	0.431361
O7	O	-0.887663	0.212129	-0.068624
O8	O	-0.387663	0.712129	0.431376
O9	O	-0.900100	-0.008257	0.068854
O10	O	-0.400100	0.491743	0.568854
O11	O	-0.783684	0.108158	0.068849
O12	O	-0.283684	0.608158	0.568849
O13	O	-1.004063	0.095706	0.068874
O14	O	-0.504063	0.595706	0.568874
Cu15	Cu	-0.893872	0.101931	0.081416
Cu16	Cu	-0.393872	0.601931	0.581416
Cu17	Cu	-0.893891	0.101940	-0.081186
Cu18	Cu	-0.393891	0.601940	0.418814
O19	O	-0.887647	0.212121	0.068869
O20	O	-0.387647	0.712121	0.568869
C21	C	-0.755495	0.107716	0.000099
C22	C	-0.255495	0.607716	0.500099
C23	C	-0.671477	0.106377	0.000088
C24	C	-0.171477	0.606377	0.500088
C25	C	-0.899662	-0.036451	0.000104
C26	C	-0.399662	0.463549	0.500104
C27	C	-0.898323	-0.120469	0.000092
C28	C	-0.398323	0.379531	0.500092
C29	C	-1.032268	0.096156	0.000129
C30	C	-0.532268	0.596156	0.500129
C31	C	-1.116286	0.097494	0.000134
C32	C	-0.616286	0.597494	0.500134
C33	C	-0.888102	0.240322	0.000124
C34	C	-0.388102	0.740322	0.500124
C35	C	-0.889440	0.324340	0.000131
C36	C	-0.389440	0.824340	0.500131
C37	C	-0.622856	0.174710	0.000093
C38	C	-0.122856	0.674710	0.500093
C39	C	-0.543913	0.173448	0.000104
C40	C	-0.043913	0.673448	0.500104
C41	C	-0.513592	0.103852	0.000104
C42	C	-0.013592	0.603852	0.500104
C43	C	-0.562219	0.035513	0.000101
C44	C	-0.062219	0.535513	0.500101
C45	C	-0.641161	0.036776	0.000097
C46	C	-0.141161	0.536776	0.500097
C47	C	-0.243856	0.030418	0.000121
C48	C	0.256144	0.530418	0.500121
C49	C	-0.164908	0.029160	0.000124
C50	C	0.335092	0.529160	0.500124
C51	C	-0.146608	0.167090	0.000129
C52	C	0.353392	0.667090	0.500129
C53	C	-0.225550	0.168353	0.000124
C54	C	0.274450	0.668353	0.500124
C55	C	-0.274170	0.100015	0.000126
C56	C	0.225830	0.600015	0.500126
C57	C	-0.359769	0.101384	0.000116
C58	C	0.140231	0.601384	0.500116
C59	C	-0.427995	0.102481	0.000108
C60	C	0.072005	0.602481	0.500108
N61	N	-0.893864	0.101925	0.195781
N62	N	-0.393864	0.601925	0.695781
C63	C	-0.821107	0.372961	0.000123
C64	C	-0.321107	0.872961	0.500123
C65	C	-0.822369	0.451904	0.000113
C66	C	-0.322369	0.951904	0.500113
C67	C	-0.891965	0.482225	0.000117
C68	C	-0.391965	0.982225	0.500117
C69	C	-0.960304	0.433598	0.000123
C70	C	-0.460304	0.933598	0.500123
C71	C	-0.959041	0.354656	0.000126
C72	C	-0.459041	0.854656	0.500126
C73	C	-0.965399	0.751961	0.000107
C74	C	-0.465399	1.251961	0.500107
C75	C	-0.966657	0.830909	0.000106
C76	C	-0.466657	1.330909	0.500106
C77	C	-0.828727	0.849209	0.000094
C78	C	-0.328727	1.349209	0.500094
C79	C	-0.827464	0.770267	0.000097
C80	C	-0.327464	1.270267	0.500097
C81	C	-0.895803	0.721647	0.000098
C82	C	-0.395803	1.221647	0.500098
C83	C	-0.894433	0.636048	0.000107
C84	C	-0.394433	1.136048	0.500107
C85	C	-0.893336	0.567823	0.000115
C86	C	-0.393336	1.067823	0.500115
N87	N	-0.893905	0.101941	-0.195551
N88	N	-0.393905	0.601941	0.304449
C89	C	-0.945429	0.050397	0.239048
C90	C	-0.445429	0.550397	0.739048
C91	C	-0.945432	0.050396	0.325595
C92	C	-0.445432	0.550396	0.825595
C93	C	-0.893875	0.101927	0.368874
C94	C	-0.393875	0.601927	0.868874
C95	C	-0.842305	0.153457	0.325601
C96	C	-0.342305	0.653457	0.825601
C97	C	-0.842299	0.153454	0.239055
C98	C	-0.342299	0.653454	0.739055
C99	C	-0.842331	0.153472	0.674629
C100	C	-0.342331	0.653472	1.174629
C101	C	-0.842344	0.153473	0.761181
C102	C	-0.342344	0.653473	1.261181
C103	C	-0.945465	0.050414	0.761168
C104	C	-0.445465	0.550414	1.261168
C105	C	-0.945458	0.050410	0.674623
C106	C	-0.445458	0.550410	1.174623
C107	C	-0.893886	0.101937	0.631358
C108	C	-0.393886	0.601937	1.131358
C109	C	-0.893882	0.101937	0.537514
C110	C	-0.393882	0.601937	1.037514
C111	C	-0.893883	0.101932	0.462716
C112	C	-0.393883	0.601932	0.962716
H113	H	-0.647537	0.231384	0.000093
H114	H	-0.147537	0.731384	0.500093
H115	H	-0.764433	0.348280	0.000129
H116	H	-0.264433	0.848280	0.500129
H117	H	-0.766725	0.491489	0.000104
H118	H	-0.266725	0.991489	0.500104
H119	H	-0.773083	0.888806	0.000090
H120	H	-0.273083	1.388806	0.500090
Cl121	Cl	-0.777523	0.218259	0.815588
Cl122	Cl	-0.277523	0.718259	1.315588
Cl123	Cl	-1.010256	-0.014383	0.379988
Cl124	Cl	-0.510256	0.485617	0.879988
H125	H	-0.140225	-0.027517	0.000125
H126	H	0.359775	0.472483	0.500125
Cl127	Cl	-0.304969	-0.055494	0.000123
Cl128	Cl	0.195031	0.444506	0.500123
H129	H	-0.770792	0.745585	0.000098
H130	H	-0.270792	1.245585	0.500098
Cl131	Cl	-0.777469	0.218232	0.184664
Cl132	Cl	-0.277469	0.718232	0.684664
Cl133	Cl	-0.482792	0.259357	0.000105
Cl134	Cl	0.017208	0.759357	0.500105
Cl135	Cl	-1.054157	0.869025	0.000108
Cl136	Cl	-0.554157	1.369025	0.500108
Cl137	Cl	-0.777503	0.218250	0.620245
Cl138	Cl	-0.277503	0.718250	1.120245
Cl139	Cl	-0.524102	-0.051980	0.000106
Cl140	Cl	-0.024102	0.448020	0.500106
H141	H	-1.014685	0.315069	0.000129
H142	H	-0.514685	0.815069	0.500129
H143	H	-0.800323	0.195413	0.360844
H144	H	-0.300323	0.695413	0.860844
Cl145	Cl	-1.047798	0.471715	0.000122
Cl146	Cl	-0.547798	0.971715	0.500122
H147	H	-0.107012	0.222734	0.000131
H148	H	0.392988	0.722734	0.500131
H149	H	-0.250232	0.225025	0.000120
H150	H	0.249768	0.725025	0.500120
H151	H	-1.021045	0.712383	0.000113
H152	H	-0.521045	1.212383	0.500113
Cl153	Cl	-0.702285	-0.049132	0.000094
Cl154	Cl	-0.202285	0.450868	0.500094
H155	H	-0.987416	0.008438	0.203816
H156	H	-0.487416	0.508438	0.703816
Cl157	Cl	-1.010277	-0.014371	0.620218
Cl158	Cl	-0.510277	0.485629	1.120218
H159	H	-0.987456	0.008455	0.796404
H160	H	-0.487456	0.508455	1.296404
