data_functionalizedCrystal
_audit_creation_method	'MofGen! by Chris Wilmer'
_symmetry_space_group_name_H-M	'P1'
_symmetry_Int_Tables_number	1
_symmetry_cell_setting	triclinic
loop_
_symmetry_equiv_pos_as_xyz
  x,y,z
_cell_length_a	18.215407
_cell_length_b	16.625546
_cell_length_c	18.215399
_cell_angle_alpha	89.968415
_cell_angle_beta	89.983176
_cell_angle_gamma	90.022916
loop_
_atom_site_label
_atom_site_type_symbol
_atom_site_fract_x
_atom_site_fract_y
_atom_site_fract_z
Zn1	Zn	1.125062	-0.320981	-0.416110
Zn2	Zn	1.124983	-0.455827	-0.293041
Zn3	Zn	1.002001	-0.321013	-0.293057
Zn4	Zn	1.001966	-0.455776	-0.416066
O5	O	1.063503	-0.388399	-0.354568
O6	O	1.228036	-0.338876	-0.399796
O7	O	1.108650	-0.437978	-0.190059
O8	O	1.018374	-0.208176	-0.309405
O9	O	1.227977	-0.437947	-0.309378
O10	O	1.108786	-0.208153	-0.399812
O11	O	1.018297	-0.338931	-0.190070
O12	O	0.899013	-0.338882	-0.309363
O13	O	1.018314	-0.437861	-0.519056
O14	O	0.898987	-0.437892	-0.399737
O15	O	1.108752	-0.338827	-0.519088
O16	O	1.108616	-0.568653	-0.309335
O17	O	1.018236	-0.568616	-0.399721
C18	C	0.872297	-0.388386	-0.354547
C19	C	0.790498	-0.388399	-0.354556
C20	C	0.602310	-0.440035	-0.401554
C21	C	0.525451	-0.440037	-0.401563
C22	C	0.525449	-0.336779	-0.307598
C23	C	0.602306	-0.336773	-0.307593
C24	C	0.640734	-0.388405	-0.354570
C25	C	0.487018	-0.388414	-0.354584
C26	C	0.403685	-0.388416	-0.354594
C27	C	0.724073	-0.388402	-0.354562
C28	C	1.063434	-0.597890	-0.354537
C29	C	1.063471	-0.687511	-0.354549
C30	C	1.063599	-1.015687	-0.354625
C31	C	1.063561	-0.924379	-0.354606
C32	C	1.063535	-0.851602	-0.354587
C33	C	1.063498	-0.760288	-0.354568
C34	C	1.255456	-0.388414	-0.354590
C35	C	1.337255	-0.388420	-0.354599
C36	C	1.063538	-0.388335	-0.546521
C37	C	1.063553	-0.388308	-0.628320
C38	C	1.063593	-0.178091	-0.354615
C39	C	1.063631	-0.088469	-0.354635
C40	C	1.016545	-0.336699	-0.816521
C41	C	1.016558	-0.336683	-0.893380
C42	C	1.110648	-0.439820	-0.893357
C43	C	1.110631	-0.439840	-0.816500
C44	C	1.063581	-0.388275	-0.778084
C45	C	1.063611	-0.388239	-0.931800
C46	C	1.063625	-0.388221	-1.015134
C47	C	1.063565	-0.388293	-0.694745
C48	C	1.063511	-0.388405	-0.163362
C49	C	1.063639	-0.388206	-0.081563
H50	H	0.494151	-0.294743	-0.269350
F51	F	1.160693	-0.494740	-0.775589
F52	F	0.643206	-0.494984	-0.451553
H53	H	0.494169	-0.482078	-0.439823
H54	H	0.633592	-0.294725	-0.269333
F55	F	0.966468	-0.281821	-0.775639
F56	F	0.966489	-0.281797	-0.934285
H57	H	1.148955	-0.481802	-0.924644
