data_functionalizedCrystal
_audit_creation_method	'MofGen! by Chris Wilmer'
_symmetry_space_group_name_H-M	'P1'
_symmetry_Int_Tables_number	1
_symmetry_cell_setting	triclinic
loop_
_symmetry_equiv_pos_as_xyz
  x,y,z
_cell_length_a	11.792254
_cell_length_b	15.995292
_cell_length_c	10.268362
_cell_angle_alpha	89.997908
_cell_angle_beta	89.995475
_cell_angle_gamma	83.833607
loop_
_atom_site_label
_atom_site_type_symbol
_atom_site_fract_x
_atom_site_fract_y
_atom_site_fract_z
O1	O	1.505910	0.114817	-0.108289
O2	O	1.175469	0.126634	-0.108291
O3	O	1.349757	-0.001124	-0.108292
O4	O	1.331622	0.242575	-0.108288
O5	O	1.349742	-0.001130	0.108309
O6	O	1.175454	0.126628	0.108310
O7	O	1.505895	0.114811	0.108311
Cu8	Cu	1.340673	0.120719	0.128088
Cu9	Cu	1.340691	0.120726	-0.128067
O10	O	1.331607	0.242569	0.108312
C11	C	1.133177	0.125887	0.000009
C12	C	1.007183	0.123658	0.000008
C13	C	0.904862	0.121848	0.000002
C14	C	0.776495	0.119585	0.000001
C15	C	1.349011	-0.032326	0.000005
C16	C	1.346798	-0.125289	-0.000005
C17	C	1.338664	-0.463065	0.000007
C18	C	1.464460	-0.439177	0.000492
C19	C	1.466851	-0.342491	-0.000001
C20	C	1.342700	-0.295490	0.000002
C21	C	1.279817	-0.324876	-0.123684
C22	C	1.278302	-0.421673	-0.123783
C23	C	1.275716	-0.421548	0.122533
C24	C	1.280378	-0.325034	0.124163
C25	C	1.344975	-0.200784	-0.000005
C26	C	1.336385	-0.557771	0.000006
C27	C	1.548187	0.115559	0.000009
C28	C	1.674181	0.117787	0.000001
C29	C	1.332353	0.273771	0.000013
C30	C	1.334566	0.366734	0.000014
N31	N	1.340669	0.120714	0.308254
N32	N	1.340704	0.120724	-0.308233
C33	C	1.340685	0.120724	0.573924
C34	C	1.340672	0.120721	0.426086
H35	H	1.512941	-0.466955	0.089192
C36	C	1.533795	-0.317308	-0.119976
H37	H	1.535500	-0.258063	-0.120679
H38	H	1.497651	-0.334067	-0.196920
H39	H	1.609552	-0.344252	-0.116332
C40	C	1.533378	-0.316478	0.119768
H41	H	1.534927	-0.257217	0.119629
H42	H	1.609188	-0.343351	0.116709
H43	H	1.497045	-0.332812	0.196864
H44	H	1.315326	-0.449458	0.216286
H45	H	1.323497	-0.304613	-0.215732
H46	H	1.188458	-0.293426	-0.128280
C47	C	1.342220	-0.299668	0.247778
H48	H	1.405753	-0.271186	0.223835
H49	H	1.367869	-0.348617	0.296348
H50	H	1.291190	-0.263530	0.299402
H51	H	1.189760	-0.292480	0.131635
H52	H	1.183121	-0.435962	0.123368
C53	C	1.337095	-0.457628	-0.248717
H54	H	1.361690	-0.413056	-0.298926
H55	H	1.284767	-0.485878	-0.298128
H56	H	1.401104	-0.496118	-0.226181
H57	H	1.186068	-0.436645	-0.129385
C58	C	1.529609	-0.478065	-0.118665
H59	H	1.480478	-0.508793	-0.168711
H60	H	1.593467	-0.514789	-0.090226
H61	H	1.555057	-0.434597	-0.170589
