data_functionalizedCrystal
_audit_creation_method	'MofGen! by Chris Wilmer'
_symmetry_space_group_name_H-M	'P1'
_symmetry_Int_Tables_number	1
_symmetry_cell_setting	triclinic
loop_
_symmetry_equiv_pos_as_xyz
  x,y,z
_cell_length_a	18.215405
_cell_length_b	18.215407
_cell_length_c	18.215399
_cell_angle_alpha	89.982223
_cell_angle_beta	90.030551
_cell_angle_gamma	89.979495
loop_
_atom_site_label
_atom_site_type_symbol
_atom_site_fract_x
_atom_site_fract_y
_atom_site_fract_z
Zn1	Zn	-0.293078	-1.125072	0.416062
Zn2	Zn	-0.043078	-0.875072	0.666062
Zn3	Zn	0.206922	-0.625072	0.916062
Zn4	Zn	0.456922	-0.375072	1.166062
Zn5	Zn	-0.416149	-1.124980	0.292990
Zn6	Zn	-0.166149	-0.874980	0.542990
Zn7	Zn	0.083851	-0.624980	0.792990
Zn8	Zn	0.333851	-0.374980	1.042990
Zn9	Zn	-0.293092	-1.002004	0.293014
Zn10	Zn	-0.043092	-0.752004	0.543014
Zn11	Zn	0.206908	-0.502004	0.793014
Zn12	Zn	0.456908	-0.252004	1.043014
Zn13	Zn	-0.416098	-1.001970	0.416020
Zn14	Zn	-0.166098	-0.751970	0.666020
Zn15	Zn	0.083902	-0.501970	0.916020
Zn16	Zn	0.333902	-0.251970	1.166020
O17	O	-0.354604	-1.063507	0.354521
O18	O	-0.104604	-0.813507	0.604521
O19	O	0.145396	-0.563507	0.854521
O20	O	0.395396	-0.313507	1.104521
O21	O	-0.309419	-1.228044	0.399744
O22	O	-0.059419	-0.978044	0.649744
O23	O	0.190581	-0.728044	0.899744
O24	O	0.440581	-0.478044	1.149744
O25	O	-0.399852	-1.108643	0.190009
O26	O	-0.149852	-0.858643	0.440009
O27	O	0.100148	-0.608643	0.690009
O28	O	0.350148	-0.358643	0.940009
O29	O	-0.190105	-1.018382	0.309364
O30	O	0.059895	-0.768382	0.559364
O31	O	0.309895	-0.518382	0.809364
O32	O	0.559895	-0.268382	1.059364
O33	O	-0.399839	-1.227977	0.309324
O34	O	-0.149839	-0.977977	0.559324
O35	O	0.100161	-0.727977	0.809324
O36	O	0.350161	-0.477977	1.059324
O37	O	-0.190095	-1.108799	0.399767
O38	O	0.059905	-0.858799	0.649767
O39	O	0.309905	-0.608799	0.899767
O40	O	0.559905	-0.358799	1.149767
O41	O	-0.309443	-1.018293	0.190026
O42	O	-0.059443	-0.768293	0.440026
O43	O	0.190557	-0.518293	0.690026
O44	O	0.440557	-0.268293	0.940026
O45	O	-0.309393	-0.899016	0.309323
O46	O	-0.059393	-0.649016	0.559323
O47	O	0.190607	-0.399016	0.809323
O48	O	0.440607	-0.149016	1.059323
O49	O	-0.399752	-1.018324	0.519010
O50	O	-0.149752	-0.768324	0.769010
O51	O	0.100248	-0.518324	1.019010
O52	O	0.350248	-0.268324	1.269010
O53	O	-0.399765	-0.898991	0.399695
O54	O	-0.149765	-0.648991	0.649695
O55	O	0.100235	-0.398991	0.899695
O56	O	0.350235	-0.148991	1.149695
O57	O	-0.309369	-1.108766	0.519041
O58	O	-0.059369	-0.858766	0.769041
O59	O	0.190631	-0.608766	1.019041
O60	O	0.440631	-0.358766	1.269041
O61	O	-0.519127	-1.108610	0.309283
O62	O	-0.269127	-0.858610	0.559283
O63	O	-0.019127	-0.608610	0.809283
O64	O	0.230873	-0.358610	1.059283
O65	O	-0.519089	-1.018235	0.399672
O66	O	-0.269089	-0.768235	0.649672
O67	O	-0.019089	-0.518235	0.899672
O68	O	0.230911	-0.268235	1.149672
C69	C	-0.354575	-0.872300	0.354507
C70	C	-0.104575	-0.622300	0.604507
C71	C	0.145425	-0.372300	0.854507
C72	C	0.395425	-0.122300	1.104507
C73	C	-0.354581	-0.790502	0.354519
C74	C	-0.104581	-0.540502	0.604519
C75	C	0.145419	-0.290502	0.854519
C76	C	0.395419	-0.040502	1.104519
C77	C	-0.307590	-0.602342	0.401673
C78	C	-0.057590	-0.352342	0.651673
C79	C	0.192410	-0.102342	0.901673
C80	C	0.442410	0.147658	1.151673
C81	C	-0.307594	-0.525483	0.401675
C82	C	-0.057594	-0.275483	0.651675
C83	C	0.192406	-0.025483	0.901675
C84	C	0.442406	0.224517	1.151675
C85	C	-0.401607	-0.525424	0.307375
C86	C	-0.151607	-0.275424	0.557375
C87	C	0.098393	-0.025424	0.807375
C88	C	0.348393	0.224576	1.057375
C89	C	-0.401599	-0.602281	0.307370
C90	C	-0.151599	-0.352281	0.557370
C91	C	0.098401	-0.102281	0.807370
C92	C	0.348401	0.147719	1.057370
C93	C	-0.354591	-0.640738	0.354523
C94	C	-0.104591	-0.390738	0.604523
C95	C	0.145409	-0.140738	0.854523
C96	C	0.395409	0.109262	1.104523
C97	C	-0.354603	-0.487022	0.354530
C98	C	-0.104603	-0.237022	0.604530
C99	C	0.145397	0.012978	0.854530
C100	C	0.395397	0.262978	1.104530
C101	C	-0.354608	-0.403688	0.354532
C102	C	-0.104608	-0.153688	0.604532
C103	C	0.145392	0.096312	0.854532
C104	C	0.395392	0.346312	1.104532
C105	C	-0.354586	-0.724077	0.354521
C106	C	-0.104586	-0.474077	0.604521
C107	C	0.145414	-0.224077	0.854521
C108	C	0.395414	0.025923	1.104521
C109	C	-0.545810	-1.063429	0.354486
C110	C	-0.295810	-0.813429	0.604486
C111	C	-0.045810	-0.563429	0.854486
C112	C	0.204190	-0.313429	1.104486
C113	C	-0.627609	-1.063463	0.354496
C114	C	-0.377609	-0.813463	0.604496
C115	C	-0.127609	-0.563463	0.854496
C116	C	0.122391	-0.313463	1.104496
C117	C	-0.815798	-1.110632	0.307517
C118	C	-0.565798	-0.860632	0.557517
C119	C	-0.315798	-0.610632	0.807517
C120	C	-0.065798	-0.360632	1.057517
C121	C	-0.892657	-1.110665	0.307534
C122	C	-0.642657	-0.860665	0.557534
C123	C	-0.392657	-0.610665	0.807534
C124	C	-0.142657	-0.360665	1.057534
C125	C	-0.892658	-1.016476	0.401579
C126	C	-0.642658	-0.766476	0.651579
C127	C	-0.392658	-0.516476	0.901579
C128	C	-0.142658	-0.266476	1.151579
C129	C	-0.815800	-1.016447	0.401565
C130	C	-0.565800	-0.766447	0.651565
C131	C	-0.315800	-0.516447	0.901565
C132	C	-0.065800	-0.266447	1.151565
C133	C	-0.777373	-1.063524	0.354529
C134	C	-0.527373	-0.813524	0.604529
C135	C	-0.277373	-0.563524	0.854529
C136	C	-0.027373	-0.313524	1.104529
C137	C	-0.931089	-1.063586	0.354562
C138	C	-0.681089	-0.813586	0.604562
C139	C	-0.431089	-0.563586	0.854562
C140	C	-0.181089	-0.313586	1.104562
C141	C	-1.014422	-1.063621	0.354581
C142	C	-0.764422	-0.813621	0.604581
C143	C	-0.514422	-0.563621	0.854581
C144	C	-0.264422	-0.313621	1.104581
C145	C	-0.694034	-1.063490	0.354510
C146	C	-0.444034	-0.813490	0.604510
C147	C	-0.194034	-0.563490	0.854510
C148	C	0.055966	-0.313490	1.104510
C149	C	-0.162651	-1.063605	0.354573
C150	C	0.087349	-0.813605	0.604573
C151	C	0.337349	-0.563605	0.854573
C152	C	0.587349	-0.313605	1.104573
C153	C	-0.080852	-1.063647	0.354595
C154	C	0.169148	-0.813647	0.604595
C155	C	0.419148	-0.563647	0.854595
C156	C	0.669148	-0.313647	1.104595
C157	C	-0.354553	-1.063552	0.546474
C158	C	-0.104553	-0.813552	0.796474
C159	C	0.145447	-0.563552	1.046474
C160	C	0.395447	-0.313552	1.296474
C161	C	-0.354532	-1.063571	0.628273
C162	C	-0.104532	-0.813571	0.878273
C163	C	0.145468	-0.563571	1.128273
C164	C	0.395468	-0.313571	1.378273
C165	C	-0.354625	-0.255460	0.354534
C166	C	-0.104625	-0.005460	0.604534
C167	C	0.145375	0.244540	0.854534
C168	C	0.395375	0.494540	1.104534
C169	C	-0.354614	-0.337259	0.354535
C170	C	-0.104614	-0.087259	0.604535
C171	C	0.145386	0.162741	0.854535
C172	C	0.395386	0.412741	1.104535
C173	C	-0.354602	-1.063504	0.163315
C174	C	-0.104602	-0.813504	0.413315
C175	C	0.145398	-0.563504	0.663315
C176	C	0.395398	-0.313504	0.913315
C177	C	-0.354416	-1.063628	0.081517
C178	C	-0.104416	-0.813628	0.331517
C179	C	0.145584	-0.563628	0.581517
C180	C	0.395584	-0.313628	0.831517
C181	C	-0.307426	-1.110681	0.816485
C182	C	-0.057426	-0.860681	1.066485
C183	C	0.192574	-0.610681	1.316485
C184	C	0.442574	-0.360681	1.566485
C185	C	-0.307404	-1.110690	0.893344
C186	C	-0.057404	-0.860690	1.143344
C187	C	0.192596	-0.610690	1.393344
C188	C	0.442596	-0.360690	1.643344
C189	C	-0.401524	-1.016513	0.893300
C190	C	-0.151524	-0.766513	1.143300
C191	C	0.098476	-0.516513	1.393300
C192	C	0.348476	-0.266513	1.643300
C193	C	-0.401541	-1.016501	0.816443
C194	C	-0.151541	-0.766501	1.066443
C195	C	0.098459	-0.516501	1.316443
C196	C	0.348459	-0.266501	1.566443
C197	C	-0.354493	-1.063589	0.778037
C198	C	-0.104493	-0.813589	1.028037
C199	C	0.145507	-0.563589	1.278037
C200	C	0.395507	-0.313589	1.528037
C201	C	-0.354454	-1.063610	0.931753
C202	C	-0.104454	-0.813610	1.181753
C203	C	0.145546	-0.563610	1.431753
C204	C	0.395546	-0.313610	1.681753
C205	C	-0.354432	-1.063619	1.015087
C206	C	-0.104432	-0.813619	1.265087
C207	C	0.145568	-0.563619	1.515087
C208	C	0.395568	-0.313619	1.765087
C209	C	-0.354515	-1.063579	0.694698
C210	C	-0.104515	-0.813579	0.944698
C211	C	0.145485	-0.563579	1.194698
C212	C	0.395485	-0.313579	1.444698
H213	H	-0.269320	-0.494224	0.440069
H214	H	-0.019320	-0.244224	0.690069
H215	H	0.230680	0.005776	0.940069
H216	H	0.480680	0.255776	1.190069
N217	N	-0.452315	-0.965711	0.774970
N218	N	-0.202315	-0.715711	1.024970
N219	N	0.047685	-0.465711	1.274970
N220	N	0.297685	-0.215711	1.524970
H221	H	-0.445184	-0.972848	0.720454
H222	H	-0.195184	-0.722848	0.970454
H223	H	0.054816	-0.472848	1.220454
H224	H	0.304816	-0.222848	1.470454
H225	H	-0.440853	-0.913158	0.788398
H226	H	-0.190853	-0.663158	1.038398
H227	H	0.059147	-0.413158	1.288398
H228	H	0.309147	-0.163158	1.538398
N229	N	-0.452276	-0.965729	0.934714
N230	N	-0.202276	-0.715729	1.184714
N231	N	0.047724	-0.465729	1.434714
N232	N	0.297724	-0.215729	1.684714
H233	H	-0.440840	-0.913152	0.921330
H234	H	-0.190840	-0.663152	1.171330
H235	H	0.059160	-0.413152	1.421330
H236	H	0.309160	-0.163152	1.671330
H237	H	-0.445109	-0.972938	0.989225
H238	H	-0.195109	-0.722938	1.239225
H239	H	0.054891	-0.472938	1.489225
H240	H	0.304891	-0.222938	1.739225
N241	N	-0.452304	-0.483945	0.256517
N242	N	-0.202304	-0.233945	0.506517
N243	N	0.047696	0.016055	0.756517
N244	N	0.297696	0.266055	1.006517
H245	H	-0.445178	-0.429430	0.263675
H246	H	-0.195178	-0.179430	0.513675
H247	H	0.054822	0.070570	0.763675
H248	H	0.304822	0.320570	1.013675
H249	H	-0.504877	-0.497370	0.267874
H250	H	-0.254877	-0.247370	0.517874
H251	H	-0.004877	0.002630	0.767874
H252	H	0.245123	0.252630	1.017874
N253	N	-0.774346	-1.161410	0.256796
N254	N	-0.524346	-0.911410	0.506796
N255	N	-0.274346	-0.661410	0.756796
N256	N	-0.024346	-0.411410	1.006796
H257	H	-0.787768	-1.150022	0.204205
H258	H	-0.537768	-0.900022	0.454205
H259	H	-0.287768	-0.650022	0.704205
H260	H	-0.037768	-0.400022	0.954205
H261	H	-0.787691	-1.213969	0.268344
H262	H	-0.537691	-0.963969	0.518344
H263	H	-0.287691	-0.713969	0.768344
H264	H	-0.037691	-0.463969	1.018344
H265	H	-0.923940	-1.149026	0.269253
H266	H	-0.673940	-0.899026	0.519253
H267	H	-0.423940	-0.649026	0.769253
H268	H	-0.173940	-0.399026	1.019253
N269	N	-0.934105	-0.965699	0.452305
N270	N	-0.684105	-0.715699	0.702305
N271	N	-0.434105	-0.465699	0.952305
N272	N	-0.184105	-0.215699	1.202305
H273	H	-0.988625	-0.972862	0.445180
H274	H	-0.738625	-0.722862	0.695180
H275	H	-0.488625	-0.472862	0.945180
H276	H	-0.238625	-0.222862	1.195180
H277	H	-0.920715	-0.913143	0.440798
H278	H	-0.670715	-0.663143	0.690798
H279	H	-0.420715	-0.413143	0.940798
H280	H	-0.170715	-0.163143	1.190798
H281	H	-0.439874	-0.633544	0.268971
H282	H	-0.189874	-0.383544	0.518971
H283	H	0.060126	-0.133544	0.768971
H284	H	0.310126	0.116456	1.018971
N285	N	-0.774349	-0.965638	0.452275
N286	N	-0.524349	-0.715638	0.702275
N287	N	-0.274349	-0.465638	0.952275
N288	N	-0.024349	-0.215638	1.202275
H289	H	-0.810354	-0.935815	0.482070
H290	H	-0.560354	-0.685815	0.732070
H291	H	-0.310354	-0.435815	0.982070
H292	H	-0.060354	-0.185815	1.232070
H293	H	-0.742506	-0.931589	0.422280
H294	H	-0.492506	-0.681589	0.672280
H295	H	-0.242506	-0.431589	0.922280
H296	H	0.007494	-0.181589	1.172280
H297	H	-0.269076	-1.149035	0.924645
H298	H	-0.019076	-0.899035	1.174645
H299	H	0.230924	-0.649035	1.424645
H300	H	0.480924	-0.399035	1.674645
N301	N	-0.256891	-0.643822	0.452528
N302	N	-0.006891	-0.393822	0.702528
N303	N	0.243109	-0.143822	0.952528
N304	N	0.493109	0.106178	1.202528
H305	H	-0.227116	-0.607832	0.482396
H306	H	0.022884	-0.357832	0.732396
H307	H	0.272884	-0.107832	0.982396
H308	H	0.522884	0.142168	1.232396
H309	H	-0.222794	-0.675709	0.422631
H310	H	0.027206	-0.425709	0.672631
H311	H	0.277206	-0.175709	0.922631
H312	H	0.527206	0.074291	1.172631
N313	N	-0.256683	-1.161465	0.775060
N314	N	-0.006683	-0.911465	1.025060
N315	N	0.243317	-0.661465	1.275060
N316	N	0.493317	-0.411465	1.525060
H317	H	-0.226862	-1.191298	0.811082
H318	H	0.023138	-0.941298	1.061082
H319	H	0.273138	-0.691298	1.311082
H320	H	0.523138	-0.441298	1.561082
H321	H	-0.222630	-1.131520	0.743176
H322	H	0.027370	-0.881520	0.993176
H323	H	0.277370	-0.631520	1.243176
H324	H	0.527370	-0.381520	1.493176
