data_functionalizedCrystal
_audit_creation_method	'MofGen! by Chris Wilmer'
_symmetry_space_group_name_H-M	'P1'
_symmetry_Int_Tables_number	1
_symmetry_cell_setting	triclinic
loop_
_symmetry_equiv_pos_as_xyz
  x,y,z
_cell_length_a	19.805407
_cell_length_b	21.295417
_cell_length_c	19.805398
_cell_angle_alpha	89.968132
_cell_angle_beta	89.986879
_cell_angle_gamma	90.030507
loop_
_atom_site_label
_atom_site_type_symbol
_atom_site_fract_x
_atom_site_fract_y
_atom_site_fract_z
Zn1	Zn	1.034673	-0.250617	-0.382704
Zn2	Zn	1.284673	-0.000617	-0.132704
Zn3	Zn	1.534673	0.249383	0.117296
Zn4	Zn	1.784673	0.499383	0.367296
Zn5	Zn	1.034593	-0.355888	-0.269510
Zn6	Zn	1.284593	-0.105888	-0.019510
Zn7	Zn	1.534593	0.144112	0.230490
Zn8	Zn	1.784593	0.394112	0.480490
Zn9	Zn	0.921501	-0.250637	-0.269529
Zn10	Zn	1.171501	-0.000637	-0.019529
Zn11	Zn	1.421501	0.249363	0.230471
Zn12	Zn	1.671501	0.499363	0.480471
Zn13	Zn	0.921443	-0.355853	-0.382656
Zn14	Zn	1.171443	-0.105853	-0.132656
Zn15	Zn	1.421443	0.144147	0.117344
Zn16	Zn	1.671443	0.394147	0.367344
O17	O	0.978053	-0.303249	-0.326100
O18	O	1.228053	-0.053249	-0.076100
O19	O	1.478053	0.196751	0.173900
O20	O	1.728053	0.446751	0.423900
O21	O	1.129379	-0.264589	-0.367701
O22	O	1.379379	-0.014589	-0.117701
O23	O	1.629379	0.235411	0.132299
O24	O	1.879379	0.485411	0.382299
O25	O	1.019581	-0.341949	-0.174796
O26	O	1.269581	-0.091949	0.075204
O27	O	1.519581	0.158051	0.325204
O28	O	1.769581	0.408051	0.575204
O29	O	0.936571	-0.162545	-0.284570
O30	O	1.186571	0.087455	-0.034570
O31	O	1.436571	0.337455	0.215430
O32	O	1.686571	0.587455	0.465430
O33	O	1.129320	-0.341930	-0.284537
O34	O	1.379320	-0.091930	-0.034537
O35	O	1.629320	0.158070	0.215463
O36	O	1.879320	0.408070	0.465463
O37	O	1.019718	-0.162531	-0.367719
O38	O	1.269718	0.087469	-0.117719
O39	O	1.519718	0.337469	0.132281
O40	O	1.769718	0.587469	0.382281
O41	O	0.936493	-0.264621	-0.174810
O42	O	1.186493	-0.014621	0.075190
O43	O	1.436493	0.235379	0.325190
O44	O	1.686493	0.485379	0.575190
O45	O	0.826777	-0.264587	-0.284523
O46	O	1.076777	-0.014587	-0.034523
O47	O	1.326777	0.235413	0.215477
O48	O	1.576777	0.485413	0.465477
O49	O	0.936473	-0.341870	-0.477379
O50	O	1.186473	-0.091870	-0.227379
O51	O	1.436473	0.158130	0.022621
O52	O	1.686473	0.408130	0.272621
O53	O	0.826734	-0.341889	-0.367638
O54	O	1.076734	-0.091889	-0.117638
O55	O	1.326734	0.158111	0.132362
O56	O	1.576734	0.408111	0.382362
O57	O	1.019663	-0.264554	-0.477415
O58	O	1.269663	-0.014554	-0.227415
O59	O	1.519663	0.235446	0.022585
O60	O	1.769663	0.485446	0.272585
O61	O	1.019526	-0.443973	-0.284491
O62	O	1.269526	-0.193973	-0.034491
O63	O	1.519526	0.056027	0.215509
O64	O	1.769526	0.306027	0.465509
O65	O	0.936395	-0.443947	-0.367619
O66	O	1.186395	-0.193947	-0.117619
O67	O	1.436395	0.056053	0.132381
O68	O	1.686395	0.306053	0.382381
C69	C	0.802197	-0.303237	-0.326078
C70	C	1.052197	-0.053237	-0.076078
C71	C	1.302197	0.196763	0.173922
C72	C	1.552197	0.446763	0.423922
C73	C	0.726965	-0.303247	-0.326085
C74	C	0.976965	-0.053247	-0.076085
C75	C	1.226965	0.196753	0.173915
C76	C	1.476965	0.446753	0.423915
C77	C	0.691616	-0.343558	-0.369292
C78	C	0.941616	-0.093558	-0.119292
C79	C	1.191616	0.156442	0.130708
C80	C	1.441616	0.406442	0.380708
C81	C	0.620928	-0.343559	-0.369302
C82	C	0.870928	-0.093559	-0.119302
C83	C	1.120928	0.156441	0.130698
C84	C	1.370928	0.406441	0.380698
C85	C	0.585589	-0.303252	-0.326100
C86	C	0.835589	-0.053252	-0.076100
C87	C	1.085589	0.196748	0.173900
C88	C	1.335589	0.446748	0.423900
C89	C	0.620942	-0.262936	-0.282890
C90	C	0.870942	-0.012936	-0.032890
C91	C	1.120942	0.237064	0.217110
C92	C	1.370942	0.487064	0.467110
C93	C	0.691629	-0.262932	-0.282885
C94	C	0.941629	-0.012932	-0.032885
C95	C	1.191629	0.237068	0.217115
C96	C	1.441629	0.487068	0.467115
C97	C	0.335869	-0.262949	-0.282913
C98	C	0.585869	-0.012949	-0.032913
C99	C	0.835869	0.237051	0.217087
C100	C	1.085869	0.487051	0.467087
C101	C	0.265177	-0.262958	-0.282920
C102	C	0.515177	-0.012958	-0.032920
C103	C	0.765177	0.237042	0.217080
C104	C	1.015177	0.487042	0.467080
C105	C	0.265167	-0.343577	-0.369330
C106	C	0.515167	-0.093577	-0.119330
C107	C	0.765167	0.156423	0.130670
C108	C	1.015167	0.406423	0.380670
C109	C	0.335854	-0.343573	-0.369324
C110	C	0.585854	-0.093573	-0.119324
C111	C	0.835854	0.156427	0.130676
C112	C	1.085854	0.406427	0.380676
C113	C	0.371202	-0.303255	-0.326117
C114	C	0.621202	-0.053255	-0.076117
C115	C	0.871202	0.196745	0.173883
C116	C	1.121202	0.446745	0.423883
C117	C	0.447850	-0.303254	-0.326109
C118	C	0.697850	-0.053254	-0.076109
C119	C	0.947850	0.196746	0.173891
C120	C	1.197850	0.446746	0.423891
C121	C	0.508942	-0.303256	-0.326105
C122	C	0.758942	-0.053256	-0.076105
C123	C	1.008942	0.196744	0.173895
C124	C	1.258942	0.446744	0.423895
C125	C	0.977964	-0.466800	-0.326062
C126	C	1.227964	-0.216800	-0.076062
C127	C	1.477964	0.033200	0.173938
C128	C	1.727964	0.283200	0.423938
C129	C	0.977988	-0.536768	-0.326069
C130	C	1.227988	-0.286768	-0.076069
C131	C	1.477988	-0.036768	0.173931
C132	C	1.727988	0.213232	0.423931
C133	C	1.021312	-0.569628	-0.282828
C134	C	1.271312	-0.319628	-0.032828
C135	C	1.521312	-0.069628	0.217172
C136	C	1.771312	0.180372	0.467172
C137	C	1.021344	-0.635370	-0.282844
C138	C	1.271344	-0.385370	-0.032844
C139	C	1.521344	-0.135370	0.217156
C140	C	1.771344	0.114630	0.467156
C141	C	0.978039	-0.668251	-0.326092
C142	C	1.228039	-0.418251	-0.076092
C143	C	1.478039	-0.168251	0.173908
C144	C	1.728039	0.081749	0.423908
C145	C	0.934712	-0.635384	-0.369341
C146	C	1.184712	-0.385384	-0.119341
C147	C	1.434712	-0.135384	0.130659
C148	C	1.684712	0.114616	0.380659
C149	C	0.934686	-0.569643	-0.369330
C150	C	1.184686	-0.319643	-0.119330
C151	C	1.434686	-0.069643	0.130670
C152	C	1.684686	0.180357	0.380670
N153	N	0.918828	-0.771517	-0.331245
N154	N	1.168828	-0.521517	-0.081245
N155	N	1.418828	-0.271517	0.168755
N156	N	1.668828	-0.021517	0.418755
N157	N	0.918854	-0.833968	-0.331252
N158	N	1.168854	-0.583968	-0.081252
N159	N	1.418854	-0.333968	0.168748
N160	N	1.668854	-0.083968	0.418748
C161	C	0.978115	-0.866326	-0.326131
C162	C	1.228115	-0.616326	-0.076131
C163	C	1.478115	-0.366326	0.173869
C164	C	1.728115	-0.116326	0.423869
N165	N	1.037349	-0.833872	-0.320989
N166	N	1.287349	-0.583872	-0.070989
N167	N	1.537349	-0.333872	0.179011
N168	N	1.787349	-0.083872	0.429011
N169	N	1.037322	-0.771415	-0.320979
N170	N	1.287322	-0.521415	-0.070979
N171	N	1.537322	-0.271415	0.179021
N172	N	1.787322	-0.021415	0.429021
C173	C	0.978062	-0.739536	-0.326110
C174	C	1.228062	-0.489536	-0.076110
C175	C	1.478062	-0.239536	0.173890
C176	C	1.728062	0.010464	0.423890
C177	C	1.021477	-0.970470	-0.282905
C178	C	1.271477	-0.720470	-0.032905
C179	C	1.521477	-0.470470	0.217095
C180	C	1.771477	-0.220470	0.467095
C181	C	1.021510	-1.036214	-0.282925
C182	C	1.271510	-0.786214	-0.032925
C183	C	1.521510	-0.536214	0.217075
C184	C	1.771510	-0.286214	0.467075
C185	C	0.934872	-1.036226	-0.369419
C186	C	1.184872	-0.786226	-0.119419
C187	C	1.434872	-0.536226	0.130581
C188	C	1.684872	-0.286226	0.380581
C189	C	0.934845	-0.970484	-0.369402
C190	C	1.184845	-0.720484	-0.119402
C191	C	1.434845	-0.470484	0.130598
C192	C	1.684845	-0.220484	0.380598
C193	C	0.978147	-0.937610	-0.326142
C194	C	1.228147	-0.687610	-0.076142
C195	C	1.478147	-0.437610	0.173858
C196	C	1.728147	-0.187610	0.423858
C197	C	1.154595	-0.303261	-0.326122
C198	C	1.404595	-0.053261	-0.076122
C199	C	1.654595	0.196739	0.173878
C200	C	1.904595	0.446739	0.423878
C201	C	1.229827	-0.303267	-0.326132
C202	C	1.479827	-0.053267	-0.076132
C203	C	1.729827	0.196733	0.173868
C204	C	1.979827	0.446733	0.423868
C205	C	0.978071	-0.303206	-0.502643
C206	C	1.228071	-0.053206	-0.252643
C207	C	1.478071	0.196794	-0.002643
C208	C	1.728071	0.446794	0.247357
C209	C	0.978078	-0.303188	-0.577875
C210	C	1.228078	-0.053188	-0.327875
C211	C	1.478078	0.196812	-0.077875
C212	C	1.728078	0.446812	0.172125
C213	C	0.978160	-0.139058	-0.326152
C214	C	1.228160	0.110942	-0.076152
C215	C	1.478160	0.360942	0.173848
C216	C	1.728160	0.610942	0.423848
C217	C	0.978206	-0.069090	-0.326175
C218	C	1.228206	0.180910	-0.076175
C219	C	1.478206	0.430910	0.173825
C220	C	1.728206	0.680910	0.423825
C221	C	1.021449	-0.343352	-1.039656
C222	C	1.271449	-0.093352	-0.789656
C223	C	1.521449	0.156648	-0.539656
C224	C	1.771449	0.406648	-0.289656
C225	C	1.021430	-0.343370	-0.968968
C226	C	1.271430	-0.093370	-0.718968
C227	C	1.521430	0.156630	-0.468968
C228	C	1.771430	0.406630	-0.218968
C229	C	0.978162	-0.303117	-0.933637
C230	C	1.228162	-0.053117	-0.683637
C231	C	1.478162	0.196883	-0.433637
C232	C	1.728162	0.446883	-0.183637
C233	C	0.934905	-0.262849	-0.968998
C234	C	1.184905	-0.012849	-0.718998
C235	C	1.434905	0.237151	-0.468998
C236	C	1.684905	0.487151	-0.218998
C237	C	0.934921	-0.262836	-1.039685
C238	C	1.184921	-0.012836	-0.789685
C239	C	1.434921	0.237164	-0.539685
C240	C	1.684921	0.487164	-0.289685
C241	C	0.934840	-0.262903	-0.683924
C242	C	1.184840	-0.012903	-0.433924
C243	C	1.434840	0.237097	-0.183924
C244	C	1.684840	0.487097	0.066076
C245	C	0.934829	-0.262918	-0.613232
C246	C	1.184829	-0.012918	-0.363232
C247	C	1.434829	0.237082	-0.113232
C248	C	1.684829	0.487082	0.136768
C249	C	1.021349	-0.343437	-0.613207
C250	C	1.271349	-0.093437	-0.363207
C251	C	1.521349	0.156563	-0.113207
C252	C	1.771349	0.406563	0.136793
C253	C	1.021365	-0.343423	-0.683894
C254	C	1.271365	-0.093423	-0.433894
C255	C	1.521365	0.156577	-0.183894
C256	C	1.771365	0.406577	0.066106
C257	C	0.978106	-0.303158	-0.719249
C258	C	1.228106	-0.053158	-0.469249
C259	C	1.478106	0.196842	-0.219249
C260	C	1.728106	0.446842	0.030751
C261	C	0.978126	-0.303141	-0.795898
C262	C	1.228126	-0.053141	-0.545898
C263	C	1.478126	0.196859	-0.295898
C264	C	1.728126	0.446859	-0.045898
C265	C	0.978145	-0.303131	-0.856989
C266	C	1.228145	-0.053131	-0.606989
C267	C	1.478145	0.196869	-0.356989
C268	C	1.728145	0.446869	-0.106989
C269	C	0.978073	-0.303246	-0.150244
C270	C	1.228073	-0.053246	0.099756
C271	C	1.478073	0.196754	0.349756
C272	C	1.728073	0.446754	0.599756
C273	C	0.978197	-0.303087	-0.075012
C274	C	1.228197	-0.053087	0.174988
C275	C	1.478197	0.196913	0.424988
C276	C	1.728197	0.446913	0.674988
H277	H	0.592164	-0.230113	-0.247718
H278	H	0.842164	0.019887	0.002282
H279	H	1.092164	0.269887	0.252282
H280	H	1.342164	0.519887	0.502282
H281	H	1.056626	-0.662129	-0.247632
H282	H	1.306626	-0.412129	0.002368
H283	H	1.556626	-0.162129	0.252368
H284	H	1.806626	0.087871	0.502368
Br285	Br	0.876107	-1.080843	-0.428122
Br286	Br	1.126107	-0.830843	-0.178122
Br287	Br	1.376107	-0.580843	0.071878
Br288	Br	1.626107	-0.330843	0.321878
Br289	Br	0.876043	-0.925886	-0.428088
Br290	Br	1.126043	-0.675886	-0.178088
Br291	Br	1.376043	-0.425886	0.071912
Br292	Br	1.626043	-0.175886	0.321912
H293	H	1.056739	-0.943703	-0.247681
H294	H	1.306739	-0.693703	0.002319
H295	H	1.556739	-0.443703	0.252319
H296	H	1.806739	-0.193703	0.502319
H297	H	0.720409	-0.230103	-0.247704
H298	H	0.970409	0.019897	0.002296
H299	H	1.220409	0.269897	0.252296
H300	H	1.470409	0.519897	0.502296
Br301	Br	0.876096	-0.208291	-0.731897
Br302	Br	1.126096	0.041709	-0.481897
Br303	Br	1.376096	0.291709	-0.231897
Br304	Br	1.626096	0.541709	0.018103
Br305	Br	0.876222	-0.208185	-1.087669
Br306	Br	1.126222	0.041815	-0.837669
Br307	Br	1.376222	0.291815	-0.587669
Br308	Br	1.626222	0.541815	-0.337669
H309	H	1.056794	-1.062967	-0.247714
H310	H	1.306794	-0.812967	0.002286
H311	H	1.556794	-0.562967	0.252286
H312	H	1.806794	-0.312967	0.502286
Br313	Br	0.383831	-0.208228	-0.224279
Br314	Br	0.633831	0.041772	0.025721
Br315	Br	0.883831	0.291772	0.275721
Br316	Br	1.133831	0.541772	0.525721
Br317	Br	0.383811	-0.398282	-0.427953
Br318	Br	0.633811	-0.148282	-0.177953
Br319	Br	0.883811	0.101718	0.072047
Br320	Br	1.133811	0.351718	0.322047
Br321	Br	1.080088	-0.525016	-0.224127
Br322	Br	1.330088	-0.275016	0.025873
Br323	Br	1.580088	-0.025016	0.275873
Br324	Br	1.830088	0.224984	0.525873
H325	H	1.056571	-0.376225	-0.584412
H326	H	1.306571	-0.126225	-0.334412
H327	H	1.556571	0.123775	-0.084412
H328	H	1.806571	0.373775	0.165588
H329	H	0.899593	-0.230138	-0.584467
H330	H	1.149593	0.019862	-0.334467
H331	H	1.399593	0.269862	-0.084467
H332	H	1.649593	0.519862	0.165533
H333	H	0.720384	-0.376384	-0.404470
H334	H	0.970384	-0.126384	-0.154470
H335	H	1.220384	0.123616	0.095530
H336	H	1.470384	0.373616	0.345530
Br337	Br	0.572957	-0.398269	-0.427945
Br338	Br	0.822957	-0.148269	-0.177945
Br339	Br	1.072957	0.101731	0.072055
Br340	Br	1.322957	0.351731	0.322055
Br341	Br	0.875946	-0.680006	-0.428042
Br342	Br	1.125946	-0.430006	-0.178042
Br343	Br	1.375946	-0.180006	0.071958
Br344	Br	1.625946	0.069994	0.321958
H345	H	0.899673	-0.230078	-0.940225
H346	H	1.149673	0.019922	-0.690225
H347	H	1.399673	0.269922	-0.440225
H348	H	1.649673	0.519922	-0.190225
Br349	Br	0.217193	-0.398297	-0.427967
Br350	Br	0.467193	-0.148297	-0.177967
Br351	Br	0.717193	0.101703	0.072033
Br352	Br	0.967193	0.351703	0.322033
H353	H	0.236406	-0.230130	-0.247740
H354	H	0.486406	0.019870	0.002260
H355	H	0.736406	0.269870	0.252260
H356	H	0.986406	0.519870	0.502260
H357	H	0.899405	-0.542888	-0.404542
H358	H	1.149405	-0.292888	-0.154542
H359	H	1.399405	-0.042888	0.095458
H360	H	1.649405	0.207112	0.345458
H361	H	1.056686	-0.376128	-1.068418
H362	H	1.306686	-0.126128	-0.818418
H363	H	1.556686	0.123872	-0.568418
H364	H	1.806686	0.373872	-0.318418
H365	H	1.056642	-0.376166	-0.940184
H366	H	1.306642	-0.126166	-0.690184
H367	H	1.556642	0.123834	-0.440184
H368	H	1.806642	0.373834	-0.190184
H369	H	1.056601	-0.376199	-0.712657
H370	H	1.306601	-0.126199	-0.462657
H371	H	1.556601	0.123801	-0.212657
H372	H	1.806601	0.373801	0.037343
