data_functionalizedCrystal
_audit_creation_method	'MofGen! by Chris Wilmer'
_symmetry_space_group_name_H-M	'P1'
_symmetry_Int_Tables_number	1
_symmetry_cell_setting	triclinic
loop_
_symmetry_equiv_pos_as_xyz
  x,y,z
_cell_length_a	16.959455
_cell_length_b	16.959454
_cell_length_c	16.959447
_cell_angle_alpha	89.973264
_cell_angle_beta	90.014322
_cell_angle_gamma	89.982978
loop_
_atom_site_label
_atom_site_type_symbol
_atom_site_fract_x
_atom_site_fract_y
_atom_site_fract_z
Zn1	Zn	1.208384	0.314730	0.446928
Zn2	Zn	1.708384	0.814730	0.946928
Zn3	Zn	1.208306	0.446923	0.314758
Zn4	Zn	1.708306	0.946923	0.814758
Zn5	Zn	1.076212	0.314755	0.314766
Zn6	Zn	1.576212	0.814755	0.814766
Zn7	Zn	1.076177	0.446864	0.446897
Zn8	Zn	1.576177	0.946864	0.946897
O9	O	1.142270	0.380818	0.380837
O10	O	1.642270	0.880818	0.880837
O11	O	1.318984	0.332280	0.429406
O12	O	1.818984	0.832280	0.929406
O13	O	1.190766	0.429426	0.204148
O14	O	1.690766	0.929426	0.704148
O15	O	1.093792	0.204141	0.332314
O16	O	1.593792	0.704141	0.832314
O17	O	1.318927	0.429402	0.332301
O18	O	1.818927	0.929402	0.832301
O19	O	1.190898	0.204123	0.429413
O20	O	1.690898	0.704123	0.929413
O21	O	1.093717	0.332323	0.204154
O22	O	1.593717	0.832323	0.704154
O23	O	0.965597	0.332265	0.332283
O24	O	1.465597	0.832265	0.832283
O25	O	1.093732	0.429301	0.557512
O26	O	1.593732	0.929301	1.057512
O27	O	0.965571	0.429325	0.429359
O28	O	1.465571	0.929325	0.929359
O29	O	1.190864	0.332223	0.557535
O30	O	1.690864	0.832223	1.057535
O31	O	1.190732	0.557526	0.332270
O32	O	1.690732	1.057526	0.832270
O33	O	1.093657	0.557482	0.429352
O34	O	1.593657	1.057482	0.929352
C35	C	0.936904	0.380792	0.380819
C36	C	1.436904	0.880792	0.880819
C37	C	0.849047	0.380800	0.380830
C38	C	1.349047	0.880800	0.880830
C39	C	1.142204	0.586184	0.380824
C40	C	1.642204	1.086184	0.880824
C41	C	1.142248	0.674041	0.380844
C42	C	1.642248	1.174041	0.880844
C43	C	0.477560	0.330238	0.330395
C44	C	0.977560	0.830238	0.830395
C45	C	0.477582	0.431463	0.431324
C46	C	0.977582	0.931463	0.931324
C47	C	0.560128	0.431452	0.431320
C48	C	1.060128	0.931452	0.931320
C49	C	0.601394	0.380834	0.380851
C50	C	1.101394	0.880834	0.880851
C51	C	0.560114	0.330226	0.330387
C52	C	1.060114	0.830226	0.830387
C53	C	0.601414	0.482064	0.481777
C54	C	1.101414	0.982064	0.981777
C55	C	0.683965	0.482055	0.481773
C56	C	1.183965	0.982055	0.981773
C57	C	0.725233	0.431432	0.431308
C58	C	1.225233	0.931432	0.931308
C59	C	0.683948	0.380822	0.380843
C60	C	1.183948	0.880822	0.880843
C61	C	0.725213	0.330204	0.330374
C62	C	1.225213	0.830204	0.830374
C63	C	0.683930	0.279589	0.279913
C64	C	1.183930	0.779589	0.779913
C65	C	0.601381	0.279603	0.279922
C66	C	1.101381	0.779603	0.779922
C67	C	0.807781	0.431418	0.431299
C68	C	1.307781	0.931418	0.931299
C69	C	0.807767	0.330193	0.330366
C70	C	1.307767	0.830193	0.830366
C71	C	1.142303	0.380753	0.587006
C72	C	1.642303	0.880753	1.087006
C73	C	1.142317	0.380725	0.674862
C74	C	1.642317	0.880725	1.174862
C75	C	1.348438	0.380845	0.380856
C76	C	1.848438	0.880845	0.880856
C77	C	1.436295	0.380856	0.380864
C78	C	1.936295	0.880856	0.880864
C79	C	1.142358	0.174650	0.380868
C80	C	1.642358	0.674650	0.880868
C81	C	1.142395	0.086793	0.380881
C82	C	1.642395	0.586793	0.880881
C83	C	1.091796	1.045524	0.431382
C84	C	1.591796	1.545524	0.931382
C85	C	1.192963	1.045509	0.330373
C86	C	1.692963	1.545509	0.830373
C87	C	1.192936	0.962963	0.330365
C88	C	1.692936	1.462963	0.830365
C89	C	1.142337	0.921694	0.380867
C90	C	1.642337	1.421694	0.880867
C91	C	1.091765	0.962970	0.431375
C92	C	1.591765	1.462970	0.931375
C93	C	1.243501	0.921680	0.279852
C94	C	1.743501	1.421680	0.779852
C95	C	1.243475	0.839130	0.279842
C96	C	1.743475	1.339130	0.779842
C97	C	1.192879	0.797859	0.330348
C98	C	1.692879	1.297859	0.830348
C99	C	1.142306	0.839140	0.380859
C100	C	1.642306	1.339140	0.880859
C101	C	1.091707	0.797871	0.431360
C102	C	1.591707	1.297871	0.931360
C103	C	1.041137	0.839151	0.481876
C104	C	1.541137	1.339151	0.981876
C105	C	1.041170	0.921699	0.481881
C106	C	1.541170	1.421699	0.981881
C107	C	1.192847	0.715310	0.330343
C108	C	1.692847	1.215310	0.830343
C109	C	1.091676	0.715317	0.431353
C110	C	1.591676	1.215317	0.931353
C111	C	1.142283	0.380826	0.175471
C112	C	1.642283	0.880826	0.675471
C113	C	1.142422	0.380631	0.087615
C114	C	1.642422	0.880631	0.587615
C115	C	1.091839	0.431185	1.046328
C116	C	1.591839	0.931185	1.546328
C117	C	1.192983	0.330097	1.046348
C118	C	1.692983	0.830097	1.546348
C119	C	1.192962	0.330114	0.963802
C120	C	1.692962	0.830114	1.463802
C121	C	1.142380	0.380668	0.922515
C122	C	1.642380	0.880668	1.422515
C123	C	1.091818	0.431205	0.963775
C124	C	1.591818	0.931205	1.463775
C125	C	1.243529	0.279584	0.922536
C126	C	1.743529	0.779584	1.422536
C127	C	1.243510	0.279599	0.839985
C128	C	1.743510	0.779599	1.339985
C129	C	1.192923	0.330149	0.798697
C130	C	1.692923	0.830149	1.298697
C131	C	1.142359	0.380688	0.839962
C132	C	1.642359	0.880688	1.339962
C133	C	1.091776	0.431242	0.798675
C134	C	1.591776	0.931242	1.298675
C135	C	1.041207	0.481777	0.839938
C136	C	1.541207	0.981777	1.339938
C137	C	1.041231	0.481756	0.922487
C138	C	1.541231	0.981756	1.422487
C139	C	1.192899	0.330171	0.716149
C140	C	1.692899	0.830171	1.216149
C141	C	1.091755	0.431262	0.716122
C142	C	1.591755	0.931262	1.216122
H143	H	0.841360	0.288968	0.289273
H144	H	1.341360	0.788968	0.789273
N145	N	0.728441	0.225000	0.225474
N146	N	1.228441	0.725000	0.725474
H147	H	0.786998	0.232680	0.233127
H148	H	1.286998	0.732680	0.733127
H149	H	0.714033	0.168563	0.237875
H150	H	1.214033	0.668563	0.737875
N151	N	0.852306	0.486009	0.485713
N152	N	1.352306	0.986009	0.985713
H153	H	0.837962	0.473811	0.542213
H154	H	1.337962	0.973811	1.042213
H155	H	0.910847	0.478296	0.477984
H156	H	1.410847	0.978296	0.977984
H157	H	1.284686	0.238450	0.806396
H158	H	1.784686	0.738450	1.306396
N159	N	1.037293	0.485673	1.090838
N160	N	1.537293	0.985673	1.590838
H161	H	1.069399	0.522299	1.125087
H162	H	1.569399	1.022299	1.625087
H163	H	1.005251	0.517649	1.052113
H164	H	1.505251	1.017649	1.552113
H165	H	1.234016	0.681704	0.289211
H166	H	1.734016	1.181704	0.789211
N167	N	0.986689	0.536242	0.967005
N168	N	1.486689	1.036242	1.467005
H169	H	1.018801	0.572867	1.001250
H170	H	1.518801	1.072867	1.501250
H171	H	0.954641	0.568219	0.928287
H172	H	1.454641	1.068219	1.428287
N173	N	1.247537	0.275572	1.090871
N174	N	1.747537	0.775572	1.590871
H175	H	1.304004	0.287857	1.076502
H176	H	1.804004	0.787857	1.576502
H177	H	1.239813	0.283253	1.149413
H178	H	1.739813	0.783253	1.649413
N179	N	1.037250	1.090043	0.485857
N180	N	1.537250	1.590043	0.985857
H181	H	1.005192	1.051370	0.517845
H182	H	1.505192	1.551370	1.017845
H183	H	1.069412	1.124249	0.522472
H184	H	1.569412	1.624249	1.022472
H185	H	1.284715	0.238430	0.956158
H186	H	1.784715	0.738430	1.456158
H187	H	1.234074	0.289028	0.682556
H188	H	1.734074	0.789028	1.182556
H189	H	1.050557	0.472422	0.682512
H190	H	1.550557	0.972422	1.182512
H191	H	1.000026	0.522942	0.806312
H192	H	1.500026	1.022942	1.306312
N193	N	0.433035	0.275660	0.275964
N194	N	0.933035	0.775660	0.775964
H195	H	0.447410	0.219195	0.288329
H196	H	0.947410	0.719195	0.788329
H197	H	0.374494	0.283418	0.283654
H198	H	0.874494	0.783418	0.783654
H199	H	0.443979	0.472679	0.472409
H200	H	0.943979	0.972679	0.972409
N201	N	0.556853	0.225028	0.225490
N202	N	1.056853	0.725028	0.725490
H203	H	0.595518	0.192958	0.193517
H204	H	1.095518	0.692958	0.693517
H205	H	0.522615	0.188494	0.257727
H206	H	1.022615	0.688494	0.757727
N207	N	0.556909	0.536664	0.536200
N208	N	1.056909	1.036664	1.036200
H209	H	0.498351	0.528988	0.528548
H210	H	0.998351	1.028988	1.028548
H211	H	0.571359	0.524436	0.592673
H212	H	1.071359	1.024436	1.092673
H213	H	0.999998	0.955317	0.523007
H214	H	1.499998	1.455317	1.023007
N215	N	1.037097	0.670804	0.485817
N216	N	1.537097	1.170804	0.985817
H217	H	1.069180	0.636509	0.522471
H218	H	1.569180	1.136509	1.022471
H219	H	1.005078	0.709530	0.517763
H220	H	1.505078	1.209530	1.017763
N221	N	0.728490	0.536643	0.536195
N222	N	1.228490	1.036643	1.036195
H223	H	0.689821	0.568712	0.568166
H224	H	1.189821	1.068712	1.068166
H225	H	0.762755	0.504508	0.572828
H226	H	1.262755	1.004508	1.072828
H227	H	1.234154	1.079115	0.289252
H228	H	1.734154	1.579115	0.789252
N229	N	0.986560	0.794630	0.536335
N230	N	1.486560	1.294630	1.036335
H231	H	1.018647	0.760333	0.572985
H232	H	1.518647	1.260333	1.072985
H233	H	0.954538	0.833348	0.568286
H234	H	1.454538	1.333348	1.068286
N235	N	1.298056	0.966201	0.225380
N236	N	1.798056	1.466201	0.725380
H237	H	1.334678	1.000410	0.257535
H238	H	1.834678	1.500410	0.757535
H239	H	1.330032	0.927485	0.193380
H240	H	1.830032	1.427485	0.693380
N241	N	1.298021	0.794609	0.225369
N242	N	1.798021	1.294609	0.725369
H243	H	1.330081	0.833280	0.193381
H244	H	1.830081	1.333280	0.693381
H245	H	1.334565	0.760323	0.257583
H246	H	1.834565	1.260323	0.757583
