data_functionalizedCrystal
_audit_creation_method	'MofGen! by Chris Wilmer'
_symmetry_space_group_name_H-M	'P1'
_symmetry_Int_Tables_number	1
_symmetry_cell_setting	triclinic
loop_
_symmetry_equiv_pos_as_xyz
  x,y,z
_cell_length_a	14.519709
_cell_length_b	10.540510
_cell_length_c	12.996460
_cell_angle_alpha	89.996346
_cell_angle_beta	90.000034
_cell_angle_gamma	84.096728
loop_
_atom_site_label
_atom_site_type_symbol
_atom_site_fract_x
_atom_site_fract_y
_atom_site_fract_z
O1	O	1.224752	0.166402	-0.085427
O2	O	0.956380	0.185998	-0.085458
O3	O	1.096703	-0.008571	-0.085441
O4	O	1.084429	0.360972	-0.085443
O5	O	1.096688	-0.008582	0.085693
O6	O	0.956365	0.185987	0.085676
O7	O	1.224738	0.166391	0.085707
Cu8	Cu	1.090550	0.176188	0.101317
Cu9	Cu	1.090567	0.176201	-0.101068
O10	O	1.084414	0.360961	0.085690
C11	C	0.922008	0.185079	0.000105
C12	C	0.819612	0.182343	0.000093
C13	C	0.444662	0.172268	0.000140
C14	C	0.548985	0.175066	0.000127
C15	C	0.632134	0.177305	0.000116
C16	C	0.736463	0.180103	0.000104
C17	C	1.095781	-0.055871	0.000123
C18	C	1.093044	-0.196793	0.000117
C19	C	1.190527	-0.415244	0.000520
C20	C	1.193446	-0.268678	0.000129
C21	C	1.041657	-0.241021	-0.097613
C22	C	1.039449	-0.387759	-0.097689
C23	C	1.037341	-0.387559	0.096921
C24	C	1.042104	-0.241266	0.098208
C25	C	1.259110	0.167310	0.000142
C26	C	1.361505	0.170047	0.000147
C27	C	1.085336	0.408261	0.000123
C28	C	1.088073	0.549182	0.000123
N29	N	1.090544	0.176179	0.243664
N30	N	1.090580	0.176201	-0.243415
C31	C	1.090566	0.176202	0.663479
C32	C	1.090557	0.176200	0.546674
C33	C	1.090556	0.176191	0.453575
C34	C	1.090546	0.176187	0.336763
H35	H	1.233653	-0.239749	0.070185
H36	H	0.968802	-0.191452	0.104101
C37	C	1.243077	-0.474527	-0.093620
C38	C	1.193370	-0.555014	-0.170745
C39	C	1.245916	-0.614297	-0.264888
C40	C	1.348169	-0.593092	-0.281906
C41	C	1.397881	-0.512602	-0.204778
C42	C	1.345335	-0.453319	-0.110635
H43	H	1.117672	-0.570714	-0.158150
H44	H	1.209116	-0.673881	-0.321983
H45	H	1.387067	-0.636976	-0.351596
H46	H	1.473580	-0.496901	-0.217373
H47	H	1.382136	-0.393735	-0.053541
C48	C	1.089883	-0.199838	-0.195861
C49	C	1.175821	-0.126136	-0.187615
C50	C	1.224054	-0.084958	-0.285860
C51	C	1.186347	-0.117481	-0.392350
C52	C	1.100405	-0.191187	-0.400601
C53	C	1.052173	-0.232366	-0.302356
H54	H	1.203738	-0.102057	-0.108780
H55	H	1.287674	-0.030396	-0.279752
H56	H	1.222052	-0.086998	-0.465077
H57	H	1.072488	-0.215266	-0.479435
H58	H	0.988552	-0.286928	-0.308464
C59	C	1.080201	-0.445329	0.196996
C60	C	1.161821	-0.550702	0.192095
C61	C	1.204692	-0.608476	0.292163
C62	C	1.165944	-0.560875	0.397131
C63	C	1.084320	-0.455496	0.402036
C64	C	1.041448	-0.397723	0.301969
H65	H	1.190509	-0.585944	0.114387
H66	H	1.265116	-0.686484	0.288531
H67	H	1.197680	-0.603642	0.471207
H68	H	1.055632	-0.420254	0.479744
H69	H	0.981025	-0.319714	0.305600
H70	H	0.961960	-0.408939	0.097571
H71	H	1.079495	-0.213041	0.170508
H72	H	1.229636	-0.457603	0.070607
H73	H	1.074580	-0.428329	-0.170736
C74	C	1.248088	-0.230846	-0.094668
C75	C	1.336140	-0.162784	-0.080586
C76	C	1.390782	-0.124956	-0.175390
C77	C	1.357373	-0.155190	-0.284278
C78	C	1.269317	-0.223257	-0.298365
C79	C	1.214674	-0.261085	-0.203560
H80	H	1.360875	-0.140399	0.000024
H81	H	1.455967	-0.074568	-0.164962
H82	H	1.397822	-0.127188	-0.354458
H83	H	1.244581	-0.245642	-0.378974
H84	H	1.149489	-0.311472	-0.213989
H85	H	0.967744	-0.192877	-0.101255
C86	C	0.938008	-0.417801	-0.103709
C87	C	0.859265	-0.308312	-0.108435
C88	C	0.757827	-0.338348	-0.114464
C89	C	0.735130	-0.477871	-0.115765
C90	C	0.813875	-0.587369	-0.111039
C91	C	0.915314	-0.557334	-0.105011
H92	H	0.876064	-0.205020	-0.107472
H93	H	0.699535	-0.257290	-0.117963
H94	H	0.660039	-0.500105	-0.120228
H95	H	0.797076	-0.690661	-0.112002
H96	H	0.973605	-0.638392	-0.101512
