data_functionalizedCrystal
_audit_creation_method	'MofGen! by Chris Wilmer'
_symmetry_space_group_name_H-M	'P1'
_symmetry_Int_Tables_number	1
_symmetry_cell_setting	triclinic
loop_
_symmetry_equiv_pos_as_xyz
  x,y,z
_cell_length_a	14.519731
_cell_length_b	13.596369
_cell_length_c	10.654550
_cell_angle_alpha	90.000797
_cell_angle_beta	95.913122
_cell_angle_gamma	90.006024
loop_
_atom_site_label
_atom_site_type_symbol
_atom_site_fract_x
_atom_site_fract_y
_atom_site_fract_z
O1	O	1.224712	0.081791	-0.164742
O2	O	1.724712	0.581791	0.335258
O3	O	0.956338	0.081792	-0.184101
O4	O	1.456338	0.581792	0.315899
O5	O	1.096696	0.081788	0.008376
O6	O	1.596696	0.581788	0.508376
O7	O	1.084355	0.081795	-0.357219
O8	O	1.584355	0.581795	0.142781
O9	O	1.096678	-0.081795	0.008366
O10	O	1.596678	0.418205	0.508366
O11	O	0.956321	-0.081791	-0.184111
O12	O	1.456321	0.418209	0.315889
O13	O	1.224695	-0.081792	-0.164753
O14	O	1.724695	0.418208	0.335247
Zn15	Zn	1.090505	-0.107764	-0.174434
Zn16	Zn	1.590505	0.392236	0.325566
Zn17	Zn	1.090528	0.107764	-0.174420
Zn18	Zn	1.590528	0.607764	0.325580
O19	O	1.084337	-0.081788	-0.357230
O20	O	1.584337	0.418212	0.142770
C21	C	0.921965	0.000001	-0.183199
C22	C	1.421965	0.500001	0.316801
C23	C	0.819571	0.000001	-0.180481
C24	C	1.319571	0.500001	0.319519
C25	C	0.736415	0.000005	-0.178272
C26	C	1.236415	0.500005	0.321728
C27	C	0.632092	0.000006	-0.175513
C28	C	1.132092	0.500006	0.324487
C29	C	0.548942	0.000005	-0.173322
C30	C	1.048942	0.500005	0.326678
C31	C	0.444612	0.000008	-0.170563
C32	C	0.944612	0.500008	0.329437
N33	N	1.090496	-0.254855	-0.174443
N34	N	1.590496	0.245145	0.325557
C35	C	1.090501	-0.343853	-0.174446
C36	C	1.590501	0.156147	0.325554
C37	C	1.090510	-0.455505	-0.174437
C38	C	1.590510	0.044495	0.325563
C39	C	1.090522	-0.544495	-0.174423
C40	C	1.590522	-0.044495	0.325577
C41	C	1.090532	-0.656154	-0.174415
C42	C	1.590532	-0.156154	0.325585
C43	C	1.259068	0.000002	-0.165655
C44	C	1.759068	0.500002	0.334345
C45	C	1.361462	0.000007	-0.168373
C46	C	1.861462	0.500007	0.331627
C47	C	1.095781	-0.000002	0.055160
C48	C	1.595781	0.499998	0.555160
C49	C	1.093070	0.000001	0.194578
C50	C	1.593070	0.500001	0.694578
N51	N	1.090544	0.254856	-0.174401
N52	N	1.590544	0.754856	0.325599
C53	C	1.085252	0.000005	-0.404014
C54	C	1.585252	0.500005	0.095986
C55	C	1.087963	0.000008	-0.543432
C56	C	1.587963	0.500008	-0.043432
C57	C	1.175710	-0.000002	0.274850
C58	C	1.675710	0.499998	0.774850
C59	C	1.173157	0.000005	0.405846
C60	C	1.673157	0.500005	0.905846
C61	C	1.005317	0.000014	0.376286
C62	C	1.505317	0.500014	0.876286
C63	C	1.007871	0.000014	0.245292
C64	C	1.507871	0.500014	0.745292
C65	C	1.260909	-0.000015	0.224135
C66	C	1.760909	0.499985	0.724135
C67	C	1.343556	-0.000020	0.304408
C68	C	1.843556	0.499980	0.804408
C69	C	1.341003	-0.000013	0.435405
C70	C	1.841003	0.499987	0.935405
C71	C	1.255804	-0.000002	0.486128
C72	C	1.755804	0.499998	0.986128
H73	H	1.412923	-0.000005	0.263100
H74	H	1.912923	0.499995	0.763100
N75	N	1.253047	0.000019	0.627417
N76	N	1.753047	0.500019	1.127417
H77	H	1.318328	0.000021	0.670576
H78	H	1.818328	0.500021	1.170576
H79	H	1.219436	-0.060620	0.653067
H80	H	1.719436	0.439380	1.153067
H81	H	1.262997	-0.000024	0.117473
H82	H	1.762997	0.499976	0.617473
H83	H	1.408299	-0.000007	0.500760
H84	H	1.908299	0.499993	1.000760
H85	H	0.940578	0.000016	0.179933
H86	H	1.440578	0.500016	0.679933
H87	H	0.935951	0.000022	0.417597
H88	H	1.435951	0.500022	0.917597
