data_functionalizedCrystal
_audit_creation_method	'MofGen! by Chris Wilmer'
_symmetry_space_group_name_H-M	'P1'
_symmetry_Int_Tables_number	1
_symmetry_cell_setting	triclinic
loop_
_symmetry_equiv_pos_as_xyz
  x,y,z
_cell_length_a	13.635800
_cell_length_b	17.982783
_cell_length_c	9.582880
_cell_angle_alpha	86.497178
_cell_angle_beta	68.792966
_cell_angle_gamma	102.448572
loop_
_atom_site_label
_atom_site_type_symbol
_atom_site_fract_x
_atom_site_fract_y
_atom_site_fract_z
V1	V	-2.055801	-0.105090	0.467221
O2	O	-2.051322	0.005381	0.457687
O3	O	-2.028796	-0.208694	0.464640
O4	O	-2.051230	-0.103328	0.670711
O5	O	-2.028733	-0.100714	0.250190
V6	V	-2.295435	-0.091894	0.441187
O7	O	-2.191097	-0.134038	0.524327
O8	O	-2.385238	-0.062946	0.384081
O9	O	-2.210837	0.011710	0.443768
O10	O	-2.358613	-0.202364	0.450721
O11	O	-2.381202	-0.096269	0.658218
O12	O	-2.188403	-0.093655	0.237697
V13	V	-1.555801	-0.105090	0.467221
O14	O	-1.551322	0.005381	0.457687
O15	O	-1.528796	-0.208694	0.464640
O16	O	-1.551230	-0.103328	0.670711
O17	O	-1.528733	-0.100714	0.250190
V18	V	-1.795435	-0.091894	0.441187
O19	O	-1.691097	-0.134038	0.524327
O20	O	-1.885238	-0.062946	0.384081
O21	O	-1.710837	0.011710	0.443768
O22	O	-1.858613	-0.202364	0.450721
O23	O	-1.881202	-0.096269	0.658218
O24	O	-1.688403	-0.093655	0.237697
C25	C	-1.949979	-0.233955	0.457428
C26	C	-1.968674	-0.318652	0.456674
C27	C	-1.944398	-0.347656	0.319211
C28	C	-1.961974	-0.427239	0.318508
C29	C	-2.003819	-0.477815	0.455270
C30	C	-2.028100	-0.448805	0.592744
C31	C	-2.010531	-0.369225	0.593446
C32	C	-2.098955	-0.769745	0.589916
C33	C	-2.116519	-0.849330	0.589204
C34	C	-2.050397	-0.827759	0.314979
C35	C	-2.032829	-0.748179	0.315681
C36	C	-2.057116	-0.719176	0.453154
C37	C	-2.038060	-0.632884	0.453915
C38	C	-2.022868	-0.564105	0.454510
C39	C	-1.978595	-0.099550	0.720290
C40	C	-2.015481	-0.098795	0.886649
C41	C	-2.121324	0.036967	0.450976
C42	C	-2.092250	0.121663	0.451739
C43	C	-2.092708	-0.097436	0.188110
C44	C	-2.045441	-0.098187	0.021750
C45	C	-1.449979	-0.233955	0.457428
C46	C	-1.468674	-0.318652	0.456674
C47	C	-1.478595	-0.099550	0.720290
C48	C	-1.515481	-0.098795	0.886649
C49	C	-1.621324	0.036967	0.450976
C50	C	-1.592250	0.121663	0.451739
C51	C	-1.592708	-0.097436	0.188110
C52	C	-1.545441	-0.098187	0.021750
C53	C	-1.569147	-0.362306	0.463821
C54	C	-1.586732	-0.441890	0.463136
C55	C	-1.503840	-0.477817	0.455293
C56	C	-1.403360	-0.434157	0.448151
C57	C	-1.385779	-0.354576	0.448847
C58	C	-1.664271	0.165317	0.444597
C59	C	-1.636958	0.244900	0.445290
C60	C	-1.537627	0.280827	0.453135
C61	C	-1.465600	0.237168	0.460273
C62	C	-1.492910	0.157587	0.459570
H63	H	-1.910315	-0.306481	0.207843
H64	H	-2.030310	-0.345612	0.705384
H65	H	-2.150595	-0.890509	0.700578
H66	H	-1.434260	0.122049	0.465399
O67	O	-1.649646	-0.327348	0.471641
C68	C	-1.676396	-0.291808	0.602787
H69	H	-1.604624	-0.279930	0.639805
H70	H	-1.750398	-0.331567	0.697441
C71	C	-1.790755	-0.229911	0.522706
C72	C	-1.702600	-0.215317	0.568166
H73	H	-1.806924	-0.182730	0.501354
H74	H	-1.772737	-0.253857	0.434353
H75	H	-1.852413	-0.263046	0.601592
H76	H	-1.640941	-0.182191	0.489273
H77	H	-1.720608	-0.191363	0.656505
O78	O	-1.369086	0.272176	0.467701
C79	C	-1.307498	0.328216	0.338278
H80	H	-1.364238	0.346902	0.288429
H81	H	-1.247256	0.302823	0.250490
C82	C	-1.175262	0.375543	0.444052
C83	C	-1.244952	0.398498	0.382834
H84	H	-1.136676	0.418895	0.471532
H85	H	-1.216752	0.337786	0.531245
H86	H	-1.125070	0.354382	0.370885
H87	H	-1.295150	0.419649	0.456006
H88	H	-1.203468	0.436260	0.295654
O89	O	-1.938283	-0.455283	0.184838
C90	C	-1.897600	-0.393579	0.064282
H91	H	-1.862927	-0.338669	0.102385
H92	H	-1.966252	-0.385206	0.028780
C93	C	-1.849844	-0.479105	-0.117717
C94	C	-1.807250	-0.411665	-0.070923
H95	H	-1.794115	-0.490262	-0.201121
H96	H	-1.877257	-0.520677	-0.036498
H97	H	-1.907054	-0.472119	-0.147292
H98	H	-1.750050	-0.418656	-0.041331
H99	H	-1.779825	-0.370095	-0.152141
O100	O	-1.322711	-0.468961	0.440312
C101	C	-1.231248	-0.436935	0.305625
H102	H	-1.234073	-0.376832	0.264847
H103	H	-1.231880	-0.475082	0.215047
C104	C	-1.123196	-0.505428	0.386023
C105	C	-1.126662	-0.431607	0.335947
H106	H	-1.058682	-0.502144	0.404723
H107	H	-1.184818	-0.527007	0.476763
H108	H	-1.123728	-0.537209	0.310534
H109	H	-1.126144	-0.399830	0.411443
H110	H	-1.065038	-0.410022	0.245220
H111	H	-1.515403	0.345628	0.453706
O112	O	-1.684386	-0.484170	0.470001
C113	C	-1.753772	-0.435390	0.477087
H114	H	-1.702867	-0.373786	0.427769
H115	H	-1.809196	-0.437599	0.600132
C116	C	-1.885985	-0.537998	0.445805
C117	C	-1.823462	-0.462337	0.385220
H118	H	-1.928977	-0.554621	0.389144
H119	H	-1.839241	-0.570864	0.441037
H120	H	-1.932162	-0.539829	0.548341
H121	H	-1.777277	-0.460508	0.282693
H122	H	-1.870201	-0.429471	0.389969
H123	H	-1.518170	-0.542618	0.454728
H124	H	-1.303960	-0.319038	0.443020
H125	H	-1.998750	-0.707002	0.204315
O126	O	-1.760784	0.130555	0.436894
C127	C	-1.818489	0.186160	0.430769
H128	H	-1.759032	0.245496	0.385858
H129	H	-1.879591	0.186323	0.549208
C130	C	-1.952326	0.093649	0.379915
C131	C	-1.879298	0.166526	0.324742
H132	H	-1.989840	0.081537	0.314519
H133	H	-1.913452	0.056186	0.384047
H134	H	-2.003234	0.093795	0.478614
H135	H	-1.828383	0.166377	0.226054
H136	H	-1.918165	0.203990	0.320591
H137	H	-1.695620	0.280437	0.439479
H138	H	-2.118719	-0.746141	0.701855
O139	O	-2.026922	-0.856064	0.181571
C140	C	-2.051379	-0.937147	0.210264
H141	H	-2.114034	-0.958631	0.330607
H142	H	-1.974108	-0.955814	0.196970
C143	C	-2.020886	-0.945096	-0.050809
C144	C	-2.097847	-0.971483	0.096995
H145	H	-2.049545	-0.966277	-0.120681
H146	H	-2.004404	-0.890468	-0.070142
H147	H	-1.956500	-0.960654	-0.061865
H148	H	-2.162226	-0.955917	0.108055
H149	H	-2.114341	-1.026109	0.116328
O150	O	-2.068697	-0.498038	0.725456
C151	C	-2.079021	-0.574499	0.695365
H152	H	-2.021165	-0.574755	0.574829
H153	H	-2.166265	-0.601004	0.708259
C154	C	-2.121658	-0.621556	0.955950
C155	C	-2.050592	-0.621871	0.807909
H156	H	-2.104127	-0.650779	1.025375
H157	H	-2.114707	-0.570043	0.976225
H158	H	-2.194355	-0.643642	0.966673
H159	H	-1.977898	-0.599776	0.797183
H160	H	-2.057530	-0.673382	0.787634
