data_functionalizedCrystal
_audit_creation_method	'MofGen! by Chris Wilmer'
_symmetry_space_group_name_H-M	'P1'
_symmetry_Int_Tables_number	1
_symmetry_cell_setting	triclinic
loop_
_symmetry_equiv_pos_as_xyz
  x,y,z
_cell_length_a	12.645331
_cell_length_b	16.120484
_cell_length_c	16.120256
_cell_angle_alpha	84.383827
_cell_angle_beta	92.878155
_cell_angle_gamma	87.075450
loop_
_atom_site_label
_atom_site_type_symbol
_atom_site_fract_x
_atom_site_fract_y
_atom_site_fract_z
Zn1	Zn	1.566080	0.356785	-0.489464
Zn2	Zn	1.565947	0.489471	-0.356773
Zn3	Zn	1.398270	0.349715	-0.349708
Zn4	Zn	1.379289	0.496514	-0.496496
O5	O	1.477397	0.423121	-0.423110
O6	O	1.714408	0.374398	-0.471876
O7	O	1.551592	0.465025	-0.238874
O8	O	1.428530	0.233687	-0.362347
O9	O	1.714310	0.471882	-0.374389
O10	O	1.551819	0.238882	-0.465025
O11	O	1.428401	0.362347	-0.233683
O12	O	1.247407	0.369176	-0.369166
O13	O	1.396180	0.483885	-0.612526
O14	O	1.233462	0.477029	-0.477010
O15	O	1.533414	0.381227	-0.607359
O16	O	1.533187	0.607371	-0.381208
O17	O	1.396051	0.612545	-0.483861
C18	C	1.201970	0.423100	-0.423085
C19	C	1.084138	0.423112	-0.423095
C20	C	1.462572	0.640286	-0.434082
C21	C	1.456325	0.733192	-0.438804
C22	C	1.462694	0.434130	-0.641117
C23	C	1.456429	0.438822	-0.734019
C24	C	0.925308	0.354983	-0.355592
C25	C	1.047875	0.355137	-0.355317
C26	C	1.035270	0.509941	-0.403489
C27	C	0.912725	0.509564	-0.403033
C28	C	0.912503	0.405263	-0.510495
C29	C	1.035275	0.403271	-0.509904
C30	C	1.753899	0.423143	-0.423136
C31	C	1.871727	0.423152	-0.423147
C32	C	1.492307	0.205109	-0.412114
C33	C	1.498660	0.112205	-0.407428
C34	C	1.444925	0.903292	-0.447442
C35	C	1.510057	0.942110	-0.398792
C36	C	1.503714	1.036760	-0.403598
C37	C	1.451267	0.808634	-0.442637
C38	C	1.510068	0.398634	-0.942945
C39	C	1.444958	0.447353	-0.904104
C40	C	1.451342	0.442605	-0.809460
C41	C	1.503685	0.403381	-1.037598
C42	C	1.492107	0.412094	-0.205948
C43	C	1.498593	0.407168	-0.113035
H44	H	0.899280	0.290252	-0.367198
O45	O	0.865554	0.471092	-0.577104
H46	H	0.889743	0.533442	-0.562279
H47	H	1.570581	0.904259	-0.353531
H48	H	1.384404	0.941140	-0.492699
H49	H	1.384414	0.492623	-0.941931
O50	O	1.590271	0.338675	-0.892850
H51	H	1.582769	0.344322	-0.825299
H52	H	0.897887	0.366302	-0.291150
O53	O	1.092282	0.269659	-0.370890
H54	H	1.026205	0.227838	-0.378683
H55	H	1.080595	0.366600	-0.290498
H56	H	0.876649	0.561834	-0.450334
O57	O	0.878874	0.530339	-0.318622
H58	H	0.905186	0.593012	-0.306959
O59	O	1.065364	0.578769	-0.466871
H60	H	1.115596	0.551756	-0.513126
H61	H	1.068954	0.525998	-0.340477
H62	H	1.067549	0.339398	-0.524769
O63	O	0.875305	0.323167	-0.535255
H64	H	0.787306	0.325371	-0.538988
O65	O	1.067383	0.464738	-0.579660
H66	H	1.155091	0.461584	-0.581691
