data_functionalizedCrystal
_audit_creation_method	'MofGen! by Chris Wilmer'
_symmetry_space_group_name_H-M	'P1'
_symmetry_Int_Tables_number	1
_symmetry_cell_setting	triclinic
loop_
_symmetry_equiv_pos_as_xyz
  x,y,z
_cell_length_a	16.992694
_cell_length_b	16.992695
_cell_length_c	16.776229
_cell_angle_alpha	90.003575
_cell_angle_beta	90.000162
_cell_angle_gamma	90.668223
loop_
_atom_site_label
_atom_site_type_symbol
_atom_site_fract_x
_atom_site_fract_y
_atom_site_fract_z
O1	O	1.050852	0.166915	0.066189
O2	O	1.550852	0.666915	0.566189
O3	O	0.822452	0.165084	0.066213
O4	O	1.322452	0.665084	0.566213
O5	O	0.935736	0.051799	0.066195
O6	O	1.435736	0.551799	0.566195
O7	O	0.937568	0.280199	0.066207
O8	O	1.437568	0.780199	0.566207
O9	O	0.935723	0.051798	-0.066382
O10	O	1.435723	0.551798	0.433618
O11	O	0.822438	0.165083	-0.066364
O12	O	1.322438	0.665083	0.433636
O13	O	1.050838	0.166914	-0.066387
O14	O	1.550838	0.666914	0.433613
Zn15	Zn	0.936636	0.165998	-0.087425
Zn16	Zn	1.436636	0.665998	0.412575
Zn17	Zn	0.936654	0.166000	0.087250
Zn18	Zn	1.436654	0.666000	0.587250
O19	O	0.937554	0.280198	-0.066370
O20	O	1.437554	0.780198	0.433630
C21	C	0.793085	0.162727	-0.000073
C22	C	1.293085	0.662727	0.499927
C23	C	0.705600	0.155699	-0.000064
C24	C	1.205600	0.655699	0.499936
C25	C	0.933374	0.022439	-0.000093
C26	C	1.433374	0.522439	0.499907
C27	C	0.926345	-0.065046	-0.000092
C28	C	1.426345	0.434954	0.499908
C29	C	0.659610	0.223517	-0.000061
C30	C	1.159610	0.723517	0.499939
C31	C	0.577409	0.216908	-0.000072
C32	C	1.077409	0.716908	0.499928
C33	C	0.541201	0.142480	-0.000081
C34	C	1.041201	0.642480	0.499919
C35	C	0.587198	0.074657	-0.000086
C36	C	1.087198	0.574657	0.499914
C37	C	0.669397	0.081267	-0.000081
C38	C	1.169397	0.581267	0.499919
C39	C	0.295886	0.115086	-0.000104
C40	C	0.795886	0.615086	0.499896
C41	C	0.213681	0.108481	-0.000107
C42	C	0.713681	0.608481	0.499893
C43	C	0.203898	0.250732	-0.000094
C44	C	0.703898	0.750732	0.499906
C45	C	0.286099	0.257336	-0.000084
C46	C	0.786099	0.757336	0.499916
C47	C	0.332089	0.189512	-0.000094
C48	C	0.832089	0.689512	0.499906
N49	N	0.457178	0.135723	-0.000090
N50	N	0.957178	0.635723	0.499910
N51	N	0.416110	0.196270	-0.000090
N52	N	0.916110	0.696270	0.499910
C53	C	0.994163	-0.111037	-0.000100
C54	C	1.494163	0.388963	0.499900
C55	C	0.987554	-0.193238	-0.000092
C56	C	1.487554	0.306762	0.499908
C57	C	0.913127	-0.229446	-0.000082
C58	C	1.413127	0.270554	0.499918
C59	C	0.845303	-0.183449	-0.000071
C60	C	1.345303	0.316551	0.499929
C61	C	0.851913	-0.101250	-0.000074
C62	C	1.351913	0.398750	0.499926
C63	C	0.885732	-0.474760	-0.000068
C64	C	1.385732	0.025240	0.499932
C65	C	0.879127	-0.556966	-0.000068
C66	C	1.379127	-0.056966	0.499932
C67	C	1.021379	-0.566749	-0.000087
C68	C	1.521379	-0.066749	0.499913
C69	C	1.027982	-0.484547	-0.000094
C70	C	1.527982	0.015453	0.499906
C71	C	0.960159	-0.438558	-0.000080
C72	C	1.460159	0.061442	0.499920
N73	N	0.906369	-0.313468	-0.000076
N74	N	1.406369	0.186532	0.499924
N75	N	0.966917	-0.354537	-0.000080
N76	N	1.466917	0.145463	0.499920
C77	C	1.080205	0.169270	-0.000100
C78	C	1.580205	0.669270	0.499900
C79	C	1.167690	0.176299	-0.000104
C80	C	1.667690	0.676299	0.499896
C81	C	0.939917	0.309559	-0.000080
C82	C	1.439917	0.809559	0.499920
C83	C	0.946945	0.397044	-0.000076
C84	C	1.446945	0.897044	0.499924
N85	N	0.936630	0.165997	-0.206636
N86	N	1.436630	0.665997	0.293364
C87	C	0.987362	0.216762	-0.248352
C88	C	1.487362	0.716762	0.251648
C89	C	0.987370	0.216759	-0.331805
C90	C	1.487370	0.716759	0.168195
C91	C	0.936642	0.165995	-0.373539
C92	C	1.436642	0.665995	0.126461
C93	C	0.885908	0.115225	-0.331817
C94	C	1.385908	0.615225	0.168183
C95	C	0.885904	0.115224	-0.248367
C96	C	1.385904	0.615224	0.251633
C97	C	0.885924	0.115227	-0.668365
C98	C	1.385924	0.615227	-0.168365
C99	C	0.885930	0.115233	-0.751821
C100	C	1.385930	0.615233	-0.251821
C101	C	0.987390	0.216762	-0.751802
C102	C	1.487390	0.716762	-0.251802
C103	C	0.987386	0.216761	-0.668352
C104	C	1.487386	0.716761	-0.168352
C105	C	0.936655	0.165988	-0.626637
C106	C	1.436655	0.665988	-0.126637
C107	C	0.936647	0.165990	-0.536149
C108	C	1.436647	0.665990	-0.036149
C109	C	0.936645	0.165997	-0.464026
C110	C	1.436645	0.665997	0.035974
N111	N	0.936667	0.165995	0.206461
N112	N	1.436667	0.665995	0.706461
H113	H	0.689084	0.284124	-0.000053
H114	H	1.189084	0.784124	0.499947
Br115	Br	1.095177	-0.061905	-0.000126
Br116	Br	1.595177	0.438095	0.499874
H117	H	0.706842	0.026042	-0.000083
H118	H	1.206842	0.526042	0.499917
Br119	Br	0.817044	0.046351	-0.611762
Br120	Br	1.317044	0.546351	-0.111762
Br121	Br	0.817065	0.046327	-0.388456
Br122	Br	1.317065	0.546327	0.111544
Br123	Br	1.079597	-0.255651	-0.000102
Br124	Br	1.579597	0.244349	0.499898
Br125	Br	0.744293	-0.232588	-0.000044
Br126	Br	1.244293	0.267412	0.499956
H127	H	1.088589	-0.455073	-0.000103
H128	H	1.588589	0.044927	0.499897
Br129	Br	0.778112	-0.606105	-0.000062
Br130	Br	1.278112	-0.106105	0.499938
Br131	Br	0.759871	-0.038832	-0.000057
Br132	Br	1.259871	0.461168	0.499943
Br133	Br	1.113419	-0.629167	-0.000106
Br134	Br	1.613419	-0.129167	0.499894
Br135	Br	0.793686	-0.412356	-0.000043
Br136	Br	1.293686	0.087644	0.499957
H137	H	0.184203	0.047870	-0.000113
H138	H	0.684203	0.547870	0.499887
Br139	Br	1.056208	0.285662	-0.191721
Br140	Br	1.556208	0.785662	0.308279
Br141	Br	1.056224	0.285657	-0.388416
Br142	Br	1.556224	0.785657	0.111584
H143	H	0.333322	0.059859	-0.000112
H144	H	0.833322	0.559859	0.499888
H145	H	1.028691	0.258101	-0.634376
H146	H	1.528691	0.758101	-0.134376
H147	H	1.028700	0.258102	-0.785776
H148	H	1.528700	0.758102	-0.285776
H149	H	0.844619	0.073892	-0.785799
H150	H	1.344619	0.573892	-0.285799
Br151	Br	0.817061	0.046315	-0.191751
Br152	Br	1.317061	0.546315	0.308249
Br153	Br	0.514995	0.308951	-0.000065
Br154	Br	1.014995	0.808951	0.499935
H155	H	0.315574	0.317942	-0.000068
H156	H	0.815574	0.817942	0.499932
Br157	Br	0.538059	-0.026353	-0.000106
Br158	Br	1.038059	0.473647	0.499894
H159	H	0.166444	0.305950	-0.000088
H160	H	0.666444	0.805950	0.499912
