data_functionalizedCrystal
_audit_creation_method	'MofGen! by Chris Wilmer'
_symmetry_space_group_name_H-M	'P1'
_symmetry_Int_Tables_number	1
_symmetry_cell_setting	triclinic
loop_
_symmetry_equiv_pos_as_xyz
  x,y,z
_cell_length_a	17.019372
_cell_length_b	17.019294
_cell_length_c	9.730217
_cell_angle_alpha	86.117784
_cell_angle_beta	93.875012
_cell_angle_gamma	83.656821
loop_
_atom_site_label
_atom_site_type_symbol
_atom_site_fract_x
_atom_site_fract_y
_atom_site_fract_z
O1	O	1.046553	0.100471	-0.002424
O2	O	0.816876	0.113292	-0.031103
O3	O	0.938122	-0.007959	-0.002408
O4	O	0.925307	0.221721	-0.031119
O5	O	0.938118	-0.007960	0.226172
O6	O	0.816872	0.113291	0.197477
O7	O	1.046549	0.100470	0.226156
Zn8	Zn	0.931710	0.106880	0.248108
Zn9	Zn	0.931715	0.106882	-0.053055
O10	O	0.925303	0.221720	0.197461
C11	C	0.787486	0.112806	0.079769
C12	C	0.699918	0.111351	0.069585
C13	C	0.204655	0.103095	0.005650
C14	C	0.286935	0.104462	0.015237
C15	C	0.328064	0.105151	0.144630
C16	C	0.286910	0.104464	0.264444
C17	C	0.204633	0.103091	0.254857
C18	C	0.576487	0.109292	0.179812
C19	C	0.658770	0.110667	0.189391
C20	C	0.658789	0.110663	-0.059818
C21	C	0.576510	0.109295	-0.069395
C22	C	0.535364	0.108604	0.050420
C23	C	0.412166	0.106551	0.154432
C24	C	0.451264	0.107198	0.040618
C25	C	0.937634	-0.037348	0.115301
C26	C	0.936177	-0.124916	0.125489
C27	C	0.935496	-0.166051	0.005677
C28	C	0.934122	-0.248331	0.015253
C29	C	0.933434	-0.289474	0.144642
C30	C	0.934112	-0.248333	0.264463
C31	C	0.935481	-0.166055	0.254885
C32	C	0.929296	-0.537902	0.179794
C33	C	0.927929	-0.620187	0.189364
C34	C	0.927937	-0.620178	-0.059848
C35	C	0.929311	-0.537899	-0.069413
C36	C	0.929985	-0.496764	0.050406
C37	C	0.932031	-0.373578	0.154434
C38	C	0.931382	-0.412662	0.040613
C39	C	1.075940	0.100955	0.115281
C40	C	1.163507	0.102411	0.125455
C41	C	0.925791	0.251109	0.079749
C42	C	0.927248	0.338678	0.069552
N43	N	0.931713	0.106879	0.453645
N44	N	0.931719	0.106877	-0.258591
C45	C	1.039120	-0.000458	0.479047
C46	C	1.092828	-0.054124	0.563688
C47	C	1.092836	-0.054124	0.707568
C48	C	1.039128	-0.000455	0.766810
C49	C	0.985420	0.053211	0.682169
C50	C	0.985419	0.053208	0.538287
C51	C	0.878010	0.160543	0.656768
C52	C	0.878004	0.160548	0.512887
C53	C	0.824302	0.214213	0.716010
C54	C	0.770596	0.267884	0.631368
C55	C	0.770590	0.267883	0.487479
C56	C	0.824296	0.214214	0.428246
H57	H	0.417774	0.106634	-0.064733
H58	H	1.136568	-0.097827	0.776484
H59	H	0.936060	-0.132559	-0.099685
O60	O	0.718396	0.319903	0.689078
C61	C	0.669777	0.277673	0.771527
H62	H	0.701272	0.215927	0.804102
H63	H	0.657261	0.310598	0.867334
H64	H	0.611486	0.272346	0.709821
O65	O	0.936167	-0.126219	0.371410
C66	C	0.935241	-0.180171	0.487665
H67	H	0.959240	-0.242115	0.461317
H68	H	0.973900	-0.161444	0.577181
H69	H	0.871837	-0.180582	0.518504
H70	H	0.927387	-0.653679	-0.157398
O71	O	0.931935	-0.372603	-0.085015
C72	C	0.864426	-0.316018	-0.107159
H73	H	0.841867	-0.300692	-0.003453
H74	H	0.880738	-0.260183	-0.164578
H75	H	0.816084	-0.341422	-0.171352
O76	O	1.039260	-0.000542	0.906600
C77	C	1.098163	-0.059435	0.968602
H78	H	1.145168	-0.073216	0.892874
H79	H	1.126874	-0.037229	1.065625
H80	H	1.070078	-0.115480	0.997445
O81	O	0.452221	0.107124	0.280056
C82	C	0.508814	0.039621	0.302228
H83	H	0.524147	0.017052	0.198534
H84	H	0.564644	0.055948	0.359627
H85	H	0.483416	-0.008719	0.366451
H86	H	0.692299	0.111224	-0.157364
O87	O	0.824301	0.214359	0.855756
C88	C	0.840254	0.289230	0.896835
H89	H	0.824026	0.335712	0.806493
H90	H	0.803644	0.305397	0.986852
H91	H	0.905990	0.287124	0.930378
O92	O	0.931271	-0.413625	0.280027
C93	C	0.862188	-0.452196	0.283902
H94	H	0.839207	-0.461502	0.174105
H95	H	0.876592	-0.512089	0.345404
H96	H	0.814904	-0.414188	0.335330
O97	O	0.718387	0.320091	0.405464
C98	C	0.670975	0.367441	0.488612
H99	H	0.703318	0.368315	0.594891
H100	H	0.658857	0.430447	0.438153
H101	H	0.612414	0.341851	0.500028
H102	H	0.543028	0.108733	-0.174760
O103	O	1.039200	-0.000582	0.339307
C104	C	1.098135	-0.059440	0.305168
H105	H	1.111956	-0.106442	0.395278
H106	H	1.075953	-0.088168	0.209688
H107	H	1.154150	-0.031305	0.282933
O108	O	0.933532	-0.288176	-0.101260
C109	C	0.934435	-0.234219	-0.217515
H110	H	0.960344	-0.178853	-0.184447
H111	H	0.972357	-0.263036	-0.296727
H112	H	0.871338	-0.217138	-0.265377
H113	H	0.929872	-0.504405	-0.174776
H114	H	0.824299	0.214212	0.311092
H115	H	0.927365	-0.653683	0.294733
O116	O	0.930009	-0.498081	0.296328
C117	C	0.929102	-0.552041	0.412577
H118	H	0.953073	-0.613986	0.386193
H119	H	0.967795	-0.533334	0.502067
H120	H	0.865708	-0.552438	0.443475
H121	H	0.171174	0.102539	-0.099716
O122	O	0.698827	0.111229	0.315025
C123	C	0.755425	0.043731	0.337183
H124	H	0.770759	0.021171	0.233482
H125	H	0.811253	0.060058	0.394587
H126	H	0.730031	-0.004617	0.401395
H127	H	0.320435	0.105014	-0.082321
H128	H	0.542998	0.108718	0.277376
H129	H	0.320404	0.105020	0.369800
O130	O	0.164776	0.102465	0.371368
C131	C	0.218721	0.103348	0.487633
H132	H	0.274078	0.129291	0.454594
H133	H	0.189885	0.141230	0.566878
H134	H	0.235820	0.040240	0.535444
H135	H	1.136556	-0.097823	0.515440
O136	O	0.933340	-0.288373	0.390060
C137	C	0.864256	-0.326943	0.393932
H138	H	0.841285	-0.336263	0.284135
H139	H	0.878656	-0.386830	0.455455
H140	H	0.816966	-0.288928	0.445335
