data_functionalizedCrystal
_audit_creation_method	'MofGen! by Chris Wilmer'
_symmetry_space_group_name_H-M	'P1'
_symmetry_Int_Tables_number	1
_symmetry_cell_setting	triclinic
loop_
_symmetry_equiv_pos_as_xyz
  x,y,z
_cell_length_a	16.625547
_cell_length_b	12.594516
_cell_length_c	16.625539
_cell_angle_alpha	89.976862
_cell_angle_beta	89.978691
_cell_angle_gamma	90.011753
loop_
_atom_site_label
_atom_site_type_symbol
_atom_site_fract_x
_atom_site_fract_y
_atom_site_fract_z
Zn1	Zn	1.232712	-0.423762	-0.456019
Zn2	Zn	1.232649	-0.601757	-0.321194
Zn3	Zn	1.097882	-0.423793	-0.321190
Zn4	Zn	1.097870	-0.601698	-0.455974
O5	O	1.165278	-0.512752	-0.388594
O6	O	1.345536	-0.447385	-0.438155
O7	O	1.214751	-0.578187	-0.208361
O8	O	1.115800	-0.274843	-0.339092
O9	O	1.345490	-0.578157	-0.339100
O10	O	1.214859	-0.274820	-0.438151
O11	O	1.115738	-0.447438	-0.208358
O12	O	0.985048	-0.447381	-0.339049
O13	O	1.115778	-0.578057	-0.568813
O14	O	0.985039	-0.578087	-0.438074
O15	O	1.214846	-0.447327	-0.568846
O16	O	1.214738	-0.750695	-0.339056
O17	O	1.115716	-0.750652	-0.438078
C18	C	0.955787	-0.512732	-0.388556
C19	C	0.866166	-0.512748	-0.388559
C20	C	0.793384	-0.512751	-0.388569
C21	C	0.702075	-0.512756	-0.388589
C22	C	0.629299	-0.512766	-0.388610
C23	C	0.537985	-0.512773	-0.388629
C24	C	1.165241	-0.789293	-0.388580
C25	C	1.165299	-0.907599	-0.388601
C26	C	1.219219	-0.976837	-0.334801
C27	C	1.238918	-1.047541	-0.408397
C28	C	1.145700	-1.047693	-0.315052
C29	C	1.185035	-0.976745	-0.462236
C30	C	1.091783	-0.976891	-0.368842
C31	C	1.111454	-1.047563	-0.442489
C32	C	1.375587	-0.512774	-0.388633
C33	C	1.465208	-0.512783	-0.388650
C34	C	1.165318	-0.512682	-0.598903
C35	C	1.165335	-0.512652	-0.688525
C36	C	1.165338	-0.235132	-0.388626
C37	C	1.165363	-0.116826	-0.388640
C38	C	1.165348	-0.512629	-0.761307
C39	C	1.165367	-0.512589	-0.852616
C40	C	1.165386	-0.512552	-0.925392
C41	C	1.165406	-0.512513	-1.016706
C42	C	1.165285	-0.512746	-0.179104
C43	C	1.165425	-0.512476	-0.089483
H44	H	1.301116	-1.078578	-0.425131
O45	O	1.056988	-1.084261	-0.496793
C46	C	0.979730	-1.046692	-0.476469
H47	H	0.985561	-0.971798	-0.438430
H48	H	0.944886	-1.027711	-0.533739
H49	H	0.946272	-1.110187	-0.440804
O50	O	1.273732	-0.939828	-0.280662
C51	C	1.351191	-0.975849	-0.301811
H52	H	1.352676	-0.995646	-0.368697
H53	H	1.397177	-0.911084	-0.288397
H54	H	1.366356	-1.049940	-0.265442
O55	O	1.204956	-0.939556	-0.536424
C56	C	1.204694	-0.827615	-0.535504
H57	H	1.213692	-0.798362	-0.471254
H58	H	1.255522	-0.796629	-0.575126
H59	H	1.144657	-0.797337	-0.559387
O60	O	1.017629	-0.939877	-0.348714
C61	C	0.997154	-0.975986	-0.271077
H62	H	1.054319	-0.995852	-0.236351
H63	H	0.962531	-0.911249	-0.237958
H64	H	0.958056	-1.050055	-0.276140
H65	H	1.129098	-1.078856	-0.252837
