data_functionalizedCrystal
_audit_creation_method	'MofGen! by Chris Wilmer'
_symmetry_space_group_name_H-M	'P1'
_symmetry_Int_Tables_number	1
_symmetry_cell_setting	triclinic
loop_
_symmetry_equiv_pos_as_xyz
  x,y,z
_cell_length_a	21.295417
_cell_length_b	12.759401
_cell_length_c	12.759393
_cell_angle_alpha	89.980324
_cell_angle_beta	89.961905
_cell_angle_gamma	90.030933
loop_
_atom_site_label
_atom_site_type_symbol
_atom_site_fract_x
_atom_site_fract_y
_atom_site_fract_z
Zn1	Zn	-0.250572	1.606151	-0.593929
Zn2	Zn	-0.355854	1.605994	-0.418226
Zn3	Zn	-0.250603	1.430450	-0.418268
Zn4	Zn	-0.355808	1.430393	-0.593867
O5	O	-0.303209	1.518247	-0.506073
O6	O	-0.264544	1.753151	-0.570630
O7	O	-0.341924	1.582665	-0.271210
O8	O	-0.162509	1.453846	-0.441614
O9	O	-0.341894	1.753035	-0.441542
O10	O	-0.162486	1.582933	-0.570671
O11	O	-0.264597	1.453694	-0.271242
O12	O	-0.264553	1.283421	-0.441553
O13	O	-0.341815	1.453750	-0.740896
O14	O	-0.341846	1.283380	-0.570565
O15	O	-0.264499	1.582878	-0.740942
O16	O	-0.443937	1.582610	-0.441482
O17	O	-0.443903	1.453597	-0.570524
C18	C	-0.303198	1.245279	-0.506058
C19	C	-0.303209	1.128503	-0.506076
C20	C	-0.263005	1.073702	-0.573396
C21	C	-0.263012	0.963978	-0.573403
C22	C	-0.343430	0.963866	-0.438767
C23	C	-0.343420	1.073588	-0.438756
C24	C	-0.466761	1.518109	-0.506014
C25	C	-0.536729	1.518146	-0.506025
C26	C	-0.569592	1.585383	-0.438901
C27	C	-0.635335	1.585432	-0.438925
C28	C	-0.668211	1.518226	-0.506061
C29	C	-0.635340	1.450985	-0.573198
C30	C	-0.569599	1.450945	-0.573180
N31	N	-0.771477	1.426319	-0.514065
N32	N	-0.833928	1.426360	-0.514076
C33	C	-0.866286	1.518344	-0.506121
N34	N	-0.833833	1.610287	-0.498134
N35	N	-0.771376	1.610245	-0.498117
C36	C	-0.739497	1.518262	-0.506089
C37	C	-0.970435	1.585639	-0.439019
C38	C	-1.036178	1.585690	-0.439050
C39	C	-1.036183	1.451233	-0.573318
C40	C	-0.970440	1.451192	-0.573293
C41	C	-0.937570	1.518393	-0.506138
C42	C	-0.139019	1.518414	-0.506154
C43	C	-0.069051	1.518485	-0.506189
C44	C	-0.303149	1.518325	-0.780106
C45	C	-0.303123	1.518359	-0.896883
C46	C	-0.303220	1.792280	-0.506088
C47	C	-0.303225	1.909057	-0.506095
C48	C	-0.262858	1.585601	-0.951770
C49	C	-0.262831	1.585619	-1.061494
C50	C	-0.343339	1.451149	-1.061434
C51	C	-0.343363	1.451127	-0.951712
C52	C	-0.303224	1.518229	-0.233105
C53	C	-0.303072	1.518399	-0.116329
H54	H	-0.542831	1.640105	-0.384222
F55	F	-0.386165	1.379604	-1.119796
H56	H	-0.230090	1.640343	-0.907132
H57	H	-0.376151	1.396363	-0.907021
H58	H	-0.662112	1.396267	-0.627862
H59	H	-0.542841	1.396192	-0.627841
F60	F	-0.935450	1.657159	-0.367548
H61	H	-0.230042	1.640373	-1.106179
H62	H	-0.376170	0.919140	-0.383959
H63	H	-1.062935	1.640449	-0.384392
H64	H	-0.662097	1.640188	-0.384265
H65	H	-0.230260	1.118410	-0.628210
F66	F	-0.935463	1.379624	-0.644732
F67	F	-1.071168	1.379713	-0.644776
H68	H	-0.376160	1.118208	-0.383930
H69	H	-0.230273	0.919363	-0.628220
