data_functionalizedCrystal
_audit_creation_method	'MofGen! by Chris Wilmer'
_symmetry_space_group_name_H-M	'P1'
_symmetry_Int_Tables_number	1
_symmetry_cell_setting	triclinic
loop_
_symmetry_equiv_pos_as_xyz
  x,y,z
_cell_length_a	16.120490
_cell_length_b	25.639240
_cell_length_c	16.120297
_cell_angle_alpha	87.134364
_cell_angle_beta	90.129683
_cell_angle_gamma	92.863992
loop_
_atom_site_label
_atom_site_type_symbol
_atom_site_fract_x
_atom_site_fract_y
_atom_site_fract_z
Zn1	Zn	1.247299	0.264923	-0.534483
Zn2	Zn	1.254203	0.348155	-0.395409
Zn3	Zn	1.115293	0.256084	-0.388406
Zn4	Zn	1.108159	0.347668	-0.527382
O5	O	1.181238	0.304208	-0.461420
O6	O	1.364579	0.279867	-0.521937
O7	O	1.241652	0.332446	-0.278115
O8	O	1.132900	0.184096	-0.407824
O9	O	1.369652	0.341017	-0.419760
O10	O	1.229884	0.190590	-0.515147
O11	O	1.139595	0.264802	-0.272970
O12	O	0.997982	0.264330	-0.400939
O13	O	1.120741	0.340188	-0.644689
O14	O	0.992741	0.331616	-0.503044
O15	O	1.222966	0.279395	-0.649906
O16	O	1.234734	0.421251	-0.412875
O17	O	1.127436	0.420894	-0.509835
C18	C	0.965189	0.296962	-0.450461
C19	C	0.872761	0.293875	-0.445793
C20	C	0.659785	0.320214	-0.485638
C21	C	0.703540	0.288244	-0.437268
C22	C	0.797703	0.291378	-0.442013
C23	C	0.565613	0.317081	-0.480894
C24	C	1.181081	0.440043	-0.461363
C25	C	1.181089	0.498158	-0.461371
C26	C	1.125303	0.749180	-0.511859
C27	C	1.125279	0.694575	-0.511852
O28	O	1.077744	0.666189	-0.554761
N29	N	1.181170	0.667435	-0.461408
C30	C	1.237092	0.694904	-0.410975
O31	O	1.284630	0.666806	-0.368068
C32	C	1.237119	0.749509	-0.410987
C33	C	1.181220	0.776645	-0.461428
C34	C	1.069409	0.776317	-0.562296
C35	C	1.069431	0.830918	-0.562302
C36	C	1.125348	0.858383	-0.511871
C37	C	1.181242	0.831247	-0.461434
C38	C	1.293045	0.776977	-0.360559
C39	C	1.293068	0.831585	-0.360576
C40	C	1.237168	0.858722	-0.411017
C41	C	1.237182	0.913313	-0.411009
N42	N	1.181292	0.940453	-0.461452
C43	C	1.125375	0.912988	-0.511884
C44	C	1.237033	0.580231	-0.410953
C45	C	1.237003	0.525627	-0.410936
C46	C	1.125191	0.525302	-0.511814
C47	C	1.125218	0.579906	-0.511827
C48	C	1.181143	0.607371	-0.461397
C49	C	1.125426	1.027655	-0.511892
C50	C	1.125451	1.082261	-0.511891
C51	C	1.237266	1.082582	-0.411016
C52	C	1.237238	1.027980	-0.411014
C53	C	1.181315	1.000518	-0.461458
O54	O	1.284695	0.941734	-0.368124
O55	O	1.077853	0.941093	-0.554791
C56	C	1.398131	0.311482	-0.472422
C57	C	1.490558	0.314582	-0.477110
C58	C	1.170288	0.310723	-0.678313
C59	C	1.165621	0.313500	-0.770740
C60	C	1.181386	1.167841	-0.461479
C61	C	1.181368	1.109726	-0.461460
C62	C	1.157070	0.318557	-0.939964
C63	C	1.205570	0.289707	-0.983736
C64	C	1.200813	0.292521	-1.077898
C65	C	1.161827	0.315744	-0.845794
C66	C	1.192195	0.297681	-0.245373
C67	C	1.197022	0.294763	-0.152955
H68	H	1.079889	1.005301	-0.552970
N69	N	0.701488	0.357512	-0.542045
N70	N	0.660409	0.387578	-0.587520
H71	H	0.689869	0.413922	-0.627355
H72	H	1.282789	1.104953	-0.369953
H73	H	1.111979	0.345367	-0.973205
H74	H	0.670281	0.258520	-0.392295
H75	H	1.250665	0.262895	-0.950493
H76	H	1.079929	1.104353	-0.552968
H77	H	1.023911	0.853008	-0.603375
H78	H	1.079703	0.601998	-0.552905
N79	N	1.012284	0.748276	-0.613824
N80	N	0.962390	0.772522	-0.658851
H81	H	0.922038	0.752722	-0.695243
N82	N	1.068081	0.497233	-0.563330
N83	N	1.068077	0.448480	-0.563312
H84	H	1.027747	0.428655	-0.599694
H85	H	1.282513	0.503536	-0.369853
H86	H	1.282573	0.602589	-0.369880
H87	H	1.338613	0.853944	-0.319512
N88	N	1.350151	0.749275	-0.309027
N89	N	1.400071	0.773815	-0.264013
H90	H	1.440406	0.754251	-0.227616
N91	N	1.294330	1.000265	-0.359473
N92	N	1.344247	1.024796	-0.314444
H93	H	1.384574	1.005227	-0.278046
