data_functionalizedCrystal
_audit_creation_method	'MofGen! by Chris Wilmer'
_symmetry_space_group_name_H-M	'P1'
_symmetry_Int_Tables_number	1
_symmetry_cell_setting	triclinic
loop_
_symmetry_equiv_pos_as_xyz
  x,y,z
_cell_length_a	19.288864
_cell_length_b	17.699083
_cell_length_c	17.766277
_cell_angle_alpha	89.992740
_cell_angle_beta	89.976791
_cell_angle_gamma	83.209630
loop_
_atom_site_label
_atom_site_type_symbol
_atom_site_fract_x
_atom_site_fract_y
_atom_site_fract_z
O1	O	0.921465	0.094417	-0.062837
O2	O	0.719219	0.107154	-0.062786
O3	O	0.826056	-0.009412	-0.062806
O4	O	0.814628	0.210983	-0.062817
O5	O	0.826037	-0.009417	0.062382
O6	O	0.719201	0.107148	0.062403
O7	O	0.921446	0.094411	0.062351
Cu8	Cu	0.820322	0.100779	0.073808
Cu9	Cu	0.820344	0.100786	-0.074242
O10	O	0.814609	0.210977	0.062372
C11	C	0.693333	0.106741	-0.000185
C12	C	0.616228	0.105511	-0.000165
C13	C	0.571613	0.173906	-0.000180
C14	C	0.499164	0.172751	-0.000188
C15	C	0.471334	0.103196	-0.000197
C16	C	0.515959	0.034791	-0.000177
C17	C	0.588406	0.035949	-0.000162
C18	C	0.363014	0.048520	-0.044079
C19	C	0.290568	0.047365	-0.044099
C20	C	0.247884	0.099622	-0.000242
C21	C	0.277654	0.153047	0.043625
C22	C	0.350101	0.154204	0.043641
C23	C	0.392779	0.101932	-0.000213
C24	C	0.124712	0.166769	-0.000265
C25	C	0.052262	0.165610	-0.000269
C26	C	0.069059	0.027649	-0.000265
C27	C	0.141507	0.028809	-0.000254
C28	C	0.169329	0.098371	-0.000258
C29	C	0.825637	-0.037611	-0.000212
C30	C	0.824409	-0.121627	-0.000211
C31	C	0.887120	-0.170336	-0.000226
C32	C	0.885961	-0.249278	-0.000232
C33	C	0.822091	-0.279509	-0.000219
C34	C	0.759375	-0.230794	-0.000206
C35	C	0.760535	-0.151854	-0.000205
C36	C	0.754699	-0.549150	-0.000211
C37	C	0.753545	-0.628097	-0.000210
C38	C	0.880126	-0.646575	-0.000238
C39	C	0.881285	-0.567635	-0.000237
C40	C	0.818570	-0.518926	-0.000229
C41	C	0.819827	-0.433329	-0.000223
C42	C	0.820834	-0.365105	-0.000219
C43	C	0.947332	0.094824	-0.000251
C44	C	1.024437	0.096054	-0.000276
C45	C	0.815028	0.239176	-0.000224
C46	C	0.816257	0.323193	-0.000230
N47	N	0.820311	0.100774	0.177938
N48	N	0.820360	0.100786	-0.178372
C49	C	0.867634	0.049184	0.217316
C50	C	0.867638	0.049180	0.296118
C51	C	0.820326	0.100780	0.335539
C52	C	0.772994	0.152374	0.296151
C53	C	0.772987	0.152371	0.217351
C54	C	0.811109	0.169742	0.460375
C55	C	0.811121	0.169746	0.539174
C56	C	0.820344	0.100789	0.578585
C57	C	0.829570	0.031825	0.539188
C58	C	0.829563	0.031822	0.460388
C59	C	0.820328	0.100789	0.420984
C60	C	0.867674	0.049191	0.703409
C61	C	0.867673	0.049186	0.782212
C62	C	0.773033	0.152386	0.782244
C63	C	0.773030	0.152384	0.703442
C64	C	0.820355	0.100787	0.664029
H65	H	0.046401	-0.028984	-0.000319
C66	C	0.249242	0.201034	0.167663
C67	C	0.230671	0.210491	0.091767
H68	H	0.220213	0.236501	0.197357
H69	H	0.243477	0.150775	0.183100
H70	H	0.296628	0.209426	0.174005
H71	H	0.183285	0.202094	0.085424
H72	H	0.236429	0.260762	0.076326
H73	H	0.015936	0.221308	-0.000277
H74	H	0.837081	-0.024326	0.571275
C75	C	0.100835	0.303020	-0.000261
C76	C	0.155299	0.243229	-0.000257
H77	H	0.119719	0.350223	-0.000251
H78	H	0.072951	0.299704	-0.043919
H79	H	0.072905	0.299689	0.043393
H80	H	0.183227	0.246557	-0.043915
H81	H	0.183195	0.246546	0.043405
H82	H	0.937027	-0.288934	-0.000243
C83	C	0.547727	0.310158	-0.000183
C84	C	0.602193	0.250368	-0.000172
H85	H	0.566609	0.357361	-0.000171
H86	H	0.519848	0.306840	-0.043844
H87	H	0.519793	0.306826	0.043469
H88	H	0.630125	0.253696	-0.043826
H89	H	0.630084	0.253688	0.043494
H90	H	0.906175	0.007168	0.328185
C91	C	0.989542	-0.559071	-0.064623
C92	C	0.951492	-0.534404	-0.000256
H93	H	1.032883	-0.538552	-0.064638
H94	H	0.997827	-0.613049	-0.064619
H95	H	0.963723	-0.542327	-0.108266
H96	H	0.977309	-0.551153	0.043387
H97	H	0.943210	-0.480415	-0.000253
C98	C	0.645309	-0.636654	-0.064556
C99	C	0.683335	-0.661330	-0.000204
H100	H	0.601969	-0.657176	-0.064553
H101	H	0.637021	-0.582676	-0.064550
H102	H	0.671145	-0.653387	-0.108209
H103	H	0.657500	-0.644591	0.043450
H104	H	0.691621	-0.715319	-0.000203
H105	H	0.266336	0.003866	-0.079822
C106	C	0.682558	-0.449661	0.064155
C107	C	0.685767	-0.495611	-0.000197
H108	H	0.640002	-0.416602	0.064160
H109	H	0.684726	-0.480843	0.107804
H110	H	0.720767	-0.420364	0.064137
H111	H	0.647561	-0.524913	-0.000175
H112	H	0.683592	-0.464425	-0.043856
C113	C	0.368501	-0.056045	-0.130816
C114	C	0.409928	-0.008920	-0.092299
H115	H	0.397464	-0.091499	-0.160588
H116	H	0.343416	-0.082670	-0.095559
H117	H	0.336535	-0.025923	-0.162433
H118	H	0.441891	-0.039041	-0.060678
H119	H	0.435024	0.017708	-0.127561
C120	C	0.908522	-0.082003	0.193361
C121	C	0.919642	-0.007659	0.174130
H122	H	0.940627	-0.117131	0.166735
H123	H	0.915221	-0.089251	0.245947
H124	H	0.862179	-0.090048	0.180429
H125	H	0.965984	0.000388	0.187067
H126	H	0.912950	-0.000408	0.121532
H127	H	0.931192	-0.686243	-0.000249
C128	C	0.701391	-0.343597	-0.000186
C129	C	0.689167	-0.264022	-0.000188
H130	H	0.658046	-0.364107	-0.000168
H131	H	0.727207	-0.360323	-0.043846
H132	H	0.727202	-0.360327	0.043466
H133	H	0.663361	-0.247292	-0.043843
H134	H	0.663340	-0.247289	0.043477
H135	H	0.177834	-0.026886	-0.000246
H136	H	0.709469	-0.112195	-0.000193
H137	H	0.493296	-0.021841	-0.000195
H138	H	0.734508	0.194397	0.814340
C139	C	0.847789	-0.104508	0.468307
C140	C	0.839693	-0.043978	0.417082
H141	H	0.854037	-0.151303	0.441570
H142	H	0.887471	-0.100422	0.499015
H143	H	0.807345	-0.102854	0.499068
H144	H	0.880140	-0.045628	0.386324
H145	H	0.800008	-0.048065	0.386360
C146	C	0.908708	-0.081942	0.679072
C147	C	0.919683	-0.007503	0.660048
H148	H	0.940814	-0.116934	0.652291
H149	H	0.915504	-0.089350	0.731626
H150	H	0.862364	-0.090030	0.666188
H151	H	0.966025	0.000586	0.672937
H152	H	0.912893	-0.000092	0.607482
H153	H	0.906207	0.007171	0.814274
H154	H	0.734450	0.194382	0.185289
C155	C	0.679493	0.254396	0.711392
C156	C	0.721019	0.209103	0.660153
H157	H	0.647384	0.289415	0.684665
H158	H	0.654566	0.222962	0.742143
H159	H	0.708367	0.281539	0.742109
H160	H	0.692144	0.181955	0.629440
H161	H	0.745947	0.240541	0.629389
C162	C	0.736329	0.285489	0.563455
C163	C	0.800977	0.245549	0.582473
H164	H	0.730065	0.332286	0.590188
H165	H	0.735008	0.295350	0.510890
H166	H	0.700069	0.255919	0.576402
H167	H	0.837238	0.275117	0.569521
H168	H	0.802304	0.235690	0.635049
C169	C	0.679655	-0.042776	-0.064499
C170	C	0.637454	-0.039236	-0.000152
H171	H	0.709939	-0.089190	-0.064491
H172	H	0.651065	-0.040362	-0.108151
H173	H	0.706591	-0.001180	-0.064487
H174	H	0.610514	-0.080828	-0.000167
H175	H	0.666048	-0.041656	0.043511
C176	C	1.012127	-0.196539	-0.000267
C177	C	0.957329	-0.137111	-0.000247
H178	H	1.055471	-0.176027	-0.000287
H179	H	1.009038	-0.226946	0.043388
H180	H	1.009039	-0.226940	-0.043924
H181	H	0.960414	-0.106712	0.043414
H182	H	0.960419	-0.106691	-0.043906
H183	H	0.734471	0.194386	0.328252
C184	C	0.407978	0.251469	-0.064575
C185	C	0.450108	0.247934	-0.000210
H186	H	0.377691	0.297881	-0.064585
H187	H	0.436616	0.249056	-0.108215
H188	H	0.381045	0.209870	-0.064569
H189	H	0.477045	0.289529	-0.000220
H190	H	0.421467	0.250353	0.043441
C191	C	0.859462	0.251544	0.371709
C192	C	0.800972	0.245542	0.417052
H193	H	0.853201	0.298336	0.344960
H194	H	0.899901	0.249905	0.402430
H195	H	0.864943	0.210466	0.336977
H196	H	0.795494	0.286617	0.451787
H197	H	0.760522	0.247188	0.386328
H198	H	0.374336	0.197702	0.079362
