data_functionalizedCrystal
_audit_creation_method	'MofGen! by Chris Wilmer'
_symmetry_space_group_name_H-M	'P1'
_symmetry_Int_Tables_number	1
_symmetry_cell_setting	triclinic
loop_
_symmetry_equiv_pos_as_xyz
  x,y,z
_cell_length_a	15.995350
_cell_length_b	12.837942
_cell_length_c	11.295483
_cell_angle_alpha	94.530417
_cell_angle_beta	85.898253
_cell_angle_gamma	89.160658
loop_
_atom_site_label
_atom_site_type_symbol
_atom_site_fract_x
_atom_site_fract_y
_atom_site_fract_z
O1	O	-1.126724	-0.126645	0.098922
O2	O	-0.884267	-0.143143	0.098946
O3	O	-1.000119	0.016009	0.098927
O4	O	-1.010872	-0.285796	0.098941
O5	O	-0.989941	0.002051	-0.099122
O6	O	-0.874089	-0.157100	-0.099103
O7	O	-1.116547	-0.140602	-0.099127
Cu8	Cu	-0.994389	-0.150125	-0.117198
Cu9	Cu	-1.006425	-0.133619	0.117018
O10	O	-1.000695	-0.299753	-0.099108
C11	C	-0.991398	0.047651	-0.000096
C12	C	-0.980565	0.162728	-0.000093
C13	C	-0.847929	-0.149439	-0.000075
C14	C	-0.754816	-0.147393	-0.000066
C15	C	-1.152885	-0.134305	-0.000103
C16	C	-1.245998	-0.136350	-0.000104
C17	C	-0.416481	-0.140051	-0.000091
C18	C	-0.454849	-0.026737	-0.000538
C19	C	-0.551725	-0.028750	-0.000083
C20	C	-0.584333	-0.143693	-0.000079
C21	C	-0.553518	-0.191629	0.113014
C22	C	-0.456659	-0.188775	0.113101
C23	C	-0.444934	-0.206989	-0.112118
C24	C	-0.541801	-0.207067	-0.113605
C25	C	-0.679196	-0.145757	-0.000069
C26	C	-0.321619	-0.137990	-0.000094
C27	C	-1.009416	-0.331395	-0.000082
C28	C	-1.020249	-0.446472	-0.000077
N29	N	-0.985930	-0.161734	-0.281933
C30	C	-1.110803	0.403687	-0.000081
C31	C	-1.100628	0.511813	-0.000078
C32	C	-0.950041	0.487109	-0.000075
C33	C	-0.960216	0.378983	-0.000078
C34	C	-1.040599	0.337276	-0.000083
C35	C	-1.050773	0.229147	-0.000095
C36	C	-0.900187	0.204446	-0.000083
C37	C	-0.890012	0.312572	-0.000080
C38	C	-1.075780	-0.038379	-0.531237
C39	C	-1.069394	-0.047159	-0.655900
C40	C	-0.966767	-0.188069	-0.655923
C41	C	-0.973153	-0.179289	-0.531261
C42	C	-1.027662	-0.104442	-0.468922
C43	C	-1.034052	-0.095668	-0.344257
C44	C	-0.931422	-0.236572	-0.344283
C45	C	-0.925036	-0.245352	-0.468945
N46	N	-1.014890	-0.122002	0.281753
H47	H	-0.572482	0.009482	-0.081154
C48	C	-1.199216	0.357800	-0.000096
H49	H	-1.195220	0.283892	-0.000107
H50	H	-1.232038	0.385457	0.068962
H51	H	-1.224930	0.375730	-0.069175
H52	H	-0.922381	-0.249000	-0.706696
C53	C	-0.878490	-0.309249	-0.275739
H54	H	-0.845119	-0.355085	-0.330725
H55	H	-0.843151	-0.268517	-0.227110
H56	H	-0.914554	-0.349000	-0.227109
C57	C	-1.094006	-0.013338	-0.275686
H58	H	-1.121741	0.024757	-0.330658
H59	H	-1.134330	-0.047219	-0.227045
H60	H	-1.062925	0.033261	-0.227066
H61	H	-1.108575	0.006638	-0.706634
C62	C	-1.135738	0.043943	-0.462662
H63	H	-1.163480	0.082034	-0.517630
H64	H	-1.176057	0.010053	-0.414020
H65	H	-1.104661	0.090546	-0.414041
H66	H	-0.884597	0.521087	-0.000059
C67	C	-0.801598	0.358455	-0.000083
H68	H	-0.805591	0.432362	-0.000089
H69	H	-0.775869	0.340521	0.068976
H70	H	-0.768789	0.330797	-0.069161
H71	H	-1.157795	0.565882	-0.000073
H72	H	-0.843022	0.150361	-0.000094
C73	C	-0.865084	-0.327680	-0.537524
H74	H	-0.868176	-0.323454	-0.620694
H75	H	-0.809350	-0.314956	-0.517106
H76	H	-0.880756	-0.395433	-0.517091
H77	H	-0.428544	0.012855	-0.081642
H78	H	-0.580226	0.021215	0.081124
C79	C	-0.429120	0.041876	0.108408
H80	H	-0.452561	0.110203	0.107452
H81	H	-0.449177	0.012259	0.179231
H82	H	-0.369745	0.045509	0.105741
C83	C	-0.433391	-0.125651	0.227295
H84	H	-0.374109	-0.123358	0.228358
H85	H	-0.455778	-0.056554	0.229056
H86	H	-0.455926	-0.158111	0.294928
C87	C	-0.422412	-0.300696	0.120049
H88	H	-0.363039	-0.299712	0.120141
H89	H	-0.445202	-0.327629	0.191108
H90	H	-0.437859	-0.343789	0.053168
C91	C	-0.582000	-0.305301	0.118723
H92	H	-0.562700	-0.332767	0.187768
H93	H	-0.641470	-0.307032	0.122120
H94	H	-0.559389	-0.346236	0.049806
C95	C	-0.593496	-0.131159	0.226715
H96	H	-0.628968	-0.076691	0.205507
H97	H	-0.625532	-0.177444	0.272475
H98	H	-0.550644	-0.102014	0.272299
H99	H	-1.116225	0.195192	-0.000103
H100	H	-0.561562	-0.172152	-0.197271
C101	C	-0.407250	-0.165096	-0.227922
H102	H	-0.373810	-0.106380	-0.209028
H103	H	-0.373501	-0.218228	-0.272075
H104	H	-0.451196	-0.144807	-0.274095
C105	C	-0.410983	-0.319955	-0.113160
H106	H	-0.428387	-0.360023	-0.181050
H107	H	-0.351487	-0.319767	-0.116070
H108	H	-0.432145	-0.349770	-0.042998
H109	H	-0.563503	-0.291368	-0.120433
