data_functionalizedCrystal
_audit_creation_method	'MofGen! by Chris Wilmer'
_symmetry_space_group_name_H-M	'P1'
_symmetry_Int_Tables_number	1
_symmetry_cell_setting	triclinic
loop_
_symmetry_equiv_pos_as_xyz
  x,y,z
_cell_length_a	10.686154
_cell_length_b	11.169416
_cell_length_c	11.169409
_cell_angle_alpha	89.972049
_cell_angle_beta	85.654236
_cell_angle_gamma	85.616470
loop_
_atom_site_label
_atom_site_type_symbol
_atom_site_fract_x
_atom_site_fract_y
_atom_site_fract_z
Zn1	Zn	-1.929201	-0.336868	-0.538128
Zn2	Zn	-1.429201	0.163132	-0.038128
Zn3	Zn	-1.929102	-0.537615	-0.337468
Zn4	Zn	-1.429102	-0.037615	0.162532
Zn5	Zn	-1.718182	-0.352343	-0.352825
Zn6	Zn	-1.218182	0.147657	0.147175
Zn7	Zn	-1.718212	-0.552911	-0.553466
Zn8	Zn	-1.218212	-0.052911	-0.053466
O9	O	-1.823674	-0.444934	-0.445472
O10	O	-1.323674	0.055066	0.054528
O11	O	-2.105758	-0.350619	-0.498664
O12	O	-1.605758	0.149381	0.001336
O13	O	-1.901068	-0.513114	-0.171559
O14	O	-1.401068	-0.013114	0.328441
O15	O	-1.746203	-0.182338	-0.377415
O16	O	-1.246203	0.317662	0.122585
O17	O	-2.105685	-0.498108	-0.351240
O18	O	-1.605685	0.001892	0.148760
O19	O	-1.901238	-0.170969	-0.513556
O20	O	-1.401238	0.329031	-0.013556
O21	O	-1.746107	-0.376995	-0.182842
O22	O	-1.246107	0.123005	0.317158
O23	O	-1.541616	-0.391827	-0.392287
O24	O	-1.041616	0.108173	0.107713
O25	O	-1.746255	-0.524177	-0.719377
O26	O	-1.246255	-0.024177	-0.219377
O27	O	-1.541638	-0.539183	-0.539696
O28	O	-1.041638	-0.039183	-0.039696
O29	O	-1.901267	-0.365451	-0.708109
O30	O	-1.401267	0.134549	-0.208109
O31	O	-1.901097	-0.707596	-0.366112
O32	O	-1.401097	-0.207596	0.133888
O33	O	-1.746158	-0.718834	-0.524805
O34	O	-1.246158	-0.218834	-0.024805
C35	C	-1.495845	-0.468845	-0.469323
C36	C	-0.995845	0.031155	0.030677
C37	C	-1.355598	-0.479103	-0.479555
C38	C	-0.855598	0.020897	0.020445
C39	C	-1.823654	-0.756760	-0.445480
C40	C	-1.323654	-0.256760	0.054520
C41	C	-1.823761	-0.890152	-0.445515
C42	C	-1.323761	-0.390152	0.054485
C43	C	-1.823775	-0.444794	-0.758507
C44	C	-1.323775	0.055206	-0.258507
C45	C	-1.823818	-0.444734	-0.891904
C46	C	-1.323818	0.055266	-0.391904
C47	C	-1.152784	-0.420919	-0.421520
C48	C	-0.652784	0.079081	0.078480
C49	C	-1.293031	-0.410656	-0.411293
C50	C	-0.793031	0.089344	0.088707
C51	C	-1.823729	-0.131888	-0.445488
C52	C	-1.323729	0.368112	0.054512
C53	C	-1.823752	0.001514	-0.445494
C54	C	-1.323752	0.501514	0.054506
C55	C	-1.823646	-0.444982	-0.133649
C56	C	-1.323646	0.055018	0.366351
C57	C	-1.823847	-0.444686	-0.000235
C58	C	-1.323847	0.055314	0.499765
H59	H	-1.301864	-0.545561	-0.545823
H60	H	-0.801864	-0.045561	-0.045823
H61	H	-1.346759	-0.344209	-0.345022
H62	H	-0.846759	0.155791	0.154978
