data_functionalizedCrystal
_audit_creation_method	'MofGen! by Chris Wilmer'
_symmetry_space_group_name_H-M	'P1'
_symmetry_Int_Tables_number	1
_symmetry_cell_setting	triclinic
loop_
_symmetry_equiv_pos_as_xyz
  x,y,z
_cell_length_a	10.685661
_cell_length_b	10.685194
_cell_length_c	12.759393
_cell_angle_alpha	94.402858
_cell_angle_beta	94.385998
_cell_angle_gamma	89.666250
loop_
_atom_site_label
_atom_site_type_symbol
_atom_site_fract_x
_atom_site_fract_y
_atom_site_fract_z
Zn1	Zn	1.879747	-0.646633	0.672492
Zn2	Zn	1.863558	-0.856458	0.482381
Zn3	Zn	1.669946	-0.630592	0.484484
Zn4	Zn	1.653887	-0.840268	0.645693
O5	O	1.766785	-0.743488	0.571263
O6	O	2.053150	-0.687955	0.657608
O7	O	1.837821	-0.826559	0.335631
O8	O	1.711272	-0.457157	0.521519
O9	O	2.041257	-0.842113	0.517935
O10	O	1.865412	-0.468942	0.659648
O11	O	1.695575	-0.660616	0.337177
O12	O	1.492265	-0.644918	0.495534
O13	O	1.683902	-0.814520	0.796277
O14	O	1.480467	-0.798966	0.613973
O15	O	1.849840	-0.672256	0.815966
O16	O	1.822249	-1.029874	0.491949
O17	O	1.668204	-1.017979	0.611934
C18	C	1.440847	-0.718445	0.552074
C19	C	1.301408	-0.707762	0.543888
C20	C	1.741762	-1.069450	0.548830
C21	C	1.731171	-1.208907	0.539275
C22	C	2.093994	-0.768629	0.590526
C23	C	2.233432	-0.779343	0.598735
C24	C	1.766885	-0.743371	0.845310
C25	C	1.766928	-0.743322	0.962093
C26	C	1.791939	-0.416255	0.593808
C27	C	1.802659	-0.276808	0.603415
C28	C	1.766763	-0.743519	0.298292
C29	C	1.766991	-0.743234	0.181548
C30	C	1.853369	-0.669187	1.136945
C31	C	1.853341	-0.669234	1.027217
C32	C	1.680546	-0.817377	1.006702
C33	C	1.680580	-0.817336	1.116429
H34	H	1.252924	-0.638298	0.490668
H35	H	1.871966	-1.228254	0.665643
C36	C	1.637529	-1.274498	0.455211
H37	H	1.642453	-1.362768	0.459593
H38	H	1.554836	-1.246661	0.467011
H39	H	1.657548	-1.254544	0.387160
H40	H	1.923729	-0.608848	1.189963
C41	C	1.585527	-0.898915	0.935073
H42	H	1.534106	-0.943030	0.977355
H43	H	1.534528	-0.846775	0.892338
H44	H	1.629343	-0.957278	0.891348
C45	C	1.948351	-0.587776	0.978158
H46	H	1.999808	-0.543634	1.032659
H47	H	1.999313	-0.639978	0.935266
H48	H	1.904541	-0.529438	0.936295
H49	H	1.281910	-0.848792	0.651962
H50	H	1.610239	-0.877640	1.152744
