data_functionalizedCrystal
_audit_creation_method	'MofGen! by Chris Wilmer'
_symmetry_space_group_name_H-M	'P1'
_symmetry_Int_Tables_number	1
_symmetry_cell_setting	triclinic
loop_
_symmetry_equiv_pos_as_xyz
  x,y,z
_cell_length_a	6.817900
_cell_length_b	17.078509
_cell_length_c	17.078481
_cell_angle_alpha	96.871901
_cell_angle_beta	99.306161
_cell_angle_gamma	99.306544
loop_
_atom_site_label
_atom_site_type_symbol
_atom_site_fract_x
_atom_site_fract_y
_atom_site_fract_z
V1	V	-3.958856	-0.109582	-0.247282
O2	O	-3.969080	0.005456	-0.242657
O3	O	-3.890238	-0.217466	-0.245511
O4	O	-3.890237	-0.107813	-0.355166
O5	O	-3.969081	-0.104956	-0.132243
V6	V	-4.447724	-0.095832	-0.233532
O7	O	-4.208391	-0.139744	-0.277443
O8	O	-4.648386	-0.065670	-0.203370
O9	O	-4.293135	0.012052	-0.235302
O10	O	-4.554897	-0.210870	-0.238156
O11	O	-4.554895	-0.100458	-0.348570
O12	O	-4.293136	-0.097601	-0.125647
C13	C	-3.730975	-0.243768	-0.241590
C14	C	-3.756024	-0.331964	-0.240861
C15	C	-3.877573	-0.827981	-0.236343
C16	C	-3.854053	-0.745112	-0.237031
C17	C	-4.022888	-0.707718	-0.241325
C18	C	-4.215259	-0.753198	-0.244940
C19	C	-4.238779	-0.836066	-0.244258
C20	C	-3.971914	-0.460313	-0.243794
C21	C	-3.948379	-0.377438	-0.244473
C22	C	-3.587174	-0.369358	-0.236566
C23	C	-3.610709	-0.452227	-0.235879
C24	C	-3.803078	-0.497701	-0.239498
N25	N	-3.998851	-0.623012	-0.242025
N26	N	-3.827115	-0.582406	-0.238803
C27	C	-3.730973	-0.103894	-0.381464
C28	C	-3.756019	-0.103161	-0.469660
C29	C	-3.948376	-0.106777	-0.515133
C30	C	-3.971898	-0.106088	-0.598001
C31	C	-3.803062	-0.101789	-0.635396
C32	C	-3.610689	-0.098170	-0.589917
C33	C	-3.587168	-0.098853	-0.507049
C34	C	-3.854041	-0.099316	-0.882801
C35	C	-3.877579	-0.098635	-0.965676
C36	C	-4.238786	-0.106552	-0.973755
C37	C	-4.215249	-0.107240	-0.890885
C38	C	-4.022878	-0.103617	-0.845412
N39	N	-3.827102	-0.101087	-0.720102
N40	N	-3.998839	-0.104313	-0.760708
C41	C	-4.115740	0.038350	-0.239221
C42	C	-4.069928	0.126545	-0.239955
C43	C	-4.115743	-0.101523	-0.099345
C44	C	-4.069936	-0.102251	-0.011149
H45	H	-4.085867	-0.110284	-0.484693
H46	H	-4.085873	-0.346993	-0.247962
H47	H	-3.430554	-0.332325	-0.233621
O48	O	-4.397369	-0.111870	-0.850564
H49	H	-4.413461	-0.166693	-0.821438
O50	O	-3.428590	-0.492549	-0.231250
H51	H	-3.412501	-0.521673	-0.176427
H52	H	-3.473220	-0.094665	-0.620369
O53	O	-3.379700	-0.094959	-0.457997
H54	H	-3.266250	-0.091863	-0.497922
H55	H	-3.740085	-0.858421	-0.232848
O56	O	-3.695460	-0.093998	-1.006007
H57	H	-3.744147	-0.094143	-1.071271
H58	H	-4.395408	-0.109501	-1.010787
H59	H	-4.128549	-0.497327	-0.246739
H60	H	-4.128530	-0.109029	-0.635022
H61	H	-3.697420	-0.708090	-0.234088
H62	H	-4.352728	-0.722746	-0.248441
O63	O	-4.446244	-0.885118	-0.248146
H64	H	-4.559694	-0.845194	-0.251238
O65	O	-3.646571	-0.095419	-0.833761
H66	H	-3.533132	-0.092326	-0.873690
