data_functionalizedCrystal
_audit_creation_method	'MofGen! by Chris Wilmer'
_symmetry_space_group_name_H-M	'P1'
_symmetry_Int_Tables_number	1
_symmetry_cell_setting	triclinic
loop_
_symmetry_equiv_pos_as_xyz
  x,y,z
_cell_length_a	10.489716
_cell_length_b	11.792241
_cell_length_c	10.268362
_cell_angle_alpha	89.999626
_cell_angle_beta	89.998762
_cell_angle_gamma	84.361276
loop_
_atom_site_label
_atom_site_type_symbol
_atom_site_fract_x
_atom_site_fract_y
_atom_site_fract_z
O1	O	0.174835	1.507367	-0.108161
O2	O	0.674835	2.007367	0.391839
O3	O	0.192853	1.177073	-0.108190
O4	O	0.692853	1.677073	0.391810
O5	O	-0.001782	1.349750	-0.108180
O6	O	0.498218	1.849750	0.391820
O7	O	0.369469	1.334690	-0.108172
O8	O	0.869469	1.834690	0.391828
O9	O	-0.001790	1.349735	0.108421
O10	O	0.498210	1.849735	0.608421
O11	O	0.192845	1.177058	0.108410
O12	O	0.692845	1.677058	0.608410
O13	O	0.174826	1.507352	0.108439
O14	O	0.674826	2.007352	0.608439
Cu15	Cu	0.183835	1.342203	0.128202
Cu16	Cu	0.683835	1.842203	0.628202
Cu17	Cu	0.183845	1.342221	-0.127953
Cu18	Cu	0.683845	1.842221	0.372047
O19	O	0.369461	1.334674	0.108429
O20	O	0.869461	1.834674	0.608429
C21	C	0.191717	1.134771	0.000106
C22	C	0.691717	1.634771	0.500106
C23	C	0.188329	1.008749	0.000094
C24	C	0.688329	1.508749	0.500094
C25	C	0.182100	0.778020	0.000132
C26	C	0.682100	1.278020	0.500132
C27	C	0.185561	0.906415	0.000111
C28	C	0.685561	1.406415	0.500111
C29	C	-0.049314	1.348611	0.000116
C30	C	0.450686	1.848611	0.500116
C31	C	-0.190934	1.345225	0.000104
C32	C	0.309066	1.845225	0.500104
C33	C	-0.288968	1.451116	0.000125
C34	C	0.211032	1.951116	0.500125
C35	C	-0.366134	1.395169	-0.106671
C36	C	0.133866	1.895169	0.393329
C37	C	-0.366106	1.395129	0.106880
C38	C	0.133894	1.895129	0.606880
C39	C	-0.266234	1.289322	-0.106781
C40	C	0.233766	1.789322	0.393219
C41	C	-0.266201	1.289298	0.106866
C42	C	0.233799	1.789298	0.606866
C43	C	-0.343318	1.233272	0.000043
C44	C	0.156682	1.733272	0.500043
C45	C	0.416994	1.335814	0.000130
C46	C	0.916994	1.835814	0.500130
C47	C	0.558613	1.339199	0.000133
C48	C	1.058613	1.839199	0.500133
C49	C	0.175962	1.549653	0.000140
C50	C	0.675962	2.049653	0.500140
C51	C	0.179350	1.675676	0.000143
C52	C	0.679350	2.175676	0.500143
N53	N	0.183827	1.342199	0.308368
N54	N	0.683827	1.842199	0.808368
N55	N	0.183842	1.342235	-0.308119
N56	N	0.683842	1.842235	0.191881
C57	C	0.183842	1.342215	0.574039
C58	C	0.683842	1.842215	1.074039
C59	C	0.183838	1.342203	0.426201
C60	C	0.683838	1.842203	0.926201
H61	H	-0.264606	1.543223	0.000025
H62	H	0.235394	2.043223	0.500025
H63	H	-0.409778	1.439876	-0.196954
H64	H	0.090222	1.939876	0.303046
H65	H	-0.367434	1.141096	-0.000022
H66	H	0.132566	1.641096	0.499978
H67	H	-0.222534	1.244630	0.197152
H68	H	0.277466	1.744630	0.697152
H69	H	-0.409734	1.439846	0.197166
H70	H	0.090266	1.939846	0.697166
H71	H	-0.222775	1.244652	-0.197169
H72	H	0.277225	1.744652	0.302831
