data_functionalizedCrystal
_audit_creation_method	'MofGen! by Chris Wilmer'
_symmetry_space_group_name_H-M	'P1'
_symmetry_Int_Tables_number	1
_symmetry_cell_setting	triclinic
loop_
_symmetry_equiv_pos_as_xyz
  x,y,z
_cell_length_a	23.532407
_cell_length_b	17.699083
_cell_length_c	16.776229
_cell_angle_alpha	89.997802
_cell_angle_beta	90.002155
_cell_angle_gamma	96.934153
loop_
_atom_site_label
_atom_site_type_symbol
_atom_site_fract_x
_atom_site_fract_y
_atom_site_fract_z
O1	O	0.072009	-1.003711	-0.066185
O2	O	0.572009	-0.503711	0.433815
O3	O	0.081379	-0.783285	-0.066212
O4	O	0.581379	-0.283285	0.433788
O5	O	-0.006219	-0.900145	-0.066183
O6	O	0.493781	-0.400145	0.433817
O7	O	0.159606	-0.886851	-0.066214
O8	O	0.659606	-0.386851	0.433786
O9	O	-0.006202	-0.900134	0.066394
O10	O	0.493798	-0.400134	0.566394
O11	O	0.081395	-0.783274	0.066365
O12	O	0.581395	-0.283274	0.566365
O13	O	0.072025	-1.003700	0.066392
O14	O	0.572025	-0.503700	0.566392
Zn15	Zn	0.076713	-0.893485	0.087428
Zn16	Zn	0.576713	-0.393485	0.587428
Zn17	Zn	0.076691	-0.893500	-0.087248
Zn18	Zn	0.576691	-0.393500	0.412752
O19	O	0.159623	-0.886840	0.066363
O20	O	0.659623	-0.386840	0.566363
C21	C	0.081051	-0.755084	0.000073
C22	C	0.581051	-0.255084	0.500073
C23	C	0.080044	-0.671071	0.000063
C24	C	0.580044	-0.171071	0.500063
C25	C	-0.027427	-0.899801	0.000107
C26	C	0.472573	-0.399801	0.500107
C27	C	-0.090647	-0.898783	0.000113
C28	C	0.409353	-0.398783	0.500113
C29	C	0.072353	-1.031901	0.000105
C30	C	0.572353	-0.531901	0.500105
C31	C	0.073360	-1.115914	0.000110
C32	C	0.573360	-0.615914	0.500110
C33	C	-0.489570	-0.961554	0.000077
C34	C	0.010430	-0.461554	0.500077
C35	C	-0.548973	-0.960609	0.000071
C36	C	-0.048973	-0.460609	0.500071
O37	O	-0.585550	-1.018799	0.000049
O38	O	-0.085550	-0.518799	0.500049
N39	N	-0.571799	-0.891136	0.000063
N40	N	-0.071799	-0.391136	0.500063
C41	C	-0.535218	-0.822604	0.000053
C42	C	-0.035218	-0.322604	0.500053
O43	O	-0.560088	-0.763424	0.000045
O44	O	-0.060088	-0.263424	0.500045
C45	C	-0.475816	-0.823550	0.000054
C46	C	0.024184	-0.323550	0.500054
C47	C	-0.452994	-0.893028	0.000070
C48	C	0.047006	-0.393028	0.500070
C49	C	-0.466747	-1.031026	0.000093
C50	C	0.033253	-0.531026	0.500093
C51	C	-0.407348	-1.031972	0.000100
C52	C	0.092652	-0.531972	0.500100
C53	C	-0.370772	-0.963445	0.000093
C54	C	0.129228	-0.463445	0.500093
C55	C	-0.393595	-0.893973	0.000078
C56	C	0.106405	-0.393973	0.500078
C57	C	-0.439237	-0.755019	0.000038
C58	C	0.060763	-0.255019	0.500038
C59	C	-0.379832	-0.755971	0.000038
C60	C	0.120168	-0.255971	0.500038
C61	C	-0.357009	-0.825449	0.000054
C62	C	0.142991	-0.325449	0.500054
C63	C	-0.297620	-0.826391	0.000078
C64	C	0.202380	-0.326391	0.500078
N65	N	-0.274795	-0.895864	0.000086
N66	N	0.225205	-0.395864	0.500086
C67	C	-0.311371	-0.964391	0.000093
C68	C	0.188629	-0.464391	0.500093
C69	C	-0.659966	-0.820622	0.000051
C70	C	-0.159966	-0.320622	0.500051
C71	C	-0.719367	-0.819674	0.000056
C72	C	-0.219367	-0.319674	0.500056
C73	C	-0.733118	-0.957680	0.000073
C74	C	-0.233118	-0.457680	0.500073
C75	C	-0.673716	-0.958626	0.000073
C76	C	-0.173716	-0.458626	0.500073
C77	C	-0.637141	-0.890095	0.000059
C78	C	-0.137141	-0.390095	0.500059
C79	C	-0.186628	-0.966371	0.000110
C80	C	0.313372	-0.466371	0.500110
C81	C	-0.127223	-0.967310	0.000121
C82	C	0.372777	-0.467310	0.500121
C83	C	-0.113478	-0.829305	0.000100
C84	C	0.386522	-0.329305	0.500100
C85	C	-0.172877	-0.828365	0.000094
C86	C	0.327123	-0.328365	0.500094
C87	C	-0.209452	-0.896904	0.000096
C88	C	0.290548	-0.396904	0.500096
O89	O	-0.261008	-0.768232	0.000097
O90	O	0.238992	-0.268232	0.500097
O91	O	-0.286493	-1.023561	0.000091
O92	O	0.213507	-0.523561	0.500091
C93	C	0.180832	-0.887184	0.000071
C94	C	0.680832	-0.387184	0.500071
C95	C	0.244052	-0.888202	0.000060
C96	C	0.744052	-0.388202	0.500060
N97	N	0.076728	-0.893480	0.206639
N98	N	0.576728	-0.393480	0.706639
C99	C	0.131462	-0.622189	0.000054
C100	C	0.631462	-0.122189	0.500054
C101	C	0.130512	-0.543251	0.000065
C102	C	0.630512	-0.043251	0.500065
C103	C	0.078144	-0.513196	0.000079
C104	C	0.578144	-0.013196	0.500079
C105	C	0.026722	-0.562084	0.000090
C106	C	0.526722	-0.062084	0.500090
C107	C	0.027672	-0.641021	0.000086
C108	C	0.527672	-0.141021	0.500086
C109	C	0.022888	-0.243740	0.000111
C110	C	0.522888	0.256260	0.500111
C111	C	0.021942	-0.164797	0.000113
C112	C	0.521942	0.335203	0.500113
C113	C	0.125728	-0.145970	0.000090
C114	C	0.625728	0.354030	0.500090
C115	C	0.126678	-0.224907	0.000085
C116	C	0.626678	0.275093	0.500085
C117	C	0.075257	-0.273788	0.000101
C118	C	0.575257	0.226212	0.500101
C119	C	0.076287	-0.359382	0.000091
C120	C	0.576287	0.140618	0.500091
C121	C	0.077113	-0.427603	0.000083
C122	C	0.577113	0.072397	0.500083
C123	C	0.042188	-0.847863	0.751812
C124	C	0.542188	-0.347863	1.251812
C125	C	0.042192	-0.847861	0.668359
C126	C	0.542192	-0.347861	1.168359
C127	C	0.076693	-0.893499	0.626638
C128	C	0.576693	-0.393499	1.126638
C129	C	0.111188	-0.939147	0.668374
C130	C	0.611188	-0.439147	1.168374
C131	C	0.111181	-0.939152	0.751824
C132	C	0.611181	-0.439152	1.251824
C133	C	0.111218	-0.939129	0.331827
C134	C	0.611218	-0.439129	0.831827
C135	C	0.111225	-0.939119	0.248370
C136	C	0.611225	-0.439119	0.748370
C137	C	0.042230	-0.847839	0.248361
C138	C	0.542230	-0.347839	0.748361
C139	C	0.042222	-0.847843	0.331812
C140	C	0.542222	-0.347843	0.831812
C141	C	0.076715	-0.893494	0.373540
C142	C	0.576715	-0.393494	0.873540
C143	C	0.076709	-0.893496	0.464029
C144	C	0.576709	-0.393496	0.964029
C145	C	0.076702	-0.893494	0.536151
C146	C	0.576702	-0.393494	1.036151
N147	N	0.076682	-0.893505	0.793541
N148	N	0.576682	-0.393505	1.293541
H149	H	-0.108645	-1.023889	0.000136
H150	H	0.391355	-0.523889	0.500136
H151	H	0.169322	-0.249373	0.000070
H152	H	0.669322	0.250627	0.500070
H153	H	-0.630189	-0.764811	0.000046
H154	H	-0.130189	-0.264811	0.500046
Br155	Br	-0.330196	-0.662958	0.000015
Br156	Br	0.169804	-0.162958	0.500015
H157	H	0.167598	-0.106161	0.000081
H158	H	0.667598	0.393839	0.500081
H159	H	0.014096	-0.810695	0.785775
H160	H	0.514096	-0.310695	1.285775
Br161	Br	-0.042112	-0.707362	0.000105
Br162	Br	0.457888	-0.207362	0.500105
H163	H	-0.655139	-1.015201	0.000086
H164	H	-0.155139	-0.515201	0.500086
H165	H	0.014143	-0.810670	0.214376
H166	H	0.514143	-0.310670	0.714376
Br167	Br	-0.044350	-0.521296	0.000117
Br168	Br	0.455650	-0.021296	0.500117
H169	H	-0.083687	-0.773512	0.000097
H170	H	0.416313	-0.273512	0.500097
Br171	Br	-0.236256	-1.059389	0.000112
Br172	Br	0.263744	-0.559389	0.500112
H173	H	0.014102	-0.810697	0.634387
H174	H	0.514102	-0.310697	1.134387
Br175	Br	-0.004598	-0.785899	0.388430
Br176	Br	0.495402	-0.285899	0.888430
Br177	Br	0.158052	-1.001058	0.191748
Br178	Br	0.658052	-0.501058	0.691748
H179	H	-0.457808	-0.698442	0.000020
H180	H	0.042192	-0.198442	0.500020
Br181	Br	0.158033	-1.001079	0.388447
Br182	Br	0.658033	-0.501079	0.888447
H183	H	0.139277	-0.976310	0.634398
H184	H	0.639277	-0.476310	1.134398
Br185	Br	-0.516376	-1.124040	0.000102
Br186	Br	-0.016376	-0.624040	0.500102
H187	H	0.174106	-0.646653	0.000042
H188	H	0.674106	-0.146653	0.500042
Br189	Br	0.200297	-0.476913	0.000049
Br190	Br	0.700297	0.023087	0.500049
Br191	Br	0.157991	-1.001104	0.808459
Br192	Br	0.657991	-0.501104	1.308459
H193	H	-0.191460	-0.771791	0.000103
H194	H	0.308540	-0.271791	0.500103
Br195	Br	-0.049135	-0.124009	0.000130
Br196	Br	0.450865	0.375991	0.500130
H197	H	-0.737943	-0.763099	0.000057
H198	H	-0.237943	-0.263099	0.500057
Br199	Br	-0.376385	-1.126268	0.000100
Br200	Br	0.123615	-0.626268	0.500100
Br201	Br	-0.782768	-1.050682	0.000080
Br202	Br	-0.282768	-0.550682	0.500080
H203	H	-0.018983	-0.283530	0.000124
H204	H	0.481017	0.216470	0.500124
