data_functionalizedCrystal
_audit_creation_method	'MofGen! by Chris Wilmer'
_symmetry_space_group_name_H-M	'P1'
_symmetry_Int_Tables_number	1
_symmetry_cell_setting	triclinic
loop_
_symmetry_equiv_pos_as_xyz
  x,y,z
_cell_length_a	23.532407
_cell_length_b	19.188930
_cell_length_c	18.266242
_cell_angle_alpha	90.022918
_cell_angle_beta	89.988983
_cell_angle_gamma	97.003272
loop_
_atom_site_label
_atom_site_type_symbol
_atom_site_fract_x
_atom_site_fract_y
_atom_site_fract_z
O1	O	0.071102	-0.925922	-0.061124
O2	O	0.571102	-0.425922	0.438876
O3	O	0.080673	-0.722581	-0.061074
O4	O	0.580673	-0.222581	0.438926
O5	O	-0.007031	-0.830383	-0.061087
O6	O	0.492969	-0.330383	0.438913
O7	O	0.158806	-0.818120	-0.061111
O8	O	0.658806	-0.318120	0.438889
O9	O	-0.007035	-0.830365	0.060675
O10	O	0.492965	-0.330365	0.560675
O11	O	0.080669	-0.722562	0.060688
O12	O	0.580669	-0.222562	0.560688
O13	O	0.071097	-0.925904	0.060638
O14	O	0.571097	-0.425904	0.560638
Zn15	Zn	0.075882	-0.824230	0.079995
Zn16	Zn	0.575882	-0.324230	0.579995
Zn17	Zn	0.075888	-0.824254	-0.080431
Zn18	Zn	0.575888	-0.324254	0.419569
O19	O	0.158802	-0.818102	0.060651
O20	O	0.658802	-0.318102	0.560651
C21	C	0.080361	-0.696561	-0.000187
C22	C	0.580361	-0.196561	0.499813
C23	C	0.079431	-0.619060	-0.000168
C24	C	0.579431	-0.119060	0.499832
C25	C	-0.028250	-0.830062	-0.000204
C26	C	0.471750	-0.330062	0.499796
C27	C	-0.091469	-0.829123	-0.000198
C28	C	0.408531	-0.329123	0.499802
N29	N	0.075878	-0.824219	0.189482
N30	N	0.575878	-0.324219	0.689482
C31	C	-0.490449	-0.887029	-0.000252
C32	C	0.009551	-0.387029	0.499748
C33	C	-0.549851	-0.886157	-0.000258
C34	C	-0.049851	-0.386157	0.499742
O35	O	-0.586482	-0.939837	-0.000298
O36	O	-0.086482	-0.439837	0.499702
N37	N	-0.572613	-0.822068	-0.000242
N38	N	-0.072613	-0.322068	0.499758
C39	C	-0.535970	-0.758848	-0.000228
C40	C	-0.035970	-0.258848	0.499772
O41	O	-0.560786	-0.704255	-0.000215
O42	O	-0.060786	-0.204255	0.499785
C43	C	-0.476569	-0.759721	-0.000228
C44	C	0.023431	-0.259721	0.499772
C45	C	-0.453810	-0.823814	-0.000236
C46	C	0.046190	-0.323814	0.499764
C47	C	-0.467690	-0.951117	-0.000262
C48	C	0.032310	-0.451117	0.499738
C49	C	-0.408292	-0.951989	-0.000255
C50	C	0.091708	-0.451989	0.499745
C51	C	-0.371653	-0.888773	-0.000239
C52	C	0.128347	-0.388773	0.499761
C53	C	-0.394412	-0.824685	-0.000230
C54	C	0.105588	-0.324685	0.499770
C55	C	-0.439927	-0.696501	-0.000219
C56	C	0.060073	-0.196501	0.499781
C57	C	-0.380523	-0.697379	-0.000219
C58	C	0.119477	-0.197379	0.499781
C59	C	-0.357764	-0.761472	-0.000228
C60	C	0.142236	-0.261472	0.499772
C61	C	-0.298376	-0.762342	-0.000207
C62	C	0.201624	-0.262342	0.499793
N63	N	-0.275614	-0.826430	-0.000223
N64	N	0.224386	-0.326430	0.499777
C65	C	-0.312252	-0.889646	-0.000239
C66	C	0.187748	-0.389646	0.499761
C67	C	-0.660717	-0.757019	-0.000229
C68	C	-0.160717	-0.257019	0.499771
C69	C	-0.720116	-0.756146	-0.000224
C70	C	-0.220116	-0.256146	0.499776
C71	C	-0.733993	-0.883455	-0.000256
C72	C	-0.233993	-0.383455	0.499744
C73	C	-0.674592	-0.884328	-0.000255
C74	C	-0.174592	-0.384328	0.499745
C75	C	-0.637954	-0.821108	-0.000245
C76	C	-0.137954	-0.321108	0.499755
C77	C	-0.187512	-0.891472	-0.000224
C78	C	0.312488	-0.391472	0.499776
C79	C	-0.128108	-0.892339	-0.000214
C80	C	0.371892	-0.392339	0.499786
C81	C	-0.114236	-0.765029	-0.000187
C82	C	0.385764	-0.265029	0.499813
C83	C	-0.173634	-0.764163	-0.000193
C84	C	0.326366	-0.264163	0.499807
C85	C	-0.210272	-0.827390	-0.000214
C86	C	0.289728	-0.327390	0.499786
O87	O	-0.261710	-0.708690	-0.000170
O88	O	0.238290	-0.208690	0.499830
O89	O	-0.287428	-0.944230	-0.000261
O90	O	0.212572	-0.444230	0.499739
C91	C	0.180021	-0.818423	-0.000234
C92	C	0.680021	-0.318423	0.499766
C93	C	0.243240	-0.819362	-0.000244
C94	C	0.743240	-0.319362	0.499756
C95	C	0.071410	-0.951923	-0.000251
C96	C	0.571410	-0.451923	0.499749
C97	C	0.072340	-1.029425	-0.000275
C98	C	0.572340	-0.529425	0.499725
C99	C	0.130893	-0.573972	-0.000187
C100	C	0.630893	-0.073972	0.499813
C101	C	0.130019	-0.501151	-0.000194
C102	C	0.630019	-0.001151	0.499806
C103	C	0.077680	-0.473421	-0.000198
C104	C	0.577680	0.026579	0.499802
C105	C	0.026211	-0.518519	-0.000175
C106	C	0.526211	-0.018519	0.499825
C107	C	0.027086	-0.591339	-0.000160
C108	C	0.527086	-0.091339	0.499840
N109	N	0.037674	-0.365575	-0.041663
N110	N	0.537674	0.134425	0.458337
N111	N	0.036846	-0.296399	-0.041679
N112	N	0.536846	0.203601	0.458321
C113	C	0.075038	-0.254021	-0.000243
C114	C	0.575038	0.245979	0.499757
N115	N	0.114099	-0.283431	0.041201
N116	N	0.614099	0.216569	0.541201
N117	N	0.114929	-0.352613	0.041214
N118	N	0.614929	0.147387	0.541214
C119	C	0.076724	-0.394462	-0.000214
C120	C	0.576724	0.105538	0.499786
C121	C	0.125556	-0.129971	-0.000269
C122	C	0.625556	0.370029	0.499731
C123	C	0.124680	-0.057149	-0.000272
C124	C	0.624680	0.442851	0.499728
C125	C	0.020870	-0.074520	-0.000260
C126	C	0.520870	0.425480	0.499740
C127	C	0.021748	-0.147340	-0.000250
C128	C	0.521748	0.352660	0.499750
C129	C	0.074092	-0.175061	-0.000257
C130	C	0.574092	0.324939	0.499743
N131	N	0.075888	-0.824271	-0.189918
N132	N	0.575888	-0.324271	0.310082
C133	C	0.037062	-0.871970	0.227785
C134	C	0.537062	-0.371970	0.727785
C135	C	0.037059	-0.871974	0.304430
C136	C	0.537059	-0.371974	0.804430
C137	C	0.075883	-0.824235	0.342769
C138	C	0.575883	-0.324235	0.842769
C139	C	0.114702	-0.776475	0.304457
C140	C	0.614702	-0.276475	0.804457
C141	C	0.114700	-0.776468	0.227813
C142	C	0.614700	-0.276468	0.727813
N143	N	0.126298	-0.814998	0.463096
N144	N	0.626298	-0.314998	0.963096
N145	N	0.126298	-0.815010	0.535904
N146	N	0.626298	-0.315010	1.035904
C147	C	0.075891	-0.824254	0.573691
C148	C	0.575891	-0.324254	1.073691
N149	N	0.025481	-0.833500	0.535921
N150	N	0.525481	-0.333500	1.035921
N151	N	0.025482	-0.833492	0.463106
N152	N	0.525482	-0.333492	0.963106
C153	C	0.075889	-0.824238	0.425876
C154	C	0.575889	-0.324238	0.925876
C155	C	0.037068	-0.872012	0.695102
C156	C	0.537068	-0.372012	1.195102
C157	C	0.037065	-0.872012	0.771748
C158	C	0.537065	-0.372012	1.271748
C159	C	0.114713	-0.776516	0.771773
C160	C	0.614713	-0.276516	1.271773
C161	C	0.114711	-0.776513	0.695128
C162	C	0.614711	-0.276513	1.195128
C163	C	0.075890	-0.824265	0.656797
C164	C	0.575890	-0.324265	1.156797
H165	H	-0.109581	-0.944533	-0.000220
H166	H	0.390419	-0.444533	0.499780
Br167	Br	-0.050163	-0.036895	-0.000253
Br168	Br	0.449837	0.463105	0.499747
Br169	Br	0.167383	-0.711658	0.175826
Br170	Br	0.667383	-0.211658	0.675826
Br171	Br	0.194528	0.004045	-0.000291
Br172	Br	0.694528	0.504045	0.499709
Br173	Br	-0.064501	-0.679241	-0.000165
Br174	Br	0.435499	-0.179241	0.499835
Br175	Br	0.201931	-0.611591	-0.000196
Br176	Br	0.701931	-0.111591	0.499804
Br177	Br	-0.015624	-0.936815	0.823736
Br178	Br	0.484376	-0.436815	1.323736
H179	H	-0.020158	-0.184052	-0.000238
H180	H	0.479842	0.315948	0.499762
H181	H	0.005449	-0.910850	0.196579
H182	H	0.505449	-0.410850	0.696579
H183	H	0.171927	-0.464433	-0.000208
H184	H	0.671927	0.035567	0.499792
H185	H	-0.016404	-0.495937	-0.000188
H186	H	0.483596	0.004063	0.499812
Br187	Br	0.167397	-0.711719	0.823798
Br188	Br	0.667397	-0.211719	1.323798
H189	H	-0.763836	-0.934929	-0.000272
H190	H	-0.263836	-0.434929	0.499728
Br191	Br	0.196593	-0.167598	-0.000274
Br192	Br	0.696593	0.332402	0.499726
H193	H	-0.014822	-0.628050	-0.000145
H194	H	0.485178	-0.128050	0.499855
H195	H	0.005449	-0.910860	0.335623
H196	H	0.505449	-0.410860	0.835623
H197	H	0.146312	-0.737604	0.335676
H198	H	0.646312	-0.237604	0.835676
Br199	Br	-0.015620	-0.936815	0.643079
Br200	Br	0.484380	-0.436815	1.143079
Br201	Br	-0.517404	-1.036922	-0.000284
Br202	Br	-0.017404	-0.536922	0.499716
H203	H	-0.217335	-0.942958	-0.000244
H204	H	0.282665	-0.442958	0.499756
Br205	Br	-0.377415	-1.038977	-0.000288
Br206	Br	0.122585	-0.538977	0.499712
H207	H	-0.630888	-0.705535	-0.000215
H208	H	-0.130888	-0.205535	0.499785
Br209	Br	-0.643712	-0.971314	-0.000266
Br210	Br	-0.143712	-0.471314	0.499734
Br211	Br	-0.750995	-0.669159	-0.000195
Br212	Br	-0.250995	-0.169159	0.499805
H213	H	0.146322	-0.737633	0.663940
H214	H	0.646322	-0.237633	1.163940
H215	H	-0.350694	-0.645897	-0.000212
H216	H	0.149306	-0.145897	0.499788
Br217	Br	-0.470798	-0.609512	-0.000210
Br218	Br	0.029202	-0.109512	0.499790
Br219	Br	-0.204523	-0.677179	-0.000164
Br220	Br	0.295477	-0.177179	0.499836
