data_functionalizedCrystal
_audit_creation_method	'MofGen! by Chris Wilmer'
_symmetry_space_group_name_H-M	'P1'
_symmetry_Int_Tables_number	1
_symmetry_cell_setting	triclinic
loop_
_symmetry_equiv_pos_as_xyz
  x,y,z
_cell_length_a	19.288864
_cell_length_b	19.288857
_cell_length_c	17.766277
_cell_angle_alpha	89.991474
_cell_angle_beta	89.976791
_cell_angle_gamma	83.134677
loop_
_atom_site_label
_atom_site_type_symbol
_atom_site_fract_x
_atom_site_fract_y
_atom_site_fract_z
O1	O	0.921351	0.086649	-0.062839
O2	O	0.719090	0.098338	-0.062788
O3	O	0.826067	-0.008637	-0.062806
O4	O	0.814373	0.193624	-0.062821
O5	O	0.826049	-0.008643	0.062382
O6	O	0.719071	0.098332	0.062400
O7	O	0.921332	0.086644	0.062349
Cu8	Cu	0.820200	0.092488	0.073806
Cu9	Cu	0.820222	0.092494	-0.074244
O10	O	0.814354	0.193619	0.062367
C11	C	0.693204	0.097959	-0.000187
C12	C	0.616100	0.096830	-0.000167
C13	C	0.571402	0.159598	-0.000184
C14	C	0.498955	0.158537	-0.000192
C15	C	0.471210	0.094705	-0.000199
C16	C	0.515917	0.031929	-0.000178
C17	C	0.588363	0.032991	-0.000162
C18	C	0.362955	0.044528	-0.044080
C19	C	0.290511	0.043468	-0.044100
C20	C	0.247764	0.091425	-0.000244
C21	C	0.277469	0.140455	0.043622
C22	C	0.349914	0.141517	0.043638
C23	C	0.392656	0.093546	-0.000216
C24	C	0.124510	0.153048	-0.000269
C25	C	0.052062	0.151984	-0.000272
C26	C	0.069026	0.025374	-0.000266
C27	C	0.141472	0.026439	-0.000255
C28	C	0.169210	0.090278	-0.000260
C29	C	0.825683	-0.034516	-0.000211
C30	C	0.824556	-0.111620	-0.000209
C31	C	0.824040	-0.147828	-0.068449
C32	C	0.822971	-0.220274	-0.068454
C33	C	0.822432	-0.256511	-0.000215
C34	C	0.822944	-0.220295	0.068034
C35	C	0.824006	-0.147849	0.068037
C36	C	0.861426	-0.376745	0.052050
C37	C	0.860369	-0.449190	0.052044
C38	C	0.819155	-0.479957	-0.000223
C39	C	0.779007	-0.438272	-0.052496
C40	C	0.780069	-0.365827	-0.052493
C41	C	0.821281	-0.335066	-0.000211
C42	C	0.817479	-0.594719	-0.068474
C43	C	0.816406	-0.667166	-0.068476
C44	C	0.816386	-0.667186	0.068014
C45	C	0.817452	-0.594740	0.068014
C46	C	0.818002	-0.558511	-0.000232
C47	C	0.947218	0.087022	-0.000253
C48	C	1.024321	0.088151	-0.000278
C49	C	0.814739	0.219498	-0.000229
C50	C	0.815866	0.296602	-0.000237
N51	N	0.820189	0.092483	0.177936
N52	N	0.820238	0.092493	-0.178375
C53	C	0.867574	0.045137	0.217315
C54	C	0.867578	0.045134	0.296117
C55	C	0.820204	0.092488	0.335537
C56	C	0.772810	0.139837	0.296148
C57	C	0.772803	0.139834	0.217348
C58	C	0.810903	0.155776	0.460371
C59	C	0.810915	0.155780	0.539170
C60	C	0.820222	0.092496	0.578583
C61	C	0.829532	0.029207	0.539187
C62	C	0.829525	0.029204	0.460387
C63	C	0.820206	0.092496	0.420982
C64	C	0.867614	0.045144	0.703408
C65	C	0.867614	0.045139	0.782211
C66	C	0.772849	0.139849	0.782241
C67	C	0.772846	0.139847	0.703439
C68	C	0.820233	0.092495	0.664027
H69	H	0.374097	0.181436	0.079358
C70	C	0.824580	-0.108020	0.143105
H71	H	0.824109	-0.139975	0.183747
H72	H	0.784500	-0.074331	0.145953
H73	H	0.865497	-0.085189	0.145931
C74	C	0.038514	-0.044841	-0.000278
H75	H	-0.011034	-0.036485	-0.000295
H76	H	0.053847	-0.070683	0.043379
H77	H	0.053896	-0.070669	-0.043938
H78	H	0.624757	-0.018124	-0.000149
H79	H	0.817878	-0.565260	0.123583
C80	C	0.720736	0.191939	0.660117
H81	H	0.727515	0.185154	0.607541
H82	H	0.728137	0.238275	0.673021
H83	H	0.674402	0.184516	0.673053
H84	H	0.817923	-0.565220	-0.124044
H85	H	0.745447	-0.463321	-0.095057
C86	C	0.449779	0.227585	-0.000222
H87	H	0.476674	0.265756	-0.000229
H88	H	0.421135	0.229808	0.043423
H89	H	0.421196	0.229792	-0.043894
C90	C	0.485403	-0.038287	-0.000187
H91	H	0.522403	-0.075519	-0.000170
H92	H	0.457520	-0.041332	-0.043850
H93	H	0.457471	-0.041333	0.043468
C94	C	0.002893	0.221033	-0.000291
H95	H	0.029792	0.259202	-0.000298
H96	H	-0.025744	0.223254	0.043360
H97	H	-0.025696	0.223247	-0.043958
H98	H	0.894987	-0.351701	0.094617
C99	C	0.919690	-0.006955	0.173966
H100	H	0.947907	-0.035157	0.208710
H101	H	0.948519	0.017954	0.143201
H102	H	0.894789	-0.035811	0.143250
H103	H	0.147095	0.205029	-0.000262
H104	H	0.815983	-0.696644	-0.124048
C105	C	0.824633	-0.107979	-0.143516
H106	H	0.824165	-0.139922	-0.184159
H107	H	0.865541	-0.085138	-0.146366
H108	H	0.784543	-0.074296	-0.146340
C109	C	0.904528	-0.495037	0.109541
H110	H	0.929215	-0.466337	0.140679
H111	H	0.936835	-0.527676	0.083649
H112	H	0.874770	-0.519372	0.139779
H113	H	0.822547	-0.249759	-0.124025
H114	H	0.734236	0.178393	0.328248
C115	C	0.815787	-0.707038	0.143075
H116	H	0.815083	-0.755370	0.133301
H117	H	0.775461	-0.689741	0.171123
H118	H	0.856458	-0.700597	0.171107
C119	C	0.735903	-0.319975	-0.109980
H120	H	0.711199	-0.348669	-0.141107
H121	H	0.765650	-0.295634	-0.140220
H122	H	0.703598	-0.287339	-0.084073
H123	H	0.822503	-0.249803	0.123594
H124	H	0.837110	-0.022324	0.571275
C125	C	0.919705	-0.006947	0.339443
H126	H	0.947927	-0.035145	0.304684
H127	H	0.894818	-0.035797	0.370205
H128	H	0.948539	0.017977	0.370159
H129	H	0.242665	0.179506	0.079334
H130	H	0.177867	-0.024674	-0.000245
H131	H	0.837103	-0.022328	0.428314
C132	C	0.800661	0.225390	0.417021
H133	H	0.801981	0.216325	0.364449
H134	H	0.836897	0.252519	0.429907
H135	H	0.756772	0.250267	0.429956
H136	H	0.906197	0.006585	0.671317
C137	C	0.919741	-0.006942	0.825528
H138	H	0.947964	-0.035136	0.790767
H139	H	0.894857	-0.035797	0.856288
H140	H	0.948574	0.017981	0.856247
C141	C	0.257842	-0.010463	-0.092347
H142	H	0.293676	-0.038882	-0.118452
H143	H	0.226384	0.013130	-0.127626
H144	H	0.233322	-0.038923	-0.060721
H145	H	0.734273	0.178403	0.814336
H146	H	0.803340	0.207314	0.571240
H147	H	0.734215	0.178389	0.185285
C148	C	0.409974	-0.008229	-0.092321
H149	H	0.457374	-0.000580	-0.086024
H150	H	0.397313	-0.002298	-0.143791
H151	H	0.404249	-0.054361	-0.076895
H152	H	0.593981	0.211581	-0.000189
