data_functionalizedCrystal
_audit_creation_method	'MofGen! by Chris Wilmer'
_symmetry_space_group_name_H-M	'P1'
_symmetry_Int_Tables_number	1
_symmetry_cell_setting	triclinic
loop_
_symmetry_equiv_pos_as_xyz
  x,y,z
_cell_length_a	14.971496
_cell_length_b	14.971490
_cell_length_c	17.766277
_cell_angle_alpha	90.008057
_cell_angle_beta	89.994547
_cell_angle_gamma	96.383114
loop_
_atom_site_label
_atom_site_type_symbol
_atom_site_fract_x
_atom_site_fract_y
_atom_site_fract_z
O1	O	0.116578	-1.186948	-0.062637
O2	O	0.616578	-0.686948	0.437363
O3	O	0.130533	-0.926549	-0.062629
O4	O	0.630533	-0.426549	0.437371
O5	O	-0.006644	-1.063724	-0.062626
O6	O	0.493356	-0.563724	0.437374
O7	O	0.253755	-1.049774	-0.062639
O8	O	0.753755	-0.549774	0.437361
O9	O	-0.006648	-1.063708	0.062562
O10	O	0.493352	-0.563708	0.562562
O11	O	0.130529	-0.926534	0.062559
O12	O	0.630529	-0.426534	0.562559
O13	O	0.116574	-1.186933	0.062552
O14	O	0.616574	-0.686933	0.562552
Cu15	Cu	0.123552	-1.056732	0.073986
Cu16	Cu	0.623552	-0.556732	0.573986
Cu17	Cu	0.123555	-1.056750	-0.074064
Cu18	Cu	0.623555	-0.556750	0.425936
O19	O	0.253751	-1.049759	0.062549
O20	O	0.753751	-0.549759	0.562549
C21	C	0.129906	-0.893217	-0.000034
C22	C	0.629906	-0.393217	0.499966
C23	C	0.128034	-0.793920	-0.000031
C24	C	0.628034	-0.293920	0.499969
C25	C	0.119958	-0.366222	-0.068285
C26	C	0.619958	0.133778	0.431715
C27	C	0.121714	-0.459522	-0.068283
C28	C	0.621714	0.040478	0.431717
C29	C	0.122597	-0.506160	-0.000041
C30	C	0.622597	-0.006160	0.499959
C31	C	0.121713	-0.459494	0.068204
C32	C	0.621713	0.040506	0.568204
C33	C	0.119951	-0.366196	0.068201
C34	C	0.619951	0.133804	0.568201
C35	C	0.125389	-0.653956	0.068205
C36	C	0.625389	-0.153956	0.568205
C37	C	0.127154	-0.747260	0.068209
C38	C	0.627154	-0.247260	0.568209
C39	C	0.127153	-0.747282	-0.068279
C40	C	0.627153	-0.247282	0.431721
C41	C	0.125391	-0.653984	-0.068282
C42	C	0.625391	-0.153984	0.431718
C43	C	0.124509	-0.607324	-0.000037
C44	C	0.624509	-0.107324	0.499963
C45	C	-0.039970	-1.063091	-0.000032
C46	C	0.460030	-0.563091	0.499968
C47	C	-0.139267	-1.061216	-0.000032
C48	C	0.360733	-0.561216	0.499968
C49	C	-0.566969	-1.053157	-0.068291
C50	C	-0.066969	-0.553157	0.431709
C51	C	-0.473670	-1.054923	-0.068288
C52	C	0.026330	-0.554923	0.431712
C53	C	-0.427028	-1.055791	-0.000045
C54	C	0.072972	-0.555791	0.499955
C55	C	-0.473692	-1.054903	0.068199
C56	C	0.026308	-0.554903	0.568199
C57	C	-0.566990	-1.053144	0.068195
C58	C	-0.066990	-0.553144	0.568195
C59	C	-0.279229	-1.058568	0.068203
C60	C	0.220771	-0.558568	0.568203
C61	C	-0.185924	-1.060326	0.068207
C62	C	0.314076	-0.560326	0.568207
C63	C	-0.185909	-1.060347	-0.068280
C64	C	0.314091	-0.560347	0.431720
C65	C	-0.279207	-1.058587	-0.068284
C66	C	0.220793	-0.558587	0.431716
C67	C	-0.325864	-1.057698	-0.000040
C68	C	0.174136	-0.557698	0.499960
C69	C	0.287077	-1.050392	-0.000047
C70	C	0.787077	-0.550392	0.499953
C71	C	0.386374	-1.052266	-0.000052
C72	C	0.886374	-0.552266	0.499948
C73	C	0.117202	-0.220265	-0.000043
C74	C	0.617202	0.279735	0.499957
C75	C	0.119078	-0.319562	-0.000046
C76	C	0.619078	0.180438	0.499954
N77	N	0.123548	-1.056726	0.178117
N78	N	0.623548	-0.556726	0.678117
N79	N	0.123552	-1.056763	-0.178194
N80	N	0.623552	-0.556763	0.321806
C81	C	0.062826	-1.117506	0.782407
C82	C	0.562826	-0.617506	1.282407
C83	C	0.062829	-1.117507	0.703605
C84	C	0.562829	-0.617507	1.203605
C85	C	0.123547	-1.056750	0.664205
C86	C	0.623547	-0.556750	1.164205
C87	C	0.184284	-0.996004	0.703614
C88	C	0.684284	-0.496004	1.203614
C89	C	0.184286	-0.996010	0.782415
C90	C	0.684286	-0.496010	1.282415
C91	C	0.135141	-0.975296	0.539376
C92	C	0.635141	-0.475296	1.039376
C93	C	0.135133	-0.975288	0.460577
C94	C	0.635133	-0.475288	0.960577
C95	C	0.123546	-1.056731	0.421159
C96	C	0.623546	-0.556731	0.921159
C97	C	0.111948	-1.138185	0.460550
C98	C	0.611948	-0.638185	0.960550
C99	C	0.111950	-1.138191	0.539350
C100	C	0.611950	-0.638191	1.039350
C101	C	0.123552	-1.056737	0.578760
C102	C	0.623552	-0.556737	1.078760
C103	C	0.062819	-1.117480	0.296314
C104	C	0.562819	-0.617480	0.796314
C105	C	0.062828	-1.117482	0.217511
C106	C	0.562828	-0.617482	0.717511
C107	C	0.184279	-0.995971	0.217522
C108	C	0.684279	-0.495971	0.717522
C109	C	0.184275	-0.995976	0.296323
C110	C	0.684275	-0.495976	0.796323
C111	C	0.123540	-1.056730	0.335715
C112	C	0.623540	-0.556730	0.835715
H113	H	0.124679	-0.616014	-0.123851
H114	H	0.624679	-0.116014	0.376149
H115	H	0.122426	-0.497474	0.123768
H116	H	0.622426	0.002526	0.623768
H117	H	0.122426	-0.497510	-0.123851
H118	H	0.622426	0.002490	0.376149
H119	H	0.102519	-1.204503	0.428458
H120	H	0.602519	-0.704503	0.928458
C121	C	0.128115	-0.798560	0.143279
C122	C	0.628115	-0.298560	0.643279
N123	N	0.128836	-0.837201	0.199823
N124	N	0.628836	-0.337201	0.699823
H125	H	0.127872	-0.785277	-0.123847
H126	H	0.627872	-0.285277	0.376153
H127	H	0.013375	-1.166977	0.814477
H128	H	0.513375	-0.666977	1.314477
H129	H	0.233737	-0.946545	0.814494
H130	H	0.733737	-0.446545	1.314494
H131	H	-0.435710	-1.055616	0.123764
H132	H	0.064290	-0.555616	0.623764
C133	C	0.124421	-0.602631	0.143279
C134	C	0.624421	-0.102631	0.643279
N135	N	0.123697	-0.563973	0.199823
N136	N	0.623697	-0.063973	0.699823
H137	H	-0.147915	-1.061064	-0.123847
H138	H	0.352085	-0.561064	0.376153
H139	H	0.119243	-0.328205	0.123769
H140	H	0.619243	0.171795	0.623769
C141	C	-0.618268	-1.052211	-0.143365
C142	C	-0.118268	-0.552211	0.356635
N143	N	-0.656904	-1.051505	-0.199914
N144	N	-0.156904	-0.551505	0.300086
H145	H	0.144582	-0.908971	0.571463
H146	H	0.644582	-0.408971	1.071463
C147	C	-0.422352	-1.055902	-0.143356
C148	C	0.077648	-0.555902	0.356644
N149	N	-0.383700	-1.056640	-0.199901
N150	N	0.116300	-0.556640	0.300099
H151	H	-0.317214	-1.057845	0.123775
H152	H	0.182786	-0.557845	0.623775
H153	H	-0.604977	-1.052418	0.123763
H154	H	-0.104977	-0.552418	0.623763
H155	H	-0.317179	-1.057875	-0.123854
H156	H	0.182821	-0.557875	0.376146
C157	C	0.118987	-0.314930	-0.143359
C158	C	0.618987	0.185070	0.356641
N159	N	0.118250	-0.276299	-0.199907
N160	N	0.618250	0.223701	0.300093
C161	C	-0.134621	-1.061294	0.143278
C162	C	0.365379	-0.561294	0.643278
N163	N	-0.095981	-1.062028	0.199823
N164	N	0.404019	-0.562028	0.699823
C165	C	-0.003981	-1.184326	0.660257
C166	C	0.496019	-0.684326	1.160257
N167	N	-0.054305	-1.234653	0.627609
N168	N	0.445695	-0.734653	1.127609
H169	H	0.233720	-0.946511	0.328404
H170	H	0.733720	-0.446511	0.828404
C171	C	0.099149	-1.227787	0.582677
C172	C	0.599149	-0.727787	1.082677
N173	N	0.089491	-1.295271	0.615311
N174	N	0.589491	-0.795271	1.115311
C175	C	-0.003979	-1.184307	0.174171
C176	C	0.496021	-0.684307	0.674171
N177	N	-0.054300	-1.234640	0.141528
N178	N	0.445700	-0.734640	0.641528
H179	H	0.013368	-1.166952	0.328388
H180	H	0.513368	-0.666952	0.828388
H181	H	0.233721	-0.946505	0.185443
H182	H	0.733721	-0.446505	0.685443
H183	H	0.144566	-0.908964	0.428511
H184	H	0.644566	-0.408964	0.928511
C185	C	0.251074	-0.929170	0.660274
C186	C	0.751074	-0.429170	1.160274
N187	N	0.301383	-0.878830	0.627629
N188	N	0.801383	-0.378830	1.127629
