data_functionalizedCrystal
_audit_creation_method	'MofGen! by Chris Wilmer'
_symmetry_space_group_name_H-M	'P1'
_symmetry_Int_Tables_number	1
_symmetry_cell_setting	triclinic
loop_
_symmetry_equiv_pos_as_xyz
  x,y,z
_cell_length_a	14.519709
_cell_length_b	19.188930
_cell_length_c	12.996460
_cell_angle_alpha	89.988736
_cell_angle_beta	90.000034
_cell_angle_gamma	83.412464
loop_
_atom_site_label
_atom_site_type_symbol
_atom_site_fract_x
_atom_site_fract_y
_atom_site_fract_z
O1	O	1.223300	0.091525	-0.085445
O2	O	1.723300	0.591525	0.414555
O3	O	0.954756	0.102303	-0.085478
O4	O	1.454756	0.602303	0.414522
O5	O	1.096778	-0.004714	-0.085440
O6	O	1.596778	0.495286	0.414560
O7	O	1.081279	0.198542	-0.085482
O8	O	1.581279	0.698542	0.414518
O9	O	1.096763	-0.004720	0.085693
O10	O	1.596763	0.495280	0.585693
O11	O	0.954742	0.102297	0.085656
O12	O	1.454742	0.602297	0.585656
O13	O	1.223285	0.091519	0.085689
O14	O	1.723285	0.591519	0.585689
Cu15	Cu	1.089012	0.096907	0.101298
Cu16	Cu	1.589012	0.596907	0.601298
Cu17	Cu	1.089030	0.096914	-0.101087
Cu18	Cu	1.589030	0.596914	0.398913
O19	O	1.081264	0.198536	0.085651
O20	O	1.581264	0.698536	0.585651
C21	C	0.920392	0.101797	0.000085
C22	C	1.420392	0.601797	0.500085
C23	C	0.818020	0.100292	0.000073
C24	C	1.318020	0.600292	0.500073
C25	C	0.443159	0.094751	0.000121
C26	C	0.943159	0.594751	0.500121
C27	C	0.547457	0.096290	0.000108
C28	C	1.047457	0.596290	0.500108
C29	C	0.630586	0.097521	0.000097
C30	C	1.130586	0.597521	0.500097
C31	C	0.734891	0.099060	0.000085
C32	C	1.234891	0.599060	0.500085
C33	C	1.096269	-0.030730	0.000129
C34	C	1.596269	0.469270	0.500129
C35	C	1.094762	-0.108240	0.000138
C36	C	1.594762	0.391760	0.500138
C37	C	1.178095	-0.152867	0.000153
C38	C	1.678095	0.347133	0.500153
C39	C	1.176680	-0.225696	0.000137
C40	C	1.676680	0.274304	0.500137
C41	C	1.091926	-0.253895	0.000125
C42	C	1.591926	0.246105	0.500125
C43	C	1.008582	-0.209257	0.000105
C44	C	1.508582	0.290743	0.500105
C45	C	1.009999	-0.136430	0.000111
C46	C	1.509999	0.363570	0.500111
N47	N	1.027137	-0.362132	0.058358
N48	N	1.527137	0.137868	0.558358
N49	N	1.025796	-0.431316	0.058354
N50	N	1.525796	0.068684	0.558354
C51	C	1.087649	-0.473318	0.000104
C52	C	1.587649	0.026682	0.500104
N53	N	1.150908	-0.443526	-0.058129
N54	N	1.650908	0.056474	0.441871
N55	N	1.152252	-0.374336	-0.058120
N56	N	1.652252	0.125664	0.441880
C57	C	1.090379	-0.332863	0.000118
C58	C	1.590379	0.167137	0.500118
C59	C	1.169454	-0.596916	0.000100
C60	C	1.669454	-0.096916	0.500100
C61	C	1.168035	-0.669745	0.000077
C62	C	1.668035	-0.169745	0.500077
C63	C	0.999934	-0.653305	0.000055
C64	C	1.499934	-0.153305	0.500055
C65	C	1.001355	-0.580477	0.000068
C66	C	1.501355	-0.080477	0.500068
C67	C	1.086118	-0.552287	0.000095
C68	C	1.586118	-0.052287	0.500095
C69	C	1.257649	0.092024	0.000124
C70	C	1.757649	0.592024	0.500124
C71	C	1.360021	0.093529	0.000128
C72	C	1.860021	0.593529	0.500128
C73	C	1.081773	0.224551	0.000079
C74	C	1.581773	0.724551	0.500079
C75	C	1.083280	0.302061	0.000064
C76	C	1.583280	0.802061	0.500064
N77	N	1.089007	0.096902	0.243645
N78	N	1.589007	0.596902	0.743645
N79	N	1.089042	0.096914	-0.243434
N80	N	1.589042	0.596914	0.256566
C81	C	1.089028	0.096915	0.663460
C82	C	1.589028	0.596915	1.163460
C83	C	1.089020	0.096914	0.546655
C84	C	1.589020	0.596914	1.046655
C85	C	1.089018	0.096909	0.453556
C86	C	1.589018	0.596909	0.953556
C87	C	1.089008	0.096906	0.336744
C88	C	1.589008	0.596906	0.836744
H89	H	1.247116	-0.129920	0.000172
H90	H	1.747116	0.370080	0.500172
H91	H	1.235898	-0.706081	0.000083
H92	H	1.735898	-0.206081	0.500083
H93	H	0.930926	-0.676263	0.000041
H94	H	1.430926	-0.176263	0.500041
C95	C	1.267231	-0.274079	-0.000001
C96	C	1.767231	0.225921	0.499999
C97	C	1.318313	-0.261303	-0.088018
C98	C	1.818313	0.238697	0.411982
C99	C	1.401736	-0.305851	-0.088172
C100	C	1.901736	0.194149	0.411828
H101	H	1.254374	-0.321512	-0.000060
H102	H	1.754374	0.178488	0.499940
H103	H	1.302036	-0.265521	0.059656
H104	H	1.802036	0.234479	0.559656
H105	H	1.283514	-0.269866	-0.147660
H106	H	1.783514	0.230134	0.352340
H107	H	1.331194	-0.213878	-0.087978
H108	H	1.831194	0.286122	0.412022
H109	H	1.436542	-0.297292	-0.028514
H110	H	1.936542	0.202708	0.471486
H111	H	1.388871	-0.353282	-0.088227
H112	H	1.888871	0.146718	0.411773
H113	H	1.436409	-0.297184	-0.147884
H114	H	1.936409	0.202816	0.352116
C115	C	0.916656	-0.240004	0.000146
C116	C	1.416656	0.259996	0.500146
C117	C	0.933249	-0.313336	0.000173
C118	C	1.433249	0.186664	0.500173
C119	C	0.848587	-0.341682	0.000220
C120	C	1.348587	0.158318	0.500220
H121	H	0.882291	-0.224762	-0.059521
H122	H	1.382291	0.275238	0.440479
H123	H	0.882340	-0.224740	0.059843
H124	H	1.382340	0.275260	0.559843
H125	H	0.967551	-0.328594	-0.059518
H126	H	1.467551	0.171406	0.440482
H127	H	0.967601	-0.328598	0.059836
H128	H	1.467601	0.171402	0.559836
H129	H	0.814271	-0.326418	0.059917
H130	H	1.314271	0.173582	0.559917
H131	H	0.814228	-0.326435	-0.059448
H132	H	1.314228	0.173565	0.440552
H133	H	0.859834	-0.391440	0.000248
H134	H	1.359834	0.108560	0.500248
C135	C	0.919418	-0.088089	0.000153
C136	C	1.419418	0.411911	0.500153
C137	C	0.844888	-0.128367	0.000161
C138	C	1.344888	0.371633	0.500161
C139	C	0.761431	-0.083858	0.000216
C140	C	1.261431	0.416142	0.500216
H141	H	0.916353	-0.059310	-0.059504
H142	H	1.416353	0.440690	0.440496
H143	H	0.916422	-0.059360	0.059860
H144	H	1.416422	0.440640	0.559860
H145	H	0.847883	-0.157084	-0.059540
H146	H	1.347883	0.342916	0.440460
H147	H	0.847923	-0.157145	0.059814
H148	H	1.347923	0.342855	0.559814
H149	H	0.758434	-0.055129	0.059923
H150	H	1.258434	0.444871	0.559923
H151	H	0.758374	-0.055081	-0.059442
H152	H	1.258374	0.444919	0.440558
H153	H	0.710852	-0.111180	0.000231
H154	H	1.210852	0.388820	0.500231
C155	C	1.261571	-0.566438	0.000056
C156	C	1.761571	-0.066438	0.500056
C157	C	1.334251	-0.621113	0.000024
C158	C	1.834251	-0.121113	0.500024
C159	C	1.419123	-0.593067	-0.000035
C160	C	1.919123	-0.093067	0.499965
H161	H	1.265752	-0.538391	0.059720
H162	H	1.765752	-0.038391	0.559720
H163	H	1.265666	-0.538379	-0.059644
H164	H	1.765666	-0.038379	0.440356
H165	H	1.330158	-0.649160	0.059717
H166	H	1.830158	-0.149160	0.559717
H167	H	1.330101	-0.649165	-0.059636
H168	H	1.830101	-0.149165	0.440364
H169	H	1.423218	-0.565008	-0.059735
H170	H	1.923218	-0.065008	0.440265
H171	H	1.423294	-0.565019	0.059630
H172	H	1.923294	-0.065019	0.559630
H173	H	1.468446	-0.630159	-0.000067
H174	H	1.968446	-0.130159	0.499933
C175	C	0.910777	-0.532136	0.000118
C176	C	1.410777	-0.032136	0.500118
C177	C	0.836248	-0.572415	0.000132
C178	C	1.336248	-0.072415	0.500132
C179	C	0.752789	-0.527907	0.000190
C180	C	1.252789	-0.027907	0.500190
H181	H	0.907708	-0.503357	-0.059540
H182	H	1.407708	-0.003357	0.440460
H183	H	0.907782	-0.503405	0.059824
H184	H	1.407782	-0.003405	0.559824
H185	H	0.839241	-0.601133	-0.059567
H186	H	1.339241	-0.101133	0.440433
H187	H	0.839286	-0.601192	0.059786
H188	H	1.339286	-0.101192	0.559786
H189	H	0.749795	-0.499177	0.059895
H190	H	1.249795	0.000823	0.559895
H191	H	0.749730	-0.499131	-0.059470
H192	H	1.249730	0.000869	0.440530
H193	H	0.702211	-0.555230	0.000209
H194	H	1.202211	-0.055230	0.500209
