data_functionalizedCrystal
_audit_creation_method	'MofGen! by Chris Wilmer'
_symmetry_space_group_name_H-M	'P1'
_symmetry_Int_Tables_number	1
_symmetry_cell_setting	triclinic
loop_
_symmetry_equiv_pos_as_xyz
  x,y,z
_cell_length_a	10.654541
_cell_length_b	27.731996
_cell_length_c	9.130307
_cell_angle_alpha	89.990770
_cell_angle_beta	89.999822
_cell_angle_gamma	83.552658
loop_
_atom_site_label
_atom_site_type_symbol
_atom_site_fract_x
_atom_site_fract_y
_atom_site_fract_z
O1	O	1.664952	0.067881	-0.121776
O2	O	1.299198	0.074350	-0.121791
O3	O	1.493469	0.000788	-0.121751
O4	O	1.470681	0.141443	-0.121816
O5	O	1.493462	0.000787	0.121848
O6	O	1.299192	0.074349	0.121808
O7	O	1.664946	0.067880	0.121823
Cu8	Cu	1.482068	0.071115	0.144058
Cu9	Cu	1.482076	0.071116	-0.144026
O10	O	1.470675	0.141443	0.121783
C11	C	1.252417	0.073875	0.000007
C12	C	1.113034	0.072455	0.000003
C13	C	1.081323	0.160418	-0.000055
C14	C	0.999986	0.203731	-0.000090
C15	C	0.869025	0.202393	-0.000091
C16	C	0.819399	0.157738	-0.000053
C17	C	0.900735	0.114426	-0.000018
C18	C	1.031697	0.115768	-0.000021
C19	C	0.932446	0.026463	0.000051
C20	C	1.063408	0.027800	0.000042
C21	C	0.882820	-0.018191	0.000090
C22	C	0.964156	-0.061505	0.000114
C23	C	1.095125	-0.060165	0.000113
C24	C	1.144744	-0.015513	0.000076
C25	C	1.492997	-0.017223	0.000053
C26	C	1.491588	-0.070888	0.000068
C27	C	1.482720	-0.403659	-0.132790
C28	C	1.477366	-0.605350	-0.132816
O29	O	1.476623	-0.631425	-0.245746
N30	N	1.476698	-0.630572	-0.000031
C31	C	1.477360	-0.605367	0.132769
O32	O	1.476655	-0.631447	0.245710
C33	C	1.482705	-0.403676	0.132794
C34	C	1.483386	-0.378458	0.000001
C35	C	1.483400	-0.378440	-0.265572
C36	C	1.484745	-0.328021	-0.265564
C37	C	1.485411	-0.302820	-0.132774
C38	C	1.484731	-0.328038	0.000008
C39	C	1.483358	-0.378472	0.265593
C40	C	1.484691	-0.328046	0.265587
C41	C	1.485372	-0.302827	0.132794
C42	C	1.486742	-0.252418	0.132807
N43	N	1.487410	-0.227196	0.000022
C44	C	1.486745	-0.252397	-0.132768
C45	C	1.474556	-0.711258	0.132747
C46	C	1.473222	-0.761681	0.132741
C47	C	1.473226	-0.761660	-0.132844
C48	C	1.474569	-0.711237	-0.132837
C49	C	1.475224	-0.686036	-0.000037
C50	C	1.489571	-0.146512	-0.132742
C51	C	1.490922	-0.096089	-0.132722
C52	C	1.490911	-0.096113	0.132862
C53	C	1.489567	-0.146533	0.132844
C54	C	1.488893	-0.171731	0.000030
O55	O	1.487472	-0.226311	0.245677
O56	O	1.487421	-0.226307	-0.245692
C57	C	1.481375	-0.454078	-0.132797
C58	C	1.480695	-0.479297	-0.000015
C59	C	1.481361	-0.454096	0.132775
C60	C	1.479361	-0.529720	-0.000021
C61	C	1.478696	-0.554920	-0.132811
C62	C	1.479364	-0.529699	-0.265596
C63	C	1.480709	-0.479279	-0.265588
C64	C	1.480692	-0.479318	0.265560
C65	C	1.479349	-0.529737	0.265541
C66	C	1.478683	-0.554938	0.132751
C67	C	1.711727	0.068355	0.000022
C68	C	1.851110	0.069776	0.000016
C69	C	1.471146	0.159453	-0.000024
C70	C	1.472556	0.213118	-0.000049
N71	N	1.482072	0.071114	0.346681
N72	N	1.482082	0.071113	-0.346649
C73	C	1.654168	0.005994	0.346706
C74	C	1.740224	-0.026565	0.423385
C75	C	1.740236	-0.026565	0.576719
C76	C	1.654181	0.005996	0.653376
C77	C	1.568125	0.038554	0.576697
C78	C	1.568124	0.038552	0.423360
C79	C	1.396026	0.103671	0.576672
C80	C	1.396017	0.103675	0.423339
C81	C	1.309970	0.136232	0.653330
C82	C	1.223918	0.168794	0.576651
C83	C	1.223910	0.168794	0.423308
C84	C	1.309961	0.136234	0.346659
H85	H	1.491479	-0.075558	-0.240863
Br86	Br	1.857018	-0.070756	0.680788
H87	H	1.187956	0.161512	-0.000087
H88	H	1.654187	0.005989	0.778228
Br89	Br	1.488655	-0.180702	-0.312990
H90	H	0.923739	-0.097859	0.000144
H91	H	1.153853	0.195301	0.639075
Br92	Br	1.322476	-0.013691	0.000062
H93	H	1.475096	-0.690745	0.240895
Br94	Br	0.705086	-0.020008	0.000101
H95	H	1.153828	0.195305	0.360884
H96	H	1.309966	0.136232	0.221807
H97	H	1.040407	0.240088	-0.000118
H98	H	1.485295	-0.307492	-0.373698
Br99	Br	1.482495	-0.412632	-0.445812
H100	H	1.161343	-0.095436	0.000147
H101	H	0.802800	0.237662	-0.000109
Br102	Br	0.641664	0.155924	-0.000021
H103	H	1.475122	-0.690707	-0.240969
H104	H	1.472685	-0.782187	-0.240967
H105	H	1.472686	-0.782210	0.240875
Br106	Br	1.485577	-0.293848	0.445826
Br107	Br	1.478434	-0.563956	0.445778
H108	H	1.482805	-0.398996	0.373727
Br109	Br	1.488672	-0.180761	0.313064
H110	H	1.491459	-0.075586	0.240977
H111	H	1.810287	-0.053077	0.360957
H112	H	1.481263	-0.458751	-0.373722
Br113	Br	1.309973	0.136230	0.861427
H114	H	1.478828	-0.550227	-0.373718
H115	H	1.481236	-0.458804	0.373696
H116	H	1.654177	0.005995	0.221854
