data_functionalizedCrystal
_audit_creation_method	'MofGen! by Chris Wilmer'
_symmetry_space_group_name_H-M	'P1'
_symmetry_Int_Tables_number	1
_symmetry_cell_setting	triclinic
loop_
_symmetry_equiv_pos_as_xyz
  x,y,z
_cell_length_a	18.050590
_cell_length_b	21.295418
_cell_length_c	18.050582
_cell_angle_alpha	90.022598
_cell_angle_beta	89.999233
_cell_angle_gamma	90.017553
loop_
_atom_site_label
_atom_site_type_symbol
_atom_site_fract_x
_atom_site_fract_y
_atom_site_fract_z
Zn1	Zn	1.135292	-0.250831	0.419601
Zn2	Zn	1.635292	0.249169	0.919601
Zn3	Zn	1.135202	-0.356092	0.295411
Zn4	Zn	1.635202	0.143908	0.795411
Zn5	Zn	1.011111	-0.250821	0.295460
Zn6	Zn	1.511111	0.249179	0.795460
Zn7	Zn	1.011058	-0.356047	0.419594
Zn8	Zn	1.511058	0.143953	0.919594
O9	O	1.073166	-0.303448	0.357517
O10	O	1.573166	0.196552	0.857517
O11	O	1.239204	-0.264818	0.403110
O12	O	1.739204	0.235182	0.903110
O13	O	1.118725	-0.342143	0.191493
O14	O	1.618725	0.157857	0.691493
O15	O	1.027643	-0.162733	0.311951
O16	O	1.527643	0.337267	0.811951
O17	O	1.239138	-0.342153	0.311868
O18	O	1.739138	0.157847	0.811868
O19	O	1.118878	-0.162741	0.403157
O20	O	1.618878	0.337259	0.903157
O21	O	1.027556	-0.264801	0.191529
O22	O	1.527556	0.235199	0.691529
O23	O	0.907179	-0.264756	0.311943
O24	O	1.407179	0.235244	0.811943
O25	O	1.027554	-0.342075	0.523520
O26	O	1.527554	0.157925	1.023520
O27	O	0.907141	-0.342065	0.403144
O28	O	1.407141	0.157935	0.903144
O29	O	1.118827	-0.264773	0.523525
O30	O	1.618827	0.235227	1.023525
O31	O	1.118675	-0.444176	0.311861
O32	O	1.618675	0.055824	0.811861
O33	O	1.027467	-0.444142	0.403098
O34	O	1.527467	0.055858	0.903098
C35	C	0.880214	-0.303405	0.357549
C36	C	1.380214	0.196595	0.857549
C37	C	0.797668	-0.303402	0.357580
C38	C	1.297668	0.196598	0.857580
C39	C	1.073075	-0.466999	0.357489
C40	C	1.573075	0.033001	0.857489
C41	C	1.073105	-0.536968	0.357503
C42	C	1.573105	-0.036968	0.857503
C43	C	0.598218	-0.345562	0.407057
C44	C	1.098218	0.154438	0.907057
C45	C	0.548825	-0.288165	0.425332
C46	C	1.048825	0.211835	0.925332
C47	C	0.646537	-0.303437	0.357544
C48	C	1.146537	0.196563	0.857544
C49	C	0.548849	-0.360867	0.339268
C50	C	1.048849	0.139133	0.839268
C51	C	0.500552	-0.303476	0.357510
C52	C	1.000552	0.196524	0.857510
C53	C	0.598232	-0.246009	0.375854
C54	C	1.098232	0.253991	0.875854
C55	C	0.598260	-0.318749	0.289758
C56	C	1.098260	0.181251	0.789758
C57	C	0.548889	-0.261313	0.308007
C58	C	1.048889	0.238687	0.808007
C59	C	0.730636	-0.303415	0.357565
C60	C	1.230636	0.196585	0.857565
C61	C	0.416456	-0.303491	0.357489
C62	C	0.916456	0.196509	0.857489
C63	C	1.120764	-1.036376	0.405103
C64	C	1.620764	-0.536376	0.905103
C65	C	1.120743	-0.970634	0.405091
C66	C	1.620743	-0.470634	0.905091
C67	C	1.073267	-0.937807	0.357563
C68	C	1.573267	-0.437807	0.857563
C69	C	1.025823	-0.970728	0.310029
C70	C	1.525823	-0.470728	0.810029
C71	C	1.025851	-1.036470	0.310037
C72	C	1.525851	-0.536470	0.810037
N73	N	1.008219	-0.834627	0.351811
N74	N	1.508219	-0.334627	0.851811
N75	N	1.008194	-0.772175	0.351808
N76	N	1.508194	-0.272175	0.851808
C77	C	1.073180	-0.739732	0.357535
C78	C	1.573180	-0.239732	0.857535
N79	N	1.138192	-0.772100	0.363280
N80	N	1.638192	-0.272100	0.863280
N81	N	1.138216	-0.834557	0.363287
N82	N	1.638216	-0.334557	0.863287
C83	C	1.073231	-0.866522	0.357549
C84	C	1.573231	-0.366522	0.857549
C85	C	1.120601	-0.635533	0.405049
C86	C	1.620601	-0.135533	0.905049
C87	C	1.120580	-0.569790	0.405032
C88	C	1.620580	-0.069790	0.905032
C89	C	1.025654	-0.569886	0.309974
C90	C	1.525654	-0.069886	0.809974
C91	C	1.025681	-0.635628	0.309987
C92	C	1.525681	-0.135628	0.809987
C93	C	1.073153	-0.668448	0.357529
C94	C	1.573153	-0.168448	0.857529
C95	C	1.266871	-0.303491	0.357485
C96	C	1.766871	0.196509	0.857485
C97	C	1.349417	-0.303510	0.357471
C98	C	1.849417	0.196490	0.857471
C99	C	1.073195	-0.303420	0.551222
C100	C	1.573195	0.196580	1.051222
C101	C	1.073207	-0.303408	0.633768
C102	C	1.573207	0.196592	1.133768
C103	C	1.073276	-0.139258	0.357560
C104	C	1.573276	0.360742	0.857560
C105	C	1.073324	-0.069289	0.357579
C106	C	1.573324	0.430711	0.857579
C107	C	1.073179	-0.303430	0.164564
C108	C	1.573179	0.196570	0.664564
C109	C	1.073311	-0.303265	0.082019
C110	C	1.573311	0.196735	0.582019
C111	C	1.023611	-0.345387	0.833216
C112	C	1.523611	0.154613	1.333216
C113	C	1.091366	-0.360785	0.882589
C114	C	1.591366	0.139215	1.382589
C115	C	1.073244	-0.303360	0.784899
C116	C	1.573244	0.196640	1.284899
C117	C	1.005526	-0.287944	0.882608
C118	C	1.505526	0.212056	1.382608
C119	C	1.073273	-0.303315	0.930884
C120	C	1.573273	0.196685	1.430884
C121	C	1.141035	-0.318788	0.833184
C122	C	1.641035	0.181212	1.333184
C123	C	1.055149	-0.245921	0.833199
C124	C	1.555149	0.254079	1.333199
C125	C	1.122951	-0.261297	0.882549
C126	C	1.622951	0.238703	1.382549
C127	C	1.073226	-0.303388	0.700800
C128	C	1.573226	0.196612	1.200800
C129	C	1.073299	-0.303287	1.014980
C130	C	1.573299	0.196713	1.514980
H131	H	0.619879	-0.381124	0.448976
H132	H	1.119879	0.118876	0.948976
H133	H	1.159216	-0.542991	0.443730
H134	H	1.659216	-0.042991	0.943730
Cl135	Cl	0.515357	-0.435825	0.315422
Cl136	Cl	1.015357	0.064175	0.815422
H137	H	1.159426	-1.063094	0.443809
H138	H	1.659426	-0.563094	0.943809
Cl139	Cl	1.180287	-0.676796	0.464806
Cl140	Cl	1.680287	-0.176796	0.964806
Cl141	Cl	0.631577	-0.171027	0.399800
Cl142	Cl	1.131577	0.328973	0.899800
H143	H	0.987169	-0.943998	0.271330
H144	H	1.487169	-0.443998	0.771330
Cl145	Cl	1.180387	-0.929248	0.464841
Cl146	Cl	1.680387	-0.429248	0.964841
Cl147	Cl	0.515298	-0.268187	0.513814
Cl148	Cl	1.015298	0.231813	1.013814
H149	H	0.527366	-0.225664	0.266121
H150	H	1.027366	0.274336	0.766121
H151	H	1.198332	-0.331863	0.811566
H152	H	1.698332	0.168137	1.311566
Cl153	Cl	0.965976	-0.528624	0.250217
Cl154	Cl	1.465976	-0.028624	0.750217
H155	H	0.981677	-0.380974	0.811555
H156	H	1.481677	0.119026	1.311555
Cl157	Cl	0.966205	-1.077849	0.250288
Cl158	Cl	1.466205	-0.577849	0.750288
Cl159	Cl	0.917091	-0.267841	0.916126
Cl160	Cl	1.417091	0.232159	1.416126
Cl161	Cl	0.966033	-0.677007	0.250243
Cl162	Cl	1.466033	-0.177007	0.750243
H163	H	1.106688	-0.409341	0.904283
H164	H	1.606688	0.090659	1.404283
H165	H	0.619990	-0.331705	0.232464
H166	H	1.119990	0.168295	0.732464
Cl167	Cl	1.187845	-0.206396	0.915788
Cl168	Cl	1.687845	0.293604	1.415788
H169	H	1.039806	-0.197379	0.811487
H170	H	1.539806	0.302621	1.311487
