data_functionalizedCrystal
_audit_creation_method	'MofGen! by Chris Wilmer'
_symmetry_space_group_name_H-M	'P1'
_symmetry_Int_Tables_number	1
_symmetry_cell_setting	triclinic
loop_
_symmetry_equiv_pos_as_xyz
  x,y,z
_cell_length_a	11.792254
_cell_length_b	10.540510
_cell_length_c	10.268362
_cell_angle_alpha	89.997199
_cell_angle_beta	89.995475
_cell_angle_gamma	84.355954
loop_
_atom_site_label
_atom_site_type_symbol
_atom_site_fract_x
_atom_site_fract_y
_atom_site_fract_z
O1	O	1.507337	0.174071	-0.108292
O2	O	1.177043	0.191986	-0.108294
O3	O	1.349743	-0.001705	-0.108292
O4	O	1.334637	0.367762	-0.108293
O5	O	1.349728	-0.001713	0.108309
O6	O	1.177027	0.191978	0.108307
O7	O	1.507322	0.174063	0.108309
Cu8	Cu	1.342173	0.183020	0.128085
Cu9	Cu	1.342191	0.183029	-0.128070
O10	O	1.334621	0.367754	0.108308
C11	C	1.134741	0.190854	0.000006
C12	C	1.008720	0.187476	0.000005
C13	C	0.906377	0.184731	-0.000000
C14	C	0.777981	0.181299	-0.000001
C15	C	1.348609	-0.049009	0.000006
C16	C	1.345242	-0.189948	-0.000002
C17	C	1.465216	-0.407788	0.000495
C18	C	1.468808	-0.261204	-0.000000
C19	C	1.281996	-0.234499	-0.123690
C20	C	1.279279	-0.381251	-0.123786
C21	C	1.276688	-0.381061	0.122529
C22	C	1.282549	-0.234738	0.124157
C23	C	1.549623	0.175196	0.000006
C24	C	1.675644	0.178573	-0.000001
C25	C	1.335755	0.415058	0.000007
C26	C	1.339123	0.555997	0.000006
N27	N	1.342169	0.183012	0.308251
N28	N	1.342204	0.183027	-0.308236
C29	C	1.342185	0.183027	0.573922
C30	C	1.342172	0.183022	0.426084
H31	H	1.513350	-0.449901	0.089197
H32	H	1.513085	-0.451444	-0.087706
H33	H	1.183913	-0.402913	0.123362
H34	H	1.325931	-0.203780	-0.215737
N35	N	1.163343	-0.409729	-0.130874
N36	N	1.130955	-0.473133	-0.224263
H37	H	1.049077	-0.493238	-0.229279
H38	H	1.191029	-0.186818	-0.128290
H39	H	1.518294	-0.232022	0.088662
N40	N	1.169364	-0.172857	0.133542
N41	N	1.106914	-0.197261	0.226790
H42	H	1.026971	-0.153561	0.233411
N43	N	1.531265	-0.225734	-0.111408
N44	N	1.619222	-0.170035	-0.096924
H45	H	1.663335	-0.144985	-0.175611
H46	H	1.322513	-0.421602	-0.216244
H47	H	1.315950	-0.423372	0.216284
H48	H	1.328569	-0.206277	0.215660
