data_functionalizedCrystal
_audit_creation_method	'MofGen! by Chris Wilmer'
_symmetry_space_group_name_H-M	'P1'
_symmetry_Int_Tables_number	1
_symmetry_cell_setting	triclinic
loop_
_symmetry_equiv_pos_as_xyz
  x,y,z
_cell_length_a	18.215407
_cell_length_b	12.827892
_cell_length_c	18.215399
_cell_angle_alpha	90.023838
_cell_angle_beta	90.019833
_cell_angle_gamma	90.015840
loop_
_atom_site_label
_atom_site_type_symbol
_atom_site_fract_x
_atom_site_fract_y
_atom_site_fract_z
Zn1	Zn	1.125121	-0.416031	0.416137
Zn2	Zn	1.125049	-0.590790	0.293079
Zn3	Zn	1.002053	-0.416065	0.293084
Zn4	Zn	1.002039	-0.590732	0.416104
O5	O	1.063566	-0.503405	0.354601
O6	O	1.228095	-0.439223	0.399825
O7	O	1.108710	-0.567651	0.190096
O8	O	1.018414	-0.269825	0.309423
O9	O	1.228043	-0.567618	0.309415
O10	O	1.108831	-0.269800	0.399829
O11	O	1.018345	-0.439282	0.190099
O12	O	0.899067	-0.439225	0.309392
O13	O	1.018390	-0.567519	0.519093
O14	O	0.899057	-0.567552	0.399774
O15	O	1.108818	-0.439167	0.519117
O16	O	1.108696	-0.737019	0.309383
O17	O	1.018321	-0.736976	0.399769
C18	C	0.872359	-0.503387	0.354580
C19	C	0.790560	-0.503405	0.354589
C20	C	0.602380	-0.570329	0.401592
C21	C	0.525522	-0.570333	0.401601
C22	C	0.525503	-0.436499	0.307627
C23	C	0.602360	-0.436491	0.307622
C24	C	0.640797	-0.503413	0.354603
C25	C	0.487081	-0.503424	0.354617
C26	C	0.403747	-0.503427	0.354627
C27	C	0.724136	-0.503408	0.354595
C28	C	1.063520	-0.774915	0.354588
C29	C	1.063567	-0.891068	0.354607
C30	C	1.108341	-0.942839	0.309931
C31	C	1.108391	-1.062889	0.309950
C32	C	1.255518	-0.503424	0.354623
C33	C	1.337317	-0.503432	0.354632
C34	C	1.063610	-0.503333	0.546554
C35	C	1.063629	-0.503302	0.628353
C36	C	1.063632	-0.230835	0.354630
C37	C	1.063660	-0.114682	0.354643
C38	C	1.063563	-0.503401	0.163395
C39	C	1.063687	-0.503138	0.081597
C40	C	1.110732	-0.436407	0.816561
C41	C	1.110741	-0.436376	0.893420
C42	C	1.016579	-0.570036	0.893383
C43	C	1.016567	-0.570060	0.816526
C44	C	1.063648	-0.503247	0.778117
C45	C	1.063668	-0.503192	0.931833
C46	C	1.063678	-0.503160	1.015167
C47	C	1.063638	-0.503278	0.694778
H48	H	0.494198	-0.382016	0.269375
O49	O	0.639763	-0.371631	0.261937
C50	C	0.684180	-0.431041	0.214322
H51	H	0.695690	-0.510281	0.240184
H52	H	0.738230	-0.388454	0.204509
H53	H	0.654539	-0.442427	0.159771
H54	H	1.025323	-1.070167	0.392891
O55	O	0.970957	-0.635051	0.930730
C56	C	1.012849	-0.702517	0.975199
H57	H	1.070805	-0.708982	0.952046
H58	H	0.986214	-0.782937	0.976055
H59	H	1.015401	-0.670188	1.033452
O60	O	0.970805	-0.635094	0.779290
C61	C	0.929245	-0.694048	0.829670
H62	H	0.959394	-0.697655	0.884463
H63	H	0.921374	-0.776389	0.807448
H64	H	0.873361	-0.655775	0.837838
H65	H	1.149066	-0.382000	0.785290
O66	O	1.156549	-0.371416	0.930650
C67	C	1.198084	-0.312435	0.880265
H68	H	1.200614	-0.355260	0.825474
H69	H	1.256073	-0.301284	0.902484
H70	H	1.171152	-0.233069	0.872093
H71	H	0.494246	-0.624822	0.439864
H72	H	1.146639	-0.898288	0.271671
O73	O	0.639800	-0.635181	0.447269
C74	C	0.684271	-0.575760	0.494879
H75	H	0.695787	-0.496521	0.469012
H76	H	0.738315	-0.618338	0.504691
H77	H	0.654674	-0.564373	0.549430
H78	H	1.025275	-0.935621	0.392873
O79	O	1.154122	-1.116156	0.264408
C80	C	1.143999	-1.224161	0.274573
H81	H	1.119830	-1.238932	0.331345
H82	H	1.199127	-1.265637	0.269704
H83	H	1.104858	-1.255251	0.230891
