data_functionalizedCrystal
_audit_creation_method	'MofGen! by Chris Wilmer'
_symmetry_space_group_name_H-M	'P1'
_symmetry_Int_Tables_number	1
_symmetry_cell_setting	triclinic
loop_
_symmetry_equiv_pos_as_xyz
  x,y,z
_cell_length_a	11.792254
_cell_length_b	11.792241
_cell_length_c	11.295483
_cell_angle_alpha	94.123059
_cell_angle_beta	85.866389
_cell_angle_gamma	84.196007
loop_
_atom_site_label
_atom_site_type_symbol
_atom_site_fract_x
_atom_site_fract_y
_atom_site_fract_z
O1	O	1.514498	0.148040	-0.099024
O2	O	2.014498	0.648040	0.400976
O3	O	1.184159	0.164058	-0.099027
O4	O	1.684159	0.664058	0.400973
O5	O	1.357345	-0.009121	-0.099017
O6	O	1.857345	0.490879	0.400983
O7	O	1.341313	0.321218	-0.099034
O8	O	1.841313	0.821218	0.400966
O9	O	1.342133	0.006066	0.099033
O10	O	1.842133	0.506066	0.599033
O11	O	1.168948	0.179245	0.099023
O12	O	1.668948	0.679245	0.599023
O13	O	1.499287	0.163227	0.099026
O14	O	1.999287	0.663227	0.599026
Cu15	Cu	1.332729	0.172623	0.117108
Cu16	Cu	1.832729	0.672623	0.617108
Cu17	Cu	1.350718	0.154662	-0.117109
Cu18	Cu	1.850718	0.654662	0.382891
O19	O	1.326102	0.336406	0.099016
O20	O	1.826102	0.836406	0.599016
C21	C	1.134263	0.170642	-0.000002
C22	C	1.634263	0.670642	0.499998
C23	C	1.008250	0.167622	-0.000003
C24	C	1.508250	0.667622	0.499997
C25	C	1.348732	-0.043818	0.000007
C26	C	1.848732	0.456182	0.500007
C27	C	1.345717	-0.169832	0.000006
C28	C	1.845717	0.330168	0.500006
C29	C	0.905914	0.165168	-0.000008
C30	C	1.405914	0.665168	0.499992
C31	C	0.777527	0.162099	-0.000009
C32	C	1.277527	0.662099	0.499991
C33	C	1.340176	-0.400546	-0.000014
C34	C	1.840176	0.099454	0.499986
C35	C	1.343255	-0.272160	-0.000003
C36	C	1.843255	0.227840	0.499997
C37	C	1.549183	0.156642	-0.000002
C38	C	2.049183	0.656642	0.499998
C39	C	1.675197	0.159662	-0.000009
C40	C	2.175197	0.659662	0.499991
C41	C	1.334715	0.371103	-0.000011
C42	C	1.834715	0.871103	0.499989
C43	C	1.337730	0.497116	-0.000018
C44	C	1.837730	0.997116	0.499982
N45	N	1.320084	0.185254	0.281843
N46	N	1.820084	0.685254	0.781843
N47	N	1.363371	0.142022	-0.281845
N48	N	1.863371	0.642022	0.218155
C49	C	1.454392	0.051028	0.531140
C50	C	1.954392	0.551028	1.031140
C51	C	1.444845	0.060582	0.655804
C52	C	1.944845	0.560582	1.155804
C53	C	1.291437	0.213910	0.655835
C54	C	1.791437	0.713910	1.155835
C55	C	1.300985	0.204356	0.531172
C56	C	1.800985	0.704356	1.031172
C57	C	1.382466	0.122913	0.468829
C58	C	1.882466	0.622913	0.968829
C59	C	1.392018	0.113366	0.344164
C60	C	1.892018	0.613366	0.844164
C61	C	1.238606	0.266688	0.344197
C62	C	1.738606	0.766688	0.844197
C63	C	1.229059	0.276242	0.468860
C64	C	1.729059	0.776242	0.968860
H65	H	1.458367	0.047054	0.293405
H66	H	1.958367	0.547054	0.793405
H67	H	1.225090	0.280212	0.706611
H68	H	1.725090	0.780212	1.206611
H69	H	1.520745	-0.015279	0.480380
H70	H	2.020745	0.484721	0.980380
H71	H	1.503413	0.002044	0.706534
H72	H	2.003413	0.502044	1.206534
C73	C	1.139426	0.365817	0.537452
C74	C	1.639426	0.865817	1.037452
N75	N	1.071912	0.433286	0.589114
N76	N	1.571912	0.933286	1.089114
C77	C	1.159482	0.345768	0.275645
C78	C	1.659482	0.845768	0.775645
N79	N	1.099889	0.405330	0.224009
N80	N	1.599889	0.905330	0.724009
