data_functionalizedCrystal
_audit_creation_method	'MofGen! by Chris Wilmer'
_symmetry_space_group_name_H-M	'P1'
_symmetry_Int_Tables_number	1
_symmetry_cell_setting	triclinic
loop_
_symmetry_equiv_pos_as_xyz
  x,y,z
_cell_length_a	10.685980
_cell_length_b	13.897447
_cell_length_c	10.686551
_cell_angle_alpha	85.594025
_cell_angle_beta	81.591741
_cell_angle_gamma	94.386237
loop_
_atom_site_label
_atom_site_type_symbol
_atom_site_fract_x
_atom_site_fract_y
_atom_site_fract_z
Zn1	Zn	1.995765	-0.216203	-0.866700
Zn2	Zn	2.329098	0.117130	-0.533366
Zn3	Zn	2.662432	0.450464	-0.200033
Zn4	Zn	1.979324	-0.390948	-0.654433
Zn5	Zn	2.312657	-0.057615	-0.321100
Zn6	Zn	2.645991	0.275718	0.012234
Zn7	Zn	1.767189	-0.243050	-0.638164
Zn8	Zn	2.100523	0.090283	-0.304830
Zn9	Zn	2.433856	0.423617	0.028503
Zn10	Zn	1.783448	-0.390855	-0.850343
Zn11	Zn	2.116781	-0.057521	-0.517010
Zn12	Zn	2.450114	0.275812	-0.183677
O13	O	1.881432	-0.310264	-0.752410
O14	O	2.214765	0.023069	-0.419077
O15	O	2.548098	0.356403	-0.085743
O16	O	2.171219	-0.228187	-0.852196
O17	O	2.504552	0.105146	-0.518863
O18	O	2.837886	0.438480	-0.185529
O19	O	1.937499	-0.382604	-0.474643
O20	O	2.270832	-0.049271	-0.141309
O21	O	2.604166	0.284063	0.192024
O22	O	1.797587	-0.104500	-0.668516
O23	O	2.130920	0.228833	-0.335183
O24	O	2.464254	0.562166	-0.001849
O25	O	2.159140	-0.356572	-0.696245
O26	O	2.492473	-0.023238	-0.362911
O27	O	2.825806	0.310095	-0.029578
O28	O	1.965521	-0.084776	-0.836420
O29	O	2.298854	0.248557	-0.503087
O30	O	2.632187	0.581891	-0.169754
O31	O	1.781645	-0.273944	-0.462690
O32	O	2.114978	0.059389	-0.129356
O33	O	2.448311	0.392723	0.203977
O34	O	1.591711	-0.273853	-0.652656
O35	O	1.925045	0.059480	-0.319323
O36	O	2.258378	0.392814	0.014011
O37	O	1.825297	-0.356412	-1.030145
O38	O	2.158630	-0.023079	-0.696812
O39	O	2.491964	0.310255	-0.363479
O40	O	1.603656	-0.382444	-0.808543
O41	O	1.936990	-0.049111	-0.475210
O42	O	2.270323	0.284222	-0.141877
O43	O	1.981286	-0.228096	-1.042162
O44	O	2.314619	0.105237	-0.708829
O45	O	2.647952	0.438570	-0.375496
O46	O	1.953264	-0.525924	-0.680385
O47	O	2.286597	-0.192591	-0.347051
O48	O	2.619931	0.140742	-0.013718
O49	O	1.809355	-0.525855	-0.824319
O50	O	2.142688	-0.192522	-0.490986
O51	O	2.476021	0.140811	-0.157652
C52	C	1.551625	-0.331052	-0.727060
C53	C	1.884958	0.002281	-0.393727
C54	C	2.218292	0.335614	-0.060393
C55	C	1.410535	-0.339967	-0.716245
C56	C	1.743868	-0.006634	-0.382912
C57	C	2.077202	0.326700	-0.049579
C58	C	1.881326	-0.560887	-0.752373
C59	C	2.214659	-0.227553	-0.419039
C60	C	2.547993	0.105780	-0.085706
C61	C	1.881400	-0.668094	-0.752408
C62	C	2.214734	-0.334761	-0.419075
C63	C	2.548067	-0.001428	-0.085741
C64	C	1.881464	-0.755158	-0.752442
C65	C	2.214797	-0.421825	-0.419108
C66	C	2.548131	-0.088492	-0.085775
C67	C	1.881555	-0.864383	-0.752481
C68	C	2.214889	-0.531050	-0.419148
C69	C	2.548222	-0.197716	-0.085815
C70	C	2.212526	-0.289395	-0.777860
C71	C	2.545859	0.043938	-0.444526
C72	C	2.879192	0.377271	-0.111193
C73	C	2.353618	-0.280502	-0.788705
C74	C	2.686952	0.052831	-0.455372
C75	C	3.020285	0.386165	-0.122038
C76	C	1.906939	-0.289249	-1.083500
C77	C	2.240272	0.044084	-0.750166
C78	C	2.573605	0.377418	-0.416833
C79	C	1.917809	-0.280294	-1.224590
C80	C	2.251142	0.053040	-0.891257
C81	C	2.584475	0.386373	-0.557924
C82	C	1.881574	-0.058659	-0.752478
C83	C	2.214907	0.274675	-0.419145
C84	C	2.548241	0.608008	-0.085811
C85	C	1.881635	0.048560	-0.752507
C86	C	2.214968	0.381894	-0.419174
C87	C	2.548302	0.715227	-0.085840
C88	C	1.856096	-0.331123	-0.422614
C89	C	2.189430	0.002210	-0.089281
C90	C	2.522763	0.335543	0.244053
C91	C	1.845473	-0.339791	-0.281543
C92	C	2.178806	-0.006458	0.051790
C93	C	2.512139	0.326875	0.385124
H94	H	1.351318	-0.397701	-0.645925
H95	H	1.684651	-0.064368	-0.312592
H96	H	2.017985	0.268965	0.020741
H97	H	1.775231	-0.397584	-1.222364
H98	H	2.108564	-0.064250	-0.889031
H99	H	2.441898	0.269083	-0.555697
H100	H	1.988064	-0.222504	-1.283777
H101	H	2.321397	0.110830	-0.950444
H102	H	2.654731	0.444163	-0.617110
H103	H	1.412828	-0.222766	-0.859012
H104	H	1.746161	0.110567	-0.525679
H105	H	2.079495	0.443901	-0.192346
