data_functionalizedCrystal
_audit_creation_method	'MofGen! by Chris Wilmer'
_symmetry_space_group_name_H-M	'P1'
_symmetry_Int_Tables_number	1
_symmetry_cell_setting	triclinic
loop_
_symmetry_equiv_pos_as_xyz
  x,y,z
_cell_length_a	16.109304
_cell_length_b	10.654550
_cell_length_c	9.130313
_cell_angle_alpha	90.000276
_cell_angle_beta	89.998292
_cell_angle_gamma	96.026216
loop_
_atom_site_label
_atom_site_type_symbol
_atom_site_fract_x
_atom_site_fract_y
_atom_site_fract_z
O1	O	0.116774	-1.666257	-0.121680
O2	O	0.127899	-1.300628	-0.121706
O3	O	0.001365	-1.493485	-0.121693
O4	O	0.243308	-1.473400	-0.121693
O5	O	0.001362	-1.493472	0.121906
O6	O	0.127896	-1.300615	0.121893
O7	O	0.116770	-1.666244	0.121919
Cu8	Cu	0.122332	-1.483428	0.144148
Cu9	Cu	0.122337	-1.483444	-0.143936
O10	O	0.243304	-1.473387	0.121906
C11	C	0.127080	-1.253834	0.000090
C12	C	0.124636	-1.114424	0.000080
C13	C	-0.029616	-1.492664	0.000103
C14	C	-0.121926	-1.490223	0.000093
C15	C	0.117589	-1.713037	0.000120
C16	C	0.120033	-1.852447	0.000120
C17	C	-0.334295	-1.484591	-0.132688
C18	C	-0.421029	-1.482285	-0.132687
C19	C	-0.421030	-1.482277	0.132898
C20	C	-0.334297	-1.484574	0.132895
C21	C	-0.290932	-1.485736	0.000098
C22	C	-0.464399	-1.481135	0.000102
C23	C	-0.558439	-1.478636	0.000104
C24	C	-0.196885	-1.488234	0.000095
C25	C	0.274285	-1.474208	0.000107
C26	C	0.366595	-1.476649	0.000107
N27	N	0.122329	-1.483426	0.346771
C28	C	0.199138	-1.033929	0.000084
C29	C	0.196836	-0.902939	0.000109
C30	C	0.045526	-0.932953	0.000120
C31	C	0.047828	-1.063940	0.000105
N32	N	0.122334	-1.483455	-0.346558
C33	C	0.066323	-1.568852	0.423429
C34	C	0.066324	-1.568864	0.576765
C35	C	0.178342	-1.398021	0.576774
C36	C	0.178337	-1.398004	0.423440
H37	H	-0.456330	-1.481350	-0.240814
C38	C	-0.103806	-0.975778	0.000129
C39	C	-0.038899	-0.877457	0.000131
H40	H	-0.155927	-0.941516	0.000140
H41	H	-0.099759	-1.026236	-0.084817
H42	H	-0.099756	-1.026248	0.085081
H43	H	-0.042945	-0.826992	-0.084826
H44	H	-0.042948	-0.826978	0.085086
C45	C	-0.343007	-1.484351	-0.395205
C46	C	-0.286626	-1.485851	-0.278656
H47	H	-0.313578	-1.485118	-0.485320
H48	H	-0.382752	-1.556641	-0.389683
H49	H	-0.370919	-1.410262	-0.389664
H50	H	-0.258718	-1.559945	-0.284191
H51	H	-0.246867	-1.413554	-0.284181
C52	C	-0.553989	-1.478779	0.250829
C53	C	-0.468701	-1.481024	0.278864
H54	H	-0.583417	-1.478019	0.340946
H55	H	-0.562283	-1.405216	0.196286
H56	H	-0.574108	-1.551595	0.196260
H57	H	-0.448580	-1.408203	0.333424
H58	H	-0.460402	-1.554595	0.333430
H59	H	0.261680	-1.075028	0.000074
C60	C	0.346629	-0.886439	0.000075
C61	C	0.278730	-0.814459	0.000104
H62	H	0.397188	-0.831812	0.000063
H63	H	0.344382	-0.938157	0.085011
H64	H	0.344369	-0.938148	-0.084887
H65	H	0.280987	-0.762756	0.085071
H66	H	0.280978	-0.762718	-0.084841
H67	H	0.223944	-1.328434	0.361021
C68	C	-0.037361	-1.228660	-0.125131
C69	C	-0.034069	-1.152435	0.000097
H70	H	-0.087916	-1.283297	-0.125125
H71	H	-0.035121	-1.176931	-0.210059
H72	H	0.008717	-1.277464	-0.125123
H73	H	-0.080143	-1.103623	0.000084
H74	H	-0.036317	-1.204170	0.085047
H75	H	0.020717	-1.638406	0.361009
C76	C	0.225815	-1.180608	0.624027
C77	C	0.239905	-1.304132	0.661059
H78	H	0.263820	-1.122648	0.676069
H79	H	0.233833	-1.168377	0.521750
H80	H	0.170239	-1.167024	0.649174
H81	H	0.295479	-1.317720	0.635903
H82	H	0.231894	-1.316369	0.763360
C83	C	-0.044392	-1.737742	0.561345
C84	C	0.004764	-1.662772	0.661027
H85	H	-0.082395	-1.795723	0.613368
H86	H	-0.074623	-1.685483	0.501554
H87	H	-0.009494	-1.782882	0.501526
H88	H	-0.030134	-1.617625	0.720840
H89	H	0.034997	-1.715038	0.720843
H90	H	-0.298989	-1.485499	0.241032
