data_functionalizedCrystal
_audit_creation_method	'MofGen! by Chris Wilmer'
_symmetry_space_group_name_H-M	'P1'
_symmetry_Int_Tables_number	1
_symmetry_cell_setting	triclinic
loop_
_symmetry_equiv_pos_as_xyz
  x,y,z
_cell_length_a	19.188931
_cell_length_b	14.044220
_cell_length_c	12.503572
_cell_angle_alpha	86.156832
_cell_angle_beta	86.495213
_cell_angle_gamma	91.833171
loop_
_atom_site_label
_atom_site_type_symbol
_atom_site_fract_x
_atom_site_fract_y
_atom_site_fract_z
O1	O	0.937461	-0.112812	-0.089284
O2	O	0.735178	-0.128737	-0.089295
O3	O	0.833283	0.017197	-0.089279
O4	O	0.839357	-0.258746	-0.089300
O5	O	0.825906	0.006204	0.089361
O6	O	0.727801	-0.139730	0.089345
O7	O	0.930085	-0.123805	0.089356
Cu8	Cu	0.828269	-0.132771	0.105662
Cu9	Cu	0.836993	-0.119771	-0.105601
O10	O	0.831980	-0.269739	0.089340
C11	C	0.826937	0.047004	0.000041
C12	C	0.819008	0.152197	0.000042
C13	C	0.705446	-0.133718	0.000024
C14	C	0.627841	-0.132169	0.000020
C15	C	0.959817	-0.118824	0.000035
C16	C	1.037422	-0.120372	0.000032
C17	C	1.076820	-0.034742	0.000029
C18	C	1.149738	-0.036197	0.000035
C19	C	1.183255	-0.123285	0.000023
C20	C	1.143847	-0.208927	0.000032
C21	C	1.070931	-0.207470	0.000036
N22	N	1.298057	-0.186112	-0.060795
N23	N	1.367324	-0.187490	-0.060801
C24	C	1.402947	-0.127679	0.000012
N25	N	1.366687	-0.066424	0.060818
N26	N	1.297413	-0.065043	0.060820
C27	C	1.262320	-0.124874	0.000019
C28	C	1.521411	-0.043621	0.000018
C29	C	1.594329	-0.045080	0.000031
C30	C	1.588438	-0.217812	0.000016
C31	C	1.515520	-0.216351	0.000014
C32	C	1.482012	-0.129253	0.000010
C33	C	0.838326	-0.299546	0.000017
C34	C	0.846256	-0.404738	0.000009
N35	N	0.822138	-0.141915	0.254254
C36	C	0.804513	0.344799	0.000026
C37	C	0.860747	0.402665	0.000026
C38	C	0.852682	0.509836	0.000017
C39	C	0.812577	0.237618	0.000035
N40	N	0.843130	-0.110620	-0.254192
C41	C	0.813120	-0.155373	0.473367
C42	C	0.852146	-0.097164	0.526701
C43	C	0.847128	-0.104653	0.648623
C44	C	0.818137	-0.147886	0.351434
H45	H	1.049542	0.036180	0.000029
H46	H	1.171141	-0.279835	0.000024
N47	N	0.928739	0.363836	0.000036
N48	N	0.935281	0.275568	0.000047
H49	H	0.983298	0.248138	0.000058
N50	N	1.634587	0.042386	0.000020
N51	N	1.699690	0.041075	0.000021
H52	H	1.728124	0.102849	0.000013
H53	H	0.775943	-0.210828	0.519269
H54	H	1.181822	0.033536	0.000030
N55	N	1.622676	-0.306765	0.000020
N56	N	1.687779	-0.308057	0.000026
H57	H	1.711963	-0.370882	0.000035
H58	H	0.889326	-0.041707	0.480794
N59	N	1.030683	-0.294946	0.000057
N60	N	1.033747	-0.357564	0.075360
H61	H	1.005321	-0.419345	0.075375
N62	N	1.487188	0.045351	0.000017
N63	N	1.522378	0.121803	0.000026
H64	H	1.498210	0.184641	0.000026
N65	N	1.475275	-0.303825	0.000029
N66	N	1.478344	-0.366443	0.075331
H67	H	1.449921	-0.428227	0.075348
N68	N	0.736526	0.383629	0.000015
N69	N	0.729990	0.471898	0.000009
H70	H	0.681975	0.499332	0.000003
