data_functionalizedCrystal
_audit_creation_method	'MofGen! by Chris Wilmer'
_symmetry_space_group_name_H-M	'P1'
_symmetry_Int_Tables_number	1
_symmetry_cell_setting	triclinic
loop_
_symmetry_equiv_pos_as_xyz
  x,y,z
_cell_length_a	8.559649
_cell_length_b	16.176319
_cell_length_c	17.699083
_cell_angle_alpha	90.007696
_cell_angle_beta	76.530839
_cell_angle_gamma	90.007370
loop_
_atom_site_label
_atom_site_type_symbol
_atom_site_fract_x
_atom_site_fract_y
_atom_site_fract_z
O1	O	2.120234	0.068732	-0.025680
O2	O	2.620234	0.568732	0.474320
O3	O	1.654878	0.068738	0.013416
O4	O	2.154878	0.568738	0.513416
O5	O	1.900704	0.068727	-0.117074
O6	O	2.400704	0.568727	0.382926
O7	O	1.874409	0.068742	0.104810
O8	O	2.374409	0.568742	0.604810
O9	O	1.900670	-0.068766	-0.117080
O10	O	2.400670	0.431234	0.382920
O11	O	1.654845	-0.068756	0.013410
O12	O	2.154845	0.431244	0.513410
O13	O	2.120200	-0.068761	-0.025686
O14	O	2.620200	0.431239	0.474314
Cu15	Cu	1.887519	-0.081313	-0.006138
Cu16	Cu	2.387519	0.418687	0.493862
Cu17	Cu	1.887559	0.081289	-0.006132
Cu18	Cu	2.387559	0.581289	0.493868
O19	O	1.874375	-0.068751	0.104804
O20	O	2.374375	0.431249	0.604804
C21	C	1.595320	-0.000008	0.016376
C22	C	2.095320	0.499992	0.516376
C23	C	1.417906	-0.000007	0.025195
C24	C	1.917906	0.499993	0.525195
N25	N	1.887503	-0.195678	-0.006144
N26	N	2.387503	0.304322	0.493856
C27	C	1.996387	-0.238946	-0.063906
C28	C	2.496387	0.261054	0.436094
C29	C	1.996395	-0.325494	-0.063907
C30	C	2.496395	0.174506	0.436093
C31	C	1.887526	-0.368770	-0.006143
C32	C	2.387526	0.131230	0.493857
C33	C	1.778630	-0.325496	0.051622
C34	C	2.278630	0.174504	0.551622
C35	C	1.778615	-0.238950	0.051620
C36	C	2.278615	0.261050	0.551620
C37	C	1.778685	-0.674524	0.051633
C38	C	2.278685	-0.174524	0.551633
C39	C	1.778711	-0.761075	0.051633
C40	C	2.278711	-0.261075	0.551633
C41	C	1.996464	-0.761067	-0.063893
C42	C	2.496464	-0.261067	0.436107
C43	C	1.996450	-0.674522	-0.063896
C44	C	2.496450	-0.174522	0.436104
C45	C	1.887549	-0.631255	-0.006134
C46	C	2.387549	-0.131255	0.493866
C47	C	1.887540	-0.537410	-0.006134
C48	C	2.387540	-0.037410	0.493866
C49	C	1.887541	-0.462613	-0.006139
C50	C	2.387541	0.037387	0.493861
C51	C	2.179758	-0.000013	-0.028646
C52	C	2.679758	0.499987	0.471354
C53	C	2.357173	-0.000010	-0.037465
C54	C	2.857173	0.499990	0.462535
C55	C	1.899745	-0.000019	-0.145220
C56	C	2.399745	0.499981	0.354780
C57	C	1.896918	-0.000020	-0.229076
C58	C	2.396918	0.499980	0.270924
N59	N	1.887588	0.195654	-0.006133
N60	N	2.387588	0.695654	0.493867
C61	C	2.041212	-0.000022	-0.285959
C62	C	2.541212	0.499978	0.214041
C63	C	2.038547	-0.000015	-0.364749
C64	C	2.538547	0.499985	0.135251
C65	C	1.891585	-0.000011	-0.386656
C66	C	2.391585	0.499989	0.113344
C67	C	1.747280	-0.000006	-0.329767
C68	C	2.247280	0.499994	0.170233
C69	C	1.749947	-0.000007	-0.250978
C70	C	2.249947	0.499993	0.249022
C71	C	1.736521	0.000001	-0.647514
C72	C	2.236521	0.500001	-0.147514
C73	C	1.733865	0.000000	-0.726310
C74	C	2.233865	0.500000	-0.226310
C75	C	2.025120	-0.000007	-0.761286
C76	C	2.525120	0.499993	-0.261286
C77	C	2.027787	-0.000008	-0.682496
C78	C	2.527787	0.499992	-0.182496
C79	C	1.883483	0.000001	-0.625614
C80	C	2.383483	0.500001	-0.125614
C81	C	1.886375	-0.000005	-0.540181
C82	C	2.386375	0.499995	-0.040181
C83	C	1.888692	-0.000010	-0.472088
C84	C	2.388692	0.499990	0.027912
C85	C	1.875334	-0.000002	0.132950
C86	C	2.375334	0.499998	0.632950
C87	C	1.878161	0.000003	0.216806
C88	C	2.378161	0.500003	0.716806
H89	H	1.440904	-0.000010	-0.097859
H90	H	1.940904	0.499990	0.402141
H91	H	1.689978	-0.360737	0.098653
H92	H	2.189978	0.139263	0.598653
H93	H	1.619019	0.000009	-0.601208
H94	H	2.119019	0.500009	-0.101208
H95	H	1.334165	0.000002	0.085592
H96	H	1.834165	0.500002	0.585592
Cl97	Cl	2.219954	-0.000021	-0.436257
Cl98	Cl	2.719954	0.499979	0.063743
H99	H	2.085107	-0.639288	-0.110931
H100	H	2.585107	-0.139288	0.389069
H101	H	2.085048	-0.203716	-0.110941
H102	H	2.585048	0.296284	0.389059
H103	H	1.690050	-0.796310	0.098673
H104	H	2.190050	-0.296310	0.598673
Cl105	Cl	2.133279	-0.379890	-0.136524
Cl106	Cl	2.633279	0.120110	0.363476
H107	H	2.085133	-0.796305	-0.110929
H108	H	2.585133	-0.296305	0.389071
H109	H	1.690017	-0.639303	0.098667
H110	H	2.190017	-0.139303	0.598667
H111	H	1.689949	-0.203722	0.098655
H112	H	2.189949	0.296278	0.598655
Cl113	Cl	2.206535	-0.000016	-0.832800
Cl114	Cl	2.706535	0.499984	-0.332800
H115	H	2.160885	-0.000031	-0.268130
H116	H	2.660885	0.499969	0.231870
H117	H	2.147458	-0.000016	-0.664666
H118	H	2.647458	0.499984	-0.164666
H119	H	1.614184	0.000002	-0.744141
H120	H	2.114184	0.500002	-0.244141
H121	H	1.627621	0.000003	-0.347609
H122	H	2.127621	0.500003	0.152391
Cl123	Cl	1.568541	-0.000000	-0.179467
Cl124	Cl	2.068541	0.500000	0.320533
