data_functionalizedCrystal
_audit_creation_method	'MofGen! by Chris Wilmer'
_symmetry_space_group_name_H-M	'P1'
_symmetry_Int_Tables_number	1
_symmetry_cell_setting	triclinic
loop_
_symmetry_equiv_pos_as_xyz
  x,y,z
_cell_length_a	11.169417
_cell_length_b	14.908178
_cell_length_c	11.169409
_cell_angle_alpha	93.334554
_cell_angle_beta	90.019824
_cell_angle_gamma	93.314955
loop_
_atom_site_label
_atom_site_type_symbol
_atom_site_fract_x
_atom_site_fract_y
_atom_site_fract_z
Zn1	Zn	1.807331	-0.359096	0.650924
Zn2	Zn	2.307331	0.140904	1.150924
Zn3	Zn	1.795609	-0.510002	0.438634
Zn4	Zn	2.295609	-0.010002	0.938634
Zn5	Zn	1.606613	-0.359151	0.450254
Zn6	Zn	2.106613	0.140849	0.950254
Zn7	Zn	1.595018	-0.509929	0.639285
Zn8	Zn	2.095018	-0.009929	1.139285
O9	O	1.701143	-0.434545	0.544774
O10	O	2.201143	0.065455	1.044774
O11	O	1.973725	-0.379122	0.622771
O12	O	2.473725	0.120878	1.122771
O13	O	1.770484	-0.490045	0.272222
O14	O	2.270484	0.009955	0.772222
O15	O	1.642997	-0.232888	0.486607
O16	O	2.142997	0.267112	0.986607
O17	O	1.965113	-0.489992	0.466803
O18	O	2.465113	0.010008	0.966803
O19	O	1.790464	-0.232848	0.634039
O20	O	2.290464	0.267152	1.134039
O21	O	1.631630	-0.379216	0.280759
O22	O	2.131630	0.120784	0.780759
O23	O	1.437126	-0.379144	0.475321
O24	O	1.937126	0.120856	0.975321
O25	O	1.623236	-0.489867	0.808783
O26	O	2.123236	0.010133	1.308783
O27	O	1.428607	-0.489920	0.614201
O28	O	1.928607	0.010080	1.114201
O29	O	1.779221	-0.379051	0.817334
O30	O	2.279221	0.120949	1.317334
O31	O	1.759242	-0.636248	0.455517
O32	O	2.259242	-0.136248	0.955517
O33	O	1.611869	-0.636194	0.602934
O34	O	2.111869	-0.136194	1.102934
C35	C	1.389319	-0.434531	0.544760
C36	C	1.889319	0.065469	1.044760
C37	C	1.255918	-0.434547	0.544781
C38	C	1.755918	0.065453	1.044781
C39	C	1.683058	-0.668958	0.526728
C40	C	2.183058	-0.168958	1.026728
C41	C	1.675431	-0.769241	0.519048
C42	C	2.175431	-0.269241	1.019048
C43	C	1.814540	-0.957492	0.658301
C44	C	2.314540	-0.457492	1.158301
C45	C	1.807378	-1.051716	0.651089
C46	C	2.307378	-0.551716	1.151089
C47	C	1.653940	-1.051917	0.497418
C48	C	2.153940	-0.551917	0.997418
C49	C	1.661102	-0.957693	0.504630
C50	C	2.161102	-0.457693	1.004630
C51	C	1.741406	-0.910483	0.585073
C52	C	2.241406	-0.410483	1.085073
C53	C	1.748573	-0.816256	0.592278
C54	C	2.248573	-0.316256	1.092278
C55	C	1.595129	-0.816459	0.438615
C56	C	2.095129	-0.316459	0.938615
C57	C	1.587967	-0.910684	0.431403
C58	C	2.087967	-0.410684	0.931403
C59	C	2.014184	-0.434559	0.544789
C60	C	2.514184	0.065441	1.044789
C61	C	2.147583	-0.434565	0.544796
C62	C	2.647583	0.065435	1.044796
C63	C	1.701243	-0.434444	0.857825
C64	C	2.201243	0.065556	1.357825
C65	C	1.701285	-0.434402	0.991228
C66	C	2.201285	0.065598	1.491228
C67	C	1.719331	-0.199216	0.562917
C68	C	2.219331	0.300784	1.062917
C69	C	1.727082	-0.098933	0.570649
C70	C	2.227082	0.401067	1.070649
C71	C	1.701117	-0.434579	0.232947
C72	C	2.201117	0.065421	0.732947
C73	C	1.701327	-0.434368	0.099564
C74	C	2.201327	0.065632	0.599564
H75	H	1.813964	-0.777819	0.657776
H76	H	2.313964	-0.277819	1.157776
H77	H	1.535582	-0.778174	0.378984
H78	H	2.035582	-0.278174	0.878984
C79	C	1.965485	-0.966753	0.809477
C80	C	2.465485	-0.466753	1.309477
C81	C	1.902803	-0.905593	0.746723
C82	C	2.402803	-0.405593	1.246723
H83	H	2.019968	-0.934712	0.864072
H84	H	2.519968	-0.434712	1.364072
H85	H	2.008633	-1.003501	0.754416
H86	H	2.508633	-0.503501	1.254416
H87	H	1.910362	-1.003516	0.852518
H88	H	2.410362	-0.503516	1.352518
H89	H	1.957925	-0.868834	0.703675
H90	H	2.457925	-0.368834	1.203675
H91	H	1.859653	-0.868830	0.801792
H92	H	2.359653	-0.368830	1.301792
C93	C	1.815908	-1.157562	0.804442
C94	C	2.315908	-0.657562	1.304442
C95	C	1.887768	-1.103391	0.731582
C96	C	2.387768	-0.603391	1.231582
H97	H	1.865540	-1.189460	0.854142
H98	H	2.365540	-0.689460	1.354142
H99	H	1.767073	-1.199161	0.755501
H100	H	2.267073	-0.699161	1.255501
H101	H	1.766388	-1.120800	0.853110
H102	H	2.266388	-0.620800	1.353110
H103	H	1.937282	-1.140154	0.682907
H104	H	2.437282	-0.640154	1.182907
H105	H	1.936623	-1.061788	0.780527
H106	H	2.436623	-0.561788	1.280527
H107	H	1.588554	-1.090372	0.431931
H108	H	2.088554	-0.590372	0.931931
C109	C	1.508865	-1.055214	0.352106
C110	C	2.008865	-0.555214	0.852106
C111	C	1.499707	-0.962582	0.342977
C112	C	1.999707	-0.462582	0.842977
H113	H	1.454382	-1.087250	0.297506
H114	H	1.954382	-0.587250	0.797506
H115	H	1.490071	-1.070612	0.431539
H116	H	1.990071	-0.570612	0.931539
H117	H	1.588350	-1.070603	0.333445
H118	H	2.088350	-0.570603	0.833445
H119	H	1.420224	-0.947192	0.361647
H120	H	1.920224	-0.447192	0.861647
H121	H	1.518493	-0.947178	0.263526
H122	H	2.018493	-0.447178	0.763526
