data_functionalizedCrystal
_audit_creation_method	'MofGen! by Chris Wilmer'
_symmetry_space_group_name_H-M	'P1'
_symmetry_Int_Tables_number	1
_symmetry_cell_setting	triclinic
loop_
_symmetry_equiv_pos_as_xyz
  x,y,z
_cell_length_a	21.295420
_cell_length_b	21.295417
_cell_length_c	21.295411
_cell_angle_alpha	89.978159
_cell_angle_beta	90.024592
_cell_angle_gamma	89.968641
loop_
_atom_site_label
_atom_site_type_symbol
_atom_site_fract_x
_atom_site_fract_y
_atom_site_fract_z
Zn1	Zn	0.962333	0.250752	0.355911
Zn2	Zn	1.462333	0.750752	0.855911
Zn3	Zn	0.962226	0.356004	0.250636
Zn4	Zn	1.462226	0.856004	0.750636
Zn5	Zn	0.857056	0.250745	0.250656
Zn6	Zn	1.357056	0.750745	0.750656
Zn7	Zn	0.857016	0.355979	0.355868
Zn8	Zn	1.357016	0.855979	0.855868
O9	O	0.909658	0.303370	0.303268
O10	O	1.409658	0.803370	0.803268
O11	O	1.050408	0.264727	0.341956
O12	O	1.550408	0.764727	0.841956
O13	O	0.948247	0.342048	0.162549
O14	O	1.448247	0.842048	0.662549
O15	O	0.871083	0.162656	0.264645
O16	O	1.371083	0.662656	0.764645
O17	O	1.050330	0.342055	0.264611
O18	O	1.550330	0.842055	0.764611
O19	O	0.948429	0.162661	0.341975
O20	O	1.448429	0.662661	0.841975
O21	O	0.870979	0.264714	0.162564
O22	O	1.370979	0.764714	0.662564
O23	O	0.768962	0.264691	0.264603
O24	O	1.268962	0.764691	0.764603
O25	O	0.871015	0.342014	0.443963
O26	O	1.371015	0.842014	0.943963
O27	O	0.768932	0.342006	0.341901
O28	O	1.268932	0.842006	0.841901
O29	O	0.948391	0.264703	0.443995
O30	O	1.448391	0.764703	0.943995
O31	O	0.948208	0.444090	0.264569
O32	O	1.448208	0.944090	0.764569
O33	O	0.870911	0.444072	0.341882
O34	O	1.370911	0.944072	0.841882
C35	C	0.746106	0.303346	0.303250
C36	C	1.246106	0.803346	0.803250
C37	C	0.676138	0.303351	0.303257
C38	C	1.176138	0.803351	0.803257
C39	C	0.176721	0.263200	0.343616
C40	C	0.676721	0.763200	0.843616
C41	C	0.242463	0.263195	0.343616
C42	C	0.742463	0.763195	0.843616
C43	C	0.275299	0.303389	0.303282
C44	C	0.775299	0.803389	0.803282
C45	C	0.242387	0.343602	0.262957
C46	C	0.742387	0.843602	0.762957
C47	C	0.176645	0.343610	0.262963
C48	C	0.676645	0.843610	0.762963
N49	N	0.378488	0.308125	0.248163
N50	N	0.878488	0.808125	0.748163
N51	N	0.440940	0.308113	0.248159
N52	N	0.940940	0.808113	0.748159
C53	C	0.473374	0.303368	0.303264
C54	C	0.973374	0.803368	0.803264
N55	N	0.440997	0.298623	0.358374
N56	N	0.940997	0.798623	0.858374
N57	N	0.378540	0.298631	0.358376
N58	N	0.878540	0.798631	0.858376
C59	C	0.346584	0.303385	0.303272
C60	C	0.846584	0.803385	0.803272
C61	C	0.577563	0.263156	0.343590
C62	C	1.077563	0.763156	0.843590
C63	C	0.643307	0.263156	0.343591
C64	C	1.143307	0.763156	0.843591
C65	C	0.643229	0.343559	0.262926
C66	C	1.143229	0.843559	0.762926
C67	C	0.577487	0.343562	0.262931
C68	C	1.077487	0.843562	0.762931
C69	C	0.544658	0.303358	0.303262
C70	C	1.044658	0.803358	0.803262
C71	C	0.909561	0.466921	0.303232
C72	C	1.409561	0.966921	0.803232
C73	C	0.909577	0.536890	0.303238
C74	C	1.409577	1.036890	0.803238
C75	C	0.949825	0.569702	0.343532
C76	C	1.449825	1.069702	0.843532
C77	C	0.949840	0.635444	0.343546
C78	C	1.449840	1.135444	0.843546
C79	C	0.909615	0.668372	0.303255
C80	C	1.409615	1.168372	0.803255
C81	C	0.869359	0.635552	0.262958
C82	C	1.369359	1.135552	0.762958
C83	C	0.869340	0.569811	0.262950
C84	C	1.369340	1.069811	0.762950
N85	N	0.904845	0.771624	0.248162
N86	N	1.404845	1.271624	0.748162
N87	N	0.904866	0.834075	0.248172
N88	N	1.404866	1.334075	0.748172
C89	C	0.909668	0.866447	0.303279
C90	C	1.409668	1.366447	0.803279
N91	N	0.914460	0.834007	0.358378
N92	N	1.414460	1.334007	0.858378
N93	N	0.914441	0.771550	0.358367
N94	N	1.414441	1.271550	0.858367
C95	C	0.909630	0.739657	0.303260
C96	C	1.409630	1.239657	0.803260
C97	C	0.949935	0.970545	0.343592
C98	C	1.449935	1.470545	0.843592
C99	C	0.949946	1.036288	0.343607
C100	C	1.449946	1.536288	0.843607
C101	C	0.869468	1.036395	0.263014
C102	C	1.369468	1.536395	0.763014
C103	C	0.869453	0.970652	0.263004
C104	C	1.369453	1.470652	0.763004
C105	C	0.909690	0.937731	0.303292
C106	C	1.409690	1.437731	0.803292
C107	C	1.073848	0.303394	0.303286
C108	C	1.573848	0.803394	0.803286
C109	C	1.143816	0.303405	0.303294
C110	C	1.643816	0.803405	0.803294
C111	C	0.909710	0.303357	0.467458
C112	C	1.409710	0.803357	0.967458
C113	C	0.909733	0.303351	0.537426
C114	C	1.409733	0.803351	1.037426
C115	C	0.909747	1.139180	0.303312
C116	C	1.409747	1.639180	0.803312
C117	C	0.909719	1.069211	0.303316
C118	C	1.409719	1.569211	0.803316
C119	C	0.909642	0.303338	0.139716
C120	C	1.409642	0.803338	0.639716
C121	C	0.909742	0.303166	0.069748
C122	C	1.409742	0.803166	0.569748
C123	C	0.950020	0.263094	0.570310
C124	C	1.450020	0.763094	1.070310
C125	C	0.950019	0.263066	0.636053
C126	C	1.450019	0.763066	1.136053
C127	C	0.909737	0.303308	0.668909
C128	C	1.409737	0.803308	1.168909
C129	C	0.869442	0.343568	0.636017
C130	C	1.369442	0.843568	1.136017
C131	C	0.869439	0.343589	0.570275
C132	C	1.369439	0.843589	1.070275
N133	N	0.904876	0.358375	0.772124
N134	N	1.404876	0.858375	1.272124
N135	N	0.904882	0.358353	0.834575
N136	N	1.404882	0.858353	1.334575
C137	C	0.909741	0.303244	0.866984
C138	C	1.409741	0.803244	1.366984
N139	N	0.914607	0.248157	0.834581
N140	N	1.414607	0.748157	1.334581
N141	N	0.914604	0.248180	0.772124
N142	N	1.414604	0.748180	1.272124
C143	C	0.909735	0.303288	0.740194
C144	C	1.409735	0.803288	1.240194
C145	C	0.950030	0.262953	0.971153
C146	C	1.450030	0.762953	1.471153
C147	C	0.950025	0.262925	1.036897
C148	C	1.450025	0.762925	1.536897
C149	C	0.869451	0.343432	1.036860
C150	C	1.369451	0.843432	1.536860
C151	C	0.869453	0.343455	0.971117
C152	C	1.369453	0.843455	1.471117
C153	C	0.909746	0.303216	0.938268
C154	C	1.409746	0.803216	1.438268
H155	H	0.269259	0.230453	0.376451
H156	H	0.769259	0.730453	0.876451
O157	O	0.989087	0.223905	0.538439
O158	O	1.489087	0.723905	1.038439
C159	C	0.975376	0.161165	0.554528
C160	C	1.475376	0.661165	1.054528
H161	H	0.925088	0.157984	0.572576
H162	H	1.425088	0.657984	1.072576
H163	H	0.980820	0.130068	0.511307
H164	H	1.480820	0.630068	1.011307
H165	H	1.009132	0.144710	0.592711
H166	H	1.509132	0.644710	1.092711
O167	O	0.830332	1.068275	0.223854
O168	O	1.330332	1.568275	0.723854
C169	C	0.794817	1.025212	0.188272
C170	C	1.294817	1.525212	0.688272
H171	H	0.792613	0.978338	0.214047
H172	H	1.292613	1.478338	0.714047
H173	H	0.745228	1.044250	0.181514
H174	H	1.245228	1.544250	0.681514
H175	H	0.817891	1.018227	0.140483
H176	H	1.317891	1.518227	0.640483
H177	H	0.836606	0.662366	0.230154
H178	H	1.336606	1.162366	0.730154
O179	O	0.830294	0.938747	0.223946
O180	O	1.330294	1.438747	0.723946
C181	C	0.789618	0.900723	0.259740
C182	C	1.289618	1.400723	0.759740
H183	H	0.785709	0.920511	0.309318
H184	H	1.285709	1.420511	0.809318
H185	H	0.741185	0.900029	0.236927
H186	H	1.241185	1.400029	0.736927
H187	H	0.809066	0.850881	0.261920
H188	H	1.309066	1.350881	0.761920
O189	O	0.988943	0.938586	0.382823
O190	O	1.488943	1.438586	0.882823
C191	C	0.975162	0.954640	0.445550
C192	C	1.475162	1.454640	0.945550
H193	H	0.924877	0.972754	0.448679
H194	H	1.424877	1.472754	0.948679
H195	H	0.980552	0.911383	0.476647
H196	H	1.480552	1.411383	0.976647
H197	H	1.008914	0.992761	0.462047
H198	H	1.508914	1.492761	0.962047
O199	O	0.830260	0.382543	1.068670
O200	O	1.330260	0.882543	1.568670
C201	C	0.794714	0.418095	1.025544
C202	C	1.294714	0.918095	1.525544
H203	H	0.792552	0.392328	0.978681
H204	H	1.292552	0.892328	1.478681
H205	H	0.745112	0.424796	1.044517
H206	H	1.245112	0.924796	1.544517
H207	H	0.817732	0.465910	1.018560
H208	H	1.317732	0.965910	1.518560
H209	H	0.982587	0.542899	0.376339
H210	H	1.482587	1.042899	0.876339
O211	O	0.830344	0.382747	0.667860
O212	O	1.330344	0.882747	1.167860
C213	C	0.844066	0.445494	0.651807
C214	C	1.344066	0.945494	1.151807
H215	H	0.868261	0.446817	0.604083
H216	H	1.368261	0.946817	1.104083
H217	H	0.798615	0.473714	0.649538
H218	H	1.298615	0.973714	1.149538
H219	H	0.876417	0.466691	0.688817
H220	H	1.376417	0.966691	1.188817
H221	H	0.982610	0.662165	0.376366
H222	H	1.482610	1.162165	0.876366
O223	O	0.830393	0.382731	0.538258
O224	O	1.330393	0.882731	1.038258
C225	C	0.866207	0.423417	0.500259
C226	C	1.366207	0.923417	1.000259
H227	H	0.913928	0.401226	0.490434
H228	H	1.413928	0.901226	0.990434
H229	H	0.840563	0.431866	0.454016
H230	H	1.340563	0.931866	0.954016
H231	H	0.873090	0.470059	0.525596
H232	H	1.373090	0.970059	1.025596
H233	H	0.982836	0.230185	0.944406
H234	H	1.482836	0.730185	1.444406
O235	O	0.830409	0.382598	0.939102
O236	O	1.330409	0.882598	1.439102
C237	C	0.866219	0.423285	0.901099
C238	C	1.366219	0.923285	1.401099
H239	H	0.913938	0.401094	0.891269
H240	H	1.413938	0.901094	1.391269
H241	H	0.840570	0.431733	0.854859
H242	H	1.340570	0.931733	1.354859
H243	H	0.873104	0.469926	0.926437
H244	H	1.373104	0.969926	1.426437
H245	H	0.982831	0.230139	1.063670
H246	H	1.482831	0.730139	1.563670
O247	O	0.675342	0.224069	0.382676
O248	O	1.175342	0.724069	0.882676
C249	C	0.713361	0.183351	0.346904
C250	C	1.213361	0.683351	0.846904
H251	H	0.723175	0.205487	0.299160
H252	H	1.223175	0.705487	0.799160
H253	H	0.759607	0.174947	0.372557
H254	H	1.259607	0.674947	0.872557
H255	H	0.688044	0.136693	0.340070
H256	H	1.188044	0.636693	0.840070
O257	O	0.144861	0.224218	0.382888
O258	O	0.644861	0.724218	0.882888
C259	C	0.160969	0.238052	0.445599
C260	C	0.660969	0.738052	0.945599
H261	H	0.179020	0.288344	0.448684
H262	H	0.679020	0.788344	0.948684
H263	H	0.117756	0.232677	0.476715
H264	H	0.617756	0.732677	0.976715
H265	H	0.199154	0.204323	0.462107
H266	H	0.699154	0.704323	0.962107
O267	O	0.274253	0.382736	0.223844
O268	O	0.774253	0.882736	0.723844
C269	C	0.258159	0.445496	0.237481
C270	C	0.758159	0.945496	0.737481
H271	H	0.240111	0.448746	0.287766
H272	H	0.740111	0.948746	0.787766
H273	H	0.301378	0.476581	0.232000
H274	H	0.801378	0.976581	0.732000
H275	H	0.219975	0.461909	0.203706
H276	H	0.719975	0.961909	0.703706
O277	O	0.144652	0.382732	0.223879
O278	O	0.644652	0.882732	0.723879
C279	C	0.106611	0.423432	0.259647
C280	C	0.606611	0.923432	0.759647
H281	H	0.126445	0.427389	0.309218
H282	H	0.626445	0.927389	0.809218
H283	H	0.105830	0.471845	0.236794
H284	H	0.605830	0.971845	0.736794
H285	H	0.056797	0.403976	0.261853
H286	H	0.556797	0.903976	0.761853
H287	H	0.982825	0.230281	0.662833
H288	H	1.482825	0.730281	1.162833
O289	O	0.545766	0.224090	0.382831
O290	O	1.045766	0.724090	0.882831
C291	C	0.588909	0.188596	0.418417
C292	C	1.088909	0.688596	0.918417
H293	H	0.635762	0.214379	0.420544
H294	H	1.135762	0.714379	0.920544
H295	H	0.569942	0.181959	0.468028
H296	H	1.069942	0.681959	0.968028
H297	H	0.595911	0.140752	0.395455
H298	H	1.095911	0.640752	0.895455
O299	O	0.675215	0.382546	0.223767
O300	O	1.175215	0.882546	0.723767
C301	C	0.740297	0.373933	0.232422
C302	C	1.240297	0.873933	0.732422
H303	H	0.749309	0.325381	0.253123
H304	H	1.249309	0.825381	0.753123
H305	H	0.765258	0.378136	0.185261
H306	H	1.265258	0.878136	0.685261
H307	H	0.758951	0.411316	0.265877
H308	H	1.258951	0.911316	0.765877
H309	H	0.982720	1.063003	0.376422
H310	H	1.482720	1.563003	0.876422
H311	H	0.836565	0.543094	0.230137
H312	H	1.336565	1.043094	0.730137
O313	O	0.545617	0.382632	0.223696
O314	O	1.045617	0.882632	0.723696
C315	C	0.588694	0.418120	0.188106
C316	C	1.088694	0.918120	0.688106
H317	H	0.635567	0.392328	0.185970
H318	H	1.135567	0.892328	0.685970
H319	H	0.569671	0.424765	0.138498
H320	H	1.069671	0.924765	0.638498
H321	H	0.595676	0.465961	0.211070
H322	H	1.095676	0.965961	0.711070
