data_functionalizedCrystal
_audit_creation_method	'MofGen! by Chris Wilmer'
_symmetry_space_group_name_H-M	'P1'
_symmetry_Int_Tables_number	1
_symmetry_cell_setting	triclinic
loop_
_symmetry_equiv_pos_as_xyz
  x,y,z
_cell_length_a	18.101398
_cell_length_b	18.101395
_cell_length_c	18.101398
_cell_angle_alpha	90.017121
_cell_angle_beta	89.998527
_cell_angle_gamma	90.026661
loop_
_atom_site_label
_atom_site_type_symbol
_atom_site_fract_x
_atom_site_fract_y
_atom_site_fract_z
Zn1	Zn	1.132039	-0.294993	0.418558
Zn2	Zn	1.632039	0.205007	0.918558
Zn3	Zn	1.131959	-0.418819	0.294720
Zn4	Zn	1.631959	0.081181	0.794720
Zn5	Zn	1.008222	-0.294987	0.294751
Zn6	Zn	1.508222	0.205013	0.794751
Zn7	Zn	1.008149	-0.418788	0.418540
Zn8	Zn	1.508149	0.081212	0.918540
O9	O	1.070092	-0.356897	0.356643
O10	O	1.570092	0.143103	0.856643
O11	O	1.235661	-0.311435	0.402126
O12	O	1.735661	0.188565	0.902126
O13	O	1.115542	-0.402403	0.191092
O14	O	1.615542	0.097597	0.691092
O15	O	1.024711	-0.191355	0.311195
O16	O	1.524711	0.308645	0.811195
O17	O	1.235603	-0.402410	0.311143
O18	O	1.735603	0.097590	0.811143
O19	O	1.115679	-0.191359	0.402156
O20	O	1.615679	0.308641	0.902156
O21	O	1.024633	-0.311424	0.191114
O22	O	1.524633	0.188576	0.691114
O23	O	0.904580	-0.311393	0.311177
O24	O	1.404580	0.188607	0.811177
O25	O	1.024586	-0.402356	0.522176
O26	O	1.524586	0.097644	1.022176
O27	O	0.904526	-0.402349	0.402125
O28	O	1.404526	0.097651	0.902125
O29	O	1.115607	-0.311404	0.522189
O30	O	1.615607	0.188596	1.022189
O31	O	1.115471	-0.522448	0.311125
O32	O	1.615471	-0.022448	0.811125
O33	O	1.024508	-0.522425	0.402095
O34	O	1.524508	-0.022425	0.902095
C35	C	0.877682	-0.356868	0.356653
C36	C	1.377682	0.143132	0.856653
C37	C	0.795368	-0.356873	0.356675
C38	C	1.295368	0.143127	0.856675
C39	C	1.069993	-0.549307	0.356621
C40	C	1.569993	-0.049307	0.856621
C41	C	1.070018	-0.631621	0.356636
C42	C	1.570018	-0.131621	0.856636
C43	C	0.496277	-0.356917	0.356644
C44	C	0.996277	0.143083	0.856644
C45	C	0.527593	-0.414420	0.413583
C46	C	1.027593	0.085580	0.913583
C47	C	0.613211	-0.414240	0.413817
C48	C	1.113211	0.085760	0.913817
C49	C	0.644659	-0.356896	0.356659
C50	C	1.144659	0.143104	0.856659
C51	C	0.613601	-0.278897	0.377985
C52	C	1.113601	0.221103	0.877985
C53	C	0.527955	-0.279242	0.378390
C54	C	1.027955	0.220758	0.878390
C55	C	0.527839	-0.376724	0.278242
C56	C	1.027839	0.123276	0.778242
C57	C	0.613489	-0.378435	0.278661
C58	C	1.113489	0.121565	0.778661
C59	C	0.728519	-0.356879	0.356667
C60	C	1.228519	0.143121	0.856667
C61	C	0.412417	-0.356928	0.356638
C62	C	0.912417	0.143072	0.856638
C63	C	1.070181	-0.930712	0.356676
C64	C	1.570181	-0.430712	0.856676
C65	C	1.013082	-0.899403	0.414054
C66	C	1.513082	-0.399403	0.914054
C67	C	1.012811	-0.813785	0.413875
C68	C	1.512811	-0.313785	0.913875
C69	C	1.070100	-0.782330	0.356657
C70	C	1.570100	-0.282330	0.856657
C71	C	1.048986	-0.813466	0.278611
C72	C	1.548986	-0.313466	0.778611
C73	C	1.048618	-0.899111	0.278954
C74	C	1.548618	-0.399111	0.778954
C75	C	1.148519	-0.899066	0.376657
C76	C	1.648519	-0.399066	0.876657
C77	C	1.148058	-0.813415	0.378369
C78	C	1.648058	-0.313415	0.878369
C79	C	1.070056	-0.698470	0.356641
C80	C	1.570056	-0.198470	0.856641
C81	C	1.070223	-1.014572	0.356687
C82	C	1.570223	-0.514572	0.856687
C83	C	1.263254	-0.356926	0.356633
C84	C	1.763254	0.143074	0.856633
C85	C	1.345568	-0.356939	0.356628
C86	C	1.845568	0.143061	0.856628
C87	C	1.070097	-0.356877	0.549805
C88	C	1.570097	0.143123	1.049805
C89	C	1.070099	-0.356869	0.632119
C90	C	1.570099	0.143131	1.132119
C91	C	1.070212	-0.163735	0.356681
C92	C	1.570212	0.336265	0.856681
C93	C	1.070263	-0.081421	0.356697
C94	C	1.570263	0.418579	0.856697
C95	C	1.070100	-0.356883	0.782827
C96	C	1.570100	0.143117	1.282827
C97	C	1.127365	-0.299661	0.814189
C98	C	1.627365	0.200339	1.314189
C99	C	1.127590	-0.299837	0.899807
C100	C	1.627590	0.200163	1.399807
C101	C	1.070101	-0.356895	0.931210
C102	C	1.570101	0.143105	1.431210
C103	C	1.090982	-0.435001	0.900098
C104	C	1.590982	0.064999	1.400098
C105	C	1.091397	-0.434662	0.814453
C106	C	1.591397	0.065338	1.314453
C107	C	0.991810	-0.336684	0.814396
C108	C	1.491810	0.163316	1.314396
C109	C	0.992230	-0.334970	0.900048
C110	C	1.492230	0.165030	1.400048
C111	C	1.070101	-0.356907	1.015069
C112	C	1.570101	0.143093	1.515069
C113	C	1.070103	-0.356876	0.698968
C114	C	1.570103	0.143124	1.198968
C115	C	1.070087	-0.356925	1.164232
C116	C	1.570087	0.143075	1.664232
C117	C	1.070102	-0.356909	1.081918
C118	C	1.570102	0.143091	1.581918
H119	H	0.506980	-0.472450	0.400367
H120	H	1.006980	0.027550	0.900367
H121	H	0.633702	-0.401136	0.471908
H122	H	1.133702	0.098864	0.971908
H123	H	1.192849	-0.791999	0.339623
H124	H	1.692849	-0.291999	0.839623
H125	H	0.991354	-0.919146	0.262027
H126	H	1.491354	-0.419146	0.762027
H127	H	0.507983	-0.262441	0.435705
H128	H	1.007983	0.237559	0.935705
H129	H	0.507241	-0.234863	0.338820
H130	H	1.007241	0.265137	0.838820
C131	C	0.498531	-0.396940	0.491608
C132	C	0.998531	0.103060	0.991608
H133	H	0.467398	-0.354748	0.489635
H134	H	0.967398	0.145252	0.989635
H135	H	0.471267	-0.437968	0.509718
H136	H	0.971267	0.062032	1.009718
H137	H	0.539006	-0.387304	0.523606
H138	H	1.039006	0.112696	1.023606
H139	H	1.191059	-0.919311	0.334867
H140	H	1.691059	-0.419311	0.834867
H141	H	0.635054	-0.261792	0.434677
H142	H	1.135054	0.238208	0.934677
C143	C	1.109935	-0.221623	0.928235
C144	C	1.609935	0.278377	1.428235
H145	H	1.110031	-0.221630	0.980719
H146	H	1.610031	0.278370	1.480719
H147	H	1.146218	-0.188002	0.910686
H148	H	1.646218	0.311998	1.410686
H149	H	1.062639	-0.206991	0.910843
H150	H	1.562639	0.293009	1.410843
H151	H	1.088403	-0.919823	0.234746
H152	H	1.588403	-0.419823	0.734746
H153	H	0.633796	-0.435831	0.262577
H154	H	1.133796	0.064169	0.762577
H155	H	0.506230	-0.432627	0.258861
H156	H	1.006230	0.067373	0.758861
C157	C	1.167436	-0.458489	0.929054
C158	C	1.667436	0.041511	1.429054
H159	H	1.179582	-0.505827	0.909919
H160	H	1.679582	-0.005827	1.409919
H161	H	1.203481	-0.423594	0.913625
H162	H	1.703481	0.076406	1.413625
H163	H	1.166410	-0.460544	0.981486
H164	H	1.666410	0.039456	1.481486
C165	C	1.169572	-0.785932	0.455963
C166	C	1.669572	-0.285932	0.955963
H167	H	1.216777	-0.804929	0.468786
H168	H	1.716777	-0.304929	0.968786
H169	H	1.171209	-0.733479	0.456138
H170	H	1.671209	-0.233479	0.956138
H171	H	1.134002	-0.802449	0.490843
H172	H	1.634002	-0.302449	0.990843
C173	C	0.642401	-0.325960	0.218270
C174	C	1.142401	0.174040	0.718270
H175	H	0.673997	-0.290064	0.239932
H176	H	1.173997	0.209936	0.739932
H177	H	0.669143	-0.353498	0.182486
H178	H	1.169143	0.146502	0.682486
H179	H	0.601896	-0.301927	0.195144
H180	H	1.101896	0.198073	0.695144
C181	C	0.966059	-0.261041	0.785251
C182	C	1.466059	0.238959	1.285251
H183	H	1.002820	-0.241069	0.753554
H184	H	1.502820	0.258931	1.253554
H185	H	0.921250	-0.266918	0.758571
H186	H	1.421250	0.233082	1.258571
H187	H	0.958241	-0.228461	0.825654
H188	H	1.458241	0.271539	1.325654
C189	C	0.500468	-0.320156	0.220924
C190	C	1.000468	0.179844	0.720924
H191	H	0.469954	-0.284637	0.244618
H192	H	0.969954	0.215363	0.744618
H193	H	0.541649	-0.296046	0.199072
H194	H	1.041649	0.203954	0.699072
H195	H	0.472895	-0.344889	0.183729
H196	H	0.972895	0.155111	0.683729
H197	H	1.026019	-0.792733	0.471745
H198	H	1.526019	-0.292733	0.971745
H199	H	1.026159	-0.919962	0.472112
H200	H	1.526159	-0.419962	0.972112
H201	H	1.114484	-0.241567	0.793617
H202	H	1.614484	0.258433	1.293617
C203	C	1.205292	-0.317532	0.785125
C204	C	1.705292	0.182468	1.285125
H205	H	1.203080	-0.359715	0.753962
H206	H	1.703080	0.140285	1.253962
H207	H	1.223642	-0.276597	0.757891
H208	H	1.723642	0.223403	1.257891
H209	H	1.237228	-0.327325	0.825596
H210	H	1.737228	0.172675	1.325596
H211	H	0.976479	-0.277490	0.920385
H212	H	1.476479	0.222510	1.420385
C213	C	0.935115	-0.928545	0.396400
C214	C	1.435115	-0.428545	0.896400
H215	H	0.937209	-0.959708	0.354212
H216	H	1.437209	-0.459708	0.854212
H217	H	0.916911	-0.955795	0.437387
H218	H	1.416911	-0.455795	0.937387
H219	H	0.903124	-0.888106	0.386694
H220	H	1.403124	-0.388106	0.886694
C221	C	0.934373	-0.786181	0.395986
C222	C	1.434373	-0.286181	0.895986
H223	H	0.902551	-0.827310	0.388794
H224	H	1.402551	-0.327310	0.888794
H225	H	0.916575	-0.757038	0.435838
H226	H	1.416575	-0.257038	0.935838
H227	H	0.935600	-0.757172	0.352275
H228	H	1.435600	-0.257172	0.852275
H229	H	0.633973	-0.234892	0.337807
H230	H	1.133973	0.265108	0.837807
H231	H	1.148618	-0.451748	0.794474
H232	H	1.648618	0.048252	1.294474
H233	H	1.089267	-0.793091	0.234695
H234	H	1.589267	-0.293091	0.734695
H235	H	1.185603	-0.313231	0.920295
H236	H	1.685603	0.186769	1.420295
H237	H	1.051470	-0.478750	0.793704
H238	H	1.551470	0.021250	1.293704
C239	C	1.036371	-0.494180	0.927574
C240	C	1.536371	0.005820	1.427574
H241	H	1.000266	-0.471726	0.958340
H242	H	1.500266	0.028274	1.458340
H243	H	1.012771	-0.516682	0.886444
H244	H	1.512771	-0.016682	1.386444
H245	H	1.062386	-0.530637	0.954905
H246	H	1.562386	-0.030637	1.454905
H247	H	0.947305	-0.373591	0.921422
H248	H	1.447305	0.126409	1.421422
C249	C	1.174528	-0.928184	0.452229
C250	C	1.674528	-0.428184	0.952229
H251	H	1.137848	-0.959916	0.472304
H252	H	1.637848	-0.459916	0.972304
H253	H	1.219332	-0.954821	0.446228
H254	H	1.719332	-0.454821	0.946228
H255	H	1.182430	-0.887773	0.484787
H256	H	1.682430	-0.387773	0.984787
C257	C	0.934171	-0.392975	0.786994
C258	C	1.434171	0.107025	1.286994
H259	H	0.886979	-0.380484	0.806257
H260	H	1.386979	0.119516	1.306257
H261	H	0.932451	-0.392139	0.734551
H262	H	1.432451	0.107861	1.234551
H263	H	0.947526	-0.441034	0.803281
H264	H	1.447526	0.058966	1.303281
C265	C	0.641581	-0.492378	0.395771
C266	C	1.141581	0.007622	0.895771
H267	H	0.600763	-0.524518	0.388233
H268	H	1.100763	-0.024518	0.888233
H269	H	0.670840	-0.490754	0.352235
H270	H	1.170840	0.009246	0.852235
H271	H	0.670632	-0.510076	0.435724
H272	H	1.170632	-0.010076	0.935724
C273	C	0.972443	-0.784580	0.255335
C274	C	1.472443	-0.284580	0.755335
H275	H	0.953251	-0.753555	0.293069
H276	H	1.453251	-0.253555	0.793069
H277	H	0.976882	-0.757239	0.210769
H278	H	1.476882	-0.257239	0.710769
H279	H	0.939966	-0.825134	0.247824
H280	H	1.439966	-0.325134	0.747824
