data_functionalizedCrystal
_audit_creation_method	'MofGen! by Chris Wilmer'
_symmetry_space_group_name_H-M	'P1'
_symmetry_Int_Tables_number	1
_symmetry_cell_setting	triclinic
loop_
_symmetry_equiv_pos_as_xyz
  x,y,z
_cell_length_a	20.016444
_cell_length_b	14.560438
_cell_length_c	14.560438
_cell_angle_alpha	60.000069
_cell_angle_beta	90.001382
_cell_angle_gamma	59.999667
loop_
_atom_site_label
_atom_site_type_symbol
_atom_site_fract_x
_atom_site_fract_y
_atom_site_fract_z
Zr1	Zr	0.643608	1.005246	-0.120464
O2	O	0.536932	1.196854	-0.267116
O3	O	0.676310	0.813643	-0.075509
O4	O	0.676310	1.005247	-0.267110
O5	O	0.536932	1.005248	0.075626
O6	O	0.786255	1.005242	-0.267103
O7	O	0.536932	1.005250	-0.075515
O8	O	0.786254	0.662497	0.075636
O9	O	0.536932	1.347992	-0.267113
O10	O	0.772308	0.892446	-0.056328
O11	O	0.690257	0.892448	0.056461
O12	O	0.690258	1.118037	-0.169125
O13	O	0.608207	1.118039	-0.056335
Zr14	Zr	0.818957	1.005233	0.120600
Zr15	Zr	0.818957	1.005237	-0.120452
Zr16	Zr	0.643608	1.005242	0.120588
Zr17	Zr	0.643609	1.246293	-0.120459
Zr18	Zr	0.818957	0.764185	0.120596
O19	O	0.786255	1.196836	0.075646
O20	O	0.786255	1.196842	-0.267099
O21	O	0.536932	1.196848	0.075629
O22	O	0.925634	0.813625	0.267253
O23	O	0.925633	0.813631	-0.075493
O24	O	0.676310	0.813637	0.267236
O25	O	0.925634	1.005231	-0.075489
O26	O	0.786255	1.005232	0.267247
O27	O	0.676311	1.005237	0.267239
O28	O	0.925634	1.005229	0.075652
O29	O	0.676311	1.347986	-0.267104
O30	O	0.786255	0.662493	0.267240
O31	O	0.925633	0.662487	0.267250
O32	O	0.925633	0.662490	0.075645
O33	O	0.536932	1.347989	-0.075509
O34	O	0.676311	1.347982	-0.075499
O35	O	0.772308	0.892442	0.169261
O36	O	0.854358	0.892440	0.056472
O37	O	0.772308	1.118031	-0.056324
O38	O	0.690258	1.118033	0.056465
C39	C	0.731282	0.703726	0.000063
C40	C	0.731282	0.601395	0.000061
C41	C	0.511948	1.005250	0.000053
C42	C	0.437508	1.005254	0.000048
C43	C	0.774110	0.553318	-0.058814
C44	C	0.774113	0.457158	-0.058804
C45	C	0.688454	0.457165	0.058958
C46	C	0.688456	0.553316	0.058953
C47	C	0.266252	1.005240	-0.083200
C48	C	0.196312	1.005232	-0.083192
C49	C	0.196319	1.005235	0.083345
C50	C	0.266262	1.005234	0.083341
C51	C	0.301224	1.005243	0.000062
C52	C	0.161341	1.005236	0.000074
C53	C	0.085509	1.005227	0.000083
C54	C	0.377062	1.005249	0.000054
C55	C	0.950617	1.005229	0.000083
C56	C	1.025057	1.005225	0.000088
C57	C	0.731282	1.005245	-0.301451
C58	C	0.731282	1.005247	-0.403784
C59	C	0.731283	1.306753	0.000074
C60	C	0.731283	1.409084	0.000076
C61	C	0.791851	1.005245	-0.451856
C62	C	0.791854	1.005233	-0.548002
C63	C	0.670711	1.005230	-0.547999
C64	C	0.670712	1.005233	-0.451850
C65	C	0.731283	1.005234	0.301588
C66	C	0.731283	1.005232	0.403921
C67	C	0.950617	0.703715	0.000077
C68	C	1.025057	0.601380	0.000080
C69	C	0.731283	0.703720	0.301582
C70	C	0.731283	0.601387	0.403913
C71	C	0.950617	0.703710	0.301597
C72	C	1.025057	0.601373	0.403933
C73	C	0.511948	1.306769	-0.301460
C74	C	0.437508	1.409106	-0.403797
C75	C	0.511949	1.306764	0.000059
C76	C	0.437509	1.409098	0.000056
C77	C	0.731283	1.306759	-0.301446
C78	C	0.731283	1.409091	-0.403777
C79	C	1.017185	0.553326	-0.058809
C80	C	1.087123	0.457185	-0.058828
C81	C	1.164931	0.409094	0.000049
C82	C	1.172801	0.457158	0.058940
C83	C	1.102864	0.553303	0.058952
C84	C	1.102852	0.553314	0.393116
C85	C	1.172803	0.457171	0.489263
C86	C	1.164957	0.409083	0.596225
C87	C	1.087155	0.457152	0.607039
C88	C	1.017205	0.553300	0.510894
C89	C	0.359714	1.457177	-0.392980
C90	C	0.289763	1.553349	-0.489126
C91	C	0.297608	1.601442	-0.596088
C92	C	0.375411	1.553367	-0.606903
C93	C	0.445360	1.457203	-0.510757
C94	C	0.445380	1.457163	0.058935
C95	C	0.375443	1.553330	0.058928
C96	C	0.297634	1.601425	0.000048
C97	C	0.289764	1.553357	-0.058838
C98	C	0.359701	1.457198	-0.058837
C99	C	0.774111	0.553306	0.510869
C100	C	0.774102	0.457163	0.607016
C101	C	0.688434	0.457186	0.489238
C102	C	0.688439	0.553335	0.393093
H103	H	0.808982	0.592459	-0.106766
H104	H	0.381789	1.592537	-0.694003
H105	H	0.167845	1.005230	0.151147
H106	H	0.653580	0.592460	0.106902
H107	H	1.236147	0.418044	0.480437
H108	H	1.236162	0.417988	0.106875
H109	H	0.653586	0.418010	0.106905
H110	H	0.653554	0.418048	0.480442
H111	H	0.167841	1.005227	-0.150990
H112	H	0.808988	0.418015	-0.106743
H113	H	0.294718	1.005245	-0.151009
H114	H	1.109285	0.592417	0.106913
H115	H	1.221871	0.330805	0.000030
H116	H	0.294739	1.005232	0.151148
H117	H	0.841172	1.005253	-0.412722
H118	H	0.508730	1.418011	0.106890
H119	H	0.381867	1.592451	0.106885
H120	H	1.109255	0.592453	0.306031
H121	H	0.808976	0.418021	0.694101
H122	H	1.221921	0.330794	0.674503
H123	H	0.841175	1.005229	-0.587138
H124	H	0.621395	1.005222	-0.587144
H125	H	1.080779	0.417985	0.694141
H126	H	0.953864	0.592417	0.519717
H127	H	1.080699	0.418063	-0.106784
H128	H	0.240644	1.679745	-0.674367
H129	H	0.621389	1.005230	-0.412705
H130	H	0.353310	1.418024	-0.305895
H131	H	0.953836	0.592481	-0.106767
H132	H	0.226419	1.592475	-0.480299
H133	H	0.226403	1.592530	-0.106777
H134	H	0.508702	1.418064	-0.519578
H135	H	0.240694	1.679724	0.000056
H136	H	0.353280	1.418066	-0.106781
H137	H	0.808994	0.592433	0.519686
H138	H	0.653559	0.592486	0.305999
