data_functionalizedCrystal
_audit_creation_method	'MofGen! by Chris Wilmer'
_symmetry_space_group_name_H-M	'P1'
_symmetry_Int_Tables_number	1
_symmetry_cell_setting	triclinic
loop_
_symmetry_equiv_pos_as_xyz
  x,y,z
_cell_length_a	19.805407
_cell_length_b	13.897448
_cell_length_c	19.805399
_cell_angle_alpha	89.973574
_cell_angle_beta	89.984884
_cell_angle_gamma	90.015009
loop_
_atom_site_label
_atom_site_type_symbol
_atom_site_fract_x
_atom_site_fract_y
_atom_site_fract_z
Zn1	Zn	1.034759	-0.384093	-0.382700
Zn2	Zn	1.034696	-0.545403	-0.269517
Zn3	Zn	0.921579	-0.384116	-0.269528
Zn4	Zn	0.921554	-0.545340	-0.382667
O5	O	0.978147	-0.464738	-0.326103
O6	O	1.129467	-0.405508	-0.367695
O7	O	1.019675	-0.524044	-0.174801
O8	O	0.936629	-0.249131	-0.284559
O9	O	1.129421	-0.524021	-0.284540
O10	O	1.019782	-0.249114	-0.367706
O11	O	0.936568	-0.405547	-0.174810
O12	O	0.826859	-0.405486	-0.284527
O13	O	0.936587	-0.523914	-0.477388
O14	O	0.826841	-0.523937	-0.367650
O15	O	1.019758	-0.405447	-0.477412
O16	O	1.019651	-0.680376	-0.284508
O17	O	0.936526	-0.680330	-0.367639
C18	C	0.802291	-0.464708	-0.326086
C19	C	0.727059	-0.464718	-0.326095
C20	C	0.691739	-0.403117	-0.369460
C21	C	0.621051	-0.403122	-0.369463
C22	C	0.585683	-0.464734	-0.326103
C23	C	0.621008	-0.526337	-0.282734
C24	C	0.691695	-0.526327	-0.282728
C25	C	0.335935	-0.526381	-0.282755
C26	C	0.265242	-0.526389	-0.282765
C27	C	0.265290	-0.403176	-0.369489
C28	C	0.335978	-0.403166	-0.369483
C29	C	0.371296	-0.464765	-0.326112
C30	C	0.447944	-0.464758	-0.326108
C31	C	0.509036	-0.464747	-0.326110
C32	C	0.978097	-0.715352	-0.326083
C33	C	0.978138	-0.822566	-0.326097
C34	C	0.978209	-1.018861	-0.326140
C35	C	0.978168	-0.909629	-0.326118
C36	C	1.154690	-0.464769	-0.326120
C37	C	1.229922	-0.464782	-0.326127
C38	C	0.978177	-0.464671	-0.502646
C39	C	0.978189	-0.464643	-0.577878
C40	C	0.978215	-0.213145	-0.326137
C41	C	0.978244	-0.105931	-0.326152
C42	C	0.934928	-0.402935	-0.613225
C43	C	0.934937	-0.402917	-0.683914
C44	C	0.978212	-0.464601	-0.719253
C45	C	1.021475	-0.526315	-0.683900
C46	C	1.021462	-0.526338	-0.613213
C47	C	1.021529	-0.526225	-0.968974
C48	C	1.021540	-0.526195	-1.039666
C49	C	0.935004	-0.402804	-1.039675
C50	C	0.934991	-0.402826	-0.968987
C51	C	0.978251	-0.464543	-0.933641
C52	C	0.978240	-0.464564	-0.856992
C53	C	0.978227	-0.464576	-0.795900
C54	C	0.978156	-0.464735	-0.150247
C55	C	0.978275	-0.464492	-0.075015
H56	H	0.236526	-0.353015	-0.404802
Cl57	Cl	1.075847	-0.603920	-0.568775
Cl58	Cl	0.576546	-0.603787	-0.228221
H59	H	0.364770	-0.352998	-0.404793
H60	H	1.056707	-0.576544	-0.712679
H61	H	0.720531	-0.352948	-0.404770
H62	H	0.592297	-0.352962	-0.404776
H63	H	1.056747	-0.576489	-0.940203
Cl64	Cl	0.880517	-0.325383	-0.728348
H65	H	0.899692	-0.352699	-0.584457
H66	H	0.720451	-0.576488	-0.247416
Cl67	Cl	0.220781	-0.603847	-0.228250
Cl68	Cl	0.880588	-0.325274	-0.924565
Cl69	Cl	0.880616	-0.325219	-1.084115
H70	H	0.364682	-0.576540	-0.247439
H71	H	1.056781	-0.576429	-1.068437
