data_functionalizedCrystal
_audit_creation_method	'MofGen! by Chris Wilmer'
_symmetry_space_group_name_H-M	'P1'
_symmetry_Int_Tables_number	1
_symmetry_cell_setting	triclinic
loop_
_symmetry_equiv_pos_as_xyz
  x,y,z
_cell_length_a	12.759401
_cell_length_b	12.759400
_cell_length_c	12.759393
_cell_angle_alpha	90.030896
_cell_angle_beta	90.019559
_cell_angle_gamma	90.020071
loop_
_atom_site_label
_atom_site_type_symbol
_atom_site_fract_x
_atom_site_fract_y
_atom_site_fract_z
Zn1	Zn	-1.606203	0.418256	-0.594016
Zn2	Zn	-1.606075	0.593975	-0.418338
Zn3	Zn	-1.430505	0.418305	-0.418352
Zn4	Zn	-1.430471	0.593888	-0.593976
O5	O	-1.518313	0.506106	-0.506171
O6	O	-1.753207	0.441582	-0.570723
O7	O	-1.582746	0.570729	-0.271319
O8	O	-1.453879	0.271278	-0.441677
O9	O	-1.753113	0.570682	-0.441653
O10	O	-1.582963	0.271242	-0.570736
O11	O	-1.453755	0.441665	-0.271329
O12	O	-1.283479	0.441581	-0.441638
O13	O	-1.453822	0.570533	-0.741003
O14	O	-1.283455	0.570581	-0.570669
O15	O	-1.582931	0.441497	-0.741032
O16	O	-1.582713	0.740985	-0.441614
O17	O	-1.453698	0.740921	-0.570655
C18	C	-1.245346	0.506077	-0.506151
C19	C	-1.128569	0.506090	-0.506168
C20	C	-1.073722	0.573366	-0.573242
C21	C	-0.963998	0.573375	-0.573251
C22	C	-0.963978	0.438830	-0.439104
C23	C	-1.073700	0.438816	-0.439100
C24	C	-1.073732	0.651048	-0.650688
C25	C	-0.964008	0.651058	-0.650697
C26	C	-1.518217	0.779073	-0.506152
C27	C	-1.518271	0.895850	-0.506179
C28	C	-0.792347	0.506127	-0.506186
C29	C	-0.909123	0.506113	-0.506181
C30	C	-1.451071	0.950717	-0.573315
C31	C	-1.451112	1.060441	-0.573322
C32	C	-1.585562	1.060422	-0.439052
C33	C	-1.585515	0.950700	-0.439041
C34	C	-1.373451	0.950729	-0.650838
C35	C	-1.373492	1.060453	-0.650845
C36	C	-1.518387	0.506000	-0.780204
C37	C	-1.518418	0.505955	-0.896981
C38	C	-1.518406	1.232073	-0.506204
C39	C	-1.518359	1.115296	-0.506196
C40	C	-1.585655	0.438760	-0.951860
C41	C	-1.585680	0.438722	-1.061584
C42	C	-1.451229	0.573083	-1.061541
C43	C	-1.451199	0.573115	-0.951818
C44	C	-1.663282	0.361190	-0.951886
C45	C	-1.663307	0.361152	-1.061610
C46	C	-1.518300	0.506136	-0.233203
C47	C	-1.518473	0.505885	-0.116427
H48	H	-1.103543	0.629350	-0.732095
H49	H	-1.395197	1.090164	-0.732252
O50	O	-0.928264	0.748049	-0.624583
C51	C	-0.777420	0.857824	-0.594918
C52	C	-0.817758	0.747947	-0.624530
H53	H	-0.688073	0.857772	-0.594844
H54	H	-0.807126	0.917501	-0.654379
H55	H	-0.807210	0.879526	-0.513528
H56	H	-0.787984	0.726147	-0.705896
H57	H	-0.788061	0.688334	-0.565003
O58	O	-1.114136	0.743291	-0.615777
C59	C	-1.077659	0.916586	-0.550030
C60	C	-1.031762	0.812187	-0.589573
H61	H	-1.011082	0.972310	-0.528813
H62	H	-1.127926	0.953231	-0.614156
H63	H	-1.127961	0.901473	-0.477773
H64	H	-0.981413	0.827211	-0.661812
H65	H	-0.981555	0.775574	-0.525384
H66	H	-1.640225	0.906028	-0.384364
O67	O	-1.127092	0.373603	-0.373899
C68	C	-1.250869	0.359265	-0.232029
C69	C	-1.190488	0.433241	-0.305822
H70	H	-1.302122	0.407453	-0.176955
H71	H	-1.302338	0.304400	-0.280305
H72	H	-1.192779	0.311167	-0.184147
H73	H	-1.248502	0.481407	-0.353720
H74	H	-1.139004	0.488037	-0.257486
H75	H	-1.640310	1.105093	-0.384391
H76	H	-1.292079	0.921031	-0.628975
H77	H	-1.296224	1.094561	-0.621635
H78	H	-1.402543	0.916625	-0.728153
O79	O	-1.385836	0.638471	-0.898671
C80	C	-1.252404	0.771657	-0.910211
C81	C	-1.326401	0.697717	-0.970531
H82	H	-1.204315	0.819560	-0.968284
H83	H	-1.300528	0.826695	-0.858853
H84	H	-1.197533	0.723392	-0.858830
H85	H	-1.381287	0.745897	-1.021969
H86	H	-1.278212	0.642676	-1.021823
O87	O	-0.923617	0.616424	-0.743053
C88	C	-0.960115	0.551183	-0.916535
C89	C	-1.005999	0.590414	-0.812013
H90	H	-1.026698	0.530122	-0.972310
H91	H	-0.909859	0.615420	-0.953000
H92	H	-0.909804	0.478886	-0.901642
H93	H	-1.056357	0.662692	-0.826816
H94	H	-1.056195	0.526113	-0.775581
H95	H	-1.641524	0.279825	-0.922128
O96	O	-1.386041	0.638292	-1.114974
C97	C	-1.326451	0.697745	-1.283987
C98	C	-1.400346	0.623857	-1.223608
H99	H	-1.337976	0.686084	-1.371828
H100	H	-1.344858	0.782493	-1.262475
H101	H	-1.241750	0.679303	-1.262347
H102	H	-1.485072	0.642204	-1.245217
H103	H	-1.381849	0.539131	-1.245126
H104	H	-1.740550	0.390361	-0.917851
H105	H	-1.744675	0.382947	-1.091390
O106	O	-1.628450	0.268922	-1.102107
C107	C	-1.485621	0.145982	-1.113945
C108	C	-1.524978	0.250434	-1.067994
H109	H	-1.401952	0.131013	-1.086400
H110	H	-1.538457	0.079427	-1.086350
H111	H	-1.487299	0.150217	-1.203174
H112	H	-1.523299	0.246302	-0.978764
H113	H	-1.472133	0.316947	-1.095671
O114	O	-0.910514	0.373592	-0.373982
C115	C	-0.741473	0.313944	-0.314573
C116	C	-0.801887	0.387894	-0.388364
H117	H	-0.653638	0.325466	-0.326190
H118	H	-0.762933	0.332299	-0.229802
H119	H	-0.763136	0.229257	-0.333150
H120	H	-0.780257	0.472606	-0.369881
H121	H	-0.780422	0.369449	-0.473112
