data_functionalizedCrystal
_audit_creation_method	'MofGen! by Chris Wilmer'
_symmetry_space_group_name_H-M	'P1'
_symmetry_Int_Tables_number	1
_symmetry_cell_setting	triclinic
loop_
_symmetry_equiv_pos_as_xyz
  x,y,z
_cell_length_a	21.395362
_cell_length_b	18.050589
_cell_length_c	21.395355
_cell_angle_alpha	90.012902
_cell_angle_beta	90.043940
_cell_angle_gamma	90.044101
loop_
_atom_site_label
_atom_site_type_symbol
_atom_site_fract_x
_atom_site_fract_y
_atom_site_fract_z
Zn1	Zn	0.957870	-0.295431	0.354610
Zn2	Zn	0.957777	-0.419603	0.249843
Zn3	Zn	0.853085	-0.295465	0.249811
Zn4	Zn	0.853059	-0.419618	0.354548
O5	O	0.905448	-0.357529	0.302203
O6	O	1.045536	-0.311882	0.340752
O7	O	0.943862	-0.403144	0.162161
O8	O	0.867035	-0.191536	0.263726
O9	O	1.045468	-0.403110	0.263780
O10	O	0.944020	-0.191511	0.340721
O11	O	0.866945	-0.311940	0.162138
O12	O	0.765404	-0.311955	0.263665
O13	O	0.866990	-0.403136	0.442234
O14	O	0.765385	-0.403170	0.340615
O15	O	0.943995	-0.311896	0.442280
O16	O	0.943836	-0.523529	0.263719
O17	O	0.866900	-0.523540	0.340645
C18	C	0.742660	-0.357568	0.302130
C19	C	0.673019	-0.357603	0.302114
C20	C	0.640312	-0.405161	0.342121
C21	C	0.574877	-0.405143	0.342149
C22	C	0.542151	-0.357574	0.302159
C23	C	0.574865	-0.310007	0.262148
C24	C	0.640300	-0.310021	0.262126
C25	C	0.438426	-0.351592	0.245753
C26	C	0.372993	-0.351583	0.245774
C27	C	0.340330	-0.357526	0.302228
C28	C	0.373108	-0.363494	0.358662
C29	C	0.438542	-0.363508	0.358640
C30	C	0.471198	-0.357553	0.302179
C31	C	0.236671	-0.405067	0.342269
C32	C	0.171234	-0.405044	0.342298
C33	C	0.171224	-0.309911	0.262291
C34	C	0.236659	-0.309931	0.262268
C35	C	0.269379	-0.357513	0.302256
C36	C	0.905372	-0.550481	0.302192
C37	C	0.905397	-0.633027	0.302209
C38	C	0.863601	-0.832511	0.344027
C39	C	0.848322	-0.881943	0.286848
C40	C	0.905459	-0.784157	0.302217
C41	C	0.920768	-0.881806	0.359402
C42	C	0.905517	-0.930142	0.302230
C43	C	0.890151	-0.832503	0.245009
C44	C	0.962623	-0.832361	0.317601
C45	C	0.947366	-0.881772	0.260383
C46	C	0.905424	-0.700059	0.302211
C47	C	0.905552	-1.014239	0.302230
C48	C	1.068871	-0.357490	0.302276
C49	C	1.138513	-0.357474	0.302307
C50	C	0.905500	-0.357514	0.465626
C51	C	0.905522	-0.357508	0.535268
C52	C	0.905541	-0.163823	0.302227
C53	C	0.905581	-0.081278	0.302237
C54	C	0.905432	-0.357490	0.139415
C55	C	0.905531	-0.357288	0.069774
C56	C	0.945617	-0.309997	0.568006
C57	C	0.945616	-0.309965	0.633441
C58	C	0.905527	-0.357457	0.666136
C59	C	0.865425	-0.404971	0.633390
C60	C	0.865422	-0.404996	0.567956
C61	C	0.900554	-0.424328	0.769805
C62	C	0.900560	-0.424304	0.835238
C63	C	0.905531	-0.357379	0.867957
C64	C	0.910508	-0.290475	0.835234
C65	C	0.910505	-0.290501	0.769800
C66	C	0.905525	-0.357435	0.737088
C67	C	0.945627	-0.309829	0.971647
C68	C	0.945621	-0.309796	1.037084
C69	C	0.865434	-0.404809	1.037032
C70	C	0.865436	-0.404835	0.971596
C71	C	0.905535	-0.357347	0.938908
H72	H	0.548242	-0.443870	0.374731
H73	H	0.832790	-0.443528	0.944941
H74	H	0.832782	-0.443637	0.660014
F75	F	0.473425	-0.369857	0.418699
H76	H	0.144579	-0.271177	0.229733
H77	H	0.263312	-0.443807	0.374833
F78	F	0.988305	-0.259235	1.071926
F79	F	0.785169	-0.910407	0.269842
H80	H	0.832770	-0.443684	0.541301
F81	F	0.136425	-0.455661	0.384885
H82	H	0.933693	-0.903463	0.407758
H83	H	0.263290	-0.271208	0.229686
F84	F	0.675131	-0.455800	0.384682
H85	H	0.877170	-0.810935	0.196640
F86	F	0.988281	-0.259384	0.668290
F87	F	0.993668	-0.909867	0.214125
F88	F	0.915799	-0.219300	0.734977
H89	H	0.346516	-0.368333	0.404632
F90	F	0.338114	-0.345231	0.185713
H91	H	0.465014	-0.346749	0.199778
F92	F	0.540035	-0.259378	0.219590
H93	H	0.896512	-0.478780	0.861876
H94	H	0.666929	-0.271291	0.229547
H95	H	0.896338	-0.478812	0.743171
F96	F	0.817267	-0.804235	0.390176
F97	F	0.988292	-0.259452	0.533220
F98	F	1.025759	-0.803875	0.334628
H99	H	0.914556	-0.235979	0.861872
F100	F	0.988301	-0.259286	0.936856
H101	H	0.832786	-0.443470	1.063651
