data_functionalizedCrystal
_audit_creation_method	'MofGen! by Chris Wilmer'
_symmetry_space_group_name_H-M	'P1'
_symmetry_Int_Tables_number	1
_symmetry_cell_setting	triclinic
loop_
_symmetry_equiv_pos_as_xyz
  x,y,z
_cell_length_a	17.077404
_cell_length_b	10.686285
_cell_length_c	17.077396
_cell_angle_alpha	85.608118
_cell_angle_beta	89.981638
_cell_angle_gamma	85.629649
loop_
_atom_site_label
_atom_site_type_symbol
_atom_site_fract_x
_atom_site_fract_y
_atom_site_fract_z
Zn1	Zn	1.224118	-0.502416	-0.419907
Zn2	Zn	1.724118	-0.002416	0.080093
Zn3	Zn	1.234132	-0.713437	-0.278597
Zn4	Zn	1.734132	-0.213437	0.221403
Zn5	Zn	1.092852	-0.502452	-0.288655
Zn6	Zn	1.592852	-0.002452	0.211345
Zn7	Zn	1.102921	-0.713354	-0.409827
Zn8	Zn	1.602921	-0.213354	0.090173
O9	O	1.163506	-0.607915	-0.349247
O10	O	1.663506	-0.107915	0.150753
O11	O	1.335294	-0.530428	-0.401170
O12	O	1.835294	-0.030428	0.098830
O13	O	1.215368	-0.685499	-0.170082
O14	O	1.715368	-0.185499	0.329918
O15	O	1.101860	-0.325872	-0.314494
O16	O	1.601860	0.174128	0.185506
O17	O	1.342652	-0.685464	-0.297351
O18	O	1.842652	-0.185464	0.202649
O19	O	1.198300	-0.325845	-0.410923
O20	O	1.698300	0.174155	0.089077
O21	O	1.111570	-0.530490	-0.177472
O22	O	1.611570	-0.030490	0.322528
O23	O	0.984340	-0.530409	-0.304720
O24	O	1.484340	-0.030409	0.195280
O25	O	1.119021	-0.685323	-0.521014
O26	O	1.619021	-0.185323	-0.021014
O27	O	0.991737	-0.685358	-0.393745
O28	O	1.491737	-0.185358	0.106255
O29	O	1.208064	-0.530348	-0.528419
O30	O	1.708064	-0.030348	-0.028419
O31	O	1.225132	-0.890002	-0.287578
O32	O	1.725132	-0.390002	0.212422
O33	O	1.128731	-0.889941	-0.383992
O34	O	1.628731	-0.389941	0.116008
C35	C	0.959556	-0.607879	-0.349231
C36	C	1.459556	-0.107879	0.150769
C37	C	0.872307	-0.607894	-0.349241
C38	C	1.372307	-0.107894	0.150759
C39	C	0.827494	-0.527311	-0.403370
C40	C	1.327494	-0.027311	0.096630
C41	C	0.745514	-0.527319	-0.403373
C42	C	1.245514	-0.027319	0.096627
C43	C	0.708349	-0.607918	-0.349251
C44	C	1.208349	-0.107918	0.150749
C45	C	0.753168	-0.688505	-0.295116
C46	C	1.253168	-0.188505	0.204884
C47	C	0.835146	-0.688490	-0.295110
C48	C	1.335146	-0.188490	0.204890
C49	C	0.582300	-0.688534	-0.295134
C50	C	1.082300	-0.188534	0.204866
C51	C	0.500316	-0.688551	-0.295141
C52	C	1.000316	-0.188551	0.204859
C53	C	0.492667	-0.527363	-0.403397
C54	C	0.992667	-0.027363	0.096603
C55	C	0.574645	-0.527347	-0.403391
C56	C	1.074645	-0.027347	0.096609
C57	C	0.619459	-0.607937	-0.349258
C58	C	1.119459	-0.107937	0.150742
C59	C	1.179132	-0.935755	-0.333617
C60	C	1.679132	-0.435755	0.166383
C61	C	1.185889	-1.076007	-0.326956
C62	C	1.685889	-0.576007	0.173044
C63	C	1.368252	-0.607952	-0.349263
C64	C	1.868252	-0.107952	0.150737
C65	C	1.455502	-0.607967	-0.349270
C66	C	1.955502	-0.107967	0.150730
C67	C	1.163549	-0.607822	-0.553995
C68	C	1.663549	-0.107822	-0.053995
C69	C	1.163567	-0.607782	-0.641247
C70	C	1.663567	-0.107782	-0.141247
C71	C	1.147840	-0.278794	-0.364955
C72	C	1.647840	0.221206	0.135045
C73	C	1.141164	-0.138543	-0.371649
C74	C	1.641164	0.361457	0.128351
C75	C	1.209933	-0.527080	-0.686095
C76	C	1.709933	-0.027080	-0.186095
C77	C	1.209941	-0.527038	-0.768077
C78	C	1.709941	-0.027038	-0.268077
C79	C	1.163586	-0.607706	-0.805210
C80	C	1.663586	-0.107706	-0.305210
C81	C	1.117214	-0.688411	-0.760357
C82	C	1.617214	-0.188411	-0.260357
C83	C	1.117203	-0.688446	-0.678376
C84	C	1.617203	-0.188446	-0.178376
C85	C	1.117242	-0.688335	-0.931231
C86	C	1.617242	-0.188335	-0.431231
C87	C	1.117254	-0.688303	-1.013217
C88	C	1.617254	-0.188303	-0.513217
C89	C	1.209980	-0.526928	-1.020932
C90	C	1.709980	-0.026928	-0.520932
C91	C	1.209969	-0.526962	-0.938951
C92	C	1.709969	-0.026962	-0.438951
C93	C	1.163598	-0.607670	-0.894103
C94	C	1.663598	-0.107670	-0.394103
C95	C	1.163504	-0.607916	-0.145299
C96	C	1.663504	-0.107916	0.354701
C97	C	1.163620	-0.607601	-0.058064
C98	C	1.663620	-0.107601	0.441936
H99	H	0.722902	-0.754124	-0.251045
H100	H	1.222902	-0.254124	0.248955
H101	H	0.470059	-0.754183	-0.251071
H102	H	0.970059	-0.254183	0.248929
Br103	Br	1.258319	-1.165605	-0.254669
Br104	Br	1.758319	-0.665605	0.245331
Br105	Br	1.068724	-1.048949	-0.443919
Br106	Br	1.568724	-0.548949	0.056081
Br107	Br	1.272854	-0.417606	-0.635708
Br108	Br	1.772854	0.082394	-0.135708
H109	H	0.871633	-0.754108	-0.251033
H110	H	1.371633	-0.254108	0.248967
Br111	Br	0.431849	-0.417991	-0.476864
Br112	Br	0.931849	0.082009	0.023136
H113	H	1.247699	-0.461325	-0.804589
H114	H	1.747699	0.038675	-0.304589
Br115	Br	1.272887	-0.417495	-0.888556
Br116	Br	1.772887	0.082505	-0.388556
H117	H	1.079469	-0.754036	-0.894718
H118	H	1.579469	-0.254036	-0.394718
H119	H	1.247735	-0.461210	-1.057451
H120	H	1.747735	0.038790	-0.557451
Br121	Br	0.877924	-0.417929	-0.476831
Br122	Br	1.377924	0.082071	0.023169
H123	H	0.709030	-0.461702	-0.447451
H124	H	1.209030	0.038298	0.052549
H125	H	0.604902	-0.461724	-0.447466
H126	H	1.104902	0.038276	0.052534
H127	H	0.618785	-0.754155	-0.251051
H128	H	1.118785	-0.254155	0.248949
H129	H	1.079506	-0.753986	-1.043448
H130	H	1.579506	-0.253986	-0.543448
Br131	Br	1.054298	-0.797882	-0.810751
Br132	Br	1.554298	-0.297882	-0.310751
H133	H	1.079438	-0.754149	-0.641862
H134	H	1.579438	-0.254149	-0.141862
