data_functionalizedCrystal
_audit_creation_method	'MofGen! by Chris Wilmer'
_symmetry_space_group_name_H-M	'P1'
_symmetry_Int_Tables_number	1
_symmetry_cell_setting	triclinic
loop_
_symmetry_equiv_pos_as_xyz
  x,y,z
_cell_length_a	25.639239
_cell_length_b	12.759401
_cell_length_c	12.759393
_cell_angle_alpha	89.982105
_cell_angle_beta	89.962948
_cell_angle_gamma	90.041630
loop_
_atom_site_label
_atom_site_type_symbol
_atom_site_fract_x
_atom_site_fract_y
_atom_site_fract_z
Zn1	Zn	-0.208079	1.606080	-0.593924
Zn2	Zn	0.291921	2.106080	-0.093924
Zn3	Zn	-0.295526	1.605901	-0.418228
Zn4	Zn	0.204474	2.105901	0.081772
Zn5	Zn	-0.208111	1.430382	-0.418266
Zn6	Zn	0.291889	1.930382	0.081734
Zn7	Zn	-0.295490	1.430297	-0.593871
Zn8	Zn	0.204510	1.930297	-0.093871
O9	O	-0.251801	1.518165	-0.506072
O10	O	0.248199	2.018165	-0.006072
O11	O	-0.219681	1.753078	-0.570624
O12	O	0.280319	2.253078	-0.070624
O13	O	-0.283958	1.582579	-0.271212
O14	O	0.216042	2.082579	0.228788
O15	O	-0.134941	1.453800	-0.441605
O16	O	0.365059	1.953800	0.058395
O17	O	-0.283927	1.752946	-0.441541
O18	O	0.216073	2.252946	0.058459
O19	O	-0.134918	1.582884	-0.570661
O20	O	0.365082	2.082884	-0.070661
O21	O	-0.219735	1.453626	-0.271240
O22	O	0.280265	1.953626	0.228760
O23	O	-0.219700	1.283350	-0.441554
O24	O	0.280300	1.783350	0.058446
O25	O	-0.283866	1.453655	-0.740899
O26	O	0.216134	1.953655	-0.240899
O27	O	-0.283897	1.283288	-0.570570
O28	O	0.216103	1.783288	-0.070570
O29	O	-0.219646	1.582802	-0.740938
O30	O	0.280354	2.082802	-0.240938
O31	O	-0.368686	1.582496	-0.441489
O32	O	0.131314	2.082496	0.058511
O33	O	-0.368660	1.453481	-0.570533
O34	O	0.131340	1.953481	-0.070533
C35	C	-0.387644	1.517989	-0.506024
C36	C	0.112356	2.017989	-0.006024
C37	C	-0.445758	1.518009	-0.506039
C38	C	0.054242	2.018009	-0.006039
C39	C	-0.251798	1.245198	-0.506061
C40	C	0.248202	1.745198	-0.006061
C41	C	-0.251809	1.128421	-0.506081
C42	C	0.248191	1.628421	-0.006081
C43	C	-0.251748	1.518239	-0.780106
C44	C	0.248252	2.018239	-0.280106
C45	C	-0.251726	1.518270	-0.896882
C46	C	0.248274	2.018270	-0.396882
C47	C	-0.806122	1.585519	-0.438993
C48	C	-0.306122	2.085519	0.061007
C49	C	-0.860726	1.585560	-0.439007
C50	C	-0.360726	2.085560	0.060993
O51	O	-0.888964	1.642775	-0.381950
O52	O	-0.388964	2.142775	0.118050
N53	N	-0.888040	1.518350	-0.506142
N54	N	-0.388040	2.018350	-0.006142
C55	C	-0.860747	1.451103	-0.573274
C56	C	-0.360747	1.951103	-0.073274
O57	O	-0.888994	1.393940	-0.630379
O58	O	-0.388994	1.893940	-0.130379
C59	C	-0.806144	1.451068	-0.573265
C60	C	-0.306144	1.951068	-0.073265
C61	C	-0.778833	1.518275	-0.506118
C62	C	-0.278833	2.018275	-0.006118
C63	C	-0.778811	1.652721	-0.371853
C64	C	-0.278811	2.152721	0.128147
C65	C	-0.724210	1.652678	-0.371838
C66	C	-0.224210	2.152678	0.128162
C67	C	-0.696921	1.585434	-0.438963
C68	C	-0.196921	2.085434	0.061037
C69	C	-0.724232	1.518232	-0.506103
C70	C	-0.224232	2.018232	-0.006103
C71	C	-0.778851	1.383827	-0.640401
C72	C	-0.278851	1.883827	-0.140401
C73	C	-0.724244	1.383799	-0.640387
C74	C	-0.224244	1.883799	-0.140387
C75	C	-0.696933	1.451005	-0.573240
C76	C	-0.196933	1.951005	-0.073240
C77	C	-0.642342	1.450946	-0.573213
C78	C	-0.142342	1.950946	-0.073213
N79	N	-0.615028	1.518155	-0.506078
N80	N	-0.115028	2.018155	-0.006078
C81	C	-0.642318	1.585399	-0.438953
C82	C	-0.142318	2.085399	0.061047
C83	C	-0.975418	1.451182	-0.573290
C84	C	-0.475418	1.951182	-0.073290
C85	C	-1.030020	1.451210	-0.573295
C86	C	-0.530020	1.951210	-0.073295
C87	C	-1.029995	1.585669	-0.439030
C88	C	-0.529995	2.085669	0.060970
C89	C	-0.975392	1.585634	-0.439020
C90	C	-0.475392	2.085634	0.060980
C91	C	-0.948104	1.518392	-0.506156
C92	C	-0.448104	2.018392	-0.006156
C93	C	-0.527653	1.585305	-0.438926
C94	C	-0.027653	2.085305	0.061074
C95	C	-0.473047	1.585253	-0.438914
C96	C	0.026953	2.085253	0.061086
C97	C	-0.473076	1.450799	-0.573183
C98	C	0.026924	1.950799	-0.073183
C99	C	-0.527677	1.450846	-0.573192
C100	C	-0.027677	1.950846	-0.073192
C101	C	-0.554964	1.518108	-0.506060
C102	C	-0.054964	2.018108	-0.006060
O103	O	-0.614070	1.393762	-0.630244
O104	O	-0.114070	1.893762	-0.130244
O105	O	-0.614064	1.642562	-0.381868
O106	O	-0.114064	2.142562	0.118132
C107	C	-0.115428	1.518371	-0.506143
C108	C	0.384572	2.018371	-0.006143
C109	C	-0.057314	1.518459	-0.506174
C110	C	0.442686	2.018459	-0.006174
C111	C	-0.251805	1.792199	-0.506084
C112	C	0.248195	2.292199	-0.006084
C113	C	-0.251806	1.908975	-0.506089
C114	C	0.248194	2.408975	-0.006089
C115	C	-0.218356	1.963907	-0.573290
C116	C	0.281644	2.463907	-0.073290
C117	C	-0.218359	2.073631	-0.573289
C118	C	0.281641	2.573631	-0.073289
C119	C	-0.285263	2.073481	-0.438877
C120	C	0.214737	2.573481	0.061123
C121	C	-0.285263	1.963759	-0.438885
C122	C	0.214737	2.463759	0.061115
C123	C	-0.179727	1.963995	-0.650888
C124	C	0.320273	2.463995	-0.150888
C125	C	-0.179730	2.073719	-0.650887
C126	C	0.320270	2.573719	-0.150887
C127	C	-0.218283	1.585526	-0.951767
C128	C	0.281717	2.085526	-0.451767
C129	C	-0.218264	1.585551	-1.061491
C130	C	0.281736	2.085551	-0.561491
C131	C	-0.285135	1.451061	-1.061437
C132	C	0.214865	1.951061	-0.561437
C133	C	-0.285151	1.451032	-0.951715
C134	C	0.214849	1.951032	-0.451715
C135	C	-0.179677	1.663176	-0.951799
C136	C	0.320323	2.163176	-0.451799
C137	C	-0.179658	1.663201	-1.061523
C138	C	0.320342	2.163201	-0.561523
C139	C	-0.251816	1.518152	-0.233105
C140	C	0.248184	2.018152	0.266895
C141	C	-0.251691	1.518325	-0.116329
C142	C	0.248309	2.018325	0.383671
H143	H	-0.450812	1.639981	-0.384231
H144	H	0.049188	2.139981	0.115769
H145	H	-0.312506	1.919038	-0.384172
H146	H	0.187494	2.419038	0.115828
Cl147	Cl	-0.202099	2.126279	-0.770210
Cl148	Cl	0.297901	2.626279	-0.270210
H149	H	-0.450849	1.396046	-0.627832
H150	H	0.049151	1.896046	-0.127832
Cl151	Cl	-0.117221	2.119785	-0.617260
Cl152	Cl	0.382779	2.619785	-0.117260
H153	H	-0.801079	1.329095	-0.695074
H154	H	-0.301079	1.829095	-0.195074
Cl155	Cl	-0.562012	1.366336	-0.657584
Cl156	Cl	-0.062012	1.866336	-0.157584
H157	H	-0.953202	1.396416	-0.627957
H158	H	-0.453202	1.896416	-0.127957
H159	H	-0.312504	2.118100	-0.384163
H160	H	0.187496	2.618100	0.115837
H161	H	-0.702029	1.329043	-0.695060
H162	H	-0.202029	1.829043	-0.195060
H163	H	-0.190554	1.934234	-0.732256
H164	H	0.309446	2.434234	-0.232256
H165	H	-0.801024	1.707485	-0.317192
H166	H	-0.301024	2.207485	0.182808
Cl167	Cl	-0.327153	1.366538	-1.130376
Cl168	Cl	0.172847	1.866538	-0.630376
H169	H	-0.139187	1.641442	-0.922051
H170	H	0.360813	2.141442	-0.422051
Cl171	Cl	-0.561947	1.669861	-0.354528
Cl172	Cl	-0.061947	2.169861	0.145472
Cl173	Cl	-0.689885	1.737187	-0.287437
Cl174	Cl	-0.189885	2.237187	0.212563
Cl175	Cl	-0.120350	1.911513	-0.605922
Cl176	Cl	0.379650	2.411513	-0.105922
H177	H	-0.190501	1.744563	-1.091298
H178	H	0.309499	2.244563	-0.591298
H179	H	-0.312382	1.396262	-0.907032
H180	H	0.187618	1.896262	-0.407032
H181	H	-0.194191	1.740436	-0.917759
H182	H	0.305809	2.240436	-0.417759
H183	H	-0.141186	1.634120	-1.095578
H184	H	0.358814	2.134120	-0.595578
H185	H	-0.953159	1.640360	-0.384344
H186	H	-0.453159	2.140360	0.115656
H187	H	-1.052224	1.640427	-0.384376
H188	H	-0.552224	2.140427	0.115624
H189	H	-1.052252	1.396474	-0.627963
H190	H	-0.552252	1.896474	-0.127963
