data_functionalizedCrystal
_audit_creation_method	'MofGen! by Chris Wilmer'
_symmetry_space_group_name_H-M	'P1'
_symmetry_Int_Tables_number	1
_symmetry_cell_setting	triclinic
loop_
_symmetry_equiv_pos_as_xyz
  x,y,z
_cell_length_a	16.974800
_cell_length_b	16.992695
_cell_length_c	15.455313
_cell_angle_alpha	92.847427
_cell_angle_beta	90.973911
_cell_angle_gamma	87.021674
loop_
_atom_site_label
_atom_site_type_symbol
_atom_site_fract_x
_atom_site_fract_y
_atom_site_fract_z
O1	O	1.055370	0.099968	0.001980
O2	O	1.555370	0.599968	0.501980
O3	O	0.826692	0.111944	-0.014081
O4	O	1.326692	0.611944	0.485919
O5	O	0.940114	-0.008189	-0.006108
O6	O	1.440114	0.491811	0.493892
O7	O	0.941948	0.220100	-0.005993
O8	O	1.441948	0.720100	0.494007
O9	O	0.933626	-0.001347	0.137698
O10	O	1.433626	0.498653	0.637698
O11	O	0.820204	0.118785	0.129725
O12	O	1.320204	0.618785	0.629725
O13	O	1.048882	0.106809	0.145786
O14	O	1.548882	0.606809	0.645786
Cu15	Cu	0.933951	0.113422	0.150886
Cu16	Cu	1.433951	0.613422	0.650886
Cu17	Cu	0.941623	0.105331	-0.019181
Cu18	Cu	1.441623	0.605331	0.480819
O19	O	0.935460	0.226941	0.137813
O20	O	1.435460	0.726941	0.637813
C21	C	0.794052	0.114783	0.055758
C22	C	1.294052	0.614783	0.555758
C23	C	0.706461	0.113043	0.049607
C24	C	1.206461	0.613043	0.549607
C25	C	0.661778	0.115953	0.125107
C26	C	1.161778	0.615953	0.625107
C27	C	0.579478	0.114306	0.119330
C28	C	1.079478	0.614306	0.619330
C29	C	0.541861	0.109754	0.038051
C30	C	1.041861	0.609754	0.538051
C31	C	0.586550	0.106842	-0.037456
C32	C	1.086550	0.606842	0.462544
C33	C	0.668849	0.108483	-0.031677
C34	C	1.168849	0.608483	0.468323
C35	C	0.296102	0.104438	0.012363
C36	C	0.796102	0.604438	0.512363
C37	C	0.213796	0.102799	0.006591
C38	C	0.713796	0.602799	0.506591
C39	C	0.206730	0.110262	0.163377
C40	C	0.706730	0.610262	0.663377
C41	C	0.289031	0.111908	0.169148
C42	C	0.789031	0.611908	0.669148
C43	C	0.333713	0.108991	0.093642
C44	C	0.833713	0.608991	0.593642
N45	N	0.457736	0.108072	0.032143
N46	N	0.957736	0.608072	0.532143
N47	N	0.417836	0.110667	0.099550
N48	N	0.917836	0.610667	0.599550
C49	C	0.934511	-0.033986	0.065629
C50	C	1.434511	0.466014	0.565629
C51	C	0.927474	-0.121046	0.065135
C52	C	1.427474	0.378954	0.565135
C53	C	0.995375	-0.171136	0.069905
C54	C	1.495375	0.328864	0.569905
C55	C	0.988758	-0.252938	0.069432
C56	C	1.488758	0.247062	0.569432
C57	C	0.914240	-0.284647	0.064195
C58	C	1.414240	0.215353	0.564195
C59	C	0.846334	-0.234550	0.059423
C60	C	1.346334	0.265450	0.559423
C61	C	0.852952	-0.152750	0.059889
C62	C	1.352952	0.347250	0.559889
C63	C	0.886813	-0.528306	0.062257
C64	C	1.386813	-0.028306	0.562257
C65	C	0.880200	-0.610112	0.061793
C66	C	1.380200	-0.110112	0.561793
C67	C	1.022624	-0.628494	0.071801
C68	C	1.522624	-0.128494	0.571801
C69	C	1.029235	-0.546692	0.072272
C70	C	1.529235	-0.046692	0.572272
C71	C	0.961330	-0.496602	0.067495
C72	C	1.461330	0.003398	0.567495
N73	N	0.907475	-0.368261	0.063714
N74	N	1.407475	0.131739	0.563714
N75	N	0.968096	-0.412990	0.067970
N76	N	1.468096	0.087010	0.567970
C77	C	1.081522	0.103969	0.075945
C78	C	1.581522	0.603969	0.575945
C79	C	1.169114	0.105709	0.082091
C80	C	1.669114	0.605709	0.582091
C81	C	0.941063	0.252738	0.066074
C82	C	1.441063	0.752738	0.566074
C83	C	0.948100	0.339798	0.066563
C84	C	1.448100	0.839798	0.566563
N85	N	0.928560	0.119112	0.270503
N86	N	1.428560	0.619112	0.770503
N87	N	0.947020	0.099635	-0.138797
N88	N	1.447020	0.599635	0.361203
C89	C	0.976765	0.068094	0.319285
C90	C	1.476765	0.568094	0.819285
C91	C	0.972696	0.072404	0.409807
C92	C	1.472696	0.572404	0.909807
C93	C	0.920425	0.127737	0.451545
C94	C	1.420425	0.627737	0.951545
C95	C	0.872215	0.178757	0.402756
C96	C	1.372215	0.678757	0.902756
C97	C	0.876281	0.174442	0.312236
C98	C	1.376281	0.674442	0.812236
C99	C	0.902875	0.146340	0.721893
C100	C	1.402875	0.646340	1.221893
C101	C	0.898815	0.150652	0.812420
C102	C	1.398815	0.650652	1.312420
C103	C	0.999295	0.044298	0.819465
C104	C	1.499295	0.544298	1.319465
C105	C	1.003359	0.039992	0.728943
C106	C	1.503359	0.539992	1.228943
C107	C	0.955146	0.091009	0.680161
C108	C	1.455146	0.591009	1.180161
N109	N	0.916267	0.132146	0.544073
N110	N	1.416267	0.632146	1.044073
N111	N	0.959302	0.086596	0.587635
N112	N	1.459302	0.586596	1.087635
H113	H	0.555916	0.103130	-0.103635
H114	H	1.055916	0.603130	0.396365
H115	H	0.332472	0.102061	-0.049119
H116	H	0.832472	0.602061	0.450881
C117	C	1.034268	0.007235	0.273378
C118	C	1.534268	0.507235	0.773378
H119	H	1.029794	0.011977	0.212480
H120	H	1.529794	0.511977	0.712480
H121	H	1.021755	-0.044422	0.287390
H122	H	1.521755	0.455578	0.787390
H123	H	1.086738	0.016616	0.291934
H124	H	1.586738	0.516616	0.791934
C125	C	0.530295	0.117982	0.202374
C126	C	1.030295	0.617982	0.702374
H127	H	0.475884	0.116487	0.187294
H128	H	0.975884	0.616487	0.687294
H129	H	0.539375	0.165604	0.234981
H130	H	1.039375	0.665604	0.734981
H131	H	0.545268	0.074249	0.236076
H132	H	1.045268	0.574249	0.736076
H133	H	0.183171	0.099095	-0.059600
H134	H	0.683171	0.599095	0.440400
C135	C	0.717999	0.105288	-0.114728
C136	C	1.217999	0.605288	0.385272
H137	H	0.683810	0.102350	-0.163963
H138	H	1.183810	0.602350	0.336037
H139	H	0.753387	0.060085	-0.115511
H140	H	1.253387	0.560085	0.384489
H141	H	0.747114	0.151468	-0.115954
H142	H	1.247114	0.651468	0.384046
C143	C	0.703151	0.120946	0.214515
C144	C	1.203151	0.620946	0.714515
H145	H	0.664750	0.122431	0.258652
H146	H	1.164750	0.622431	0.758652
H147	H	0.731979	0.167426	0.219818
H148	H	1.231979	0.667426	0.719818
H149	H	0.738238	0.076041	0.220240
H150	H	1.238238	0.576041	0.720240
C151	C	0.823259	0.230561	0.258571
C152	C	1.323259	0.730561	0.758571
H153	H	0.833161	0.220062	0.198683
H154	H	1.333161	0.720062	0.698683
H155	H	0.834443	0.283631	0.274224
H156	H	1.334443	0.783631	0.774224
H157	H	0.769454	0.222598	0.269690
H158	H	1.269454	0.722598	0.769690
H159	H	0.819515	-0.635925	0.057543
H160	H	1.319515	-0.135925	0.557543
C161	C	0.330403	0.116934	0.258555
C162	C	0.830403	0.616934	0.758555
H163	H	0.292004	0.118432	0.302694
H164	H	0.792004	0.618432	0.802694
H165	H	0.359218	0.163423	0.263827
H166	H	0.859218	0.663423	0.763827
H167	H	0.365503	0.072042	0.264306
H168	H	0.865503	0.572042	0.764306
C169	C	0.157578	0.113498	0.246425
C170	C	0.657578	0.613498	0.746425
H171	H	0.103175	0.111873	0.231347
H172	H	0.603175	0.611873	0.731347
H173	H	0.166492	0.160996	0.279337
H174	H	0.666492	0.660996	0.779337
H175	H	0.172735	0.069615	0.279825
H176	H	0.672735	0.569615	0.779825
H177	H	0.797660	-0.111967	0.056005
H178	H	1.297660	0.388033	0.556005
C179	C	1.077345	-0.136263	0.075665
C180	C	1.577345	0.363737	0.575665
H181	H	1.116836	-0.177815	0.078429
H182	H	1.616836	0.322185	0.578429
H183	H	1.080627	-0.102353	0.126202
H184	H	1.580627	0.397647	0.626202
H185	H	1.085149	-0.107120	0.025899
H186	H	1.585149	0.392880	0.525899
C187	C	0.849866	0.202475	0.668242
C188	C	1.349866	0.702475	1.168242
H189	H	0.859769	0.191983	0.608353
H190	H	1.359769	0.691983	1.108353
H191	H	0.861068	0.255538	0.683908
H192	H	1.361068	0.755538	1.183908
H193	H	0.796057	0.194529	0.679355
H194	H	1.296057	0.694529	1.179355
H195	H	1.011947	0.030861	0.449526
H196	H	1.511947	0.530861	0.949526
C197	C	1.060852	-0.020878	0.683037
C198	C	1.560852	0.479122	1.183037
H199	H	1.088974	-0.050651	0.725055
H200	H	1.588974	0.449349	1.225055
H201	H	1.097021	0.005738	0.650138
H202	H	1.597021	0.505738	1.150138
H203	H	1.032024	-0.055287	0.645605
H204	H	1.532024	0.444713	1.145605
H205	H	0.785660	-0.260374	0.055154
H206	H	1.285660	0.239626	0.555154
H207	H	1.038547	0.002762	0.859191
H208	H	1.538547	0.502762	1.359191
C209	C	0.812119	-0.473217	0.057018
C210	C	1.312119	0.026783	0.557018
H211	H	0.766792	-0.503820	0.053844
H212	H	1.266792	-0.003820	0.553844
H213	H	0.813994	-0.443304	0.006845
H214	H	1.313994	0.056696	0.506845
H215	H	0.809480	-0.438545	0.107148
H216	H	1.309480	0.061455	0.607148
C217	C	1.063449	-0.308034	0.074687
C218	C	1.563449	0.191966	0.574687
H219	H	1.108775	-0.277433	0.077885
H220	H	1.608775	0.222567	0.577885
H221	H	1.066098	-0.342710	0.024566
H222	H	1.566098	0.157290	0.524566
H223	H	1.061558	-0.337941	0.124868
H224	H	1.561558	0.162059	0.624868
C225	C	1.111206	-0.511818	0.078021
C226	C	1.611206	-0.011818	0.578021
H227	H	1.150699	-0.553367	0.080785
H228	H	1.650699	-0.053367	0.580785
H229	H	1.114489	-0.477905	0.128557
H230	H	1.614489	0.022095	0.628557
H231	H	1.119005	-0.482675	0.028253
H232	H	1.619005	0.017325	0.528253
H233	H	0.856248	0.195714	0.846399
H234	H	1.356248	0.695714	1.346399
H235	H	0.829652	0.223807	0.436744
H236	H	1.329652	0.723807	0.936744
C237	C	1.097313	-0.683593	0.077043
C238	C	1.597313	-0.183593	0.577043
H239	H	1.082703	-0.736852	0.076007
H240	H	1.582703	-0.236852	0.576007
H241	H	1.125399	-0.671584	0.129320
H242	H	1.625399	-0.171584	0.629320
H243	H	1.129915	-0.676344	0.029016
H244	H	1.629915	-0.176344	0.529016
