data_functionalizedCrystal
_audit_creation_method	'MofGen! by Chris Wilmer'
_symmetry_space_group_name_H-M	'P1'
_symmetry_Int_Tables_number	1
_symmetry_cell_setting	triclinic
loop_
_symmetry_equiv_pos_as_xyz
  x,y,z
_cell_length_a	11.792254
_cell_length_b	11.792241
_cell_length_c	7.540329
_cell_angle_alpha	89.996256
_cell_angle_beta	89.997091
_cell_angle_gamma	84.196007
loop_
_atom_site_label
_atom_site_type_symbol
_atom_site_fract_x
_atom_site_fract_y
_atom_site_fract_z
O1	O	1.506898	0.155635	-0.147482
O2	O	1.176559	0.171653	-0.147486
O3	O	1.349745	-0.001527	-0.147471
O4	O	1.333712	0.328814	-0.147496
O5	O	1.349734	-0.001529	0.147494
O6	O	1.176548	0.171650	0.147479
O7	O	1.506887	0.155632	0.147483
Cu8	Cu	1.341717	0.163641	0.174414
Cu9	Cu	1.341729	0.163644	-0.174416
O10	O	1.333701	0.328812	0.147469
C11	C	1.134263	0.170642	-0.000004
C12	C	1.008250	0.167622	-0.000005
C13	C	0.905913	0.165168	-0.000012
C14	C	0.777527	0.162100	-0.000013
C15	C	1.348732	-0.043819	0.000011
C16	C	1.345718	-0.169832	0.000009
C17	C	1.340175	-0.400545	-0.000021
C18	C	1.343255	-0.272160	-0.000004
C19	C	1.549183	0.156643	-0.000003
C20	C	1.675196	0.159663	-0.000013
C21	C	1.334714	0.371104	-0.000017
C22	C	1.337728	0.497118	-0.000027
N23	N	1.341717	0.163639	0.419763
N24	N	1.341738	0.163637	-0.419765
