data_functionalizedCrystal
_audit_creation_method	'MofGen! by Chris Wilmer'
_symmetry_space_group_name_H-M	'P1'
_symmetry_Int_Tables_number	1
_symmetry_cell_setting	triclinic
loop_
_symmetry_equiv_pos_as_xyz
  x,y,z
_cell_length_a	10.686220
_cell_length_b	16.120484
_cell_length_c	10.685880
_cell_angle_alpha	97.443083
_cell_angle_beta	89.641569
_cell_angle_gamma	97.070967
loop_
_atom_site_label
_atom_site_type_symbol
_atom_site_fract_x
_atom_site_fract_y
_atom_site_fract_z
Zn1	Zn	1.953705	-0.262275	-0.583880
Zn2	Zn	1.928247	-0.392927	-0.384842
Zn3	Zn	1.727713	-0.263987	-0.390343
Zn4	Zn	1.733154	-0.414283	-0.612365
O5	O	1.835705	-0.333368	-0.492858
O6	O	2.126553	-0.269952	-0.543254
O7	O	1.888714	-0.367602	-0.209356
O8	O	1.766069	-0.146183	-0.406398
O9	O	2.107849	-0.365941	-0.397021
O10	O	1.932104	-0.144925	-0.548589
O11	O	1.741383	-0.272871	-0.213398
O12	O	1.552210	-0.293579	-0.434018
O13	O	1.775341	-0.402340	-0.784802
O14	O	1.556206	-0.404000	-0.597137
O15	O	1.937380	-0.290660	-0.763874
O16	O	1.893990	-0.513337	-0.424642
O17	O	1.750655	-0.529027	-0.591802
C18	C	1.508515	-0.351293	-0.519266
C19	C	1.368542	-0.358983	-0.530595
C20	C	1.820186	-0.551668	-0.510741
C21	C	1.813666	-0.645053	-0.518424
C22	C	1.801771	-0.816029	-0.532477
C23	C	1.869866	-0.849855	-0.453241
C24	C	1.863247	-0.944992	-0.461060
C25	C	1.808388	-0.720884	-0.524659
C26	C	2.164172	-0.315374	-0.466347
C27	C	2.304146	-0.307705	-0.455049
C28	C	1.859807	-0.348691	-0.821306
C29	C	1.870078	-0.355221	-0.961271
C30	C	1.851320	-0.114215	-0.474930
C31	C	1.857974	-0.020825	-0.467290
C32	C	1.811773	-0.318040	-0.165676
C33	C	1.801763	-0.311260	-0.025673
H34	H	1.316585	-0.408775	-0.603939
H35	H	1.356096	-0.257922	-0.381703
O36	O	1.949408	-0.406026	-1.023067
C37	C	2.073905	-0.379293	-0.979400
H38	H	2.071880	-0.342445	-0.881022
H39	H	2.124769	-0.337185	-1.046440
C40	C	2.146413	-0.502009	-1.094865
C41	C	2.143925	-0.456757	-0.974030
H42	H	2.189608	-0.549791	-1.091557
H43	H	2.062538	-0.520018	-1.124289
H44	H	2.188797	-0.466909	-1.150718
H45	H	2.101528	-0.491853	-0.918184
H46	H	2.227795	-0.438755	-0.944597
O47	O	1.945527	-0.799203	-0.365422
C48	C	2.071593	-0.814900	-0.384594
H49	H	2.083620	-0.843399	-0.486636
H50	H	2.096141	-0.860792	-0.318542
C51	C	2.145124	-0.696552	-0.231592
C52	C	2.159898	-0.731549	-0.356925
H53	H	2.199596	-0.645138	-0.214519
H54	H	2.060190	-0.685978	-0.218671
H55	H	2.165579	-0.734803	-0.176563
H56	H	2.139427	-0.693302	-0.411951
H57	H	2.244830	-0.742114	-0.369855
O58	O	1.726309	-0.866835	-0.620288
C59	C	1.736434	-0.951886	-0.608645
H60	H	1.769832	-0.956964	-0.509123
H61	H	1.807219	-0.976542	-0.679992
C62	C	1.565741	-0.998391	-0.756222
C63	C	1.606751	-1.004629	-0.633984
H64	H	1.485748	-1.030927	-0.771858
H65	H	1.558921	-0.941090	-0.764070
H66	H	1.624739	-1.018936	-0.815663
H67	H	1.547761	-0.984074	-0.574545
H68	H	1.613557	-1.061927	-0.626126
O69	O	1.722699	-0.260407	-0.963511
C70	C	1.729670	-0.264997	-0.832916
H71	H	1.823599	-0.286368	-0.809474
H72	H	1.649075	-0.312113	-0.805285
C73	C	1.603909	-0.151250	-0.788042
C74	C	1.719278	-0.177491	-0.759249
H75	H	1.597493	-0.097274	-0.742599
H76	H	1.599208	-0.148159	-0.876026
H77	H	1.536759	-0.190520	-0.765015
H78	H	1.786426	-0.138227	-0.782290
H79	H	1.723991	-0.180573	-0.671267
