data_functionalizedCrystal
_audit_creation_method	'MofGen! by Chris Wilmer'
_symmetry_space_group_name_H-M	'P1'
_symmetry_Int_Tables_number	1
_symmetry_cell_setting	triclinic
loop_
_symmetry_equiv_pos_as_xyz
  x,y,z
_cell_length_a	12.827892
_cell_length_b	12.827893
_cell_length_c	18.215399
_cell_angle_alpha	90.017515
_cell_angle_beta	90.023838
_cell_angle_gamma	90.015553
loop_
_atom_site_label
_atom_site_type_symbol
_atom_site_fract_x
_atom_site_fract_y
_atom_site_fract_z
Zn1	Zn	-0.416039	1.597653	0.416091
Zn2	Zn	-0.590799	1.597552	0.293034
Zn3	Zn	-0.416073	1.422900	0.293044
Zn4	Zn	-0.590739	1.422880	0.416064
O5	O	-0.503412	1.510246	0.354558
O6	O	-0.439232	1.743876	0.399775
O7	O	-0.567659	1.574350	0.190051
O8	O	-0.269832	1.446132	0.309382
O9	O	-0.567627	1.743802	0.309365
O10	O	-0.269808	1.574522	0.399784
O11	O	-0.439289	1.446034	0.190058
O12	O	-0.439232	1.276661	0.309355
O13	O	-0.567526	1.446098	0.519052
O14	O	-0.567559	1.276647	0.399738
O15	O	-0.439175	1.574504	0.519072
O16	O	-0.737027	1.574331	0.309338
O17	O	-0.736983	1.446000	0.399728
C18	C	-0.503393	1.238736	0.354545
C19	C	-0.503410	1.122583	0.354557
C20	C	-0.567026	0.950775	0.399223
C21	C	-0.567010	1.070825	0.399212
C22	C	-0.774922	1.510181	0.354545
C23	C	-0.891075	1.510249	0.354564
C24	C	-0.942847	1.573826	0.309886
C25	C	-1.062897	1.573898	0.309905
C26	C	-0.230842	1.510340	0.354587
C27	C	-0.114689	1.510381	0.354600
C28	C	-0.503340	1.510310	0.546511
C29	C	-0.503310	1.510337	0.628310
C30	C	-0.503433	1.782816	0.354572
C31	C	-0.503441	1.898970	0.354578
C32	C	-0.503409	1.510243	0.163352
C33	C	-0.503145	1.510418	0.081553
C34	C	-0.436415	1.577222	0.816516
C35	C	-0.436384	1.577234	0.893375
C36	C	-0.570043	1.443526	0.893342
C37	C	-0.570068	1.443509	0.816485
C38	C	-0.503255	1.510363	0.778074
C39	C	-0.503200	1.510392	0.931790
C40	C	-0.503167	1.510405	1.015124
C41	C	-0.503286	1.510349	0.694735
H42	H	-0.448966	1.078039	0.316336
F43	F	-0.365250	1.648401	0.934284
H44	H	-0.624442	1.389099	0.924626
H45	H	-1.107420	1.628326	0.271653
F46	F	-0.432275	0.957161	0.304603
H47	H	-0.624496	1.389058	0.785184
F48	F	-1.056506	1.439224	0.404596
F49	F	-0.949304	1.439175	0.404584
H50	H	-0.382008	1.631655	0.785244
F51	F	-0.638160	1.129053	0.449176
H52	H	-0.621479	0.906250	0.437450
H53	H	-0.898296	1.628209	0.271624
