data_functionalizedCrystal
_audit_creation_method	'MofGen! by Chris Wilmer'
_symmetry_space_group_name_H-M	'P1'
_symmetry_Int_Tables_number	1
_symmetry_cell_setting	triclinic
loop_
_symmetry_equiv_pos_as_xyz
  x,y,z
_cell_length_a	14.519731
_cell_length_b	10.489741
_cell_length_c	12.996460
_cell_angle_alpha	89.994152
_cell_angle_beta	89.994327
_cell_angle_gamma	84.114013
loop_
_atom_site_label
_atom_site_type_symbol
_atom_site_fract_x
_atom_site_fract_y
_atom_site_fract_z
O1	O	1.224768	0.167333	-0.085568
O2	O	0.956401	0.186995	-0.085570
O3	O	1.096691	-0.008497	-0.085563
O4	O	1.084478	0.362825	-0.085575
O5	O	1.096677	-0.008508	0.085571
O6	O	0.956386	0.186984	0.085564
O7	O	1.224754	0.167322	0.085565
Cu8	Cu	1.090569	0.177152	0.101190
Cu9	Cu	1.090586	0.177165	-0.101195
O10	O	1.084463	0.362814	0.085558
C11	C	0.922029	0.186068	-0.000003
C12	C	0.819634	0.183308	-0.000004
C13	C	0.736478	0.181064	-0.000008
C14	C	0.632154	0.178261	-0.000008
C15	C	0.549003	0.176037	-0.000008
C16	C	0.444672	0.173234	-0.000010
C17	C	1.095762	-0.056024	0.000003
C18	C	1.093002	-0.197625	0.000001
C19	C	1.003739	-0.264844	-0.000007
C20	C	1.045899	-0.357407	0.084371
C21	C	1.045935	-0.357371	-0.084353
C22	C	1.135198	-0.288323	0.084449
C23	C	1.135221	-0.288278	-0.084351
C24	C	1.177446	-0.380814	0.000047
C25	C	1.259125	0.168249	-0.000004
C26	C	1.361521	0.171010	-0.000010
C27	C	1.085393	0.410342	-0.000010
C28	C	1.088153	0.551943	-0.000015
N29	N	1.090563	0.177142	0.243538
N30	N	1.090599	0.177165	-0.243542
C31	C	1.090585	0.177166	0.663352
C32	C	1.090576	0.177164	0.546547
C33	C	1.090574	0.177155	0.453448
C34	C	1.090565	0.177151	0.336636
H35	H	0.930348	-0.214436	0.000078
F36	F	1.184517	-0.248544	0.177793
H37	H	1.250903	-0.430996	0.000095
F38	F	0.996526	-0.397439	0.177613
F39	F	0.996556	-0.397356	-0.177588
F40	F	1.184556	-0.248200	-0.177596
