data_functionalizedCrystal
_audit_creation_method	'MofGen! by Chris Wilmer'
_symmetry_space_group_name_H-M	'P1'
_symmetry_Int_Tables_number	1
_symmetry_cell_setting	triclinic
loop_
_symmetry_equiv_pos_as_xyz
  x,y,z
_cell_length_a	13.032831
_cell_length_b	17.640280
_cell_length_c	13.032268
_cell_angle_alpha	87.294217
_cell_angle_beta	90.886977
_cell_angle_gamma	70.377065
loop_
_atom_site_label
_atom_site_type_symbol
_atom_site_fract_x
_atom_site_fract_y
_atom_site_fract_z
Zn1	Zn	1.657819	-0.537275	-0.657580
Zn2	Zn	1.714714	-0.655808	-0.458408
Zn3	Zn	1.497821	-0.504041	-0.471445
Zn4	Zn	1.519686	-0.651506	-0.609520
O5	O	1.597510	-0.587158	-0.549239
O6	O	1.813945	-0.568708	-0.645817
O7	O	1.700603	-0.623567	-0.318999
O8	O	1.486083	-0.397129	-0.521706
O9	O	1.855746	-0.655793	-0.499486
O10	O	1.603633	-0.421546	-0.658459
O11	O	1.541252	-0.512065	-0.328577
O12	O	1.352142	-0.507894	-0.475104
O13	O	1.523350	-0.648462	-0.757034
O14	O	1.368206	-0.616236	-0.576547
O15	O	1.624835	-0.564537	-0.792344
O16	O	1.721805	-0.766558	-0.452884
O17	O	1.578519	-0.763397	-0.563905
C18	C	1.321649	-0.557992	-0.522026
C19	C	1.203638	-0.545536	-0.510403
C20	C	1.159034	-0.593658	-0.555304
C21	C	1.037063	-0.580786	-0.543293
C22	C	1.658735	-0.793847	-0.501790
C23	C	1.685021	-0.882282	-0.481534
C24	C	1.398216	-1.164984	-0.703527
C25	C	1.422921	-1.248080	-0.684462
C26	C	1.572195	-1.251326	-0.568994
C27	C	1.547506	-1.168229	-0.588054
C28	C	1.460514	-1.125064	-0.655320
C29	C	1.609804	-1.128309	-0.539846
C30	C	1.585113	-1.045219	-0.558900
C31	C	1.498123	-1.002048	-0.626161
C32	C	1.435823	-1.041974	-0.674374
C33	C	1.696791	-1.171474	-0.472575
C34	C	1.759089	-1.131554	-0.424368
C35	C	1.734403	-1.048463	-0.443427
C36	C	1.647414	-1.005293	-0.510688
C37	C	1.796704	-1.008537	-0.395214
C38	C	1.772013	-0.925447	-0.414268
C39	C	1.622722	-0.922202	-0.529741
C40	C	1.874448	-0.616437	-0.576558
C41	C	1.992462	-0.628915	-0.588200
C42	C	1.570185	-0.609727	-0.812308
C43	C	1.558541	-0.619344	-0.924413
C44	C	1.536072	-0.379666	-0.596898
C45	C	1.509891	-0.291246	-0.617207
C46	C	1.603562	-0.582108	-0.991863
C47	C	1.591528	-0.592047	-1.107729
C48	C	1.624773	-0.564625	-0.287212
C49	C	1.636556	-0.554805	-0.175179
H50	H	1.211143	-0.644385	-0.602642
Br51	Br	0.950220	-0.496221	-0.464404
Br52	Br	1.116791	-0.460975	-0.431518
H53	H	1.643021	-1.286481	-0.514223
Br54	Br	1.682619	-0.516678	-0.945155
Br55	Br	1.079293	-0.713460	-0.667123
H56	H	1.829915	-1.166710	-0.369596
Br57	Br	1.338348	-1.302253	-0.749877
H58	H	1.364992	-1.006829	-0.729157
H59	H	1.551892	-0.887057	-0.584525
Br60	Br	1.464852	-0.889331	-0.652305
H61	H	1.327385	-1.129839	-0.758311
H62	H	1.716894	-1.239132	-0.457066
H63	H	1.867525	-1.043693	-0.340438
H64	H	1.544063	-0.631282	-1.135757
H65	H	1.822742	-0.892944	-0.375011
H66	H	1.511079	-0.658576	-0.952446
H67	H	1.684006	-0.515559	-1.147154
