data_functionalizedCrystal
_audit_creation_method	'MofGen! by Chris Wilmer'
_symmetry_space_group_name_H-M	'P1'
_symmetry_Int_Tables_number	1
_symmetry_cell_setting	triclinic
loop_
_symmetry_equiv_pos_as_xyz
  x,y,z
_cell_length_a	18.101398
_cell_length_b	14.908520
_cell_length_c	14.908308
_cell_angle_alpha	96.360765
_cell_angle_beta	93.270575
_cell_angle_gamma	93.313158
loop_
_atom_site_label
_atom_site_type_symbol
_atom_site_fract_x
_atom_site_fract_y
_atom_site_fract_z
Zn1	Zn	-1.088443	0.390073	0.532768
Zn2	Zn	-0.755109	0.723406	0.866101
Zn3	Zn	-0.421776	1.056740	1.199435
Zn4	Zn	-1.088358	0.532718	0.390138
Zn5	Zn	-0.755025	0.866052	0.723472
Zn6	Zn	-0.421692	1.199385	1.056805
Zn7	Zn	-0.972187	0.381354	0.381404
Zn8	Zn	-0.638853	0.714688	0.714738
Zn9	Zn	-0.305520	1.048021	1.048071
Zn10	Zn	-0.956994	0.541367	0.541423
Zn11	Zn	-0.623661	0.874701	0.874756
Zn12	Zn	-0.290327	1.208034	1.208090
O13	O	-1.026495	0.461378	0.461433
O14	O	-0.693162	0.794712	0.794767
O15	O	-0.359829	1.128045	1.128100
O16	O	-1.192061	0.409024	0.513881
O17	O	-0.858728	0.742358	0.847214
O18	O	-0.525395	1.075691	1.180548
O19	O	-1.079271	0.505371	0.262320
O20	O	-0.745938	0.838704	0.595654
O21	O	-0.412604	1.172038	0.928987
O22	O	-0.994002	0.255847	0.394206
O23	O	-0.660669	0.589181	0.727539
O24	O	-0.327335	0.922514	1.060872
O25	O	-1.192000	0.513825	0.409091
O26	O	-0.858666	0.847159	0.742425
O27	O	-0.525333	1.180492	1.075758
O28	O	-1.079414	0.262253	0.505412
O29	O	-0.746081	0.595586	0.838745
O30	O	-0.412748	0.928920	1.172079
O31	O	-0.993920	0.394165	0.255904
O32	O	-0.660587	0.727498	0.589237
O33	O	-0.327254	1.060831	0.922570
O34	O	-0.866541	0.402551	0.402598
O35	O	-0.533208	0.735884	0.735932
O36	O	-0.199875	1.069218	1.069265
O37	O	-0.968108	0.528566	0.666934
O38	O	-0.634774	0.861900	1.000268
O39	O	-0.301441	1.195233	1.333601
O40	O	-0.855379	0.520112	0.520163
O41	O	-0.522046	0.853445	0.853497
O42	O	-0.188713	1.186779	1.186830
O43	O	-1.064682	0.417411	0.660576
O44	O	-0.731349	0.750744	0.993909
O45	O	-0.398016	1.084078	1.327242
O46	O	-1.064539	0.660529	0.417484
O47	O	-0.731206	0.993862	0.750817
O48	O	-0.397872	1.327196	1.084151
O49	O	-0.968026	0.666883	0.528632
O50	O	-0.634693	1.000217	0.861966
O51	O	-0.301360	1.333550	1.195299
C52	C	-0.834090	0.461325	0.461373
C53	C	-0.500757	0.794658	0.794706
C54	C	-0.167424	1.127991	1.128039
C55	C	-0.751776	0.461325	0.461370
C56	C	-0.418443	0.794658	0.794703
C57	C	-0.085110	1.127991	1.128036
C58	C	-1.014644	0.696550	0.474965
C59	C	-0.681311	1.029883	0.808298
C60	C	-0.347977	1.363217	1.141631
C61	C	-1.009640	0.797159	0.480784
C62	C	-0.676307	1.130492	0.814117
C63	C	-0.342974	1.463826	1.147450
C64	C	-1.014710	0.474926	0.697515
C65	C	-0.681376	0.808259	1.030848
C66	C	-0.348043	1.141593	1.364181
C67	C	-1.009687	0.480699	0.798118
C68	C	-0.676354	0.814033	1.131452
C69	C	-0.343021	1.147366	1.464785
C70	C	-0.452681	0.461364	0.461431
C71	C	-0.119347	0.794697	0.794764
C72	C	0.213986	1.128030	1.128098
C73	C	-0.491004	0.387070	0.387785
C74	C	-0.157671	0.720403	0.721119
C75	C	0.175662	1.053737	1.054452
C76	C	-0.576627	0.387248	0.387504
C77	C	-0.243294	0.720581	0.720838
C78	C	0.090039	1.053914	1.054171
C79	C	-0.601066	0.461344	0.461400
C80	C	-0.267732	0.794677	0.794734
C81	C	0.065601	1.128010	1.128067
C82	C	-0.566488	0.555188	0.440835
C83	C	-0.233155	0.888522	0.774169
C84	C	0.100178	1.221855	1.107502
C85	C	-0.480887	0.554763	0.440324
C86	C	-0.147554	0.888097	0.773657
C87	C	0.185779	1.221430	1.106990
C88	C	-0.480704	0.442653	0.555856
C89	C	-0.147371	0.775987	0.889189
C90	C	0.185962	1.109320	1.222522
C91	C	-0.566487	0.440506	0.555215
C92	C	-0.233153	0.773840	0.888549
C93	C	0.100180	1.107173	1.221882
C94	C	-0.684926	0.461338	0.461385
C95	C	-0.351593	0.794671	0.794718
C96	C	-0.018259	1.128005	1.128052
C97	C	-0.368820	0.461375	0.461445
C98	C	-0.035487	0.794709	0.794778
C99	C	0.297847	1.128042	1.128111
C100	C	-0.219653	0.461414	0.461480
C101	C	0.113680	0.794748	0.794813
C102	C	0.447013	1.128081	1.128147
C103	C	-0.301970	0.461382	0.461462
C104	C	0.031364	0.794716	0.794795
C105	C	0.364697	1.128049	1.128129
C106	C	-1.038412	0.225289	0.447869
C107	C	-0.705079	0.558623	0.781202
C108	C	-0.371746	0.891956	1.114536
C109	C	-1.043490	0.124682	0.442089
C110	C	-0.710157	0.458016	0.775422
C111	C	-0.376824	0.791349	1.108756
C112	C	-1.100829	0.979542	0.376073
C113	C	-0.767496	1.312875	0.709406
C114	C	-0.434162	1.646209	1.042740
C115	C	-1.096130	1.074073	0.381538
C116	C	-0.762797	1.407406	0.714871
C117	C	-0.429464	1.740740	1.048204
C118	C	-0.995548	1.080754	0.497181
C119	C	-0.662214	1.414088	0.830515
C120	C	-0.328881	1.747421	1.163848
C121	C	-1.000246	0.986223	0.491717
C122	C	-0.666913	1.319557	0.825050
C123	C	-0.333580	1.652890	1.158384
C124	C	-1.052888	0.935620	0.431160
C125	C	-0.719555	1.268953	0.764493
C126	C	-0.386222	1.602287	1.097826
C127	C	-1.057583	0.841087	0.425691
C128	C	-0.724250	1.174420	0.759024
C129	C	-0.390916	1.507754	1.092358
C130	C	-0.957004	0.847770	0.541339
C131	C	-0.623671	1.181104	0.874672
C132	C	-0.290338	1.514437	1.208006
C133	C	-0.952306	0.942301	0.546804
C134	C	-0.618972	1.275635	0.880137
C135	C	-0.285639	1.608968	1.213470
C136	C	-1.038281	0.447818	0.226267
C137	C	-0.704948	0.781151	0.559600
C138	C	-0.371614	1.114485	0.892934
C139	C	-1.043460	0.441790	0.125649
C140	C	-0.710126	0.775123	0.458983
C141	C	-0.376793	1.108456	0.792316
C142	C	-1.100812	0.375781	0.980542
C143	C	-0.767479	0.709114	1.313876
C144	C	-0.434145	1.042447	1.647209
C145	C	-1.096096	0.381202	1.075068
C146	C	-0.762762	0.714535	1.408402
C147	C	-0.429429	1.047869	1.741735
C148	C	-0.995535	0.496958	1.081698
C149	C	-0.662202	0.830291	1.415031
C150	C	-0.328868	1.163625	1.748364
C151	C	-1.000252	0.491537	0.987172
C152	C	-0.666918	0.824870	1.320505
C153	C	-0.333585	1.158203	1.653838
C154	C	-1.052893	0.430947	0.936597
C155	C	-0.719559	0.764280	1.269931
C156	C	-0.386226	1.097614	1.603264
C157	C	-1.057612	0.425531	0.842070
C158	C	-0.724279	0.758864	1.175403
C159	C	-0.390945	1.092197	1.508737
C160	C	-0.957048	0.541282	0.848701
C161	C	-0.623715	0.874615	1.182034
C162	C	-0.290382	1.207948	1.515367
C163	C	-0.952332	0.546703	0.943227
C164	C	-0.618999	0.880036	1.276560
C165	C	-0.285665	1.213370	1.609893
H166	H	-0.600383	0.317485	0.399764
H167	H	-0.267050	0.650819	0.733097
H168	H	0.066284	0.984152	1.066431
Br169	Br	-1.172256	0.910861	0.293874
Br170	Br	-0.838922	1.244194	0.627208
Br171	Br	-0.505589	1.577528	0.960541
Br172	Br	-0.880892	0.628925	1.011871
Br173	Br	-0.547559	0.962258	1.345204
Br174	Br	-0.214225	1.295591	1.678537
H175	H	-0.581704	0.611790	0.493040
H176	H	-0.248371	0.945124	0.826374
H177	H	0.084962	1.278457	1.159707
H178	H	-0.590330	0.572105	0.372750
H179	H	-0.256997	0.905439	0.706083
H180	H	0.076336	1.238772	1.039416
Br181	Br	-1.161129	0.306327	1.134706
Br182	Br	-0.827796	0.639660	1.468039
Br183	Br	-0.494463	0.972994	1.801373
H184	H	-0.473169	0.317078	0.399850
H185	H	-0.139836	0.650412	0.733184
H186	H	0.193498	0.983745	1.066517
H187	H	-0.918030	0.586205	0.812911
H188	H	-0.584697	0.919538	1.146244
H189	H	-0.251364	1.252871	1.479578
Br190	Br	-0.924123	1.149446	0.579374
Br191	Br	-0.590789	1.482779	0.912708
Br192	Br	-0.257456	1.816112	1.246041
Br193	Br	-0.459649	0.406665	0.271654
Br194	Br	-0.126315	0.739998	0.604987
Br195	Br	0.207018	1.073331	0.938320
H196	H	-0.455291	0.496833	0.610661
H197	H	-0.121957	0.830167	0.943994
H198	H	0.211376	1.163500	1.277328
Br199	Br	-0.880871	1.010985	0.628989
Br200	Br	-0.547537	1.344318	0.962322
Br201	Br	-0.214204	1.677652	1.295656
Br202	Br	-0.615321	0.407125	0.270702
Br203	Br	-0.281988	0.740458	0.604035
Br204	Br	0.051345	1.073792	0.937369
H205	H	-0.463359	0.571278	0.371458
H206	H	-0.130026	0.904611	0.704792
H207	H	0.203308	1.237944	1.038125
Br208	Br	-0.437786	0.649657	0.526320
Br209	Br	-0.104452	0.982990	0.859653
Br210	Br	0.228881	1.316324	1.192986
Br211	Br	-0.891926	0.788157	0.616089
Br212	Br	-0.558592	1.121490	0.949422
Br213	Br	-0.225259	1.454824	1.282755
H214	H	-0.582782	0.491118	0.612585
H215	H	-0.249449	0.824451	0.945919
H216	H	0.083885	1.157785	1.279252
Br217	Br	-0.448465	0.331057	0.588781
Br218	Br	-0.115132	0.664390	0.922115
Br219	Br	0.218201	0.997724	1.255448
Br220	Br	-0.604609	0.325457	0.581242
Br221	Br	-0.271276	0.658790	0.914576
Br222	Br	0.062057	0.992123	1.247909
H223	H	-1.100445	0.799887	0.376380
H224	H	-0.767111	1.133220	0.709713
H225	H	-0.433778	1.466553	1.043047
Br226	Br	-0.924093	0.579171	1.150349
Br227	Br	-0.590759	0.912504	1.483682
Br228	Br	-0.257426	1.245837	1.817015
H229	H	-1.100476	0.376197	0.800893
H230	H	-0.767143	0.709530	1.134227
H231	H	-0.433809	1.042863	1.467560
H232	H	-1.135170	1.109830	0.336682
H233	H	-0.801837	1.443164	0.670015
H234	H	-0.468503	1.776497	1.003349
H235	H	-1.143678	0.326451	0.939364
H236	H	-0.810345	0.659784	1.272697
H237	H	-0.477011	0.993117	1.606031
