data_functionalizedCrystal
_audit_creation_method	'MofGen! by Chris Wilmer'
_symmetry_space_group_name_H-M	'P1'
_symmetry_Int_Tables_number	1
_symmetry_cell_setting	triclinic
loop_
_symmetry_equiv_pos_as_xyz
  x,y,z
_cell_length_a	10.489741
_cell_length_b	14.519709
_cell_length_c	12.996460
_cell_angle_alpha	90.007090
_cell_angle_beta	89.992450
_cell_angle_gamma	95.890341
loop_
_atom_site_label
_atom_site_type_symbol
_atom_site_fract_x
_atom_site_fract_y
_atom_site_fract_z
O1	O	1.692699	-0.130116	-0.085617
O2	O	1.942699	0.119884	0.164383
O3	O	2.192699	0.369884	0.414383
O4	O	2.442699	0.619884	0.664383
O5	O	1.321376	-0.142329	-0.085609
O6	O	1.571376	0.107671	0.164391
O7	O	1.821376	0.357671	0.414391
O8	O	2.071376	0.607671	0.664391
O9	O	1.516883	-0.002038	-0.085604
O10	O	1.766883	0.247962	0.164396
O11	O	2.016883	0.497962	0.414396
O12	O	2.266883	0.747962	0.664396
O13	O	1.497193	-0.270408	-0.085622
O14	O	1.747193	-0.020408	0.164378
O15	O	1.997193	0.229592	0.414378
O16	O	2.247193	0.479592	0.664378
O17	O	1.516862	-0.002030	0.085530
O18	O	1.766862	0.247970	0.335530
O19	O	2.016862	0.497970	0.585530
O20	O	2.266862	0.747970	0.835530
O21	O	1.321356	-0.142322	0.085525
O22	O	1.571356	0.107678	0.335525
O23	O	1.821356	0.357678	0.585525
O24	O	2.071356	0.607678	0.835525
O25	O	1.692679	-0.130108	0.085517
O26	O	1.942679	0.119892	0.335517
O27	O	2.192679	0.369892	0.585517
O28	O	2.442679	0.619892	0.835517
Cu29	Cu	1.507015	-0.136214	0.101147
Cu30	Cu	1.757015	0.113786	0.351147
Cu31	Cu	2.007015	0.363786	0.601147
Cu32	Cu	2.257015	0.613786	0.851147
Cu33	Cu	1.507040	-0.136224	-0.101239
Cu34	Cu	1.757040	0.113776	0.148761
Cu35	Cu	2.007040	0.363776	0.398761
Cu36	Cu	2.257040	0.613776	0.648761
O37	O	1.497172	-0.270400	0.085512
O38	O	1.747172	-0.020400	0.335512
O39	O	1.997172	0.229600	0.585512
O40	O	2.247172	0.479600	0.835512
C41	C	1.273844	-0.141403	-0.000041
C42	C	1.523844	0.108597	0.249959
C43	C	1.773844	0.358597	0.499959
C44	C	2.023844	0.608597	0.749959
C45	C	1.132243	-0.138643	-0.000038
C46	C	1.382243	0.111357	0.249962
C47	C	1.632243	0.361357	0.499962
C48	C	1.882243	0.611357	0.749962
C49	C	1.515955	0.032331	-0.000037
C50	C	1.765955	0.282331	0.249963
C51	C	2.015955	0.532331	0.499963
C52	C	2.265955	0.782331	0.749963
C53	C	1.513205	0.134727	-0.000036
C54	C	1.763205	0.384727	0.249964
C55	C	2.013205	0.634727	0.499964
C56	C	2.263205	0.884727	0.749964
C57	C	1.740211	-0.131035	-0.000054
C58	C	1.990211	0.118965	0.249946
C59	C	2.240211	0.368965	0.499946
C60	C	2.490211	0.618965	0.749946
C61	C	1.881812	-0.133794	-0.000064
C62	C	2.131812	0.116206	0.249936
C63	C	2.381812	0.366206	0.499936
C64	C	2.631812	0.616206	0.749936
C65	C	1.949021	-0.223058	-0.000059
C66	C	2.199021	0.026942	0.249941
C67	C	2.449021	0.276942	0.499941
C68	C	2.699021	0.526942	0.749941
C69	C	2.041598	-0.180895	-0.084430
C70	C	2.291598	0.069105	0.165570
C71	C	2.541598	0.319105	0.415570
C72	C	2.791598	0.569105	0.665570
C73	C	2.041544	-0.180865	0.084294
C74	C	2.291544	0.069135	0.334294
C75	C	2.541544	0.319135	0.584294
C76	C	2.791544	0.569135	0.834294
C77	C	1.972523	-0.091595	-0.084505
C78	C	2.222523	0.158405	0.165495
C79	C	2.472523	0.408405	0.415495
C80	C	2.722523	0.658405	0.665495
C81	C	1.972460	-0.091578	0.084295
C82	C	2.222460	0.158422	0.334295
C83	C	2.472460	0.408422	0.584295
C84	C	2.722460	0.658422	0.834295
C85	C	2.065009	-0.049350	-0.000097
C86	C	2.315009	0.200650	0.249903
C87	C	2.565009	0.450650	0.499903
C88	C	2.815009	0.700650	0.749903
C89	C	1.498100	-0.304768	-0.000058
C90	C	1.748100	-0.054768	0.249942
C91	C	1.998100	0.195232	0.499942
C92	C	2.248100	0.445232	0.749942
C93	C	1.500850	-0.407165	-0.000065
C94	C	1.750850	-0.157165	0.249935
C95	C	2.000850	0.092835	0.499935
C96	C	2.250850	0.342835	0.749935
N97	N	1.507008	-0.136207	0.243494
N98	N	1.757008	0.113793	0.493494
N99	N	2.007008	0.363793	0.743494
N100	N	2.257008	0.613793	0.993494
C101	C	1.503082	0.509678	-0.000063
C102	C	1.753082	0.759678	0.249937
C103	C	2.003082	1.009678	0.499937
C104	C	2.253082	1.259678	0.749937
C105	C	1.505893	0.405355	-0.000055
C106	C	1.755893	0.655355	0.249945
C107	C	2.005893	0.905355	0.499945
C108	C	2.255893	1.155355	0.749945
C109	C	1.508143	0.322206	-0.000049
C110	C	1.758143	0.572206	0.249951
C111	C	2.008143	0.822206	0.499951
C112	C	2.258143	1.072206	0.749951
C113	C	1.510955	0.217876	-0.000043
C114	C	1.760955	0.467876	0.249957
C115	C	2.010955	0.717876	0.499957
C116	C	2.260955	0.967876	0.749957
N117	N	1.507057	-0.136223	-0.243586
N118	N	1.757057	0.113777	0.006414
N119	N	2.007057	0.363777	0.256414
N120	N	2.257057	0.613777	0.506414
C121	C	1.507038	-0.136224	0.663308
C122	C	1.757038	0.113776	0.913308
C123	C	2.007038	0.363776	1.163308
C124	C	2.257038	0.613776	1.413308
C125	C	1.507026	-0.136223	0.546503
C126	C	1.757026	0.113777	0.796503
C127	C	2.007026	0.363777	1.046503
C128	C	2.257026	0.613777	1.296503
C129	C	1.507023	-0.136216	0.453405
C130	C	1.757023	0.113784	0.703405
C131	C	2.007023	0.363784	0.953405
C132	C	2.257023	0.613784	1.203405
C133	C	1.507010	-0.136213	0.336592
C134	C	1.757010	0.113787	0.586592
C135	C	2.007010	0.363787	0.836592
C136	C	2.257010	0.613787	1.086592
H137	H	2.072233	-0.218669	-0.155764
H138	H	2.322233	0.031331	0.094236
H139	H	2.572233	0.281331	0.344236
H140	H	2.822233	0.531331	0.594236
H141	H	2.115191	0.024110	-0.000133
H142	H	2.365191	0.274110	0.249867
H143	H	2.615191	0.524110	0.499867
H144	H	2.865191	0.774110	0.749867
C145	C	1.798304	-0.038577	-0.180082
C146	C	2.048304	0.211423	0.069918
C147	C	2.298304	0.461423	0.319918
C148	C	2.548304	0.711423	0.569918
C149	C	1.931459	-0.040663	-0.180919
C150	C	2.181459	0.209337	0.069081
C151	C	2.431459	0.459337	0.319081
C152	C	2.681459	0.709337	0.569081
H153	H	1.772952	-0.007142	-0.239608
H154	H	2.022952	0.242858	0.010392
H155	H	2.272952	0.492858	0.260392
H156	H	2.522952	0.742858	0.510392
H157	H	1.774096	-0.007073	-0.120246
H158	H	2.024096	0.242927	0.129754
H159	H	2.274096	0.492927	0.379754
H160	H	2.524096	0.742927	0.629754
H161	H	1.757559	-0.100104	-0.179841
H162	H	2.007559	0.149896	0.070159
H163	H	2.257559	0.399896	0.320159
H164	H	2.507559	0.649896	0.570159
H165	H	1.972204	0.020865	-0.181152
H166	H	2.222204	0.270865	0.068848
H167	H	2.472204	0.520865	0.318848
H168	H	2.722204	0.770865	0.568848
H169	H	1.955679	-0.072165	-0.240770
H170	H	2.205679	0.177835	0.009230
H171	H	2.455679	0.427835	0.259230
H172	H	2.705679	0.677835	0.509230
C173	C	1.974557	-0.261467	0.239526
C174	C	2.224557	-0.011467	0.489526
C175	C	2.474557	0.238533	0.739526
C176	C	2.724557	0.488533	0.989526
C177	C	2.082817	-0.231860	0.180596
C178	C	2.332817	0.018140	0.430596
C179	C	2.582817	0.268140	0.680596
C180	C	2.832817	0.518140	0.930596
H181	H	2.000037	-0.292947	0.298977
H182	H	2.250037	-0.042947	0.548977
H183	H	2.500037	0.207053	0.798977
H184	H	2.750037	0.457053	1.048977
H185	H	1.917474	-0.302177	0.199778
H186	H	2.167474	-0.052177	0.449778
H187	H	2.417474	0.197823	0.699778
H188	H	2.667474	0.447823	0.949778
H189	H	1.932752	-0.209350	0.259801
H190	H	2.182752	0.040650	0.509801
H191	H	2.432752	0.290650	0.759801
H192	H	2.682752	0.540650	1.009801
H193	H	2.124618	-0.283977	0.160314
H194	H	2.374618	-0.033977	0.410314
H195	H	2.624618	0.216023	0.660314
H196	H	2.874618	0.466023	0.910314
H197	H	2.139922	-0.191147	0.220351
H198	H	2.389922	0.058853	0.470351
H199	H	2.639922	0.308853	0.720351
H200	H	2.889922	0.558853	0.970351
H201	H	1.941796	-0.053837	0.155635
H202	H	2.191796	0.196163	0.405635
H203	H	2.441796	0.446163	0.655635
H204	H	2.691796	0.696163	0.905635
H205	H	1.898608	-0.296450	-0.000149
H206	H	2.148608	-0.046450	0.249851
H207	H	2.398608	0.203550	0.499851
H208	H	2.648608	0.453550	0.749851
