data_functionalizedCrystal
_audit_creation_method	'MofGen! by Chris Wilmer'
_symmetry_space_group_name_H-M	'P1'
_symmetry_Int_Tables_number	1
_symmetry_cell_setting	triclinic
loop_
_symmetry_equiv_pos_as_xyz
  x,y,z
_cell_length_a	11.026607
_cell_length_b	27.731996
_cell_length_c	10.065875
_cell_angle_alpha	98.708141
_cell_angle_beta	79.302338
_cell_angle_gamma	95.603702
loop_
_atom_site_label
_atom_site_type_symbol
_atom_site_fract_x
_atom_site_fract_y
_atom_site_fract_z
O1	O	1.624151	0.196522	-0.113560
O2	O	1.271287	0.173512	-0.113554
O3	O	1.458707	0.115609	-0.113528
O4	O	1.436732	0.254424	-0.113586
O5	O	1.422967	0.126707	0.113456
O6	O	1.235547	0.184610	0.113430
O7	O	1.588412	0.207620	0.113424
Zn8	Zn	1.406305	0.197877	0.149465
Zn9	Zn	1.453394	0.183254	-0.149595
O10	O	1.400992	0.265522	0.113397
C11	C	1.208288	0.174816	-0.000061
C12	C	1.073816	0.162161	-0.000057
C13	C	1.440384	0.103110	-0.000031
C14	C	1.439022	0.049332	-0.000017
C15	C	0.999341	0.197102	-0.000073
C16	C	0.860358	0.184024	-0.000069
C17	C	1.449956	-0.290207	-0.123812
C18	C	1.444794	-0.492332	-0.123836
O19	O	1.460643	-0.523612	-0.229064
N20	N	1.424671	-0.511557	-0.000109
C21	C	1.405830	-0.480248	0.123634
O22	O	1.388583	-0.501239	0.228871
C23	C	1.410983	-0.278125	0.123656
C24	C	1.431119	-0.258902	-0.000080
C25	C	1.470090	-0.270984	-0.247538
C26	C	1.471386	-0.220456	-0.247531
C27	C	1.452550	-0.189151	-0.123798
C28	C	1.432416	-0.208374	-0.000072
C29	C	1.392132	-0.246818	0.247397
C30	C	1.393419	-0.196284	0.247392
C31	C	1.413556	-0.177061	0.123656
C32	C	1.414876	-0.126541	0.123668
N33	N	1.434999	-0.107315	-0.000060
C34	C	1.453836	-0.138620	-0.123793
C35	C	1.403128	-0.586366	0.123613
C36	C	1.401842	-0.636896	0.123608
C37	C	1.440804	-0.648976	-0.123863
C38	C	1.442099	-0.598445	-0.123856
C39	C	1.423251	-0.567141	-0.000114
C40	C	1.456559	-0.032507	-0.123768
C41	C	1.457859	0.018027	-0.123750
C42	C	1.418890	0.030102	0.123720
C43	C	1.417596	-0.020427	0.123702
C44	C	1.436428	-0.051730	-0.000053
O45	O	1.399023	-0.095232	0.228840
O46	O	1.471053	-0.117621	-0.229014
C47	C	1.448659	-0.340736	-0.123820
C48	C	1.428526	-0.359959	-0.000094
C49	C	1.409689	-0.328654	0.123639
C50	C	1.427240	-0.410489	-0.000099
C51	C	1.446076	-0.441794	-0.123832
C52	C	1.466199	-0.422569	-0.247560
C53	C	1.467496	-0.372041	-0.247553
C54	C	1.389566	-0.347879	0.247367
C55	C	1.388272	-0.398408	0.247349
C56	C	1.407109	-0.429713	0.123616
C57	C	1.651412	0.206315	-0.000072
C58	C	1.785884	0.218969	-0.000085
C59	C	1.419315	0.278021	-0.000102
C60	C	1.420679	0.331799	-0.000125
N61	N	1.374177	0.207856	0.353566
N62	N	1.485531	0.173272	-0.353696
C63	C	1.442208	0.186723	0.421355
C64	C	1.417491	0.194408	0.578519
H65	H	1.038473	0.236698	-0.000082
H66	H	1.374228	-0.322395	0.348127
F67	F	1.542042	0.155533	0.345138
H68	H	1.458494	-0.582797	-0.224613
F69	F	1.585785	0.142282	0.570095
F70	F	1.317432	0.225493	0.654730
H71	H	1.375737	-0.262459	0.348156
F72	F	1.274124	0.238939	0.429783
H73	H	0.821236	0.144424	-0.000087
F74	F	1.373357	-0.162970	0.379099
H75	H	1.387784	-0.560881	0.224384
F76	F	1.479295	0.038482	-0.255452
F77	F	0.837016	0.270729	-0.000090
H78	H	1.471888	-0.057989	-0.224541
F79	F	1.022672	0.110406	-0.000026
H80	H	1.487779	-0.204810	-0.348289
H81	H	1.485425	-0.296468	-0.348302
H82	H	1.456143	-0.674474	-0.224611
F83	F	1.380432	-0.657348	0.255304
F84	F	1.396187	-0.040885	0.255395
F85	F	1.398846	0.063428	0.255398
F86	F	1.366846	-0.418860	0.379056
H87	H	1.483893	-0.356395	-0.348311
H88	H	1.481542	-0.448066	-0.348308
