data_functionalizedCrystal
_audit_creation_method	'MofGen! by Chris Wilmer'
_symmetry_space_group_name_H-M	'P1'
_symmetry_Int_Tables_number	1
_symmetry_cell_setting	triclinic
loop_
_symmetry_equiv_pos_as_xyz
  x,y,z
_cell_length_a	21.395362
_cell_length_b	12.759400
_cell_length_c	21.395355
_cell_angle_alpha	90.013847
_cell_angle_beta	90.043940
_cell_angle_gamma	90.030564
loop_
_atom_site_label
_atom_site_type_symbol
_atom_site_fract_x
_atom_site_fract_y
_atom_site_fract_z
Zn1	Zn	0.957929	-0.417943	0.354606
Zn2	Zn	1.457929	0.082057	0.854606
Zn3	Zn	0.957861	-0.593607	0.249837
Zn4	Zn	1.457861	-0.093607	0.749837
Zn5	Zn	0.853144	-0.417992	0.249807
Zn6	Zn	1.353144	0.082008	0.749807
Zn7	Zn	0.853143	-0.593629	0.354542
Zn8	Zn	1.353143	-0.093629	0.854542
O9	O	0.905519	-0.505793	0.302198
O10	O	1.405519	-0.005793	0.802198
O11	O	1.045598	-0.441215	0.340747
O12	O	1.545598	0.058785	0.840747
O13	O	0.943942	-0.570323	0.162155
O14	O	1.443942	-0.070323	0.662155
O15	O	0.867073	-0.270964	0.263723
O16	O	1.367073	0.229036	0.763723
O17	O	1.045548	-0.570275	0.263774
O18	O	1.545548	-0.070275	0.763774
O19	O	0.944058	-0.270928	0.340719
O20	O	1.444058	0.229072	0.840719
O21	O	0.867007	-0.441299	0.162133
O22	O	1.367007	0.058701	0.662133
O23	O	0.765466	-0.441320	0.263661
O24	O	1.265466	0.058680	0.763661
O25	O	0.867071	-0.570312	0.442228
O26	O	1.367071	-0.070312	0.942228
O27	O	0.765465	-0.570360	0.340609
O28	O	1.265465	-0.070360	0.840609
O29	O	0.944057	-0.441236	0.442275
O30	O	1.444057	0.058764	0.942275
O31	O	0.943941	-0.740631	0.263712
O32	O	1.443941	-0.240631	0.763712
O33	O	0.867005	-0.740647	0.340638
O34	O	1.367005	-0.240647	0.840638
C35	C	0.742732	-0.505848	0.302125
C36	C	1.242732	-0.005848	0.802125
C37	C	0.673090	-0.505897	0.302109
C38	C	1.173090	-0.005897	0.802109
C39	C	0.640393	-0.573177	0.342116
C40	C	1.140393	-0.073177	0.842116
C41	C	0.574958	-0.573152	0.342144
C42	C	1.074958	-0.073152	0.842144
C43	C	0.542222	-0.505857	0.302154
C44	C	1.042222	-0.005857	0.802154
C45	C	0.574927	-0.438564	0.262144
C46	C	1.074927	0.061436	0.762144
C47	C	0.640361	-0.438584	0.262122
C48	C	1.140361	0.061416	0.762122
C49	C	0.438496	-0.497393	0.245748
C50	C	0.938496	0.002607	0.745748
C51	C	0.373063	-0.497380	0.245769
C52	C	0.873063	0.002620	0.745769
C53	C	0.340401	-0.505788	0.302223
C54	C	0.840401	-0.005788	0.802223
C55	C	0.373181	-0.514231	0.358657
C56	C	0.873181	-0.014231	0.858657
C57	C	0.438615	-0.514251	0.358635
C58	C	0.938615	-0.014251	0.858635
C59	C	0.471270	-0.505827	0.302174
C60	C	0.971270	-0.005827	0.802174
C61	C	0.236752	-0.573044	0.342263
C62	C	0.736752	-0.073044	0.842263
C63	C	0.171315	-0.573011	0.342292
C64	C	0.671315	-0.073011	0.842292
C65	C	0.171286	-0.438428	0.262287
C66	C	0.671286	0.061572	0.762287
C67	C	0.236721	-0.438456	0.262264
C68	C	0.736721	0.061544	0.762264
C69	C	0.269450	-0.505769	0.302251
C70	C	0.769450	-0.005769	0.802251
C71	C	0.905482	-0.778760	0.302185
C72	C	1.405482	-0.278760	0.802185
C73	C	0.905523	-0.895537	0.302200
C74	C	1.405523	-0.395537	0.802200
C75	C	0.945629	-0.950355	0.262189
C76	C	1.445629	-0.450355	0.762189
C77	C	0.945667	-1.060079	0.262209
C78	C	1.445667	-0.560079	0.762209
C79	C	0.865490	-1.060156	0.342252
C80	C	1.365490	-0.560156	0.842252
C81	C	0.865455	-0.950434	0.342235
C82	C	1.365455	-0.450434	0.842235
C83	C	0.985697	-0.895458	0.222154
C84	C	1.485697	-0.395458	0.722154
C85	C	1.025805	-0.950277	0.182139
C86	C	1.525805	-0.450277	0.682139
C87	C	1.025843	-1.060001	0.182159
C88	C	1.525843	-0.560001	0.682159
C89	C	0.985774	-1.114906	0.222193
C90	C	1.485774	-0.614906	0.722193
C91	C	1.068943	-0.505738	0.302271
C92	C	1.568943	-0.005738	0.802271
C93	C	1.138584	-0.505714	0.302303
C94	C	1.638584	-0.005714	0.802303
C95	C	0.905571	-0.505771	0.465621
C96	C	1.405571	-0.005771	0.965621
C97	C	0.905593	-0.505762	0.535263
C98	C	1.405593	-0.005762	1.035263
C99	C	0.905574	-0.231759	0.302225
C100	C	1.405574	0.268241	0.802225
C101	C	0.905597	-0.114983	0.302236
C102	C	1.405597	0.385017	0.802236
C103	C	0.905503	-0.505738	0.139410
C104	C	1.405503	-0.005738	0.639410
C105	C	0.905603	-0.505451	0.069770
C106	C	1.405603	-0.005451	0.569770
C107	C	0.945678	-0.438550	0.568001
C108	C	1.445678	0.061450	1.068001
C109	C	0.945678	-0.438504	0.633437
C110	C	1.445678	0.061496	1.133437
C111	C	0.905598	-0.505691	0.666131
C112	C	1.405598	-0.005691	1.166131
C113	C	0.865505	-0.572908	0.633384
C114	C	1.365505	-0.072908	1.133384
C115	C	0.865503	-0.572944	0.567950
C116	C	1.365503	-0.072944	1.067950
C117	C	0.900638	-0.600292	0.769799
C118	C	1.400638	-0.100292	1.269799
C119	C	0.900645	-0.600258	0.835232
C120	C	1.400645	-0.100258	1.335232
C121	C	0.905602	-0.505580	0.867952
C122	C	1.405602	-0.005580	1.367952
C123	C	0.910566	-0.410932	0.835230
C124	C	1.410566	0.089068	1.335230
C125	C	0.910563	-0.410968	0.769796
C126	C	1.410563	0.089032	1.269796
C127	C	0.905596	-0.505659	0.737083
C128	C	1.405596	-0.005659	1.237083
C129	C	0.945688	-0.438312	0.971643
C130	C	1.445688	0.061688	1.471643
C131	C	0.945683	-0.438265	1.037080
C132	C	1.445683	0.061735	1.537080
C133	C	0.865514	-0.572678	1.037026
C134	C	1.365514	-0.072678	1.537026
C135	C	0.865516	-0.572716	0.971591
C136	C	1.365516	-0.072716	1.471591
C137	C	0.905607	-0.505534	0.938903
C138	C	1.405607	-0.005534	1.438903
H139	H	0.263344	-0.383674	0.229683
H140	H	0.763344	0.116326	0.729683
H141	H	0.985813	-1.204251	0.222210
H142	H	1.485813	-0.704251	0.722210
H143	H	0.832867	-1.104869	0.374845
H144	H	1.332867	-0.604869	0.874845
C145	C	1.069875	-0.889887	0.138104
C146	C	1.569875	-0.389887	0.638104
H147	H	1.064104	-0.816688	0.143817
H148	H	1.564104	-0.316688	0.643817
H149	H	1.111976	-0.907778	0.147324
H150	H	1.611976	-0.407778	0.647324
H151	H	1.060723	-0.907928	0.095997
H152	H	1.560723	-0.407928	0.595997
H153	H	0.985668	-0.806115	0.222132
H154	H	1.485668	-0.306115	0.722132
H155	H	0.346379	-0.490512	0.199817
H156	H	0.846379	0.009488	0.699817
C157	C	0.989779	-0.364328	1.073093
C158	C	1.489779	0.135672	1.573093
H159	H	1.013658	-0.324333	1.044251
H160	H	1.513658	0.175667	1.544251
H161	H	0.965825	-0.318540	1.098598
H162	H	1.465825	0.181460	1.598598
H163	H	1.017071	-0.404506	1.098641
H164	H	1.517071	0.095494	1.598641
C165	C	0.989779	-0.364412	0.935681
C166	C	1.489779	0.135588	1.435681
H167	H	0.984043	-0.374069	0.892022
H168	H	1.484043	0.125931	1.392022
H169	H	0.980624	-0.293817	0.946392
H170	H	1.480624	0.206183	1.446392
H171	H	1.031876	-0.379774	0.946439
H172	H	1.531876	0.120226	1.446439
C173	C	0.821427	-0.646659	0.935576
C174	C	1.321427	-0.146659	1.435576
H175	H	0.797559	-0.686672	0.964418
H176	H	1.297559	-0.186672	1.464418
H177	H	0.794135	-0.606493	0.910028
H178	H	1.294135	-0.106493	1.410028
H179	H	0.845388	-0.692446	0.910072
H180	H	1.345388	-0.192446	1.410072
C181	C	0.821344	-0.890129	0.386249
C182	C	1.321344	-0.390129	0.886249
H183	H	0.797480	-0.938537	0.410090
H184	H	1.297480	-0.438537	0.910090
H185	H	0.845290	-0.847264	0.413569
H186	H	1.345290	-0.347264	0.913569
H187	H	0.794039	-0.847393	0.362241
H188	H	1.294039	-0.347393	0.862241
C189	C	0.989771	-0.364645	0.532048
C190	C	1.489771	0.135355	1.032048
H191	H	1.013641	-0.324602	0.560922
H192	H	1.513641	0.175398	1.060922
H193	H	1.017061	-0.404836	0.506543
H194	H	1.517061	0.095164	1.006543
H195	H	0.965808	-0.318883	0.506505
H196	H	1.465808	0.181117	1.006505
H197	H	0.914603	-0.333903	0.743157
H198	H	1.414603	0.166097	1.243157
H199	H	0.978318	-0.383766	0.660098
H200	H	1.478318	0.116234	1.160098
C201	C	0.895193	-0.704362	0.871223
C202	C	1.395193	-0.204362	1.371223
H203	H	0.895915	-0.690784	0.914879
H204	H	1.395915	-0.190784	1.414879
H205	H	0.857043	-0.737977	0.860477
H206	H	1.357043	-0.237977	1.360477
H207	H	0.929272	-0.748546	0.860523
H208	H	1.429272	-0.248546	1.360523
H209	H	1.058505	-1.104632	0.149581
H210	H	1.558505	-0.604632	0.649581
C211	C	0.337265	-0.523470	0.420761
C212	C	0.837265	-0.023470	0.920761
H213	H	0.366158	-0.528505	0.454365
H214	H	0.866158	-0.028505	0.954365
H215	H	0.311775	-0.463260	0.426338
H216	H	0.811775	0.036740	0.926338
H217	H	0.311709	-0.584363	0.419897
H218	H	0.811709	-0.084363	0.919897
C219	C	0.916426	-0.306843	0.871212
C220	C	1.416426	0.193157	1.371212
H221	H	0.915834	-0.320391	0.914868
H222	H	1.415834	0.179609	1.414868
H223	H	0.954676	-0.273702	0.860363
H224	H	1.454676	0.226298	1.360363
H225	H	0.882496	-0.262245	0.860611
H226	H	1.382496	0.237755	1.360611
C227	C	0.821432	-0.646589	1.072982
C228	C	1.321432	-0.146589	1.572982
H229	H	0.827177	-0.636948	1.116642
H230	H	1.327177	-0.136948	1.616642
H231	H	0.779336	-0.631243	1.062228
H232	H	1.279336	-0.131243	1.562228
H233	H	0.830596	-0.717184	1.062267
H234	H	1.330596	-0.217184	1.562267
H235	H	0.896434	-0.677371	0.743165
H236	H	1.396434	-0.177371	1.243165
C237	C	0.135345	-0.647018	0.386303
C238	C	0.635345	-0.147018	0.886303
H239	H	0.091687	-0.637358	0.380595
H240	H	0.591687	-0.137358	0.880595
H241	H	0.146025	-0.717589	0.377055
H242	H	0.646025	-0.217589	0.877055
H243	H	0.146124	-0.631748	0.428415
H244	H	0.646124	-0.131748	0.928415
C245	C	0.821422	-0.646816	0.669345
C246	C	1.321422	-0.146816	1.169345
H247	H	0.827170	-0.637177	0.713005
H248	H	1.327170	-0.137177	1.213005
H249	H	0.779327	-0.631463	0.658593
H250	H	1.279327	-0.131463	1.158593
H251	H	0.830583	-0.717412	0.658629
H252	H	1.330583	-0.217412	1.158629
C253	C	0.538921	-0.364541	0.218156
C254	C	1.038921	0.135459	0.718156
H255	H	0.495267	-0.374172	0.223895
H256	H	0.995267	0.125828	0.723895
H257	H	0.549684	-0.293977	0.227395
H258	H	1.049684	0.206023	0.727395
H259	H	0.549592	-0.379821	0.176037
H260	H	1.049592	0.120179	0.676037
H261	H	0.832858	-0.627675	0.541295
H262	H	1.332858	-0.127675	1.041295
H263	H	0.548330	-0.627939	0.374725
H264	H	1.048330	-0.127939	0.874725
C265	C	0.676394	-0.647238	0.386087
C266	C	1.176394	-0.147238	0.886087
H267	H	0.720048	-0.637630	0.380337
H268	H	1.220048	-0.137630	0.880337
H269	H	0.665731	-0.631993	0.428209
H270	H	1.165731	-0.131993	0.928209
H271	H	0.665621	-0.717796	0.376826
H272	H	1.165621	-0.217796	0.876826
C273	C	0.474670	-0.523522	0.420707
C274	C	0.974670	-0.023522	0.920707
H275	H	0.445851	-0.528520	0.454335
H276	H	0.945851	-0.028520	0.954335
H277	H	0.500172	-0.584425	0.419824
H278	H	1.000172	-0.084425	0.919824
H279	H	0.500225	-0.463321	0.426261
H280	H	1.000225	0.036679	0.926261
H281	H	0.263401	-0.627849	0.374827
H282	H	0.763401	-0.127849	0.874827
C283	C	0.135288	-0.364400	0.218299
C284	C	0.635288	0.135600	0.718299
H285	H	0.164136	-0.324329	0.194470
H286	H	0.664136	0.175671	0.694470
H287	H	0.109712	-0.404509	0.190968
H288	H	0.609712	0.095491	0.690968
H289	H	0.109811	-0.318670	0.242328
H290	H	0.609811	0.181330	0.742328
C291	C	0.474417	-0.488086	0.183648
C292	C	0.974417	0.011914	0.683648
H293	H	0.445525	-0.483053	0.150043
H294	H	0.945525	0.016947	0.650043
H295	H	0.499958	-0.427182	0.184537
H296	H	0.999958	0.072818	0.684537
H297	H	0.499923	-0.548279	0.178051
H298	H	0.999923	-0.048279	0.678051
H299	H	0.666983	-0.383793	0.229543
H300	H	1.166983	0.116207	0.729543
