data_functionalizedCrystal
_audit_creation_method	'MofGen! by Chris Wilmer'
_symmetry_space_group_name_H-M	'P1'
_symmetry_Int_Tables_number	1
_symmetry_cell_setting	triclinic
loop_
_symmetry_equiv_pos_as_xyz
  x,y,z
_cell_length_a	26.210047
_cell_length_b	14.519709
_cell_length_c	14.519709
_cell_angle_alpha	83.680145
_cell_angle_beta	90.003565
_cell_angle_gamma	89.996562
loop_
_atom_site_label
_atom_site_type_symbol
_atom_site_fract_x
_atom_site_fract_y
_atom_site_fract_z
O1	O	0.042364	-1.223875	-0.120878
O2	O	0.542364	-0.723875	0.379122
O3	O	0.042379	-0.955398	-0.135115
O4	O	0.542379	-0.455398	0.364885
O5	O	0.042367	-1.096755	0.006242
O6	O	0.542367	-0.596755	0.506242
O7	O	0.042377	-1.082518	-0.262235
O8	O	0.542377	-0.582518	0.237765
O9	O	-0.042492	-1.096728	0.006220
O10	O	0.457508	-0.596728	0.506220
O11	O	-0.042479	-0.955371	-0.135137
O12	O	0.457521	-0.455371	0.364863
O13	O	-0.042494	-1.223848	-0.120900
O14	O	0.457506	-0.723848	0.379100
Cu15	Cu	-0.050235	-1.089607	-0.128020
Cu16	Cu	0.449765	-0.589607	0.371980
Cu17	Cu	0.050120	-1.089639	-0.127994
Cu18	Cu	0.550120	-0.589639	0.372006
O19	O	-0.042482	-1.082491	-0.262257
O20	O	0.457518	-0.582491	0.237743
C21	C	-0.000048	-0.921025	-0.134462
C22	C	0.499952	-0.421025	0.365538
C23	C	-0.000042	-0.818643	-0.132474
C24	C	0.499958	-0.318643	0.367526
C25	C	-0.000063	-1.096078	0.040591
C26	C	0.499937	-0.596078	0.540591
C27	C	-0.000063	-1.094089	0.142972
C28	C	0.499937	-0.594089	0.642972
N29	N	-0.120819	-1.089591	-0.128038
N30	N	0.379181	-0.589591	0.371962
C31	C	-0.473338	-1.152225	-0.065416
C32	C	0.026662	-0.652225	0.434584
C33	C	-0.686997	-1.152246	-0.065403
C34	C	-0.186997	-0.652246	0.434597
O35	O	-0.714624	-1.205464	-0.012163
O36	O	-0.214624	-0.705464	0.487837
N37	N	-0.713713	-1.089644	-0.127974
N38	N	-0.213713	-0.589644	0.372026
C39	C	-0.687010	-1.027029	-0.190549
C40	C	-0.187010	-0.527029	0.309451
O41	O	-0.714636	-0.973776	-0.243763
O42	O	-0.214636	-0.473776	0.256237
C43	C	-0.473353	-1.027005	-0.190556
C44	C	0.026647	-0.527005	0.309444
C45	C	-0.446640	-1.089617	-0.127987
C46	C	0.053360	-0.589617	0.372013
C47	C	-0.446626	-1.214832	-0.002851
C48	C	0.053374	-0.714832	0.497149
C49	C	-0.393214	-1.214830	-0.002858
C50	C	0.106786	-0.714830	0.497142
C51	C	-0.366515	-1.152221	-0.065430
C52	C	0.133485	-0.652221	0.434570
C53	C	-0.393228	-1.089614	-0.127995
C54	C	0.106772	-0.589614	0.372005
C55	C	-0.446651	-0.964385	-0.253126
C56	C	0.053349	-0.464385	0.246874
C57	C	-0.393233	-0.964383	-0.253121
C58	C	0.106767	-0.464383	0.246879
C59	C	-0.366521	-1.026996	-0.190552
C60	C	0.133479	-0.526996	0.309448
C61	C	-0.313118	-1.027003	-0.190574
C62	C	0.186882	-0.527003	0.309426
N63	N	-0.286403	-1.089605	-0.128002
N64	N	0.213597	-0.589605	0.371998
C65	C	-0.313101	-1.152214	-0.065431
C66	C	0.186899	-0.652214	0.434569
C67	C	-0.799184	-1.027047	-0.190542
C68	C	-0.299184	-0.527047	0.309458
C69	C	-0.852598	-1.027054	-0.190541
C70	C	-0.352598	-0.527054	0.309459
C71	C	-0.852581	-1.152270	-0.065394
C72	C	-0.352581	-0.652270	0.434606
C73	C	-0.799166	-1.152267	-0.065399
C74	C	-0.299166	-0.652267	0.434601
C75	C	-0.772468	-1.089649	-0.127970
C76	C	-0.272468	-0.589649	0.372030
C77	C	-0.200933	-1.152205	-0.065451
C78	C	0.299067	-0.652205	0.434549
C79	C	-0.147517	-1.152199	-0.065466
C80	C	0.352483	-0.652199	0.434534
C81	C	-0.147539	-1.026980	-0.190610
C82	C	0.352461	-0.526980	0.309390
C83	C	-0.200950	-1.026989	-0.190598
C84	C	0.299050	-0.526989	0.309402
C85	C	-0.227646	-1.089604	-0.128011
C86	C	0.272354	-0.589604	0.371989
O87	O	-0.285459	-0.973806	-0.243779
O88	O	0.214541	-0.473806	0.256221
O89	O	-0.285466	-1.205445	-0.012211
O90	O	0.214534	-0.705445	0.487789
C91	C	-0.526750	-1.152228	-0.065408
C92	C	-0.026750	-0.652228	0.434592
C93	C	-0.553463	-1.089621	-0.127973
C94	C	-0.053463	-0.589621	0.372027
C95	C	-0.526764	-1.027013	-0.190545
C96	C	-0.026764	-0.527013	0.309455
C97	C	-0.606877	-1.089628	-0.127972
C98	C	-0.106877	-0.589628	0.372028
C99	C	-0.633575	-1.152237	-0.065401
C100	C	-0.133575	-0.652237	0.434599
C101	C	-0.606860	-1.214839	-0.002830
C102	C	-0.106860	-0.714839	0.497170
C103	C	-0.553448	-1.214836	-0.002837
C104	C	-0.053448	-0.714836	0.497163
C105	C	-0.553480	-0.964411	-0.253116
C106	C	-0.053480	-0.464411	0.246884
C107	C	-0.606891	-0.964419	-0.253104
C108	C	-0.106891	-0.464419	0.246896
C109	C	-0.633590	-1.027028	-0.190533
C110	C	-0.133590	-0.527028	0.309467
N111	N	0.120704	-1.089662	-0.127969
N112	N	0.620704	-0.589662	0.372031
C113	C	-0.000066	-1.258221	-0.121553
C114	C	0.499934	-0.758221	0.378447
C115	C	-0.000069	-1.360602	-0.123541
C116	C	0.499931	-0.860602	0.376459
C117	C	-0.000065	-0.443748	-0.125154
C118	C	0.499935	0.056252	0.374846
C119	C	-0.000059	-0.548056	-0.127187
C120	C	0.499941	-0.048056	0.372813
C121	C	-0.000053	-0.631192	-0.128814
C122	C	0.499947	-0.131192	0.371186
C123	C	-0.000047	-0.735507	-0.130847
C124	C	0.499953	-0.235507	0.369153
C125	C	-0.000051	-1.083168	-0.296606
C126	C	0.499949	-0.583168	0.203394
C127	C	-0.000048	-1.085156	-0.398987
C128	C	0.499952	-0.585156	0.101013
C129	C	-0.000049	-1.086770	0.517868
C130	C	0.499951	-0.586770	1.017868
C131	C	-0.000053	-1.088803	0.413560
C132	C	0.499947	-0.588803	0.913560
C133	C	-0.000056	-1.090430	0.330423
C134	C	0.499944	-0.590430	0.830423
C135	C	-0.000059	-1.092463	0.226109
C136	C	0.499941	-0.592463	0.726109
H137	H	-0.125769	-1.203189	-0.014515
H138	H	0.374231	-0.703189	0.485485
H139	H	-0.777450	-0.976054	-0.241497
H140	H	-0.277450	-0.476054	0.258503
H141	H	-0.468393	-0.913401	-0.304075
H142	H	0.031607	-0.413401	0.195925
N143	N	-0.635700	-0.896880	-0.320591
N144	N	-0.135700	-0.396880	0.179409
H145	H	-0.610676	-0.857217	-0.360223
H146	H	-0.110676	-0.357217	0.139777
H147	H	-0.657856	-0.856059	-0.285179
H148	H	-0.157856	-0.356059	0.214821
H149	H	-0.777419	-1.203250	-0.014450
H150	H	-0.277419	-0.703250	0.485550
H151	H	-0.371499	-0.913389	-0.304073
H152	H	0.128501	-0.413389	0.195927
N153	N	-0.881382	-1.219801	0.002095
N154	N	-0.381382	-0.719801	0.502095
H155	H	-0.919272	-1.210298	-0.007405
H156	H	-0.419272	-0.710298	0.492595
H157	H	-0.872046	-1.209036	0.067542
H158	H	-0.372046	-0.709036	0.567542
H159	H	-0.531746	-0.913426	-0.304068
H160	H	-0.031746	-0.413426	0.195932
H161	H	-0.222700	-0.976013	-0.241556
H162	H	0.277300	-0.476013	0.258444
N163	N	-0.229722	-1.219744	0.002046
N164	N	0.270278	-0.719744	0.502046
H165	H	-0.204688	-1.259403	0.041671
H166	H	0.295312	-0.759403	0.541671
H167	H	-0.251882	-1.260570	-0.033356
H168	H	0.248118	-0.760570	0.466644
H169	H	-0.468359	-1.265815	0.048107
H170	H	0.031641	-0.765815	0.548107
N171	N	-0.364405	-1.282354	0.064632
N172	N	0.135595	-0.782354	0.564632
H173	H	-0.373701	-1.347821	0.053868
H174	H	0.126299	-0.847821	0.553868
H175	H	-0.373714	-1.271543	0.130078
H176	H	0.126286	-0.771543	0.630078
H177	H	-0.125793	-0.976008	-0.241558
H178	H	0.374207	-0.476008	0.258442
H179	H	-0.874344	-0.976079	-0.241500
H180	H	-0.374344	-0.476079	0.258500
H181	H	-0.531703	-1.265821	0.048113
H182	H	-0.031703	-0.765821	0.548113
N183	N	-0.635661	-1.282372	0.064655
N184	N	-0.135661	-0.782372	0.564655
H185	H	-0.673551	-1.272867	0.055158
H186	H	-0.173551	-0.772867	0.555158
H187	H	-0.626324	-1.271615	0.130105
H188	H	-0.126324	-0.771615	0.630105
