data_functionalizedCrystal
_audit_creation_method	'MofGen! by Chris Wilmer'
_symmetry_space_group_name_H-M	'P1'
_symmetry_Int_Tables_number	1
_symmetry_cell_setting	triclinic
loop_
_symmetry_equiv_pos_as_xyz
  x,y,z
_cell_length_a	19.805407
_cell_length_b	14.908178
_cell_length_c	14.908308
_cell_angle_alpha	89.778379
_cell_angle_beta	93.278986
_cell_angle_gamma	93.311253
loop_
_atom_site_label
_atom_site_type_symbol
_atom_site_fract_x
_atom_site_fract_y
_atom_site_fract_z
Zn1	Zn	0.996888	-0.387380	-0.487701
Zn2	Zn	1.330221	-0.054047	-0.154367
Zn3	Zn	1.663555	0.279287	0.178966
Zn4	Zn	0.997571	-0.529090	-0.328662
Zn5	Zn	1.330904	-0.195757	0.004672
Zn6	Zn	1.664238	0.137577	0.338005
Zn7	Zn	0.890587	-0.378733	-0.337361
Zn8	Zn	1.223920	-0.045400	-0.004028
Zn9	Zn	1.557253	0.287934	0.329306
Zn10	Zn	0.877553	-0.537698	-0.478975
Zn11	Zn	1.210886	-0.204365	-0.145642
Zn12	Zn	1.544220	0.128968	0.187692
O13	O	0.940650	-0.458225	-0.408175
O14	O	1.273983	-0.124892	-0.074841
O15	O	1.607316	0.208441	0.258492
O16	O	1.091694	-0.406194	-0.466615
O17	O	1.425027	-0.072861	-0.133282
O18	O	1.758361	0.260472	0.200052
O19	O	0.989120	-0.501923	-0.203991
O20	O	1.322453	-0.168590	0.129342
O21	O	1.655786	0.164744	0.462675
O22	O	0.909856	-0.254046	-0.364596
O23	O	1.243190	0.079287	-0.031263
O24	O	1.576523	0.412620	0.302070
O25	O	1.092196	-0.510308	-0.349770
O26	O	1.425529	-0.176975	-0.016436
O27	O	1.758862	0.156359	0.316897
O28	O	0.987955	-0.260399	-0.475050
O29	O	1.321289	0.072934	-0.141717
O30	O	1.654622	0.406267	0.191616
O31	O	0.910519	-0.391456	-0.210383
O32	O	1.243852	-0.058123	0.122951
O33	O	1.577185	0.275210	0.456284
O34	O	0.794142	-0.399804	-0.356135
O35	O	1.127476	-0.066470	-0.022802
O36	O	1.460809	0.266863	0.310532
O37	O	0.887643	-0.524980	-0.605957
O38	O	1.220976	-0.191647	-0.272623
O39	O	1.554309	0.141687	0.060710
O40	O	0.784567	-0.516595	-0.460178
O41	O	1.117900	-0.183262	-0.126845
O42	O	1.451233	0.150072	0.206488
O43	O	0.975317	-0.414542	-0.612368
O44	O	1.308651	-0.081208	-0.279034
O45	O	1.641984	0.252125	0.054299
O46	O	0.976482	-0.656065	-0.341308
O47	O	1.309815	-0.322732	-0.007975
O48	O	1.643148	0.010601	0.325358
O49	O	0.888305	-0.662390	-0.451743
O50	O	1.221638	-0.329057	-0.118410
O51	O	1.554972	0.004277	0.214924
C52	C	0.764796	-0.458196	-0.408154
C53	C	1.098129	-0.124863	-0.074821
C54	C	1.431462	0.208471	0.258512
C55	C	0.689563	-0.458206	-0.408166
C56	C	1.022896	-0.124873	-0.074832
C57	C	1.356229	0.208460	0.258501
C58	C	0.653950	-0.404101	-0.469089
C59	C	0.987283	-0.070768	-0.135755
C60	C	1.320617	0.262566	0.197578
C61	C	0.583261	-0.404106	-0.469092
C62	C	0.916594	-0.070773	-0.135759
C63	C	1.249928	0.262561	0.197575
C64	C	0.548186	-0.458221	-0.408176
C65	C	0.881519	-0.124888	-0.074842
C66	C	1.214853	0.208445	0.258491
C67	C	0.583804	-0.512329	-0.347246
C68	C	0.917138	-0.178995	-0.013913
C69	C	1.250471	0.154338	0.319420
C70	C	0.654492	-0.512318	-0.347239
C71	C	0.987825	-0.178985	-0.013906
C72	C	1.321159	0.154348	0.319427
C73	C	0.298728	-0.512371	-0.347271
C74	C	0.632061	-0.179037	-0.013938
C75	C	0.965395	0.154296	0.319395
C76	C	0.228035	-0.512379	-0.347285
C77	C	0.561368	-0.179046	-0.013951
C78	C	0.894702	0.154288	0.319382
C79	C	0.227497	-0.404158	-0.469124
C80	C	0.560830	-0.070825	-0.135791
C81	C	0.894164	0.262508	0.197543
C82	C	0.298185	-0.404148	-0.469117
C83	C	0.631518	-0.070815	-0.135784
C84	C	0.964852	0.262519	0.197549
C85	C	0.333797	-0.458251	-0.408185
C86	C	0.667130	-0.124918	-0.074852
C87	C	1.000464	0.208415	0.258482
C88	C	0.410446	-0.458244	-0.408181
C89	C	0.743779	-0.124911	-0.074848
C90	C	1.077113	0.208423	0.258486
C91	C	0.471538	-0.458234	-0.408183
C92	C	0.804871	-0.124901	-0.074850
C93	C	1.138205	0.208433	0.258483
C94	C	0.931071	-0.691856	-0.394654
C95	C	1.264404	-0.358523	-0.061321
C96	C	1.597737	-0.025190	0.272012
C97	C	0.927033	-0.791806	-0.388901
C98	C	1.260367	-0.458473	-0.055567
C99	C	1.593700	-0.125140	0.277766
C100	C	1.000700	-0.986095	-0.493227
C101	C	1.334033	-0.652762	-0.159894
C102	C	1.667367	-0.319429	0.173439
C103	C	0.996909	-1.080008	-0.487824
C104	C	1.330242	-0.746674	-0.154491
C105	C	1.663575	-0.413341	0.178842
C106	C	0.915656	-1.073545	-0.372696
C107	C	1.248990	-0.740211	-0.039363
C108	C	1.582323	-0.406878	0.293971
C109	C	0.919447	-0.979632	-0.378099
C110	C	1.252781	-0.646299	-0.044766
C111	C	1.586114	-0.312966	0.288568
C112	C	0.961972	-0.935911	-0.438366
C113	C	1.295305	-0.602578	-0.105033
C114	C	1.628638	-0.269245	0.228301
C115	C	0.965766	-0.841997	-0.443764
C116	C	1.299099	-0.508664	-0.110431
C117	C	1.632433	-0.175330	0.222903
C118	C	0.884510	-0.835536	-0.328641
C119	C	1.217844	-0.502203	0.004692
C120	C	1.551177	-0.168869	0.338026
C121	C	0.880719	-0.929448	-0.323238
C122	C	1.214052	-0.596115	0.010096
C123	C	1.547386	-0.262782	0.343429
C124	C	1.117190	-0.458256	-0.408195
C125	C	1.450523	-0.124922	-0.074862
C126	C	1.783857	0.208411	0.258471
C127	C	1.192421	-0.458268	-0.408204
C128	C	1.525754	-0.124935	-0.074871
C129	C	1.859088	0.208398	0.258462
C130	C	0.929950	-0.471686	-0.642699
C131	C	1.263283	-0.138352	-0.309366
C132	C	1.596617	0.194981	0.023967
C133	C	0.925390	-0.477422	-0.742640
C134	C	1.258724	-0.144088	-0.409306
C135	C	1.592057	0.189245	-0.075973
C136	C	0.950284	-0.223683	-0.421767
C137	C	1.283617	0.109650	-0.088434
C138	C	1.616950	0.442983	0.244900
C139	C	0.954389	-0.123735	-0.427559
C140	C	1.287722	0.209598	-0.094226
C141	C	1.621056	0.542931	0.239107
C142	C	1.008117	-0.373180	-0.937117
C143	C	1.341451	-0.039847	-0.603784
C144	C	1.674784	0.293487	-0.270450
C145	C	1.003835	-0.378566	-1.031020
C146	C	1.337169	-0.045233	-0.697687
C147	C	1.670502	0.288100	-0.364354
C148	C	0.912542	-0.493576	-1.024351
C149	C	1.245876	-0.160242	-0.691018
C150	C	1.579209	0.173091	-0.357685
C151	C	0.916824	-0.488189	-0.930448
C152	C	1.250157	-0.154856	-0.597115
C153	C	1.583491	0.178477	-0.263781
C154	C	0.964614	-0.427990	-0.886834
C155	C	1.297947	-0.094657	-0.553501
C156	C	1.631280	0.238676	-0.220168
C157	C	0.968898	-0.422609	-0.792929
C158	C	1.302232	-0.089276	-0.459596
C159	C	1.635565	0.244058	-0.126263
C160	C	0.877602	-0.537613	-0.786262
C161	C	1.210936	-0.204280	-0.452929
C162	C	1.544269	0.129053	-0.119595
C163	C	0.873321	-0.543000	-0.880165
C164	C	1.206654	-0.209666	-0.546832
C165	C	1.539987	0.123667	-0.213499
C166	C	0.951349	-0.444752	-0.174566
C167	C	1.284683	-0.111419	0.158767
C168	C	1.618016	0.221914	0.492101
C169	C	0.956050	-0.438763	-0.074641
C170	C	1.289383	-0.105430	0.258693
C171	C	1.622717	0.227904	0.592026
H172	H	1.000393	-0.806400	-0.492834
H173	H	1.333726	-0.473067	-0.159501
H174	H	1.667060	-0.139734	0.173833
H175	H	0.198493	-0.360101	-0.518735
H176	H	0.531827	-0.026768	-0.185402
H177	H	0.865160	0.306565	0.147932
O178	O	0.691775	-0.345730	-0.534795
O179	O	1.025108	-0.012397	-0.201461
O180	O	1.358441	0.320936	0.131872
H181	H	0.746912	-0.354816	-0.524563
H182	H	1.080245	-0.021483	-0.191229
H183	H	1.413578	0.311850	0.142104
H184	H	1.007812	-0.373593	-0.757420
H185	H	1.341146	-0.040260	-0.424087
H186	H	1.674479	0.293073	-0.090754
H187	H	1.035330	-0.950497	-0.542293
H188	H	1.368663	-0.617164	-0.208960
H189	H	1.701996	-0.283830	0.124374
H190	H	0.683487	-0.556376	-0.297629
H191	H	1.016821	-0.223042	0.035704
H192	H	1.350154	0.110291	0.369038
H193	H	0.842180	-0.582246	-0.745312
H194	H	1.175514	-0.248913	-0.411978
H195	H	1.508847	0.084420	-0.078645
H196	H	1.028442	-1.120865	-0.532503
H197	H	1.361775	-0.787531	-0.199169
H198	H	1.695108	-0.454198	0.134164
H199	H	0.554268	-0.360050	-0.518703
H200	H	0.887601	-0.026717	-0.185370
H201	H	1.220935	0.306617	0.147963
H202	H	0.873634	-0.542586	-1.059878
H203	H	1.206967	-0.209253	-0.726545
H204	H	1.540301	0.124080	-0.393211
O205	O	0.336018	-0.345773	-0.534811
O206	O	0.669352	-0.012439	-0.201478
O207	O	1.002685	0.320894	0.131856
H208	H	0.299379	-0.308140	-0.577168
H209	H	0.632712	0.025193	-0.243835
H210	H	0.966045	0.358526	0.089498
H211	H	1.039259	-0.333932	-1.071957
H212	H	1.372592	-0.000598	-0.738624
H213	H	1.705925	0.332735	-0.405291
H214	H	0.881032	-1.109159	-0.323634
H215	H	1.214365	-0.775826	0.009700
H216	H	1.547699	-0.442492	0.343033
O217	O	0.190201	-0.570737	-0.281570
O218	O	0.523534	-0.237404	0.051764
O219	O	0.856867	0.095929	0.385097
H220	H	0.226840	-0.608349	-0.239190
H221	H	0.560173	-0.275015	0.094143
H222	H	0.893506	0.058318	0.427477
H223	H	0.834410	-0.592010	-0.915689
H224	H	1.167744	-0.258677	-0.582355
H225	H	1.501077	0.074657	-0.249022
H226	H	0.327715	-0.556426	-0.297658
H227	H	0.661048	-0.223093	0.035676
H228	H	0.994382	0.110241	0.369009
H229	H	1.047033	-0.324168	-0.901606
H230	H	1.380366	0.009165	-0.568273
H231	H	1.713699	0.342498	-0.234939
H232	H	0.846096	-0.965059	-0.274172
H233	H	1.179429	-0.631726	0.059161
H234	H	1.512762	-0.298392	0.392494
H235	H	0.852977	-0.794665	-0.283966
H236	H	1.186310	-0.461332	0.049367
H237	H	1.519644	-0.127998	0.382700
H238	H	0.555241	-0.556386	-0.297643
H239	H	0.888574	-0.223053	0.035690
H240	H	1.221908	0.110281	0.369024
