data_functionalizedCrystal
_audit_creation_method	'MofGen! by Chris Wilmer'
_symmetry_space_group_name_H-M	'P1'
_symmetry_Int_Tables_number	1
_symmetry_cell_setting	triclinic
loop_
_symmetry_equiv_pos_as_xyz
  x,y,z
_cell_length_a	8.497374
_cell_length_b	18.215407
_cell_length_c	18.215399
_cell_angle_alpha	90.017368
_cell_angle_beta	89.988708
_cell_angle_gamma	90.001464
loop_
_atom_site_label
_atom_site_type_symbol
_atom_site_fract_x
_atom_site_fract_y
_atom_site_fract_z
Zn1	Zn	0.628180	1.125194	0.416153
Zn2	Zn	0.892002	1.125153	0.293122
Zn3	Zn	0.628218	1.002126	0.293105
Zn4	Zn	0.891900	1.002143	0.416152
O5	O	0.760075	1.063654	0.354633
O6	O	0.663203	1.228173	0.399840
O7	O	0.857068	1.108809	0.190136
O8	O	0.407450	1.018461	0.309421
O9	O	0.857032	1.228143	0.309450
O10	O	0.407422	1.108878	0.399823
O11	O	0.663267	1.018422	0.190123
O12	O	0.663169	0.899144	0.309421
O13	O	0.856859	1.018490	0.519137
O14	O	0.856895	0.899157	0.399823
O15	O	0.663104	1.108895	0.519137
O16	O	1.112750	1.108826	0.309449
O17	O	1.112676	1.018451	0.399839
C18	C	0.760026	0.872448	0.354620
C19	C	0.760043	0.790649	0.354632
C20	C	0.659325	0.602469	0.401773
C21	C	0.659338	0.525611	0.401775
C22	C	0.860869	0.525591	0.307507
C23	C	0.860846	0.602448	0.307501
C24	C	0.760077	0.640885	0.354638
C25	C	0.760113	0.487169	0.354646
C26	C	0.760128	0.403836	0.354649
C27	C	0.760059	0.724224	0.354635
C28	C	1.169955	1.063645	0.354644
C29	C	1.348599	1.063664	0.354632
C30	C	0.759966	1.063699	0.546586
C31	C	0.759920	1.063718	0.628385
C32	C	0.760125	1.255607	0.354647
C33	C	0.760146	1.337406	0.354652
C34	C	0.760069	1.063652	0.163427
C35	C	0.759671	1.063775	0.081628
C36	C	0.658938	1.110809	0.816580
C37	C	0.658892	1.110817	0.893439
C38	C	0.860658	1.016679	0.893428
C39	C	0.860695	1.016667	0.816570
C40	C	0.759837	1.063736	0.778149
C41	C	0.759754	1.063757	0.931865
C42	C	0.759705	1.063766	1.015198
C43	C	0.759883	1.063726	0.694810
H44	H	0.942914	0.494286	0.269130
H45	H	0.942892	0.633727	0.269114
O46	O	0.560810	1.156548	0.779371
C47	C	0.471771	1.198108	0.829777
H48	H	0.466281	1.167972	0.884559
H49	H	0.347485	1.205957	0.807571
H50	H	0.529543	1.254002	0.837960
O51	O	0.560706	1.156438	0.930802
C52	C	0.458802	1.114549	0.975261
H53	H	0.449067	1.056583	0.952090
H54	H	0.337398	1.141168	0.976129
H55	H	0.507537	1.112022	1.033512
H56	H	0.942776	0.978359	0.924720
O57	O	0.958866	0.970916	0.779347
C58	C	1.047861	0.929367	0.829737
H59	H	1.053308	0.959516	0.884530
H60	H	1.172164	0.921510	0.807528
H61	H	0.990077	0.873477	0.837902
H62	H	0.577266	0.633763	0.440152
H63	H	0.577293	0.494336	0.440156
