data_functionalizedCrystal
_audit_creation_method	'MofGen! by Chris Wilmer'
_symmetry_space_group_name_H-M	'P1'
_symmetry_Int_Tables_number	1
_symmetry_cell_setting	triclinic
loop_
_symmetry_equiv_pos_as_xyz
  x,y,z
_cell_length_a	8.497374
_cell_length_b	17.077404
_cell_length_c	17.077402
_cell_angle_alpha	89.976892
_cell_angle_beta	89.987778
_cell_angle_gamma	90.003463
loop_
_atom_site_label
_atom_site_type_symbol
_atom_site_fract_x
_atom_site_fract_y
_atom_site_fract_z
Zn1	Zn	0.891988	1.199930	0.312640
Zn2	Zn	0.628173	1.199874	0.443874
Zn3	Zn	0.628207	1.068699	0.312627
Zn4	Zn	0.891897	1.068630	0.443868
O5	O	0.760066	1.134283	0.378252
O6	O	0.857016	1.309770	0.330056
O7	O	0.407415	1.182479	0.426461
O8	O	0.663251	1.086159	0.202782
O9	O	0.663193	1.309729	0.426474
O10	O	0.857049	1.182574	0.202791
O11	O	0.407440	1.086105	0.330034
O12	O	0.663162	0.958843	0.330028
O13	O	1.112671	1.086042	0.426463
O14	O	0.856894	0.958792	0.426450
O15	O	1.112738	1.182508	0.330050
O16	O	0.663104	1.182412	0.553720
O17	O	0.856861	1.085988	0.553716
C18	C	0.760023	0.930336	0.378238
C19	C	0.760042	0.843086	0.378251
C20	C	0.860756	0.802090	0.428533
C21	C	0.860781	0.720109	0.428535
C22	C	0.760083	0.679126	0.378257
C23	C	0.659364	0.720128	0.327969
C24	C	0.659348	0.802107	0.327964
C25	C	0.659402	0.549258	0.327985
C26	C	0.659416	0.467273	0.327991
C27	C	0.860835	0.467260	0.428556
C28	C	0.860819	0.549239	0.428551
C29	C	0.760098	0.590235	0.378263
C30	C	0.760003	1.134208	0.582200
C31	C	0.760029	1.134247	0.669450
C32	C	1.171547	1.134278	0.378253
C33	C	1.350191	1.134279	0.378262
C34	C	0.760111	1.339028	0.378267
C35	C	0.760130	1.426277	0.378273
C36	C	0.760164	1.134381	0.173508
C37	C	0.760206	1.134422	0.086258
C38	C	0.659248	1.184506	0.710416
C39	C	0.659289	1.184545	0.792397
C40	C	0.760103	1.134319	0.833409
C41	C	0.860895	1.084058	0.792437
C42	C	0.860861	1.084024	0.710458
C43	C	0.860955	1.084130	0.963307
C44	C	0.860986	1.084163	1.045291
C45	C	0.659382	1.184651	1.045246
C46	C	0.659349	1.184618	0.963267
C47	C	0.760139	1.134355	0.922300
H48	H	0.942850	0.433878	0.469499
H49	H	0.577320	1.225580	1.078605
H50	H	0.577147	1.225403	0.677029
C51	C	0.459991	1.283858	0.784117
C52	C	0.548498	1.239787	0.837427
H53	H	0.391585	1.317959	0.811918
H54	H	0.528761	1.313842	0.752105
H55	H	0.399581	1.249657	0.752182
H56	H	0.608917	1.273988	0.869358
H57	H	0.479718	1.209800	0.869453
H58	H	0.942751	0.835452	0.469478
C59	C	1.073107	1.073099	0.884602
C60	C	0.971710	1.028849	0.837519
H61	H	1.141510	1.039012	0.912436
H62	H	1.133502	1.107253	0.852582
H63	H	1.013070	1.103034	0.920730
H64	H	1.031747	0.998918	0.801387
H65	H	0.911310	0.994681	0.869542
C66	C	1.060140	0.984699	0.718732
C67	C	0.971645	1.028778	0.665424
H68	H	1.128533	0.950592	0.690929
H69	H	1.120548	1.018889	0.750668
H70	H	0.991349	0.954712	0.750744
H71	H	1.040436	1.058770	0.633416
H72	H	0.911233	0.994585	0.633476
C73	C	0.882332	0.641403	0.534148
C74	C	0.971506	0.594291	0.483815
H75	H	0.950672	0.669213	0.568266
H76	H	0.822357	0.677545	0.504198
H77	H	0.813508	0.609399	0.564124
H78	H	1.040323	0.626296	0.453835
H79	H	1.031508	0.558145	0.513768
H80	H	0.577251	1.225511	0.929875
C81	C	0.460347	0.475516	0.228571
C82	C	0.548741	0.422223	0.272719
H83	H	0.392029	0.447702	0.194445
H84	H	0.399862	0.507473	0.262715
H85	H	0.529205	0.507508	0.198601
H86	H	0.479882	0.390235	0.302693
H87	H	0.609230	0.390252	0.238570
C88	C	0.447174	0.894294	0.316889
C89	C	0.548639	0.847177	0.272696
H90	H	0.378837	0.922121	0.282765
H91	H	0.386712	0.862297	0.351035
H92	H	0.507167	0.930427	0.346830
H93	H	0.488647	0.811040	0.242760
H94	H	0.609107	0.879177	0.238536
C95	C	0.637822	0.641478	0.222362
C96	C	0.548682	0.594319	0.272708
H97	H	0.569461	0.669291	0.188238
H98	H	0.697776	0.677616	0.252302
H99	H	0.706664	0.609506	0.192393
H100	H	0.479847	0.626292	0.302681
H101	H	0.488701	0.558176	0.242765
C102	C	1.060304	0.984851	1.037107
C103	C	0.971824	1.028966	1.090374
H104	H	1.128739	0.950780	1.064941
H105	H	0.991518	0.954831	1.005174
H106	H	1.120681	1.019025	1.005088
H107	H	0.911438	0.994791	1.122390
H108	H	1.040619	1.058988	1.122320
H109	H	0.942791	0.686734	0.469481
H110	H	0.577381	0.686753	0.287029
H111	H	0.943034	1.043203	0.929955
