data_functionalizedCrystal
_audit_creation_method	'MofGen! by Chris Wilmer'
_symmetry_space_group_name_H-M	'P1'
_symmetry_Int_Tables_number	1
_symmetry_cell_setting	triclinic
loop_
_symmetry_equiv_pos_as_xyz
  x,y,z
_cell_length_a	17.038272
_cell_length_b	10.540514
_cell_length_c	9.616153
_cell_angle_alpha	89.992599
_cell_angle_beta	89.997688
_cell_angle_gamma	87.813358
loop_
_atom_site_label
_atom_site_type_symbol
_atom_site_fract_x
_atom_site_fract_y
_atom_site_fract_z
O1	O	0.110152	1.696186	-0.115665
O2	O	0.120560	1.327740	-0.115664
O3	O	0.001528	1.509773	-0.115654
O4	O	0.229184	1.514152	-0.115676
O5	O	0.001531	1.509746	0.115638
O6	O	0.120563	1.327713	0.115627
O7	O	0.110155	1.696159	0.115626
Zn8	Zn	0.115359	1.511932	0.152349
Zn9	Zn	0.115356	1.511967	-0.152387
O10	O	0.229186	1.514126	0.115616
C11	C	0.119785	1.280350	-0.000018
C12	C	0.117462	1.139184	-0.000018
C13	C	0.202593	1.076419	-0.000029
C14	C	0.200205	0.929584	-0.000560
C15	C	0.071163	0.942543	-0.131843
C16	C	0.074154	1.089361	-0.131947
C17	C	0.072897	1.089616	0.131084
C18	C	0.072076	0.942561	0.132810
C19	C	-0.027621	1.505776	-0.000008
C20	C	-0.114482	1.493892	-0.000008
C21	C	-0.163975	1.603003	-0.000007
C22	C	-0.245589	1.591829	-0.000020
C23	C	-0.277708	1.471543	-0.000025
C24	C	-0.228209	1.362424	-0.000030
C25	C	-0.146596	1.373599	-0.000027
C26	C	-0.523691	1.432063	-0.000044
C27	C	-0.605310	1.420896	-0.000043
C28	C	-0.622685	1.650302	-0.000036
C29	C	-0.541070	1.661467	-0.000024
C30	C	-0.491577	1.552348	-0.000037
C31	C	-0.361131	1.460118	-0.000034
C32	C	-0.408157	1.563773	-0.000038
C33	C	0.258336	1.518122	-0.000033
C34	C	0.345197	1.530007	-0.000042
C35	C	0.110930	1.743548	-0.000023
C36	C	0.113252	1.884715	-0.000032
N37	N	0.115361	1.511917	0.360324
N38	N	0.115348	1.511991	-0.360362
C39	C	0.178821	1.414206	0.580688
C40	C	0.179059	1.414457	0.419521
C41	C	0.133924	1.646374	0.418771
C42	C	0.134373	1.645851	0.579989
C43	C	0.033129	1.476475	0.580243
C44	C	0.033663	1.473478	0.419017
H45	H	0.104893	1.120464	-0.230860
H46	H	0.019592	1.374526	0.380818
H47	H	0.008696	0.912463	0.141168
H48	H	0.233310	0.889997	0.093905
H49	H	0.240058	1.438046	0.380935
F50	F	0.247071	1.120087	-0.123404
F51	F	0.243286	0.879064	-0.124799
H52	H	-0.285884	1.680679	-0.000016
H53	H	-0.514925	1.759416	-0.000020
H54	H	0.193230	1.676804	0.378375
F55	F	-0.675364	1.766426	-0.000024
F56	F	-0.031042	1.559635	0.366369
F57	F	0.075146	1.744226	0.368654
H58	H	0.090004	1.721356	0.618981
H59	H	-0.014114	1.547681	0.618364
H60	H	0.015461	1.380088	0.620983
H61	H	0.011620	1.131535	-0.137569
F62	F	0.247905	1.118562	0.123020
H63	H	0.007299	0.914272	-0.136366
H64	H	0.194357	1.675801	0.617571
H65	H	0.101236	1.123742	0.231024
F66	F	0.108923	0.890491	-0.260558
H67	H	0.010105	1.131015	0.132363
F68	F	0.112278	0.892713	0.260273
H69	H	-0.387292	1.362181	-0.000034
H70	H	0.167891	1.314797	0.380007
F71	F	0.258103	1.444705	0.633591
F72	F	-0.639491	1.292865	-0.000040
F73	F	-0.129800	1.731029	0.000011
F74	F	-0.471027	1.315927	-0.000061
H75	H	-0.254366	1.264484	-0.000042
H76	H	-0.382002	1.661710	-0.000065
F77	F	0.164440	1.283553	0.631391
F78	F	-0.093921	1.257468	-0.000032
