data_functionalizedCrystal
_audit_creation_method	'MofGen! by Chris Wilmer'
_symmetry_space_group_name_H-M	'P1'
_symmetry_Int_Tables_number	1
_symmetry_cell_setting	triclinic
loop_
_symmetry_equiv_pos_as_xyz
  x,y,z
_cell_length_a	16.120530
_cell_length_b	18.050589
_cell_length_c	16.120297
_cell_angle_alpha	87.124343
_cell_angle_beta	89.871860
_cell_angle_gamma	87.123928
loop_
_atom_site_label
_atom_site_type_symbol
_atom_site_fract_x
_atom_site_fract_y
_atom_site_fract_z
Zn1	Zn	1.247404	-0.376248	0.534587
Zn2	Zn	1.580738	-0.042915	0.867920
Zn3	Zn	1.914071	0.290419	1.201254
Zn4	Zn	1.254344	-0.494473	0.395537
Zn5	Zn	1.587677	-0.161139	0.728870
Zn6	Zn	1.921011	0.172194	1.062203
Zn7	Zn	1.115396	-0.363698	0.388504
Zn8	Zn	1.448729	-0.030365	0.721838
Zn9	Zn	1.782063	0.302968	1.055171
Zn10	Zn	1.108300	-0.493789	0.527506
Zn11	Zn	1.441634	-0.160455	0.860839
Zn12	Zn	1.774967	0.172878	1.194173
O13	O	1.181361	-0.432052	0.461533
O14	O	1.514694	-0.098719	0.794867
O15	O	1.848028	0.234615	1.128200
O16	O	1.364691	-0.397469	0.522048
O17	O	1.698024	-0.064136	0.855382
O18	O	2.031357	0.269198	1.188715
O19	O	1.241786	-0.472159	0.278238
O20	O	1.575119	-0.138826	0.611571
O21	O	1.908452	0.194507	0.944905
O22	O	1.132972	-0.261442	0.407903
O23	O	1.466306	0.071891	0.741236
O24	O	1.799639	0.405224	1.074570
O25	O	1.369789	-0.484328	0.419888
O26	O	1.703122	-0.150995	0.753222
O27	O	2.036456	0.182339	1.086555
O28	O	1.229959	-0.270662	0.515230
O29	O	1.563292	0.062671	0.848563
O30	O	1.896625	0.396004	1.181896
O31	O	1.139701	-0.376080	0.273071
O32	O	1.473035	-0.042747	0.606405
O33	O	1.806368	0.290586	0.939738
O34	O	0.998089	-0.375417	0.401037
O35	O	1.331422	-0.042084	0.734370
O36	O	1.664756	0.291250	1.067703
O37	O	1.120879	-0.483162	0.644811
O38	O	1.454212	-0.149829	0.978144
O39	O	1.787546	0.183504	1.311478
O40	O	0.992876	-0.470994	0.503160
O41	O	1.326209	-0.137660	0.836494
O42	O	1.659542	0.195673	1.169827
O43	O	1.223078	-0.396806	0.650014
O44	O	1.556412	-0.063472	0.983347
O45	O	1.889745	0.269861	1.316680
O46	O	1.234906	-0.598303	0.413022
O47	O	1.568239	-0.264969	0.746355
O48	O	1.901572	0.068364	1.079689
O49	O	1.127608	-0.597800	0.509979
O50	O	1.460941	-0.264467	0.843313
O51	O	1.794275	0.068866	1.176646
C52	C	0.965310	-0.421770	0.450568
C53	C	1.298643	-0.088437	0.783901
C54	C	1.631977	0.244897	1.117234
C55	C	0.872881	-0.417390	0.445896
C56	C	1.206215	-0.084057	0.779229
C57	C	1.539548	0.249277	1.112563
C58	C	1.181261	-0.624999	0.461515
C59	C	1.514595	-0.291665	0.794848
C60	C	1.847928	0.041668	1.128181
C61	C	1.181293	-0.707547	0.461538
C62	C	1.514627	-0.374214	0.794872
C63	C	1.847960	-0.040880	1.128205
C64	C	0.703653	-0.409376	0.437374
C65	C	1.036986	-0.076043	0.770707
C66	C	1.370319	0.257290	1.104041
C67	C	0.659907	-0.454785	0.485754
C68	C	0.993240	-0.121452	0.819087
C69	C	1.326574	0.211882	1.152420
C70	C	0.565742	-0.450326	0.481012
C71	C	0.899076	-0.116993	0.814345
C72	C	1.232409	0.216341	1.147679
C73	C	0.797826	-0.413834	0.442115
C74	C	1.131159	-0.080501	0.775448
C75	C	1.464493	0.252832	1.108781
C76	C	1.123001	-0.906753	0.514247
C77	C	1.456334	-0.573420	0.847580
C78	C	1.789667	-0.240086	1.180914
C79	C	1.106578	-0.951975	0.437341
C80	C	1.439911	-0.618642	0.770675
C81	C	1.773244	-0.285308	1.104008
C82	C	1.181375	-0.858682	0.461553
C83	C	1.514708	-0.525348	0.794886
C84	C	1.848041	-0.192015	1.128220
C85	C	1.197838	-0.960544	0.538470
C86	C	1.531171	-0.627210	0.871803
C87	C	1.864505	-0.293877	1.205136
C88	C	1.181451	-1.004671	0.461574
C89	C	1.514784	-0.671338	0.794908
C90	C	1.848118	-0.338005	1.128241
C91	C	1.164914	-0.902813	0.384605
C92	C	1.498247	-0.569479	0.717939
C93	C	1.831580	-0.236146	1.051272
C94	C	1.256207	-0.911381	0.485787
C95	C	1.589540	-0.578048	0.819120
C96	C	1.922873	-0.244714	1.152453
C97	C	1.239815	-0.956580	0.408830
C98	C	1.573149	-0.623246	0.742163
C99	C	1.906482	-0.289913	1.075497
C100	C	1.181328	-0.774581	0.461542
C101	C	1.514662	-0.441248	0.794875
C102	C	1.847995	-0.107914	1.128209
C103	C	1.181498	-1.088770	0.461577
C104	C	1.514831	-0.755437	0.794910
C105	C	1.848165	-0.422103	1.128244
C106	C	1.398256	-0.442375	0.472543
C107	C	1.731589	-0.109041	0.805876
C108	C	2.064922	0.224292	1.139209
C109	C	1.490683	-0.446774	0.477234
C110	C	1.824017	-0.113440	0.810568
C111	C	2.157350	0.219893	1.143901
C112	C	1.170413	-0.441308	0.678428
C113	C	1.503746	-0.107974	1.011762
C114	C	1.837080	0.225359	1.345095
C115	C	1.165748	-0.445252	0.770856
C116	C	1.499081	-0.111919	1.104189
C117	C	1.832414	0.221415	1.437522
C118	C	1.181483	-0.238354	0.461572
C119	C	1.514816	0.094980	0.794905
C120	C	1.848150	0.428313	1.128238
C121	C	1.181535	-0.155811	0.461588
C122	C	1.514868	0.177522	0.794921
C123	C	1.848201	0.510856	1.128255
C124	C	1.192314	-0.422781	0.245485
C125	C	1.525648	-0.089448	0.578818
C126	C	1.858981	0.243886	0.912152
C127	C	1.197141	-0.418635	0.153066
C128	C	1.530474	-0.085302	0.486399
C129	C	1.863808	0.248031	0.819733
C130	C	1.157199	-0.452435	0.940081
C131	C	1.490533	-0.119102	1.273414
C132	C	1.823866	0.214232	1.606748
C133	C	1.205687	-0.411454	0.983846
C134	C	1.539020	-0.078121	1.317180
C135	C	1.872353	0.255213	1.650513
C136	C	1.200930	-0.415451	1.078009
C137	C	1.534264	-0.082118	1.411342
C138	C	1.867597	0.251216	1.744675
C139	C	1.161955	-0.448439	0.845910
C140	C	1.495288	-0.115106	1.179243
C141	C	1.828621	0.218227	1.512576
H142	H	0.693175	-0.497008	0.530735
H143	H	1.026509	-0.163675	0.864068
H144	H	1.359842	0.169658	1.197401
C145	C	0.611472	-0.389604	0.320710
C146	C	0.944806	-0.056271	0.654044
C147	C	1.278139	0.277063	0.987377
C148	C	0.658749	-0.352382	0.376649
C149	C	0.992082	-0.019049	0.709983
C150	C	1.325416	0.314285	1.043316
H151	H	0.583748	-0.354419	0.283219
H152	H	0.917082	-0.021085	0.616552
H153	H	1.250415	0.312248	0.949885
H154	H	0.571658	-0.417502	0.350448
H155	H	0.904992	-0.084168	0.683781
H156	H	1.238325	0.249165	1.017114
H157	H	0.646953	-0.422126	0.290517
H158	H	0.980287	-0.088793	0.623851
H159	H	1.313620	0.244540	0.957184
H160	H	0.623267	-0.319863	0.406847
H161	H	0.956601	0.013470	0.740180
H162	H	1.289934	0.346803	1.073514
H163	H	0.698568	-0.324472	0.346909
H164	H	1.031901	0.008862	0.680242
H165	H	1.365234	0.342195	1.013576
C166	C	1.073802	-0.822595	0.298729
C167	C	1.407136	-0.489262	0.632063
C168	C	1.740469	-0.155929	0.965396
C169	C	1.146050	-0.868893	0.296774
C170	C	1.479384	-0.535560	0.630108
C171	C	1.812717	-0.202226	0.963441
H172	H	1.062154	-0.801658	0.244506
H173	H	1.395487	-0.468325	0.577840
H174	H	1.728820	-0.134992	0.911173
H175	H	1.081636	-0.783964	0.335399
H176	H	1.414969	-0.450631	0.668733
H177	H	1.748302	-0.117297	1.002066
H178	H	1.028617	-0.850770	0.317596
H179	H	1.361950	-0.517436	0.650929
H180	H	1.695283	-0.184103	0.984263
H181	H	1.191237	-0.840717	0.277913
H182	H	1.524571	-0.507384	0.611247
H183	H	1.857904	-0.174051	0.944580
H184	H	1.138222	-0.907530	0.260091
H185	H	1.471555	-0.574196	0.593425
H186	H	1.804888	-0.240863	0.926758
H187	H	1.250770	-0.373367	0.950596
H188	H	1.584103	-0.040033	1.283930
H189	H	1.917436	0.293300	1.617263
H190	H	1.073570	-0.884877	0.558738
H191	H	1.406903	-0.551544	0.892072
H192	H	1.740237	-0.218211	1.225405
H193	H	1.043330	-0.969970	0.416862
H194	H	1.376663	-0.636637	0.750196
H195	H	1.709997	-0.303304	1.083529
C196	C	1.394073	-0.949997	0.531327
C197	C	1.727407	-0.616663	0.864661
C198	C	2.060740	-0.283330	1.197994
C199	C	1.341565	-0.887085	0.513481
C200	C	1.674898	-0.553752	0.846815
C201	C	2.008232	-0.220419	1.180148
H202	H	1.446767	-0.934995	0.548437
H203	H	1.780101	-0.601662	0.881770
H204	H	2.113434	-0.268329	1.215103
H205	H	1.400544	-0.977822	0.483059
H206	H	1.733877	-0.644488	0.816393
H207	H	2.067210	-0.311155	1.149726
H208	H	1.370524	-0.979832	0.574600
H209	H	1.703857	-0.646499	0.907933
H210	H	2.037190	-0.313166	1.241266
H211	H	1.365112	-0.857252	0.470204
H212	H	1.698445	-0.523919	0.803538
H213	H	2.031779	-0.190586	1.136871
H214	H	1.335097	-0.859248	0.561755
H215	H	1.668430	-0.525915	0.895088
H216	H	2.001764	-0.192582	1.228422
C217	C	1.217178	-1.072132	0.625194
C218	C	1.550511	-0.738799	0.958528
C219	C	1.883845	-0.405466	1.291861
C220	C	1.216599	-0.994589	0.626268
C221	C	1.549933	-0.661256	0.959601
C222	C	1.883266	-0.327922	1.292935
H223	H	1.228750	-1.093146	0.679400
H224	H	1.562084	-0.759813	1.012733
H225	H	1.895417	-0.426479	1.346066
H226	H	1.258727	-1.089199	0.587844
H227	H	1.592060	-0.755866	0.921177
H228	H	1.925394	-0.422533	1.254511
H229	H	1.164441	-1.086639	0.607623
H230	H	1.497775	-0.753306	0.940957
H231	H	1.831108	-0.419972	1.274290
H232	H	1.269338	-0.980082	0.643833
H233	H	1.602672	-0.646749	0.977166
H234	H	1.936005	-0.313415	1.310500
H235	H	1.175048	-0.977515	0.663631
H236	H	1.508381	-0.644182	0.996964
H237	H	1.841714	-0.310848	1.330298
C238	C	1.289100	-0.956489	0.268163
C239	C	1.622433	-0.623156	0.601496
C240	C	1.955767	-0.289823	0.934830
C241	C	1.306502	-0.985928	0.348618
C242	C	1.639836	-0.652594	0.681951
C243	C	1.973169	-0.319261	1.015284
H244	H	1.330265	-0.974613	0.230990
H245	H	1.663598	-0.641280	0.564323
H246	H	1.996932	-0.307947	0.897657
H247	H	1.289130	-0.903844	0.267500
H248	H	1.622464	-0.570511	0.600834
H249	H	1.955797	-0.237178	0.934167
H250	H	1.236106	-0.971058	0.251432
H251	H	1.569439	-0.637724	0.584765
H252	H	1.902773	-0.304391	0.918098
H253	H	1.359494	-0.971355	0.365351
H254	H	1.692827	-0.638022	0.698685
H255	H	2.026161	-0.304688	1.032018
H256	H	1.306481	-1.038584	0.349283
H257	H	1.639814	-0.705251	0.682616
H258	H	1.973147	-0.371917	1.015950
H259	H	1.112120	-0.490519	0.973329
H260	H	1.445453	-0.157186	1.306662
H261	H	1.778787	0.176147	1.639995
