data_functionalizedCrystal
_audit_creation_method	'MofGen! by Chris Wilmer'
_symmetry_space_group_name_H-M	'P1'
_symmetry_Int_Tables_number	1
_symmetry_cell_setting	triclinic
loop_
_symmetry_equiv_pos_as_xyz
  x,y,z
_cell_length_a	31.640172
_cell_length_b	17.917559
_cell_length_c	31.640172
_cell_angle_alpha	57.021867
_cell_angle_beta	89.999175
_cell_angle_gamma	63.033445
loop_
_atom_site_label
_atom_site_type_symbol
_atom_site_fract_x
_atom_site_fract_y
_atom_site_fract_z
Zr1	Zr	0.428340	0.818419	-0.076511
O2	O	0.364885	0.974420	-0.147998
O3	O	0.444996	0.662417	-0.051816
O4	O	0.449028	0.818400	-0.143992
O5	O	0.360854	0.818451	0.013726
O6	O	0.518584	0.818388	-0.143995
O7	O	0.360852	0.818436	-0.055822
O8	O	0.511371	0.539361	0.020892
O9	O	0.368067	1.097478	-0.151161
O10	O	0.507387	0.726574	-0.044644
O11	O	0.455480	0.726595	0.007260
O12	O	0.460227	0.910246	-0.101266
O13	O	0.408320	0.910267	-0.049361
Zr14	Zr	0.539276	0.818424	0.034406
Zr15	Zr	0.539274	0.818399	-0.076515
Zr16	Zr	0.428343	0.818444	0.034410
Zr17	Zr	0.433416	1.014683	-0.081555
Zr18	Zr	0.534201	0.622160	0.039450
O19	O	0.522621	0.974426	0.009711
O20	O	0.522618	0.974391	-0.148004
O21	O	0.364888	0.974455	0.009717
O22	O	0.602732	0.662423	0.105894
O23	O	0.602729	0.662388	-0.051821
O24	O	0.444999	0.662452	0.105900
O25	O	0.606763	0.818391	-0.055830
O26	O	0.518589	0.818442	0.101888
O27	O	0.449033	0.818455	0.101890
O28	O	0.606764	0.818407	0.013717
O29	O	0.456244	1.097462	-0.151164
O30	O	0.511372	0.539381	0.109060
O31	O	0.599550	0.539365	0.109057
O32	O	0.599548	0.539345	0.020889
O33	O	0.368069	1.097497	-0.062994
O34	O	0.456246	1.097481	-0.062997
O35	O	0.507389	0.726597	0.059161
O36	O	0.559297	0.726576	0.007257
O37	O	0.512137	0.910248	-0.049365
O38	O	0.460229	0.910269	0.002540
C39	C	0.477460	0.572926	-0.014743
C40	C	0.475305	0.489607	-0.012602
C41	C	0.496210	0.299847	-0.033447
C42	C	0.471408	0.337001	-0.008658
C43	C	0.473577	0.421918	-0.010853
C44	C	0.494041	0.214921	-0.031253
C45	C	0.345047	0.818447	-0.021047
C46	C	0.297953	0.818455	-0.021046
C47	C	0.005946	0.818394	-0.059365
C48	C	-0.171041	0.818381	-0.059369
O49	O	-0.193916	0.818326	-0.091940
N50	N	-0.193171	0.818391	-0.021055
C51	C	-0.171050	0.818398	0.017265
O52	O	-0.193931	0.818396	0.049857
C53	C	0.005938	0.818404	0.017270
C54	C	0.028063	0.818404	-0.021049
C55	C	0.028071	0.818393	-0.097681
C56	C	0.072313	0.818402	-0.097682
C57	C	0.094431	0.818412	-0.059366
C58	C	0.072306	0.818413	-0.021050
C59	C	0.028061	0.818403	0.055592
C60	C	0.072311	0.818402	0.055591
C61	C	0.094436	0.818402	0.017271
C62	C	0.138666	0.818432	0.017265
N63	N	0.160795	0.818422	-0.021049
C64	C	0.138678	0.818411	-0.059364
C65	C	-0.263972	0.818397	0.017259
C66	C	-0.308219	0.818398	0.017257
C67	C	-0.308207	0.818378	-0.059376
C68	C	-0.263961	0.818385	-0.059376
C69	C	-0.241842	0.818387	-0.021055
C70	C	0.231590	0.818431	-0.059363
C71	C	0.275836	0.818445	-0.059361
C72	C	0.275821	0.818459	0.017273
C73	C	0.231578	0.818451	0.017270
C74	C	0.209465	0.818434	-0.021050
O75	O	0.161570	0.818475	0.049823
O76	O	0.161573	0.818390	-0.091944
C77	C	-0.038297	0.818385	-0.059365
C78	C	-0.060422	0.818386	-0.021048
C79	C	-0.038305	0.818396	0.017267
C80	C	-0.104669	0.818386	-0.021050
C81	C	-0.126787	0.818376	-0.059366
C82	C	-0.104657	0.818365	-0.097680
C83	C	-0.060414	0.818374	-0.097680
C84	C	-0.060435	0.818407	0.055581
C85	C	-0.104678	0.818399	0.055578
C86	C	-0.126795	0.818389	0.017263
C87	C	0.622569	0.818396	-0.021057
C88	C	0.669664	0.818388	-0.021059
C89	C	0.483806	0.818390	-0.159797
C90	C	0.483805	0.818380	-0.206886
C91	C	0.490157	1.063917	-0.027361
C92	C	0.492311	1.147236	-0.029503
C93	C	0.459196	0.914306	-0.528478
C94	C	0.459197	0.914324	-0.705474
O95	O	0.438280	0.995863	-0.753496
N96	N	0.483813	0.818450	-0.698048
C97	C	0.508434	0.722565	-0.646369
O98	O	0.529376	0.641019	-0.644114
C99	C	0.508436	0.722548	-0.469374
C100	C	0.483814	0.818428	-0.476804
C101	C	0.434577	1.010179	-0.535906
C102	C	0.434575	1.010173	-0.491659
C103	C	0.459192	0.914295	-0.439985
C104	C	0.483811	0.818422	-0.432558
C105	C	0.533059	0.626663	-0.417696
C106	C	0.533058	0.626668	-0.373447
C107	C	0.508436	0.722548	-0.380877
C108	C	0.508426	0.722539	-0.336637
N109	N	0.483810	0.818413	-0.344063
C110	C	0.459193	0.914291	-0.395737
C111	C	0.508430	0.722581	-0.739296
C112	C	0.508429	0.722585	-0.783544
C113	C	0.459194	0.914345	-0.842646
C114	C	0.459192	0.914339	-0.798397
C115	C	0.483814	0.818455	-0.746722
C116	C	0.459189	0.914272	-0.302813
C117	C	0.459188	0.914258	-0.258560
C118	C	0.508425	0.722499	-0.199462
C119	C	0.508425	0.722512	-0.243711
C120	C	0.483806	0.818407	-0.295388
O121	O	0.529337	0.641043	-0.288600
O122	O	0.438263	0.995825	-0.397980
C123	C	0.459199	0.914312	-0.572725
C124	C	0.483818	0.818439	-0.565297
C125	C	0.508435	0.722561	-0.513623
C126	C	0.483817	0.818443	-0.609546
C127	C	0.459200	0.914321	-0.661220
C128	C	0.434584	1.010195	-0.668646
C129	C	0.434581	1.010190	-0.624399
C130	C	0.533051	0.626687	-0.506198
C131	C	0.533051	0.626700	-0.550447
C132	C	0.508434	0.722578	-0.602121
C133	C	0.483811	0.818452	0.117693
C134	C	0.483812	0.818463	0.164782
C135	C	0.616221	0.572900	-0.014748
C136	C	0.661161	0.489573	-0.012608
C137	C	0.477463	0.572957	0.124002
C138	C	0.475309	0.489648	0.173232
C139	C	0.616224	0.572931	0.123997
C140	C	0.661164	0.489614	0.173226
C141	C	0.351393	1.063911	-0.166102
C142	C	0.306452	1.147229	-0.215330
C143	C	0.351396	1.063942	-0.027357
C144	C	0.306456	1.147270	-0.029496
C145	C	0.490154	1.063886	-0.166107
C146	C	0.492308	1.147195	-0.215337
C147	C	0.655168	0.450440	-0.038700
C148	C	0.697390	0.372156	-0.036700
C149	C	0.745603	0.333000	-0.008605
C150	C	0.751595	0.372141	0.017487
C151	C	0.709374	0.450429	0.015484
C152	C	0.501394	0.450527	0.223448
C153	C	0.499369	0.372260	0.269709
C154	C	0.471261	0.333112	0.265753
C155	C	0.445173	0.372241	0.215532
C156	C	0.447196	0.450511	0.169272
C157	C	0.709369	0.450477	0.169250
C158	C	0.751600	0.372202	0.215501
C159	C	0.745625	0.333062	0.265727
C160	C	0.697416	0.372207	0.269701
C161	C	0.655186	0.450485	0.223451
C162	C	0.258248	1.186376	-0.211355
C163	C	0.216018	1.264674	-0.257606
C164	C	0.221993	1.303819	-0.307832
C165	C	0.270202	1.264669	-0.311806
C166	C	0.312432	1.186377	-0.265556
C167	C	0.312449	1.186411	-0.003409
C168	C	0.270228	1.264717	-0.005422
C169	C	0.222014	1.303875	-0.033518
C170	C	0.216023	1.264731	-0.059608
C171	C	0.258244	1.186432	-0.057599
C172	C	0.520420	1.186319	-0.211364
C173	C	0.522453	1.264585	-0.257616
C174	C	0.496371	1.303732	-0.307841
C175	C	0.468258	1.264601	-0.311813
C176	C	0.466228	1.186330	-0.265561
H177	H	0.293848	0.818448	-0.090568
N178	N	0.178884	1.383859	-0.035576
N179	N	0.149294	1.471230	-0.079543
H180	H	0.118834	1.527719	-0.080994
H181	H	0.176762	1.296626	-0.082484
H182	H	0.528472	0.644509	-0.777488
N183	N	0.551177	1.304537	-0.253551
N184	N	0.597369	1.243351	-0.228887
H185	H	0.617656	1.271563	-0.226014
N186	N	0.178848	1.383779	-0.355068
N187	N	0.146548	1.366287	-0.362257
H188	H	0.116074	1.422756	-0.395615
N189	N	0.276292	1.304675	-0.363117
N190	N	0.238579	1.374575	-0.404404
H191	H	0.242878	1.402830	-0.440644
N192	N	0.558219	0.528724	-0.410100
N193	N	0.593348	0.507326	-0.428192
H194	H	0.611120	0.438151	-0.422826
N195	N	0.416475	0.332225	0.211497
N196	N	0.426842	0.288513	0.189547
H197	H	0.406576	0.260244	0.186698
H198	H	0.790850	0.340338	0.212256
N199	N	0.166778	1.304618	-0.253534
N200	N	0.135818	1.295866	-0.271949
H201	H	0.101043	1.324067	-0.269070
H202	H	-0.245949	0.818384	-0.090579
N203	N	0.605919	0.490437	-0.067395
N204	N	0.574955	0.481704	-0.043587
H205	H	0.540172	0.509953	-0.063856
N206	N	0.252128	1.146408	-0.160058
N207	N	0.209081	1.181387	-0.156526
H208	H	0.204754	1.153168	-0.120299
H209	H	0.351680	1.154504	-0.268799
H210	H	0.519071	0.331811	-0.056317
H211	H	0.253357	1.154566	-0.078841
N212	N	0.547068	1.146353	-0.160069
N213	N	0.572168	1.181301	-0.156539
H214	H	0.590992	1.153076	-0.120312
N215	N	0.691315	0.332198	0.321007
N216	N	0.667110	0.288502	0.335333
H217	H	0.662801	0.260239	0.371570
N218	N	0.420546	0.490455	0.117984
N219	N	0.395455	0.455483	0.114466
H220	H	0.376631	0.483690	0.078244
N221	N	0.442735	0.296891	0.020047
N222	N	0.463877	0.200766	0.058177
H223	H	0.443629	0.172434	0.078452
N224	N	-0.127262	0.818361	-0.136817
N225	N	-0.166766	0.818353	-0.136805
H226	H	-0.182732	0.818344	-0.164442
N227	N	0.526030	0.332298	0.320999
N228	N	0.572677	0.288612	0.335309
H229	H	0.591508	0.260389	0.371532
H230	H	0.790856	0.340249	0.040361
H231	H	0.714260	0.482281	0.036734
N232	N	0.498455	1.383672	-0.355083
N233	N	0.539738	1.366165	-0.362276
H234	H	0.541211	1.422623	-0.395639
H235	H	0.213591	0.818415	-0.090566
N236	N	-0.330826	0.818433	0.056388
N237	N	-0.344924	0.892582	0.059186
H238	H	-0.360888	0.892605	0.086825
H239	H	0.780015	0.269322	0.303383
H240	H	-0.042404	0.818374	-0.128884
N241	N	0.434042	1.012296	-0.895430
N242	N	0.387926	1.076508	-0.910282
H243	H	0.370165	1.145684	-0.947560
H244	H	0.714243	0.482334	0.128358
H245	H	0.469618	0.269379	0.303425
H246	H	0.615937	0.482341	0.226695
H247	H	0.351702	1.154534	0.019473
N248	N	0.094915	0.818370	-0.136817
N249	N	0.138642	0.744223	-0.122514
H250	H	0.154602	0.744196	-0.150154
N251	N	0.005491	0.818375	-0.136825
N252	N	0.025260	0.818370	-0.171028
H253	H	0.009315	0.818364	-0.198679
H254	H	0.010053	0.818403	0.086795
H255	H	-0.326223	0.818372	-0.090575
H256	H	0.275116	1.296575	0.015826
H257	H	0.447023	1.296486	-0.352712
H258	H	0.443334	1.154484	-0.268803
N259	N	0.530113	0.490495	0.227496
N260	N	0.576307	0.429324	0.252152
H261	H	0.596590	0.457550	0.255015
N262	N	-0.241387	0.818396	0.056410
N263	N	-0.261156	0.818406	0.090613
H264	H	-0.245209	0.818409	0.118263
N265	N	0.094900	0.818395	0.094742
N266	N	0.075137	0.818392	0.128951
H267	H	0.091089	0.818389	0.156602
N268	N	0.691254	0.332197	-0.063357
N269	N	0.648202	0.367163	-0.088433
H270	H	0.643866	0.338944	-0.107260
N271	N	0.208959	0.818500	0.056395
N272	N	0.194851	0.892661	0.059184
H273	H	0.178877	0.892696	0.086815
N274	N	0.298437	0.818422	0.056421
N275	N	0.337952	0.818389	0.056423
H276	H	0.353933	0.818336	0.084079
H277	H	-0.122691	0.818407	0.086782
H278	H	0.439135	0.992339	-0.264616
N279	N	-0.037851	0.818412	0.094728
N280	N	-0.057619	0.818418	0.128932
H281	H	-0.041672	0.818426	0.156580
H282	H	0.439143	0.992359	-0.344886
H283	H	0.414527	1.088249	-0.497715
N284	N	0.533585	0.624628	-0.686513
N285	N	0.579700	0.560419	-0.671668
H286	H	0.597464	0.491237	-0.634391
N287	N	0.409418	1.108137	-0.588683
N288	N	0.363303	1.172324	-0.603514
H289	H	0.345529	1.241516	-0.640786
N290	N	0.434051	1.012285	-0.805995
N291	N	0.447206	1.076467	-0.830726
H292	H	0.429452	1.145645	-0.836095
N293	N	0.558224	0.528711	-0.320665
N294	N	0.580210	0.443120	-0.314045
H295	H	0.597987	0.373937	-0.276769
H296	H	0.528467	0.644439	-0.237660
H297	H	0.528466	0.644437	-0.157382
H298	H	0.414532	1.088265	-0.630455
H299	H	0.779978	0.269252	-0.006978
N300	N	0.409434	1.108124	-0.721438
N301	N	0.409442	1.108100	-0.760936
H302	H	0.391682	1.177258	-0.798222
H303	H	0.553100	0.548617	-0.544388
H304	H	0.553099	0.548610	-0.464125
