data_functionalizedCrystal
_audit_creation_method	'MofGen! by Chris Wilmer'
_symmetry_space_group_name_H-M	'P1'
_symmetry_Int_Tables_number	1
_symmetry_cell_setting	triclinic
loop_
_symmetry_equiv_pos_as_xyz
  x,y,z
_cell_length_a	18.101395
_cell_length_b	17.077404
_cell_length_c	17.077396
_cell_angle_alpha	90.019501
_cell_angle_beta	89.972533
_cell_angle_gamma	89.968671
loop_
_atom_site_label
_atom_site_type_symbol
_atom_site_fract_x
_atom_site_fract_y
_atom_site_fract_z
Zn1	Zn	-0.294825	-1.200010	-0.443848
Zn2	Zn	-0.418674	-1.199898	-0.312585
Zn3	Zn	-0.294851	-1.068742	-0.312596
Zn4	Zn	-0.418630	-1.068691	-0.443808
O5	O	-0.356745	-1.134335	-0.378209
O6	O	-0.311261	-1.309842	-0.426448
O7	O	-0.402278	-1.182474	-0.202739
O8	O	-0.191215	-1.086223	-0.330029
O9	O	-0.402253	-1.309760	-0.330009
O10	O	-0.191196	-1.182665	-0.426459
O11	O	-0.311306	-1.086114	-0.202748
O12	O	-0.311263	-0.958888	-0.329990
O13	O	-0.402178	-1.086136	-0.553660
O14	O	-0.402203	-0.958851	-0.426391
O15	O	-0.311219	-1.182616	-0.553690
O16	O	-0.522301	-1.182425	-0.329970
O17	O	-0.522269	-1.086028	-0.426379
C18	C	-0.356732	-0.930387	-0.378188
C19	C	-0.356744	-0.843137	-0.378197
C20	C	-0.549156	-1.134230	-0.378186
C21	C	-0.631470	-1.134257	-0.378203
C22	C	-0.356690	-1.134383	-0.582954
C23	C	-0.356667	-1.134403	-0.670203
C24	C	-0.930561	-1.134429	-0.378245
C25	C	-0.899246	-1.073919	-0.439054
C26	C	-0.813628	-1.073632	-0.438863
C27	C	-0.782178	-1.134344	-0.378225
C28	C	-0.813330	-1.111947	-0.295495
C29	C	-0.898975	-1.111557	-0.295859
C30	C	-0.898904	-1.217469	-0.399437
C31	C	-0.813253	-1.216980	-0.401252
C32	C	-0.698319	-1.134297	-0.378208
C33	C	-1.014420	-1.134474	-0.378256
C34	C	-0.163583	-1.134462	-0.378250
C35	C	-0.081269	-1.134516	-0.378267
C36	C	-0.356759	-1.339079	-0.378231
C37	C	-0.356765	-1.426329	-0.378241
C38	C	-0.404167	-0.802148	-0.428312
C39	C	-0.404169	-0.720168	-0.428325
C40	C	-0.356750	-0.679178	-0.378218
C41	C	-0.309321	-0.720173	-0.328100
C42	C	-0.309316	-0.802152	-0.328092
C43	C	-0.309336	-0.549303	-0.328119
C44	C	-0.309341	-0.467318	-0.328126
C45	C	-0.404188	-0.467319	-0.428352
C46	C	-0.404184	-0.549298	-0.428344
C47	C	-0.356755	-0.590287	-0.378225
C48	C	-0.309301	-1.184642	-0.711210
C49	C	-0.309276	-1.184651	-0.793191
C50	C	-0.356622	-1.134425	-0.834163
C51	C	-0.403990	-1.084181	-0.793150
C52	C	-0.404011	-1.084168	-0.711171
C53	C	-0.403946	-1.084212	-0.964021
C54	C	-0.403927	-1.084226	-1.046005
C55	C	-0.309211	-1.184695	-1.046040
C56	C	-0.309232	-1.184683	-0.964061
C57	C	-0.356601	-1.134439	-0.923054
C58	C	-0.356746	-1.134333	-0.174261
C59	C	-0.356561	-1.134465	-0.087012
H60	H	-0.792564	-1.087644	-0.500206
H61	H	-0.442478	-1.043326	-1.079363
Br62	Br	-0.244967	-0.604931	-0.260101
H63	H	-0.442508	-1.043287	-0.930635
H64	H	-0.442804	-0.433942	-0.469163
H65	H	-0.270695	-0.835524	-0.287287
Br66	Br	-0.933494	-1.097037	-0.541632
Br67	Br	-0.468242	-1.016011	-0.848755
H68	H	-0.270720	-0.433946	-0.287333
Br69	Br	-0.468531	-0.857770	-0.496313
Br70	Br	-0.935244	-0.971956	-0.415973
H71	H	-0.442787	-0.686798	-0.469133
Br72	Br	-0.468546	-0.604927	-0.496340
Br73	Br	-0.468291	-1.015979	-0.655518
Br74	Br	-0.244927	-1.252886	-1.101691
Br75	Br	-0.932669	-1.292613	-0.325633
H76	H	-0.919018	-1.050855	-0.277907
Br77	Br	-0.779581	-0.971041	-0.415472
H78	H	-0.270709	-0.686792	-0.287305
Br79	Br	-0.245048	-1.252815	-0.655613
Br80	Br	-0.245025	-1.252872	-0.848840
H81	H	-0.919692	-1.153718	-0.249007
Br82	Br	-0.779383	-1.183091	-0.217916
H83	H	-0.270683	-1.225585	-0.930704
H84	H	-0.791945	-1.051888	-0.277221
H85	H	-0.920452	-1.237888	-0.458736
Br86	Br	-0.779316	-1.245135	-0.502731
H87	H	-0.791840	-1.264448	-0.360190
