data_functionalizedCrystal
_audit_creation_method	'MofGen! by Chris Wilmer'
_symmetry_space_group_name_H-M	'P1'
_symmetry_Int_Tables_number	1
_symmetry_cell_setting	triclinic
loop_
_symmetry_equiv_pos_as_xyz
  x,y,z
_cell_length_a	16.109301
_cell_length_b	13.262508
_cell_length_c	14.586319
_cell_angle_alpha	105.914532
_cell_angle_beta	89.998857
_cell_angle_gamma	83.966726
loop_
_atom_site_label
_atom_site_type_symbol
_atom_site_fract_x
_atom_site_fract_y
_atom_site_fract_z
O1	O	1.103625	0.134910	-0.042547
O2	O	0.861625	0.151699	-0.038373
O3	O	0.988715	-0.009486	-0.078556
O4	O	0.976535	0.296095	-0.002364
O5	O	0.988706	-0.009489	0.073925
O6	O	0.861616	0.151696	0.114107
O7	O	1.103616	0.134908	0.109933
Cu8	Cu	0.982615	0.143302	0.125943
Cu9	Cu	0.982626	0.143305	-0.054383
O10	O	0.976526	0.296093	0.150116
C11	C	0.830643	0.151018	0.037696
C12	C	0.738340	0.148978	0.037183
C13	C	0.429668	0.237957	0.059384
C14	C	0.516395	0.239883	0.059859
C15	C	0.535568	0.048642	0.012164
C16	C	0.448842	0.046717	0.011683
C17	C	0.395894	0.141378	0.035298
C18	C	0.569347	0.145228	0.036254
C19	C	0.663381	0.147315	0.036769
C20	C	0.301854	0.139291	0.034782
C21	C	0.988028	-0.048590	-0.012067
C22	C	0.985986	-0.165105	-0.041124
C23	C	0.980206	-0.493558	0.209447
C24	C	0.982118	-0.384086	0.236749
C25	C	0.983086	-0.329335	0.167283
C26	C	0.982140	-0.384067	0.070510
C27	C	0.980221	-0.493549	0.043206
C28	C	0.983101	-0.329326	0.001042
C29	C	0.982155	-0.384059	-0.095730
C30	C	0.980237	-0.493530	-0.123030
C31	C	0.979270	-0.548280	-0.053564
C32	C	0.985020	-0.219845	0.028346
C33	C	0.985035	-0.219836	-0.137894
C34	C	0.983122	-0.329308	-0.165196
C35	C	1.134598	0.135589	0.033863
C36	C	1.226901	0.137628	0.034370
C37	C	0.977213	0.335197	0.083626
C38	C	0.979255	0.451711	0.112677
N39	N	0.982614	0.143299	0.252774
N40	N	0.982633	0.143299	-0.181216
C41	C	1.038908	0.071950	0.469994
C42	C	1.038910	0.071948	0.565974
C43	C	0.926333	0.214651	0.601559
C44	C	0.926328	0.214648	0.505579
C45	C	0.982620	0.143299	0.439799
C46	C	0.982628	0.143299	0.631760
C47	C	0.982630	0.143297	0.735826
C48	C	0.982617	0.143299	0.335725
H49	H	0.985782	-0.175291	0.107139
H50	H	1.084744	0.013848	0.590554
H51	H	0.982897	-0.339532	0.315540
H52	H	0.543889	0.318527	0.079471
H53	H	0.880503	0.272744	0.655126
O54	O	0.979119	-0.546674	0.276955
C55	C	0.906602	-0.568244	0.413675
C56	C	0.907722	-0.508023	0.337257
H57	H	0.848893	-0.537003	0.462461
H58	H	0.905012	-0.655892	0.377583
H59	H	0.965116	-0.556373	0.457595
H60	H	0.849219	-0.519808	0.293312
H61	H	0.909355	-0.420397	0.373408
O62	O	0.378353	0.330003	0.082297
C63	C	0.368494	0.519891	0.129698
C64	C	0.426700	0.415724	0.103751
H65	H	0.407560	0.589223	0.147070
H66	H	0.327430	0.523846	0.066855
H67	H	0.327393	0.523712	0.194448
H68	H	0.467854	0.411833	0.039027
H69	H	0.467708	0.411812	0.166647
H70	H	0.984641	-0.240198	0.189518
H71	H	0.421344	-0.031933	-0.007935
O72	O	0.871680	0.283863	0.476076
C73	C	0.821823	0.347144	0.343990
C74	C	0.883739	0.268691	0.377270
H75	H	0.831562	0.334919	0.264107
H76	H	0.755168	0.333449	0.359381
H77	H	0.832940	0.431204	0.383869
H78	H	0.872698	0.184601	0.337412
H79	H	0.950372	0.282478	0.361897
H80	H	0.578688	-0.028427	-0.007061
H81	H	0.977717	-0.637422	-0.075788
O82	O	0.979367	-0.546544	-0.217076
C83	C	0.979571	-0.534976	-0.379082
C84	C	0.980567	-0.474812	-0.272610
H85	H	0.980522	-0.477005	-0.424010
H86	H	1.036808	-0.595819	-0.398452
H87	H	0.920578	-0.576647	-0.393600
H88	H	1.039522	-0.433078	-0.258014
H89	H	0.923290	-0.414029	-0.253293
O90	O	0.982214	-0.382319	-0.259240
C91	C	0.982324	-0.370749	-0.421245
C92	C	0.983390	-0.310590	-0.314778
H93	H	0.983257	-0.312779	-0.466178
H94	H	1.039544	-0.431614	-0.440659
H95	H	0.923315	-0.412393	-0.435713
H96	H	1.042360	-0.268882	-0.300233
H97	H	0.926130	-0.249784	-0.295418
O98	O	0.985826	-0.166549	-0.205307
C99	C	0.915937	-0.031131	-0.268038
C100	C	0.914979	-0.091375	-0.191624
H101	H	0.858655	0.029645	-0.257013
H102	H	0.974895	0.010603	-0.261855
H103	H	0.914947	-0.089105	-0.341868
H104	H	0.915939	-0.033472	-0.117759
H105	H	0.856026	-0.133126	-0.197891
H106	H	1.084743	0.013852	0.416436
