data_functionalizedCrystal
_audit_creation_method	'MofGen! by Chris Wilmer'
_symmetry_space_group_name_H-M	'P1'
_symmetry_Int_Tables_number	1
_symmetry_cell_setting	triclinic
loop_
_symmetry_equiv_pos_as_xyz
  x,y,z
_cell_length_a	13.032831
_cell_length_b	13.033399
_cell_length_c	13.032268
_cell_angle_alpha	76.697509
_cell_angle_beta	90.886977
_cell_angle_gamma	89.113577
loop_
_atom_site_label
_atom_site_type_symbol
_atom_site_fract_x
_atom_site_fract_y
_atom_site_fract_z
Zn1	Zn	-1.399627	-0.702881	0.857650
Zn2	Zn	-1.399561	-0.857948	0.702617
Zn3	Zn	-1.255600	-0.659403	0.659139
Zn4	Zn	-1.206601	-0.852321	0.852127
O5	O	-1.315347	-0.768138	0.767883
O6	O	-1.540649	-0.744002	0.857591
O7	O	-1.400943	-0.815770	0.551201
O8	O	-1.295240	-0.519537	0.669588
O9	O	-1.540600	-0.857929	0.743689
O10	O	-1.401056	-0.551480	0.815433
O11	O	-1.295176	-0.669899	0.519259
O12	O	-1.108070	-0.664443	0.664233
O13	O	-1.211727	-0.848338	0.998508
O14	O	-1.072070	-0.806179	0.806020
O15	O	-1.353543	-0.738545	1.002565
O16	O	-1.353430	-1.002835	0.738334
O17	O	-1.211663	-0.998701	0.848178
C18	C	-1.053502	-0.729983	0.729810
C19	C	-0.941477	-0.713688	0.713549
C20	C	-1.277246	-1.038536	0.797401
C21	C	-1.261034	-1.154230	0.810077
C22	C	-1.277177	-0.797664	1.039357
C23	C	-1.260911	-0.810246	1.155043
C24	C	-1.578215	-0.806443	0.806106
C25	C	-1.690233	-0.822766	0.822394
C26	C	-0.873747	-0.776643	0.776370
C27	C	-0.757962	-0.759803	0.759565
C28	C	-1.353621	-0.496691	0.738277
C29	C	-1.369931	-0.381017	0.725661
C30	C	-1.307059	-0.327400	0.774385
C31	C	-1.323915	-0.207844	0.761346
C32	C	-1.353438	-0.738661	0.497466
C33	C	-1.369941	-0.725814	0.381777
C34	C	-1.323826	-0.761532	1.208627
C35	C	-1.307016	-0.774535	1.328195
H36	H	-0.901480	-0.843005	0.842597
H37	H	-0.730235	-0.693429	0.693341
H38	H	-1.194595	-0.861570	1.197685
O39	O	-0.908533	-0.634564	0.634415
C40	C	-0.945561	-0.649586	0.536805
H41	H	-1.016715	-0.700395	0.549976
H42	H	-0.883729	-0.690661	0.498961
C43	C	-0.886025	-0.479469	0.447335
C44	C	-0.973422	-0.541866	0.463511
H45	H	-0.903207	-0.413023	0.402121
H46	H	-0.861074	-0.469349	0.513096
H47	H	-0.834506	-0.513710	0.415803
H48	H	-1.024934	-0.507631	0.495054
H49	H	-0.998382	-0.551978	0.397753
H50	H	-1.390133	-0.710195	1.165982
H51	H	-1.240696	-0.825863	1.370833
H52	H	-1.436241	-0.338412	0.674298
H53	H	-0.717959	-0.889131	0.888629
H54	H	-1.436250	-0.674471	1.339137
H55	H	-1.240757	-0.370008	0.825756
H56	H	-1.194727	-0.196833	0.861453
O57	O	-1.402902	-0.156949	0.699922
C58	C	-1.363777	-0.078380	0.617564
H59	H	-1.280711	-0.098938	0.603149
H60	H	-1.367308	0.000966	0.640327
C61	C	-1.530503	-0.046719	0.534032
C62	C	-1.428482	-0.071973	0.516321
H63	H	-1.570417	-0.042763	0.471581
H64	H	-1.556863	-0.099649	0.589520
H65	H	-1.533430	0.019400	0.553003
H66	H	-1.425554	-0.138097	0.497363
H67	H	-1.402122	-0.019054	0.460827
