data_functionalizedCrystal
_audit_creation_method	'MofGen! by Chris Wilmer'
_symmetry_space_group_name_H-M	'P1'
_symmetry_Int_Tables_number	1
_symmetry_cell_setting	triclinic
loop_
_symmetry_equiv_pos_as_xyz
  x,y,z
_cell_length_a	18.050591
_cell_length_b	18.050590
_cell_length_c	19.076919
_cell_angle_alpha	87.729485
_cell_angle_beta	87.714625
_cell_angle_gamma	90.017393
loop_
_atom_site_label
_atom_site_type_symbol
_atom_site_fract_x
_atom_site_fract_y
_atom_site_fract_z
Zn1	Zn	1.118492	-0.312564	0.397865
Zn2	Zn	1.123409	-0.431768	0.280168
Zn3	Zn	0.999295	-0.307594	0.280192
Zn4	Zn	0.994282	-0.436713	0.397833
O5	O	1.058869	-0.372160	0.339015
O6	O	1.223069	-0.328387	0.382255
O7	O	1.111100	-0.411146	0.181682
O8	O	1.015148	-0.204330	0.295825
O9	O	1.226681	-0.415965	0.295784
O10	O	1.102721	-0.207982	0.382279
O11	O	1.019915	-0.319917	0.181700
O12	O	0.894706	-0.324712	0.295794
O13	O	1.006603	-0.424394	0.496326
O14	O	0.891022	-0.419575	0.382224
O15	O	1.097860	-0.333183	0.496350
O16	O	1.106239	-0.536347	0.295753
O17	O	1.011370	-0.539981	0.382201
C18	C	0.865918	-0.372142	0.339009
C19	C	0.783371	-0.372152	0.339023
C20	C	0.532567	-0.423839	0.385960
C21	C	0.584661	-0.439191	0.321719
C22	C	0.486251	-0.372176	0.339022
C23	C	0.581239	-0.356846	0.403259
C24	C	0.632236	-0.372166	0.339026
C25	C	0.537259	-0.387562	0.274747
C26	C	0.533831	-0.305187	0.356331
C27	C	0.585904	-0.320512	0.292046
C28	C	0.402153	-0.372183	0.339020
C29	C	0.716333	-0.372158	0.339020
C30	C	1.058814	-0.565111	0.338986
C31	C	1.058857	-0.647657	0.338998
C32	C	1.110547	-0.845108	0.292053
C33	C	1.125962	-0.897165	0.356287
C34	C	1.058898	-0.798789	0.339026
C35	C	1.043557	-0.893815	0.274821
C36	C	1.058939	-0.944775	0.339048
C37	C	1.074346	-0.849760	0.403294
C38	C	0.991911	-0.846404	0.321784
C39	C	1.007299	-0.898440	0.386062
C40	C	1.058876	-0.714690	0.339013
C41	C	1.058960	-1.028872	0.339068
C42	C	1.252575	-0.372179	0.339021
C43	C	1.335120	-0.372187	0.339023
C44	C	1.051124	-0.379895	0.522589
C45	C	1.047823	-0.383191	0.600818
C46	C	1.058945	-0.178456	0.339058
C47	C	1.058977	-0.095911	0.339077
C48	C	1.066628	-0.364402	0.156154
C49	C	1.070072	-0.360897	0.077926
C50	C	1.093783	-0.337252	0.637583
C51	C	1.090672	-0.340346	0.711087
C52	C	1.041606	-0.389383	0.747825
C53	C	0.995641	-0.435323	0.711054
C54	C	0.998748	-0.432225	0.637551
C55	C	1.027215	-0.403738	0.967653
C56	C	1.024113	-0.406835	1.041161
C57	C	1.119143	-0.311857	1.041189
C58	C	1.122249	-0.308766	0.967684
C59	C	1.076282	-0.354703	0.930920
N60	N	1.038427	-0.392549	0.822958
N61	N	1.079458	-0.351533	0.855789
H62	H	1.154237	-0.821757	0.252371
H63	H	1.182628	-0.919440	0.370884
H64	H	1.087280	-0.830413	0.457647
C65	C	1.159408	-0.182055	0.945119
C66	C	1.176179	-0.254844	0.927320
H67	H	1.192701	-0.148764	0.920201
H68	H	1.164128	-0.177344	0.994153
H69	H	1.110022	-0.170688	0.933062
H70	H	1.225563	-0.266213	0.939382
H71	H	1.171465	-0.259558	0.878275
C72	C	1.140742	-0.290327	0.524923
C73	C	1.147717	-0.283347	0.597204
H74	H	1.174041	-0.257048	0.499998
H75	H	1.091363	-0.278947	0.512880
H76	H	1.152105	-0.339719	0.512872
H77	H	1.136348	-0.233956	0.609256
H78	H	1.197108	-0.294722	0.609252
H79	H	0.961316	-0.469625	0.607618
C80	C	1.025566	-0.997664	0.202464
C81	C	1.026013	-0.920059	0.201511
H82	H	1.014744	-1.013863	0.157203
H83	H	0.988840	-1.015966	0.235779
H84	H	1.072816	-1.015793	0.215044
H85	H	0.978760	-0.901930	0.188935
H86	H	1.062741	-0.901749	0.168185
C87	C	0.525740	-0.212805	0.443447
C88	C	0.503687	-0.228743	0.376124
H89	H	0.507125	-0.165614	0.455673
H90	H	0.578331	-0.212372	0.444012
H91	H	0.506709	-0.249618	0.476316
H92	H	0.522724	-0.191933	0.343254
H93	H	0.451086	-0.229170	0.375553
C94	C	0.986912	-0.533537	1.063767
C95	C	0.970171	-0.460735	1.081547
H96	H	0.953610	-0.566809	1.088699
H97	H	1.036290	-0.544917	1.075813
H98	H	0.982175	-0.538260	1.014730
H99	H	0.974914	-0.456010	1.130584
H100	H	0.920781	-0.449351	1.069506
H101	H	0.963637	-0.921657	0.425841
H102	H	1.156566	-0.274456	1.071130
C103	C	0.467803	-0.469615	0.206084
C104	C	0.511193	-0.405160	0.201390
H105	H	0.451715	-0.480482	0.160797
H106	H	0.425894	-0.462285	0.236715
H107	H	0.496379	-0.509793	0.223912
H108	H	0.482615	-0.364980	0.183567
H109	H	0.553108	-0.412485	0.170748
C110	C	1.184927	-0.246166	0.703732
C111	C	1.141198	-0.289854	0.751499
H112	H	1.216124	-0.214997	0.728682
H113	H	1.153797	-0.216546	0.675068
H114	H	1.214528	-0.277329	0.675057
H115	H	1.111593	-0.258691	0.780171
H116	H	1.172332	-0.319477	0.780175
C117	C	0.595021	-0.277755	0.171214
C118	C	0.617261	-0.261527	0.238405
H119	H	0.614386	-0.241345	0.138098
H120	H	0.542428	-0.277711	0.170656
H121	H	0.613179	-0.325212	0.159317
H122	H	0.599098	-0.214072	0.250304
H123	H	0.669865	-0.261563	0.238965
H124	H	0.600648	-0.343884	0.457583
H125	H	0.935263	-0.824112	0.307168
H126	H	0.989796	-0.441155	0.937728
H127	H	0.955687	-0.475247	0.740972
H128	H	0.509215	-0.467562	0.425602
H129	H	0.606964	-0.495838	0.307075
