data_functionalizedCrystal
_audit_creation_method	'MofGen! by Chris Wilmer'
_symmetry_space_group_name_H-M	'P1'
_symmetry_Int_Tables_number	1
_symmetry_cell_setting	triclinic
loop_
_symmetry_equiv_pos_as_xyz
  x,y,z
_cell_length_a	17.699083
_cell_length_b	16.176319
_cell_length_c	17.699083
_cell_angle_alpha	90.007696
_cell_angle_beta	83.283015
_cell_angle_gamma	90.001389
loop_
_atom_site_label
_atom_site_type_symbol
_atom_site_fract_x
_atom_site_fract_y
_atom_site_fract_z
O1	O	-1.004079	-0.068632	-0.095713
O2	O	-0.670745	0.264701	0.237620
O3	O	-0.337412	0.598034	0.570954
O4	O	-0.783700	-0.068660	-0.108166
O5	O	-0.450367	0.264674	0.225168
O6	O	-0.117034	0.598007	0.558501
O7	O	-0.900116	-0.068638	0.008250
O8	O	-0.566782	0.264695	0.341583
O9	O	-0.233449	0.598029	0.674917
O10	O	-0.887663	-0.068654	-0.212129
O11	O	-0.554330	0.264679	0.121205
O12	O	-0.220997	0.598013	0.454538
O13	O	-0.900100	0.068855	0.008257
O14	O	-0.566766	0.402189	0.341591
O15	O	-0.233433	0.735522	0.674924
O16	O	-0.783684	0.068834	-0.108158
O17	O	-0.450351	0.402167	0.225175
O18	O	-0.117018	0.735500	0.558508
O19	O	-1.004063	0.068861	-0.095706
O20	O	-0.670729	0.402194	0.237628
O21	O	-0.337396	0.735528	0.570961
Cu22	Cu	-0.893872	0.081401	-0.101931
Cu23	Cu	-0.560539	0.414735	0.231402
Cu24	Cu	-0.227205	0.748068	0.564735
Cu25	Cu	-0.893891	-0.081200	-0.101940
Cu26	Cu	-0.560558	0.252133	0.231393
Cu27	Cu	-0.227224	0.585467	0.564727
O28	O	-0.887647	0.068839	-0.212121
O29	O	-0.554314	0.402173	0.121212
O30	O	-0.220981	0.735506	0.454546
C31	C	-0.755495	0.000084	-0.107716
C32	C	-0.422162	0.333417	0.225618
C33	C	-0.088829	0.666750	0.558951
C34	C	-0.671477	0.000073	-0.106377
C35	C	-0.338144	0.333407	0.226956
C36	C	-0.004811	0.666740	0.560290
N37	N	-0.893864	0.195767	-0.101925
N38	N	-0.560531	0.529100	0.231409
N39	N	-0.227198	0.862433	0.564742
N40	N	-0.893905	-0.195565	-0.101941
N41	N	-0.560571	0.137768	0.231393
N42	N	-0.227238	0.471101	0.564726
C43	C	-1.032268	0.000116	-0.096156
C44	C	-0.698934	0.333449	0.237178
C45	C	-0.365601	0.666783	0.570511
C46	C	-1.116286	0.000121	-0.097494
C47	C	-0.782953	0.333454	0.235839
C48	C	-0.449619	0.666787	0.569172
C49	C	-0.622856	0.000069	-0.174710
C50	C	-0.289523	0.333402	0.158623
C51	C	0.043810	0.666735	0.491956
C52	C	-0.543913	0.000079	-0.173448
C53	C	-0.210580	0.333413	0.159885
C54	C	0.122754	0.666746	0.493218
C55	C	-0.513592	0.000089	-0.103852
C56	C	-0.180259	0.333422	0.229482
C57	C	0.153074	0.666756	0.562815
C58	C	-0.562219	0.000096	-0.035513
C59	C	-0.228886	0.333430	0.297820
C60	C	0.104447	0.666763	0.631154
C61	C	-0.641161	0.000091	-0.036776
C62	C	-0.307828	0.333425	0.296557
C63	C	0.025505	0.666758	0.629891
C64	C	-0.243856	0.000117	-0.030418
C65	C	0.089477	0.333450	0.302915
C66	C	0.422810	0.666784	0.636249
C67	C	-0.164908	0.000120	-0.029160
C68	C	0.168425	0.333453	0.304173
C69	C	0.501758	0.666786	0.637507
C70	C	-0.146608	0.000105	-0.167090
C71	C	0.186725	0.333438	0.166243
C72	C	0.520058	0.666772	0.499577
C73	C	-0.225550	0.000100	-0.168353
C74	C	0.107783	0.333434	0.164980
C75	C	0.441117	0.666767	0.498314
C76	C	-0.274170	0.000112	-0.100015
C77	C	0.059163	0.333445	0.233319
C78	C	0.392496	0.666778	0.566652
C79	C	-0.359769	0.000102	-0.101384
C80	C	-0.026436	0.333435	0.231949
C81	C	0.306897	0.666768	0.565282
C82	C	-0.427995	0.000093	-0.102481
C83	C	-0.094661	0.333427	0.230852
C84	C	0.238672	0.666760	0.564185
C85	C	-0.899662	0.000109	0.036451
C86	C	-0.566328	0.333442	0.369784
C87	C	-0.232995	0.666775	0.703117
C88	C	-0.898323	0.000109	0.120469
C89	C	-0.564990	0.333442	0.453802
C90	C	-0.231656	0.666776	0.787135
C91	C	-0.945429	0.239040	-0.050397
C92	C	-0.612095	0.572374	0.282936
C93	C	-0.278762	0.905707	0.616270
C94	C	-0.945432	0.325588	-0.050396
C95	C	-0.612099	0.658921	0.282937
C96	C	-0.278766	0.992254	0.616271
C97	C	-0.893875	0.368859	-0.101927
C98	C	-0.560542	0.702193	0.231406
C99	C	-0.227208	1.035526	0.564739
C100	C	-0.842305	0.325579	-0.153457
C101	C	-0.508972	0.658913	0.179876
C102	C	-0.175639	0.992246	0.513209
C103	C	-0.842299	0.239034	-0.153454
C104	C	-0.508965	0.572367	0.179879
C105	C	-0.175632	0.905701	0.513213
C106	C	-0.842331	0.674608	-0.153472
C107	C	-0.508998	1.007941	0.179862
C108	C	-0.175665	1.341274	0.513195
C109	C	-0.842344	0.761159	-0.153473
C110	C	-0.509010	1.094493	0.179861
C111	C	-0.175677	1.427826	0.513194
C112	C	-0.945465	0.761161	-0.050414
C113	C	-0.612132	1.094495	0.282920
C114	C	-0.278799	1.427828	0.616253
C115	C	-0.945458	0.674616	-0.050410
C116	C	-0.612125	1.007949	0.282923
C117	C	-0.278792	1.341283	0.616256
C118	C	-0.893886	0.631344	-0.101937
C119	C	-0.560553	0.964677	0.231396
C120	C	-0.227220	1.298010	0.564729
C121	C	-0.893882	0.537499	-0.101937
C122	C	-0.560548	0.870833	0.231397
C123	C	-0.227215	1.204166	0.564730
C124	C	-0.893883	0.462702	-0.101932
C125	C	-0.560549	0.796035	0.231401
C126	C	-0.227216	1.129369	0.564735
C127	C	-0.888102	0.000091	-0.240322
C128	C	-0.554768	0.333424	0.093011
C129	C	-0.221435	0.666757	0.426345
C130	C	-0.889440	0.000085	-0.324340
C131	C	-0.556107	0.333418	0.008993
C132	C	-0.222773	0.666752	0.342327
C133	C	-0.966656	0.000119	0.169090
C134	C	-0.633323	0.333452	0.502423
C135	C	-0.299990	0.666785	0.835756
C136	C	-0.965394	0.000111	0.248033
C137	C	-0.632061	0.333444	0.581366
C138	C	-0.298727	0.666778	0.914700
C139	C	-0.895798	0.000100	0.278354
C140	C	-0.562464	0.333433	0.611687
C141	C	-0.229131	0.666767	0.945020
C142	C	-0.827459	0.000088	0.229727
C143	C	-0.494126	0.333421	0.563060
C144	C	-0.160792	0.666754	0.896393
C145	C	-0.828722	0.000089	0.150785
C146	C	-0.495389	0.333423	0.484118
C147	C	-0.162055	0.666756	0.817451
C148	C	-0.822364	0.000080	0.548090
C149	C	-0.489030	0.333414	0.881423
C150	C	-0.155697	0.666747	1.214756
C151	C	-0.821106	0.000081	0.627038
C152	C	-0.487773	0.333415	0.960371
C153	C	-0.154439	0.666748	1.293704
C154	C	-0.959036	0.000102	0.645338
C155	C	-0.625703	0.333436	0.978671
C156	C	-0.292369	0.666769	1.312004
C157	C	-0.960299	0.000104	0.566396
C158	C	-0.626966	0.333437	0.899729
C159	C	-0.293632	0.666770	1.233063
C160	C	-0.891961	0.000087	0.517776
C161	C	-0.558627	0.333421	0.851109
C162	C	-0.225294	0.666754	1.184442
C163	C	-0.893330	0.000094	0.432177
C164	C	-0.559997	0.333427	0.765510
C165	C	-0.226664	0.666760	1.098843
C166	C	-0.894427	0.000099	0.363951
C167	C	-0.561094	0.333433	0.697285
C168	C	-0.227761	0.666766	1.030618
H169	H	-0.647537	0.000060	-0.231384
H170	H	-0.314204	0.333394	0.101949
H171	H	0.019130	0.666727	0.435283
Br172	Br	-0.733005	0.000059	0.270875
Br173	Br	-0.399672	0.333392	0.604208
Br174	Br	-0.066339	0.666725	0.937542
Br175	Br	-0.772369	0.819886	-0.223413
Br176	Br	-0.439036	1.153219	0.109920
Br177	Br	-0.105702	1.486552	0.443254
H178	H	-0.504328	0.000075	-0.229092
H179	H	-0.170995	0.333408	0.104241
H180	H	0.162338	0.666741	0.437574
Br181	Br	-0.266696	0.000079	-0.262808
Br182	Br	0.066638	0.333413	0.070525
Br183	Br	0.399971	0.666746	0.403858
Br184	Br	-1.015409	0.180324	0.019537
Br185	Br	-0.682076	0.513657	0.352870
Br186	Br	-0.348742	0.846990	0.686204
H187	H	-0.800309	0.203801	-0.195412
H188	H	-0.466975	0.537134	0.137921
H189	H	-0.133642	0.870468	0.471254
Br190	Br	-1.061114	0.000146	0.127948
Br191	Br	-0.727781	0.333479	0.461282
Br192	Br	-0.394447	0.666812	0.794615
Br193	Br	-1.015411	0.384319	0.019538
Br194	Br	-0.682077	0.717653	0.352871
Br195	Br	-0.348744	1.050986	0.686205
H196	H	-0.800341	0.639382	-0.195428
H197	H	-0.467008	0.972715	0.137905
H198	H	-0.133674	1.306049	0.471239
Br199	Br	-1.015435	0.615892	0.019522
Br200	Br	-0.682101	0.949226	0.352856
Br201	Br	-0.348768	1.282559	0.686189
H202	H	-0.987456	0.796403	-0.008455
H203	H	-0.654122	1.129736	0.324878
H204	H	-0.320789	1.463070	0.658212
Br205	Br	-1.058137	0.000124	0.314016
Br206	Br	-0.724803	0.333457	0.647350
Br207	Br	-0.391470	0.666791	0.980683
Br208	Br	-0.729619	0.000053	0.482115
Br209	Br	-0.396285	0.333386	0.815448
Br210	Br	-0.062952	0.666720	1.148781
H211	H	-0.107012	0.000100	-0.222734
H212	H	0.226322	0.333433	0.110599
H213	H	0.559655	0.666767	0.443933
Br214	Br	-1.054754	0.000118	0.525250
Br215	Br	-0.721421	0.333452	0.858584
Br216	Br	-0.388088	0.666785	1.191917
H217	H	-0.764429	0.000074	0.651721
H218	H	-0.431096	0.333407	0.985054
H219	H	-0.097762	0.666741	1.318388
Br220	Br	-1.051783	0.000124	0.711327
Br221	Br	-0.718449	0.333458	1.044660
Br222	Br	-0.385116	0.666791	1.377993
Br223	Br	-0.772327	0.384302	-0.223389
Br224	Br	-0.438994	0.717635	0.109944
Br225	Br	-0.105660	1.050969	0.443278
H226	H	-0.773078	0.000081	0.111198
H227	H	-0.439745	0.333415	0.444531
H228	H	-0.106411	0.666748	0.777864
H229	H	-0.140225	0.000128	0.027517
H230	H	0.193108	0.333462	0.360850
H231	H	0.526442	0.666795	0.694184
H232	H	-0.283434	0.000127	0.025228
H233	H	0.049899	0.333461	0.358561
H234	H	0.383233	0.666794	0.691894
Br235	Br	-0.707148	0.000105	0.055966
Br236	Br	-0.373815	0.333438	0.389299
Br237	Br	-0.040482	0.666772	0.722632
Br238	Br	-0.521071	0.000118	0.058941
Br239	Br	-0.187738	0.333451	0.392274
Br240	Br	0.145596	0.666784	0.725607
