data_functionalizedCrystal
_audit_creation_method	'MofGen! by Chris Wilmer'
_symmetry_space_group_name_H-M	'P1'
_symmetry_Int_Tables_number	1
_symmetry_cell_setting	triclinic
loop_
_symmetry_equiv_pos_as_xyz
  x,y,z
_cell_length_a	29.839134
_cell_length_b	29.839131
_cell_length_c	19.805398
_cell_angle_alpha	89.969409
_cell_angle_beta	89.987884
_cell_angle_gamma	90.021992
loop_
_atom_site_label
_atom_site_type_symbol
_atom_site_fract_x
_atom_site_fract_y
_atom_site_fract_z
Zn1	Zn	0.686719	-0.179092	-0.382692
Zn2	Zn	1.186719	0.320908	0.117308
Zn3	Zn	0.686651	-0.254221	-0.269500
Zn4	Zn	1.186651	0.245779	0.230500
Zn5	Zn	0.611602	-0.179080	-0.269519
Zn6	Zn	1.111602	0.320920	0.230481
Zn7	Zn	0.611550	-0.254170	-0.382649
Zn8	Zn	1.111550	0.245830	0.117351
O9	O	0.649131	-0.216641	-0.326090
O10	O	1.149131	0.283359	0.173910
O11	O	0.749577	-0.189084	-0.367687
O12	O	1.249577	0.310916	0.132313
O13	O	0.676690	-0.244270	-0.174786
O14	O	1.176690	0.255730	0.325214
O15	O	0.621617	-0.116215	-0.284557
O16	O	1.121617	0.383785	0.215443
O17	O	0.749528	-0.244281	-0.284525
O18	O	1.249528	0.255719	0.215475
O19	O	0.676805	-0.116223	-0.367705
O20	O	1.176805	0.383777	0.132295
O21	O	0.621551	-0.189064	-0.174799
O22	O	1.121551	0.310936	0.325201
O23	O	0.548728	-0.189015	-0.284515
O24	O	1.048728	0.310985	0.215485
O25	O	0.621528	-0.244195	-0.477371
O26	O	1.121528	0.255805	0.022629
O27	O	0.548690	-0.244183	-0.367631
O28	O	1.048690	0.255817	0.132369
O29	O	0.676754	-0.189035	-0.477403
O30	O	1.176754	0.310965	0.022597
O31	O	0.676639	-0.317081	-0.284483
O32	O	1.176639	0.182919	0.215517
O33	O	0.621462	-0.317044	-0.367613
O34	O	1.121462	0.182956	0.132387
C35	C	0.532408	-0.216593	-0.326071
C36	C	1.032408	0.283407	0.173929
C37	C	0.482474	-0.216583	-0.326079
C38	C	0.982474	0.283417	0.173921
C39	C	0.649049	-0.333364	-0.326056
C40	C	1.149049	0.166636	0.173944
C41	C	0.649056	-0.383298	-0.326064
C42	C	1.149056	0.116702	0.173936
C43	C	0.125908	-0.187960	-0.369477
C44	C	0.625908	0.312040	0.130523
C45	C	0.313581	-0.187924	-0.369462
C46	C	0.813581	0.312076	0.130538
O47	O	0.337864	-0.163530	-0.406357
O48	O	0.837864	0.336470	0.093643
N49	N	0.337028	-0.216612	-0.326095
N50	N	0.837028	0.283388	0.173905
C51	C	0.313555	-0.245314	-0.282732
C52	C	0.813555	0.254686	0.217268
O53	O	0.337804	-0.269718	-0.245851
O54	O	0.837804	0.230282	0.254149
C55	C	0.125882	-0.245352	-0.282752
C56	C	0.625882	0.254648	0.217248
C57	C	0.102438	-0.216659	-0.326116
C58	C	0.602438	0.283341	0.173884
C59	C	0.102463	-0.159269	-0.412839
C60	C	0.602463	0.340731	0.087161
C61	C	0.055548	-0.159276	-0.412840
C62	C	0.555548	0.340724	0.087160
C63	C	0.032077	-0.187975	-0.369479
C64	C	0.532077	0.312025	0.130521
C65	C	0.055522	-0.216666	-0.326117
C66	C	0.555522	0.283334	0.173883
C67	C	0.102409	-0.274056	-0.239393
C68	C	0.602409	0.225944	0.260607
C69	C	0.055488	-0.274064	-0.239403
C70	C	0.555488	0.225936	0.260597
C71	C	0.032043	-0.245370	-0.282767
C72	C	0.532043	0.254630	0.217233
C73	C	-0.014864	-0.245372	-0.282757
C74	C	0.485136	0.254628	0.217243
N75	N	-0.038311	-0.216684	-0.326124
N76	N	0.461689	0.283316	0.173876
C77	C	-0.014841	-0.187985	-0.369485
C78	C	0.485159	0.312015	0.130515
C79	C	0.412085	-0.245292	-0.282724
C80	C	0.912085	0.254708	0.217276
C81	C	0.459003	-0.245282	-0.282718
C82	C	0.959003	0.254718	0.217282
C83	C	0.459027	-0.187892	-0.369449
C84	C	0.959027	0.312108	0.130551
C85	C	0.412108	-0.187900	-0.369451
C86	C	0.912108	0.312100	0.130549
C87	C	0.388638	-0.216603	-0.326091
C88	C	0.888638	0.283397	0.173909
C89	C	-0.113366	-0.188003	-0.369483
C90	C	0.386634	0.311997	0.130517
C91	C	-0.160286	-0.188012	-0.369478
C92	C	0.339714	0.311988	0.130522
C93	C	-0.160305	-0.245403	-0.282750
C94	C	0.339695	0.254597	0.217250
C95	C	-0.113390	-0.245393	-0.282752
C96	C	0.386610	0.254607	0.217248
C97	C	-0.089922	-0.216691	-0.326124
C98	C	0.410078	0.283309	0.173876
O99	O	-0.039176	-0.269757	-0.245886
O100	O	0.460824	0.230243	0.254114
O101	O	-0.039098	-0.163592	-0.406371
O102	O	0.460902	0.336408	0.093629
C103	C	0.172824	-0.187952	-0.369476
C104	C	0.672824	0.312048	0.130524
C105	C	0.196268	-0.216643	-0.326115
C106	C	0.696268	0.283357	0.173885
C107	C	0.172798	-0.245342	-0.282754
C108	C	0.672798	0.254658	0.217246
C109	C	0.243186	-0.216633	-0.326109
C110	C	0.743186	0.283367	0.173891
C111	C	0.266657	-0.187935	-0.369470
C112	C	0.766657	0.312065	0.130530
C113	C	0.243210	-0.159246	-0.412836
C114	C	0.743210	0.340754	0.087164
C115	C	0.196294	-0.159253	-0.412837
C116	C	0.696294	0.340747	0.087163
C117	C	0.196245	-0.274031	-0.239387
C118	C	0.696245	0.225969	0.260613
C119	C	0.243160	-0.274021	-0.239389
C120	C	0.743160	0.225979	0.260611
C121	C	0.266631	-0.245322	-0.282750
C122	C	0.766631	0.254678	0.217250
C123	C	0.677913	-0.692948	-0.282867
C124	C	1.177913	-0.192948	0.217133
C125	C	0.677969	-0.880621	-0.282893
C126	C	1.177969	-0.380621	0.217107
O127	O	0.702440	-0.904892	-0.246140
O128	O	1.202440	-0.404892	0.253860
N129	N	0.649224	-0.904083	-0.326141
N130	N	1.149224	-0.404083	0.173859
C131	C	0.620465	-0.880624	-0.369388
C132	C	1.120465	-0.380624	0.130612
O133	O	0.596020	-0.904886	-0.406178
O134	O	1.096020	-0.404886	0.093822
C135	C	0.620412	-0.692952	-0.369364
C136	C	1.120412	-0.192952	0.130636
C137	C	0.649156	-0.669492	-0.326109
C138	C	1.149156	-0.169492	0.173891
C139	C	0.706655	-0.669489	-0.239616
C140	C	1.206655	-0.169489	0.260384
C141	C	0.706639	-0.622573	-0.239608
C142	C	1.206639	-0.122573	0.260392
C143	C	0.677882	-0.599117	-0.282850
C144	C	1.177882	-0.099117	0.217150
C145	C	0.649140	-0.622577	-0.326101
C146	C	1.149140	-0.122577	0.173899
C147	C	0.591656	-0.669493	-0.412614
C148	C	1.091656	-0.169493	0.087386
C149	C	0.591646	-0.622572	-0.412606
C150	C	1.091646	-0.122572	0.087394
C151	C	0.620390	-0.599113	-0.369351
C152	C	1.120390	-0.099113	0.130649
C153	C	0.620366	-0.552205	-0.369334
C154	C	1.120366	-0.052205	0.130666
N155	N	0.649111	-0.528743	-0.326087
N156	N	1.149111	-0.028743	0.173913
C157	C	0.677869	-0.552199	-0.282845
C158	C	1.177869	-0.052199	0.217155
C159	C	0.620494	-0.979154	-0.369396
C160	C	1.120494	-0.479154	0.130604
C161	C	0.620507	-1.026072	-0.369401
C162	C	1.120507	-0.526072	0.130599
C163	C	0.678011	-1.026066	-0.282908
C164	C	1.178011	-0.526066	0.217092
C165	C	0.677996	-0.979148	-0.282900
C166	C	1.177996	-0.479148	0.217100
C167	C	0.649239	-0.955692	-0.326149
C168	C	1.149239	-0.455692	0.173851
C169	C	0.677833	-0.453673	-0.282829
C170	C	1.177833	0.046327	0.217171
C171	C	0.677814	-0.406754	-0.282822
C172	C	1.177814	0.093246	0.217178
C173	C	0.620311	-0.406764	-0.369318
C174	C	1.120311	0.093236	0.130682
C175	C	0.620329	-0.453679	-0.369323
C176	C	1.120329	0.046321	0.130677
C177	C	0.649093	-0.477133	-0.326076
C178	C	1.149093	0.022867	0.173924
O179	O	0.595911	-0.527906	-0.406074
O180	O	1.095911	-0.027906	0.093926
O181	O	0.702317	-0.527929	-0.246071
O182	O	1.202317	-0.027929	0.253929
C183	C	0.677929	-0.739864	-0.282876
C184	C	1.177929	-0.239864	0.217124
C185	C	0.649187	-0.763323	-0.326127
C186	C	1.149187	-0.263323	0.173873
C187	C	0.620430	-0.739867	-0.369369
C188	C	1.120430	-0.239867	0.130631
C189	C	0.649200	-0.810241	-0.326132
C190	C	1.149200	-0.310241	0.173868
C191	C	0.677958	-0.833697	-0.282890
C192	C	1.177958	-0.333697	0.217110
C193	C	0.706703	-0.810235	-0.239643
C194	C	1.206703	-0.310235	0.260357
C195	C	0.706687	-0.763319	-0.239634
C196	C	1.206687	-0.263319	0.260366
C197	C	0.591685	-0.763329	-0.412616
C198	C	1.091685	-0.263329	0.087384
C199	C	0.591703	-0.810244	-0.412621
C200	C	1.091703	-0.310244	0.087379
C201	C	0.620460	-0.833700	-0.369379
C202	C	1.120460	-0.333700	0.130621
C203	C	0.766309	-0.216690	-0.326109
C204	C	1.266309	0.283310	0.173891
C205	C	0.816243	-0.216710	-0.326117
C206	C	1.316243	0.283290	0.173883
C207	C	0.649143	-0.216611	-0.502632
C208	C	1.149143	0.283389	-0.002632
C209	C	0.649148	-0.216598	-0.577865
C210	C	1.149148	0.283402	-0.077865
C211	C	0.649224	-0.099463	-0.326138
C212	C	1.149224	0.400537	0.173862
C213	C	0.649264	-0.049528	-0.326159
C214	C	1.149264	0.450472	0.173841
C215	C	0.677929	-0.245272	-1.039646
C216	C	1.177929	0.254728	-0.539646
C217	C	0.677917	-0.245284	-0.968958
C218	C	1.177917	0.254716	-0.468958
C219	C	0.649204	-0.216547	-0.933626
C220	C	1.149204	0.283453	-0.433626
C221	C	0.620498	-0.187799	-0.968987
C222	C	1.120498	0.312201	-0.468987
C223	C	0.620508	-0.187790	-1.039675
C224	C	1.120508	0.312210	-0.539675
C225	C	0.620454	-0.187838	-0.683914
C226	C	1.120454	0.312162	-0.183914
C227	C	0.620447	-0.187848	-0.613222
C228	C	1.120447	0.312152	-0.113222
C229	C	0.677863	-0.245332	-0.613197
C230	C	1.177863	0.254668	-0.113197
C231	C	0.677873	-0.245322	-0.683884
C232	C	1.177873	0.254678	-0.183884
C233	C	0.649166	-0.216576	-0.719239
C234	C	1.149166	0.283424	-0.219239
C235	C	0.649179	-0.216564	-0.795887
C236	C	1.149179	0.283436	-0.295887
C237	C	0.649192	-0.216557	-0.856979
C238	C	1.149192	0.283443	-0.356979
C239	C	0.649144	-0.216639	-0.150234
C240	C	1.149144	0.283361	0.349766
C241	C	0.649226	-0.216525	-0.075002
C242	C	1.149226	0.283475	0.424998
H243	H	-0.179373	-0.164644	-0.404791
H244	H	0.320627	0.335356	0.095209
N245	N	0.031614	-0.129964	-0.457147
N246	N	0.531614	0.370036	0.042853
N247	N	0.036873	-0.132993	-0.519593
N248	N	0.536873	0.367007	-0.019593
H249	H	0.019974	-0.112289	-0.550889
H250	H	0.519974	0.387711	-0.050889
N251	N	0.591197	-0.158418	-1.075792
N252	N	1.091197	0.341582	-0.575792
N253	N	0.607032	-0.129791	-1.115249
N254	N	1.107032	0.370209	-0.615249
H255	H	0.586330	-0.109046	-1.140756
H256	H	1.086330	0.390954	-0.640756
H257	H	0.701284	-0.268698	-0.940174
H258	H	1.201284	0.231302	-0.440174
N259	N	0.591141	-1.050039	-0.413570
N260	N	1.091141	-0.550039	0.086430
N261	N	0.562530	-1.076248	-0.389721
N262	N	1.062530	-0.576248	0.110279
H263	H	0.541791	-1.093174	-0.420918
H264	H	1.041791	-0.593174	0.079082
N265	N	0.736052	-0.739357	-0.195458
N266	N	1.236052	-0.239357	0.304542
N267	N	0.764663	-0.713146	-0.219300
N268	N	1.264663	-0.213146	0.280700
H269	H	0.785403	-0.696224	-0.188098
H270	H	1.285403	-0.196224	0.311902
N271	N	0.707382	-1.050030	-0.238728
N272	N	1.207382	-0.550030	0.261272
N273	N	0.691605	-1.076240	-0.195579
N274	N	1.191605	-0.576240	0.304421
H275	H	0.712348	-1.093166	-0.164381
H276	H	1.212348	-0.593166	0.335619
H277	H	0.701220	-0.387655	-0.247597
H278	H	1.201220	0.112345	0.252403
H279	H	-0.179424	-0.268767	-0.247444
H280	H	0.320576	0.231233	0.252556
N281	N	0.707209	-0.274670	-0.719973
N282	N	1.207209	0.225330	-0.219973
N283	N	0.748665	-0.271709	-0.712082
N284	N	1.248665	0.228291	-0.212082
H285	H	0.769384	-0.292437	-0.737570
H286	H	1.269384	0.207563	-0.237570
N287	N	-0.089405	-0.158683	-0.413790
N288	N	0.410595	0.341317	0.086210
N289	N	-0.110351	-0.133069	-0.452499
N290	N	0.389649	0.366931	0.047501
H291	H	-0.093430	-0.112360	-0.483788
H292	H	0.406570	0.387640	0.016212
N293	N	0.591175	-0.158445	-0.932886
N294	N	1.091175	0.341555	-0.432886
N295	N	0.607002	-0.129831	-0.893457
N296	N	1.107002	0.370169	-0.393457
H297	H	0.586294	-0.109097	-0.867959
H298	H	1.086294	0.390903	-0.367959
N299	N	0.590939	-0.382806	-0.413499
N300	N	1.090939	0.117194	0.086501
N301	N	0.565279	-0.403753	-0.452120
N302	N	1.065279	0.096247	0.047880
H303	H	0.544537	-0.386833	-0.483328
H304	H	1.044537	0.113167	0.016672
N305	N	-0.089437	-0.274691	-0.238443
N306	N	0.410563	0.225309	0.261557
N307	N	-0.094683	-0.271657	-0.175995
N308	N	0.405317	0.228343	0.324005
H309	H	-0.077769	-0.292350	-0.144703
H310	H	0.422231	0.207650	0.355297
N311	N	0.707192	-0.274693	-0.577083
N312	N	1.207192	0.225307	-0.077083
N313	N	0.735827	-0.258902	-0.537648
N314	N	1.235827	0.241098	-0.037648
H315	H	0.756542	-0.279636	-0.512144
H316	H	1.256542	0.220364	-0.012144
N317	N	0.126426	-0.129950	-0.457143
N318	N	0.626426	0.370050	0.042857
N319	N	0.105479	-0.104339	-0.495853
N320	N	0.605479	0.395661	0.004147
H321	H	0.122400	-0.083629	-0.527143
H322	H	0.622400	0.416371	-0.027143
H323	H	0.701313	-0.268671	-1.068408
H324	H	1.201313	0.231329	-0.568408
H325	H	0.568292	-0.829341	-0.447844
H326	H	1.068292	-0.329341	0.052156
H327	H	0.177210	-0.135888	-0.448149
H328	H	0.677210	0.364112	0.051851
N329	N	0.736038	-0.693437	-0.195441
N330	N	1.236038	-0.193437	0.304559
N331	N	0.761697	-0.672476	-0.156833
N332	N	1.261697	-0.172476	0.343167
H333	H	0.782449	-0.689386	-0.125628
H334	H	1.282449	-0.189386	0.374372
H335	H	0.393022	-0.164534	-0.404761
H336	H	0.893022	0.335466	0.095239
N337	N	0.736073	-0.834207	-0.195471
N338	N	1.236073	-0.334207	0.304529
N339	N	0.736077	-0.876097	-0.195490
N340	N	1.236077	-0.376097	0.304510
H341	H	0.756819	-0.893030	-0.164298
H342	H	1.256819	-0.393030	0.335702
N343	N	0.591115	-0.158488	-0.577141
N344	N	1.091115	0.341512	-0.077141
N345	N	0.565486	-0.132823	-0.608715
N346	N	1.065486	0.367177	-0.108715
H347	H	0.544772	-0.112087	-0.583233
H348	H	1.044772	0.387913	-0.083233
H349	H	0.568229	-0.603477	-0.447827
H350	H	1.068229	-0.103477	0.052173
H351	H	0.262328	-0.135877	-0.448140
H352	H	0.762328	0.364123	0.051860
H353	H	0.597078	-0.164432	-0.712691
H354	H	1.097078	0.335568	-0.212691
N355	N	0.735998	-0.598620	-0.195411
N356	N	1.235998	-0.098620	0.304589
N357	N	0.733045	-0.603899	-0.132955
N358	N	1.233045	-0.103899	0.367045
H359	H	0.753782	-0.586986	-0.101736
H360	H	1.253782	-0.086986	0.398264
N361	N	0.483013	-0.158577	-0.413734
N362	N	0.983013	0.341423	0.086266
N363	N	0.524903	-0.158576	-0.413717
N364	N	1.024903	0.341424	0.086283
H365	H	0.541846	-0.137875	-0.444994
H366	H	1.041846	0.362125	0.055006
N367	N	0.031508	-0.303384	-0.195117
N368	N	0.531508	0.196616	0.304883
N369	N	0.005325	-0.332035	-0.218855
N370	N	0.505325	0.167965	0.281145
H371	H	-0.011611	-0.352741	-0.187578
H372	H	0.488389	0.147259	0.312422
N373	N	0.482948	-0.274581	-0.238406
N374	N	0.982948	0.225419	0.261594
N375	N	0.477694	-0.271549	-0.175960
N376	N	0.977694	0.228451	0.324040
H377	H	0.494604	-0.292244	-0.144664
H378	H	0.994604	0.207756	0.355336
N379	N	0.388123	-0.274611	-0.238415
N380	N	0.888123	0.225389	0.261585
N381	N	0.393360	-0.271574	-0.175969
N382	N	0.893360	0.228426	0.324031
H383	H	0.376440	-0.292279	-0.144672
H384	H	0.876440	0.207721	0.355328
N385	N	0.126343	-0.303370	-0.195091
N386	N	0.626343	0.196630	0.304909
N387	N	0.105372	-0.328991	-0.156388
N388	N	0.605372	0.171009	0.343612
H389	H	0.122274	-0.349697	-0.125098
H390	H	0.622274	0.150303	0.374902
H391	H	0.262245	-0.297386	-0.204070
H392	H	0.762245	0.202614	0.295930
N393	N	0.562306	-0.739380	-0.456796
N394	N	1.062306	-0.239380	0.043204
N395	N	0.536646	-0.760339	-0.495404
N396	N	1.036646	-0.260339	0.004596
H397	H	0.515894	-0.743427	-0.526608
H398	H	1.015894	-0.243427	-0.026608
N399	N	0.172281	-0.303352	-0.195091
N400	N	0.672281	0.196648	0.304909
N401	N	0.193227	-0.328964	-0.156379
N402	N	0.693227	0.171036	0.343621
H403	H	0.176304	-0.349673	-0.125090
H404	H	0.676304	0.150327	0.374910
H405	H	0.568247	-0.688586	-0.447834
H406	H	1.068247	-0.188586	0.052166
H407	H	0.597075	-0.960060	-0.404615
H408	H	1.097075	-0.460060	0.095385
N409	N	0.707217	-0.477619	-0.238649
N410	N	1.207217	0.022381	0.261351
N411	N	0.732874	-0.456660	-0.200036
N412	N	1.232874	0.043340	0.299964
H413	H	0.753625	-0.473571	-0.168830
H414	H	1.253625	0.026429	0.331170
H415	H	0.701402	-0.960050	-0.247678
H416	H	1.201402	-0.460050	0.252322
N417	N	0.590958	-0.477638	-0.413498
N418	N	1.090958	0.022362	0.086502
N419	N	0.565280	-0.456688	-0.452098
N420	N	1.065280	0.043312	0.047902
H421	H	0.544538	-0.473605	-0.483301
H422	H	1.044538	0.026395	0.016699
