data_functionalizedCrystal
_audit_creation_method	'MofGen! by Chris Wilmer'
_symmetry_space_group_name_H-M	'P1'
_symmetry_Int_Tables_number	1
_symmetry_cell_setting	triclinic
loop_
_symmetry_equiv_pos_as_xyz
  x,y,z
_cell_length_a	12.645331
_cell_length_b	17.077402
_cell_length_c	12.645324
_cell_angle_alpha	89.962519
_cell_angle_beta	89.972121
_cell_angle_gamma	90.019429
loop_
_atom_site_label
_atom_site_type_symbol
_atom_site_fract_x
_atom_site_fract_y
_atom_site_fract_z
Zn1	Zn	-1.620696	0.312521	0.599543
Zn2	Zn	-1.620561	0.443813	0.422266
Zn3	Zn	-1.443410	0.312558	0.422272
Zn4	Zn	-1.443376	0.443741	0.599466
O5	O	-1.532011	0.378158	0.510887
O6	O	-1.769025	0.329952	0.576057
O7	O	-1.597019	0.426448	0.273919
O8	O	-1.466998	0.202706	0.445823
O9	O	-1.768926	0.426412	0.445811
O10	O	-1.597249	0.202679	0.576063
O11	O	-1.466867	0.330015	0.273924
O12	O	-1.295058	0.329944	0.445748
O13	O	-1.466941	0.426288	0.747823
O14	O	-1.295034	0.426324	0.575931
O15	O	-1.597217	0.329882	0.747880
O16	O	-1.596986	0.553651	0.445736
O17	O	-1.466810	0.553597	0.575925
C18	C	-1.256581	0.378131	0.510832
C19	C	-1.138751	0.378138	0.510834
C20	C	-1.093849	0.317409	0.429066
C21	C	-0.971289	0.317179	0.429336
C22	C	-0.970925	0.356060	0.622731
C23	C	-1.093523	0.355612	0.622230
C24	C	-1.093525	0.461114	0.481741
C25	C	-0.970918	0.460675	0.479305
C26	C	-0.808516	0.378174	0.510921
C27	C	-0.926346	0.378151	0.510882
C28	C	-1.531908	0.582106	0.510844
C29	C	-1.531962	0.669356	0.510862
C30	C	-1.532090	0.378073	0.787392
C31	C	-1.532124	0.378036	0.905222
C32	C	-1.532142	0.173414	0.510952
C33	C	-1.532198	0.086164	0.510980
C34	C	-1.599814	0.710348	0.443146
C35	C	-1.599866	0.792328	0.443173
C36	C	-1.532059	0.833315	0.510911
C37	C	-1.464204	0.792317	0.578635
C38	C	-1.464158	0.710339	0.578613
C39	C	-1.464302	0.963187	0.578675
C40	C	-1.464346	1.045172	0.578697
C41	C	-1.600010	1.045177	0.443235
C42	C	-1.599964	0.963198	0.443213
C43	C	-1.532107	0.922206	0.510935
C44	C	-1.531993	0.378186	0.235457
C45	C	-1.532164	0.378002	0.117628
C46	C	-1.614400	0.317563	1.072822
C47	C	-1.614136	0.317344	0.950262
C48	C	-1.420445	0.355552	0.949694
C49	C	-1.420944	0.355093	1.072293
C50	C	-1.560621	0.461083	1.072412
C51	C	-1.563065	0.460665	0.949806
H52	H	-0.941988	0.255698	0.448653
N53	N	-1.673198	1.089388	0.370193
H54	H	-1.722327	1.123343	0.413331
H55	H	-1.716070	1.050935	0.327287
N56	N	-1.391218	1.089383	0.651759
H57	H	-1.348231	1.050977	0.694664
H58	H	-1.434373	1.123342	0.700861
N59	N	-1.132828	0.335435	0.318866
H60	H	-1.103099	0.295780	0.267636
H61	H	-1.108880	0.389655	0.297715
H62	H	-1.122560	0.506356	0.541297
H63	H	-1.655117	0.825700	0.388030
N64	N	-1.132884	0.411679	0.705718
H65	H	-1.212754	0.411827	0.706041
H66	H	-1.106079	0.466118	0.689636
H67	H	-1.122149	0.294968	0.646821
N68	N	-1.481294	0.520741	1.110790
H69	H	-1.444615	0.545432	1.048118
H70	H	-1.427243	0.494074	1.157254
H71	H	-1.409049	0.929815	0.633826
H72	H	-1.696949	0.331426	0.920197
N73	N	-0.930314	0.276609	0.655859
H74	H	-0.991973	0.239994	0.667515
H75	H	-0.888697	0.281845	0.723636
H76	H	-1.595295	0.255800	0.920956
H77	H	-1.124683	0.256273	0.448134
H78	H	-1.655171	0.929826	0.388050
N79	N	-1.589760	0.236487	1.113642
H80	H	-1.642950	0.198022	1.084484
H81	H	-1.593449	0.236399	1.193427
N82	N	-1.391066	0.836517	0.651699
H83	H	-1.434137	0.870478	0.700878
H84	H	-1.341992	0.870537	0.608500
N85	N	-1.390979	0.666122	0.651652
H86	H	-1.348029	0.704525	0.694567
H87	H	-1.341923	0.632161	0.608444
N88	N	-1.724463	0.335974	1.111888
H89	H	-1.722091	0.383670	1.159014
H90	H	-1.752741	0.289876	1.153233
H91	H	-1.396821	0.294362	1.100908
H92	H	-1.357587	0.397199	1.101929
H93	H	-1.357505	0.398220	0.920516
N94	N	-1.489474	0.523525	0.909220
H95	H	-1.511279	0.575903	0.939173
H96	H	-1.493177	0.525427	0.829479
N97	N	-1.672947	0.666139	0.370087
H98	H	-1.656535	0.680464	0.294329
H99	H	-1.748661	0.680371	0.386726
H100	H	-1.124388	0.481286	0.401541
H101	H	-1.395879	0.295498	0.919005
H102	H	-1.645251	0.477619	0.920740
N103	N	-1.666645	0.488174	1.113387
H104	H	-1.697305	0.446860	1.161683
H105	H	-1.716130	0.497176	1.051905
H106	H	-0.941144	0.330962	0.346415
H107	H	-0.941777	0.477339	0.396989
N108	N	-0.932381	0.412859	0.705676
H109	H	-0.885537	0.453553	0.671464
H110	H	-0.890863	0.383539	0.761236
N111	N	-0.930390	0.523793	0.552386
H112	H	-0.882352	0.499678	0.607249
H113	H	-0.992089	0.550025	0.588665
