data_functionalizedCrystal
_audit_creation_method	'MofGen! by Chris Wilmer'
_symmetry_space_group_name_H-M	'P1'
_symmetry_Int_Tables_number	1
_symmetry_cell_setting	triclinic
loop_
_symmetry_equiv_pos_as_xyz
  x,y,z
_cell_length_a	13.897448
_cell_length_b	12.759395
_cell_length_c	12.759387
_cell_angle_alpha	90.018815
_cell_angle_beta	89.966131
_cell_angle_gamma	89.980771
loop_
_atom_site_label
_atom_site_type_symbol
_atom_site_fract_x
_atom_site_fract_y
_atom_site_fract_z
Zn1	Zn	-0.383913	-1.606229	-0.593991
Zn2	Zn	-0.545244	-1.606116	-0.418306
Zn3	Zn	-0.383969	-1.430533	-0.418328
Zn4	Zn	-0.545173	-1.430511	-0.593945
O5	O	-0.464575	-1.518347	-0.506142
O6	O	-0.405321	-1.753235	-0.570696
O7	O	-0.523904	-1.582786	-0.271287
O8	O	-0.248980	-1.453896	-0.441659
O9	O	-0.523850	-1.753152	-0.441621
O10	O	-0.248939	-1.582979	-0.570718
O11	O	-0.405416	-1.453786	-0.271304
O12	O	-0.405347	-1.283509	-0.441614
O13	O	-0.523728	-1.453858	-0.740972
O14	O	-0.523782	-1.283492	-0.570639
O15	O	-0.405251	-1.582958	-0.741006
O16	O	-0.680216	-1.582765	-0.441576
O17	O	-0.680164	-1.453748	-0.570617
C18	C	-0.715189	-1.518270	-0.506112
C19	C	-0.822403	-1.518334	-0.506134
C20	C	-0.464563	-1.245380	-0.506124
C21	C	-0.464581	-1.128603	-0.506142
C22	C	-0.464475	-1.518418	-0.780176
C23	C	-0.464433	-1.518449	-0.896953
C24	C	-1.018698	-1.518444	-0.506200
C25	C	-0.909466	-1.518380	-0.506167
C26	C	-0.212982	-1.518453	-0.506196
C27	C	-0.105768	-1.518498	-0.506219
C28	C	-0.464587	-1.792381	-0.506161
C29	C	-0.464593	-1.909157	-0.506169
C30	C	-0.588108	-1.128625	-0.640278
C31	C	-0.649878	-1.073775	-0.707349
C32	C	-0.649890	-0.964053	-0.707362
C33	C	-0.588122	-0.909179	-0.640299
C34	C	-0.526352	-0.964029	-0.573227
C35	C	-0.526349	-1.073753	-0.573220
C36	C	-0.402822	-0.964007	-0.439098
C37	C	-0.402814	-1.073729	-0.439078
C38	C	-0.341054	-0.909133	-0.372035
C39	C	-0.279287	-0.963983	-0.304957
C40	C	-0.279279	-1.073711	-0.304946
C41	C	-0.341043	-1.128579	-0.372007
C42	C	-0.341043	-1.384130	-0.896989
C43	C	-0.279329	-1.316989	-0.951868
C44	C	-0.279294	-1.317021	-1.061589
C45	C	-0.340982	-1.384198	-1.116435
C46	C	-0.402696	-1.451338	-1.061556
C47	C	-0.402722	-1.451301	-0.951832
C48	C	-0.526089	-1.585650	-1.061520
C49	C	-0.526121	-1.585626	-0.951798
C50	C	-0.587777	-1.652827	-1.116365
C51	C	-0.649488	-1.719974	-1.061487
C52	C	-0.649520	-1.719941	-0.951758
C53	C	-0.587835	-1.652766	-0.896919
C54	C	-0.464605	-1.518337	-0.233175
C55	C	-0.464375	-1.518510	-0.116399
H56	H	-0.700167	-1.118465	-0.761952
H57	H	-0.699772	-1.774618	-0.907082
H58	H	-0.588111	-1.217966	-0.640266
H59	H	-0.587852	-1.652736	-0.807578
H60	H	-0.341057	-1.384106	-0.807648
N61	N	-0.216254	-1.248456	-1.117668
N62	N	-0.216235	-1.248504	-1.215634
H63	H	-0.171713	-1.200082	-1.255242
H64	H	-0.700184	-0.919395	-0.761982
H65	H	-0.588129	-0.819838	-0.640324
N66	N	-0.712496	-1.788570	-1.117524
N67	N	-0.712465	-1.788579	-1.215489
H68	H	-0.756966	-1.837026	-1.255071
N69	N	-0.341051	-0.797056	-0.372068
N70	N	-0.320988	-0.748128	-0.454071
H71	H	-0.320985	-0.668972	-0.454094
N72	N	-0.216197	-0.907916	-0.236477
N73	N	-0.216208	-0.809951	-0.236508
H74	H	-0.171650	-0.770348	-0.188143
H75	H	-0.587749	-1.652843	-1.205707
H76	H	-0.340957	-1.384208	-1.205776
H77	H	-0.341045	-1.217920	-0.372002
N78	N	-0.216163	-1.129719	-0.236437
N79	N	-0.161019	-1.080708	-0.176577
H80	H	-0.116440	-1.120259	-0.128193
H81	H	-0.229106	-1.262293	-0.907200
