data_functionalizedCrystal
_audit_creation_method	'MofGen! by Chris Wilmer'
_symmetry_space_group_name_H-M	'P1'
_symmetry_Int_Tables_number	1
_symmetry_cell_setting	triclinic
loop_
_symmetry_equiv_pos_as_xyz
  x,y,z
_cell_length_a	27.732048
_cell_length_b	15.944551
_cell_length_c	15.021413
_cell_angle_alpha	90.002826
_cell_angle_beta	89.999048
_cell_angle_gamma	96.929303
loop_
_atom_site_label
_atom_site_type_symbol
_atom_site_fract_x
_atom_site_fract_y
_atom_site_fract_z
O1	O	0.062334	-1.113714	-0.073949
O2	O	0.070020	-0.869064	-0.073973
O3	O	-0.004187	-0.998987	-0.073943
O4	O	0.136541	-0.983790	-0.073979
O5	O	-0.004176	-0.998966	0.074121
O6	O	0.070030	-0.869043	0.074092
O7	O	0.062345	-1.113693	0.074115
Zn8	Zn	0.066189	-0.991365	0.097612
Zn9	Zn	0.066175	-0.991392	-0.097469
O10	O	0.136551	-0.983770	0.074086
C11	C	0.069706	-0.837763	0.000057
C12	C	0.068749	-0.744530	0.000049
C13	C	-0.022190	-0.998658	0.000091
C14	C	-0.075849	-0.997697	0.000099
N15	N	0.066198	-0.991352	0.230749
C16	C	-0.414358	-1.068426	0.000060
C17	C	-0.616033	-1.064862	0.000047
O18	O	-0.647008	-1.129539	0.000014
N19	N	-0.635490	-0.987823	0.000040
C20	C	-0.604525	-0.911669	0.000031
O21	O	-0.625703	-0.846061	0.000016
C22	C	-0.402851	-0.915234	0.000038
C23	C	-0.383397	-0.992278	0.000053
C24	C	-0.394903	-1.145464	0.000074
C25	C	-0.344487	-1.146354	0.000082
C26	C	-0.313526	-1.070206	0.000076
C27	C	-0.332981	-0.993168	0.000061
C28	C	-0.371887	-0.839081	0.000022
C29	C	-0.321466	-0.839979	0.000021
C30	C	-0.302012	-0.917024	0.000037
C31	C	-0.251604	-0.917911	0.000063
N32	N	-0.232147	-0.994950	0.000069
C33	C	-0.263108	-1.071098	0.000076
C34	C	-0.710408	-0.909803	0.000030
C35	C	-0.760826	-0.908912	0.000030
C36	C	-0.772330	-1.062105	0.000044
C37	C	-0.721911	-1.062995	0.000050
C38	C	-0.690950	-0.986842	0.000036
C39	C	-0.157231	-1.072961	0.000093
C40	C	-0.106810	-1.073845	0.000105
C41	C	-0.095310	-0.920652	0.000086
C42	C	-0.145727	-0.919768	0.000079
C43	C	-0.176686	-0.995930	0.000080
O44	O	-0.220600	-0.853269	0.000085
O45	O	-0.241921	-1.136697	0.000071
C46	C	-0.464774	-1.067536	0.000052
C47	C	-0.484228	-0.990498	0.000037
C48	C	-0.453268	-0.914350	0.000031
C49	C	-0.534647	-0.989607	0.000037
C50	C	-0.565608	-1.065754	0.000044
C51	C	-0.546150	-1.142794	0.000050
C52	C	-0.495734	-1.143684	0.000058
C53	C	-0.472725	-0.837311	0.000024
C54	C	-0.523141	-0.836427	0.000017
C55	C	-0.554102	-0.912575	0.000023
C56	C	0.154554	-0.984099	0.000049
C57	C	0.208213	-0.985059	0.000036
C58	C	0.062658	-1.144993	0.000084
C59	C	0.063615	-1.238227	0.000086
C60	C	0.020466	-0.530305	0.000078
C61	C	0.042882	-0.469001	-0.072931
C62	C	0.067019	-0.573827	0.000060
C63	C	0.042904	-0.469003	0.073049
C64	C	0.065344	-0.408936	0.000074
C65	C	0.089448	-0.513752	-0.073010
C66	C	0.089463	-0.513760	0.073036
C67	C	0.111912	-0.452474	0.000009
C68	C	0.067983	-0.668816	0.000051
C69	C	0.064384	-0.313947	0.000077
N70	N	0.066162	-0.991411	-0.230607
C71	C	0.100495	-0.931267	0.470419
C72	C	0.109879	-1.007044	0.529758
C73	C	0.066186	-0.991374	0.412356
C74	C	0.056813	-0.915617	0.529759
C75	C	0.066176	-0.991388	0.587780
C76	C	0.075592	-1.067190	0.470389
C77	C	0.022507	-0.975712	0.470385
C78	C	0.031872	-1.051545	0.529697
C79	C	0.066194	-0.991365	0.311299
C80	C	0.066168	-0.991406	0.688836
H81	H	-0.090973	-1.136586	0.000120
H82	H	0.083560	-1.131275	0.444419
Cl83	Cl	-0.396332	-0.742219	-0.000003
H84	H	-0.014416	-0.962429	0.444285
H85	H	0.002852	-1.102437	0.555561
Cl86	Cl	-0.811261	-1.157833	0.000047
Cl87	Cl	-0.785276	-0.812052	0.000027
H88	H	-0.161567	-0.857033	0.000091
H89	H	-0.447521	-0.775301	0.000017
H90	H	0.129533	-0.880487	0.444392
Cl91	Cl	-0.056379	-0.824929	0.000076
Cl92	Cl	0.119817	-0.544222	-0.168412
Cl93	Cl	0.044579	-0.816695	0.570025
Cl94	Cl	-0.671492	-0.814057	0.000013
Cl95	Cl	-0.471285	-1.240545	0.000070
H96	H	-0.018169	-0.564143	-0.000003
Cl97	Cl	-0.282547	-0.744238	0.000003
Cl98	Cl	-0.547591	-0.739561	0.000002
Cl99	Cl	-0.196143	-1.168709	0.000095
Cl100	Cl	-0.320038	-1.243215	0.000076
Cl101	Cl	0.166902	-1.027518	0.570025
H102	H	-0.420107	-1.207476	0.000076
H103	H	0.150587	-0.418809	-0.000042
H104	H	0.023188	-0.449157	-0.134645
Cl105	Cl	-0.697459	-1.159854	0.000068
H106	H	0.023209	-0.449166	0.134770
Cl107	Cl	-0.585082	-1.238521	0.000062
Cl108	Cl	0.119844	-0.544435	0.168323
