data_functionalizedCrystal
_audit_creation_method	'MofGen! by Chris Wilmer'
_symmetry_space_group_name_H-M	'P1'
_symmetry_Int_Tables_number	1
_symmetry_cell_setting	triclinic
loop_
_symmetry_equiv_pos_as_xyz
  x,y,z
_cell_length_a	6.817900
_cell_length_b	11.168136
_cell_length_c	11.168129
_cell_angle_alpha	92.020277
_cell_angle_beta	108.508637
_cell_angle_gamma	108.508683
loop_
_atom_site_label
_atom_site_type_symbol
_atom_site_fract_x
_atom_site_fract_y
_atom_site_fract_z
V1	V	-4.109883	-0.393710	-0.174724
O2	O	-4.069466	-0.386204	0.008377
O3	O	-4.086171	-0.391028	-0.346429
O4	O	-4.086173	-0.565416	-0.172045
O5	O	-4.069464	-0.210610	-0.167215
V6	V	-4.587112	-0.371809	-0.152822
O7	O	-4.384946	-0.441753	-0.222767
O8	O	-4.762246	-0.323766	-0.104778
O9	O	-4.387617	-0.374490	0.018883
O10	O	-4.744926	-0.379315	-0.335922
O11	O	-4.744928	-0.554909	-0.160331
O12	O	-4.387615	-0.200103	-0.155501
C13	C	-3.936379	-0.384820	-0.388287
C14	C	-3.998444	-0.383772	-0.528658
C15	C	-3.969301	-0.273412	-0.574099
C16	C	-4.033447	-0.272326	-0.719179
C17	C	-3.936380	-0.607267	-0.165841
C18	C	-3.998442	-0.747637	-0.164786
C19	C	-4.200950	-0.816330	-0.170305
C20	C	-4.265098	-0.961410	-0.169216
C21	C	-4.200752	-0.380695	0.060735
C22	C	-4.117927	-0.381751	0.201105
C23	C	-4.200750	-0.158245	-0.161709
C24	C	-4.117926	-0.017873	-0.162757
H25	H	-4.008589	-0.177840	-0.758322
H26	H	-3.872554	-0.796233	-0.159246
O27	O	-3.911118	-0.947355	-0.157324
C28	C	-3.923369	-0.887869	-0.267425
H29	H	-4.093397	-0.879519	-0.309651
H30	H	-3.791861	-0.788501	-0.240781
H31	H	-3.894754	-0.947482	-0.340871
O32	O	-4.472085	-1.032010	-0.175018
C33	C	-4.573489	-1.125807	-0.284703
H34	H	-4.441323	-1.145565	-0.315711
H35	H	-4.679421	-1.217477	-0.261961
H36	H	-4.681720	-1.090229	-0.365131
O37	O	-3.882651	-0.161551	-0.492507
C38	C	-3.685643	-0.084935	-0.507528
H39	H	-3.686639	-0.114981	-0.606398
H40	H	-3.672220	0.019543	-0.496788
H41	H	-3.538766	-0.097411	-0.431546
H42	H	-4.142767	-0.476241	-0.759760
H43	H	-4.326830	-0.767731	-0.175828
O44	O	-4.085153	-0.495465	-0.610508
C45	C	-4.297237	-0.507717	-0.693957
H46	H	-4.312273	-0.409139	-0.699957
H47	H	-4.324203	-0.554498	-0.793009
H48	H	-4.426730	-0.569423	-0.656389
