data_functionalizedCrystal
_audit_creation_method	'MofGen! by Chris Wilmer'
_symmetry_space_group_name_H-M	'P1'
_symmetry_Int_Tables_number	1
_symmetry_cell_setting	triclinic
loop_
_symmetry_equiv_pos_as_xyz
  x,y,z
_cell_length_a	27.732048
_cell_length_b	27.732048
_cell_length_c	26.210047
_cell_angle_alpha	90.000479
_cell_angle_beta	89.996535
_cell_angle_gamma	97.357345
loop_
_atom_site_label
_atom_site_type_symbol
_atom_site_fract_x
_atom_site_fract_y
_atom_site_fract_z
O1	O	0.640931	-0.057510	-0.042369
O2	O	0.500138	-0.066256	-0.042385
O3	O	0.574907	0.008514	-0.042367
O4	O	0.566162	-0.132279	-0.042387
O5	O	0.574893	0.008502	0.042491
O6	O	0.500123	-0.066267	0.042473
O7	O	0.640917	-0.057522	0.042489
Cu8	Cu	0.570519	-0.061896	0.050229
Cu9	Cu	0.570536	-0.061882	-0.050125
O10	O	0.566147	-0.132291	0.042471
C11	C	0.482124	-0.066078	0.000042
C12	C	0.428469	-0.065525	0.000036
C13	C	0.089654	-0.106229	0.000053
C14	C	-0.112006	-0.104178	0.000057
O15	O	-0.143262	-0.141398	0.000074
N16	N	-0.131130	-0.059843	0.000063
C17	C	-0.099835	-0.016017	0.000071
O18	O	-0.120728	0.021740	0.000081
C19	C	0.101824	-0.018068	0.000069
C20	C	0.120944	-0.062407	0.000059
C21	C	0.108775	-0.150563	0.000043
C22	C	0.159187	-0.151076	0.000039
C23	C	0.190477	-0.107253	0.000045
C24	C	0.171356	-0.062919	0.000055
C25	C	0.133117	0.025757	0.000081
C26	C	0.183535	0.025240	0.000082
C27	C	0.202655	-0.019098	0.000071
C28	C	0.253059	-0.019609	0.000057
N29	N	0.272183	-0.063944	0.000051
C30	C	0.240892	-0.107766	0.000045
C31	C	-0.205709	-0.014943	0.000070
C32	C	-0.256124	-0.014430	0.000070
C33	C	-0.268291	-0.102591	0.000057
C34	C	-0.217876	-0.103104	0.000054
C35	C	-0.186585	-0.059278	0.000065
C36	C	0.346761	-0.108839	0.000036
C37	C	0.397178	-0.109347	0.000030
C38	C	0.409341	-0.021186	0.000045
C39	C	0.358929	-0.020678	0.000049
C40	C	0.327639	-0.064508	0.000046
O41	O	0.284343	0.017592	0.000046
O42	O	0.261794	-0.145518	0.000047
C43	C	0.039242	-0.105716	0.000057
C44	C	0.020120	-0.061382	0.000067
C45	C	0.051411	-0.017560	0.000073
C46	C	-0.030294	-0.060869	0.000066
C47	C	-0.061585	-0.104691	0.000060
C48	C	-0.042461	-0.149026	0.000054
C49	C	0.007951	-0.149539	0.000050
C50	C	0.032287	0.026775	0.000078
C51	C	-0.018125	0.027284	0.000082
C52	C	-0.049416	-0.016538	0.000076
C53	C	0.574716	0.026515	0.000064
C54	C	0.574164	0.080170	0.000068
C55	C	0.658931	-0.057699	0.000061
C56	C	0.712586	-0.058252	0.000064
C57	C	0.566338	-0.150292	0.000040
C58	C	0.566891	-0.203947	0.000032
N59	N	0.570510	-0.061905	0.120813
C60	C	0.614867	0.418985	0.000046
C61	C	0.612816	0.620645	0.000039
O62	O	0.650037	0.651900	0.000021
N63	N	0.568481	0.639768	0.000034
C64	C	0.524656	0.608474	0.000028
O65	O	0.486899	0.629367	0.000019
C66	C	0.526707	0.406815	0.000032
C67	C	0.571045	0.387694	0.000042
C68	C	0.659202	0.399864	0.000056
C69	C	0.659714	0.349452	0.000060
C70	C	0.615892	0.318161	0.000056
C71	C	0.571557	0.337282	0.000046
C72	C	0.482882	0.375521	0.000022
C73	C	0.483399	0.325104	0.000022
C74	C	0.527737	0.305983	0.000032
C75	C	0.528247	0.255580	0.000046
N76	N	0.572583	0.236456	0.000051
C77	C	0.616405	0.267747	0.000056
C78	C	0.523582	0.714348	0.000027
C79	C	0.523069	0.764762	0.000027
C80	C	0.611230	0.776930	0.000037
C81	C	0.611742	0.726514	0.000041
C82	C	0.567917	0.695224	0.000032
C83	C	0.617477	0.161878	0.000066
C84	C	0.617986	0.111461	0.000073
C85	C	0.529825	0.099298	0.000060
C86	C	0.529316	0.149710	0.000056
C87	C	0.573147	0.180999	0.000057
O88	O	0.491047	0.224296	0.000059
O89	O	0.654156	0.246844	0.000054
C90	C	0.614355	0.469397	0.000042
C91	C	0.570021	0.488518	0.000033
C92	C	0.526198	0.457228	0.000028
C93	C	0.569508	0.538933	0.000033
C94	C	0.613330	0.570223	0.000037
C95	C	0.657665	0.551100	0.000042
C96	C	0.658177	0.500688	0.000046
C97	C	0.481863	0.476351	0.000023
C98	C	0.481355	0.526764	0.000019
C99	C	0.525177	0.558054	0.000024
N100	N	0.570548	-0.061868	-0.120709
C101	C	0.603640	-0.028781	0.473336
C102	C	0.603651	-0.028774	0.686994
O103	O	0.631801	-0.000614	0.714623
N104	N	0.570538	-0.061871	0.713707
C105	C	0.537419	-0.094970	0.687003
O106	O	0.509251	-0.123117	0.714626
C107	C	0.537406	-0.094974	0.473345
C108	C	0.570524	-0.061878	0.446635
C109	C	0.636755	0.004312	0.446625
C110	C	0.636754	0.004308	0.393214
C111	C	0.603638	-0.028789	0.366513
C112	C	0.570523	-0.061882	0.393223
C113	C	0.504284	-0.128070	0.446641
C114	C	0.504283	-0.128067	0.393223
C115	C	0.537401	-0.094971	0.366513
C116	C	0.537405	-0.094983	0.313111
N117	N	0.570518	-0.061886	0.286397
C118	C	0.603634	-0.028789	0.313098
C119	C	0.537428	-0.094966	0.799176
C120	C	0.537432	-0.094965	0.852590
C121	C	0.603664	-0.028769	0.852578
C122	C	0.603662	-0.028773	0.799163
C123	C	0.570541	-0.061869	0.772463
C124	C	0.603629	-0.028800	0.200931
C125	C	0.603626	-0.028808	0.147514
C126	C	0.537393	-0.095002	0.147531
C127	C	0.537397	-0.094996	0.200943
C128	C	0.570517	-0.061891	0.227641
O129	O	0.509267	-0.123125	0.285449
O130	O	0.631790	-0.000639	0.285466
C131	C	0.603641	-0.028777	0.526747
C132	C	0.570527	-0.061871	0.553457
C133	C	0.537410	-0.094968	0.526756
C134	C	0.570530	-0.061870	0.606872
C135	C	0.603646	-0.028773	0.633573
C136	C	0.636759	0.004323	0.606859
C137	C	0.636758	0.004320	0.553448
C138	C	0.504298	-0.128064	0.553470
C139	C	0.504302	-0.128058	0.606881
C140	C	0.537418	-0.094961	0.633582
H141	H	0.321291	-0.144530	0.000036
H142	H	0.510456	-0.121918	0.777440
H143	H	-0.033688	0.063392	0.000086
H144	H	0.083302	-0.186251	0.000039
C145	C	0.396203	0.318145	0.000006
C146	C	0.435223	0.290710	0.000014
H147	H	0.366462	0.296911	0.000006
H148	H	0.397844	0.338059	-0.029585
H149	H	0.397835	0.338064	0.029599
H150	H	0.433593	0.270793	-0.029581
H151	H	0.433581	0.270788	0.029609
C152	C	0.438814	-0.193498	0.398605
C153	C	0.467877	-0.164452	0.363876
H154	H	0.416342	-0.215962	0.380486
H155	H	0.421581	-0.173493	0.419436
H156	H	0.458810	-0.210744	0.419439
H157	H	0.447881	-0.147203	0.343044
H158	H	0.485111	-0.184459	0.343035
H159	H	0.630629	-0.001823	0.777418
H160	H	0.654093	0.095896	0.000082
C161	C	0.420408	-0.157014	0.623326
C162	C	0.467895	-0.164439	0.636238
H163	H	0.397931	-0.179470	0.641451
H164	H	0.415675	-0.161753	0.587696
H165	H	0.415411	-0.124785	0.632081
H166	H	0.472893	-0.196667	0.627480
H167	H	0.472629	-0.159704	0.671876
H168	H	0.117558	0.061861	0.000090
H169	H	0.510469	-0.121920	0.874334
C170	C	0.471925	-0.160422	0.195587
C171	C	0.500992	-0.131372	0.230306
H172	H	0.449444	-0.182874	0.213713
H173	H	0.491913	-0.177678	0.174759
H174	H	0.454697	-0.140414	0.174747
H175	H	0.518223	-0.151380	0.251143
H176	H	0.481001	-0.114115	0.251142
H177	H	0.694282	0.485125	0.000054
H178	H	0.477317	-0.155019	0.468381
H179	H	-0.202311	-0.139207	0.000049
H180	H	0.209009	0.060929	0.000091
C181	C	0.702221	0.069752	0.558818
C182	C	0.673159	0.040703	0.524093
H183	H	0.724691	0.092217	0.540697
H184	H	0.719455	0.049748	0.579647
H185	H	0.682224	0.086997	0.579655
H186	H	0.693156	0.023455	0.503258
H187	H	0.655923	0.060709	0.503254
C188	C	0.096036	0.077352	-0.043544
C189	C	0.066678	0.074949	0.000081
H190	H	0.117268	0.107093	-0.043543
H191	H	0.076114	0.075719	-0.073128
H192	H	0.114643	0.050876	-0.043542
H193	H	0.048069	0.101423	0.000077
H194	H	0.086603	0.076586	0.029672
H195	H	0.343360	0.015426	0.000050
H196	H	0.477330	-0.155015	0.531734
C197	C	0.614626	0.037075	0.260985
C198	C	0.640035	0.007588	0.230273
H199	H	0.637104	0.059539	0.279097
H200	H	0.594911	0.017369	0.284539
H201	H	0.594637	0.054321	0.240143
H202	H	0.660022	-0.009661	0.251115
H203	H	0.659759	0.027297	0.206716
H204	H	0.663725	0.031271	0.628608
H205	H	0.646911	0.802415	0.000041
H206	H	0.663720	0.031259	0.371469
C207	C	-0.106223	-0.199583	-0.043571
C208	C	-0.076863	-0.197196	0.000049
H209	H	-0.127465	-0.229319	-0.043570
H210	H	-0.086303	-0.197955	-0.073158
H211	H	-0.124819	-0.173099	-0.043561
H212	H	-0.058265	-0.223679	0.000037
H213	H	-0.096786	-0.198830	0.029644
H214	H	0.653168	0.187348	0.000065
C215	C	0.632672	0.055112	0.869024
C216	C	0.640064	0.007615	0.881933
H217	H	0.655143	0.077574	0.887146
H218	H	0.600454	0.060131	0.877781
H219	H	0.637413	0.059845	0.833390
H220	H	0.635319	0.002881	0.917567
H221	H	0.672290	0.002594	0.873179
H222	H	0.174750	-0.187180	0.000030
H223	H	0.434827	0.014492	0.000048
H224	H	0.663722	0.031266	0.468360
H225	H	0.412743	-0.145454	0.000021
H226	H	-0.293777	-0.138273	0.000053
C227	C	-0.239020	0.072660	0.000085
C228	C	-0.277138	0.034308	0.000077
H229	H	-0.251993	0.102749	0.000095
H230	H	-0.219610	0.070630	-0.029506
H231	H	-0.219612	0.070615	0.029678
H232	H	-0.296544	0.036351	-0.029518
H233	H	-0.296556	0.036339	0.029671
C234	C	0.746803	0.366558	0.000064
C235	C	0.708452	0.328439	0.000064
H236	H	0.776893	0.353587	0.000063
H237	H	0.744763	0.385966	0.029654
H238	H	0.744765	0.385968	-0.029530
H239	H	0.710488	0.309031	0.029660
H240	H	0.710493	0.309023	-0.029529
H241	H	0.694889	0.425336	0.000058
C242	C	0.057573	-0.201264	-0.043591
C243	C	0.028960	-0.198279	0.000036
H244	H	0.070536	-0.231358	-0.043601
H245	H	0.083428	-0.175248	-0.043582
H246	H	0.038155	-0.199219	-0.073176
H247	H	0.048379	-0.200321	0.029622
H248	H	0.003101	-0.224302	0.000032
H249	H	0.647846	0.710950	0.000048
C250	C	0.435979	0.747659	0.000013
C251	C	0.474331	0.785776	0.000021
H252	H	0.405889	0.760632	0.000004
H253	H	0.438008	0.728251	0.029605
H254	H	0.438025	0.728248	-0.029579
H255	H	0.472287	0.805185	0.029616
H256	H	0.472301	0.805192	-0.029574
H257	H	0.487892	0.688875	0.000020
C258	C	0.431166	0.425142	-0.043620
C259	C	0.434143	0.396530	0.000005
H260	H	0.401075	0.438112	-0.043629
H261	H	0.433211	0.405726	-0.073203
H262	H	0.457188	0.450998	-0.043609
H263	H	0.408123	0.370672	-0.000008
H264	H	0.432093	0.415946	0.029596
H265	H	0.493213	0.165279	0.000062
H266	H	0.494146	0.073812	0.000058
H267	H	-0.180236	0.020747	0.000079
C268	C	0.696016	0.633787	0.000036
C269	C	0.705835	0.585501	0.000043
H270	H	0.725753	0.655026	0.000031
H271	H	0.677820	0.639546	0.029624
H272	H	0.677820	0.639538	-0.029560
H273	H	0.724028	0.579750	0.029641
H274	H	0.724039	0.579740	-0.029549
H275	H	0.445246	0.542327	0.000016
H276	H	0.446177	0.450879	0.000018
H277	H	0.630597	-0.001858	0.125768
H278	H	0.510432	-0.121951	0.125783
