data_functionalizedCrystal
_audit_creation_method	'MofGen! by Chris Wilmer'
_symmetry_space_group_name_H-M	'P1'
_symmetry_Int_Tables_number	1
_symmetry_cell_setting	triclinic
loop_
_symmetry_equiv_pos_as_xyz
  x,y,z
_cell_length_a	16.776229
_cell_length_b	9.065218
_cell_length_c	9.065215
_cell_angle_alpha	94.984709
_cell_angle_beta	90.005650
_cell_angle_gamma	89.992815
loop_
_atom_site_label
_atom_site_type_symbol
_atom_site_fract_x
_atom_site_fract_y
_atom_site_fract_z
O1	O	0.066289	-1.960405	0.216361
O2	O	0.066289	-1.531120	0.234107
O3	O	0.066286	-1.754638	0.010591
O4	O	0.066292	-1.736887	0.439877
O5	O	-0.066291	-1.754607	0.010577
O6	O	-0.066287	-1.531089	0.234093
O7	O	-0.066288	-1.960374	0.216346
Zn8	Zn	-0.087337	-1.745727	0.225217
Zn9	Zn	0.087338	-1.745767	0.225236
O10	O	-0.066284	-1.736856	0.439862
C11	C	0.000001	-1.476118	0.232394
C12	C	0.000002	-1.312275	0.227295
N13	N	-0.206548	-1.745711	0.225204
C14	C	-0.000002	-1.752917	-0.044403
C15	C	0.000001	-1.747819	-0.208246
C16	C	-0.248267	-1.844715	0.126272
C17	C	-0.331719	-1.844724	0.126271
C18	C	-0.373451	-1.745733	0.225210
C19	C	-0.331726	-1.646717	0.324146
C20	C	-0.248276	-1.646703	0.324138
C21	C	-0.668274	-1.646771	0.324175
C22	C	-0.751730	-1.646796	0.324178
C23	C	-0.751717	-1.844792	0.126308
C24	C	-0.668266	-1.844777	0.126301
C25	C	-0.626549	-1.745757	0.225231
C26	C	-0.536061	-1.745748	0.225229
C27	C	-0.463938	-1.745749	0.225220
N28	N	0.206550	-1.745795	0.225238
C29	C	0.000002	-2.015376	0.218059
C30	C	0.000007	-2.179219	0.223159
C31	C	0.000005	-1.738576	0.494856
C32	C	0.000008	-1.743674	0.658699
H33	H	-0.214294	-1.925331	0.045712
O34	O	-0.796708	-1.951594	0.019590
H35	H	-0.834735	-1.888547	-0.053011
H36	H	-0.785707	-1.566180	0.404748
H37	H	-0.214309	-1.566082	0.404696
H38	H	-0.634314	-1.566148	0.404730
O39	O	-0.376731	-1.539950	0.430869
H40	H	-0.441769	-1.556603	0.414268
H41	H	-0.365686	-1.925340	0.045713
O42	O	-0.623253	-1.951536	0.019582
H43	H	-0.666284	-2.020373	-0.049225
