data_functionalizedCrystal
_audit_creation_method	'MofGen! by Chris Wilmer'
_symmetry_space_group_name_H-M	'P1'
_symmetry_Int_Tables_number	1
_symmetry_cell_setting	triclinic
loop_
_symmetry_equiv_pos_as_xyz
  x,y,z
_cell_length_a	14.044191
_cell_length_b	12.503552
_cell_length_c	14.044190
_cell_angle_alpha	93.836179
_cell_angle_beta	86.808223
_cell_angle_gamma	93.842477
loop_
_atom_site_label
_atom_site_type_symbol
_atom_site_fract_x
_atom_site_fract_y
_atom_site_fract_z
O1	O	1.282222	0.089291	-0.225150
O2	O	1.005550	0.089303	-0.216836
O3	O	1.139728	0.089276	-0.082658
O4	O	1.148043	0.089318	-0.359328
O5	O	1.129625	-0.089364	-0.092758
O6	O	0.995447	-0.089337	-0.226936
O7	O	1.272119	-0.089350	-0.235249
Cu8	Cu	1.132860	-0.105655	-0.232015
Cu9	Cu	1.144808	0.105608	-0.220071
O10	O	1.137940	-0.089323	-0.369428
C11	C	0.964876	-0.000016	-0.218249
C12	C	0.858733	-0.000012	-0.207402
C13	C	0.613276	-0.000014	-0.264503
C14	C	0.664399	-0.000023	-0.187587
C15	C	0.772536	-0.000017	-0.198615
C16	C	0.505129	-0.000020	-0.253476
N17	N	1.124464	-0.254246	-0.240416
C18	C	1.165558	-0.526687	-0.199302
C19	C	1.112120	-0.473352	-0.252774
C20	C	1.118990	-0.351430	-0.245896
C21	C	1.158689	-0.648621	-0.206179
C22	C	1.312792	-0.000029	-0.233836
C23	C	1.418936	-0.000026	-0.244683
C24	C	1.131040	-0.000047	-0.052086
C25	C	1.120192	-0.000056	0.054057
N26	N	1.153212	0.254199	-0.211663
C27	C	1.146629	0.000003	-0.400000
C28	C	1.157477	0.000019	-0.506142
C29	C	1.177295	-0.000017	0.299516
C30	C	1.100378	-0.000021	0.248393
C31	C	1.111405	-0.000040	0.140254
C32	C	1.166269	0.000003	0.407664
H33	H	0.650720	0.000001	-0.338629
C34	C	1.277437	-0.000048	0.248930
N35	N	1.352863	-0.000080	0.210816
C36	C	1.043354	-0.535366	-0.321608
N37	N	0.991566	-0.582079	-0.373457
C38	C	1.234322	-0.464674	-0.130475
N39	N	1.286112	-0.417954	-0.078633
H40	H	1.026246	-0.000011	0.285838
H41	H	0.626957	0.000041	-0.113450
