data_functionalizedCrystal
_audit_creation_method	'MofGen! by Chris Wilmer'
_symmetry_space_group_name_H-M	'P1'
_symmetry_Int_Tables_number	1
_symmetry_cell_setting	triclinic
loop_
_symmetry_equiv_pos_as_xyz
  x,y,z
_cell_length_a	25.639239
_cell_length_b	18.101398
_cell_length_c	18.101389
_cell_angle_alpha	89.975673
_cell_angle_beta	90.021003
_cell_angle_gamma	89.965450
loop_
_atom_site_label
_atom_site_type_symbol
_atom_site_fract_x
_atom_site_fract_y
_atom_site_fract_z
Zn1	Zn	-0.208272	-1.132079	0.418825
Zn2	Zn	0.291728	-0.632079	0.918825
Zn3	Zn	-0.295693	-1.131957	0.294978
Zn4	Zn	0.204307	-0.631957	0.794978
Zn5	Zn	-0.208266	-1.008238	0.294987
Zn6	Zn	0.291734	-0.508238	0.794987
Zn7	Zn	-0.295671	-1.008171	0.418767
Zn8	Zn	0.204329	-0.508171	0.918767
O9	O	-0.251975	-1.070111	0.356889
O10	O	0.248025	-0.570111	0.856889
O11	O	-0.219880	-1.235696	0.402418
O12	O	0.280120	-0.735696	0.902418
O13	O	-0.284103	-1.115522	0.191346
O14	O	0.215897	-0.615522	0.691346
O15	O	-0.135102	-1.024745	0.311442
O16	O	0.364898	-0.524745	0.811442
O17	O	-0.284108	-1.235606	0.311428
O18	O	0.215892	-0.735606	0.811428
O19	O	-0.135106	-1.115730	0.402426
O20	O	0.364894	-0.615730	0.902426
O21	O	-0.219871	-1.024626	0.191353
O22	O	0.280129	-0.524626	0.691353
O23	O	-0.219849	-0.904596	0.311385
O24	O	0.280151	-0.404596	0.811385
O25	O	-0.284070	-1.024630	0.522408
O26	O	0.215930	-0.524630	1.022408
O27	O	-0.284065	-0.904547	0.402326
O28	O	0.215935	-0.404547	0.902326
O29	O	-0.219858	-1.115665	0.522451
O30	O	0.280142	-0.615665	1.022451
O31	O	-0.368855	-1.115458	0.311371
O32	O	0.131145	-0.615458	0.811371
O33	O	-0.368839	-1.024512	0.402318
O34	O	0.131161	-0.524512	0.902318
C35	C	-0.387818	-1.069985	0.356853
C36	C	0.112182	-0.569985	0.856853
C37	C	-0.445932	-1.069998	0.356863
C38	C	0.054068	-0.569998	0.856863
C39	C	-0.251954	-0.877701	0.356851
C40	C	0.248046	-0.377701	0.856851
C41	C	-0.251958	-0.795387	0.356852
C42	C	0.248042	-0.295387	0.856852
C43	C	-0.251962	-1.070154	0.550051
C44	C	0.248038	-0.570154	1.050051
C45	C	-0.251957	-1.070172	0.632365
C46	C	0.248043	-0.570172	1.132365
C47	C	-0.697129	-1.022747	0.404230
C48	C	-0.197129	-0.522747	0.904230
C49	C	-0.642525	-1.022720	0.404222
C50	C	-0.142525	-0.522720	0.904222
O51	O	-0.614292	-0.982423	0.444470
O52	O	-0.114292	-0.482423	0.944470
N53	N	-0.615206	-1.070091	0.356902
N54	N	-0.115206	-0.570091	0.856902
C55	C	-0.642494	-1.117499	0.309593
C56	C	-0.142494	-0.617499	0.809593
O57	O	-0.614243	-1.157790	0.269343
O58	O	-0.114243	-0.657790	0.769343
C59	C	-0.697097	-1.117530	0.309605
C60	C	-0.197097	-0.617530	0.809605
C61	C	-0.724413	-1.070149	0.356923
C62	C	-0.224413	-0.570149	0.856923
C63	C	-0.724446	-0.975371	0.451545
C64	C	-0.224446	-0.475371	0.951545
C65	C	-0.779046	-0.975398	0.451552
C66	C	-0.279046	-0.475398	0.951552
C67	C	-0.806330	-1.022800	0.404245
C68	C	-0.306330	-0.522800	0.904245
C69	C	-0.779014	-1.070176	0.356931
C70	C	-0.279014	-0.570176	0.856931
C71	C	-0.724384	-1.164940	0.262301
C72	C	-0.224384	-0.664940	0.762301
C73	C	-0.778991	-1.164967	0.262318
C74	C	-0.278991	-0.664967	0.762318
C75	C	-0.806307	-1.117587	0.309636
C76	C	-0.306307	-0.617587	0.809636
C77	C	-0.860899	-1.117605	0.309631
C78	C	-0.360899	-0.617605	0.809631
N79	N	-0.888218	-1.070233	0.356951
N80	N	-0.388218	-0.570233	0.856951
C81	C	-0.860934	-1.022831	0.404258
C82	C	-0.360934	-0.522831	0.904258
C83	C	-0.527823	-1.117432	0.309570
C84	C	-0.027823	-0.617432	0.809570
C85	C	-0.473221	-1.117398	0.309553
C86	C	0.026779	-0.617398	0.809553
C87	C	-0.473256	-1.022620	0.404183
C88	C	0.026744	-0.522620	0.904183
C89	C	-0.527859	-1.022650	0.404196
C90	C	-0.027859	-0.522650	0.904196
C91	C	-0.555142	-1.070060	0.356890
C92	C	-0.055142	-0.570060	0.856890
C93	C	-0.975599	-1.022890	0.404270
C94	C	-0.475599	-0.522890	0.904270
C95	C	-1.030204	-1.022919	0.404271
C96	C	-0.530204	-0.522919	0.904271
C97	C	-1.030164	-1.117700	0.309643
C98	C	-0.530164	-0.617700	0.809643
C99	C	-0.975564	-1.117669	0.309639
C100	C	-0.475564	-0.617669	0.809639
C101	C	-0.948282	-1.070261	0.356958
C102	C	-0.448282	-0.570261	0.856958
O103	O	-0.889167	-1.157883	0.269405
O104	O	-0.389167	-0.657883	0.769405
O105	O	-0.889191	-0.982553	0.444508
O106	O	-0.389191	-0.482553	0.944508
C107	C	-0.115602	-1.070258	0.356941
C108	C	0.384398	-0.570258	0.856941
C109	C	-0.057488	-1.070321	0.356964
C110	C	0.442512	-0.570321	0.856964
C111	C	-0.251997	-1.263273	0.356928
C112	C	0.248003	-0.763273	0.856928
C113	C	-0.252006	-1.345587	0.356945
C114	C	0.247994	-0.845587	0.856945
C115	C	-0.251990	-0.496296	0.356914
C116	C	0.248010	0.003704	0.856914
C117	C	-0.211386	-0.527627	0.299976
C118	C	0.288614	-0.027627	0.799976
C119	C	-0.211495	-0.613245	0.299733
C120	C	0.288505	-0.113245	0.799733
C121	C	-0.251974	-0.644678	0.356883
C122	C	0.248026	-0.144678	0.856883
C123	C	-0.307048	-0.613549	0.335555
C124	C	0.192952	-0.113549	0.835555
C125	C	-0.306822	-0.527904	0.335159
C126	C	0.193178	-0.027904	0.835159
C127	C	-0.238000	-0.527913	0.435314
C128	C	0.262000	-0.027913	0.935314
C129	C	-0.236773	-0.613564	0.434886
C130	C	0.263227	-0.113564	0.934886
C131	C	-0.251968	-0.728538	0.356867
C132	C	0.248032	-0.228538	0.856867
C133	C	-0.252000	-0.412436	0.356928
C134	C	0.248000	0.087564	0.856928
C135	C	-0.251951	-1.070111	0.164479
C136	C	0.248049	-0.570111	0.664479
C137	C	-0.251809	-1.070236	0.082165
C138	C	0.248191	-0.570236	0.582165
C139	C	-0.251859	-1.070215	0.931457
C140	C	0.248141	-0.570215	1.431457
C141	C	-0.292130	-1.012742	0.900104
C142	C	0.207870	-0.512742	1.400104
C143	C	-0.292317	-1.012897	0.814486
C144	C	0.207683	-0.512897	1.314486
C145	C	-0.251907	-1.070193	0.783074
C146	C	0.248093	-0.570193	1.283074
C147	C	-0.266868	-1.148216	0.814179
C148	C	0.233132	-0.648216	1.314179
C149	C	-0.267132	-1.147895	0.899824
C150	C	0.232868	-0.647895	1.399824
C151	C	-0.196537	-1.050345	0.899884
C152	C	0.303463	-0.550345	1.399884
C153	C	-0.196856	-1.048609	0.814233
C154	C	0.303144	-0.548609	1.314233
C155	C	-0.251934	-1.070186	0.699214
C156	C	0.248066	-0.570186	1.199214
C157	C	-0.251833	-1.070228	1.015316
C158	C	0.248167	-0.570228	1.515316
H159	H	-0.953392	-0.984288	0.442802
H160	H	-0.453392	-0.484288	0.942802
N161	N	-1.058114	-0.974519	0.452598
N162	N	-0.558114	-0.474519	0.952598
N163	N	-1.088623	-0.927357	0.426499
N164	N	-0.588623	-0.427357	0.926499
H165	H	-1.108334	-0.893176	0.460629
H166	H	-0.608334	-0.393176	0.960629
H167	H	-0.550097	-0.984073	0.442730
H168	H	-0.050097	-0.484073	0.942730
N169	N	-0.280499	-0.939943	0.925927
N170	N	0.219501	-0.439943	1.425927
N171	N	-0.242395	-0.929565	0.967742
N172	N	0.257605	-0.429565	1.467742
H173	H	-0.234180	-0.878149	0.985986
H174	H	0.265820	-0.378149	1.485986
H175	H	-0.185574	-0.991192	0.793902
H176	H	0.314426	-0.491192	1.293902
N177	N	-0.806937	-0.926997	0.499893
N178	N	-0.306937	-0.426997	0.999893
N179	N	-0.782560	-0.884683	0.542126
N180	N	-0.282560	-0.384683	1.042126
H181	H	-0.802255	-0.850498	0.576272
H182	H	-0.302255	-0.350498	1.076272
H183	H	-0.319119	-0.634961	0.278859
H184	H	0.180881	-0.134961	0.778859
H185	H	-0.166532	-1.092207	0.920162
H186	H	0.333468	-0.592207	1.420162
N187	N	-0.222854	-0.500578	0.227526
N188	N	0.277146	-0.000578	0.727526
N189	N	-0.260801	-0.458326	0.217645
N190	N	0.239199	0.041674	0.717645
H191	H	-0.268903	-0.439220	0.166478
H192	H	0.231097	0.060780	0.666478
N193	N	-0.343733	-1.029433	0.788735
N194	N	0.156267	-0.529433	1.288735
N195	N	-0.367604	-0.984052	0.749109
N196	N	0.132396	-0.484052	1.249109
H197	H	-0.403912	-0.995753	0.730909
H198	H	0.096088	-0.495753	1.230909
H199	H	-0.318688	-0.507890	0.277845
H200	H	0.181312	-0.007890	0.777845
H201	H	-0.332886	-1.025729	0.921627
H202	H	0.167114	-0.525729	1.421627
H203	H	-0.170421	-0.507065	0.313198
H204	H	0.329579	-0.007065	0.813198
N205	N	-0.188502	-0.500855	0.459652
N206	N	0.311498	-0.000855	0.959652
N207	N	-0.181398	-0.432955	0.467114
N208	N	0.318602	0.067045	0.967114
H209	H	-0.146439	-0.413844	0.484296
H210	H	0.353561	0.086156	0.984296
H211	H	-0.550034	-1.156038	0.271041
H212	H	-0.050034	-0.656038	0.771041
H213	H	-0.450984	-1.155971	0.271014
H214	H	0.049016	-0.655971	0.771014
H215	H	-0.307573	-1.164742	0.919804
H216	H	0.192427	-0.664742	1.419804
H217	H	-0.702236	-0.936771	0.490071
H218	H	-0.202236	-0.436771	0.990071
N219	N	-0.223097	-0.638896	0.226852
N220	N	0.276903	-0.138896	0.726852
N221	N	-0.231143	-0.593546	0.176010
N222	N	0.268857	-0.093546	0.676010
H223	H	-0.239339	-0.611660	0.124535
H224	H	0.260661	-0.111660	0.624535
N225	N	-0.445372	-0.974206	0.452507
N226	N	0.054628	-0.474206	0.952507
N227	N	-0.396619	-0.974196	0.452489
N228	N	0.103381	-0.474196	0.952489
H229	H	-0.376924	-0.940008	0.486616
H230	H	0.123076	-0.440008	0.986616
N231	N	-0.231932	-1.203435	0.925838
N232	N	0.268068	-0.703435	1.425838
N233	N	-0.207251	-1.242313	0.880739
N234	N	0.292749	-0.742313	1.380739
H235	H	-0.182392	-1.281539	0.899108
H236	H	0.317608	-0.781539	1.399108
H237	H	-0.238457	-1.192187	0.793835
H238	H	0.261543	-0.692187	1.293835
H239	H	-0.702151	-1.203522	0.223771
H240	H	-0.202151	-0.703522	0.723771
H241	H	-0.801202	-1.203578	0.223797
H242	H	-0.301202	-0.703578	0.723797
N243	N	-0.947666	-1.166059	0.261291
N244	N	-0.447666	-0.666059	0.761291
N245	N	-0.972036	-1.208374	0.219052
N246	N	-0.472036	-0.708374	0.719052
H247	H	-0.952337	-1.242554	0.184908
H248	H	-0.452337	-0.742554	0.684908
N249	N	-1.058043	-1.166106	0.261313
N250	N	-0.558043	-0.666106	0.761313
N251	N	-1.088547	-1.140088	0.214105
N252	N	-0.588547	-0.640088	0.714105
H253	H	-1.108239	-1.174276	0.179973
H254	H	-0.608239	-0.674276	0.679973
N255	N	-0.160256	-0.639644	0.316482
N256	N	0.339744	-0.139644	0.816482
N257	N	-0.124165	-0.594816	0.328432
N258	N	0.375835	-0.094816	0.828432
H259	H	-0.087974	-0.613456	0.340251
H260	H	0.412026	-0.113456	0.840251
N261	N	-0.185929	-0.639094	0.455053
N262	N	0.314071	-0.139094	0.955053
N263	N	-0.160952	-0.680054	0.412178
N264	N	0.339048	-0.180054	0.912178
H265	H	-0.125043	-0.698090	0.426418
H266	H	0.374957	-0.198090	0.926418
N267	N	-0.346062	-0.501906	0.384912
N268	N	0.153938	-0.001906	0.884912
N269	N	-0.373530	-0.547018	0.419812
N270	N	0.126470	-0.047018	0.919812
H271	H	-0.401246	-0.528661	0.454945
H272	H	0.098754	-0.028661	0.954945
N273	N	-0.317060	-1.169711	0.787270
N274	N	0.182940	-0.669711	1.287270
N275	N	-0.341900	-1.127704	0.745195
N276	N	0.158100	-0.627704	1.245195
H277	H	-0.377349	-1.142881	0.726190
H278	H	0.122651	-0.642881	1.226190
H279	H	-0.338111	-0.633907	0.375728
H280	H	0.161889	-0.133907	0.875728
N281	N	-0.179432	-0.980219	0.926967
N282	N	0.320568	-0.480219	1.426967
N283	N	-0.174163	-0.970150	0.994872
N284	N	0.325837	-0.470150	1.494872
H285	H	-0.162086	-0.920621	1.014002
H286	H	0.337914	-0.420621	1.514002
N287	N	-0.271202	-0.640361	0.490944
N288	N	0.228798	-0.140361	0.990944
N289	N	-0.307665	-0.683017	0.474244
N290	N	0.192335	-0.183017	0.974244
H291	H	-0.331995	-0.701922	0.513829
H292	H	0.168005	-0.201922	1.013829
H293	H	-0.267575	-0.507650	0.477739
H294	H	0.232425	-0.007650	0.977739
N295	N	-0.157220	-1.097295	0.787404
N296	N	0.342780	-0.597295	1.287404
N297	N	-0.168953	-1.148926	0.744695
N298	N	0.331047	-0.648926	1.244695
H299	H	-0.140961	-1.183317	0.725747
H300	H	0.359039	-0.683317	1.225747
H301	H	-0.282955	-0.955040	0.793454
H302	H	0.217045	-0.455040	1.293454
