data_functionalizedCrystal
_audit_creation_method	'MofGen! by Chris Wilmer'
_symmetry_space_group_name_H-M	'P1'
_symmetry_Int_Tables_number	1
_symmetry_cell_setting	triclinic
loop_
_symmetry_equiv_pos_as_xyz
  x,y,z
_cell_length_a	19.076806
_cell_length_b	19.077105
_cell_length_c	18.215399
_cell_angle_alpha	87.683665
_cell_angle_beta	87.669684
_cell_angle_gamma	89.926089
loop_
_atom_site_label
_atom_site_type_symbol
_atom_site_fract_x
_atom_site_fract_y
_atom_site_fract_z
Zn1	Zn	-0.322999	1.063009	-0.447122
Zn2	Zn	0.177001	1.563009	0.052878
Zn3	Zn	-0.440515	1.058203	-0.318909
Zn4	Zn	0.059485	1.558203	0.181091
Zn5	Zn	-0.318293	0.945501	-0.319338
Zn6	Zn	0.181707	1.445501	0.180662
Zn7	Zn	-0.435747	0.940750	-0.437207
Zn8	Zn	0.064253	1.440750	0.062793
O9	O	-0.379389	1.001866	-0.380644
O10	O	0.120611	1.501866	0.119356
O11	O	-0.342553	1.160703	-0.434085
O12	O	0.157447	1.660703	0.065915
O13	O	-0.424328	1.043229	-0.215980
O14	O	0.075672	1.543229	0.284020
O15	O	-0.220582	0.965088	-0.340617
O16	O	0.279418	1.465088	0.159383
O17	O	-0.428891	1.157172	-0.339887
O18	O	0.071109	1.657172	0.160113
O19	O	-0.224039	1.051420	-0.434500
O20	O	0.275961	1.551420	0.065500
O21	O	-0.334532	0.960428	-0.216294
O22	O	0.165468	1.460428	0.283706
O23	O	-0.329909	0.846539	-0.331003
O24	O	0.170091	1.346539	0.168997
O25	O	-0.420765	0.956991	-0.541509
O26	O	0.079235	1.456991	-0.041509
O27	O	-0.416202	0.843049	-0.417601
O28	O	0.083798	1.343049	0.082399
O29	O	-0.337930	1.046814	-0.548793
O30	O	0.162070	1.546814	-0.048793
O31	O	-0.538218	1.038623	-0.330273
O32	O	-0.038218	1.538623	0.169727
O33	O	-0.534715	0.952331	-0.417186
O34	O	-0.034715	1.452331	0.082814
C35	C	-0.372028	0.819298	-0.373273
C36	C	0.127972	1.319298	0.126727
C37	C	-0.368896	0.741193	-0.370137
C38	C	0.131104	1.241193	0.129863
C39	C	-0.412421	0.702699	-0.413673
C40	C	0.087579	1.202699	0.086327
C41	C	-0.409469	0.629312	-0.410730
C42	C	0.090531	1.129312	0.089270
C43	C	-0.362995	0.594421	-0.364246
C44	C	0.137005	1.094421	0.135754
C45	C	-0.319466	0.632921	-0.320708
C46	C	0.180534	1.132921	0.179292
C47	C	-0.322415	0.706307	-0.323655
C48	C	0.177585	1.206307	0.176345
C49	C	-0.349347	0.375136	-0.350607
C50	C	0.150653	0.875136	0.149393
C51	C	-0.346403	0.301745	-0.347661
C52	C	0.153597	0.801745	0.152339
C53	C	-0.436405	0.298140	-0.437685
C54	C	0.063595	0.798140	0.062315
C55	C	-0.439353	0.371527	-0.440625
C56	C	0.060647	0.871527	0.059375
C57	C	-0.395821	0.410021	-0.397090
C58	C	0.104179	0.910021	0.102910
N59	N	-0.359978	0.519408	-0.361234
N60	N	0.140022	1.019408	0.138766
N61	N	-0.398835	0.485033	-0.400106
N62	N	0.101165	0.985033	0.099894
C63	C	-0.561965	0.994459	-0.372624
C64	C	-0.061965	1.494459	0.127376
C65	C	-0.640074	0.991355	-0.369220
C66	C	-0.140074	1.491355	0.130780
C67	C	-1.079560	0.969042	-0.344832
C68	C	-0.579560	1.469042	0.155168
C69	C	-1.006168	0.971960	-0.348030
C70	C	-0.506168	1.471960	0.151970
C71	C	-0.971211	1.018337	-0.398544
C72	C	-0.471211	1.518337	0.101456
C73	C	-1.009651	1.061794	-0.445869
C74	C	-0.509651	1.561794	0.054131
C75	C	-1.083041	1.058871	-0.442673
C76	C	-0.583041	1.558871	0.057327
C77	C	-0.751904	1.031890	-0.413349
C78	C	-0.251904	1.531890	0.086651
C79	C	-0.678508	1.034810	-0.416539
C80	C	-0.178508	1.534810	0.083461
C81	C	-0.675031	0.944975	-0.318701
C82	C	-0.175031	1.444975	0.181299
C83	C	-0.748423	0.942060	-0.315507
C84	C	-0.248423	1.442060	0.184493
C85	C	-0.786855	0.985514	-0.362834
C86	C	-0.286855	1.485514	0.137166
N87	N	-0.896193	1.021322	-0.401813
N88	N	-0.396193	1.521322	0.098187
N89	N	-0.861872	0.982524	-0.359568
N90	N	-0.361872	1.482524	0.140432
C91	C	-0.196100	1.009320	-0.388713
C92	C	0.303900	1.509320	0.111287
C93	C	-0.117994	1.012497	-0.392151
C94	C	0.382006	1.512497	0.107849
C95	C	-0.379341	1.001909	-0.572601
C96	C	0.120659	1.501909	-0.072601
C97	C	-0.379320	1.001927	-0.654402
C98	C	0.120680	1.501927	-0.154402
C99	C	-0.386778	1.185146	-0.388044
C100	C	0.113222	1.685146	0.111956
C101	C	-0.389927	1.263250	-0.391198
C102	C	0.110073	1.763250	0.108802
C103	C	-0.336128	1.048726	-0.923257
C104	C	0.163872	1.548726	-0.423257
C105	C	-0.336147	1.048717	-0.846397
C106	C	0.163853	1.548717	-0.346397
C107	C	-0.422413	0.955189	-0.838801
C108	C	0.077587	1.455189	-0.338801
C109	C	-0.422397	0.955202	-0.915660
C110	C	0.077603	1.455202	-0.415660
C111	C	-0.379251	1.001970	-0.957886
C112	C	0.120749	1.501970	-0.457886
C113	C	-0.379285	1.001948	-0.804167
C114	C	0.120715	1.501948	-0.304167
C115	C	-0.379305	1.001938	-0.720832
C116	C	0.120695	1.501938	-0.220832
C117	C	-0.379231	1.001981	-1.041226
C118	C	0.120769	1.501981	-0.541226
C119	C	-0.379388	1.001865	-0.189438
C120	C	0.120612	1.501865	0.310562
C121	C	-0.379216	1.001991	-0.107652
C122	C	0.120784	1.501991	0.392348
H123	H	-0.281623	0.604508	-0.282862
H124	H	0.218377	1.104508	0.217138
F125	F	-0.468301	0.905439	-0.952516
F126	F	0.031699	1.405439	-0.452516
H127	H	-0.471845	0.266791	-0.473130
H128	H	0.028155	0.766791	0.026870
F129	F	-0.461888	0.739825	-0.463145
F130	F	0.038112	1.239825	0.036855
F131	F	-0.488818	0.408655	-0.490098
F132	F	0.011182	0.908655	0.009902
H133	H	-0.457540	0.917112	-0.804412
H134	H	0.042460	1.417112	-0.304412
H135	H	-0.444912	0.597972	-0.446181
H136	H	0.055088	1.097972	0.053819
F137	F	-0.641306	1.084175	-0.470304
F138	F	-0.141306	1.584175	0.029696
F139	F	-0.785621	0.892698	-0.261743
F140	F	-0.285621	1.392698	0.238257
F141	F	-0.972445	1.111146	-0.499637
F142	F	-0.472445	1.611146	0.000363
F143	F	-0.296942	0.264613	-0.298180
F144	F	0.203058	0.764613	0.201820
F145	F	-0.303015	0.416094	-0.304275
F146	F	0.196985	0.916094	0.195725
H147	H	-0.643732	0.909596	-0.280170
H148	H	-0.143732	1.409596	0.219830
F149	F	-0.792797	1.078132	-0.463724
F150	F	-0.292797	1.578132	0.036276
F151	F	-0.965267	0.925701	-0.297673
F152	F	-0.465267	1.425701	0.202327
F153	F	-0.276089	0.747276	-0.277319
F154	F	0.223911	1.247276	0.222681
F155	F	-1.123945	1.105121	-0.493038
F156	F	-0.623945	1.605121	0.006962
H157	H	-0.301033	1.086792	-0.818206
H158	H	0.198967	1.586792	-0.318206
F159	F	-1.116757	0.919684	-0.291063
F160	F	-0.616757	1.419684	0.208937
F161	F	-0.290207	1.098499	-0.968195
F162	F	0.209793	1.598499	-0.468195
