data_functionalizedCrystal
_audit_creation_method	'MofGen! by Chris Wilmer'
_symmetry_space_group_name_H-M	'P1'
_symmetry_Int_Tables_number	1
_symmetry_cell_setting	triclinic
loop_
_symmetry_equiv_pos_as_xyz
  x,y,z
_cell_length_a	16.959455
_cell_length_b	16.959454
_cell_length_c	18.215399
_cell_angle_alpha	90.023696
_cell_angle_beta	90.024615
_cell_angle_gamma	90.017095
loop_
_atom_site_label
_atom_site_type_symbol
_atom_site_fract_x
_atom_site_fract_y
_atom_site_fract_z
Zn1	Zn	1.208417	-0.314752	0.416232
Zn2	Zn	1.208330	-0.446938	0.293174
Zn3	Zn	1.076236	-0.314770	0.293169
Zn4	Zn	1.076210	-0.446886	0.416189
O5	O	1.142298	-0.380837	0.354691
O6	O	1.319016	-0.332301	0.399928
O7	O	1.190781	-0.429435	0.190189
O8	O	1.093817	-0.204157	0.309509
O9	O	1.318952	-0.429417	0.309518
O10	O	1.190930	-0.204144	0.399922
O11	O	1.093732	-0.332332	0.190185
O12	O	0.965621	-0.332282	0.309467
O13	O	1.093773	-0.429329	0.519179
O14	O	0.965603	-0.429346	0.399850
O15	O	1.190905	-0.332251	0.519210
O16	O	1.190756	-0.557542	0.309477
O17	O	1.093689	-0.557504	0.399855
C18	C	0.936932	-0.380811	0.354654
C19	C	0.849075	-0.380819	0.354655
C20	C	1.142232	-0.586203	0.354678
C21	C	1.142276	-0.674060	0.354698
C22	C	0.477556	-0.431355	0.307591
C23	C	0.477644	-0.330384	0.401881
C24	C	0.560190	-0.330371	0.401863
C25	C	0.601422	-0.380852	0.354709
C26	C	0.560109	-0.431345	0.307573
C27	C	0.601509	-0.279884	0.449003
C28	C	0.684060	-0.279870	0.448988
C29	C	0.725294	-0.330347	0.401830
C30	C	0.683976	-0.380842	0.354691
C31	C	0.725208	-0.431322	0.307537
C32	C	0.683892	-0.481814	0.260394
C33	C	0.601343	-0.481822	0.260415
C34	C	0.807842	-0.330338	0.401809
C35	C	0.807762	-0.431312	0.307519
C36	C	1.091828	-1.045545	0.401746
C37	C	1.192988	-1.045525	0.307711
C38	C	1.192960	-0.962979	0.307704
C39	C	1.142365	-0.921712	0.354718
C40	C	1.091797	-0.962992	0.401739
C41	C	1.243522	-0.921694	0.260679
C42	C	1.243495	-0.839143	0.260670
C43	C	1.192903	-0.797875	0.307688
C44	C	1.142334	-0.839159	0.354711
C45	C	1.091739	-0.797892	0.401725
C46	C	1.041173	-0.839175	0.448753
C47	C	1.041205	-0.921724	0.448757
C48	C	1.192871	-0.715326	0.307684
C49	C	1.091708	-0.715339	0.401718
C50	C	1.348466	-0.380863	0.354729
C51	C	1.436323	-0.380874	0.354745
C52	C	1.142346	-0.380782	0.546644
C53	C	1.142367	-0.380759	0.628443
C54	C	1.142386	-0.174668	0.354720
C55	C	1.142424	-0.086812	0.354732
C56	C	1.142296	-0.380834	0.163485
C57	C	1.142428	-0.380634	0.081686
C58	C	1.192961	-0.330163	0.816654
C59	C	1.192971	-0.330140	0.893513
C60	C	1.091828	-0.431232	0.893469
C61	C	1.091815	-0.431251	0.816612
C62	C	1.142386	-0.380717	0.778206
C63	C	1.142409	-0.380676	0.931923
C64	C	1.142418	-0.380651	1.015256
C65	C	1.142376	-0.380741	0.694867
H66	H	0.841328	-0.472418	0.269118
F67	F	1.246805	-0.276338	0.934429
F68	F	0.728025	-0.226132	0.499160
H69	H	0.999974	-0.805566	0.487029
F70	F	1.038012	-0.485014	0.934350
H71	H	1.234138	-0.289013	0.785387
H72	H	1.050625	-0.472418	0.785307
F73	F	0.557622	-0.226172	0.499193
F74	F	0.851811	-0.276609	0.451982
H75	H	0.717474	-0.522919	0.222005
H76	H	1.284708	-0.955299	0.222397
F77	F	0.557366	-0.535555	0.210248
F78	F	0.433584	-0.485086	0.257417
F79	F	0.433759	-0.276670	0.452069
H80	H	1.234176	-1.079129	0.269430
F81	F	1.037860	-0.671426	0.451762
H82	H	1.284669	-0.805535	0.222378
H83	H	1.000037	-0.955343	0.487044
H84	H	1.050661	-1.079161	0.440037
H85	H	1.234037	-0.681718	0.269391
