data_functionalizedCrystal
_audit_creation_method	'MofGen! by Chris Wilmer'
_symmetry_space_group_name_H-M	'P1'
_symmetry_Int_Tables_number	1
_symmetry_cell_setting	triclinic
loop_
_symmetry_equiv_pos_as_xyz
  x,y,z
_cell_length_a	14.971486
_cell_length_b	11.892095
_cell_length_c	14.971486
_cell_angle_alpha	93.893650
_cell_angle_beta	96.385871
_cell_angle_gamma	93.898778
loop_
_atom_site_label
_atom_site_type_symbol
_atom_site_fract_x
_atom_site_fract_y
_atom_site_fract_z
O1	O	1.192650	0.093873	-0.110858
O2	O	0.932251	0.093904	-0.124815
O3	O	1.069429	0.093880	0.012363
O4	O	1.055472	0.093898	-0.248036
O5	O	1.057992	-0.094126	0.000943
O6	O	0.920814	-0.094101	-0.136235
O7	O	1.181212	-0.094132	-0.122278
Zn8	Zn	1.049197	-0.123967	-0.131070
Zn9	Zn	1.064267	0.123739	-0.116024
O10	O	1.044034	-0.094108	-0.259456
C11	C	0.893208	-0.000095	-0.129901
C12	C	0.793912	-0.000083	-0.128029
N13	N	1.038919	-0.293019	-0.141338
C14	C	0.736687	-0.000079	-0.208618
C15	C	0.643386	-0.000096	-0.206856
C16	C	0.607313	-0.000109	-0.124504
C17	C	0.664545	-0.000116	-0.043909
C18	C	0.757843	-0.000107	-0.045672
C19	C	0.470082	-0.000132	-0.040239
C20	C	0.376777	-0.000139	-0.038475
C21	C	0.355625	-0.000121	-0.201423
C22	C	0.448923	-0.000112	-0.203186
C23	C	0.506149	-0.000117	-0.122591
C24	C	1.146071	-0.529686	-0.034246
C25	C	1.138893	-0.648026	-0.041430
C26	C	1.017382	-0.648043	-0.162885
C27	C	1.024560	-0.529702	-0.155701
C28	C	1.088907	-0.470528	-0.091381
C29	C	1.096089	-0.352185	-0.084202
C30	C	0.974573	-0.352204	-0.205652
C31	C	0.967396	-0.470544	-0.212835
C32	C	1.220256	-0.000131	-0.117193
C33	C	1.319552	-0.000135	-0.119064
C34	C	1.063086	-0.000123	0.039977
C35	C	1.061216	-0.000121	0.139275
N36	N	1.074552	0.292791	-0.105748
C37	C	1.050377	-0.000103	-0.287071
C38	C	1.052248	-0.000097	-0.386368
C39	C	1.141804	-0.000132	0.196499
C40	C	1.140042	-0.000120	0.289799
C41	C	1.057690	-0.000106	0.325873
C42	C	0.977095	-0.000092	0.268641
C43	C	0.978859	-0.000096	0.175343
C44	C	0.973424	-0.000088	0.463103
C45	C	0.971660	-0.000087	0.556408
C46	C	1.134607	-0.000112	0.577560
C47	C	1.136371	-0.000116	0.484262
C48	C	1.055776	-0.000104	0.427037
H49	H	0.766050	-0.000068	-0.275679
N50	N	0.947986	-0.711864	-0.232263
H51	H	0.885743	-0.691279	-0.220616
H52	H	0.952188	-0.795790	-0.228114
H53	H	0.915003	-0.518738	-0.265202
H54	H	0.596797	-0.000092	-0.272480
H55	H	0.804436	-0.000110	0.019952
H56	H	1.148486	-0.304006	-0.031831
N57	N	1.200558	-0.711833	0.020184
H58	H	1.163365	-0.760942	0.056866
H59	H	1.242397	-0.656311	0.061959
H60	H	0.516673	-0.000138	0.025391
H61	H	0.478291	-0.000091	-0.270244
N62	N	1.221538	-0.000117	0.639275
H63	H	1.253217	-0.069821	0.623435
H64	H	1.207857	-0.000064	0.703830
H65	H	1.205665	-0.000131	0.336389
H66	H	1.208865	-0.000150	0.167136
N67	N	0.886506	-0.000081	0.401367
H68	H	0.854812	0.069614	0.417200
H69	H	0.846411	-0.069820	0.408772
N70	N	0.293938	-0.000142	-0.288375
H71	H	0.258975	0.069538	-0.287072
H72	H	0.250592	-0.069896	-0.295473
H73	H	0.635166	-0.000143	0.023143
H74	H	0.347410	-0.000151	0.028584
H75	H	1.198472	-0.481505	0.018120
H76	H	0.910043	-0.000074	0.298019
N77	N	1.225189	-0.000123	0.445346
H78	H	1.225310	-0.069818	0.402878
H79	H	1.275932	-0.000083	0.495802
H80	H	0.904600	-0.000093	0.585774
N81	N	0.891939	-0.000078	0.113618
H82	H	0.839501	-0.000070	0.150625
H83	H	0.884879	-0.069772	0.070215
H84	H	0.928029	-0.304024	-0.252177
