data_functionalizedCrystal
_audit_creation_method	'MofGen! by Chris Wilmer'
_symmetry_space_group_name_H-M	'P1'
_symmetry_Int_Tables_number	1
_symmetry_cell_setting	triclinic
loop_
_symmetry_equiv_pos_as_xyz
  x,y,z
_cell_length_a	19.188933
_cell_length_b	19.188930
_cell_length_c	16.098538
_cell_angle_alpha	92.708456
_cell_angle_beta	87.271982
_cell_angle_gamma	83.145175
loop_
_atom_site_label
_atom_site_type_symbol
_atom_site_fract_x
_atom_site_fract_y
_atom_site_fract_z
O1	O	0.929279	0.084045	-0.069237
O2	O	0.725968	0.095777	-0.069246
O3	O	0.833490	-0.011744	-0.069225
O4	O	0.821757	0.191566	-0.069258
O5	O	0.827209	-0.005487	0.069286
O6	O	0.719687	0.102034	0.069265
O7	O	0.922998	0.090301	0.069274
Zn8	Zn	0.820345	0.097161	0.091262
Zn9	Zn	0.828621	0.088918	-0.091234
O10	O	0.815476	0.197822	0.069253
C11	C	0.696817	0.098525	0.000009
C12	C	0.619312	0.097384	0.000006
C13	C	0.069480	0.085829	-0.075487
C14	C	0.142305	0.086897	-0.075490
C15	C	0.175298	0.090845	0.000012
C16	C	0.135463	0.093706	0.075524
C17	C	0.062641	0.092631	0.075525
N18	N	0.281770	0.134801	0.056206
N19	N	0.350948	0.135824	0.056199
C20	C	0.394707	0.094083	0.000013
N21	N	0.366674	0.051288	-0.056179
N22	N	0.297489	0.050269	-0.056175
C23	C	0.254261	0.092010	0.000019
C24	C	0.513498	0.092374	-0.075497
C25	C	0.586324	0.093438	-0.075497
C26	C	0.579480	0.100254	0.075519
C27	C	0.506656	0.099183	0.075517
C28	C	0.473669	0.095246	0.000007
C29	C	0.829969	-0.034626	0.000033
C30	C	0.828828	-0.112131	0.000040
C31	C	0.891919	-0.157054	0.000047
C32	C	0.890848	-0.229878	0.000033
C33	C	0.826682	-0.257775	0.000030
C34	C	0.763583	-0.212842	0.000018
C35	C	0.764657	-0.140020	0.000024
N36	N	0.775497	-0.363652	0.047166
N37	N	0.774482	-0.432830	0.047163
C38	C	0.823445	-0.477185	0.000013
N39	N	0.873471	-0.449748	-0.047123
N40	N	0.874488	-0.380563	-0.047117
C41	C	0.825511	-0.336738	0.000024
C42	C	0.885378	-0.601073	0.000004
C43	C	0.884305	-0.673899	-0.000015
C44	C	0.757038	-0.656861	-0.000021
C45	C	0.758114	-0.584037	-0.000011
C46	C	0.822285	-0.556148	0.000006
C47	C	0.952149	0.087553	0.000018
C48	C	1.029654	0.088694	0.000015
C49	C	0.818997	0.220705	-0.000007
C50	C	0.820138	0.298209	-0.000019
N51	N	0.814703	0.102786	0.215810
N52	N	0.834269	0.083287	-0.215782
C53	C	0.860356	0.057166	0.259404
C54	C	0.856415	0.061108	0.346592
C55	C	0.806824	0.110673	0.390184
C56	C	0.761166	0.156295	0.346584
C57	C	0.765104	0.152350	0.259398
C58	C	0.792549	0.124964	0.653432
C59	C	0.788616	0.128907	0.740624
C60	C	0.883864	0.033718	0.740626
C61	C	0.887801	0.029780	0.653438
C62	C	0.842140	0.075400	0.609845
C63	C	0.802796	0.114705	0.479305
C64	C	0.846165	0.071364	0.520726
H65	H	0.618751	0.091099	-0.136982
C66	C	0.960255	-0.279302	0.000046
N67	N	1.012532	-0.316527	0.000058
H68	H	0.720785	0.196651	0.382082
C69	C	0.693000	-0.243531	0.000021
N70	N	0.639835	-0.266644	0.000022
H71	H	0.042627	0.082620	-0.136973
C72	C	0.688708	-0.534619	-0.000014
N73	N	0.636428	-0.497398	-0.000019
C74	C	0.477211	0.088034	-0.158559
N75	N	0.449882	0.084765	-0.221122
C76	C	0.714888	0.202541	0.211445
N77	N	0.677063	0.240348	0.175328
C78	C	0.900708	0.016837	0.472772
N79	N	0.941790	-0.024232	0.436645
H80	H	0.935683	-0.710476	-0.000014
H81	H	0.762420	0.155063	0.514805
C82	C	0.186121	0.083752	-0.158551
N83	N	0.219121	0.081387	-0.221112
H84	H	0.713279	-0.103443	0.000018
H85	H	0.162331	0.096919	0.136998
H86	H	0.606343	0.103466	0.136994
H87	H	0.474229	0.101519	0.136998
C88	C	0.942351	-0.024750	0.605492
N89	N	0.983440	-0.065822	0.569380
H90	H	0.030214	0.094968	0.137009
H91	H	0.944173	-0.134351	0.000057
H92	H	0.921038	-0.003424	0.776127
C93	C	0.686454	-0.687544	-0.000028
N94	N	0.633289	-0.710657	-0.000035
H95	H	0.937631	-0.578365	0.000014
C96	C	0.914910	0.002639	0.211460
N97	N	0.956000	-0.038434	0.175351
C98	C	0.734057	0.183434	0.788575
N99	N	0.692966	0.224501	0.824691
H100	H	0.893589	0.023960	0.382086
H101	H	0.755371	0.162111	0.617945
