data_functionalizedCrystal
_audit_creation_method	'MofGen! by Chris Wilmer'
_symmetry_space_group_name_H-M	'P1'
_symmetry_Int_Tables_number	1
_symmetry_cell_setting	triclinic
loop_
_symmetry_equiv_pos_as_xyz
  x,y,z
_cell_length_a	11.169417
_cell_length_b	11.169416
_cell_length_c	14.908854
_cell_angle_alpha	86.680204
_cell_angle_beta	86.718053
_cell_angle_gamma	89.985662
loop_
_atom_site_label
_atom_site_type_symbol
_atom_site_fract_x
_atom_site_fract_y
_atom_site_fract_z
Zn1	Zn	1.795741	0.438586	0.510063
Zn2	Zn	1.807213	0.650884	0.359226
Zn3	Zn	1.606619	0.450218	0.359229
Zn4	Zn	1.595026	0.639231	0.510047
O5	O	1.701150	0.544730	0.434641
O6	O	1.965212	0.466756	0.490060
O7	O	1.790256	0.634011	0.232983
O8	O	1.631757	0.280725	0.379245
O9	O	1.973640	0.622731	0.379241
O10	O	1.770704	0.272178	0.490063
O11	O	1.642880	0.486582	0.232985
O12	O	1.437132	0.475282	0.379229
O13	O	1.611999	0.602870	0.636293
O14	O	1.428615	0.614149	0.490034
O15	O	1.759463	0.455457	0.636305
O16	O	1.779015	0.817289	0.379225
O17	O	1.623122	0.808727	0.490032
C18	C	1.389326	0.544714	0.434631
C19	C	1.255924	0.544735	0.434648
C20	C	1.701087	0.856554	0.434646
C21	C	1.701167	0.989952	0.434678
C22	C	2.014191	0.544746	0.434652
C23	C	2.147591	0.544753	0.434657
C24	C	1.683158	0.526566	0.669947
C25	C	1.675492	0.518825	0.770221
C26	C	1.701231	1.231686	0.434665
C27	C	1.701233	1.098283	0.434700
C28	C	1.719140	0.562736	0.200250
C29	C	1.727039	0.570139	0.099977
C30	C	1.814575	0.657794	0.958646
C31	C	1.807375	0.650525	1.052861
C32	C	1.653900	0.497013	1.052870
C33	C	1.661099	0.504282	0.958655
C34	C	1.741438	0.584677	0.911545
C35	C	1.748631	0.591951	0.817328
C36	C	1.595162	0.438433	0.817338
C37	C	1.587963	0.431164	0.911554
H38	H	1.879995	0.723249	0.920288
H39	H	1.814053	0.657407	0.778973
O40	O	1.878466	0.721678	1.098475
C41	C	1.950937	0.794167	1.036688
H42	H	1.906910	0.803504	0.969527
H43	H	2.042864	0.750988	1.026672
C44	C	2.019472	0.907599	1.155937
C45	C	1.965391	0.919075	1.073450
H46	H	2.028394	0.984646	1.178614
H47	H	1.970651	0.858759	1.197565
H48	H	2.096072	0.871611	1.147580
H49	H	1.888787	0.955047	1.081811
H50	H	2.014201	0.967923	1.031824
H51	H	1.588499	0.431553	1.091243
H52	H	1.522556	0.365707	0.949924
H53	H	1.535608	0.378897	0.778980
