data_functionalizedCrystal
_audit_creation_method	'MofGen! by Chris Wilmer'
_symmetry_space_group_name_H-M	'P1'
_symmetry_Int_Tables_number	1
_symmetry_cell_setting	triclinic
loop_
_symmetry_equiv_pos_as_xyz
  x,y,z
_cell_length_a	19.188900
_cell_length_b	17.666332
_cell_length_c	14.519709
_cell_angle_alpha	90.007412
_cell_angle_beta	96.593683
_cell_angle_gamma	89.982262
loop_
_atom_site_label
_atom_site_type_symbol
_atom_site_fract_x
_atom_site_fract_y
_atom_site_fract_z
O1	O	-0.926572	0.063097	0.115005
O2	O	-0.723314	0.063066	0.130533
O3	O	-0.830332	0.063076	-0.011504
O4	O	-0.819554	0.063088	0.257042
O5	O	-0.830313	-0.062821	-0.011511
O6	O	-0.723295	-0.062830	0.130525
O7	O	-0.926554	-0.062800	0.114997
Cu8	Cu	-0.824922	-0.074311	0.122761
Cu9	Cu	-0.824945	0.074577	0.122770
O10	O	-0.819535	-0.062809	0.257034
C11	C	-0.697291	0.000114	0.130031
C12	C	-0.619780	0.000102	0.128535
N13	N	-0.824912	-0.179030	0.122754
C14	C	-0.583396	0.068730	0.127821
C15	C	-0.510567	0.068737	0.126406
C16	C	-0.474127	0.000113	0.125686
C17	C	-0.510519	-0.068523	0.126405
C18	C	-0.583346	-0.068529	0.127830
N19	N	-0.364904	-0.050961	0.070964
N20	N	-0.295722	-0.050951	0.069609
C21	C	-0.254704	0.000126	0.121395
N22	N	-0.285484	0.051205	0.174576
N23	N	-0.354672	0.051197	0.175927
C24	C	-0.395159	0.000112	0.124141
C25	C	-0.139351	0.068767	0.119147
C26	C	-0.066520	0.068771	0.117737
C27	C	-0.066475	-0.068491	0.117728
C28	C	-0.139303	-0.068494	0.119147
C29	C	-0.175737	0.000137	0.119852
C30	C	-0.872315	-0.218636	0.059891
C31	C	-0.872319	-0.297883	0.059886
C32	C	-0.824927	-0.337522	0.122761
C33	C	-0.777515	-0.297907	0.185629
C34	C	-0.777507	-0.218661	0.185625
N35	N	-0.816141	-0.461938	0.204400
N36	N	-0.816152	-0.537218	0.204401
C37	C	-0.824945	-0.576286	0.122774
N38	N	-0.833740	-0.537230	0.041144
N39	N	-0.833732	-0.461942	0.041144
C40	C	-0.824929	-0.423451	0.122771
C41	C	-0.872355	-0.701821	0.059900
C42	C	-0.872355	-0.781070	0.059895
C43	C	-0.777553	-0.781092	0.185645
C44	C	-0.777551	-0.701845	0.185643
C45	C	-0.824955	-0.662214	0.122772
C46	C	0.047424	0.000148	0.115505
C47	C	-0.030085	0.000147	0.117019
C48	C	-0.829820	0.000127	-0.045864
C49	C	-0.828315	0.000126	-0.148236
N50	N	-0.824961	0.179296	0.122769
C51	C	-0.822774	0.000145	-0.523096
C52	C	-0.824313	0.000140	-0.418798
C53	C	-0.825544	0.000135	-0.335669
C54	C	-0.827083	0.000131	-0.231365
C55	C	-0.820047	0.000141	0.291394
C56	C	-0.821552	0.000147	0.393766
H57	H	-0.613056	0.124614	0.128395
N58	N	-0.473289	-0.138614	0.125680
N59	N	-0.408266	-0.138600	0.124408
H60	H	-0.381970	-0.188104	0.123900
H61	H	-0.910953	-0.669552	0.008704
N62	N	-0.920778	-0.821517	-0.004336
N63	N	-0.963095	-0.786119	-0.060464
H64	H	-0.997295	-0.814685	-0.105829
N65	N	-0.920721	-0.178143	-0.004337
N66	N	-0.920707	-0.107389	-0.004339
H67	H	-0.954891	-0.078788	-0.049702
H68	H	-0.480937	0.124624	0.125825
N69	N	-0.729104	-0.338405	0.249842
N70	N	-0.729117	-0.409160	0.249838
H71	H	-0.694924	-0.437762	0.295187
H72	H	-0.612969	-0.124415	0.128413
N73	N	-0.729140	-0.821584	0.249856
N74	N	-0.729148	-0.892339	0.249848
H75	H	-0.694953	-0.920941	0.295195
N76	N	-0.920736	-0.338355	-0.004335
N77	N	-0.919685	-0.329529	-0.089578
H78	H	-0.953879	-0.358112	-0.134934
N79	N	-0.176562	0.138874	0.119867
N80	N	-0.144062	0.200146	0.119237
H81	H	-0.170340	0.249661	0.119745
N82	N	-0.029361	0.138884	0.117021
N83	N	-0.061904	0.200151	0.117654
H84	H	-0.035660	0.249670	0.117150
N85	N	-0.029249	-0.138583	0.117012
N86	N	0.035776	-0.138570	0.115752
H87	H	0.062071	-0.188074	0.115254
H88	H	-0.168928	-0.124377	0.119722
N89	N	-0.729077	-0.178212	0.249846
N90	N	-0.686760	-0.213608	0.305975
H91	H	-0.652555	-0.185041	0.351333
N92	N	-0.729124	-0.661396	0.249864
N93	N	-0.686809	-0.696793	0.305995
H94	H	-0.652604	-0.668227	0.351353
