data_functionalizedCrystal
_audit_creation_method	'MofGen! by Chris Wilmer'
_symmetry_space_group_name_H-M	'P1'
_symmetry_Int_Tables_number	1
_symmetry_cell_setting	triclinic
loop_
_symmetry_equiv_pos_as_xyz
  x,y,z
_cell_length_a	10.654550
_cell_length_b	19.188930
_cell_length_c	9.130313
_cell_angle_alpha	89.990369
_cell_angle_beta	89.999724
_cell_angle_gamma	83.814856
loop_
_atom_site_label
_atom_site_type_symbol
_atom_site_fract_x
_atom_site_fract_y
_atom_site_fract_z
O1	O	1.665764	0.098062	-0.121709
O2	O	1.300088	0.107405	-0.121737
O3	O	1.493479	0.001147	-0.121693
O4	O	1.472374	0.204320	-0.121752
O5	O	1.493466	0.001143	0.121905
O6	O	1.300075	0.107401	0.121862
O7	O	1.665751	0.098059	0.121890
Cu8	Cu	1.482912	0.102730	0.144118
Cu9	Cu	1.482928	0.102734	-0.143965
O10	O	1.472361	0.204317	0.121847
C11	C	1.253298	0.106717	0.000059
C12	C	1.113898	0.104665	0.000049
C13	C	1.033089	0.167228	0.000035
C14	C	0.902109	0.165295	0.000061
C15	C	0.932761	0.038231	0.000109
C16	C	1.063738	0.040164	0.000094
C17	C	1.492789	-0.024870	0.000110
C18	C	1.490737	-0.102388	0.000123
C19	C	1.604213	-0.146570	0.000138
C20	C	1.602285	-0.219407	0.000115
C21	C	1.486876	-0.248058	0.000105
C22	C	1.373386	-0.203866	0.000081
C23	C	1.375316	-0.131032	0.000090
N24	N	1.398655	-0.356641	0.082999
N25	N	1.396828	-0.425831	0.082994
C26	C	1.481052	-0.467505	0.000075
N27	N	1.567190	-0.437375	-0.082821
N28	N	1.569020	-0.368178	-0.082809
C29	C	1.484770	-0.327034	0.000094
C30	C	1.592445	-0.590665	0.000063
C31	C	1.590513	-0.663502	0.000030
C32	C	1.361610	-0.647960	0.000011
C33	C	1.363545	-0.575124	0.000029
C34	C	1.478966	-0.546481	0.000062
C35	C	1.712541	0.098746	0.000091
C36	C	1.851941	0.100799	0.000091
C37	C	1.473051	0.230334	0.000040
C38	C	1.475102	0.307852	0.000018
N39	N	1.482910	0.102727	0.346741
N40	N	1.482939	0.102731	-0.346588
C41	C	1.568572	0.055696	0.423412
C42	C	1.568584	0.055696	0.576749
C43	C	1.397268	0.149764	0.576730
C44	C	1.397251	0.149760	0.423396
H45	H	1.073924	0.219748	0.000010
N46	N	1.722119	-0.117324	0.000168
N47	N	1.823430	-0.156787	0.000178
H48	H	1.906704	-0.136132	0.000196
N49	N	1.309728	0.197804	0.345091
N50	N	1.233259	0.239797	0.413546
H51	H	1.171443	0.273724	0.358243
H52	H	0.891904	-0.014283	0.000154
N53	N	0.819583	0.229208	0.000058
N54	N	0.864391	0.286790	0.000027
H55	H	0.806107	0.331932	0.000028
N56	N	1.718214	-0.264538	0.000129
N57	N	1.821255	-0.238954	0.000155
H58	H	1.903132	-0.270826	0.000168
H59	H	1.129537	-0.010785	0.000109
H60	H	1.267641	-0.671287	-0.000005
N61	N	1.255485	-0.233116	0.000064
N62	N	1.179075	-0.219768	-0.102625
H63	H	1.095801	-0.240423	-0.102642
H64	H	1.282908	-0.095058	0.000077
H65	H	1.686428	-0.567342	0.000083
N66	N	1.706446	-0.708624	0.000059
N67	N	1.783275	-0.705700	0.102762
H68	H	1.865157	-0.737567	0.102785
N69	N	1.247620	-0.529999	0.000018
N70	N	1.144582	-0.555587	0.000003
H71	H	1.062702	-0.523717	-0.000009
N72	N	1.656000	0.007607	0.345133
N73	N	1.732425	-0.034410	0.413615
H74	H	1.794144	-0.068391	0.358336
N75	N	1.656088	0.007647	0.655044
N76	N	1.732552	-0.034344	0.586578
H77	H	1.794355	-0.068283	0.641871
N78	N	1.309782	0.197800	0.655057
N79	N	1.309808	0.197799	0.791961
H80	H	1.248020	0.231726	0.847279
