data_functionalizedCrystal
_audit_creation_method	'MofGen! by Chris Wilmer'
_symmetry_space_group_name_H-M	'P1'
_symmetry_Int_Tables_number	1
_symmetry_cell_setting	triclinic
loop_
_symmetry_equiv_pos_as_xyz
  x,y,z
_cell_length_a	15.995350
_cell_length_b	14.971482
_cell_length_c	14.048226
_cell_angle_alpha	89.995861
_cell_angle_beta	89.999551
_cell_angle_gamma	83.552491
loop_
_atom_site_label
_atom_site_type_symbol
_atom_site_fract_x
_atom_site_fract_y
_atom_site_fract_z
O1	O	0.109097	1.186823	-0.079143
O2	O	0.122167	0.926407	-0.079147
O3	O	-0.006248	1.063734	-0.079144
O4	O	0.237513	1.049496	-0.079146
O5	O	-0.006247	1.063721	0.079177
O6	O	0.122168	0.926394	0.079174
O7	O	0.109098	1.186810	0.079178
Zn8	Zn	0.115634	1.056600	0.104313
Zn9	Zn	0.115632	1.056617	-0.104282
O10	O	0.237514	1.049483	0.079175
C11	C	0.121584	0.893077	0.000013
C12	C	0.119834	0.793781	0.000011
C13	C	0.119010	0.747131	0.086313
C14	C	0.117353	0.653834	0.086314
C15	C	0.116525	0.607189	0.000012
C16	C	0.117346	0.653847	-0.086297
C17	C	0.118997	0.747142	-0.086297
C18	C	0.113905	0.459389	-0.086291
C19	C	0.112255	0.366086	-0.086291
C20	C	0.112261	0.366080	0.086320
C21	C	0.113912	0.459376	0.086320
C22	C	0.114735	0.506027	0.000011
C23	C	-0.037443	1.063138	0.000014
C24	C	-0.130395	1.061374	0.000009
C25	C	-0.468149	1.055037	0.000012
C26	C	-0.420812	0.957235	-0.000345
C27	C	-0.324120	0.959000	0.000012
C28	C	-0.300585	1.058180	0.000010
C29	C	-0.341615	1.106412	0.090418
C30	C	-0.438253	1.103955	0.090494
C31	C	-0.438610	1.105990	-0.089547
C32	C	-0.341665	1.105967	-0.090742
C33	C	-0.205886	1.059962	0.000012
C34	C	-0.562849	1.053258	0.000016
C35	C	0.268709	1.050078	0.000014
C36	C	0.361661	1.051843	0.000013
C37	C	0.109682	1.220140	0.000016
C38	C	0.111432	1.319436	0.000011
N39	N	0.115634	1.056595	0.246673
N40	N	0.115625	1.056629	-0.246643
C41	C	0.064757	1.002385	0.703540
C42	C	0.064755	1.002381	0.603883
C43	C	0.115625	1.056618	0.554043
C44	C	0.166494	1.110869	0.603867
C45	C	0.166492	1.110876	0.703523
C46	C	0.166498	1.110848	0.396153
C47	C	0.166502	1.110839	0.296490
C48	C	0.064761	1.002353	0.296513
C49	C	0.064758	1.002360	0.396168
C50	C	0.115629	1.056610	0.445985
H51	H	-0.295736	0.921087	-0.064796
N52	N	-0.464396	1.065890	-0.175522
N53	N	-0.446453	1.097468	-0.254346
H54	H	-0.464662	1.069140	-0.315063
H55	H	-0.314452	1.070703	-0.157623
N56	N	0.012804	0.946922	0.245640
N57	N	0.022714	0.863570	0.256786
H58	H	-0.013972	0.824417	0.220852
N59	N	0.218452	1.166297	0.754398
N60	N	0.263867	1.214720	0.709890
H61	H	0.300563	1.253867	0.745819
N62	N	-0.322328	1.196708	-0.097605
N63	N	-0.350009	1.244943	-0.165762
H64	H	-0.336356	1.309034	-0.170603
H65	H	0.023337	0.958214	0.744112
H66	H	0.116668	0.615857	0.156590
N67	N	0.114742	0.507060	-0.174442
N68	N	0.056692	0.567374	-0.193699
H69	H	0.057287	0.601044	-0.255953
H70	H	0.114592	0.497351	0.156595
N71	N	0.218460	1.166273	0.447026
N72	N	0.263878	1.214694	0.402518
H73	H	0.300579	1.253835	0.438447
N74	N	0.119823	0.794801	-0.174452
N75	N	0.060658	0.792634	-0.232232
H76	H	0.061235	0.826293	-0.294495
H77	H	0.207910	1.155034	0.563280
H78	H	-0.327417	1.179276	0.093779
H79	H	0.207927	1.155001	0.255913
H80	H	0.111591	0.328093	0.156596
N81	N	0.119875	0.794756	0.174479
N82	N	0.119146	0.753087	0.251527
H83	H	0.119760	0.786720	0.313798
N84	N	0.116506	0.606216	-0.174462
N85	N	0.117241	0.647883	-0.251511
H86	H	0.116650	0.614246	-0.313781
N87	N	0.111403	0.318452	-0.174453
N88	N	0.112127	0.360114	-0.251506
H89	H	0.111522	0.326474	-0.313773
H90	H	-0.470300	1.178099	-0.090156
N91	N	-0.306049	1.064368	0.174816
N92	N	-0.250496	0.998894	0.168615
H93	H	-0.225378	0.969195	0.228219
N94	N	-0.478639	1.194021	0.095662
N95	N	-0.557147	1.208252	0.096643
H96	H	-0.585668	1.271860	0.100299
N97	N	-0.461248	1.059819	0.175278
N98	N	-0.405950	1.031040	0.233981
H99	H	-0.422185	0.999867	0.293862
H100	H	0.023331	0.958213	0.563327
H101	H	-0.439383	0.918150	-0.065178
H102	H	-0.440444	0.918313	0.064127
N103	N	-0.289216	0.911104	0.081454
N104	N	-0.336279	0.876274	0.138211
H105	H	-0.311630	0.842446	0.195735
H106	H	0.023339	0.958191	0.436745
