data_functionalizedCrystal
_audit_creation_method	'MofGen! by Chris Wilmer'
_symmetry_space_group_name_H-M	'P1'
_symmetry_Int_Tables_number	1
_symmetry_cell_setting	triclinic
loop_
_symmetry_equiv_pos_as_xyz
  x,y,z
_cell_length_a	14.044220
_cell_length_b	14.044220
_cell_length_c	12.503572
_cell_angle_alpha	93.847060
_cell_angle_beta	86.152852
_cell_angle_gamma	93.188878
loop_
_atom_site_label
_atom_site_type_symbol
_atom_site_fract_x
_atom_site_fract_y
_atom_site_fract_z
O1	O	1.272121	0.235210	0.089202
O2	O	1.772121	0.735210	0.589202
O3	O	0.995448	0.226906	0.089229
O4	O	1.495448	0.726906	0.589229
O5	O	1.129632	0.092722	0.089211
O6	O	1.629632	0.592722	0.589211
O7	O	1.137937	0.369394	0.089220
O8	O	1.637937	0.869394	0.589220
O9	O	1.139727	0.082618	-0.089432
O10	O	1.639727	0.582618	0.410568
O11	O	1.005543	0.216802	-0.089414
O12	O	1.505543	0.716802	0.410586
O13	O	1.282216	0.225106	-0.089441
O14	O	1.782216	0.725106	0.410559
Cu15	Cu	1.144801	0.220031	-0.105739
Cu16	Cu	1.644801	0.720031	0.394261
Cu17	Cu	1.132862	0.231981	0.105527
Cu18	Cu	1.632862	0.731981	0.605527
O19	O	1.148032	0.359290	-0.089423
O20	O	1.648032	0.859290	0.410577
C21	C	0.964873	0.218218	-0.000089
C22	C	1.464873	0.718218	0.499911
C23	C	0.858730	0.207374	-0.000078
C24	C	1.358730	0.707374	0.499922
C25	C	1.131043	0.052048	-0.000109
C26	C	1.631043	0.552048	0.499891
C27	C	1.120199	-0.054094	-0.000105
C28	C	1.620199	0.445906	0.499895
N29	N	1.124465	0.240379	0.254121
N30	N	1.624465	0.740379	0.754121
C31	C	0.664393	0.187547	-0.000100
C32	C	1.164393	0.687547	0.499900
C33	C	0.613264	0.264461	-0.000102
C34	C	1.113264	0.764461	0.499898
C35	C	0.505128	0.253429	-0.000115
C36	C	1.005128	0.753429	0.499885
C37	C	0.772539	0.198578	-0.000088
C38	C	1.272539	0.698578	0.499912
C39	C	1.312790	0.233794	-0.000121
C40	C	1.812790	0.733794	0.499879
C41	C	1.418933	0.244638	-0.000124
C42	C	1.918933	0.744638	0.499876
C43	C	1.146620	0.399964	-0.000101
C44	C	1.646620	0.899964	0.499899
C45	C	1.157464	0.506107	-0.000098
C46	C	1.657464	1.006107	0.499902
C47	C	1.177291	0.700444	-0.000105
C48	C	1.677291	1.200444	0.499895
C49	C	1.100376	0.751574	-0.000098
C50	C	1.600376	1.251574	0.499902
C51	C	1.111408	0.859710	-0.000102
C52	C	1.611408	1.359710	0.499898
C53	C	1.166261	0.592298	-0.000101
C54	C	1.666261	1.092298	0.499899
N55	N	1.153205	0.211626	-0.254333
N56	N	1.653205	0.711626	0.245667
C57	C	1.112105	0.252732	0.473237
C58	C	1.612105	0.752732	0.973237
C59	C	1.165562	0.199276	0.526557
C60	C	1.665562	0.699276	1.026557
C61	C	1.158685	0.206149	0.648481
C62	C	1.658685	0.706149	1.148481
C63	C	1.118982	0.245859	0.351302
C64	C	1.618982	0.745859	0.851302
H65	H	0.626957	0.113419	-0.000109
H66	H	1.126957	0.613419	0.499891
N67	N	1.229433	0.135354	0.468976
N68	N	1.729433	0.635354	0.968976
N69	N	1.219923	0.047695	0.481443
N70	N	1.719923	0.547695	0.981443
H71	H	1.265026	0.002543	0.440778
H72	H	1.765026	0.502543	0.940778
H73	H	0.650702	0.338595	-0.000095
H74	H	1.150702	0.838595	0.499905
H75	H	1.251419	0.737880	-0.000116
H76	H	1.751419	1.237880	0.499884
H77	H	1.026242	0.714135	-0.000091
H78	H	1.526242	1.214135	0.499909
H79	H	1.061177	0.303655	0.519152
H80	H	1.561177	0.803655	1.019152
