data_functionalizedCrystal
_audit_creation_method	'MofGen! by Chris Wilmer'
_symmetry_space_group_name_H-M	'P1'
_symmetry_Int_Tables_number	1
_symmetry_cell_setting	triclinic
loop_
_symmetry_equiv_pos_as_xyz
  x,y,z
_cell_length_a	14.560438
_cell_length_b	14.560438
_cell_length_c	14.560438
_cell_angle_alpha	59.996693
_cell_angle_beta	90.001034
_cell_angle_gamma	60.002023
loop_
_atom_site_label
_atom_site_type_symbol
_atom_site_fract_x
_atom_site_fract_y
_atom_site_fract_z
Zr1	Zr	0.884757	1.005331	-0.120597
O2	O	0.738109	1.196939	-0.267257
O3	O	0.929712	0.813723	-0.075630
O4	O	0.929708	1.005334	-0.267246
O5	O	0.738116	1.005325	0.075500
O6	O	1.080847	1.005336	-0.267247
O7	O	0.738112	1.005327	-0.075640
O8	O	1.080853	0.662579	0.075520
O9	O	0.738110	1.348083	-0.267267
O10	O	1.061678	0.892536	-0.056463
O11	O	0.948888	0.892532	0.056333
O12	O	0.948884	1.118130	-0.169271
O13	O	0.836094	1.118126	-0.056475
Zr14	Zr	1.125811	1.005331	0.120453
Zr15	Zr	1.125805	1.005335	-0.120599
Zr16	Zr	0.884763	1.005327	0.120455
Zr17	Zr	0.884759	1.246388	-0.120613
Zr18	Zr	1.125810	0.764274	0.120469
O19	O	1.080857	1.196939	0.075486
O20	O	1.080848	1.196945	-0.267260
O21	O	0.738117	1.196933	0.075488
O22	O	1.272460	0.813723	0.267113
O23	O	1.272451	0.813728	-0.075632
O24	O	0.929720	0.813717	0.267116
O25	O	1.272452	1.005336	-0.075644
O26	O	1.080860	1.005327	0.267102
O27	O	0.929722	1.005325	0.267103
O28	O	1.272456	1.005334	0.075496
O29	O	0.929711	1.348086	-0.267268
O30	O	1.080858	0.662576	0.267124
O31	O	1.272459	0.662579	0.267123
O32	O	1.272454	0.662582	0.075518
O33	O	0.738115	1.348079	-0.075662
O34	O	0.929716	1.348083	-0.075664
O35	O	1.061684	0.892532	0.169127
O36	O	1.174474	0.892536	0.056331
O37	O	1.061680	1.118130	-0.056477
O38	O	0.948890	1.118126	0.056318
C39	C	1.005282	0.703805	-0.000053
C40	C	1.005281	0.601470	-0.000046
C41	C	0.703770	1.005326	-0.000070
C42	C	0.601439	1.005324	-0.000069
C43	C	0.922014	0.636684	-0.083328
C44	C	0.922019	0.540544	-0.083357
C45	C	1.088563	0.373977	0.083188
C46	C	1.088562	0.470117	0.083211
C47	C	0.612237	0.887568	0.058812
C48	C	0.516083	0.887575	0.058812
C49	C	0.398333	1.123102	-0.058957
C50	C	0.494487	1.123095	-0.058951
C51	C	1.306799	1.005336	-0.000074
C52	C	1.409130	1.005338	-0.000075
C53	C	1.005277	1.005336	-0.301591
C54	C	1.005274	1.005338	-0.403924
C55	C	1.005286	1.306856	-0.000091
C56	C	1.005287	1.409191	-0.000098
C57	C	0.946398	1.123093	-0.510885
C58	C	0.946411	1.123087	-0.607034
C59	C	1.064178	0.887559	-0.489247
C60	C	1.064171	0.887567	-0.393101
C61	C	1.005292	1.005326	0.301447
C62	C	1.005294	1.005324	0.403780
C63	C	1.306796	0.703810	-0.000055
C64	C	1.409127	0.601477	-0.000049
C65	C	1.005290	0.703800	0.301467
C66	C	1.005291	0.601463	0.403806
C67	C	1.306804	0.703805	0.301465
C68	C	1.409137	0.601470	0.403803
C69	C	0.703764	1.306856	-0.301609
C70	C	0.601431	1.409191	-0.403947
C71	C	0.703772	1.306851	-0.000089
C72	C	0.601442	1.409184	-0.000095
C73	C	1.005279	1.306861	-0.301611
C74	C	1.005277	1.409198	-0.403950
C75	C	1.398327	0.553398	-0.058921
C76	C	1.494481	0.457253	-0.058919
C77	C	1.612232	0.457270	0.058835
C78	C	1.516079	0.553420	0.058826
C79	C	1.064169	0.553383	0.510763
C80	C	1.064158	0.457236	0.606918
C81	C	0.946390	0.457254	0.489146
C82	C	0.946395	0.553406	0.392994
C83	C	1.516089	0.553393	0.393007
C84	C	1.612237	0.457247	0.489169
C85	C	1.494470	0.457260	0.606920
C86	C	1.398323	0.553411	0.510759
H87	H	0.854195	0.743635	-0.151116
H88	H	1.112101	0.418096	0.694004
N89	N	1.727593	0.405394	0.477526
H90	H	1.719848	0.450434	0.395178
H91	H	1.770053	0.308870	0.514869
N92	N	0.727586	0.760544	0.122331
H93	H	0.770107	0.755288	0.181584
H94	H	0.770015	0.755363	0.068259
H95	H	1.311232	0.592560	0.519559
N96	N	0.882924	1.250108	-0.722390
H97	H	0.800556	1.301602	-0.731416
H98	H	0.891952	1.232151	-0.781602
N99	N	1.127699	0.760540	-0.477576
H100	H	1.118768	0.778401	-0.554714
H101	H	1.096786	0.709113	-0.435053
N102	N	0.832216	0.578524	-0.173188
H103	H	0.779463	0.676323	-0.225925
H104	H	0.788550	0.542245	-0.136788
N105	N	1.178382	0.432140	0.173034
H106	H	1.231137	0.334342	0.225778
H107	H	1.141974	0.468387	0.216715
N108	N	1.527731	0.605292	0.122316
H109	H	1.490461	0.701811	0.068292
H110	H	1.610096	0.560160	0.159610
N111	N	1.127674	0.605238	0.522414
H112	H	1.186927	0.588502	0.485152
H113	H	1.164898	0.560169	0.604784
H114	H	1.485677	0.418113	-0.106861
H115	H	0.524885	0.791686	0.106760
H116	H	0.898441	1.218990	-0.519705
N117	N	0.882818	0.605295	0.277641
H118	H	0.913658	0.531965	0.268603
H119	H	0.891734	0.673545	0.218413
H120	H	1.112120	0.791670	-0.306002
N121	N	1.527767	0.605206	0.277657
H122	H	1.570245	0.645096	0.268643
H123	H	1.450600	0.673356	0.218435
N124	N	0.282981	1.250121	-0.122461
H125	H	0.223704	1.232260	-0.113533
H126	H	0.274076	1.301552	-0.204802
N127	N	1.282972	0.605234	-0.122420
H128	H	1.290725	0.560185	-0.159716
H129	H	1.240509	0.701758	-0.181620
N130	N	0.882876	0.405412	0.477486
H131	H	0.891810	0.337199	0.554627
H132	H	0.913794	0.365596	0.434968
N133	N	1.482809	0.405422	0.722277
H134	H	1.559945	0.337212	0.781559
H135	H	1.440288	0.365604	0.731182
H136	H	1.156366	0.267021	0.150974
N137	N	1.727587	0.405416	0.122351
H138	H	1.719836	0.450467	0.159644
H139	H	1.770049	0.422148	0.068292
N140	N	0.482845	1.250108	-0.122462
H141	H	0.400503	1.324717	-0.159773
H142	H	0.520178	1.255230	-0.181650
