data_functionalizedCrystal
_audit_creation_method	'MofGen! by Chris Wilmer'
_symmetry_space_group_name_H-M	'P1'
_symmetry_Int_Tables_number	1
_symmetry_cell_setting	triclinic
loop_
_symmetry_equiv_pos_as_xyz
  x,y,z
_cell_length_a	17.019372
_cell_length_b	17.038272
_cell_length_c	16.098678
_cell_angle_alpha	92.929250
_cell_angle_beta	83.409482
_cell_angle_gamma	87.242864
loop_
_atom_site_label
_atom_site_type_symbol
_atom_site_fract_x
_atom_site_fract_y
_atom_site_fract_z
O1	O	1.053645	0.099258	-0.006242
O2	O	1.553645	0.599258	0.493758
O3	O	0.824054	0.112796	0.010211
O4	O	1.324054	0.612796	0.510211
O5	O	0.937485	-0.007783	0.002075
O6	O	1.437485	0.492217	0.502075
O7	O	0.940214	0.219836	0.001893
O8	O	1.440214	0.719836	0.501893
O9	O	0.944076	-0.014803	-0.136907
O10	O	1.444076	0.485197	0.363093
O11	O	0.830645	0.105775	-0.128772
O12	O	1.330645	0.605775	0.371228
O13	O	1.060236	0.092238	-0.145225
O14	O	1.560236	0.592238	0.354775
Zn15	Zn	0.946487	0.097892	-0.159065
Zn16	Zn	1.446487	0.597892	0.340935
Zn17	Zn	0.937803	0.107141	0.024051
Zn18	Zn	1.437803	0.607141	0.524051
O19	O	0.946805	0.212816	-0.137090
O20	O	1.446805	0.712816	0.362910
C21	C	0.797828	0.108911	-0.057165
C22	C	1.297828	0.608911	0.442835
C23	C	0.709863	0.107788	-0.050862
C24	C	1.209863	0.607788	0.449138
C25	C	0.938299	-0.040410	-0.067238
C26	C	1.438299	0.459590	0.432762
C27	C	0.930893	-0.127170	-0.066707
C28	C	1.430893	0.372830	0.433293
C29	C	0.212167	0.101600	-0.011353
C30	C	0.712167	0.601600	0.488647
C31	C	0.294821	0.102656	-0.017287
C32	C	0.794821	0.602656	0.482713
C33	C	0.339732	0.099363	-0.096015
C34	C	0.839732	0.599363	0.403985
C35	C	0.301986	0.095005	-0.168812
C36	C	0.801986	0.595005	0.331188
C37	C	0.219335	0.093944	-0.162878
C38	C	0.719335	0.593944	0.337122
C39	C	0.589466	0.102370	-0.117724
C40	C	1.089466	0.602370	0.382276
C41	C	0.672122	0.103433	-0.123654
C42	C	1.172122	0.603433	0.376346
C43	C	0.664951	0.111082	0.027872
C44	C	1.164951	0.611082	0.527872
C45	C	0.582298	0.110025	0.033800
C46	C	1.082298	0.610025	0.533800
C47	C	0.544560	0.105664	-0.038998
C48	C	1.044560	0.605664	0.461002
C49	C	0.424217	0.100444	-0.102082
C50	C	0.924217	0.600444	0.397918
C51	C	0.460077	0.104578	-0.032930
C52	C	0.960077	0.604578	0.467070
C53	C	0.998884	-0.177590	-0.071580
C54	C	1.498884	0.322410	0.428420
C55	C	0.991921	-0.259109	-0.071073
C56	C	1.491921	0.240891	0.428927
C57	C	0.916966	-0.290206	-0.065699
C58	C	1.416966	0.209794	0.434301
C59	C	0.848970	-0.239779	-0.060823
C60	C	1.348970	0.260221	0.439177
C61	C	0.855934	-0.158262	-0.061324
C62	C	1.355934	0.341738	0.438676
C63	C	0.892364	-0.535853	-0.063925
C64	C	1.392364	-0.035853	0.436075
C65	C	0.885406	-0.617377	-0.063427
C66	C	1.385406	-0.117377	0.436573
C67	C	1.028357	-0.636700	-0.073675
C68	C	1.528357	-0.136700	0.426325
C69	C	1.035314	-0.555181	-0.074181
C70	C	1.535314	-0.055181	0.425819
C71	C	0.967318	-0.504761	-0.069301
C72	C	1.467318	-0.004761	0.430699
C73	C	0.909847	-0.373531	-0.065184
C74	C	1.409847	0.126469	0.434816
C75	C	0.974438	-0.421437	-0.069810
C76	C	1.474438	0.078563	0.430190
C77	C	1.086462	0.096122	-0.077847
C78	C	1.586462	0.596122	0.422153
C79	C	1.174427	0.097246	-0.084145
C80	C	1.674427	0.597246	0.415855
C81	C	0.945991	0.245443	-0.067774
C82	C	1.445991	0.745443	0.432226
C83	C	0.953396	0.332203	-0.068300
C84	C	1.453396	0.832203	0.431700
N85	N	0.952420	0.091579	-0.284037
N86	N	1.452420	0.591579	0.215963
C87	C	0.904264	0.142738	-0.324189
C88	C	1.404264	0.642738	0.175811
C89	C	0.908437	0.138319	-0.411675
C90	C	1.408437	0.638319	0.088325
C91	C	0.960762	0.082735	-0.459008
C92	C	1.460762	0.582735	0.040992
C93	C	1.008923	0.031573	-0.418851
C94	C	1.508923	0.531573	0.081149
C95	C	1.004754	0.035997	-0.331366
C96	C	1.504754	0.535997	0.168634
C97	C	0.975868	0.066711	-0.723335
C98	C	1.475868	0.566711	-0.223335
C99	C	0.980032	0.062289	-0.810826
C100	C	1.480032	0.562289	-0.310826
C101	C	0.879546	0.169036	-0.803644
C102	C	1.379546	0.669036	-0.303644
C103	C	0.875378	0.173452	-0.716158
C104	C	1.375378	0.673452	-0.216158
C105	C	0.923542	0.122293	-0.676008
C106	C	1.423542	0.622293	-0.176008
C107	C	0.965027	0.078214	-0.548434
C108	C	1.465027	0.578214	-0.048434
C109	C	0.919281	0.126818	-0.586585
C110	C	1.419281	0.626818	-0.086585
N111	N	0.931876	0.113448	0.149023
N112	N	1.431876	0.613448	0.649023
H113	H	0.175606	0.104288	0.052755
H114	H	0.675606	0.604288	0.552755
Br115	Br	1.084198	-0.327534	-0.077687
Br116	Br	1.584198	0.172466	0.422313
H117	H	0.836997	-0.494810	-0.059951
H118	H	1.336997	0.005190	0.440049
H119	H	0.832770	0.218712	-0.677621
H120	H	1.332770	0.718712	-0.177621
Br121	Br	0.848274	0.202255	-0.522348
Br122	Br	1.348274	0.702255	-0.022348
Br123	Br	1.079944	-0.043858	-0.483086
Br124	Br	1.579944	0.456142	0.016914
H125	H	0.558750	0.098807	-0.177002
H126	H	1.058750	0.598807	0.322998
H127	H	0.338560	0.092319	-0.232914
H128	H	0.838560	0.592319	0.267086
Br129	Br	1.041230	-0.002719	-0.668851
Br130	Br	1.541230	0.497281	-0.168851
H131	H	0.325545	0.106197	0.041988
H132	H	0.825545	0.606197	0.541988
H133	H	0.545737	0.112706	0.097908
H134	H	1.045737	0.612706	0.597908
H135	H	0.840334	0.210688	-0.836342
H136	H	1.340334	0.710688	-0.336342
H137	H	0.695687	0.114632	0.087140
H138	H	1.195687	0.614632	0.587140
Br139	Br	0.733074	0.098965	-0.230505
Br140	Br	1.233074	0.598965	0.269495
Br141	Br	0.168115	0.088024	-0.261671
Br142	Br	0.668115	0.588024	0.238329
Br143	Br	1.100613	-0.135395	-0.078886
Br144	Br	1.600613	0.364605	0.421114
H145	H	0.423507	0.107256	0.031170
H146	H	0.923507	0.607256	0.531170
H147	H	1.035464	-0.396113	-0.074167
H148	H	1.535464	0.103887	0.425833
Br149	Br	1.051048	-0.013156	-0.875058
Br150	Br	1.551048	0.486844	-0.375058
Br151	Br	1.070117	-0.033432	-0.276875
Br152	Br	1.570117	0.466568	0.223125
H153	H	1.007630	0.032956	-0.586979
H154	H	1.507630	0.532956	-0.086979
H155	H	0.460793	0.097764	-0.166182
H156	H	0.960793	0.597764	0.333818
Br157	Br	1.137040	-0.512982	-0.081448
Br158	Br	1.637040	-0.012982	0.418552
Br159	Br	1.120632	-0.705130	-0.080299
Br160	Br	1.620632	-0.205130	0.419701
Br161	Br	0.783676	-0.659580	-0.056141
Br162	Br	1.283676	-0.159580	0.443859
H163	H	0.787941	-0.265105	-0.056442
H164	H	1.287941	0.234895	0.443558
H165	H	0.800569	-0.117210	-0.057356
H166	H	1.300569	0.382790	0.442644
Br167	Br	0.808125	-0.415741	-0.057882
Br168	Br	1.308125	0.084259	0.442118
H169	H	0.861651	0.187997	-0.285656
H170	H	1.361651	0.687997	0.214344
H171	H	0.869225	0.179977	-0.444366
H172	H	1.369225	0.679977	0.055634
