data_functionalizedCrystal
_audit_creation_method	'MofGen! by Chris Wilmer'
_symmetry_space_group_name_H-M	'P1'
_symmetry_Int_Tables_number	1
_symmetry_cell_setting	triclinic
loop_
_symmetry_equiv_pos_as_xyz
  x,y,z
_cell_length_a	23.532355
_cell_length_b	23.532407
_cell_length_c	9.730223
_cell_angle_alpha	89.994043
_cell_angle_beta	90.005634
_cell_angle_gamma	82.838088
loop_
_atom_site_label
_atom_site_type_symbol
_atom_site_fract_x
_atom_site_fract_y
_atom_site_fract_z
O1	O	0.755275	0.068992	-0.114117
O2	O	0.589408	0.079026	-0.114162
O3	O	0.677343	-0.008924	-0.114113
O4	O	0.667340	0.156941	-0.114166
O5	O	0.677342	-0.008922	0.114467
O6	O	0.589407	0.079028	0.114417
O7	O	0.755274	0.068994	0.114463
Zn8	Zn	0.672340	0.074011	0.150732
Zn9	Zn	0.672342	0.074008	-0.150432
O10	O	0.667339	0.156944	0.114414
C11	C	0.568191	0.078776	0.000122
C12	C	0.504972	0.078022	0.000106
C13	C	0.112958	0.073285	0.124764
C14	C	0.053558	0.072568	0.124769
O15	O	0.022839	0.072178	0.230735
N16	N	0.023850	0.072211	0.000171
C17	C	0.053546	0.072565	-0.124441
O18	O	0.022823	0.072195	-0.230421
C19	C	0.112945	0.073279	-0.124445
C20	C	0.142649	0.073641	0.000161
C21	C	0.142662	0.073647	0.249360
C22	C	0.202057	0.074366	0.249354
C23	C	0.231748	0.074722	0.124751
C24	C	0.202044	0.074360	0.000155
C25	C	0.142640	0.073629	-0.249056
C26	C	0.202043	0.074342	-0.249049
C27	C	0.231747	0.074705	-0.124443
C28	C	0.291130	0.075435	-0.124453
N29	N	0.320838	0.075792	0.000145
C30	C	0.291147	0.075435	0.124747
C31	C	-0.071196	0.071066	-0.124423
C32	C	-0.130594	0.070357	-0.124420
C33	C	-0.130577	0.070358	0.124790
C34	C	-0.071178	0.071072	0.124786
C35	C	-0.041488	0.071423	0.000175
C36	C	0.415881	0.076945	0.124725
C37	C	0.475281	0.077666	0.124708
C38	C	0.475260	0.077661	-0.124502
C39	C	0.415864	0.076944	-0.124486
C40	C	0.386177	0.076583	0.000139
O41	O	0.321887	0.075822	-0.230365
O42	O	0.321878	0.075798	0.230710
C43	C	0.677088	-0.030139	0.000180
C44	C	0.676322	-0.093356	0.000191
C45	C	0.723557	-0.492468	0.000128
C46	C	0.722845	-0.551868	0.000118
O47	O	0.766632	-0.588620	0.000079
N48	N	0.670568	-0.574484	0.000104
C49	C	0.618998	-0.537697	0.000088
O50	O	0.574467	-0.562388	0.000074
C51	C	0.619710	-0.478298	0.000088
C52	C	0.671991	-0.455685	0.000116
C53	C	0.775834	-0.469854	0.000154
C54	C	0.776545	-0.410458	0.000167
C55	C	0.724979	-0.373676	0.000155
C56	C	0.672703	-0.396289	0.000129
C57	C	0.568141	-0.441512	0.000062
C58	C	0.568858	-0.382110	0.000062
C59	C	0.621139	-0.359497	0.000089
C60	C	0.621848	-0.300110	0.000129
N61	N	0.674126	-0.277494	0.000143
C62	C	0.725691	-0.314277	0.000156
C63	C	0.617507	-0.662439	0.000083
C64	C	0.616794	-0.721837	0.000093
C65	C	0.720642	-0.736004	0.000120
C66	C	0.721354	-0.676605	0.000121
C67	C	0.669784	-0.639823	0.000097
C68	C	0.727181	-0.189540	0.000184
C69	C	0.727888	-0.130138	0.000203
C70	C	0.624041	-0.115977	0.000168
C71	C	0.623334	-0.175373	0.000157
C72	C	0.674909	-0.212154	0.000160
O73	O	0.578084	-0.263323	0.000163
O74	O	0.770216	-0.289577	0.000151
C75	C	0.776492	0.069244	0.000176
C76	C	0.839710	0.069998	0.000183
C77	C	0.667594	0.178158	0.000117
C78	C	0.668360	0.241375	0.000098
N79	N	0.672344	0.074013	0.356269
N80	N	0.672343	0.074002	-0.355968
C81	C	0.711291	0.035082	0.428217
C82	C	0.711290	0.035075	0.572100
C83	C	0.633391	0.112935	0.572074
C84	C	0.633391	0.112939	0.428194
C85	C	0.756267	-0.009869	0.428233
C86	C	0.756266	-0.009876	0.572115
H87	H	0.118494	0.073356	0.350832
H88	H	0.797423	0.003402	0.383613
C89	C	0.738375	-0.065489	0.632418
H90	H	0.738979	-0.063594	0.729928
H91	H	0.764306	-0.097219	0.602284
H92	H	0.700791	-0.069955	0.602261
H93	H	-0.154762	0.070067	0.226249
C94	C	0.507928	0.078048	-0.261554
H95	H	0.547558	0.078521	-0.243700
H96	H	0.493661	0.111143	-0.312780
H97	H	0.502727	0.044707	-0.312725
H98	H	0.574222	-0.740243	0.000094
H99	H	0.226237	0.074657	0.350822
C100	C	0.815204	0.002449	0.624892
H101	H	0.839442	0.007528	0.548959
H102	H	0.831859	-0.028844	0.679133
H103	H	0.810668	0.036277	0.679128
H104	H	0.499463	0.077963	0.226182
C105	C	0.567323	-0.075509	0.000147
H106	H	0.575239	-0.036896	0.000141
H107	H	0.545865	-0.082332	0.079843
H108	H	0.545878	-0.082327	-0.079589
C109	C	0.383232	0.076554	0.261809
H110	H	0.409436	0.076879	0.336003
H111	H	0.364595	0.043060	0.267023
H112	H	0.355528	0.109496	0.266979
H113	H	0.601676	0.144627	0.630651
C114	C	0.560777	-0.621983	0.000083
H115	H	0.529544	-0.643965	0.000088
H116	H	0.558890	-0.598511	-0.079624
H117	H	0.558896	-0.598524	0.079808
H118	H	0.525569	-0.459912	0.000031
H119	H	0.817827	-0.499797	0.000159
H120	H	0.580762	-0.193785	0.000173
C121	C	0.785399	-0.105267	0.000225
H122	H	0.816006	-0.135684	0.000216
H123	H	0.787838	-0.082396	0.079940
H124	H	0.787835	-0.082386	-0.079492
C125	C	0.590545	0.155760	0.349055
H126	H	0.567351	0.178944	0.412501
H127	H	0.566958	0.135396	0.292923
H128	H	0.610896	0.179367	0.292932
H129	H	-0.047026	0.071358	-0.225903
H130	H	-0.154775	0.070071	-0.225888
C131	C	-0.038507	0.071456	0.261852
H132	H	-0.064702	0.071136	0.336054
H133	H	-0.019863	0.104946	0.267041
H134	H	-0.010807	0.038510	0.267032
C135	C	0.109980	0.073218	-0.386125
H136	H	0.136179	0.073522	-0.460322
H137	H	0.082269	0.106150	-0.391353
H138	H	0.091350	0.039714	-0.391278
C139	C	0.834054	-0.385591	0.000171
H140	H	0.864659	-0.416011	0.000161
H141	H	0.836500	-0.362717	0.079879
H142	H	0.836490	-0.362714	-0.079553
H143	H	0.226213	0.074629	-0.350525
H144	H	0.391677	0.076657	-0.225950
C145	C	0.512130	-0.341652	0.000041
H146	H	0.480896	-0.363631	0.000034
H147	H	0.510249	-0.318180	-0.079665
H148	H	0.510246	-0.318193	0.079766
H149	H	0.747171	-0.053507	0.389189
H150	H	0.769178	-0.219481	0.000182
C151	C	0.778862	-0.651736	0.000138
H152	H	0.809468	-0.682154	0.000138
H153	H	0.781301	-0.628861	0.079846
H154	H	0.781301	-0.628858	-0.079586
C155	C	0.777363	-0.776472	0.000108
H156	H	0.769447	-0.815085	0.000085
H157	H	0.798822	-0.769660	0.079819
H158	H	0.798809	-0.769643	-0.079613
