data_functionalizedCrystal
_audit_creation_method	'MofGen! by Chris Wilmer'
_symmetry_space_group_name_H-M	'P1'
_symmetry_Int_Tables_number	1
_symmetry_cell_setting	triclinic
loop_
_symmetry_equiv_pos_as_xyz
  x,y,z
_cell_length_a	21.395362
_cell_length_b	16.625545
_cell_length_c	21.395355
_cell_angle_alpha	89.983687
_cell_angle_beta	90.043940
_cell_angle_gamma	89.960085
loop_
_atom_site_label
_atom_site_type_symbol
_atom_site_fract_x
_atom_site_fract_y
_atom_site_fract_z
Zn1	Zn	0.957889	0.320753	0.354595
Zn2	Zn	0.957803	0.455568	0.249822
Zn3	Zn	0.853103	0.320791	0.249796
Zn4	Zn	0.853085	0.455585	0.354526
O5	O	0.905470	0.388174	0.302185
O6	O	1.045555	0.338614	0.340736
O7	O	0.943887	0.437699	0.162140
O8	O	0.867047	0.207953	0.263716
O9	O	1.045492	0.437662	0.263760
O10	O	0.944032	0.207926	0.340712
O11	O	0.866964	0.338678	0.162122
O12	O	0.765423	0.338694	0.263650
O13	O	0.867015	0.437690	0.442214
O14	O	0.765409	0.437727	0.340594
O15	O	0.944014	0.338630	0.442264
O16	O	0.943869	0.568403	0.263693
O17	O	0.866932	0.568415	0.340619
C18	C	0.742682	0.388217	0.302112
C19	C	0.673041	0.388255	0.302096
C20	C	0.640337	0.439889	0.342101
C21	C	0.574902	0.439870	0.342129
C22	C	0.542173	0.388224	0.302141
C23	C	0.574885	0.336579	0.262133
C24	C	0.640319	0.336594	0.262110
C25	C	0.438447	0.381728	0.245735
C26	C	0.373015	0.381718	0.245757
C27	C	0.340352	0.388171	0.302210
C28	C	0.373131	0.394651	0.358644
C29	C	0.438565	0.394666	0.358621
C30	C	0.471220	0.388201	0.302161
C31	C	0.236696	0.439787	0.342249
C32	C	0.171259	0.439762	0.342278
C33	C	0.171243	0.336475	0.262276
C34	C	0.236678	0.336496	0.262252
C35	C	0.269401	0.388157	0.302238
C36	C	0.905406	0.597665	0.302165
C37	C	0.905436	0.687286	0.302177
C38	C	0.905539	1.015462	0.302252
C39	C	0.905508	0.924153	0.302233
C40	C	0.905487	0.851377	0.302214
C41	C	0.905457	0.760063	0.302196
C42	C	1.068893	0.388132	0.302258
C43	C	1.138535	0.388114	0.302290
C44	C	0.905522	0.388158	0.465608
C45	C	0.905544	0.388151	0.535250
C46	C	0.905546	1.177865	0.302226
C47	C	0.905564	1.088244	0.302263
C48	C	0.905454	0.388132	0.139397
C49	C	0.905553	0.387912	0.069757
C50	C	0.945636	0.336568	0.567990
C51	C	0.945635	0.336534	0.633425
C52	C	0.905549	0.388096	0.666118
C53	C	0.865450	0.439683	0.633370
C54	C	0.865447	0.439710	0.567935
C55	C	0.900580	0.460699	0.769784
C56	C	0.900587	0.460672	0.835217
C57	C	0.905553	0.388011	0.867939
C58	C	0.910526	0.315373	0.835220
C59	C	0.910523	0.315401	0.769785
C60	C	0.905547	0.388072	0.737070
C61	C	0.945646	0.336386	0.971632
C62	C	0.945640	0.336350	1.037069
C63	C	0.865459	0.439506	1.037011
C64	C	0.865461	0.439535	0.971576
C65	C	0.905557	0.387976	0.938890
H66	H	0.548269	0.481916	0.374708
O67	O	0.915882	0.236991	0.870497
H68	H	0.876060	0.197419	0.857896
O69	O	0.675627	0.495604	0.385232
H70	H	0.726623	0.486947	0.378494
O71	O	0.271992	0.495476	0.385397
H72	H	0.322987	0.486813	0.378661
O73	O	0.822195	0.495348	0.532628
H74	H	0.850211	0.536382	0.502833
O75	O	0.135945	0.280774	0.219145
H76	H	0.148554	0.217514	0.229975
O77	O	0.337666	0.374725	0.184891
H78	H	0.350162	0.425929	0.154046
H79	H	0.914571	0.256257	0.743148
H80	H	0.666946	0.294545	0.229533
H81	H	0.465250	0.399940	0.404572
H82	H	0.832810	0.481663	0.659992
O83	O	0.988888	0.280770	0.936377
H84	H	1.020756	0.316865	0.906598
O85	O	0.895217	0.539011	0.870506
H86	H	0.891747	0.589540	0.836761
H87	H	0.465036	0.376470	0.199761
O88	O	0.337917	0.401598	0.419543
H89	H	0.308057	0.456203	0.418493
H90	H	0.978281	0.294524	0.660088
O91	O	0.271953	0.280807	0.219098
H92	H	0.322952	0.289490	0.225803
H93	H	0.144633	0.481807	0.374858
O94	O	0.988885	0.280713	1.072387
H95	H	1.016769	0.244875	1.038662
H96	H	0.832814	0.481481	1.063629
H97	H	0.548232	0.294527	0.229575
O98	O	0.822202	0.495149	0.936256
H99	H	0.794322	0.530993	0.969981
O100	O	0.988879	0.280958	0.532734
H101	H	1.016754	0.245080	0.566499
O102	O	0.895215	0.539073	0.734492
H103	H	0.891765	0.589576	0.768235
