data_functionalizedCrystal
_audit_creation_method	'MofGen! by Chris Wilmer'
_symmetry_space_group_name_H-M	'P1'
_symmetry_Int_Tables_number	1
_symmetry_cell_setting	triclinic
loop_
_symmetry_equiv_pos_as_xyz
  x,y,z
_cell_length_a	23.532407
_cell_length_b	17.699083
_cell_length_c	16.776229
_cell_angle_alpha	90.001114
_cell_angle_beta	89.988688
_cell_angle_gamma	96.934153
loop_
_atom_site_label
_atom_site_type_symbol
_atom_site_fract_x
_atom_site_fract_y
_atom_site_fract_z
O1	O	0.072020	-1.003713	-0.066185
O2	O	0.081390	-0.783287	-0.066212
O3	O	-0.006208	-0.900147	-0.066183
O4	O	0.159617	-0.886853	-0.066214
O5	O	-0.006213	-0.900132	0.066394
O6	O	0.081384	-0.783272	0.066365
O7	O	0.072015	-1.003698	0.066392
Zn8	Zn	0.076699	-0.893482	0.087428
Zn9	Zn	0.076706	-0.893503	-0.087248
O10	O	0.159612	-0.886838	0.066363
C11	C	0.081051	-0.755084	0.000073
C12	C	0.080044	-0.671071	0.000063
C13	C	-0.027427	-0.899801	0.000107
C14	C	-0.090647	-0.898783	0.000113
N15	N	0.076693	-0.893474	0.206639
C16	C	-0.489570	-0.961554	0.000077
C17	C	-0.548973	-0.960609	0.000071
O18	O	-0.585550	-1.018799	0.000049
N19	N	-0.571799	-0.891136	0.000063
C20	C	-0.535218	-0.822604	0.000053
O21	O	-0.560088	-0.763424	0.000045
C22	C	-0.475816	-0.823550	0.000054
C23	C	-0.452994	-0.893028	0.000070
C24	C	-0.466747	-1.031026	0.000093
C25	C	-0.407348	-1.031972	0.000100
C26	C	-0.370772	-0.963445	0.000093
C27	C	-0.393595	-0.893973	0.000078
C28	C	-0.439237	-0.755019	0.000038
C29	C	-0.379832	-0.755971	0.000038
C30	C	-0.357009	-0.825448	0.000054
C31	C	-0.297620	-0.826391	0.000078
N32	N	-0.274795	-0.895864	0.000086
C33	C	-0.311371	-0.964391	0.000093
C34	C	-0.659966	-0.820622	0.000051
C35	C	-0.719367	-0.819674	0.000056
C36	C	-0.733118	-0.957680	0.000073
C37	C	-0.673716	-0.958626	0.000073
C38	C	-0.637141	-0.890095	0.000059
C39	C	-0.186628	-0.966371	0.000110
C40	C	-0.127223	-0.967310	0.000121
C41	C	-0.113478	-0.829305	0.000100
C42	C	-0.172877	-0.828365	0.000094
C43	C	-0.209452	-0.896904	0.000096
O44	O	-0.261008	-0.768232	0.000097
O45	O	-0.286493	-1.023560	0.000091
C46	C	0.180832	-0.887184	0.000071
C47	C	0.244052	-0.888202	0.000060
C48	C	0.072353	-1.031901	0.000105
C49	C	0.073360	-1.115914	0.000110
C50	C	0.131462	-0.622189	0.000054
C51	C	0.130512	-0.543251	0.000065
C52	C	0.078144	-0.513196	0.000079
C53	C	0.026722	-0.562084	0.000090
C54	C	0.027672	-0.641021	0.000086
C55	C	0.022888	-0.243740	0.000111
C56	C	0.021942	-0.164797	0.000113
C57	C	0.125728	-0.145970	0.000090
C58	C	0.126678	-0.224907	0.000085
C59	C	0.075257	-0.273788	0.000101
C60	C	0.076287	-0.359382	0.000091
C61	C	0.077113	-0.427603	0.000083
N62	N	0.076706	-0.893517	-0.206459
C63	C	0.037921	-0.945235	0.248369
C64	C	0.037921	-0.945239	0.331821
C65	C	0.076696	-0.893485	0.373542
C66	C	0.115470	-0.841719	0.331806
C67	C	0.115467	-0.841712	0.248355
C68	C	0.115481	-0.841746	0.668353
C69	C	0.115482	-0.841759	0.751810
C70	C	0.037935	-0.945274	0.751819
C71	C	0.037932	-0.945267	0.668368
C72	C	0.076704	-0.893498	0.626640
C73	C	0.076703	-0.893493	0.536151
C74	C	0.076699	-0.893493	0.464029
H75	H	-0.108645	-1.023889	0.000136
C76	C	0.158119	-0.784777	0.202452
H77	H	0.181216	-0.753960	0.239250
H78	H	0.137661	-0.753426	0.169909
H79	H	0.181802	-0.811825	0.169888
H80	H	-0.083687	-0.773512	0.000097
C81	C	0.158133	-0.784825	0.797705
H82	H	0.152584	-0.792252	0.853381
H83	H	0.151992	-0.734360	0.784042
H84	H	0.196137	-0.792754	0.784015
H85	H	-0.457808	-0.698442	0.000020
H86	H	-0.014197	-0.680820	0.000093
H87	H	-0.388773	-1.088547	0.000110
H88	H	-0.496522	-1.086833	0.000096
C89	C	-0.033673	-0.297499	0.000123
H90	H	-0.064996	-0.268292	0.000123
H91	H	-0.035464	-0.328685	0.046355
H92	H	-0.035460	-0.328683	-0.046116
C93	C	-0.004733	-1.002164	0.202483
H94	H	-0.027828	-1.032986	0.239291
H95	H	0.015721	-1.033512	0.169916
H96	H	-0.028418	-0.975110	0.169943
H97	H	0.006349	-0.987387	0.365797
C98	C	-0.004720	-1.002212	0.797722
H99	H	0.000828	-0.994801	0.853398
H100	H	0.001417	-1.052674	0.784039
H101	H	-0.042724	-0.994275	0.784056
C102	C	0.158133	-0.784809	0.622462
H103	H	0.181230	-0.753995	0.659264
H104	H	0.137678	-0.753454	0.589919
H105	H	0.181816	-0.811856	0.589898
C106	C	0.158122	-0.784792	0.377696
H107	H	0.152576	-0.792214	0.433374
H108	H	0.151986	-0.734326	0.364031
H109	H	0.196125	-0.792728	0.364003
H110	H	-0.216401	-1.022182	0.000109
H111	H	-0.737943	-0.763099	0.000057
H112	H	-0.655139	-1.015201	0.000086
C113	C	-0.030883	-0.529029	0.000105
H114	H	-0.061370	-0.569449	0.000117
H115	H	-0.033410	-0.498626	-0.046126
H116	H	-0.033413	-0.498629	0.046345
H117	H	0.167598	-0.106161	0.000081
C118	C	-0.773357	-1.033061	0.000075
H119	H	-0.751260	-1.074577	0.000087
H120	H	-0.796808	-1.035561	-0.046158
H121	H	-0.796822	-1.035552	0.046312
C122	C	-0.619738	-0.745232	0.000050
H123	H	-0.641844	-0.703725	0.000053
H124	H	-0.596270	-0.742728	-0.046180
H125	H	-0.596289	-0.742727	0.046291
C126	C	-0.339602	-0.680584	0.000026
H127	H	-0.361706	-0.639075	0.000022
H128	H	-0.316134	-0.678089	-0.046204
H129	H	-0.316153	-0.678075	0.046267
C130	C	-0.197983	-0.751942	0.000074
H131	H	-0.167690	-0.711266	0.000065
H132	H	-0.220884	-0.748691	0.046297
H133	H	-0.220855	-0.748716	-0.046174
H134	H	0.006360	-0.987412	0.634402
H135	H	0.172382	-0.503454	0.000056
C136	C	0.189068	-0.655243	0.000038
H137	H	0.219554	-0.614822	0.000041
H138	H	0.191600	-0.685643	-0.046196
H139	H	0.191594	-0.685645	0.046274
H140	H	0.169322	-0.249373	0.000070
H141	H	-0.020705	-0.140330	0.000126
