data_functionalizedCrystal
_audit_creation_method	'MofGen! by Chris Wilmer'
_symmetry_space_group_name_H-M	'P1'
_symmetry_Int_Tables_number	1
_symmetry_cell_setting	triclinic
loop_
_symmetry_equiv_pos_as_xyz
  x,y,z
_cell_length_a	14.519709
_cell_length_b	9.198806
_cell_length_c	10.723024
_cell_angle_alpha	89.997988
_cell_angle_beta	84.074007
_cell_angle_gamma	90.001670
loop_
_atom_site_label
_atom_site_type_symbol
_atom_site_fract_x
_atom_site_fract_y
_atom_site_fract_z
O1	O	1.224702	-0.120699	0.163572
O2	O	1.474702	0.129301	0.413572
O3	O	1.724702	0.379301	0.663572
O4	O	1.974702	0.629301	0.913572
O5	O	0.956324	-0.120743	0.182835
O6	O	1.206324	0.129257	0.432835
O7	O	1.456324	0.379257	0.682835
O8	O	1.706324	0.629257	0.932835
O9	O	1.096704	-0.120715	-0.008431
O10	O	1.346704	0.129285	0.241569
O11	O	1.596704	0.379285	0.491569
O12	O	1.846704	0.629285	0.741569
O13	O	1.084323	-0.120728	0.354837
O14	O	1.334323	0.129272	0.604837
O15	O	1.584323	0.379272	0.854837
O16	O	1.834323	0.629272	1.104837
O17	O	1.096693	0.121070	-0.008431
O18	O	1.346693	0.371070	0.241569
O19	O	1.596693	0.621070	0.491569
O20	O	1.846693	0.871070	0.741569
O21	O	0.956313	0.121042	0.182834
O22	O	1.206313	0.371042	0.432834
O23	O	1.456313	0.621042	0.682834
O24	O	1.706313	0.871042	0.932834
O25	O	1.224691	0.121086	0.163571
O26	O	1.474691	0.371086	0.413571
O27	O	1.724691	0.621086	0.663571
O28	O	1.974691	0.871086	0.913571
Cu29	Cu	1.090501	0.143141	0.173203
Cu30	Cu	1.340501	0.393141	0.423203
Cu31	Cu	1.590501	0.643141	0.673203
Cu32	Cu	1.840501	0.893141	0.923203
Cu33	Cu	1.090514	-0.142798	0.173203
Cu34	Cu	1.340514	0.107202	0.423203
Cu35	Cu	1.590514	0.357202	0.673203
Cu36	Cu	1.840514	0.607202	0.923203
O37	O	1.084311	0.121057	0.354837
O38	O	1.334311	0.371057	0.604837
O39	O	1.584311	0.621057	0.854837
O40	O	1.834311	0.871057	1.104837
C41	C	0.921954	0.000144	0.181937
C42	C	1.171954	0.250144	0.431937
C43	C	1.421954	0.500144	0.681937
C44	C	1.671954	0.750144	0.931937
C45	C	0.819559	0.000127	0.179246
C46	C	1.069559	0.250127	0.429246
C47	C	1.319559	0.500127	0.679246
C48	C	1.569559	0.750127	0.929246
N49	N	1.090498	0.344255	0.173201
N50	N	1.340498	0.594255	0.423201
N51	N	1.590498	0.844255	0.673201
N52	N	1.840498	1.094255	0.923201
N53	N	1.090524	-0.343912	0.173194
N54	N	1.340524	-0.093912	0.423194
N55	N	1.590524	0.156088	0.673194
N56	N	1.840524	0.406088	0.923194
C57	C	0.444613	0.000193	0.169343
C58	C	0.694613	0.250193	0.419343
C59	C	0.944613	0.500193	0.669343
C60	C	1.194613	0.750193	0.919343
C61	C	0.548935	0.000174	0.172093
C62	C	0.798935	0.250174	0.422093
C63	C	1.048935	0.500174	0.672093
C64	C	1.298935	0.750174	0.922093
C65	C	0.632082	0.000159	0.174294
C66	C	0.882082	0.250159	0.424294
C67	C	1.132082	0.500159	0.674294
C68	C	1.382082	0.750159	0.924294
C69	C	0.736411	0.000143	0.177045
C70	C	0.986411	0.250143	0.427045
C71	C	1.236411	0.500143	0.677045
C72	C	1.486411	0.750143	0.927045
C73	C	1.259061	0.000196	0.164469
C74	C	1.509061	0.250196	0.414469
C75	C	1.759061	0.500196	0.664469
C76	C	2.009061	0.750196	0.914469
C77	C	1.361456	0.000203	0.167159
C78	C	1.611456	0.250203	0.417159
C79	C	1.861456	0.500203	0.667159
C80	C	2.111456	0.750203	0.917159
C81	C	1.095797	0.000176	-0.054922
C82	C	1.345797	0.250176	0.195078
C83	C	1.595797	0.500176	0.445078
C84	C	1.845797	0.750176	0.695078
C85	C	1.093101	0.000170	-0.193451
C86	C	1.343101	0.250170	0.056549
C87	C	1.593101	0.500170	0.306549
C88	C	1.843101	0.750170	0.556549
C89	C	1.149440	0.416464	0.092543
C90	C	1.399440	0.666464	0.342543
C91	C	1.649440	0.916464	0.592543
C92	C	1.899440	1.166464	0.842543
C93	C	1.149454	0.583876	0.092538
C94	C	1.399454	0.833876	0.342538
C95	C	1.649454	1.083876	0.592538
C96	C	1.899454	1.333876	0.842538
C97	C	1.171651	0.000181	-0.269169
C98	C	1.421651	0.250181	-0.019169
C99	C	1.671651	0.500181	0.230831
C100	C	1.921651	0.750181	0.480831
C101	C	1.168866	0.000175	-0.412346
C102	C	1.418866	0.250175	-0.162346
C103	C	1.668866	0.500175	0.087654
C104	C	1.918866	0.750175	0.337654
C105	C	1.085218	0.000164	0.401328
C106	C	1.335218	0.250164	0.651328
C107	C	1.585218	0.500164	0.901328
C108	C	1.835218	0.750164	1.151328
C109	C	1.087914	0.000160	0.539857
C110	C	1.337914	0.250160	0.789857
C111	C	1.587914	0.500160	1.039857
C112	C	1.837914	0.750160	1.289857
H113	H	1.199889	0.354348	0.023486
H114	H	1.449889	0.604348	0.273486
H115	H	1.699889	0.854348	0.523486
H116	H	1.949889	1.104348	0.773486
H117	H	1.040043	0.406373	0.242249
H118	H	1.290043	0.656373	0.492249
H119	H	1.540043	0.906373	0.742249
H120	H	1.790043	1.156373	0.992249
H121	H	1.199920	0.645972	0.023488
H122	H	1.449920	0.895972	0.273488
H123	H	1.699920	1.145972	0.523488
H124	H	1.949920	1.395972	0.773488
H125	H	1.240961	0.000201	-0.227995
H126	H	1.490961	0.250201	0.022005
H127	H	1.740961	0.500201	0.272005
H128	H	1.990961	0.750201	0.522005
H129	H	1.040063	0.594001	0.242258
H130	H	1.290063	0.844001	0.492258
H131	H	1.540063	1.094001	0.742258
H132	H	1.790063	1.344001	0.992258
H133	H	1.236110	0.000191	-0.477407
H134	H	1.486110	0.250191	-0.227407
H135	H	1.736110	0.500191	0.022593
H136	H	1.986110	0.750191	0.272593
H137	H	1.020666	0.000160	-0.395089
H138	H	1.270666	0.250160	-0.145089
H139	H	1.520666	0.500160	0.104911
H140	H	1.770666	0.750160	0.354911
H141	H	1.023791	0.000149	-0.234625
H142	H	1.273791	0.250149	0.015375
H143	H	1.523791	0.500149	0.265375
H144	H	1.773791	0.750149	0.515375
