data_functionalizedCrystal
_audit_creation_method	'MofGen! by Chris Wilmer'
_symmetry_space_group_name_H-M	'P1'
_symmetry_Int_Tables_number	1
_symmetry_cell_setting	triclinic
loop_
_symmetry_equiv_pos_as_xyz
  x,y,z
_cell_length_a	27.732048
_cell_length_b	27.732048
_cell_length_c	26.210047
_cell_angle_alpha	89.988553
_cell_angle_beta	90.000479
_cell_angle_gamma	97.357346
loop_
_atom_site_label
_atom_site_type_symbol
_atom_site_fract_x
_atom_site_fract_y
_atom_site_fract_z
O1	O	-0.057510	0.640931	-0.042463
O2	O	0.442490	1.140931	0.457537
O3	O	-0.066255	0.500138	-0.042459
O4	O	0.433745	1.000138	0.457541
O5	O	0.008514	0.574907	-0.042451
O6	O	0.508514	1.074907	0.457549
O7	O	-0.132279	0.566162	-0.042470
O8	O	0.367721	1.066162	0.457530
O9	O	0.008502	0.574893	0.042407
O10	O	0.508502	1.074893	0.542407
O11	O	-0.066267	0.500123	0.042399
O12	O	0.433733	1.000123	0.542399
O13	O	-0.057522	0.640917	0.042395
O14	O	0.442478	1.140917	0.542395
Cu15	Cu	-0.061895	0.570519	0.050145
Cu16	Cu	0.438105	1.070519	0.550145
Cu17	Cu	-0.061882	0.570536	-0.050209
Cu18	Cu	0.438118	1.070536	0.449791
O19	O	-0.132291	0.566147	0.042388
O20	O	0.367709	1.066147	0.542388
C21	C	0.026515	0.574716	-0.000021
C22	C	0.526515	1.074716	0.499979
C23	C	0.080170	0.574164	-0.000017
C24	C	0.580170	1.074164	0.499983
C25	C	-0.057699	0.658931	-0.000036
C26	C	0.442301	1.158931	0.499964
C27	C	-0.058252	0.712586	-0.000041
C28	C	0.441748	1.212586	0.499959
C29	C	-0.066078	0.482124	-0.000029
C30	C	0.433922	0.982124	0.499971
C31	C	-0.065525	0.428469	-0.000027
C32	C	0.434475	0.928469	0.499973
C33	C	-0.150292	0.566338	-0.000044
C34	C	0.349708	1.066338	0.499956
C35	C	-0.203947	0.566891	-0.000052
C36	C	0.296053	1.066891	0.499948
C37	C	0.418985	0.614867	-0.000044
C38	C	0.918985	1.114867	0.499956
C39	C	0.620645	0.612816	-0.000051
C40	C	1.120645	1.112816	0.499949
O41	O	0.651900	0.650037	-0.000075
O42	O	1.151900	1.150037	0.499925
N43	N	0.639768	0.568481	-0.000049
N44	N	1.139768	1.068481	0.499951
C45	C	0.608474	0.524656	-0.000049
C46	C	1.108474	1.024656	0.499951
O47	O	0.629367	0.486899	-0.000053
O48	O	1.129367	0.986899	0.499947
C49	C	0.406815	0.526707	-0.000046
C50	C	0.906815	1.026707	0.499954
C51	C	0.387694	0.571045	-0.000042
C52	C	0.887694	1.071045	0.499958
C53	C	0.399864	0.659202	-0.000041
C54	C	0.899864	1.159202	0.499959
C55	C	0.349452	0.659714	-0.000037
C56	C	0.849452	1.159714	0.499963
C57	C	0.318161	0.615892	-0.000035
C58	C	0.818161	1.115892	0.499965
C59	C	0.337282	0.571557	-0.000038
C60	C	0.837282	1.071557	0.499962
C61	C	0.375521	0.482882	-0.000049
C62	C	0.875521	0.982882	0.499951
C63	C	0.325104	0.483399	-0.000049
C64	C	0.825104	0.983399	0.499951
C65	C	0.305983	0.527737	-0.000046
C66	C	0.805983	1.027737	0.499954
C67	C	0.255580	0.528248	-0.000031
C68	C	0.755580	1.028248	0.499969
N69	N	0.236456	0.572583	-0.000033
N70	N	0.736456	1.072583	0.499967
C71	C	0.267747	0.616405	-0.000035
C72	C	0.767747	1.116405	0.499965
C73	C	0.714348	0.523582	-0.000050
C74	C	1.214348	1.023582	0.499950
C75	C	0.764762	0.523069	-0.000050
C76	C	1.264762	1.023069	0.499950
C77	C	0.776930	0.611230	-0.000053
C78	C	1.276930	1.111230	0.499947
C79	C	0.726514	0.611742	-0.000049
C80	C	1.226514	1.111742	0.499951
C81	C	0.695224	0.567917	-0.000052
C82	C	1.195224	1.067917	0.499948
C83	C	0.161878	0.617477	-0.000025
C84	C	0.661878	1.117477	0.499975
C85	C	0.111461	0.617986	-0.000019
C86	C	0.611461	1.117986	0.499981
C87	C	0.099298	0.529825	-0.000018
C88	C	0.599298	1.029825	0.499982
C89	C	0.149710	0.529316	-0.000022
C90	C	0.649710	1.029316	0.499978
C91	C	0.180999	0.573147	-0.000027
C92	C	0.680999	1.073147	0.499973
O93	O	0.224296	0.491047	-0.000014
O94	O	0.724296	0.991047	0.499986
O95	O	0.246844	0.654156	-0.000043
O96	O	0.746844	1.154156	0.499957
C97	C	0.469397	0.614355	-0.000049
C98	C	0.969397	1.114355	0.499951
C99	C	0.488518	0.570021	-0.000051
C100	C	0.988518	1.070021	0.499949
C101	C	0.457228	0.526198	-0.000050
C102	C	0.957228	1.026198	0.499950
C103	C	0.538933	0.569508	-0.000051
C104	C	1.038933	1.069508	0.499949
C105	C	0.570223	0.613330	-0.000053
C106	C	1.070223	1.113330	0.499947
C107	C	0.551100	0.657665	-0.000055
C108	C	1.051100	1.157665	0.499945
C109	C	0.500688	0.658177	-0.000051
C110	C	1.000688	1.158177	0.499949
C111	C	0.476351	0.481863	-0.000048
C112	C	0.976351	0.981863	0.499952
C113	C	0.526764	0.481355	-0.000052
C114	C	1.026764	0.981355	0.499948
C115	C	0.558054	0.525177	-0.000053
C116	C	1.058054	1.025177	0.499947
N117	N	-0.061905	0.570510	0.120729
N118	N	0.438095	1.070510	0.620729
C119	C	-0.017548	1.051401	-0.000018
C120	C	0.482452	1.551401	0.499982
C121	C	-0.019599	1.253060	-0.000017
C122	C	0.480401	1.753060	0.499983
O123	O	0.017621	1.284316	0.000010
O124	O	0.517621	1.784316	0.500010
N125	N	-0.063935	1.272184	-0.000025
N126	N	0.436065	1.772184	0.499975
C127	C	-0.107760	1.240890	-0.000029
C128	C	0.392240	1.740890	0.499971
O129	O	-0.145517	1.261783	-0.000030
O130	O	0.354483	1.761783	0.499970
C131	C	-0.105709	1.039231	-0.000027
C132	C	0.394291	1.539231	0.499973
C133	C	-0.061371	1.020110	-0.000024
C134	C	0.438629	1.520110	0.499976
C135	C	0.026786	1.032280	-0.000015
C136	C	0.526786	1.532280	0.499985
C137	C	0.027298	0.981868	-0.000019
C138	C	0.527298	1.481868	0.499981
C139	C	-0.016524	0.950577	-0.000025
C140	C	0.483476	1.450577	0.499975
C141	C	-0.060858	0.969698	-0.000028
C142	C	0.439142	1.469698	0.499972
C143	C	-0.149534	1.007937	-0.000028
C144	C	0.350466	1.507937	0.499972
C145	C	-0.149017	0.957520	-0.000026
C146	C	0.350983	1.457520	0.499974
C147	C	-0.104679	0.938399	-0.000023
C148	C	0.395321	1.438399	0.499977
C149	C	-0.104168	0.887996	-0.000037
C150	C	0.395832	1.387996	0.499963
N151	N	-0.059833	0.868872	-0.000029
N152	N	0.440167	1.368872	0.499971
C153	C	-0.016011	0.900163	-0.000023
C154	C	0.483989	1.400163	0.499977
C155	C	-0.108834	1.346764	-0.000031
C156	C	0.391166	1.846764	0.499969
C157	C	-0.109347	1.397178	-0.000033
C158	C	0.390653	1.897178	0.499967
C159	C	-0.021186	1.409345	-0.000020
C160	C	0.478814	1.909345	0.499980
C161	C	-0.020674	1.358930	-0.000022
C162	C	0.479326	1.858930	0.499978
C163	C	-0.064499	1.327640	-0.000024
C164	C	0.435501	1.827640	0.499976
C165	C	-0.014938	0.794293	-0.000030
C166	C	0.485062	1.294293	0.499970
C167	C	-0.014430	0.743876	-0.000035
C168	C	0.485570	1.243876	0.499965
C169	C	-0.102591	0.731713	-0.000046
C170	C	0.397409	1.231713	0.499954
C171	C	-0.103099	0.782126	-0.000043
C172	C	0.396901	1.282126	0.499957
C173	C	-0.059269	0.813415	-0.000034
C174	C	0.440731	1.313415	0.499966
O175	O	-0.141369	0.856712	-0.000058
O176	O	0.358631	1.356712	0.499942
O177	O	0.021740	0.879260	-0.000011
O178	O	0.521740	1.379260	0.499989
C179	C	-0.018061	1.101813	-0.000015
C180	C	0.481939	1.601813	0.499985
C181	C	-0.062395	1.120934	-0.000018
C182	C	0.437605	1.620934	0.499982
C183	C	-0.106217	1.089643	-0.000024
C184	C	0.393783	1.589643	0.499976
C185	C	-0.062908	1.171348	-0.000020
C186	C	0.437092	1.671348	0.499980
C187	C	-0.019086	1.202639	-0.000014
C188	C	0.480914	1.702639	0.499986
C189	C	0.025249	1.183515	-0.000006
C190	C	0.525249	1.683515	0.499994
C191	C	0.025761	1.133103	-0.000009
C192	C	0.525761	1.633103	0.499991
C193	C	-0.150553	1.108767	-0.000032
C194	C	0.349447	1.608767	0.499968
C195	C	-0.151061	1.159180	-0.000029
C196	C	0.348939	1.659180	0.499971
C197	C	-0.107239	1.190470	-0.000023
C198	C	0.392761	1.690470	0.499977
N199	N	-0.061868	0.570548	-0.120793
N200	N	0.438132	1.070548	0.379207
C201	C	-0.028781	0.603640	0.473247
C202	C	0.471219	1.103640	0.973247
C203	C	-0.028774	0.603651	0.686905
C204	C	0.471226	1.103651	1.186905
O205	O	-0.000614	0.631801	0.714530
O206	O	0.499386	1.131801	1.214530
N207	N	-0.061871	0.570538	0.713623
N208	N	0.438129	1.070538	1.213623
C209	C	-0.094970	0.537419	0.686923
C210	C	0.405030	1.037419	1.186923
O211	O	-0.123117	0.509251	0.714551
O212	O	0.376883	1.009251	1.214551
C213	C	-0.094974	0.537406	0.473266
C214	C	0.405026	1.037406	0.973266
C215	C	-0.061878	0.570524	0.446550
C216	C	0.438122	1.070524	0.946550
C217	C	0.004312	0.636755	0.446531
C218	C	0.504312	1.136755	0.946531
C219	C	0.004308	0.636754	0.393120
C220	C	0.504308	1.136754	0.893120
C221	C	-0.028789	0.603638	0.366424
C222	C	0.471211	1.103638	0.866424
C223	C	-0.061882	0.570523	0.393139
C224	C	0.438118	1.070523	0.893139
C225	C	-0.128070	0.504284	0.446567
C226	C	0.371930	1.004284	0.946567
C227	C	-0.128067	0.504283	0.393149
C228	C	0.371933	1.004283	0.893149
C229	C	-0.094971	0.537401	0.366434
C230	C	0.405029	1.037401	0.866434
C231	C	-0.094983	0.537405	0.313031
C232	C	0.405017	1.037405	0.813031
N233	N	-0.061886	0.570518	0.286313
N234	N	0.438114	1.070518	0.786313
C235	C	-0.028789	0.603634	0.313010
C236	C	0.471211	1.103634	0.813010
C237	C	-0.094966	0.537428	0.799097
C238	C	0.405034	1.037428	1.299097
C239	C	-0.094965	0.537432	0.852511
C240	C	0.405035	1.037432	1.352511
C241	C	-0.028769	0.603664	0.852489
C242	C	0.471231	1.103664	1.352489
C243	C	-0.028773	0.603662	0.799074
C244	C	0.471227	1.103662	1.299074
C245	C	-0.061869	0.570541	0.772379
C246	C	0.438131	1.070541	1.272379
C247	C	-0.028800	0.603629	0.200842
C248	C	0.471200	1.103629	0.700842
C249	C	-0.028808	0.603626	0.147425
C250	C	0.471192	1.103626	0.647425
C251	C	-0.095002	0.537393	0.147452
C252	C	0.404998	1.037393	0.647452
C253	C	-0.094996	0.537397	0.200863
C254	C	0.405004	1.037397	0.700863
C255	C	-0.061891	0.570517	0.227557
C256	C	0.438109	1.070517	0.727557
O257	O	-0.123125	0.509267	0.285374
O258	O	0.376875	1.009267	0.785374
O259	O	-0.000639	0.631790	0.285372
O260	O	0.499361	1.131790	0.785372
C261	C	-0.028777	0.603642	0.526658
C262	C	0.471223	1.103642	1.026658
C263	C	-0.061871	0.570527	0.553373
C264	C	0.438129	1.070527	1.053373
C265	C	-0.094968	0.537410	0.526677
C266	C	0.405032	1.037410	1.026677
C267	C	-0.061870	0.570530	0.606788
C268	C	0.438130	1.070530	1.106788
C269	C	-0.028773	0.603646	0.633484
C270	C	0.471227	1.103646	1.133484
C271	C	0.004323	0.636759	0.606766
C272	C	0.504323	1.136759	1.106766
C273	C	0.004320	0.636758	0.553354
C274	C	0.504320	1.136758	1.053354
C275	C	-0.128064	0.504298	0.553395
C276	C	0.371936	1.004298	1.053395
C277	C	-0.128058	0.504302	0.606807
C278	C	0.371942	1.004302	1.106807
C279	C	-0.094961	0.537418	0.633503
C280	C	0.405039	1.037418	1.133503
H281	H	0.187348	0.653168	-0.000031
H282	H	0.687348	1.153168	0.499969
H283	H	-0.155019	0.477317	0.468311
H284	H	0.344981	0.977317	0.968311
O285	O	-0.145126	0.701263	-0.000118
O286	O	0.354874	1.201263	0.499882
C287	C	-0.147467	0.671754	-0.044072
C288	C	0.352533	1.171754	0.455928
H289	H	-0.109117	0.669493	-0.058725
H290	H	0.390883	1.169493	0.441275
H291	H	-0.165756	0.633723	-0.034187
H292	H	0.334244	1.133723	0.465813
H293	H	-0.169420	0.688181	-0.074847
H294	H	0.330580	1.188181	0.425153
H295	H	-0.121918	0.510456	0.777365
H296	H	0.378082	1.010456	1.277365
H297	H	0.095896	0.654093	-0.000015
H298	H	0.595896	1.154093	0.499985
H299	H	-0.001842	0.630598	0.222569
H300	H	0.498158	1.130598	0.722569
O301	O	0.036398	0.668948	0.472515
O302	O	0.536398	1.168948	0.972515
C303	C	0.010716	0.698586	0.503391
C304	C	0.510716	1.198586	1.003391
H305	H	-0.027240	0.679049	0.511407
H306	H	0.472760	1.179049	1.011407
H307	H	0.030950	0.706396	0.540946
H308	H	0.530950	1.206396	1.040946
H309	H	0.007672	0.734279	0.482789
H310	H	0.507672	1.234279	0.982789
O311	O	-0.191559	0.927076	-0.000098
O312	O	0.308441	1.427076	0.499902
C313	C	-0.193903	0.897570	-0.044055
C314	C	0.306097	1.397570	0.455945
H315	H	-0.155554	0.895301	-0.058704
H316	H	0.344446	1.395301	0.441296
H317	H	-0.212202	0.859541	-0.034174
H318	H	0.287798	1.359541	0.465826
H319	H	-0.215849	0.914006	-0.074830
H320	H	0.284151	1.414006	0.425170
H321	H	-0.155018	0.477311	0.371416
H322	H	0.344982	0.977311	0.871416
O323	O	0.445910	0.439324	0.000024
O324	O	0.945910	0.939324	0.500024
C325	C	0.416396	0.436968	0.043982
C326	C	0.916396	0.936968	0.543982
H327	H	0.414123	0.475313	0.058632
H328	H	0.914123	0.975313	0.558632
H329	H	0.378370	0.418669	0.034103
H330	H	0.878370	0.918669	0.534103
H331	H	0.432829	0.415017	0.074756
H332	H	0.932829	0.915017	0.574756
O333	O	0.068801	1.114475	0.000063
O334	O	0.568801	1.614475	0.500063
C335	C	0.071740	1.085679	0.044018
C336	C	0.571740	1.585679	0.544018
H337	H	0.033545	1.072834	0.058666
H338	H	0.533545	1.572834	0.558666
H339	H	0.090763	1.052809	0.034136
H340	H	0.590763	1.552809	0.534136
H341	H	0.093288	1.108107	0.074796
H342	H	0.593288	1.608107	0.574796
O343	O	-0.146211	0.800622	-0.000028
O344	O	0.353789	1.300622	0.499972
C345	C	-0.184779	0.762191	-0.000051
C346	C	0.315221	1.262191	0.499949
H347	H	-0.171492	0.728033	0.016011
H348	H	0.328508	1.228033	0.516011
H349	H	-0.215760	0.772492	0.024583
H350	H	0.284240	1.272492	0.524583
H351	H	-0.198272	0.754971	-0.040764
H352	H	0.301728	1.254971	0.459236
H353	H	0.031269	0.663725	0.531606
H354	H	0.531269	1.163725	1.031606
H355	H	0.576585	0.693347	-0.000054
H356	H	1.076585	1.193347	0.499946
H357	H	-0.001823	0.630629	0.777325
H358	H	0.498177	1.130629	1.277325
H359	H	-0.144524	1.321291	-0.000033
H360	H	0.355476	1.821291	0.499967
O361	O	0.807311	0.653812	0.000032
O362	O	1.307311	1.153812	0.500032
C363	C	0.798693	0.680761	0.043970
C364	C	1.298693	1.180761	0.543970
H365	H	0.781272	0.655113	0.074694
H366	H	1.281272	1.155113	0.574694
H367	H	0.834611	0.700412	0.058715
H368	H	1.334611	1.200412	0.558715
H369	H	0.773229	0.708548	0.034029
H370	H	1.273229	1.208548	0.534029
H371	H	0.031271	0.663725	0.628510
H372	H	0.531271	1.163725	1.128510
H373	H	-0.155013	0.477334	0.628555
H374	H	0.344987	0.977334	1.128555
O375	O	0.545254	0.438238	-0.000077
O376	O	1.045254	0.938238	0.499923
C377	C	0.506819	0.399673	-0.000062
C378	C	1.006819	0.899673	0.499938
H379	H	0.472666	0.412970	-0.016121
H380	H	0.972666	0.912970	0.483879
H381	H	0.517123	0.368701	-0.024704
H382	H	1.017123	0.868701	0.475296
H383	H	0.499589	0.386164	0.040648
H384	H	0.999589	0.886164	0.540648
O385	O	0.482198	0.701290	-0.000074
O386	O	0.982198	1.201290	0.499926
C387	C	0.520634	0.739853	-0.000064
C388	C	1.020634	1.239853	0.499936
H389	H	0.554784	0.726561	-0.016129
H390	H	1.054784	1.226561	0.483871
H391	H	0.510330	0.770837	-0.024701
H392	H	1.010330	1.270837	0.475299
H393	H	0.527870	0.753346	0.040646
H394	H	1.027870	1.253346	0.540646
O395	O	0.294661	0.440857	0.000017
O396	O	0.794661	0.940857	0.500017
C397	C	0.265145	0.438497	0.043975
C398	C	0.765145	0.938497	0.543975
H399	H	0.262873	0.476841	0.058629
H400	H	0.762873	0.976841	0.558629
H401	H	0.227119	0.420201	0.034092
H402	H	0.727119	0.920201	0.534092
H403	H	0.281575	0.416541	0.074747
H404	H	0.781575	0.916541	0.574747
H405	H	0.060931	1.209001	-0.000004
H406	H	0.560931	1.709001	0.499996
O407	O	0.036508	0.668940	0.367251
O408	O	0.536508	1.168940	0.867251
C409	C	0.065710	0.698172	0.402277
C410	C	0.565710	1.198172	0.902277
H411	H	0.066113	0.678357	0.440356
H412	H	0.566113	1.178357	0.940356
H413	H	0.104368	0.705834	0.386848
H414	H	0.604368	1.205834	0.886848
H415	H	0.050264	0.733963	0.407949
H416	H	0.550264	1.233963	0.907949
O417	O	0.003450	0.635812	0.878370
O418	O	0.503450	1.135812	1.378370
C419	C	0.051247	0.628299	0.865332
C420	C	0.551247	1.128299	1.365332
H421	H	0.051058	0.609670	0.826553
H422	H	0.551058	1.109670	1.326553
H423	H	0.075308	0.664808	0.863502
H424	H	0.575308	1.164808	1.363502
H425	H	0.066023	0.604347	0.895399
H426	H	0.566023	1.104347	1.395399
O427	O	-0.194178	1.177669	-0.000010
O428	O	0.305822	1.677669	0.499990
C429	C	-0.232743	1.139235	-0.000027
C430	C	0.267257	1.639235	0.499973
H431	H	-0.219451	1.105079	0.016034
H432	H	0.280549	1.605079	0.516034
H433	H	-0.263722	1.149534	0.024610
H434	H	0.236278	1.649534	0.524610
H435	H	-0.246240	1.132013	-0.040739
H436	H	0.253760	1.632013	0.459261
O437	O	-0.192595	1.026521	-0.000126
O438	O	0.307405	1.526521	0.499874
C439	C	-0.195526	1.055332	-0.044071
C440	C	0.304474	1.555332	0.455929
H441	H	-0.170345	1.043608	-0.074782
H442	H	0.329655	1.543608	0.425218
H443	H	-0.234515	1.050509	-0.058832
H444	H	0.265485	1.550509	0.441168
H445	H	-0.184089	1.095176	-0.034135
H446	H	0.315911	1.595176	0.465865
O447	O	0.168206	0.486205	-0.000046
O448	O	0.668206	0.986205	0.499954
C449	C	0.129775	0.447637	-0.000028
C450	C	0.629775	0.947637	0.499972
H451	H	0.095619	0.460930	-0.016085
H452	H	0.595619	0.960930	0.483915
H453	H	0.140080	0.416665	-0.024670
H454	H	0.640080	0.916665	0.475330
H455	H	0.122549	0.434128	0.040683
H456	H	0.622549	0.934128	0.540683
O457	O	0.003391	0.635816	0.121554
O458	O	0.503391	1.135816	0.621554
C459	C	0.032595	0.665051	0.156575
C460	C	0.532595	1.165051	0.656575
H461	H	0.033005	0.645237	0.194654
H462	H	0.533005	1.145237	0.694654
H463	H	0.071251	0.672716	0.141140
H464	H	0.571251	1.172716	0.641140
H465	H	0.017147	0.700841	0.162249
H466	H	0.517147	1.200841	0.662249
H467	H	-0.121950	0.510434	0.222615
H468	H	0.378050	1.010434	0.722615
O469	O	-0.127169	0.505290	0.121457
O470	O	0.372831	1.005290	0.621457
C471	C	-0.156822	0.530949	0.090562
C472	C	0.343178	1.030949	0.590562
H473	H	-0.137313	0.568920	0.082555
H474	H	0.362687	1.068920	0.582555
H475	H	-0.164601	0.510717	0.053003
H476	H	0.335399	1.010717	0.553003
H477	H	-0.192530	0.533957	0.111142
H478	H	0.307470	1.033957	0.611142
O479	O	0.022438	1.340439	0.000006
O480	O	0.522438	1.840439	0.500006
C481	C	0.061004	1.378873	-0.000005
C482	C	0.561004	1.878873	0.499995
H483	H	0.047709	1.413022	0.016057
H484	H	0.547709	1.913022	0.516057
H485	H	0.091980	1.368563	0.024636
H486	H	0.591980	1.868563	0.524636
H487	H	0.074506	1.386114	-0.040714
H488	H	0.574506	1.886114	0.459286
O489	O	0.783253	0.479956	-0.000070
O490	O	1.283253	0.979956	0.499930
C491	C	0.744818	0.441391	-0.000057
C492	C	1.244818	0.941391	0.499943
H493	H	0.710667	0.454686	-0.016121
H494	H	1.210667	0.954686	0.483879
H495	H	0.755124	0.410417	-0.024694
H496	H	1.255124	0.910417	0.475306
H497	H	0.737584	0.427885	0.040654
H498	H	1.237584	0.927885	0.540654
H499	H	-0.155015	0.477330	0.531663
H500	H	0.344985	0.977330	1.031663
O501	O	-0.193111	1.078354	0.000048
O502	O	0.306889	1.578354	0.500048
C503	C	-0.195462	1.048805	0.043986
C504	C	0.304538	1.548805	0.543986
H505	H	-0.170609	1.067437	0.074713
H506	H	0.329391	1.567437	0.574713
H507	H	-0.234447	1.042851	0.058727
H508	H	0.265553	1.542851	0.558727
H509	H	-0.183234	1.012233	0.034048
H510	H	0.316766	1.512233	0.534048
H511	H	0.073812	0.494146	-0.000015
H512	H	0.573812	0.994146	0.499985
O513	O	0.707965	0.654824	-0.000142
O514	O	1.207965	1.154824	0.499858
C515	C	0.724002	0.681525	-0.044084
C516	C	1.224002	1.181525	0.455916
H517	H	0.734299	0.655595	-0.074800
H518	H	1.234299	1.155595	0.425200
H519	H	0.693611	0.701862	-0.058839
H520	H	1.193611	1.201862	0.441161
H521	H	0.757061	0.708707	-0.034148
H522	H	1.257061	1.208707	0.465852
H523	H	0.014496	1.434831	-0.000017
H524	H	0.514496	1.934831	0.499983
O525	O	0.683906	0.481039	0.000019
O526	O	1.183906	0.981039	0.500019
C527	C	0.654388	0.478682	0.043974
C528	C	1.154388	0.978682	0.543974
H529	H	0.652113	0.517027	0.058624
H530	H	1.152113	1.017027	0.558624
H531	H	0.616363	0.460382	0.034091
H532	H	1.116363	0.960382	0.534091
H533	H	0.670818	0.456730	0.074750
H534	H	1.170818	0.956730	0.574750
O535	O	-0.127136	0.505218	0.878380
O536	O	0.372864	1.005218	1.378380
C537	C	-0.156353	0.475998	0.843356
C538	C	0.343647	0.975998	1.343356
H539	H	-0.136536	0.475603	0.805282
H540	H	0.363464	0.975603	1.305282
H541	H	-0.163993	0.437340	0.858796
H542	H	0.336007	0.937340	1.358796
H543	H	-0.192156	0.491421	0.837671
H544	H	0.307844	0.991421	1.337671
H545	H	0.425336	0.694889	-0.000045
H546	H	0.925336	1.194889	0.499955
O547	O	0.330962	0.702827	-0.000061
O548	O	0.830962	1.202827	0.499939
C549	C	0.369399	0.741390	-0.000051
C550	C	0.869399	1.241390	0.499949
H551	H	0.403549	0.728098	-0.016116
H552	H	0.903549	1.228098	0.483884
H553	H	0.359094	0.772373	-0.024690
H554	H	0.859094	1.272373	0.475310
H555	H	0.376634	0.754883	0.040659
H556	H	0.876634	1.254883	0.540659
H557	H	0.391080	0.446777	-0.000055
H558	H	0.891080	0.946777	0.499945
H559	H	0.020752	0.819764	-0.000023
H560	H	0.520752	1.319764	0.499977
O561	O	0.028685	0.725384	-0.000009
O562	O	0.528685	1.225384	0.499991
C563	C	0.067252	0.763817	-0.000014
C564	C	0.567252	1.263817	0.499986
H565	H	0.053959	0.797965	0.016051
H566	H	0.553959	1.297965	0.516051
H567	H	0.098226	0.753502	0.024626
H568	H	0.598226	1.253502	0.524626
H569	H	0.080756	0.771061	-0.040723
H570	H	0.580756	1.271061	0.459277
H571	H	0.063403	0.966305	-0.000015
H572	H	0.563403	1.466305	0.499985
H573	H	-0.145452	1.412741	-0.000042
H574	H	0.354548	1.912741	0.499958
O575	O	0.069403	1.062602	-0.000034
O576	O	0.569403	1.562602	0.499966
C577	C	0.108637	1.034904	-0.000017
C578	C	0.608637	1.534904	0.499983
H579	H	0.096073	0.997187	-0.016080
H580	H	0.596073	1.497187	0.483920
H581	H	0.139323	1.053723	-0.024654
H582	H	0.639323	1.553723	0.475346
H583	H	0.122242	1.031405	0.040694
H584	H	0.622242	1.531405	0.540694
