data_functionalizedCrystal
_audit_creation_method	'MofGen! by Chris Wilmer'
_symmetry_space_group_name_H-M	'P1'
_symmetry_Int_Tables_number	1
_symmetry_cell_setting	triclinic
loop_
_symmetry_equiv_pos_as_xyz
  x,y,z
_cell_length_a	10.967926
_cell_length_b	10.540510
_cell_length_c	9.482900
_cell_angle_alpha	99.430215
_cell_angle_beta	92.549900
_cell_angle_gamma	84.613823
loop_
_atom_site_label
_atom_site_type_symbol
_atom_site_fract_x
_atom_site_fract_y
_atom_site_fract_z
O1	O	1.612104	0.224169	0.283000
O2	O	1.262914	0.226953	0.195514
O3	O	1.445494	0.041174	0.241258
O4	O	1.429524	0.409948	0.237256
O5	O	1.408409	0.079069	0.473759
O6	O	1.225829	0.264848	0.428015
O7	O	1.575019	0.262064	0.515501
Cu8	Cu	1.397038	0.266916	0.492987
Cu9	Cu	1.440895	0.222101	0.218028
O10	O	1.392439	0.447843	0.469757
C11	C	1.199658	0.242835	0.300562
C12	C	1.066427	0.233684	0.267182
C13	C	0.987818	0.249235	0.372743
C14	C	0.850116	0.239778	0.338245
C15	C	1.425762	0.012769	0.357208
C16	C	1.422203	-0.128325	0.356307
C17	C	1.548955	-0.340583	0.388618
C18	C	1.552838	-0.193921	0.389038
C19	C	1.376506	-0.197418	0.206786
C20	C	1.373650	-0.344312	0.205962
C21	C	1.328757	-0.301136	0.469678
C22	C	1.334675	-0.154261	0.472978
C23	C	1.638275	0.246182	0.410450
C24	C	1.771507	0.255331	0.443821
C25	C	1.412171	0.476247	0.353804
C26	C	1.415732	0.617340	0.354696
N27	N	1.366200	0.298436	0.686381
N28	N	1.471742	0.190571	0.024636
C29	C	1.431791	0.231391	0.775014
C30	C	1.406142	0.257626	0.936005
H31	H	0.815479	0.219458	0.222324
F32	F	1.361678	-0.333076	0.614716
F33	F	1.570170	0.090372	0.968103
F34	F	0.816775	0.281872	0.595341
F35	F	1.208339	-0.093446	0.452226
H36	H	1.031784	0.213365	0.151269
H37	H	1.589982	-0.146957	0.497318
F38	F	1.595632	-0.372454	0.529738
H39	H	1.367668	-0.107679	0.583389
H40	H	1.506930	0.154563	0.731711
H41	H	1.614657	-0.397480	0.306620
H42	H	1.438707	-0.180794	0.119617
H43	H	1.291052	0.375255	0.729684
H44	H	1.330989	0.334450	0.979301
H45	H	1.022462	0.269543	0.488656
H46	H	1.620672	-0.178933	0.306887
H47	H	1.435181	-0.398861	0.118167
H48	H	1.281122	-0.154709	0.177754
F49	F	1.247200	-0.380804	0.166083
F50	F	1.200371	-0.335064	0.438731
