data_functionalizedCrystal
_audit_creation_method	'MofGen! by Chris Wilmer'
_symmetry_space_group_name_H-M	'P1'
_symmetry_Int_Tables_number	1
_symmetry_cell_setting	triclinic
loop_
_symmetry_equiv_pos_as_xyz
  x,y,z
_cell_length_a	29.839134
_cell_length_b	12.759399
_cell_length_c	12.759393
_cell_angle_alpha	89.969094
_cell_angle_beta	90.032473
_cell_angle_gamma	89.990022
loop_
_atom_site_label
_atom_site_type_symbol
_atom_site_fract_x
_atom_site_fract_y
_atom_site_fract_z
Zn1	Zn	0.686848	0.418359	0.594340
Zn2	Zn	1.186848	0.918359	1.094340
Zn3	Zn	0.686801	0.594075	0.418659
Zn4	Zn	1.186801	1.094075	0.918659
Zn5	Zn	0.611717	0.418395	0.418640
Zn6	Zn	1.111717	0.918395	0.918640
Zn7	Zn	0.611713	0.593981	0.594261
Zn8	Zn	1.111713	1.093981	1.094261
O9	O	0.649270	0.506203	0.506475
O10	O	1.149270	1.006203	1.006475
O11	O	0.749709	0.441693	0.571077
O12	O	1.249709	0.941693	1.071077
O13	O	0.676823	0.570825	0.271636
O14	O	1.176823	1.070825	0.771636
O15	O	0.621705	0.271369	0.441972
O16	O	1.121705	0.771369	0.941972
O17	O	0.749675	0.570790	0.442005
O18	O	1.249675	1.070790	0.942005
O19	O	0.676903	0.271343	0.571059
O20	O	1.176903	0.771343	1.071059
O21	O	0.621659	0.441753	0.271622
O22	O	1.121659	0.941753	0.771622
O23	O	0.548850	0.441662	0.441896
O24	O	1.048850	0.941662	0.941896
O25	O	0.621698	0.570630	0.741293
O26	O	1.121698	1.070630	1.241293
O27	O	0.548847	0.570665	0.570923
O28	O	1.048847	1.070665	1.070923
O29	O	0.676900	0.441602	0.741351
O30	O	1.176900	0.941602	1.241351
O31	O	0.676819	0.741083	0.441928
O32	O	1.176819	1.241083	0.941928
O33	O	0.621652	0.741015	0.570942
O34	O	1.121652	1.241015	1.070942
C35	C	0.532547	0.506158	0.506399
C36	C	1.032547	1.006158	1.006399
C37	C	0.482613	0.506164	0.506392
C38	C	0.982613	1.006164	1.006392
C39	C	0.649243	0.779170	0.506451
C40	C	1.149243	1.279170	1.006451
C41	C	0.649272	0.895947	0.506476
C42	C	1.149272	1.395947	1.006476
C43	C	0.649304	0.506102	0.780509
C44	C	1.149304	1.006102	1.280509
C45	C	0.649318	0.506059	0.897285
C46	C	1.149318	1.006059	1.397285
C47	C	0.172978	0.573474	0.573578
C48	C	0.672978	1.073474	1.073578
C49	C	-0.014695	0.573503	0.573624
C50	C	0.485305	1.073503	1.073624
O51	O	-0.038954	0.630682	0.630703
O52	O	0.461046	1.130682	1.130703
N53	N	-0.038172	0.506241	0.506554
N54	N	0.461828	1.006241	1.006554
C55	C	-0.014727	0.438962	0.439473
C56	C	0.485273	0.938962	0.939473
O57	O	-0.039002	0.381745	0.382434
O58	O	0.460998	0.881745	0.882434
C59	C	0.172945	0.438928	0.439432
C60	C	0.672945	0.938928	0.939432
C61	C	0.196419	0.506202	0.506499
C62	C	0.696419	1.006202	1.006499
C63	C	0.196452	0.640741	0.640640
C64	C	0.696452	1.140741	1.140640
C65	C	0.243367	0.640737	0.640624
C66	C	0.743367	1.140737	1.140624
C67	C	0.266809	0.573465	0.573545
C68	C	0.766809	1.073465	1.073545
C69	C	0.243334	0.506198	0.506483
C70	C	0.743334	1.006198	1.006483
C71	C	0.196388	0.371644	0.372356
C72	C	0.696388	0.871644	0.872356
C73	C	0.243309	0.371640	0.372354
C74	C	0.743309	0.871640	0.872354
C75	C	0.266784	0.438914	0.439421
C76	C	0.766784	0.938914	0.939421
C77	C	0.313691	0.438922	0.439387
C78	C	0.813691	0.938922	0.939387
N79	N	0.337168	0.506184	0.506458
N80	N	0.837168	1.006184	1.006458
C81	C	0.313726	0.573456	0.573536
C82	C	0.813726	1.073456	1.073536
C83	C	-0.113258	0.438986	0.439497
C84	C	0.386742	0.938986	0.939497
C85	C	-0.160176	0.438996	0.439506
C86	C	0.339824	0.938996	0.939506
C87	C	-0.160141	0.573536	0.573659
C88	C	0.339859	1.073536	1.073659
C89	C	-0.113222	0.573531	0.573645
C90	C	0.386778	1.073531	1.073645
C91	C	-0.089782	0.506248	0.506567
C92	C	0.410218	1.006248	1.006567
C93	C	0.412252	0.573443	0.573496
C94	C	0.912252	1.073443	1.073496
C95	C	0.459172	0.573436	0.573471
C96	C	0.959172	1.073436	1.073471
C97	C	0.459132	0.438892	0.439322
C98	C	0.959132	0.938892	0.939322
C99	C	0.412217	0.438903	0.439343
C100	C	0.912217	0.938903	0.939343
C101	C	0.388778	0.506182	0.506438
C102	C	0.888778	1.006182	1.006438
O103	O	0.337978	0.381764	0.382347
O104	O	0.837978	0.881764	0.882347
O105	O	0.338009	0.630648	0.630583
O106	O	0.838009	1.130648	1.130583
C107	C	0.126062	0.573478	0.573594
C108	C	0.626062	1.073478	1.073594
C109	C	0.102588	0.506210	0.506532
C110	C	0.602588	1.006210	1.006532
C111	C	0.126029	0.438938	0.439453
C112	C	0.626029	0.938938	0.939453
C113	C	0.055670	0.506220	0.506540
C114	C	0.555670	1.006220	1.006540
C115	C	0.032229	0.573491	0.573619
C116	C	0.532229	1.073491	1.073619
C117	C	0.055705	0.640753	0.640689
C118	C	0.555705	1.140753	1.140689
C119	C	0.102621	0.640749	0.640673
C120	C	0.602621	1.140749	1.140673
C121	C	0.102553	0.371676	0.372383
C122	C	0.602553	0.871676	0.872383
C123	C	0.055637	0.371687	0.372404
C124	C	0.555637	0.871687	0.872404
C125	C	0.032196	0.438958	0.439483
C126	C	0.532196	0.938958	0.939483
C127	C	0.766448	0.506248	0.506552
C128	C	1.266448	1.006248	1.006552
C129	C	0.816383	0.506267	0.506585
C130	C	1.316383	1.006267	1.006585
C131	C	0.649310	0.232169	0.506522
C132	C	1.149310	0.732169	1.006522
C133	C	0.649327	0.115393	0.506542
C134	C	1.149327	0.615393	1.006542
C135	C	0.678030	0.950809	0.439375
C136	C	1.178030	1.450809	0.939375
C137	C	0.678059	1.060533	0.439410
C138	C	1.178059	1.560533	0.939410
C139	C	0.620568	1.060522	0.573651
C140	C	1.120568	1.560522	1.073651
C141	C	0.620541	0.950800	0.573620
C142	C	1.120541	1.450800	1.073620
C143	C	0.649262	0.506227	0.233508
C144	C	1.149262	1.006227	0.733508
C145	C	0.649335	0.505974	0.116732
C146	C	1.149335	1.005974	0.616732
C147	C	0.678063	0.438863	0.952179
C148	C	1.178063	0.938863	1.452179
C149	C	0.678071	0.438818	1.061904
C150	C	1.178071	0.938818	1.561904
C151	C	0.620586	0.573173	1.061830
C152	C	1.120586	1.073173	1.561830
C153	C	0.620577	0.573212	0.952108
C154	C	1.120577	1.073212	1.452108
H155	H	0.478282	0.628222	0.628086
H156	H	0.978282	1.128222	1.128086
C157	C	0.029911	0.714751	0.714478
C158	C	0.529911	1.214751	1.214478
N159	N	0.010480	0.770477	0.770057
N160	N	0.510480	1.270477	1.270057
H161	H	0.597166	0.627930	0.907412
H162	H	1.097166	1.127930	1.407412
H163	H	-0.094177	0.384195	0.384870
H164	H	0.405823	0.884195	0.884870
H165	H	0.597123	0.906128	0.628267
H166	H	1.097123	1.406128	1.128267
C167	C	0.709693	1.120878	0.365589
C168	C	1.209693	1.620878	0.865589
N169	N	0.733521	1.166328	0.309983
N170	N	1.233521	1.666328	0.809983
C171	C	0.128332	0.297672	0.298582
C172	C	0.628332	0.797672	0.798582
N173	N	0.147746	0.241933	0.242986
N174	N	0.647746	0.741933	0.742986
C175	C	0.588961	1.120871	0.647493
C176	C	1.088961	1.620871	1.147493
N177	N	0.565152	1.166325	0.703109
N178	N	1.065152	1.666325	1.203109
H179	H	0.036529	0.316905	0.317780
H180	H	0.536529	0.816905	0.817780
C181	C	0.170674	0.714764	0.714427
C182	C	0.670674	1.214764	1.214427
N183	N	0.151261	0.770531	0.769999
N184	N	0.651261	1.270531	1.269999
C185	C	0.709675	0.364983	0.891879
C186	C	1.209675	0.864983	1.391879
N187	N	0.733485	0.309330	0.846463
N188	N	1.233485	0.809330	1.346463
C189	C	0.709694	0.364899	1.122282
C190	C	1.209694	0.864899	1.622282
N191	N	0.733515	0.309220	1.167758
N192	N	1.233515	0.809220	1.667758
C193	C	0.709637	0.890475	0.365521
C194	C	1.209637	1.390475	0.865521
N195	N	0.733445	0.845033	0.309894
N196	N	1.233445	1.345033	0.809894
H197	H	0.597188	0.627849	1.106480
H198	H	1.097188	1.127849	1.606480
H199	H	0.393174	0.628225	0.628134
H200	H	0.893174	1.128225	1.128134
H201	H	0.262476	0.695516	0.695239
H202	H	0.762476	1.195516	1.195239
H203	H	-0.094112	0.628310	0.628258
H204	H	0.405888	1.128310	1.128258
H205	H	-0.179234	0.628311	0.628278
H206	H	0.320766	1.128311	1.128278
H207	H	-0.179285	0.384225	0.384883
H208	H	0.320715	0.884225	0.884883
H209	H	0.177284	0.316865	0.317740
H210	H	0.677284	0.816865	0.817740
H211	H	0.262392	0.316843	0.317737
H212	H	0.762392	0.816843	0.817737
H213	H	0.393103	0.384125	0.384729
H214	H	0.893103	0.884125	0.884729
H215	H	0.478227	0.384125	0.384704
H216	H	0.978227	0.884125	0.884704
H217	H	0.121729	0.695530	0.695286
H218	H	0.621729	1.195530	1.195286
