data_functionalizedCrystal
_audit_creation_method	'MofGen! by Chris Wilmer'
_symmetry_space_group_name_H-M	'P1'
_symmetry_Int_Tables_number	1
_symmetry_cell_setting	triclinic
loop_
_symmetry_equiv_pos_as_xyz
  x,y,z
_cell_length_a	18.215407
_cell_length_b	16.120531
_cell_length_c	18.215399
_cell_angle_alpha	87.133706
_cell_angle_beta	89.980167
_cell_angle_gamma	87.067235
loop_
_atom_site_label
_atom_site_type_symbol
_atom_site_fract_x
_atom_site_fract_y
_atom_site_fract_z
Zn1	Zn	1.110178	0.331906	-0.430942
Zn2	Zn	1.103830	0.471328	-0.314104
Zn3	Zn	0.987109	0.331934	-0.307891
Zn4	Zn	0.980822	0.471282	-0.437126
O5	O	1.045485	0.401612	-0.372516
O6	O	1.212320	0.350409	-0.415455
O7	O	1.088321	0.452868	-0.210296
O8	O	1.008722	0.215264	-0.319025
O9	O	1.207656	0.452841	-0.329614
O10	O	1.099141	0.215244	-0.409431
O11	O	1.002567	0.350456	-0.205732
O12	O	0.883291	0.350411	-0.325022
O13	O	0.998007	0.452762	-0.539289
O14	O	0.878672	0.452789	-0.419971
O15	O	1.093044	0.350364	-0.534745
O16	O	1.082225	0.587988	-0.335611
O17	O	0.991851	0.587954	-0.425996
C18	C	0.854279	0.401598	-0.372494
C19	C	0.772480	0.401612	-0.372503
C20	C	0.581896	0.455004	-0.421888
C21	C	0.505037	0.455007	-0.421897
C22	C	0.509825	0.348236	-0.323160
C23	C	0.586683	0.348229	-0.323155
C24	C	0.622716	0.401619	-0.372518
C25	C	0.468999	0.401627	-0.372532
C26	C	0.385666	0.401630	-0.372542
C27	C	0.706055	0.401615	-0.372509
C28	C	1.035687	0.618221	-0.382165
C29	C	1.031563	0.710887	-0.386317
C30	C	1.024037	0.880549	-0.393914
C31	C	1.066960	0.921836	-0.351076
C32	C	1.062773	1.016241	-0.355303
C33	C	1.028223	0.786135	-0.389688
C34	C	1.237437	0.401627	-0.372538
C35	C	1.319236	0.401634	-0.372547
C36	C	1.045532	0.401555	-0.564466
C37	C	1.045552	0.401531	-0.646264
C38	C	1.055315	1.184158	-0.362831
C39	C	1.059437	1.091492	-0.358670
C40	C	1.095057	0.348162	-0.832091
C41	C	1.095067	0.348138	-0.908949
C42	C	0.996105	0.454770	-0.913669
C43	C	0.996092	0.454790	-0.836813
C44	C	1.045573	0.401487	-0.796026
C45	C	1.045595	0.401443	-0.949740
C46	C	1.045606	0.401417	-1.033072
C47	C	1.045562	0.401511	-0.712688
C48	C	1.045483	0.401610	-0.181309
C49	C	1.045616	0.401399	-0.099501
H50	H	0.619919	0.304751	-0.282952
H51	H	1.106852	0.886281	-0.311226
N52	N	0.974001	0.925156	-0.443900
N53	N	0.970631	1.002895	-0.447301
H54	H	0.935292	1.034409	-0.482602
H55	H	1.135346	0.304757	-0.798884
N56	N	0.618692	0.509544	-0.472312
N57	N	0.582233	0.557206	-0.516388
H58	H	0.608218	0.595726	-0.552003
N59	N	1.145616	0.293658	-0.945777
N60	N	1.189785	0.246069	-0.909348
H61	H	1.225487	0.207589	-0.935356
N62	N	0.945569	0.509209	-0.955344
N63	N	0.945587	0.509186	-1.023965
H64	H	0.909895	0.547635	-1.053399
H65	H	0.955791	0.498213	-0.807447
H66	H	0.480477	0.304769	-0.282970
N67	N	0.463352	0.509540	-0.472335
N68	N	0.495537	0.557198	-0.516405
H69	H	0.466098	0.595714	-0.552032
