data_functionalizedCrystal
_audit_creation_method	'MofGen! by Chris Wilmer'
_symmetry_space_group_name_H-M	'P1'
_symmetry_Int_Tables_number	1
_symmetry_cell_setting	triclinic
loop_
_symmetry_equiv_pos_as_xyz
  x,y,z
_cell_length_a	16.959454
_cell_length_b	16.959455
_cell_length_c	16.959447
_cell_angle_alpha	90.015228
_cell_angle_beta	89.973264
_cell_angle_gamma	89.985155
loop_
_atom_site_label
_atom_site_type_symbol
_atom_site_fract_x
_atom_site_fract_y
_atom_site_fract_z
Zn1	Zn	-0.314776	-1.208384	-0.446947
Zn2	Zn	0.185224	-0.708384	0.053053
Zn3	Zn	-0.446969	-1.208306	-0.314777
Zn4	Zn	0.053031	-0.708306	0.185223
Zn5	Zn	-0.314796	-1.076212	-0.314783
Zn6	Zn	0.185204	-0.576212	0.185217
Zn7	Zn	-0.446905	-1.076177	-0.446914
Zn8	Zn	0.053095	-0.576177	0.053086
O9	O	-0.380861	-1.142270	-0.380855
O10	O	0.119139	-0.642270	0.119145
O11	O	-0.332330	-1.318984	-0.429427
O12	O	0.167670	-0.818984	0.070573
O13	O	-0.429471	-1.190766	-0.204167
O14	O	0.070529	-0.690766	0.295833
O15	O	-0.204183	-1.093792	-0.332331
O16	O	0.295817	-0.593792	0.167669
O17	O	-0.429452	-1.318927	-0.332322
O18	O	0.070548	-0.818927	0.167678
O19	O	-0.204168	-1.190898	-0.429432
O20	O	0.295832	-0.690898	0.070568
O21	O	-0.332364	-1.093717	-0.204171
O22	O	0.167636	-0.593717	0.295829
O23	O	-0.332302	-0.965597	-0.332299
O24	O	0.167698	-0.465597	0.167701
O25	O	-0.429342	-1.093732	-0.557529
O26	O	0.070658	-0.593732	-0.057529
O27	O	-0.429362	-0.965571	-0.429374
O28	O	0.070638	-0.465571	0.070626
O29	O	-0.332268	-1.190864	-0.557554
O30	O	0.167732	-0.690864	-0.057554
O31	O	-0.557571	-1.190732	-0.332289
O32	O	-0.057571	-0.690732	0.167711
O33	O	-0.557524	-1.093657	-0.429369
O34	O	-0.057524	-0.593657	0.070631
C35	C	-0.380828	-0.936904	-0.380834
C36	C	0.119172	-0.436904	0.119166
C37	C	-0.380832	-0.849047	-0.380844
C38	C	0.119168	-0.349047	0.119156
C39	C	-0.330256	-0.477560	-0.330403
C40	C	0.169744	0.022440	0.169597
C41	C	-0.431482	-0.477582	-0.431332
C42	C	0.068518	0.022418	0.068668
C43	C	-0.431473	-0.560128	-0.431328
C44	C	0.068527	-0.060128	0.068672
C45	C	-0.380856	-0.601394	-0.380861
C46	C	0.119144	-0.101394	0.119139
C47	C	-0.330248	-0.560114	-0.330396
C48	C	0.169752	-0.060114	0.169604
C49	C	-0.482087	-0.601414	-0.481786
C50	C	0.017913	-0.101414	0.018214
C51	C	-0.482081	-0.683965	-0.481784
C52	C	0.017919	-0.183965	0.018216
C53	C	-0.431460	-0.725233	-0.431320
C54	C	0.068540	-0.225233	0.068680
C55	C	-0.380848	-0.683948	-0.380854
C56	C	0.119152	-0.183948	0.119146
C57	C	-0.330231	-0.725213	-0.330386
C58	C	0.169769	-0.225213	0.169614
C59	C	-0.279615	-0.683930	-0.279924
C60	C	0.220385	-0.183930	0.220076
C61	C	-0.279626	-0.601381	-0.279932
C62	C	0.220374	-0.101381	0.220068
C63	C	-0.431449	-0.807781	-0.431311
C64	C	0.068551	-0.307781	0.068689
C65	C	-0.330223	-0.807767	-0.330379
C66	C	0.169777	-0.307767	0.169621
C67	C	-0.586228	-1.142204	-0.380842
C68	C	-0.086228	-0.642204	0.119158
C69	C	-0.674084	-1.142248	-0.380863
C70	C	-0.174084	-0.642248	0.119137
C71	C	-1.045565	-1.091796	-0.431399
C72	C	-0.545565	-0.591796	0.068601
C73	C	-1.045554	-1.192963	-0.330392
C74	C	-0.545554	-0.692963	0.169608
C75	C	-0.963008	-1.192936	-0.330384
C76	C	-0.463008	-0.692936	0.169616
C77	C	-0.921737	-1.142337	-0.380885
C78	C	-0.421737	-0.642337	0.119115
C79	C	-0.963012	-1.091765	-0.431392
C80	C	-0.463012	-0.591765	0.068608
C81	C	-0.921728	-1.243501	-0.279872
C82	C	-0.421728	-0.743501	0.220128
C83	C	-0.839177	-1.243475	-0.279862
C84	C	-0.339177	-0.743475	0.220138
C85	C	-0.797904	-1.192879	-0.330367
C86	C	-0.297904	-0.692879	0.169633
C87	C	-0.839184	-1.142306	-0.380877
C88	C	-0.339184	-0.642306	0.119123
C89	C	-0.797912	-1.091707	-0.431377
C90	C	-0.297912	-0.591707	0.068623
C91	C	-0.839190	-1.041137	-0.481892
C92	C	-0.339190	-0.541137	0.018108
C93	C	-0.921739	-1.041170	-0.481897
C94	C	-0.421739	-0.541170	0.018103
C95	C	-0.715356	-1.192847	-0.330362
C96	C	-0.215356	-0.692847	0.169638
C97	C	-0.715359	-1.091676	-0.431370
C98	C	-0.215359	-0.591676	0.068630
C99	C	-0.174693	-1.142358	-0.380886
C100	C	0.325307	-0.642358	0.119114
C101	C	-0.086837	-1.142395	-0.380899
C102	C	0.413163	-0.642395	0.119101
C103	C	-0.380796	-1.142303	-0.587024
C104	C	0.119204	-0.642303	-0.087024
C105	C	-0.380768	-1.142317	-0.674880
C106	C	0.119232	-0.642317	-0.174880
C107	C	-0.380886	-0.348438	-0.380873
C108	C	0.119114	0.151562	0.119127
C109	C	-0.380873	-0.436295	-0.380871
C110	C	0.119127	0.063705	0.119129
C111	C	-0.431227	-1.091839	-1.046346
C112	C	0.068773	-0.591839	-0.546346
C113	C	-0.330143	-1.192983	-1.046367
C114	C	0.169857	-0.692983	-0.546367
C115	C	-0.330159	-1.192962	-0.963821
C116	C	0.169841	-0.692962	-0.463821
C117	C	-0.380711	-1.142380	-0.922533
C118	C	0.119289	-0.642380	-0.422533
C119	C	-0.431247	-1.091818	-0.963792
C120	C	0.068753	-0.591818	-0.463792
C121	C	-0.279631	-1.243529	-0.922556
C122	C	0.220369	-0.743529	-0.422556
C123	C	-0.279646	-1.243510	-0.840005
C124	C	0.220354	-0.743510	-0.340005
C125	C	-0.330195	-1.192923	-0.798716
C126	C	0.169805	-0.692923	-0.298716
C127	C	-0.380731	-1.142359	-0.839980
C128	C	0.119269	-0.642359	-0.339980
C129	C	-0.431283	-1.091776	-0.798693
C130	C	0.068717	-0.591776	-0.298693
C131	C	-0.481817	-1.041207	-0.839955
C132	C	0.018183	-0.541207	-0.339955
C133	C	-0.481795	-1.041231	-0.922503
C134	C	0.018205	-0.541231	-0.422503
C135	C	-0.330216	-1.192899	-0.716168
C136	C	0.169784	-0.692899	-0.216168
C137	C	-0.431303	-1.091755	-0.716139
C138	C	0.068697	-0.591755	-0.216139
C139	C	-0.380870	-1.142282	-0.175489
C140	C	0.119130	-0.642282	0.324511
C141	C	-0.380675	-1.142422	-0.087633
C142	C	0.119325	-0.642422	0.412367
H143	H	-0.523302	-0.567810	-0.522869
H144	H	-0.023302	-0.067810	-0.022869
H145	H	-0.289075	-1.234074	-0.682575
H146	H	0.210925	-0.734074	-0.182575
H147	H	-0.681751	-1.234016	-0.289230
H148	H	-0.181751	-0.734016	0.210770
Cl149	Cl	-0.495079	-0.859677	-0.494740
Cl150	Cl	0.004921	-0.359677	0.005260
H151	H	-0.238498	-1.284686	-0.806416
H152	H	0.261502	-0.784686	-0.306416
H153	H	-0.523295	-0.717571	-0.522874
H154	H	-0.023295	-0.217571	-0.022874
H155	H	-0.681761	-1.050475	-0.472497
H156	H	-0.181761	-0.550475	0.027503
H157	H	-0.955355	-0.999998	-0.523022
H158	H	-0.455355	-0.499998	-0.023022
Cl159	Cl	-0.266582	-0.859637	-0.266934
Cl160	Cl	0.233418	-0.359637	0.233066
Cl161	Cl	-0.266624	-0.425664	-0.266972
Cl162	Cl	0.233376	0.074336	0.233028
Cl163	Cl	-0.495127	-0.425704	-0.494757
Cl164	Cl	0.004873	0.074296	0.005243
Cl165	Cl	-0.787297	-0.977526	-0.545372
Cl166	Cl	-0.287297	-0.477526	-0.045372
H167	H	-1.079178	-1.050626	-0.472530
H168	H	-0.579178	-0.550626	0.027470
Cl169	Cl	-0.266601	-1.256575	-1.098271
Cl170	Cl	0.233399	-0.756575	-0.598271
Cl171	Cl	-0.216002	-0.549478	-0.216499
Cl172	Cl	0.283998	-0.049478	0.283501
Cl173	Cl	-0.215990	-0.735817	-0.216476
Cl174	Cl	0.284010	-0.235817	0.283524
H175	H	-0.805573	-1.284651	-0.238731
H176	H	-0.305573	-0.784651	0.261269
H177	H	-0.472462	-1.050557	-0.682529
H178	H	0.027538	-0.550557	-0.182529
Cl179	Cl	-0.545369	-0.977625	-0.788041
Cl180	Cl	-0.045369	-0.477625	-0.288041
Cl181	Cl	-1.097439	-1.256571	-0.266910
Cl182	Cl	-0.597439	-0.756571	0.233090
Cl183	Cl	-0.973615	-1.307111	-0.216395
Cl184	Cl	-0.473615	-0.807111	0.283605
Cl185	Cl	-0.545321	-0.977669	-0.974380
Cl186	Cl	-0.045321	-0.477669	-0.474380
Cl187	Cl	-0.494749	-1.028268	-1.098215
Cl188	Cl	0.005251	-0.528268	-0.598215
H189	H	-0.238479	-1.284715	-0.956178
H190	H	0.261521	-0.784715	-0.456178
