data_functionalizedCrystal
_audit_creation_method	'MofGen! by Chris Wilmer'
_symmetry_space_group_name_H-M	'P1'
_symmetry_Int_Tables_number	1
_symmetry_cell_setting	triclinic
loop_
_symmetry_equiv_pos_as_xyz
  x,y,z
_cell_length_a	19.805404
_cell_length_b	18.050591
_cell_length_c	19.805398
_cell_angle_alpha	90.024004
_cell_angle_beta	89.974553
_cell_angle_gamma	89.977324
loop_
_atom_site_label
_atom_site_type_symbol
_atom_site_fract_x
_atom_site_fract_y
_atom_site_fract_z
Zn1	Zn	-0.269615	-1.135286	-0.382869
Zn2	Zn	-0.382800	-1.135193	-0.269681
Zn3	Zn	-0.269617	-1.011105	-0.269677
Zn4	Zn	-0.382754	-1.011050	-0.382812
O5	O	-0.326196	-1.073158	-0.326260
O6	O	-0.284648	-1.239198	-0.367880
O7	O	-0.367806	-1.118717	-0.174964
O8	O	-0.174900	-1.027639	-0.284714
O9	O	-0.367804	-1.239130	-0.284721
O10	O	-0.174898	-1.118874	-0.367876
O11	O	-0.284651	-1.027550	-0.174961
O12	O	-0.284606	-0.907173	-0.284659
O13	O	-0.367725	-1.027545	-0.477536
O14	O	-0.367727	-0.907132	-0.367779
O15	O	-0.284603	-1.118821	-0.477578
O16	O	-0.477510	-1.118664	-0.284666
O17	O	-0.477476	-1.027456	-0.367783
C18	C	-0.502052	-1.073064	-0.326234
C19	C	-0.577284	-1.073092	-0.326245
C20	C	-0.326162	-0.880206	-0.326213
C21	C	-0.326164	-0.797660	-0.326209
C22	C	-1.039070	-1.120833	-0.283076
C23	C	-0.968382	-1.120798	-0.283063
C24	C	-0.933046	-1.073256	-0.326296
C25	C	-0.968402	-1.025740	-0.369540
C26	C	-1.039089	-1.025772	-0.369549
C27	C	-0.683329	-1.025611	-0.369503
C28	C	-0.612637	-1.025584	-0.369492
C29	C	-0.612622	-1.120637	-0.283016
C30	C	-0.683309	-1.120668	-0.283025
C31	C	-0.718659	-1.073150	-0.326267
C32	C	-0.795307	-1.073188	-0.326280
C33	C	-0.856399	-1.073222	-0.326287
C34	C	-0.280901	-0.598210	-0.281103
C35	C	-0.342633	-0.548789	-0.264443
C36	C	-0.326177	-0.646530	-0.326232
C37	C	-0.264459	-0.548870	-0.342883
C38	C	-0.326185	-0.500545	-0.326253
C39	C	-0.387942	-0.598196	-0.309540
C40	C	-0.309727	-0.598281	-0.388009
C41	C	-0.371502	-0.548882	-0.371373
C42	C	-0.326172	-0.730628	-0.326218
C43	C	-0.326197	-0.416448	-0.326267
C44	C	-0.149653	-1.073273	-0.326301
C45	C	-0.074421	-1.073322	-0.326318
C46	C	-0.326159	-1.073187	-0.502803
C47	C	-0.326143	-1.073200	-0.578035
C48	C	-0.326219	-0.266864	-0.326295
C49	C	-0.326199	-0.349410	-0.326279
C50	C	-0.282741	-1.120816	-1.039849
C51	C	-0.282762	-1.120805	-0.969160
C52	C	-0.326049	-1.073276	-0.933797
C53	C	-0.369322	-1.025761	-0.969125
C54	C	-0.369305	-1.025777	-1.039812
C55	C	-0.369396	-1.025696	-0.684052
C56	C	-0.369409	-1.025683	-0.613360
C57	C	-0.282853	-1.120724	-0.613400
C58	C	-0.282835	-1.120740	-0.684087
C59	C	-0.326111	-1.073228	-0.719409
C60	C	-0.326089	-1.073243	-0.796058
C61	C	-0.326068	-1.073258	-0.857149
C62	C	-0.326185	-1.073172	-0.150404
C63	C	-0.326010	-1.073304	-0.075172
H64	H	-1.067836	-1.159551	-0.247874
H65	H	-0.404658	-0.986974	-0.584568
H66	H	-0.409838	-0.527360	-0.409546
H67	H	-0.939627	-0.987026	-0.404739
O68	O	-0.291265	-0.627111	-0.457176
H69	H	-0.239983	-0.607394	-0.470876
H70	H	-0.939600	-1.159484	-0.247851
H71	H	-0.404633	-0.987008	-0.712803
H72	H	-0.247584	-1.159440	-0.712876
O73	O	-0.574520	-0.974292	-0.416111
H74	H	-0.610975	-0.941245	-0.446174
O75	O	-0.195328	-0.520152	-0.361541
H76	H	-0.160756	-0.567595	-0.370358
H77	H	-0.247487	-1.159515	-1.068637
H78	H	-0.440155	-0.619773	-0.295408
H79	H	-0.356555	-0.527051	-0.212209
O80	O	-0.230247	-0.626915	-0.230502
H81	H	-0.205372	-0.579465	-0.204981
H82	H	-1.067871	-0.987088	-0.404765
H83	H	-0.247530	-1.159497	-0.940403
H84	H	-0.247617	-1.159413	-0.584632
O85	O	-0.721423	-1.171942	-0.236393
H86	H	-0.684965	-1.204969	-0.206316
O87	O	-0.574496	-1.171897	-0.236378
H88	H	-0.519406	-1.163889	-0.243630
O89	O	-0.416007	-0.974495	-0.930982
H90	H	-0.404384	-0.916221	-0.944548
H91	H	-0.712102	-0.986913	-0.404708
H92	H	-0.404539	-0.987088	-1.068572
