data_functionalizedCrystal
_audit_creation_method	'MofGen! by Chris Wilmer'
_symmetry_space_group_name_H-M	'P1'
_symmetry_Int_Tables_number	1
_symmetry_cell_setting	triclinic
loop_
_symmetry_equiv_pos_as_xyz
  x,y,z
_cell_length_a	14.908831
_cell_length_b	12.759401
_cell_length_c	12.759393
_cell_angle_alpha	89.981504
_cell_angle_beta	86.726815
_cell_angle_gamma	86.700344
loop_
_atom_site_label
_atom_site_type_symbol
_atom_site_fract_x
_atom_site_fract_y
_atom_site_fract_z
Zn1	Zn	0.359089	1.582221	-0.618161
Zn2	Zn	0.509971	1.572017	-0.452640
Zn3	Zn	0.359136	1.406520	-0.442503
Zn4	Zn	0.509901	1.396418	-0.628277
O5	O	0.434524	1.489294	-0.535395
O6	O	0.379113	1.727888	-0.596213
O7	O	0.490011	1.550021	-0.304278
O8	O	0.232890	1.438326	-0.457328
O9	O	0.489965	1.720391	-0.474606
O10	O	0.232855	1.567413	-0.586383
O11	O	0.379193	1.428431	-0.296830
O12	O	0.379126	1.258160	-0.467138
O13	O	0.489847	1.421108	-0.773953
O14	O	0.489893	1.250738	-0.603625
O15	O	0.379046	1.557617	-0.766521
O16	O	0.636202	1.540225	-0.484415
O17	O	0.636151	1.411213	-0.613455
C18	C	0.434508	1.216328	-0.535380
C19	C	0.434522	1.099550	-0.535400
C20	C	0.199224	1.505134	-0.519596
C21	C	0.098954	1.511884	-0.512864
C22	C	0.492291	1.040845	-0.606364
C23	C	0.492302	0.931120	-0.606376
C24	C	0.376774	0.938816	-0.464451
C25	C	0.376759	1.048539	-0.464445
C26	C	0.558993	1.036401	-0.688300
C27	C	0.559004	0.926676	-0.688313
C28	C	-0.089520	1.390231	-0.634606
C29	C	-0.183733	1.396569	-0.628284
C30	C	-0.183688	1.530905	-0.493903
C31	C	-0.089475	1.524566	-0.500225
C32	C	-0.042394	1.454226	-0.570578
C33	C	0.051821	1.447882	-0.576894
C34	C	0.051865	1.582222	-0.442520
C35	C	-0.042348	1.588561	-0.436197
C36	C	0.668909	1.473544	-0.551156
C37	C	0.769179	1.466903	-0.557933
C38	C	0.434433	1.489374	-0.809423
C39	C	0.434394	1.489408	-0.926197
C40	C	0.434542	1.763326	-0.535412
C41	C	0.434549	1.880102	-0.535418
C42	C	0.376695	1.560498	-0.977190
C43	C	0.376662	1.560525	-1.086912
C44	C	0.492037	1.418369	-1.094638
C45	C	0.492064	1.418338	-0.984918
C46	C	0.310087	1.642573	-0.972730
C47	C	0.310054	1.642601	-1.082452
C48	C	0.434550	1.489280	-0.262430
C49	C	0.434334	1.489466	-0.145639
H50	H	0.329712	1.096334	-0.406665
C51	C	0.543326	1.355159	-0.820157
C52	C	0.555481	1.340186	-0.928863
H53	H	0.582475	1.306904	-0.785554
H54	H	0.556549	1.424844	-0.803070
H55	H	0.482712	1.343868	-0.798123
H56	H	0.616094	1.351485	-0.950898
H57	H	0.542264	1.270485	-0.945958
C58	C	-0.174191	1.663050	-0.361702
C59	C	-0.235448	1.608216	-0.416573
H60	H	-0.206148	1.710781	-0.313965
H61	H	-0.137437	1.614788	-0.323983
H62	H	-0.137454	1.700785	-0.409947
H63	H	-0.272182	1.570475	-0.368329
H64	H	-0.272218	1.656484	-0.454294
C65	C	0.161617	1.587429	-1.036716
C66	C	0.220440	1.609317	-1.122393
H67	H	0.106294	1.566887	-1.061377
H68	H	0.187729	1.532162	-0.996569
H69	H	0.150924	1.648404	-0.994105
H70	H	0.231138	1.548339	-1.165000
H71	H	0.194323	1.664589	-1.162557
H72	H	-0.080692	1.645834	-0.378920
C73	C	0.593118	0.816726	-0.839696
C74	C	0.525342	0.883023	-0.790464
H75	H	0.572331	0.789772	-0.902754
H76	H	0.644856	0.855166	-0.855553
H77	H	0.608121	0.760266	-0.794173
H78	H	0.510343	0.939487	-0.835985
H79	H	0.473588	0.844581	-0.774611
H80	H	0.090245	1.634332	-0.390383
H81	H	0.329744	0.897269	-0.406683
H82	H	0.090153	1.390610	-0.634182
H83	H	0.540360	1.067456	-0.768452
H84	H	0.335133	1.718169	-0.940381
H85	H	0.538987	1.360504	-1.142462
H86	H	-0.222101	1.344460	-0.680423
H87	H	-0.051186	1.332958	-0.691891
C88	C	0.350691	1.816311	-1.040041
C89	C	0.335325	1.750748	-1.124364
H90	H	0.366298	1.883069	-1.065919
H91	H	0.297690	1.824301	-0.995134
H92	H	0.398517	1.786031	-1.001894
H93	H	0.287494	1.781024	-1.162507
H94	H	0.388332	1.742760	-1.169290
H95	H	0.240223	1.625481	-0.938270
H96	H	0.625325	1.065975	-0.663482
H97	H	0.628855	0.892205	-0.671084
