data_functionalizedCrystal
_audit_creation_method	'MofGen! by Chris Wilmer'
_symmetry_space_group_name_H-M	'P1'
_symmetry_Int_Tables_number	1
_symmetry_cell_setting	triclinic
loop_
_symmetry_equiv_pos_as_xyz
  x,y,z
_cell_length_a	16.109317
_cell_length_b	14.586319
_cell_length_c	16.109301
_cell_angle_alpha	89.995022
_cell_angle_beta	96.535152
_cell_angle_gamma	89.999094
loop_
_atom_site_label
_atom_site_type_symbol
_atom_site_fract_x
_atom_site_fract_y
_atom_site_fract_z
O1	O	-1.103122	-0.076146	0.106931
O2	O	-0.861062	-0.076169	0.120216
O3	O	-0.988742	-0.076147	-0.007457
O4	O	-0.975443	-0.076167	0.234604
O5	O	-0.988733	0.076333	-0.007458
O6	O	-0.861053	0.076312	0.120215
O7	O	-1.103113	0.076335	0.106930
Cu8	Cu	-0.982082	0.090246	0.113572
Cu9	Cu	-0.982093	-0.090080	0.113574
O10	O	-0.975433	0.076313	0.234603
C11	C	-0.830083	0.000068	0.119675
C12	C	-0.737788	0.000060	0.118054
N13	N	-0.982081	0.217078	0.113571
C14	C	-0.988199	0.000093	-0.038433
C15	C	-0.986584	0.000095	-0.130728
C16	C	-0.438720	-0.083047	0.112821
C17	C	-0.525441	-0.083051	0.114338
C18	C	-0.525450	0.083192	0.114325
C19	C	-0.438731	0.083195	0.112802
C20	C	-0.395367	0.000073	0.112054
C21	C	-0.568808	0.000066	0.115095
C22	C	-0.662835	0.000062	0.116740
C23	C	-0.301335	0.000076	0.110408
C24	C	-0.134092	0.000091	0.107472
C25	C	-0.226387	0.000079	0.109095
C26	C	-1.038635	0.452094	0.057057
C27	C	-1.038637	0.548075	0.057055
C28	C	-0.925538	0.548065	0.170089
C29	C	-0.925532	0.452086	0.170086
C30	C	-0.982086	0.404103	0.113571
C31	C	-0.982093	0.596063	0.113572
C32	C	-0.982095	0.700131	0.113571
C33	C	-0.982083	0.300029	0.113571
N34	N	-0.982098	0.783088	0.113573
C35	C	-1.058591	0.000087	-0.352996
C36	C	-1.057067	0.000079	-0.439717
C37	C	-0.905579	0.000068	-0.419851
C38	C	-0.907104	0.000069	-0.333132
C39	C	-0.983612	0.000083	-0.299707
C40	C	-0.980563	0.000075	-0.473147
C41	C	-0.978910	0.000066	-0.567173
C42	C	-0.985266	0.000090	-0.205675
C43	C	-0.975977	0.000071	0.265578
C44	C	-0.977592	0.000063	0.357874
H45	H	-0.403416	-0.150730	0.112211
H46	H	-0.843289	0.000059	-0.447077
H47	H	-0.879495	0.587143	0.216104
H48	H	-0.846044	0.000064	-0.289742
O49	O	-0.572202	-0.172701	0.115170
H50	H	-0.527476	-0.230496	0.114400
H51	H	-1.084684	0.587147	0.011035
H52	H	-1.084683	0.413028	0.011038
H53	H	-0.560766	0.150867	0.114936
O54	O	-0.864540	0.400313	0.231046
H55	H	-0.825225	0.449801	0.270354
H56	H	-1.120889	0.000097	-0.325785
O57	O	-1.137938	0.000097	-0.497191
H58	H	-1.174561	-0.062041	-0.485299
O59	O	-0.391961	0.172849	0.111981
H60	H	-0.436680	0.230649	0.112771
