data_functionalizedCrystal
_audit_creation_method	'MofGen! by Chris Wilmer'
_symmetry_space_group_name_H-M	'P1'
_symmetry_Int_Tables_number	1
_symmetry_cell_setting	triclinic
loop_
_symmetry_equiv_pos_as_xyz
  x,y,z
_cell_length_a	14.908571
_cell_length_b	16.959454
_cell_length_c	16.959447
_cell_angle_alpha	90.023171
_cell_angle_beta	93.311179
_cell_angle_gamma	86.716421
loop_
_atom_site_label
_atom_site_type_symbol
_atom_site_fract_x
_atom_site_fract_y
_atom_site_fract_z
Zn1	Zn	1.379211	-0.384534	0.516559
Zn2	Zn	1.379114	-0.516713	0.384384
Zn3	Zn	1.228349	-0.376918	0.376781
Zn4	Zn	1.228317	-0.509034	0.508910
O5	O	1.303748	-0.446800	0.446659
O6	O	1.505443	-0.408469	0.505410
O7	O	1.359087	-0.498196	0.272763
O8	O	1.248415	-0.267321	0.395342
O9	O	1.505372	-0.505581	0.408301
O10	O	1.359252	-0.272916	0.498037
O11	O	1.248321	-0.395489	0.267177
O12	O	1.102100	-0.388043	0.387924
O13	O	1.248361	-0.492492	0.620537
O14	O	1.102076	-0.485107	0.484999
O15	O	1.359221	-0.401022	0.626157
O16	O	1.359056	-0.626303	0.400884
O17	O	1.248267	-0.620660	0.492372
C18	C	1.069354	-0.434916	0.434807
C19	C	0.969079	-0.429850	0.429755
C20	C	1.303672	-0.652162	0.446641
C21	C	1.303722	-0.740021	0.446664
C22	C	0.780676	-0.521563	0.521211
C23	C	0.686459	-0.516806	0.516467
C24	C	0.686427	-0.415577	0.415529
C25	C	0.780644	-0.420334	0.420273
C26	C	0.827765	-0.473329	0.473115
C27	C	0.921984	-0.478089	0.477854
C28	C	0.921949	-0.376857	0.376920
C29	C	0.827732	-0.372100	0.372176
C30	C	1.246143	-1.108595	0.494295
C31	C	1.361603	-1.114415	0.399115
C32	C	1.361572	-1.031867	0.399106
C33	C	1.303824	-0.987680	0.446692
C34	C	1.246108	-1.026039	0.494286
C35	C	1.419281	-0.993501	0.351506
C36	C	1.419251	-0.910949	0.351495
C37	C	1.361507	-0.866760	0.399085
C38	C	1.303789	-0.905124	0.446682
C39	C	1.246041	-0.860936	0.494268
C40	C	1.188327	-0.899300	0.541870
C41	C	1.188364	-0.981850	0.541877
C42	C	1.361470	-0.784209	0.399079
C43	C	1.246006	-0.778381	0.494259
C44	C	1.539057	-0.458731	0.458557
C45	C	1.639331	-0.463816	0.463627
C46	C	1.303798	-0.446750	0.652829
C47	C	1.303820	-0.446729	0.740687
C48	C	1.303848	-0.240637	0.446694
C49	C	1.303891	-0.152782	0.446710
C50	C	1.303749	-0.446795	0.241292
C51	C	1.303902	-0.446603	0.153444
C52	C	1.246111	-0.494343	0.779037
C53	C	1.361544	-0.399089	0.784892
C54	C	1.361562	-0.399064	0.867438
C55	C	1.303854	-0.446678	0.905788
C56	C	1.246126	-0.494318	0.861591
C57	C	1.419283	-0.351419	0.911641
C58	C	1.419303	-0.351391	0.994193
C59	C	1.361598	-0.399011	1.032545
C60	C	1.303869	-0.446653	0.988343
C61	C	1.246160	-0.494268	1.026693
C62	C	1.188434	-0.541915	0.982492
C63	C	1.188421	-0.541937	0.899943
C64	C	1.361611	-0.398988	1.115094
C65	C	1.246175	-0.494242	1.109247
H66	H	0.960349	-0.521242	0.520879
H67	H	1.141423	-0.580728	0.863948
O68	O	1.183925	-0.545599	1.150603
H69	H	1.193632	-0.537581	1.215432
H70	H	0.960299	-0.337583	0.337754
O71	O	0.635629	-0.568828	0.568312
H72	H	0.592680	-0.606802	0.530671
H73	H	1.199115	-0.533139	0.743046
O74	O	0.635597	-0.358447	0.358512
H75	H	0.562172	-0.363258	0.363285
O76	O	1.126114	-1.023236	0.593202
H77	H	1.141536	-1.008149	0.656032
O78	O	1.481568	-0.300013	1.041866
H79	H	1.521698	-0.266913	1.001330
O80	O	1.423725	-0.742840	0.347750
H81	H	1.469583	-0.707512	0.385484
O82	O	1.481530	-0.300071	0.870283
H83	H	1.471831	-0.308104	0.805456
O84	O	0.776908	-0.314964	0.315162
H85	H	0.703481	-0.319769	0.319932
H86	H	1.141304	-0.863312	0.580611
H87	H	1.408614	-1.150397	0.360368
H88	H	1.141443	-0.580678	1.013727
O89	O	1.423791	-0.347739	0.743535
H90	H	1.414087	-0.355765	0.678708
H91	H	1.198984	-0.742408	0.533012
O92	O	1.183884	-1.149963	0.545627
H93	H	1.193600	-1.214789	0.537637
H94	H	1.408603	-0.360188	1.151078
H95	H	1.466289	-1.029484	0.312759
O96	O	0.831510	-0.578718	0.578200
H97	H	0.782937	-0.611458	0.610851
H98	H	1.466245	-0.879718	0.312736
