data_functionalizedCrystal
_audit_creation_method	'MofGen! by Chris Wilmer'
_symmetry_space_group_name_H-M	'P1'
_symmetry_Int_Tables_number	1
_symmetry_cell_setting	triclinic
loop_
_symmetry_equiv_pos_as_xyz
  x,y,z
_cell_length_a	12.645331
_cell_length_b	21.295417
_cell_length_c	12.645324
_cell_angle_alpha	89.959220
_cell_angle_beta	89.978020
_cell_angle_gamma	90.029485
loop_
_atom_site_label
_atom_site_type_symbol
_atom_site_fract_x
_atom_site_fract_y
_atom_site_fract_z
Zn1	Zn	1.620630	-0.250579	-0.599379
Zn2	Zn	2.120630	0.249421	-0.099379
Zn3	Zn	1.620474	-0.355866	-0.422091
Zn4	Zn	2.120474	0.144134	0.077909
Zn5	Zn	1.443346	-0.250613	-0.422123
Zn6	Zn	1.943346	0.249387	0.077877
Zn7	Zn	1.443286	-0.355813	-0.599306
Zn8	Zn	1.943286	0.144187	-0.099306
O9	O	1.531934	-0.303218	-0.510725
O10	O	2.031934	0.196782	-0.010725
O11	O	1.768956	-0.264554	-0.575878
O12	O	2.268956	0.235446	-0.075878
O13	O	1.596937	-0.341941	-0.273748
O14	O	2.096937	0.158059	0.226252
O15	O	1.466954	-0.162519	-0.445681
O16	O	1.966954	0.337481	0.054319
O17	O	1.768842	-0.341908	-0.445625
O18	O	2.268842	0.158092	0.054375
O19	O	1.597203	-0.162494	-0.575910
O20	O	2.097203	0.337506	-0.075910
O21	O	1.466803	-0.264612	-0.273772
O22	O	1.966803	0.235388	0.226228
O23	O	1.294991	-0.264560	-0.445610
O24	O	1.794991	0.235440	0.054390
O25	O	1.466851	-0.341817	-0.747663
O26	O	1.966851	0.158183	-0.247663
O27	O	1.294947	-0.341849	-0.575786
O28	O	1.794947	0.158151	-0.075786
O29	O	1.597145	-0.264502	-0.747717
O30	O	2.097145	0.235498	-0.247717
O31	O	1.596879	-0.443949	-0.445555
O32	O	2.096879	0.056051	0.054445
O33	O	1.466700	-0.443909	-0.575754
O34	O	1.966700	0.056091	-0.075754
C35	C	1.256504	-0.303203	-0.510694
C36	C	1.756504	0.196797	-0.010694
C37	C	1.138674	-0.303212	-0.510706
C38	C	1.638674	0.196788	-0.010706
C39	C	0.971103	-0.254365	-0.429265
C40	C	1.471103	0.245635	0.070735
C41	C	1.093662	-0.254491	-0.428906
C42	C	1.593662	0.245509	0.071094
C43	C	1.094129	-0.369526	-0.480174
C44	C	1.594129	0.130474	0.019826
C45	C	0.971531	-0.369260	-0.479618
C46	C	1.471531	0.130740	0.020382
C47	C	0.971530	-0.286375	-0.622995
C48	C	1.471530	0.213625	-0.122995
C49	C	1.094136	-0.284893	-0.622372
C50	C	1.594136	0.215107	-0.122372
C51	C	1.531795	-0.466769	-0.510666
C52	C	2.031795	0.033231	-0.010666
C53	C	1.531833	-0.536737	-0.510677
C54	C	2.031833	-0.036737	-0.010677
C55	C	1.599677	-0.569604	-0.442951
C56	C	2.099677	-0.069604	0.057049
C57	C	1.599727	-0.635346	-0.442975
C58	C	2.099727	-0.135346	0.057025
C59	C	1.531913	-0.668220	-0.510713
C60	C	2.031913	-0.168220	-0.010713
C61	C	1.464064	-0.635346	-0.578452
C62	C	1.964064	-0.135346	-0.078452
C63	C	1.464024	-0.569605	-0.578433
C64	C	1.964024	-0.069605	-0.078433
N65	N	1.439177	-0.771484	-0.518784
N66	N	1.939177	-0.271484	-0.018784
N67	N	1.439218	-0.833935	-0.518796
N68	N	1.939218	-0.333935	-0.018796
C69	C	1.532032	-0.866295	-0.510774
C70	C	2.032032	-0.366295	-0.010774
N71	N	1.624805	-0.833843	-0.502720
N72	N	2.124805	-0.333843	-0.002720
N73	N	1.624762	-0.771386	-0.502703
N74	N	2.124762	-0.271386	-0.002703
C75	C	1.531950	-0.739505	-0.510741
C76	C	2.031950	-0.239505	-0.010741
C77	C	1.599936	-0.970446	-0.443071
C78	C	2.099936	-0.470446	0.056929
C79	C	1.599987	-1.036190	-0.443102
C80	C	2.099987	-0.536190	0.056898
C81	C	1.464315	-1.036188	-0.578573
C82	C	1.964315	-0.536188	-0.078573
C83	C	1.464273	-0.970446	-0.578547
C84	C	1.964273	-0.470446	-0.078547
C85	C	1.532082	-0.937579	-0.510791
C86	C	2.032082	-0.437579	-0.010791
C87	C	1.808439	-0.303233	-0.510756
C88	C	2.308439	0.196767	-0.010756
C89	C	1.926269	-0.303240	-0.510770
C90	C	2.426269	0.196760	-0.010770
C91	C	1.532009	-0.303150	-0.787230
C92	C	2.032009	0.196850	-0.287230
C93	C	1.532041	-0.303121	-0.905061
C94	C	2.032041	0.196879	-0.405061
C95	C	1.532102	-0.139027	-0.510807
C96	C	2.032102	0.360973	-0.010807
C97	C	1.532174	-0.069059	-0.510842
C98	C	2.032174	0.430941	-0.010842
C99	C	1.614026	-0.254472	-0.949976
C100	C	2.114026	0.245528	-0.449976
C101	C	1.614378	-0.254599	-1.072536
C102	C	2.114378	0.245401	-0.572536
C103	C	1.561971	-0.369490	-1.072924
C104	C	2.061971	0.130510	-0.572924
C105	C	1.562536	-0.369225	-0.950326
C106	C	2.062536	0.130775	-0.450326
C107	C	1.419982	-0.285945	-0.950236
C108	C	1.919982	0.214055	-0.450236
C109	C	1.420614	-0.284465	-1.072843
C110	C	1.920614	0.215535	-0.572843
C111	C	1.531921	-0.303240	-0.235295
C112	C	2.031921	0.196760	0.264705
C113	C	1.532094	-0.303092	-0.117466
C114	C	2.032094	0.196908	0.382534
H115	H	1.123284	-0.406915	-0.537674
H116	H	1.623284	0.093085	-0.037674
H117	H	1.644438	-0.383752	-0.921738
H118	H	2.144438	0.116248	-0.421738
H119	H	1.122937	-0.265639	-0.345743
H120	H	1.622937	0.234361	0.154257
H121	H	0.940651	-0.238862	-0.650759
H122	H	1.440651	0.261138	-0.150759
H123	H	1.392680	-0.238363	-0.919331
H124	H	1.892680	0.261637	-0.419331
H125	H	1.697428	-0.265977	-1.101875
H126	H	2.197428	0.234023	-0.601875
H127	H	1.655241	-1.062949	-0.387954
H128	H	2.155241	-0.562949	0.112046
O129	O	1.486866	-0.418896	-0.910947
O130	O	1.986866	0.081104	-0.410947
H131	H	1.450038	-0.443002	-0.979472
H132	H	1.950038	0.056998	-0.479472
H133	H	1.358903	-0.321376	-0.921183
H134	H	1.858903	0.178624	-0.421183
H135	H	1.409104	-1.062954	-0.633731
H136	H	1.909104	-0.562954	-0.133731
H137	H	1.654893	-0.542845	-0.387782
H138	H	2.154893	-0.042845	0.112218
O139	O	1.133559	-0.189349	-0.454226
O140	O	1.633559	0.310651	0.045774
H141	H	1.104495	-0.175029	-0.533462
H142	H	1.604495	0.324971	-0.033462
H143	H	1.696589	-0.265720	-0.919178
H144	H	2.196589	0.234280	-0.419178
O145	O	1.390908	-0.670797	-0.651503
O146	O	1.890908	-0.170797	-0.151503
H147	H	1.402321	-0.722033	-0.640127
H148	H	1.902321	-0.222033	-0.140127
H149	H	0.941657	-0.205042	-0.448199
H150	H	1.441657	0.294958	0.051801
H151	H	1.654977	-0.662111	-0.387825
H152	H	2.154977	-0.162111	0.112175
H153	H	1.408776	-0.542844	-0.633585
H154	H	1.908776	-0.042844	-0.133585
O155	O	1.132710	-0.220254	-0.652884
O156	O	1.632710	0.279746	-0.152884
H157	H	1.183396	-0.201248	-0.588797
H158	H	1.683396	0.298752	-0.088797
O159	O	0.933567	-0.388193	-0.370943
O160	O	1.433567	0.111807	0.129057
H161	H	1.002773	-0.397451	-0.319278
H162	H	1.502773	0.102549	0.180722
O163	O	1.485328	-0.418813	-1.111463
O164	O	1.985328	0.081187	-0.611463
H165	H	1.424986	-0.396471	-1.162901
H166	H	1.924986	0.103529	-0.662901
H167	H	1.655153	-0.943685	-0.387902
H168	H	2.155153	-0.443685	0.112098
H169	H	1.409023	-0.943684	-0.633691
H170	H	1.909023	-0.443684	-0.133691
H171	H	1.595712	-0.205373	-1.102656
H172	H	2.095712	0.294627	-0.602656
H173	H	1.595581	-0.205097	-0.920533
H174	H	2.095581	0.294903	-0.420533
H175	H	0.940252	-0.265389	-0.346591
H176	H	1.440252	0.234611	0.153409
H177	H	0.941872	-0.406908	-0.536393
H178	H	1.441872	0.093092	-0.036393
O179	O	1.390753	-0.219740	-1.111412
O180	O	1.890753	0.280260	-0.611412
H181	H	1.311878	-0.206922	-1.079529
H182	H	1.811878	0.293078	-0.579529
O183	O	1.669284	-0.389054	-1.113613
O184	O	2.169284	0.110946	-0.613613
H185	H	1.661510	-0.433290	-1.159328
H186	H	2.161510	0.066710	-0.659328
O187	O	1.335471	-0.327986	-1.113301
O188	O	1.835471	0.172014	-0.613301
H189	H	1.332693	-0.325539	-1.200937
H190	H	1.832693	0.174461	-0.700937
H191	H	1.124780	-0.384073	-0.399012
H192	H	1.624780	0.115927	0.100988
H193	H	1.124781	-0.317894	-0.686348
H194	H	1.624781	0.182106	-0.186348
O195	O	0.933121	-0.333520	-0.703448
O196	O	1.433121	0.166480	-0.203448
H197	H	0.882045	-0.368795	-0.663766
H198	H	1.382045	0.131205	-0.163766
