data_functionalizedCrystal
_audit_creation_method	'MofGen! by Chris Wilmer'
_symmetry_space_group_name_H-M	'P1'
_symmetry_Int_Tables_number	1
_symmetry_cell_setting	triclinic
loop_
_symmetry_equiv_pos_as_xyz
  x,y,z
_cell_length_a	11.792241
_cell_length_b	10.868271
_cell_length_c	11.792241
_cell_angle_alpha	90.005281
_cell_angle_beta	84.193416
_cell_angle_gamma	90.000107
loop_
_atom_site_label
_atom_site_type_symbol
_atom_site_fract_x
_atom_site_fract_y
_atom_site_fract_z
O1	O	-1.506908	-0.102203	-0.155568
O2	O	-1.256908	0.147797	0.094432
O3	O	-1.006908	0.397797	0.344432
O4	O	-0.756908	0.647797	0.594432
O5	O	-1.176567	-0.102232	-0.171601
O6	O	-0.926567	0.147768	0.078399
O7	O	-0.676567	0.397768	0.328399
O8	O	-0.426567	0.647768	0.578399
O9	O	-1.349754	-0.102208	0.001586
O10	O	-1.099754	0.147792	0.251586
O11	O	-0.849754	0.397792	0.501586
O12	O	-0.599754	0.647792	0.751586
O13	O	-1.333721	-0.102227	-0.328755
O14	O	-1.083721	0.147773	-0.078755
O15	O	-0.833721	0.397773	0.171245
O16	O	-0.583721	0.647773	0.421245
O17	O	-1.349740	0.102436	0.001592
O18	O	-1.099740	0.352436	0.251592
O19	O	-0.849740	0.602436	0.501592
O20	O	-0.599740	0.852436	0.751592
O21	O	-1.176553	0.102413	-0.171595
O22	O	-0.926553	0.352413	0.078405
O23	O	-0.676553	0.602413	0.328405
O24	O	-0.426553	0.852413	0.578405
O25	O	-1.506894	0.102441	-0.155562
O26	O	-1.256894	0.352441	0.094438
O27	O	-1.006894	0.602441	0.344438
O28	O	-0.756894	0.852441	0.594438
Zn29	Zn	-1.341721	0.134919	-0.163577
Zn30	Zn	-1.091721	0.384919	0.086423
Zn31	Zn	-0.841721	0.634919	0.336423
Zn32	Zn	-0.591721	0.884919	0.586423
Zn33	Zn	-1.341740	-0.134709	-0.163586
Zn34	Zn	-1.091740	0.115291	0.086414
Zn35	Zn	-0.841740	0.365291	0.336414
Zn36	Zn	-0.591740	0.615291	0.586414
O37	O	-1.333707	0.102418	-0.328749
O38	O	-1.083707	0.352418	-0.078749
O39	O	-0.833707	0.602418	0.171251
O40	O	-0.583707	0.852418	0.421251
C41	C	-1.134269	0.000087	-0.170591
C42	C	-0.884269	0.250087	0.079409
C43	C	-0.634269	0.500087	0.329409
C44	C	-0.384269	0.750087	0.579409
C45	C	-1.008255	0.000076	-0.167576
C46	C	-0.758255	0.250076	0.082424
C47	C	-0.508255	0.500076	0.332424
C48	C	-0.258255	0.750076	0.582424
C49	C	-1.348740	0.000114	0.043880
C50	C	-1.098740	0.250114	0.293880
C51	C	-0.848740	0.500114	0.543880
C52	C	-0.598740	0.750114	0.793880
C53	C	-1.345726	0.000112	0.169894
C54	C	-1.095726	0.250112	0.419894
C55	C	-0.845726	0.500112	0.669894
C56	C	-0.595726	0.750112	0.919894
C57	C	-1.549192	0.000120	-0.156572
C58	C	-1.299192	0.250120	0.093428
C59	C	-1.049192	0.500120	0.343428
C60	C	-0.799192	0.750120	0.593428
C61	C	-1.675206	0.000123	-0.159587
C62	C	-1.425206	0.250123	0.090413
C63	C	-1.175206	0.500123	0.340413
C64	C	-0.925206	0.750123	0.590413
C65	C	-0.777543	0.000112	-0.162034
C66	C	-0.527543	0.250112	0.087966
C67	C	-0.277543	0.500112	0.337966
C68	C	-0.027543	0.750112	0.587966
C69	C	-0.905928	0.000092	-0.165113
C70	C	-0.655928	0.250092	0.084887
C71	C	-0.405928	0.500092	0.334887
C72	C	-0.155928	0.750092	0.584887
N73	N	-1.341717	0.318933	-0.163570
N74	N	-1.091717	0.568933	0.086430
N75	N	-0.841717	0.818933	0.336430
N76	N	-0.591717	1.068933	0.586430
N77	N	-1.341754	-0.318723	-0.163584
N78	N	-1.091754	-0.068723	0.086416
N79	N	-0.841754	0.181277	0.336416
N80	N	-0.591754	0.431277	0.586416
C81	C	-1.341734	0.569939	-0.163584
C82	C	-1.091734	0.819939	0.086416
C83	C	-0.841734	1.069939	0.336416
C84	C	-0.591734	1.319939	0.586416
C85	C	-1.341721	0.430261	-0.163580
C86	C	-1.091721	0.680261	0.086420
C87	C	-0.841721	0.930261	0.336420
C88	C	-0.591721	1.180261	0.586420
C89	C	-1.334721	0.000093	-0.371043
C90	C	-1.084721	0.250093	-0.121043
C91	C	-0.834721	0.500093	0.128957
C92	C	-0.584721	0.750093	0.378957
C93	C	-1.337736	0.000087	-0.497057
C94	C	-1.087736	0.250087	-0.247057
C95	C	-0.837736	0.500087	0.002943
C96	C	-0.587736	0.750087	0.252943
C97	C	-1.340183	0.000091	0.400606
C98	C	-1.090183	0.250091	0.650606
C99	C	-0.840183	0.500091	0.900606
C100	C	-0.590183	0.750091	1.150606
C101	C	-1.343262	0.000102	0.272221
C102	C	-1.093262	0.250102	0.522221
C103	C	-0.843262	0.500102	0.772221
C104	C	-0.593262	0.750102	1.022221
