data_functionalizedCrystal
_audit_creation_method	'MofGen! by Chris Wilmer'
_symmetry_space_group_name_H-M	'P1'
_symmetry_Int_Tables_number	1
_symmetry_cell_setting	triclinic
loop_
_symmetry_equiv_pos_as_xyz
  x,y,z
_cell_length_a	12.759401
_cell_length_b	17.640280
_cell_length_c	12.759393
_cell_angle_alpha	101.231035
_cell_angle_beta	90.020938
_cell_angle_gamma	78.802151
loop_
_atom_site_label
_atom_site_type_symbol
_atom_site_fract_x
_atom_site_fract_y
_atom_site_fract_z
Zn1	Zn	1.690818	-0.314597	0.509562
Zn2	Zn	1.726238	-0.446790	0.298393
Zn3	Zn	1.515128	-0.314639	0.333886
Zn4	Zn	1.550623	-0.446735	0.474045
O5	O	1.620702	-0.380691	0.403971
O6	O	1.842539	-0.332138	0.481560
O7	O	1.698203	-0.429301	0.156069
O8	O	1.508756	-0.204028	0.386908
O9	O	1.868562	-0.429260	0.326415
O10	O	1.637835	-0.203997	0.515976
O11	O	1.543101	-0.332210	0.182146
O12	O	1.372814	-0.332157	0.352468
O13	O	1.569251	-0.429166	0.625788
O14	O	1.398892	-0.429207	0.455443
O15	O	1.672252	-0.332085	0.651883
O16	O	1.732620	-0.557389	0.291976
O17	O	1.603596	-0.557349	0.421027
C18	C	1.347732	-0.380681	0.403953
C19	C	1.230959	-0.380696	0.403965
C20	C	1.189724	-0.431307	0.457458
C21	C	1.080001	-0.431310	0.457478
C22	C	1.052757	-0.330089	0.350505
C23	C	1.162477	-0.330082	0.350491
C24	C	0.937727	-0.459671	0.573724
C25	C	0.896492	-0.510294	0.627204
C26	C	0.952820	-0.587430	0.622444
C27	C	1.050387	-0.613957	0.564184
C28	C	1.091618	-0.563338	0.510695
C29	C	1.035288	-0.486192	0.515479
C30	C	1.304755	-0.301729	0.234241
C31	C	1.345989	-0.251113	0.180746
C32	C	1.289662	-0.173977	0.185495
C33	C	1.192092	-0.147452	0.243736
C34	C	1.150858	-0.198068	0.297231
C35	C	1.207193	-0.275203	0.292484
C36	C	1.675832	-0.586048	0.348819
C37	C	1.699513	-0.673900	0.325259
C38	C	1.441231	-0.962869	0.583333
C39	C	1.463485	-1.045420	0.561162
C40	C	1.597921	-1.045396	0.426917
C41	C	1.575682	-0.962844	0.449081
C42	C	1.497335	-0.921586	0.527289
C43	C	1.631786	-0.921561	0.393036
C44	C	1.609545	-0.839016	0.415195
C45	C	1.531199	-0.797753	0.493397
C46	C	1.475094	-0.839041	0.549447
C47	C	1.710127	-0.962820	0.314823
C48	C	1.766231	-0.921538	0.258779
C49	C	1.743996	-0.838991	0.280942
C50	C	1.665650	-0.797728	0.359145
C51	C	1.800101	-0.797703	0.224892
C52	C	1.777860	-0.715158	0.247051
C53	C	1.643409	-0.715183	0.381303
C54	C	1.894738	-0.380701	0.403990
C55	C	2.011516	-0.380705	0.403998
C56	C	1.620760	-0.380615	0.678025
C57	C	1.620785	-0.380582	0.794811
C58	C	1.565385	-0.174531	0.459363
C59	C	1.541813	-0.086679	0.482967
C60	C	1.620689	-0.380709	0.130999
C61	C	1.620808	-0.380519	0.014274
C62	C	1.674420	-0.330024	0.863264
C63	C	1.674429	-0.329990	0.972997
C64	C	1.567166	-0.431079	0.945813
C65	C	1.567151	-0.431109	0.836083
C66	C	1.686978	-0.236736	1.148011
C67	C	1.740632	-0.186184	1.216466
C68	C	1.839887	-0.174064	1.184128
C69	C	1.885512	-0.212507	1.083334
C70	C	1.831866	-0.263064	1.014883
C71	C	1.732592	-0.275169	1.047223
C72	C	1.554613	-0.524364	0.661067
C73	C	1.500973	-0.574926	0.592613
C74	C	1.401718	-0.587054	0.624946
C75	C	1.356100	-0.548625	0.725740
C76	C	1.409741	-0.498064	0.794194
C77	C	1.508994	-0.485934	0.761853
H78	H	0.817051	-0.488688	0.674642
Cl79	Cl	1.898583	-0.849579	0.126571
H80	H	1.096240	-0.676772	0.560302
H81	H	0.996987	-0.288882	0.306966
H82	H	1.275280	-0.558503	0.752068
Cl83	Cl	1.696413	-1.097270	0.328605
H84	H	1.579618	-0.681589	0.444996
H85	H	1.606151	-0.246593	1.174346
Cl86	Cl	1.738126	-1.066593	0.287005
H87	H	1.869016	-0.294366	0.932821
Cl88	Cl	1.741840	-0.266502	0.811384
H89	H	1.323241	-0.132769	0.141924
Cl90	Cl	1.342746	-0.910996	0.681664
Cl91	Cl	1.028193	-0.164723	0.370444
H92	H	0.919239	-0.628647	0.665990
H93	H	1.830018	-0.955141	0.195099
H94	H	1.823545	-0.681545	0.201412
Cl95	Cl	2.010307	-0.197278	1.042695
H96	H	0.891860	-0.396858	0.577619
Cl97	Cl	1.121270	-0.050479	0.249701
Cl98	Cl	1.468641	-0.284465	0.107511
Cl99	Cl	1.375489	-0.398747	0.228122
Cl100	Cl	1.907336	-0.110515	1.270189
Cl101	Cl	1.352389	-0.449750	0.920907
Cl102	Cl	1.499751	-0.494599	0.997705
Cl103	Cl	1.392933	-1.097315	0.631615
H104	H	1.358051	-0.628233	0.569203
H105	H	1.513085	-0.730539	0.511429
Cl106	Cl	1.679378	-0.509095	0.620395
H107	H	1.703474	-0.154884	1.298532
H108	H	1.538130	-0.606224	0.510546
H109	H	1.171055	-0.584937	0.463261
Cl110	Cl	1.275811	-0.494932	0.524687
H111	H	1.411304	-0.805448	0.613140
