data_functionalizedCrystal
_audit_creation_method	'MofGen! by Chris Wilmer'
_symmetry_space_group_name_H-M	'P1'
_symmetry_Int_Tables_number	1
_symmetry_cell_setting	triclinic
loop_
_symmetry_equiv_pos_as_xyz
  x,y,z
_cell_length_a	15.944551
_cell_length_b	15.021413
_cell_length_c	15.944551
_cell_angle_alpha	89.999557
_cell_angle_beta	83.498738
_cell_angle_gamma	89.988701
loop_
_atom_site_label
_atom_site_type_symbol
_atom_site_fract_x
_atom_site_fract_y
_atom_site_fract_z
O1	O	1.114511	0.073941	0.108326
O2	O	1.614511	0.573941	0.608326
O3	O	0.869961	0.073964	0.121682
O4	O	1.369961	0.573964	0.621682
O5	O	0.998914	0.073944	-0.007271
O6	O	1.498914	0.573944	0.492729
O7	O	0.985558	0.073961	0.237279
O8	O	1.485558	0.573961	0.737279
O9	O	0.998929	-0.074121	-0.007263
O10	O	1.498929	0.425879	0.492737
O11	O	0.869976	-0.074101	0.121690
O12	O	1.369976	0.425899	0.621690
O13	O	1.114526	-0.074123	0.108334
O14	O	1.614526	0.425877	0.608334
Zn15	Zn	0.992254	-0.097620	0.115013
Zn16	Zn	1.492254	0.402380	0.615013
Zn17	Zn	0.992234	0.097461	0.115003
Zn18	Zn	1.492234	0.597461	0.615003
O19	O	0.985573	-0.074103	0.237287
O20	O	1.485573	0.425897	0.737287
C21	C	0.838675	-0.000066	0.121132
C22	C	1.338675	0.499934	0.621132
C23	C	0.745429	-0.000057	0.119470
C24	C	1.245429	0.499943	0.619470
N25	N	0.992273	-0.230758	0.115020
N26	N	1.492273	0.269242	0.615020
C27	C	0.530572	-0.000081	0.035565
C28	C	1.030572	0.499919	0.535565
C29	C	0.469545	0.072926	0.074524
C30	C	0.969545	0.572926	0.574524
C31	C	0.574703	-0.000068	0.116462
C32	C	1.074703	0.499932	0.616462
C33	C	0.469582	-0.073054	0.074551
C34	C	0.969582	0.426946	0.574551
C35	C	0.409790	-0.000083	0.113551
C36	C	0.909790	0.499917	0.613551
C37	C	0.514904	0.072998	0.155443
C38	C	1.014904	0.572998	0.655443
C39	C	0.514947	-0.073047	0.155459
C40	C	1.014947	0.426953	0.655459
C41	C	0.453937	-0.000023	0.194476
C42	C	0.953937	0.499977	0.694476
C43	C	0.669705	-0.000059	0.118137
C44	C	1.169705	0.499941	0.618137
C45	C	0.314789	-0.000085	0.111883
C46	C	0.814789	0.499915	0.611883
C47	C	1.051913	-0.470426	0.055379
C48	C	1.551913	0.029574	0.555379
C49	C	0.976013	-0.529750	0.039061
C50	C	1.476013	-0.029750	0.539061
C51	C	0.992254	-0.412365	0.115010
C52	C	1.492254	0.087635	0.615010
C53	C	1.068135	-0.529783	0.131277
C54	C	1.568135	-0.029783	0.631277
C55	C	0.992242	-0.587789	0.114997
C56	C	1.492242	-0.087789	0.614997
C57	C	0.916316	-0.470382	0.098655
C58	C	1.416316	0.029618	0.598655
C59	C	1.008487	-0.470410	0.190904
C60	C	1.508487	0.029590	0.690904
C61	C	0.932533	-0.529706	0.174619
C62	C	1.432533	-0.029706	0.674619
C63	C	0.992262	-0.311307	0.115014
C64	C	1.492262	0.188693	0.615014
C65	C	0.992225	-0.688844	0.114993
C66	C	1.492225	-0.188844	0.614993
C67	C	1.145813	-0.000092	0.108885
C68	C	1.645813	0.499908	0.608885
C69	C	1.239059	-0.000094	0.110547
C70	C	1.739059	0.499906	0.610547
C71	C	0.998367	-0.000089	-0.038561
C72	C	1.498367	0.499911	0.461439
C73	C	0.996705	-0.000089	-0.131807
C74	C	1.496705	0.499911	0.368193
N75	N	0.992221	0.230598	0.114990
N76	N	1.492221	0.730598	0.614990
C77	C	0.912801	-0.000069	-0.346663
C78	C	1.412801	0.499931	0.153337
C79	C	0.951771	-0.073077	-0.407677
C80	C	1.451771	0.426923	0.092323
C81	C	0.993698	-0.000082	-0.302533
C82	C	1.493698	0.499918	0.197467
C83	C	0.951775	0.072903	-0.407668
C84	C	1.451775	0.572903	0.092332
C85	C	0.990787	-0.000071	-0.467445
C86	C	1.490787	0.499929	0.032555
C87	C	1.032690	-0.073150	-0.362318
C88	C	1.532690	0.426850	0.137682
C89	C	1.032683	0.072895	-0.362303
C90	C	1.532683	0.572895	0.137697
C91	C	1.071711	-0.000131	-0.423298
C92	C	1.571711	0.499869	0.076702
C93	C	0.995372	-0.000089	-0.207530
C94	C	1.495372	0.499911	0.292470
C95	C	0.989119	-0.000070	-0.562446
C96	C	1.489119	0.499930	-0.062446
C97	C	0.986120	-0.000069	0.268577
C98	C	1.486120	0.499931	0.768577
C99	C	0.987782	-0.000063	0.361823
C100	C	1.487782	0.499937	0.861823
H101	H	0.563905	0.000005	-0.031573
H102	H	1.063905	0.500005	0.468427
H103	H	1.066884	-0.134941	-0.342324
H104	H	1.566884	0.365059	0.157676
H105	H	1.102312	-0.444397	0.004923
H106	H	1.602312	0.055603	0.504923
C107	C	0.541896	0.156477	0.201621
C108	C	1.041896	0.656477	0.701621
N109	N	0.562229	0.219354	0.236398
N110	N	1.062229	0.719354	0.736398
C111	C	0.542161	-0.156429	0.201646
C112	C	1.042161	0.343571	0.701646
N113	N	0.562662	-0.219239	0.236427
N114	N	1.062662	0.280761	0.736427
H115	H	0.449428	0.134642	0.040304
H116	H	0.949428	0.634642	0.540304
H117	H	0.962271	-0.555816	-0.025126
H118	H	1.462271	-0.055816	0.474874
C119	C	0.409134	0.000039	0.285267
C120	C	0.909134	0.500039	0.785267
N121	N	0.375385	0.000091	0.353649
N122	N	0.875385	0.500091	0.853649
H123	H	0.449502	-0.134773	0.040323
H124	H	0.949502	0.365227	0.540323
H125	H	0.852124	-0.444399	0.084817
H126	H	1.352124	0.055601	0.584817
H127	H	0.882021	-0.555571	0.225045
H128	H	1.382021	-0.055571	0.725045
H129	H	1.022253	-0.444325	0.255071
H130	H	1.522253	0.055675	0.755071
H131	H	1.132311	-0.555876	0.145043
H132	H	1.632311	-0.055876	0.645043
H133	H	0.845652	-0.000136	-0.313356
H134	H	1.345652	0.499864	0.186644
H135	H	1.066863	0.134615	-0.342176
H136	H	1.566863	0.634615	0.157824
H137	H	0.917561	-0.134794	-0.427782
H138	H	1.417561	0.365206	0.072218
H139	H	1.138919	-0.000178	-0.456457
H140	H	1.638919	0.499822	0.043543
H141	H	0.917542	0.134630	-0.427748
H142	H	1.417542	0.634630	0.072252
