data_functionalizedCrystal
_audit_creation_method	'MofGen! by Chris Wilmer'
_symmetry_space_group_name_H-M	'P1'
_symmetry_Int_Tables_number	1
_symmetry_cell_setting	triclinic
loop_
_symmetry_equiv_pos_as_xyz
  x,y,z
_cell_length_a	18.426585
_cell_length_b	20.016444
_cell_length_c	20.016444
_cell_angle_alpha	90.002879
_cell_angle_beta	60.001461
_cell_angle_gamma	60.004430
loop_
_atom_site_label
_atom_site_type_symbol
_atom_site_fract_x
_atom_site_fract_y
_atom_site_fract_z
Zr1	Zr	0.794379	-0.087644	0.643576
O2	O	0.945767	-0.194311	0.536903
O3	O	0.642983	-0.054949	0.676278
O4	O	0.794375	-0.194317	0.676277
O5	O	0.794381	0.054997	0.536904
O6	O	0.794381	-0.194317	0.786216
O7	O	0.794375	-0.054943	0.536904
O8	O	0.523568	0.054987	0.786219
O9	O	1.065194	-0.194307	0.536902
O10	O	0.705261	-0.041000	0.772271
O11	O	0.705261	0.041047	0.690224
O12	O	0.883506	-0.123041	0.690223
O13	O	0.883506	-0.040994	0.608176
Zr14	Zr	0.794397	0.087697	0.818918
Zr15	Zr	0.794388	-0.087644	0.818918
Zr16	Zr	0.794388	0.087697	0.643577
Zr17	Zr	0.984850	-0.087638	0.643575
Zr18	Zr	0.603926	0.087690	0.818919
O19	O	0.945793	0.055001	0.786217
O20	O	0.945780	-0.194312	0.786216
O21	O	0.945780	0.055002	0.536904
O22	O	0.643009	0.194364	0.925592
O23	O	0.642996	-0.054949	0.925591
O24	O	0.642996	0.194364	0.676279
O25	O	0.794395	-0.054944	0.925590
O26	O	0.794401	0.194369	0.786218
O27	O	0.794395	0.194369	0.676278
O28	O	0.794401	0.054996	0.925590
O29	O	1.065201	-0.194307	0.676275
O30	O	0.523575	0.194360	0.786219
O31	O	0.523582	0.194360	0.925592
O32	O	0.523575	0.054987	0.925592
O33	O	1.065201	-0.054934	0.536903
O34	O	1.065208	-0.054934	0.676276
O35	O	0.705270	0.123094	0.772272
O36	O	0.705270	0.041047	0.854318
O37	O	0.883515	-0.040994	0.772270
O38	O	0.883515	0.041053	0.690224
C39	C	0.556137	0.000018	0.731248
C40	C	0.475277	0.000015	0.731249
C41	C	0.794377	0.000027	0.511922
C42	C	0.794373	0.000027	0.437485
C43	C	0.794399	0.219352	0.731248
C44	C	0.794403	0.293789	0.731248
C45	C	0.179167	0.000039	0.731244
C46	C	0.261554	0.000034	0.731243
C47	C	0.327220	0.000027	0.731246
C48	C	0.409611	0.000023	0.731246
C49	C	1.032639	0.000035	0.731246
C50	C	1.113499	0.000037	0.731246
C51	C	0.794377	-0.219299	0.731246
C52	C	0.794373	-0.293736	0.731246
C53	C	0.887433	0.422231	0.688417
C54	C	0.887429	0.492177	0.688415
C55	C	0.701335	0.577820	0.774079
C56	C	0.701341	0.507875	0.774076
C57	C	0.794393	0.430082	0.731247
C58	C	0.794383	0.569971	0.731247
C59	C	0.794378	0.645809	0.731245
C60	C	0.794399	0.354239	0.731248
C61	C	0.701343	0.042853	0.309046
C62	C	0.701347	0.042855	0.239101
C63	C	0.887440	-0.042802	0.153450
C64	C	0.887435	-0.042798	0.223394
C65	C	0.794383	0.000027	0.301192
C66	C	0.794393	0.000026	0.161302
C67	C	0.794398	0.000028	0.085465
C68	C	0.794377	0.000027	0.377035
C69	C	0.794399	0.000026	0.950573
C70	C	0.794403	0.000026	1.025010
C71	C	0.556149	0.000018	0.950574
C72	C	0.475292	0.000015	1.025011
C73	C	0.556149	0.219344	0.731249
C74	C	0.475292	0.293778	0.731250
C75	C	0.556160	0.219343	0.950575
C76	C	0.475308	0.293777	1.025012
C77	C	1.032616	-0.219291	0.511920
C78	C	1.113468	-0.293725	0.437482
C79	C	1.032627	0.000035	0.511921
C80	C	1.113484	0.000038	0.437483
C81	C	1.032627	-0.219291	0.731245
C82	C	1.113484	-0.293725	0.731245
C83	C	0.437317	-0.042821	1.017140
C84	C	0.361354	-0.042840	1.087075
C85	C	0.323363	-0.000018	1.164881
C86	C	0.361346	0.042820	1.172750
C87	C	0.437313	0.042833	1.102816
C88	C	0.437326	0.371568	0.774078
C89	C	0.361363	0.441513	0.774075
C90	C	0.323364	0.433667	0.731249
C91	C	0.361338	0.355869	0.688416
C92	C	0.437304	0.285925	0.688414
C93	C	0.437338	0.285905	1.102804
C94	C	0.361380	0.355837	1.172753
C95	C	0.323386	0.433641	1.164908
C96	C	0.361363	0.441512	1.087108
C97	C	0.437325	0.371580	1.017161
C98	C	1.151447	-0.285852	0.359691
C99	C	1.227429	-0.355784	0.289742
C100	C	1.265427	-0.433588	0.297586
C101	C	1.227445	-0.441459	0.375386
C102	C	1.151469	-0.371528	0.445333
C103	C	1.151467	0.042867	0.445355
C104	C	1.227450	0.042866	0.375419
C105	C	1.265444	0.000041	0.297614
C106	C	1.227458	-0.042793	0.289744
C107	C	1.151481	-0.042797	0.359679
C108	C	1.151459	-0.285853	0.774079
C109	C	1.227422	-0.355785	0.774095
C110	C	1.265413	-0.433589	0.731270
C111	C	1.227430	-0.441460	0.688434
C112	C	1.151463	-0.371528	0.688424
H113	H	0.963192	0.485778	0.653537
H114	H	1.120552	-0.377949	0.653539
H115	H	0.625584	0.077729	0.245503
N116	N	0.606307	0.086591	0.388519
N117	N	0.585538	0.049313	0.437105
H118	H	0.518417	0.080205	0.493234
H119	H	1.258404	-0.077660	0.226386
N120	N	0.322531	0.086576	1.252223
N121	N	0.356432	0.124830	1.259251
H122	H	0.329013	0.155738	1.315381
H123	H	1.327271	-0.490525	0.731285
N124	N	1.343019	-0.505026	0.226141
N125	N	1.376936	-0.574492	0.233148
H126	H	1.431733	-0.624944	0.182688
H127	H	1.258374	-0.504817	0.653568
H128	H	1.258393	-0.504815	0.381764
H129	H	1.258366	0.077750	0.381843
N130	N	1.112690	-0.379591	0.524788
N131	N	1.146630	-0.449067	0.531771
H132	H	1.119247	-0.454768	0.587885
H133	H	0.330467	0.349414	1.236094
H134	H	0.625576	0.641166	0.808950
N135	N	0.322528	0.347848	0.644667
N136	N	0.381868	0.311367	0.569152
H137	H	0.354454	0.305703	0.538257
H138	H	0.963202	0.358891	0.653541
N139	N	1.266205	-0.347718	0.210285
N140	N	1.232256	-0.278243	0.203300
H141	H	1.259639	-0.272543	0.147185
H142	H	0.261506	-0.000035	1.221819
N143	N	0.606287	0.515906	0.817826
N144	N	0.523214	0.585367	0.856065
H145	H	0.456084	0.591039	0.886960
N146	N	0.982475	-0.086553	0.073976
N147	N	1.003228	-0.142945	0.025395
H148	H	1.070348	-0.173847	-0.030735
N149	N	0.982489	-0.086544	0.215359
N150	N	1.065562	-0.124781	0.145895
H151	H	1.132692	-0.155672	0.140221
N152	N	0.245793	0.505062	1.236370
N153	N	0.211904	0.498012	1.305820
H154	H	0.157101	0.548450	1.356294
N155	N	1.112675	0.086622	0.524819
N156	N	1.146614	0.124852	0.531820
H157	H	1.119226	0.155754	0.587941
N158	N	0.476094	-0.086564	0.937675
N159	N	0.442167	-0.124804	0.930674
H160	H	0.469550	-0.155701	0.874554
N161	N	0.476086	0.086598	1.110878
N162	N	0.442149	0.124827	1.180355
H163	H	0.469529	0.155738	1.186055
H164	H	1.327309	0.000051	0.240676
N165	N	0.322533	0.520995	1.079117
N166	N	0.254702	0.583420	1.141582
H167	H	0.227269	0.639558	1.135942
H168	H	0.330438	-0.077724	1.080651
N169	N	0.476151	0.379596	0.817809
N170	N	0.569422	0.350127	0.780521
H171	H	0.596843	0.355803	0.811404
N172	N	1.112696	-0.086551	0.351617
N173	N	1.146633	-0.124780	0.282139
H174	H	1.119246	-0.155685	0.276439
H175	H	0.468230	0.378002	0.953822
H176	H	1.120539	-0.222507	0.808952
H177	H	0.261507	0.490627	0.731257
H178	H	1.258340	-0.349360	0.808975
H179	H	0.468206	0.222588	0.653541
N180	N	0.322581	0.520968	0.817849
N181	N	0.280194	0.541816	0.893364
H182	H	0.252805	0.597929	0.924282
N183	N	0.476162	0.206430	1.110815
N184	N	0.543990	0.143989	1.048365
H185	H	0.571412	0.087860	1.054027
H186	H	1.120513	-0.222507	0.353288
