data_functionalizedCrystal
_audit_creation_method	'MofGen! by Chris Wilmer'
_symmetry_space_group_name_H-M	'P1'
_symmetry_Int_Tables_number	1
_symmetry_cell_setting	triclinic
loop_
_symmetry_equiv_pos_as_xyz
  x,y,z
_cell_length_a	16.109301
_cell_length_b	19.188924
_cell_length_c	15.186229
_cell_angle_alpha	89.994194
_cell_angle_beta	89.999006
_cell_angle_gamma	83.301774
loop_
_atom_site_label
_atom_site_type_symbol
_atom_site_fract_x
_atom_site_fract_y
_atom_site_fract_z
O1	O	1.102830	0.089745	-0.073184
O2	O	1.352830	0.339745	0.176816
O3	O	1.602830	0.589745	0.426816
O4	O	1.852830	0.839745	0.676816
O5	O	0.860731	0.100913	-0.073197
O6	O	1.110731	0.350913	0.176803
O7	O	1.360731	0.600913	0.426803
O8	O	1.610731	0.850913	0.676803
O9	O	0.988770	-0.006310	-0.073180
O10	O	1.238770	0.243690	0.176820
O11	O	1.488770	0.493690	0.426820
O12	O	1.738770	0.743690	0.676820
O13	O	0.974791	0.196969	-0.073201
O14	O	1.224791	0.446969	0.176799
O15	O	1.474791	0.696969	0.426799
O16	O	1.724791	0.946969	0.676799
O17	O	0.988762	-0.006312	0.073277
O18	O	1.238762	0.243688	0.323277
O19	O	1.488762	0.493688	0.573277
O20	O	1.738762	0.743688	0.823277
O21	O	0.860723	0.100912	0.073260
O22	O	1.110723	0.350912	0.323260
O23	O	1.360723	0.600912	0.573260
O24	O	1.610723	0.850912	0.823260
O25	O	1.102822	0.089744	0.073273
O26	O	1.352822	0.339744	0.323273
O27	O	1.602822	0.589744	0.573273
O28	O	1.852822	0.839744	0.823273
Zn29	Zn	0.981771	0.095327	0.096520
Zn30	Zn	1.231771	0.345327	0.346520
Zn31	Zn	1.481771	0.595327	0.596520
Zn32	Zn	1.731771	0.845327	0.846520
Zn33	Zn	0.981782	0.095329	-0.096444
Zn34	Zn	1.231782	0.345329	0.153556
Zn35	Zn	1.481782	0.595329	0.403556
Zn36	Zn	1.731782	0.845329	0.653556
O37	O	0.974783	0.196967	0.073256
O38	O	1.224783	0.446967	0.323256
O39	O	1.474783	0.696967	0.573256
O40	O	1.724783	0.946967	0.823256
C41	C	0.829754	0.100460	0.000030
C42	C	1.079754	0.350460	0.250030
C43	C	1.329754	0.600460	0.500030
C44	C	1.579754	0.850460	0.750030
C45	C	0.737463	0.099104	0.000025
C46	C	0.987463	0.349104	0.250025
C47	C	1.237463	0.599104	0.500025
C48	C	1.487463	0.849104	0.750025
C49	C	0.428267	0.158294	0.000035
C50	C	0.678267	0.408294	0.250035
C51	C	0.928267	0.658294	0.500035
C52	C	1.178267	0.908294	0.750035
C53	C	0.514983	0.159575	0.000029
C54	C	0.764983	0.409575	0.250029
C55	C	1.014983	0.659575	0.500029
C56	C	1.264983	0.909575	0.750029
C57	C	0.535281	0.032358	0.000031
C58	C	0.785281	0.282358	0.250031
C59	C	1.035281	0.532358	0.500031
C60	C	1.285281	0.782358	0.750031
C61	C	0.448567	0.031077	0.000030
C62	C	0.698567	0.281077	0.250030
C63	C	0.948567	0.531077	0.500030
C64	C	1.198567	0.781077	0.750030
C65	C	0.395061	0.094048	0.000036
C66	C	0.645061	0.344048	0.250036
C67	C	0.895061	0.594048	0.500036
C68	C	1.145061	0.844048	0.750036
C69	C	0.568492	0.096609	0.000032
C70	C	0.818492	0.346609	0.250032
C71	C	1.068492	0.596609	0.500032
C72	C	1.318492	0.846609	0.750032
C73	C	0.662513	0.097997	0.000026
C74	C	0.912513	0.347997	0.250026
C75	C	1.162513	0.597997	0.500026
C76	C	1.412513	0.847997	0.750026
C77	C	0.301034	0.092660	0.000040
C78	C	0.551034	0.342660	0.250040
C79	C	0.801034	0.592660	0.500040
C80	C	1.051034	0.842660	0.750040
C81	C	0.988314	-0.032323	0.000049
C82	C	1.238314	0.217677	0.250049
C83	C	1.488314	0.467677	0.500049
C84	C	1.738314	0.717677	0.750049
C85	C	0.986958	-0.109831	0.000052
C86	C	1.236958	0.140169	0.250052
C87	C	1.486958	0.390169	0.500052
C88	C	1.736958	0.640169	0.750052
C89	C	0.986330	-0.146231	-0.079782
C90	C	1.236330	0.103769	0.170218
C91	C	1.486330	0.353769	0.420218
C92	C	1.736330	0.603769	0.670218
C93	C	0.985044	-0.219057	-0.079789
C94	C	1.235044	0.030943	0.170211
C95	C	1.485044	0.280943	0.420211
C96	C	1.735044	0.530943	0.670211
C97	C	0.984403	-0.255482	0.000043
C98	C	1.234403	-0.005482	0.250043
C99	C	1.484403	0.244518	0.500043
C100	C	1.734403	0.494518	0.750043
C101	C	0.985027	-0.219073	0.079887
C102	C	1.235027	0.030927	0.329887
C103	C	1.485027	0.280927	0.579887
C104	C	1.735027	0.530927	0.829887
C105	C	0.986304	-0.146248	0.079892
C106	C	1.236304	0.103752	0.329892
C107	C	1.486304	0.353752	0.579892
C108	C	1.736304	0.603752	0.829892
N109	N	1.029706	-0.375040	0.059462
N110	N	1.279706	-0.125040	0.309462
N111	N	1.529706	0.124960	0.559462
N112	N	1.779706	0.374960	0.809462
N113	N	1.028494	-0.444221	0.059452
N114	N	1.278494	-0.194221	0.309452
N115	N	1.528494	0.055779	0.559452
N116	N	1.778494	0.305779	0.809452
C117	C	0.980552	-0.474900	0.000034
C118	C	1.230552	-0.224900	0.250034
C119	C	1.480552	0.025100	0.500034
C120	C	1.730552	0.275100	0.750034
N121	N	0.933878	-0.433786	-0.059388
N122	N	1.183878	-0.183786	0.190612
N123	N	1.433878	0.066214	0.440612
N124	N	1.683878	0.316214	0.690612
N125	N	0.935094	-0.364598	-0.059381
N126	N	1.185094	-0.114598	0.190619
N127	N	1.435094	0.135402	0.440619
N128	N	1.685094	0.385402	0.690619
C129	C	0.983017	-0.334448	0.000047
C130	C	1.233017	-0.084448	0.250047
C131	C	1.483017	0.165552	0.500047
C132	C	1.733017	0.415552	0.750047
C133	C	0.978528	-0.590265	-0.079813
C134	C	1.228528	-0.340265	0.170187
C135	C	1.478528	-0.090265	0.420187
C136	C	1.728528	0.159735	0.670187
C137	C	0.977237	-0.663092	-0.079816
C138	C	1.227237	-0.413092	0.170184
C139	C	1.477237	-0.163092	0.420184
C140	C	1.727237	0.086908	0.670184
C141	C	0.977228	-0.663108	0.079863
C142	C	1.227228	-0.413108	0.329863
C143	C	1.477228	-0.163108	0.579863
C144	C	1.727228	0.086892	0.829863
C145	C	0.978511	-0.590282	0.079864
C146	C	1.228511	-0.340282	0.329864
C147	C	1.478511	-0.090282	0.579864
C148	C	1.728511	0.159718	0.829864
C149	C	0.979165	-0.553865	0.000024
C150	C	1.229165	-0.303865	0.250024
C151	C	1.479165	-0.053865	0.500024
C152	C	1.729165	0.196135	0.750024
C153	C	1.133800	0.090197	0.000044
C154	C	1.383800	0.340197	0.250044
C155	C	1.633800	0.590197	0.500044
C156	C	1.883800	0.840197	0.750044
C157	C	1.226090	0.091553	0.000043
C158	C	1.476090	0.341553	0.250043
C159	C	1.726090	0.591553	0.500043
C160	C	1.976090	0.841553	0.750043
C161	C	0.975239	0.222980	0.000024
C162	C	1.225239	0.472980	0.250024
C163	C	1.475239	0.722980	0.500024
C164	C	1.725239	0.972980	0.750024
C165	C	0.976595	0.300488	0.000016
C166	C	1.226595	0.550488	0.250016
C167	C	1.476595	0.800488	0.500016
C168	C	1.726595	1.050488	0.750016
N169	N	0.981769	0.095326	0.228212
N170	N	1.231769	0.345326	0.478212
N171	N	1.481769	0.595326	0.728212
N172	N	1.731769	0.845326	0.978212
N173	N	0.981790	0.095326	-0.228137
N174	N	1.231790	0.345326	0.021863
N175	N	1.481790	0.595326	0.271863
N176	N	1.731790	0.845326	0.521863
C177	C	1.038484	0.047863	0.453943
C178	C	1.288484	0.297863	0.703943
C179	C	1.538484	0.547863	0.953943
C180	C	1.788484	0.797863	1.203943
C181	C	1.038487	0.047861	0.546133
C182	C	1.288487	0.297861	0.796133
C183	C	1.538487	0.547861	1.046133
C184	C	1.788487	0.797861	1.296133
C185	C	0.925069	0.142791	0.546126
C186	C	1.175069	0.392791	0.796126
C187	C	1.425069	0.642791	1.046126
C188	C	1.675069	0.892791	1.296126
C189	C	0.925064	0.142788	0.453938
C190	C	1.175064	0.392788	0.703938
C191	C	1.425064	0.642788	0.953938
C192	C	1.675064	0.892788	1.203938
C193	C	0.981776	0.095325	0.407849
C194	C	1.231776	0.345325	0.657849
C195	C	1.481776	0.595325	0.907849
C196	C	1.731776	0.845325	1.157849
C197	C	0.981784	0.095326	0.592227
C198	C	1.231784	0.345326	0.842227
C199	C	1.481784	0.595326	1.092227
C200	C	1.731784	0.845326	1.342227
C201	C	0.981787	0.095325	0.692183
C202	C	1.231787	0.345325	0.942183
C203	C	1.481787	0.595325	1.192183
C204	C	1.731787	0.845325	1.442183
C205	C	0.981772	0.095326	0.307887
C206	C	1.231772	0.345326	0.557887
C207	C	1.481772	0.595326	0.807887
C208	C	1.731772	0.845326	1.057887
H209	H	0.421532	-0.021243	0.000028
H210	H	0.671532	0.228757	0.250028
H211	H	0.921532	0.478757	0.500028
H212	H	1.171532	0.728757	0.750028
C213	C	0.987042	-0.106176	-0.167609
C214	C	1.237042	0.143824	0.082391
C215	C	1.487042	0.393824	0.332391
C216	C	1.737042	0.643824	0.582391
N217	N	0.987575	-0.076006	-0.233761
N218	N	1.237575	0.173994	0.016239
N219	N	1.487575	0.423994	0.266239
N220	N	1.737575	0.673994	0.516239
C221	C	0.984348	-0.259104	-0.167616
C222	C	1.234348	-0.009104	0.082384
C223	C	1.484348	0.240896	0.332384
C224	C	1.734348	0.490896	0.582384
N225	N	0.983823	-0.289265	-0.233768
N226	N	1.233823	-0.039265	0.016232
N227	N	1.483823	0.210735	0.266232
N228	N	1.733823	0.460735	0.516232
H229	H	0.384704	0.209569	0.000039
H230	H	0.634704	0.459569	0.250039
H231	H	0.884704	0.709569	0.500039
H232	H	1.134704	0.959569	0.750039
H233	H	0.542014	0.211891	0.000027
H234	H	0.792014	0.461891	0.250027
H235	H	1.042014	0.711891	0.500027
H236	H	1.292014	0.961891	0.750027
C237	C	0.979211	-0.550242	0.167689
C238	C	1.229211	-0.300242	0.417689
C239	C	1.479211	-0.050242	0.667689
C240	C	1.729211	0.199758	0.917689
N241	N	0.979737	-0.520084	0.233843
N242	N	1.229737	-0.270084	0.483843
N243	N	1.479737	-0.020084	0.733843
N244	N	1.729737	0.229916	0.983843
H245	H	0.578855	-0.018910	0.000028
H246	H	0.828855	0.231090	0.250028
H247	H	1.078855	0.481090	0.500028
H248	H	1.328855	0.731090	0.750028
C249	C	1.100862	-0.004353	0.403248
C250	C	1.350862	0.245647	0.653248
C251	C	1.600862	0.495647	0.903248
C252	C	1.850862	0.745647	1.153248
N253	N	1.147845	-0.043686	0.365067
N254	N	1.397845	0.206314	0.615067
N255	N	1.647845	0.456314	0.865067
N256	N	1.897845	0.706314	1.115067
C257	C	1.100864	-0.004357	0.596832
C258	C	1.350864	0.245643	0.846832
C259	C	1.600864	0.495643	1.096832
C260	C	1.850864	0.745643	1.346832
N261	N	1.147847	-0.043692	0.635018
N262	N	1.397847	0.206308	0.885018
N263	N	1.647847	0.456308	1.135018
N264	N	1.897847	0.706308	1.385018
H265	H	0.878897	0.181435	0.583662
H266	H	1.128897	0.431435	0.833662
H267	H	1.378897	0.681435	1.083662
H268	H	1.628897	0.931435	1.333662
C269	C	0.984320	-0.259142	0.167703
C270	C	1.234320	-0.009142	0.417703
C271	C	1.484320	0.240858	0.667703
C272	C	1.734320	0.490858	0.917703
N273	N	0.983784	-0.289321	0.233848
N274	N	1.233784	-0.039321	0.483848
N275	N	1.483784	0.210679	0.733848
N276	N	1.733784	0.460679	0.983848
H277	H	0.878880	0.181438	0.416406
H278	H	1.128880	0.431438	0.666406
H279	H	1.378880	0.681438	0.916406
H280	H	1.628880	0.931438	1.166406
H281	H	0.986812	-0.116611	0.144904
H282	H	1.236812	0.133389	0.394904
H283	H	1.486812	0.383389	0.644904
H284	H	1.736812	0.633389	0.894904
H285	H	0.976721	-0.692727	-0.144829
H286	H	1.226721	-0.442727	0.105171
H287	H	1.476721	-0.192727	0.355171
H288	H	1.726721	0.057273	0.605171
C289	C	0.979235	-0.550203	-0.167638
C290	C	1.229235	-0.300203	0.082362
C291	C	1.479235	-0.050203	0.332362
C292	C	1.729235	0.199797	0.582362
N293	N	0.979765	-0.520030	-0.233788
N294	N	1.229765	-0.270030	0.016212
N295	N	1.479765	-0.020030	0.266212
N296	N	1.729765	0.229970	0.516212
C297	C	0.976523	-0.703171	0.167679
C298	C	1.226523	-0.453171	0.417679
C299	C	1.476523	-0.203171	0.667679
C300	C	1.726523	0.046829	0.917679
N301	N	0.975991	-0.733350	0.233825
N302	N	1.225991	-0.483350	0.483825
N303	N	1.475991	-0.233350	0.733825
N304	N	1.725991	0.016650	0.983825
