data_functionalizedCrystal
_audit_creation_method	'MofGen! by Chris Wilmer'
_symmetry_space_group_name_H-M	'P1'
_symmetry_Int_Tables_number	1
_symmetry_cell_setting	triclinic
loop_
_symmetry_equiv_pos_as_xyz
  x,y,z
_cell_length_a	23.532407
_cell_length_b	19.188930
_cell_length_c	18.266242
_cell_angle_alpha	90.011475
_cell_angle_beta	90.003702
_cell_angle_gamma	82.996730
loop_
_atom_site_label
_atom_site_type_symbol
_atom_site_fract_x
_atom_site_fract_y
_atom_site_fract_z
O1	O	-0.755443	-0.084758	-0.060798
O2	O	-0.589606	-0.097021	-0.060820
O3	O	-0.677310	0.010782	-0.060794
O4	O	-0.667739	-0.192560	-0.060824
O5	O	-0.677295	0.010787	0.060968
O6	O	-0.589591	-0.097016	0.060942
O7	O	-0.755428	-0.084752	0.060964
Zn8	Zn	-0.672507	-0.090883	0.080285
Zn9	Zn	-0.672527	-0.090890	-0.080141
O10	O	-0.667724	-0.192555	0.060938
C11	C	-0.568382	-0.096706	0.000058
C12	C	-0.505163	-0.095767	0.000050
C13	C	-0.676993	0.036794	0.000089
C14	C	-0.676062	0.114296	0.000095
C15	C	-0.776652	-0.085067	0.000084
C16	C	-0.839871	-0.086006	0.000088
C17	C	-0.106183	-0.153674	0.000075
C18	C	-0.046780	-0.152801	0.000079
O19	O	-0.010150	-0.206481	0.000098
N20	N	-0.024018	-0.088713	0.000087
C21	C	-0.060662	-0.025492	0.000098
O22	O	-0.035846	0.029100	0.000107
C23	C	-0.120062	-0.026365	0.000099
C24	C	-0.142821	-0.090458	0.000083
C25	C	-0.128942	-0.217761	0.000060
C26	C	-0.188340	-0.218633	0.000054
C27	C	-0.224979	-0.155417	0.000063
C28	C	-0.202219	-0.091330	0.000078
C29	C	-0.156705	0.036855	0.000115
C30	C	-0.216109	0.035976	0.000117
C31	C	-0.238868	-0.028116	0.000101
C32	C	-0.298256	-0.028986	0.000080
N33	N	-0.321018	-0.093075	0.000072
C34	C	-0.284379	-0.156290	0.000063
C35	C	0.064085	-0.023664	0.000098
C36	C	0.123485	-0.022790	0.000093
C37	C	0.137362	-0.150099	0.000075
C38	C	0.077961	-0.150972	0.000075
C39	C	0.041323	-0.087752	0.000090
C40	C	-0.409120	-0.158117	0.000050
C41	C	-0.468524	-0.158983	0.000041
C42	C	-0.482396	-0.031674	0.000063
C43	C	-0.422997	-0.030807	0.000068
C44	C	-0.386360	-0.094034	0.000064
O45	O	-0.334921	0.024666	0.000065
O46	O	-0.309203	-0.210874	0.000065
C47	C	-0.668041	-0.218568	0.000053
C48	C	-0.668972	-0.296069	0.000042
N49	N	-0.672498	-0.090878	0.189772
C50	C	-0.727524	0.159384	0.000106
C51	C	-0.726650	0.232205	0.000094
C52	C	-0.674311	0.259935	0.000086
C53	C	-0.622842	0.214837	0.000072
C54	C	-0.623718	0.142017	0.000076
N55	N	-0.634299	0.367814	0.041519
N56	N	-0.633471	0.436990	0.041516
C57	C	-0.671670	0.479335	0.000071
N58	N	-0.710737	0.449892	-0.041362
N59	N	-0.711567	0.380710	-0.041356
C60	C	-0.673356	0.338894	0.000081
C61	C	-0.722188	0.603384	0.000068
C62	C	-0.721311	0.676206	0.000051
C63	C	-0.617502	0.658836	0.000036
C64	C	-0.618380	0.586016	0.000045
C65	C	-0.670724	0.558295	0.000064
N66	N	-0.672541	-0.090890	-0.189628
C67	C	-0.711346	-0.043166	0.228093
C68	C	-0.711350	-0.043163	0.304738
C69	C	-0.672511	-0.090883	0.343059
C70	C	-0.633655	-0.138599	0.304729
C71	C	-0.633649	-0.138596	0.228086
N72	N	-0.665108	-0.152714	0.463382
N73	N	-0.665117	-0.152715	0.536190
C74	C	-0.672527	-0.090893	0.573982
N75	N	-0.679937	-0.029069	0.536215
N76	N	-0.679931	-0.029069	0.463400
C77	C	-0.672513	-0.090891	0.426166
C78	C	-0.711381	-0.043174	0.695409
C79	C	-0.711381	-0.043170	0.772056
C80	C	-0.633689	-0.138612	0.772046
C81	C	-0.633686	-0.138610	0.695401
C82	C	-0.672536	-0.090892	0.657087
H83	H	-0.379297	-0.209602	0.000049
C84	C	-0.493558	-0.229486	0.000024
H85	H	-0.534183	-0.220956	0.000014
H86	H	-0.480971	-0.255497	0.042481
H87	H	-0.480969	-0.255495	-0.042447
C88	C	0.148513	0.047712	0.000103
H89	H	0.118180	0.085232	0.000112
H90	H	0.171397	0.050702	-0.042355
H91	H	0.171394	0.050702	0.042573
C92	C	-0.256408	0.105520	0.000125
H93	H	-0.234342	0.143812	0.000127
H94	H	-0.279871	0.107832	0.042582
H95	H	-0.279866	0.107825	-0.042345
C96	C	-0.785099	0.128891	0.000124
H97	H	-0.778252	0.079064	0.000132
H98	H	-0.806291	0.144384	-0.042331
H99	H	-0.806271	0.144403	0.042596
C100	C	-0.088645	-0.287303	0.000045
H101	H	-0.050005	-0.277616	0.000050
H102	H	-0.095538	-0.313596	-0.042422
H103	H	-0.095529	-0.313598	0.042506
H104	H	0.034257	0.027821	0.000104
C105	C	-0.559930	0.689330	0.000026
H106	H	-0.566778	0.739157	0.000027
H107	H	-0.538753	0.673817	-0.042438
H108	H	-0.538743	0.673839	0.042490
H109	H	-0.404466	0.021383	0.000070
H110	H	0.059435	-0.203162	0.000067
C111	C	-0.754091	0.009303	0.185948
H112	H	-0.748533	0.002463	0.134813
H113	H	-0.748047	0.055873	0.198512
H114	H	-0.792074	0.001926	0.198511
H115	H	-0.580227	0.237419	0.000064
C116	C	-0.522705	0.037858	0.000078
H117	H	-0.561340	0.028154	0.000082
H118	H	-0.515828	0.064162	-0.042374
H119	H	-0.515822	0.064150	0.042553
C120	C	-0.567107	0.092418	0.000071
H121	H	-0.535809	0.119359	0.000069
H122	H	-0.565296	0.063637	-0.042385
H123	H	-0.565288	0.063665	0.042542
H124	H	-0.768558	0.268923	0.000100
H125	H	-0.764810	0.580813	0.000080
H126	H	-0.138185	0.089046	0.000129
C127	C	0.177669	-0.219638	0.000070
H128	H	0.155611	-0.257937	0.000059
H129	H	0.201131	-0.221937	0.042532
H130	H	0.201129	-0.221943	-0.042395
H131	H	-0.602013	-0.177449	0.196885
H132	H	-0.763220	0.712917	0.000056
H133	H	-0.206864	-0.270824	0.000041
H134	H	-0.576474	0.549304	0.000041
C135	C	-0.754086	0.009318	0.346903
H136	H	-0.748522	0.002483	0.398036
H137	H	-0.792071	0.001968	0.334332
H138	H	-0.748019	0.055884	0.334359
H139	H	-0.602031	-0.177452	0.335935
C140	C	-0.754106	0.009320	0.653261
H141	H	-0.777238	0.037744	0.687064
H142	H	-0.777748	-0.015647	0.623352
H143	H	-0.733687	0.038259	0.623374
H144	H	-0.743014	-0.004313	0.803257
C145	C	-0.590966	-0.191103	0.814190
H146	H	-0.596535	-0.184275	0.865325
H147	H	-0.552978	-0.183758	0.801639
H148	H	-0.597036	-0.237666	0.801617
C149	C	-0.590965	-0.191105	0.653243
H150	H	-0.596522	-0.184268	0.602109
H151	H	-0.597037	-0.237663	0.665794
H152	H	-0.552973	-0.183761	0.665809
