data_functionalizedCrystal
_audit_creation_method	'MofGen! by Chris Wilmer'
_symmetry_space_group_name_H-M	'P1'
_symmetry_Int_Tables_number	1
_symmetry_cell_setting	triclinic
loop_
_symmetry_equiv_pos_as_xyz
  x,y,z
_cell_length_a	16.109301
_cell_length_b	16.109301
_cell_length_c	15.186229
_cell_angle_alpha	90.000638
_cell_angle_beta	89.996245
_cell_angle_gamma	96.538468
loop_
_atom_site_label
_atom_site_type_symbol
_atom_site_fract_x
_atom_site_fract_y
_atom_site_fract_z
O1	O	0.106866	-1.103131	-0.073173
O2	O	0.120165	-0.861069	-0.073187
O3	O	-0.007515	-0.988749	-0.073174
O4	O	0.234547	-0.975450	-0.073186
O5	O	-0.007517	-0.988741	0.073284
O6	O	0.120164	-0.861060	0.073270
O7	O	0.106864	-1.103122	0.073284
Zn8	Zn	0.113514	-0.982090	0.096531
Zn9	Zn	0.113516	-0.982101	-0.096433
O10	O	0.234545	-0.975442	0.073271
C11	C	0.119626	-0.830090	0.000040
C12	C	0.118011	-0.737794	0.000035
C13	C	-0.038491	-0.988206	0.000055
C14	C	-0.130786	-0.986591	0.000053
N15	N	0.113511	-0.982088	0.228223
C16	C	-0.439785	-1.057074	0.000042
C17	C	-0.353064	-1.058600	0.000047
C18	C	-0.333191	-0.907111	0.000050
C19	C	-0.419910	-0.905586	0.000051
C20	C	-0.473205	-0.980571	0.000043
C21	C	-0.299766	-0.983620	0.000047
C22	C	-0.205740	-0.985274	0.000052
C23	C	-0.567237	-0.978917	0.000039
C24	C	0.265521	-0.975985	0.000041
C25	C	0.357816	-0.977600	0.000036
C26	C	0.107404	-1.134101	0.000056
C27	C	0.109019	-1.226397	0.000055
C28	C	0.190018	-0.515522	0.000041
C29	C	0.188494	-0.428802	0.000047
C30	C	0.037006	-0.448676	0.000051
C31	C	0.038530	-0.535395	0.000052
C32	C	0.115039	-0.568815	0.000042
C33	C	0.111990	-0.395376	0.000047
C34	C	0.110337	-0.301350	0.000054
C35	C	0.116693	-0.662847	0.000038
N36	N	0.113512	-0.982109	-0.228126
C37	C	0.056994	-1.038644	0.453952
C38	C	0.056992	-1.038647	0.546142
C39	C	0.170032	-0.925547	0.546139
C40	C	0.170030	-0.925541	0.453951
C41	C	0.113511	-0.982094	0.407860
C42	C	0.113512	-0.982103	0.592238
C43	C	0.113510	-0.982105	0.692194
C44	C	0.113512	-0.982091	0.307897
H45	H	-0.483175	-1.118131	0.000035
C46	C	0.038923	-1.151758	0.350224
C47	C	-0.005156	-1.100762	0.403265
H48	H	0.000544	-1.190097	0.318932
H49	H	0.072595	-1.118078	0.309599
H50	H	0.073514	-1.181694	0.386175
H51	H	-0.039743	-1.070821	0.367313
H52	H	-0.038842	-1.134446	0.443895
C53	C	-0.026395	-0.677155	0.000057
C54	C	-0.043892	-0.593983	0.000052
H55	H	-0.077277	-0.713323	0.000065
H56	H	0.004973	-0.687279	-0.051013
H57	H	0.004976	-0.687272	0.051133
H58	H	-0.075258	-0.583865	-0.051028
H59	H	-0.075274	-0.583855	0.051128
C60	C	-0.092590	-0.438909	0.075340
C61	C	-0.047090	-0.411937	0.000051
H62	H	-0.144506	-0.416225	0.075339
H63	H	-0.102410	-0.498175	0.075337
H64	H	-0.061714	-0.420605	0.126407
H65	H	-0.077964	-0.430246	-0.051016
H66	H	-0.037273	-0.352658	0.000047
C67	C	-0.381424	-1.208184	0.000031
C68	C	-0.316329	-1.142695	0.000040
H69	H	-0.358744	-1.260102	0.000021
H70	H	-0.414836	-1.204442	0.051100
H71	H	-0.414831	-1.204428	-0.051046
H72	H	-0.282926	-1.146448	0.051120
H73	H	-0.282903	-1.146439	-0.051035
H74	H	-0.447120	-0.843284	0.000056
H75	H	0.216053	-0.879487	0.416420
C76	C	0.339604	-0.487164	0.000048
C77	C	0.274115	-0.552259	0.000043
H78	H	0.391522	-0.509844	0.000057
H79	H	0.335863	-0.453757	-0.051022
H80	H	0.335846	-0.453752	0.051124
H81	H	0.277870	-0.585667	-0.051037
H82	H	0.277858	-0.585680	0.051119
C83	C	0.274661	-0.319749	-0.075245
C84	C	0.270913	-0.370220	0.000040
H85	H	0.325543	-0.283581	-0.075244
H86	H	0.272109	-0.353992	-0.126309
H87	H	0.228876	-0.287435	-0.075230
H88	H	0.316694	-0.402539	0.000022
H89	H	0.273473	-0.335973	0.051117
C90	C	-0.191432	-0.842183	0.000040
C91	C	-0.274607	-0.824691	0.000048
H92	H	-0.155268	-0.791298	0.000032
H93	H	-0.181308	-0.873546	0.051110
H94	H	-0.181312	-0.873556	-0.051036
H95	H	-0.284729	-0.793323	0.051128
H96	H	-0.284735	-0.793314	-0.051027
C97	C	-0.054735	-1.150447	0.536878
C98	C	-0.005131	-1.100812	0.596806
H99	H	-0.093085	-1.188829	0.568158
H100	H	-0.084651	-1.115849	0.500928
H101	H	-0.020106	-1.180335	0.500915
H102	H	-0.039759	-1.070919	0.632765
H103	H	0.024788	-1.135414	0.632771
H104	H	0.216049	-0.879504	0.583676
