data_functionalizedCrystal
_audit_creation_method	'MofGen! by Chris Wilmer'
_symmetry_space_group_name_H-M	'P1'
_symmetry_Int_Tables_number	1
_symmetry_cell_setting	triclinic
loop_
_symmetry_equiv_pos_as_xyz
  x,y,z
_cell_length_a	8.497374
_cell_length_b	12.759401
_cell_length_c	12.759400
_cell_angle_alpha	89.985155
_cell_angle_beta	89.991978
_cell_angle_gamma	90.000368
loop_
_atom_site_label
_atom_site_type_symbol
_atom_site_fract_x
_atom_site_fract_y
_atom_site_fract_z
Zn1	Zn	0.891904	1.606068	0.418444
Zn2	Zn	0.628108	1.606017	0.594091
Zn3	Zn	0.628137	1.430425	0.418427
Zn4	Zn	0.891846	1.430358	0.594082
O5	O	0.759999	1.518217	0.506261
O6	O	0.856923	1.753082	0.441755
O7	O	0.407350	1.582732	0.570785
O8	O	0.663163	1.453773	0.271408
O9	O	0.663113	1.753045	0.570802
O10	O	0.856951	1.582817	0.271421
O11	O	0.407371	1.453725	0.441725
O12	O	0.663107	1.283395	0.441717
O13	O	1.112616	1.453659	0.570787
O14	O	0.856853	1.283346	0.570770
O15	O	1.112658	1.582752	0.441746
O16	O	0.663058	1.582667	0.741110
O17	O	0.856824	1.453611	0.741104
C18	C	0.759978	1.245250	0.506241
C19	C	0.760006	1.128473	0.506258
C20	C	0.860722	1.073613	0.573564
C21	C	0.860739	0.963889	0.573577
C22	C	0.659310	0.963895	0.438977
C23	C	0.659302	1.073617	0.438959
C24	C	0.977011	1.073609	0.651278
C25	C	0.977028	0.963885	0.651291
C26	C	0.759966	1.518155	0.779228
C27	C	0.760005	1.518224	0.896005
C28	C	1.171479	1.518209	0.506262
C29	C	1.350123	1.518212	0.506274
C30	C	0.760021	1.792250	0.506281
C31	C	0.760031	1.909027	0.506290
C32	C	0.760066	1.518308	0.232228
C33	C	0.760095	1.518347	0.115451
C34	C	0.659222	1.585498	0.950835
C35	C	0.659270	1.585563	1.060559
C36	C	0.860889	1.451070	1.060613
C37	C	0.860847	1.451012	0.950891
C38	C	0.542814	1.663143	0.950805
C39	C	0.542862	1.663208	1.060529
H40	H	1.093178	0.929862	0.622279
H41	H	0.420664	1.641496	1.090358
H42	H	0.944096	0.934096	0.732632
C43	C	1.073124	1.436429	1.183962
C44	C	0.971724	1.377189	1.120950
H45	H	1.141542	1.390814	1.221214
H46	H	1.133504	1.482135	1.141102
H47	H	1.013091	1.476501	1.232317
H48	H	1.031757	1.337123	1.072589
H49	H	0.911338	1.331465	1.163813
H50	H	0.577299	1.118280	0.384145
C51	C	1.073001	1.436244	0.827468
C52	C	0.971647	1.377070	0.890624
H53	H	1.141413	1.390592	0.790269
H54	H	1.012944	1.476250	0.779076
H55	H	1.133402	1.482011	0.870232
H56	H	0.911238	1.331308	0.847859
H57	H	1.031711	1.337046	0.939021
C58	C	0.614043	1.839588	0.995799
C59	C	0.587119	1.772937	0.910500
H60	H	0.641404	1.907366	0.970913
H61	H	0.521358	1.844086	1.037173
H62	H	0.697649	1.812520	1.037151
H63	H	0.503505	1.800002	0.869151
H64	H	0.679815	1.768443	0.869109
H65	H	0.426703	1.634043	0.916826
H66	H	0.577322	0.919217	0.384183
H67	H	0.586726	1.740503	1.094486
H68	H	0.933039	1.107632	0.728518
C69	C	1.242105	1.028471	0.604289
C70	C	1.142017	1.113825	0.622022
H71	H	1.343965	1.053301	0.586221
H72	H	1.248592	0.987113	0.666043
H73	H	1.201644	0.987122	0.548562
H74	H	1.182472	1.155170	0.677754
H75	H	1.135535	1.155200	0.560261
