data_functionalizedCrystal
_audit_creation_method	'MofGen! by Chris Wilmer'
_symmetry_space_group_name_H-M	'P1'
_symmetry_Int_Tables_number	1
_symmetry_cell_setting	triclinic
loop_
_symmetry_equiv_pos_as_xyz
  x,y,z
_cell_length_a	15.995350
_cell_length_b	10.540510
_cell_length_c	9.616153
_cell_angle_alpha	90.000246
_cell_angle_beta	89.996782
_cell_angle_gamma	84.002843
loop_
_atom_site_label
_atom_site_type_symbol
_atom_site_fract_x
_atom_site_fract_y
_atom_site_fract_z
O1	O	1.111956	0.163615	-0.115520
O2	O	0.868300	0.183820	-0.115548
O3	O	0.995700	-0.011068	-0.115533
O4	O	0.984556	0.358503	-0.115535
O5	O	0.995682	-0.011064	0.115759
O6	O	0.868282	0.183824	0.115744
O7	O	1.111938	0.163619	0.115771
Zn8	Zn	0.990107	0.173722	0.152480
Zn9	Zn	0.990130	0.173717	-0.152256
O10	O	0.984538	0.358507	0.115756
C11	C	0.837091	0.182987	0.000094
C12	C	0.744126	0.180483	0.000083
C13	C	0.994860	-0.058358	0.000110
C14	C	0.992376	-0.199274	0.000101
C15	C	1.080880	-0.417946	0.000641
C16	C	1.083530	-0.271387	0.000113
C17	C	0.945724	-0.243394	-0.131980
C18	C	0.943719	-0.390127	-0.132084
C19	C	0.941801	-0.389905	0.130938
C20	C	0.946124	-0.243623	0.132677
C21	C	0.406325	0.171489	0.000113
C22	C	0.452939	0.032693	0.000629
C23	C	0.549644	0.035198	0.000098
C24	C	0.573912	0.175950	0.000099
C25	C	0.533240	0.244406	-0.131975
C26	C	0.436583	0.240920	-0.132076
C27	C	0.436241	0.243792	0.130946
C28	C	0.533187	0.243759	0.132682
C29	C	0.668625	0.178479	0.000087
C30	C	0.311613	0.168965	0.000115
C31	C	1.143146	0.164452	0.000126
C32	C	1.236112	0.166957	0.000128
C33	C	0.985377	0.405797	0.000110
C34	C	0.987862	0.546713	0.000110
N35	N	0.990098	0.173725	0.360455
N36	N	0.990147	0.173704	-0.360231
C37	C	0.921739	0.277634	0.580816
C38	C	0.921890	0.278017	0.419649
C39	C	1.077636	0.202656	0.418914
C40	C	1.077264	0.203390	0.580132
C41	C	0.971789	0.040537	0.580364
C42	C	0.969780	0.041429	0.419137
H43	H	1.120033	-0.242543	0.094792
C44	C	1.133138	-0.233686	-0.128009
H45	H	1.151741	-0.307984	-0.179944
H46	H	1.180367	-0.193013	-0.098560
H47	H	1.097900	-0.176813	-0.184587
H48	H	0.560200	0.193787	0.230390
H49	H	0.856492	0.260677	0.619620
C50	C	0.411453	0.173473	-0.265440
H51	H	0.352277	0.170757	-0.266681
H52	H	0.438753	0.089014	-0.267500
H53	H	0.427817	0.219057	-0.344423
H54	H	1.016303	-0.039532	0.378848
H55	H	0.405085	0.346125	0.131840
C56	C	1.099813	0.332363	0.364367
H57	H	1.055845	0.369051	0.305985
H58	H	1.150699	0.320404	0.312844
H59	H	1.106559	0.387669	0.440635
H60	H	0.975616	-0.430783	-0.230809
C61	C	1.039156	-0.063954	0.631873
H62	H	1.027731	-0.144198	0.595629
H63	H	1.038325	-0.066847	0.730592
H64	H	1.092977	-0.045280	0.601154
C65	C	0.887364	0.002968	0.635330
H66	H	0.877489	-0.077664	0.598237
H67	H	0.843303	0.065325	0.607731
H68	H	0.889221	-0.001946	0.733945
C69	C	1.128848	-0.475266	0.128607
H70	H	1.092582	-0.521276	0.182854
H71	H	1.147708	-0.408608	0.182981
H72	H	1.175841	-0.531302	0.098933
C73	C	0.989436	-0.202162	-0.264760
H74	H	1.036118	-0.158094	-0.239988
H75	H	0.950805	-0.147487	-0.318072
H76	H	1.008348	-0.275434	-0.318127
H77	H	0.561341	0.196856	-0.230267
H78	H	1.116195	-0.461938	-0.093537
H79	H	0.404938	0.342821	-0.138069
H80	H	0.875541	-0.412185	-0.138075
H81	H	0.547976	0.347813	-0.136885
C82	C	0.855073	-0.178124	-0.138643
H83	H	0.844849	-0.123251	-0.060749
H84	H	0.816744	-0.241146	-0.137421
H85	H	0.847706	-0.129684	-0.221867
H86	H	0.980070	-0.215476	0.230389
C87	C	0.980710	-0.447765	0.266182
H88	H	1.025417	-0.511124	0.244120
H89	H	0.939014	-0.485303	0.317750
H90	H	1.001726	-0.382559	0.320100
H91	H	0.415430	0.198418	0.231055
H92	H	0.879574	-0.193641	0.140645
C93	C	0.849347	-0.418553	0.132136
H94	H	0.838835	-0.468892	0.053341
H95	H	0.813639	-0.340707	0.129228
H96	H	0.838537	-0.463764	0.214565
C97	C	1.148087	0.103133	0.367107
H98	H	1.124684	0.042913	0.309220
H99	H	1.175064	0.060396	0.444497
H100	H	1.187972	0.144696	0.315611
H101	H	0.549158	0.346400	0.140660
C102	C	0.937470	0.410384	0.635513
H103	H	0.985548	0.402746	0.694116
H104	H	0.889885	0.445724	0.686835
H105	H	0.946701	0.464575	0.559321
H106	H	0.856846	0.260780	0.380127
H107	H	0.434082	-0.022785	0.095345
C108	C	0.937833	0.411514	0.367522
H109	H	0.944251	0.465719	0.444877
H110	H	0.891534	0.446001	0.312692
H111	H	0.987566	0.405181	0.312854
H112	H	0.433026	-0.022533	-0.093563
H113	H	0.905382	0.019473	0.380930
H114	H	0.577189	-0.018979	-0.094742
C115	C	1.098944	0.334589	0.630920
H116	H	1.107891	0.386940	0.553023
H117	H	1.148511	0.323894	0.685915
H118	H	1.053788	0.373890	0.685133
C119	C	1.148150	0.105034	0.632826
H120	H	1.148400	0.104812	0.731620
H121	H	1.200689	0.126964	0.599589
H122	H	1.139084	0.022642	0.599787
C123	C	0.587615	-0.037494	0.127993
H124	H	0.543941	-0.068831	0.180739
H125	H	0.616231	0.018452	0.183866
H126	H	0.626087	-0.106973	0.098272
