data_functionalizedCrystal
_audit_creation_method	'MofGen! by Chris Wilmer'
_symmetry_space_group_name_H-M	'P1'
_symmetry_Int_Tables_number	1
_symmetry_cell_setting	triclinic
loop_
_symmetry_equiv_pos_as_xyz
  x,y,z
_cell_length_a	12.759395
_cell_length_b	13.897447
_cell_length_c	12.759387
_cell_angle_alpha	90.031440
_cell_angle_beta	90.021426
_cell_angle_gamma	90.020218
loop_
_atom_site_label
_atom_site_type_symbol
_atom_site_fract_x
_atom_site_fract_y
_atom_site_fract_z
Zn1	Zn	1.606233	-0.383946	0.594026
Zn2	Zn	1.606109	-0.545274	0.418345
Zn3	Zn	1.430532	-0.383997	0.418360
Zn4	Zn	1.430509	-0.545203	0.593981
O5	O	1.518346	-0.464605	0.506178
O6	O	1.753238	-0.405355	0.570734
O7	O	1.582776	-0.523931	0.271325
O8	O	1.453900	-0.249008	0.441688
O9	O	1.753147	-0.523882	0.441662
O10	O	1.582988	-0.248971	0.570749
O11	O	1.453780	-0.405441	0.271337
O12	O	1.283508	-0.405372	0.441644
O13	O	1.453862	-0.523761	0.741008
O14	O	1.283491	-0.523810	0.570672
O15	O	1.582966	-0.405287	0.741041
O16	O	1.582754	-0.680246	0.441618
O17	O	1.453742	-0.680194	0.570657
C18	C	1.245378	-0.464589	0.506155
C19	C	1.128602	-0.464606	0.506171
C20	C	0.909200	-0.588157	0.640350
C21	C	0.964082	-0.649912	0.707415
C22	C	1.073804	-0.649900	0.707401
C23	C	1.128645	-0.588129	0.640314
C24	C	1.073763	-0.526373	0.573249
C25	C	0.964039	-0.526390	0.573272
C26	C	1.073719	-0.402851	0.439106
C27	C	0.963997	-0.402856	0.439123
C28	C	1.128561	-0.341079	0.372018
C29	C	1.073678	-0.279317	0.304957
C30	C	0.963950	-0.279331	0.304975
C31	C	0.909115	-0.341101	0.372059
C32	C	1.518260	-0.715219	0.506154
C33	C	1.518320	-0.822433	0.506178
C34	C	1.518371	-0.909503	0.506202
C35	C	1.518444	-1.018735	0.506229
C36	C	1.792379	-0.464621	0.506201
C37	C	1.909156	-0.464628	0.506211
C38	C	1.518425	-0.464510	0.780212
C39	C	1.518459	-0.464470	0.896988
C40	C	1.518460	-0.213012	0.506225
C41	C	1.518509	-0.105798	0.506246
C42	C	1.518327	-0.464630	0.233210
C43	C	1.518497	-0.464398	0.116434
C44	C	1.652904	-0.341111	0.897043
C45	C	1.720141	-0.279416	0.951931
C46	C	1.720167	-0.279381	1.061652
C47	C	1.652946	-0.341045	1.116489
C48	C	1.585709	-0.402739	1.061601
C49	C	1.585692	-0.402770	0.951876
C50	C	1.451260	-0.526092	1.061546
C51	C	1.451238	-0.526134	0.951825
C52	C	1.384039	-0.587756	1.116382
C53	C	1.316805	-0.649456	1.061494
C54	C	1.316783	-0.649490	0.951766
C55	C	1.384001	-0.587828	0.896936
H56	H	0.819774	-0.341114	0.372084
C57	C	1.249342	-0.588159	0.640259
N58	N	1.340252	-0.588194	0.640204
H59	H	1.774869	-0.229210	0.907271
H60	H	1.217902	-0.341078	0.372007
C61	C	1.794131	-0.211515	1.122031
N62	N	1.849842	-0.160400	1.167508
H63	H	1.384060	-0.587719	1.205724
C64	C	1.134176	-0.717834	0.781175
N65	N	1.179649	-0.769000	0.836744
H66	H	0.919271	-0.229043	0.250361
C67	C	1.134010	-0.211371	0.231175
N68	N	1.179457	-0.160189	0.175604
H69	H	1.652964	-0.341003	1.205830
H70	H	1.652900	-0.341142	0.807702
H71	H	0.819858	-0.588163	0.640378
C72	C	1.242862	-0.717271	1.121821
N73	N	1.187166	-0.768349	1.167263
H74	H	1.383994	-0.587853	0.807595
C75	C	0.903749	-0.717857	0.781209
N76	N	0.858308	-0.769033	0.836790
H77	H	1.262019	-0.699718	0.907083
