data_functionalizedCrystal
_audit_creation_method	'MofGen! by Chris Wilmer'
_symmetry_space_group_name_H-M	'P1'
_symmetry_Int_Tables_number	1
_symmetry_cell_setting	triclinic
loop_
_symmetry_equiv_pos_as_xyz
  x,y,z
_cell_length_a	19.288864
_cell_length_b	10.654550
_cell_length_c	17.766277
_cell_angle_alpha	89.994852
_cell_angle_beta	89.976791
_cell_angle_gamma	83.810575
loop_
_atom_site_label
_atom_site_type_symbol
_atom_site_fract_x
_atom_site_fract_y
_atom_site_fract_z
O1	O	0.922379	0.156657	-0.062834
O2	O	1.422379	0.656657	0.437166
O3	O	0.720257	0.177789	-0.062782
O4	O	1.220257	0.677789	0.437218
O5	O	0.825965	-0.015616	-0.062807
O6	O	1.325965	0.484384	0.437193
O7	O	0.816670	0.350062	-0.062810
O8	O	1.316670	0.850062	0.437190
O9	O	0.825946	-0.015625	0.062382
O10	O	1.325946	0.484375	0.562382
O11	O	0.720238	0.177780	0.062406
O12	O	1.220238	0.677780	0.562406
O13	O	0.922360	0.156647	0.062355
O14	O	1.422360	0.656647	0.562355
Cu15	Cu	0.821297	0.167212	0.073811
Cu16	Cu	1.321297	0.667212	0.573811
Cu17	Cu	0.821319	0.167224	-0.074239
Cu18	Cu	1.321319	0.667224	0.425761
O19	O	0.816652	0.350052	0.062379
O20	O	1.316652	0.850052	0.562379
C21	C	0.694366	0.177105	-0.000181
C22	C	1.194366	0.677105	0.499819
C23	C	0.617249	0.175063	-0.000162
C24	C	1.117249	0.675063	0.499838
C25	C	0.573296	0.288545	-0.000175
C26	C	1.073296	0.788545	0.499825
C27	C	0.500836	0.286627	-0.000183
C28	C	1.000836	0.786627	0.499817
C29	C	0.472333	0.171222	-0.000193
C30	C	0.972333	0.671222	0.499807
C31	C	0.516296	0.057725	-0.000176
C32	C	1.016296	0.557725	0.499824
C33	C	0.588754	0.059646	-0.000160
C34	C	1.088754	0.559646	0.499840
C35	C	0.363484	0.080503	-0.044077
C36	C	0.863484	0.580503	0.455923
C37	C	0.291027	0.078587	-0.044098
C38	C	0.791027	0.578587	0.455902
C39	C	0.248849	0.165292	-0.000239
C40	C	0.748849	0.665292	0.499761
C41	C	0.279135	0.253934	0.043630
C42	C	0.779135	0.753934	0.543630
C43	C	0.351593	0.255855	0.043646
C44	C	0.851593	0.755855	0.543646
C45	C	0.393766	0.169126	-0.000210
C46	C	0.893766	0.669126	0.499790
C47	C	0.126326	0.276702	-0.000260
C48	C	0.626326	0.776702	0.499740
C49	C	0.053865	0.274779	-0.000263
C50	C	0.553865	0.774779	0.499737
C51	C	0.069327	0.045875	-0.000264
C52	C	0.569327	0.545875	0.499736
C53	C	0.141786	0.047800	-0.000253
C54	C	0.641786	0.547800	0.499747
C55	C	0.170281	0.163217	-0.000254
C56	C	0.670281	0.663217	0.499746
C57	C	0.825273	-0.062404	-0.000213
C58	C	1.325273	0.437596	0.499787
C59	C	0.823231	-0.201803	-0.000215
C60	C	1.323231	0.298197	0.499785
C61	C	0.885471	-0.282621	-0.000229
C62	C	1.385471	0.217379	0.499771
C63	C	0.883548	-0.413601	-0.000234
C64	C	1.383548	0.086399	0.499766
C65	C	0.757141	-0.382932	-0.000208
C66	C	1.257141	0.117068	0.499792
C67	C	0.759065	-0.251955	-0.000208
C68	C	1.259065	0.248045	0.499792
C69	C	0.958451	-0.300329	-0.000240
C70	C	1.458451	0.199671	0.499760
C71	C	0.956528	-0.431309	-0.000245
C72	C	1.456528	0.068691	0.499755
C73	C	0.948250	0.157332	-0.000248
C74	C	1.448250	0.657332	0.499752
C75	C	1.025367	0.159373	-0.000273
C76	C	1.525367	0.659373	0.499727
C77	C	0.817344	0.396840	-0.000216
C78	C	1.317344	0.896840	0.499784
C79	C	0.819385	0.536240	-0.000219
C80	C	1.319385	1.036240	0.499781
N81	N	0.821287	0.167203	0.177941
N82	N	1.321287	0.667203	0.677941
N83	N	0.821335	0.167223	-0.178369
N84	N	1.321335	0.667223	0.321631
C85	C	0.868110	0.081606	0.217318
C86	C	1.368110	0.581606	0.717318
C87	C	0.868114	0.081600	0.296119
C88	C	1.368114	0.581600	0.796119
C89	C	0.821301	0.167213	0.335542
C90	C	1.321301	0.667213	0.835542
C91	C	0.774469	0.252818	0.296156
C92	C	1.274469	0.752818	0.796156
C93	C	0.774462	0.252813	0.217356
C94	C	1.274462	0.752813	0.717356
C95	C	0.812752	0.281634	0.460380
C96	C	1.312752	0.781634	0.960380
C97	C	0.812764	0.281641	0.539179
C98	C	1.312764	0.781641	1.039179
C99	C	0.821320	0.167229	0.578588
C100	C	1.321320	0.667229	1.078588
C101	C	0.829879	0.052804	0.539189
C102	C	1.329879	0.552804	1.039189
C103	C	0.829871	0.052799	0.460389
C104	C	1.329871	0.552799	0.960389
C105	C	0.821304	0.167228	0.420988
C106	C	1.321304	0.667228	0.920988
C107	C	0.868150	0.081617	0.703410
C108	C	1.368150	0.581617	1.203410
C109	C	0.868149	0.081610	0.782214
C110	C	1.368149	0.581610	1.282214
C111	C	0.774508	0.252839	0.782249
C112	C	1.274508	0.752839	1.282249
C113	C	0.774506	0.252835	0.703447
C114	C	1.274506	0.752835	1.203447
C115	C	0.821330	0.167226	0.664033
C116	C	1.321330	0.667226	1.164033
H117	H	0.465043	0.379040	-0.000191
H118	H	0.965043	0.879040	0.499809
H119	H	0.736390	0.322542	0.814346
H120	H	1.236390	0.822542	1.314346
H121	H	0.978592	-0.477420	-0.054304
H122	H	1.478592	0.022580	0.445696
H123	H	0.987004	-0.271578	-0.052635
H124	H	1.487004	0.228422	0.447365
O125	O	0.918660	-0.010722	0.824679
O126	O	1.418660	0.489278	1.324679
H127	H	0.889141	-0.071643	0.860595
H128	H	1.389141	0.428357	1.360595
O129	O	0.691936	-0.164781	-0.000205
O130	O	1.191936	0.335219	0.499795
H131	H	0.689779	-0.104370	0.050816
H132	H	1.189779	0.395630	0.550816
H133	H	0.736380	0.322542	0.671385
H134	H	1.236380	0.822542	1.171385
H135	H	0.981682	-0.265204	0.053808
H136	H	1.481682	0.234796	0.553808
H137	H	0.984018	-0.473662	0.052138
H138	H	1.484018	0.026338	0.552138
H139	H	0.018079	0.367194	-0.000269
H140	H	0.518079	0.867194	0.499731
O141	O	0.803547	0.405048	0.581673
O142	O	1.303547	0.905048	1.081673
H143	H	0.797587	0.484605	0.541033
H144	H	1.297587	0.984605	1.041033
H145	H	0.149528	0.370681	-0.000250
H146	H	0.649528	0.870681	0.499750
H147	H	0.836838	-0.040369	0.428313
H148	H	1.336838	0.459631	0.928313
H149	H	0.736353	0.322524	0.328258
H150	H	1.236353	0.822524	0.828258
H151	H	0.736332	0.322518	0.185295
H152	H	1.236332	0.822518	0.685295
O153	O	0.038597	-0.078605	-0.000276
O154	O	0.538597	0.421395	0.499724
H155	H	-0.019173	-0.060878	-0.000293
H156	H	0.480827	0.439122	0.499707
H157	H	0.805772	0.374809	0.428300
H158	H	1.305772	0.874809	0.928300
H159	H	0.624542	-0.032767	-0.000150
H160	H	1.124542	0.467233	0.499850
O161	O	0.189200	-0.074597	-0.000246
O162	O	0.689200	0.425403	0.499754
H163	H	0.157209	-0.155171	-0.000259
H164	H	0.657209	0.344829	0.499741
H165	H	0.397820	0.009895	-0.079796
H166	H	0.897820	0.509895	0.420204
H167	H	0.596492	0.382526	-0.000177
H168	H	1.096492	0.882526	0.499823
O169	O	0.258369	-0.017031	-0.091405
O170	O	0.758369	0.482969	0.408595
H171	H	0.271442	-0.003723	-0.151524
H172	H	0.771442	0.496277	0.348476
O173	O	0.918602	-0.010741	0.174804
O174	O	1.418602	0.489259	0.674804
H175	H	0.951157	-0.070274	0.215429
H176	H	1.451157	0.429726	0.715429
H177	H	0.906244	0.011893	0.328185
H178	H	1.406244	0.511893	0.828185
H179	H	0.493084	-0.036239	-0.000195
H180	H	0.993084	0.463761	0.499805
H181	H	0.836845	-0.040361	0.571274
H182	H	1.336845	0.459639	1.071274
O183	O	0.384258	0.351451	0.090964
O184	O	0.884258	0.851451	0.590964
H185	H	0.441727	0.338220	0.083600
H186	H	0.941727	0.838220	0.583600
O187	O	0.233657	0.347457	0.090945
O188	O	0.733657	0.847457	0.590945
H189	H	0.178185	0.331222	0.083575
H190	H	0.678185	0.831222	0.583575
O191	O	0.918641	-0.010727	0.660890
O192	O	1.418641	0.489273	1.160890
H193	H	0.951194	-0.070268	0.701513
H194	H	1.451194	0.429732	1.201513
O195	O	0.687934	-0.437022	-0.000189
O196	O	1.187934	0.062978	0.499811
H197	H	0.697051	-0.541676	-0.000185
H198	H	1.197051	-0.041676	0.499815
