data_functionalizedCrystal
_audit_creation_method	'MofGen! by Chris Wilmer'
_symmetry_space_group_name_H-M	'P1'
_symmetry_Int_Tables_number	1
_symmetry_cell_setting	triclinic
loop_
_symmetry_equiv_pos_as_xyz
  x,y,z
_cell_length_a	21.295418
_cell_length_b	21.295417
_cell_length_c	16.625539
_cell_angle_alpha	89.968491
_cell_angle_beta	89.963731
_cell_angle_gamma	90.046319
loop_
_atom_site_label
_atom_site_type_symbol
_atom_site_fract_x
_atom_site_fract_y
_atom_site_fract_z
Zn1	Zn	0.962309	-0.250354	-0.456294
Zn2	Zn	1.212309	-0.000354	-0.206294
Zn3	Zn	1.462309	0.249646	0.043706
Zn4	Zn	1.712309	0.499646	0.293706
Zn5	Zn	0.962226	-0.355624	-0.321450
Zn6	Zn	1.212226	-0.105624	-0.071450
Zn7	Zn	1.462226	0.144376	0.178550
Zn8	Zn	1.712226	0.394376	0.428550
Zn9	Zn	0.857046	-0.250402	-0.321430
Zn10	Zn	1.107046	-0.000402	-0.071430
Zn11	Zn	1.357046	0.249598	0.178570
Zn12	Zn	1.607046	0.499598	0.428570
Zn13	Zn	0.857002	-0.355618	-0.456194
Zn14	Zn	1.107002	-0.105618	-0.206194
Zn15	Zn	1.357002	0.144382	0.043806
Zn16	Zn	1.607002	0.394382	0.293806
O17	O	0.909646	-0.302999	-0.388842
O18	O	1.159646	-0.052999	-0.138842
O19	O	1.409646	0.197001	0.111158
O20	O	1.659646	0.447001	0.361158
O21	O	1.050388	-0.264301	-0.438457
O22	O	1.300388	-0.014301	-0.188457
O23	O	1.550388	0.235699	0.061543
O24	O	1.800388	0.485699	0.311543
O25	O	0.948257	-0.341688	-0.208615
O26	O	1.198257	-0.091688	0.041385
O27	O	1.448257	0.158312	0.291385
O28	O	1.698257	0.408312	0.541385
O29	O	0.871063	-0.162306	-0.339353
O30	O	1.121063	0.087694	-0.089353
O31	O	1.371063	0.337694	0.160647
O32	O	1.621063	0.587694	0.410647
O33	O	1.050326	-0.341642	-0.339387
O34	O	1.300326	-0.091642	-0.089387
O35	O	1.550326	0.158358	0.160613
O36	O	1.800326	0.408358	0.410613
O37	O	0.948400	-0.162271	-0.438438
O38	O	1.198400	0.087729	-0.188438
O39	O	1.448400	0.337729	0.061562
O40	O	1.698400	0.587729	0.311562
O41	O	0.870982	-0.264382	-0.208600
O42	O	1.120982	-0.014382	0.041400
O43	O	1.370982	0.235618	0.291400
O44	O	1.620982	0.485618	0.541400
O45	O	0.768951	-0.264376	-0.339256
O46	O	1.018951	-0.014376	-0.089256
O47	O	1.268951	0.235624	0.160744
O48	O	1.518951	0.485624	0.410744
O49	O	0.870988	-0.341632	-0.569040
O50	O	1.120988	-0.091632	-0.319040
O51	O	1.370988	0.158368	-0.069040
O52	O	1.620988	0.408368	0.180960
O53	O	0.768918	-0.341679	-0.438267
O54	O	1.018918	-0.091679	-0.188267
O55	O	1.268918	0.158321	0.061733
O56	O	1.518918	0.408321	0.311733
O57	O	0.948357	-0.264295	-0.569114
O58	O	1.198357	-0.014295	-0.319114
O59	O	1.448357	0.235705	-0.069114
O60	O	1.698357	0.485705	0.180886
O61	O	0.948214	-0.443713	-0.339290
O62	O	1.198214	-0.193713	-0.089290
O63	O	1.448214	0.056287	0.160710
O64	O	1.698214	0.306287	0.410710
O65	O	0.870906	-0.443708	-0.438287
O66	O	1.120906	-0.193708	-0.188287
O67	O	1.370906	0.056292	0.061713
O68	O	1.620906	0.306292	0.311713
C69	C	0.746094	-0.303033	-0.388749
C70	C	0.996094	-0.053033	-0.138749
C71	C	1.246094	0.196967	0.111251
C72	C	1.496094	0.446967	0.361251
C73	C	0.676126	-0.303062	-0.388729
C74	C	0.926126	-0.053062	-0.138729
C75	C	1.176126	0.196938	0.111271
C76	C	1.426126	0.446938	0.361271
C77	C	0.643259	-0.343366	-0.440207
C78	C	0.893259	-0.093366	-0.190207
C79	C	1.143259	0.156634	0.059793
C80	C	1.393259	0.406634	0.309793
C81	C	0.577516	-0.343351	-0.440243
C82	C	0.827516	-0.093351	-0.190243
C83	C	1.077516	0.156649	0.059757
C84	C	1.327516	0.406649	0.309757
C85	C	0.544644	-0.303037	-0.388787
C86	C	0.794644	-0.053037	-0.138787
C87	C	1.044644	0.196963	0.111213
C88	C	1.294644	0.446963	0.361213
C89	C	0.577519	-0.262725	-0.337305
C90	C	0.827519	-0.012725	-0.087305
C91	C	1.077519	0.237275	0.162695
C92	C	1.327519	0.487275	0.412695
C93	C	0.643260	-0.262737	-0.337276
C94	C	0.893260	-0.012737	-0.087276
C95	C	1.143260	0.237263	0.162724
C96	C	1.393260	0.487263	0.412724
N97	N	0.441375	-0.298120	-0.318264
N98	N	0.691375	-0.048120	-0.068264
N99	N	0.941375	0.201880	0.181736
N100	N	1.191375	0.451880	0.431736
N101	N	0.378923	-0.298112	-0.318294
N102	N	0.628923	-0.048112	-0.068294
N103	N	0.878923	0.201888	0.181706
N104	N	1.128923	0.451888	0.431706
C105	C	0.346569	-0.302997	-0.388872
C106	C	0.596569	-0.052997	-0.138872
C107	C	0.846569	0.197003	0.111128
C108	C	1.096569	0.447003	0.361128
N109	N	0.379025	-0.307903	-0.459421
N110	N	0.629025	-0.057903	-0.209421
N111	N	0.879025	0.192097	0.040579
N112	N	1.129025	0.442097	0.290579
N113	N	0.441482	-0.307914	-0.459390
N114	N	0.691482	-0.057914	-0.209390
N115	N	0.941482	0.192086	0.040610
N116	N	1.191482	0.442086	0.290610
C117	C	0.473358	-0.303019	-0.388813
C118	C	0.723358	-0.053019	-0.138813
C119	C	0.973358	0.196981	0.111187
C120	C	1.223358	0.446981	0.361187
C121	C	0.242416	-0.343287	-0.440394
C122	C	0.492416	-0.093287	-0.190394
C123	C	0.742416	0.156713	0.059606
C124	C	0.992416	0.406713	0.309606
C125	C	0.176673	-0.343267	-0.440431
C126	C	0.426673	-0.093267	-0.190431
C127	C	0.676673	0.156733	0.059569
C128	C	0.926673	0.406733	0.309569
C129	C	0.176676	-0.262645	-0.337486
C130	C	0.426676	-0.012645	-0.087486
C131	C	0.676676	0.237355	0.162514
C132	C	0.926676	0.487355	0.412514
C133	C	0.242418	-0.262661	-0.337456
C134	C	0.492418	-0.012661	-0.087456
C135	C	0.742418	0.237339	0.162544
C136	C	0.992418	0.487339	0.412544
C137	C	0.275285	-0.302986	-0.388909
C138	C	0.525285	-0.052986	-0.138909
C139	C	0.775285	0.197014	0.111091
C140	C	1.025285	0.447014	0.361091
C141	C	0.909563	-0.466551	-0.388797
C142	C	1.159563	-0.216551	-0.138797
C143	C	1.409563	0.033449	0.111203
C144	C	1.659563	0.283449	0.361203
C145	C	0.909586	-0.536519	-0.388805
C146	C	1.159586	-0.286519	-0.138805
C147	C	1.409586	-0.036519	0.111195
C148	C	1.659586	0.213481	0.361195
C149	C	0.949875	-0.569367	-0.337311
C150	C	1.199875	-0.319367	-0.087311
C151	C	1.449875	-0.069367	0.162689
C152	C	1.699875	0.180633	0.412689
C153	C	0.949905	-0.635110	-0.337329
C154	C	1.199905	-0.385110	-0.087329
C155	C	1.449905	-0.135110	0.162671
C156	C	1.699905	0.114890	0.412671
C157	C	0.909633	-0.668002	-0.388833
C158	C	1.159633	-0.418002	-0.138833
C159	C	1.409633	-0.168002	0.111167
C160	C	1.659633	0.081998	0.361167
C161	C	0.869341	-0.635146	-0.440338
C162	C	1.119341	-0.385146	-0.190338
C163	C	1.369341	-0.135146	0.059662
C164	C	1.619341	0.114854	0.309662
C165	C	0.869317	-0.569405	-0.440324
C166	C	1.119317	-0.319405	-0.190324
C167	C	1.369317	-0.069405	0.059676
C168	C	1.619317	0.180595	0.309676
N169	N	0.854566	-0.771283	-0.394949
N170	N	1.104566	-0.521283	-0.144949
N171	N	1.354566	-0.271283	0.105051
N172	N	1.604566	-0.021283	0.355051
N173	N	0.854590	-0.833734	-0.394957
N174	N	1.104590	-0.583734	-0.144957
N175	N	1.354590	-0.333734	0.105043
N176	N	1.604590	-0.083734	0.355043
C177	C	0.909704	-0.866076	-0.388879
C178	C	1.159704	-0.616076	-0.138879
C179	C	1.409704	-0.366076	0.111121
C180	C	1.659704	-0.116076	0.361121
N181	N	0.964793	-0.833608	-0.382777
N182	N	1.214793	-0.583608	-0.132777
N183	N	1.464793	-0.333608	0.117223
N184	N	1.714793	-0.083608	0.367223
N185	N	0.964768	-0.771151	-0.382764
N186	N	1.214768	-0.521151	-0.132764
N187	N	1.464768	-0.271151	0.117236
N188	N	1.714768	-0.021151	0.367236
C189	C	0.909655	-0.739287	-0.388854
C190	C	1.159655	-0.489287	-0.138854
C191	C	1.409655	-0.239287	0.111146
C192	C	1.659655	0.010713	0.361146
C193	C	0.950029	-0.970210	-0.337402
C194	C	1.200029	-0.720210	-0.087402
C195	C	1.450029	-0.470210	0.162598
C196	C	1.700029	-0.220210	0.412598
C197	C	0.950059	-1.035953	-0.337426
C198	C	1.200059	-0.785953	-0.087426
C199	C	1.450059	-0.535953	0.162574
C200	C	1.700059	-0.285953	0.412574
C201	C	0.869490	-1.035988	-0.440430
C202	C	1.119490	-0.785988	-0.190430
C203	C	1.369490	-0.535988	0.059570
C204	C	1.619490	-0.285988	0.309570
C205	C	0.869465	-0.970246	-0.440410
C206	C	1.119465	-0.720246	-0.190410
C207	C	1.369465	-0.470246	0.059590
C208	C	1.619465	-0.220246	0.309590
C209	C	0.909734	-0.937361	-0.388892
C210	C	1.159734	-0.687361	-0.138892
C211	C	1.409734	-0.437361	0.111108
C212	C	1.659734	-0.187361	0.361108
C213	C	1.073836	-0.302967	-0.388936
C214	C	1.323836	-0.052967	-0.138936
C215	C	1.573836	0.197033	0.111064
C216	C	1.823836	0.447033	0.361064
C217	C	1.143804	-0.302953	-0.388976
C218	C	1.393804	-0.052953	-0.138976
C219	C	1.643804	0.197047	0.111024
C220	C	1.893804	0.447047	0.361024
C221	C	0.909677	-0.302958	-0.599151
C222	C	1.159677	-0.052958	-0.349151
C223	C	1.409677	0.197042	-0.099151
C224	C	1.659677	0.447042	0.150849
C225	C	0.909690	-0.302940	-0.688772
C226	C	1.159690	-0.052940	-0.438772
C227	C	1.409690	0.197060	-0.188772
C228	C	1.659690	0.447060	0.061228
C229	C	0.909746	-0.138809	-0.388905
C230	C	1.159746	0.111191	-0.138905
C231	C	1.409746	0.361191	0.111095
C232	C	1.659746	0.611191	0.361095
C233	C	0.909788	-0.068841	-0.388931
C234	C	1.159788	0.181159	-0.138931
C235	C	1.409788	0.431159	0.111069
C236	C	1.659788	0.681159	0.361069
C237	C	0.909700	-0.302926	-0.761555
C238	C	1.159700	-0.052926	-0.511555
C239	C	1.409700	0.197074	-0.261555
C240	C	1.659700	0.447074	-0.011555
C241	C	0.909715	-0.302903	-0.852863
C242	C	1.159715	-0.052903	-0.602863
C243	C	1.409715	0.197097	-0.352863
C244	C	1.659715	0.447097	-0.102863
C245	C	0.909730	-0.302881	-0.925640
C246	C	1.159730	-0.052881	-0.675640
C247	C	1.409730	0.197119	-0.425640
C248	C	1.659730	0.447119	-0.175640
C249	C	0.909745	-0.302858	-1.016954
C250	C	1.159745	-0.052858	-0.766954
C251	C	1.409745	0.197142	-0.516954
C252	C	1.659745	0.447142	-0.266954
C253	C	0.909651	-0.302995	-0.179351
C254	C	1.159651	-0.052995	0.070649
C255	C	1.409651	0.197005	0.320649
C256	C	1.659651	0.447005	0.570649
C257	C	0.909760	-0.302836	-0.089731
C258	C	1.159760	-0.052836	0.160269
C259	C	1.409760	0.197164	0.410269
C260	C	1.659760	0.447164	0.660269
H261	H	0.149913	-0.376087	-0.482356
H262	H	0.399913	-0.126087	-0.232356
H263	H	0.649913	0.123913	0.017644
H264	H	0.899913	0.373913	0.267644
Cl265	Cl	0.283739	-0.211991	-0.272735
Cl266	Cl	0.533739	0.038009	-0.022735
Cl267	Cl	0.783739	0.288009	0.227265
Cl268	Cl	1.033739	0.538009	0.477265
H269	H	0.836703	-1.062769	-0.482369
H270	H	1.086703	-0.812769	-0.232369
H271	H	1.336703	-0.562769	0.017631
H272	H	1.586703	-0.312769	0.267631
Cl273	Cl	1.000651	-0.928865	-0.272637
Cl274	Cl	1.250651	-0.678865	-0.022637
Cl275	Cl	1.500651	-0.428865	0.227363
Cl276	Cl	1.750651	-0.178865	0.477363
Cl277	Cl	0.536194	-0.212042	-0.272621
Cl278	Cl	0.786194	0.037958	-0.022621
Cl279	Cl	1.036194	0.287958	0.227379
Cl280	Cl	1.286194	0.537958	0.477379
Cl281	Cl	0.684581	-0.212064	-0.272555
Cl282	Cl	0.934581	0.037936	-0.022555
Cl283	Cl	1.184581	0.287936	0.227445
Cl284	Cl	1.434581	0.537936	0.477445
Cl285	Cl	0.283737	-0.393976	-0.505080
Cl286	Cl	0.533737	-0.143976	-0.255080
Cl287	Cl	0.783737	0.106024	-0.005080
Cl288	Cl	1.033737	0.356024	0.244920
H289	H	0.836508	-0.542659	-0.482258
H290	H	1.086508	-0.292659	-0.232258
H291	H	1.336508	-0.042659	0.017742
H292	H	1.586508	0.207341	0.267742
Cl293	Cl	1.000719	-1.077249	-0.272689
Cl294	Cl	1.250719	-0.827249	-0.022689
Cl295	Cl	1.500719	-0.577249	0.227311
Cl296	Cl	1.750719	-0.327249	0.477311
Cl297	Cl	0.818809	-0.928949	-0.505147
Cl298	Cl	1.068809	-0.678949	-0.255147
Cl299	Cl	1.318809	-0.428949	-0.005147
Cl300	Cl	1.568809	-0.178949	0.244853
H301	H	0.149912	-0.229818	-0.295594
H302	H	0.399912	0.020182	-0.045594
H303	H	0.649912	0.270182	0.204406
H304	H	0.899912	0.520182	0.454406
Cl305	Cl	1.000508	-0.528029	-0.272557
Cl306	Cl	1.250508	-0.278029	-0.022557
Cl307	Cl	1.500508	-0.028029	0.227443
Cl308	Cl	1.750508	0.221971	0.477443
H309	H	0.982716	-0.661860	-0.295396
H310	H	1.232716	-0.411860	-0.045396
H311	H	1.482716	-0.161860	0.204604
H312	H	1.732716	0.088140	0.454604
H313	H	0.670014	-0.376201	-0.482104
H314	H	0.920014	-0.126201	-0.232104
H315	H	1.170014	0.123799	0.017896
H316	H	1.420014	0.373799	0.267896
Cl317	Cl	0.818717	-0.676495	-0.505090
Cl318	Cl	1.068717	-0.426495	-0.255090
Cl319	Cl	1.318717	-0.176495	-0.005090
Cl320	Cl	1.568717	0.073505	0.244910
H321	H	0.550751	-0.376172	-0.482165
H322	H	0.800751	-0.126172	-0.232165
H323	H	1.050751	0.123828	0.017835
H324	H	1.300751	0.373828	0.267835
