data_functionalizedCrystal
_audit_creation_method	'MofGen! by Chris Wilmer'
_symmetry_space_group_name_H-M	'P1'
_symmetry_Int_Tables_number	1
_symmetry_cell_setting	triclinic
loop_
_symmetry_equiv_pos_as_xyz
  x,y,z
_cell_length_a	19.805407
_cell_length_b	21.295417
_cell_length_c	21.295411
_cell_angle_alpha	90.021644
_cell_angle_beta	90.025486
_cell_angle_gamma	90.030507
loop_
_atom_site_label
_atom_site_type_symbol
_atom_site_fract_x
_atom_site_fract_y
_atom_site_fract_z
Zn1	Zn	1.034756	-0.250681	0.355927
Zn2	Zn	1.034651	-0.355933	0.250652
Zn3	Zn	0.921559	-0.250681	0.250670
Zn4	Zn	0.921526	-0.355916	0.355882
O5	O	0.978123	-0.303303	0.303283
O6	O	1.129459	-0.264650	0.341973
O7	O	1.019619	-0.341978	0.162565
O8	O	0.936632	-0.162592	0.264659
O9	O	1.129381	-0.341978	0.264628
O10	O	1.019798	-0.162592	0.341991
O11	O	0.936531	-0.264650	0.162578
O12	O	0.826838	-0.264634	0.264616
O13	O	0.936576	-0.341949	0.443978
O14	O	0.826814	-0.341950	0.341915
O15	O	1.019766	-0.264633	0.444010
O16	O	1.019587	-0.444020	0.264585
O17	O	0.936475	-0.444008	0.341897
C18	C	0.802267	-0.303291	0.303263
C19	C	0.727035	-0.303301	0.303269
C20	C	0.691696	-0.343620	0.343453
C21	C	0.621007	-0.343621	0.343462
C22	C	0.585659	-0.303306	0.303283
C23	C	0.621003	-0.262982	0.263097
C24	C	0.691690	-0.262979	0.263092
C25	C	0.335930	-0.262996	0.263118
C26	C	0.265238	-0.263005	0.263125
C27	C	0.265247	-0.343638	0.343488
C28	C	0.335934	-0.343635	0.343483
C29	C	0.371272	-0.303309	0.303299
C30	C	0.447920	-0.303308	0.303291
C31	C	0.509012	-0.303310	0.303288
C32	C	0.978034	-0.466854	0.303248
C33	C	0.978058	-0.536823	0.303254
C34	C	1.021373	-0.569675	0.263039
C35	C	1.021405	-0.635417	0.263053
C36	C	0.978109	-0.668305	0.303276
C37	C	0.934791	-0.635445	0.343499
C38	C	0.934766	-0.569704	0.343488
N39	N	0.918900	-0.771572	0.308068
N40	N	0.918926	-0.834023	0.308075
C41	C	0.978185	-0.866380	0.303312
N42	N	1.037419	-0.833926	0.298530
N43	N	1.037392	-0.771468	0.298520
C44	C	0.978133	-0.739590	0.303293
C45	C	1.021538	-0.970517	0.263110
C46	C	1.021571	-1.036261	0.263129
C47	C	0.934952	-1.036288	0.343571
C48	C	0.934925	-0.970545	0.343556
C49	C	0.978217	-0.937664	0.303322
C50	C	1.154666	-0.303315	0.303304
C51	C	1.229898	-0.303321	0.303313
C52	C	0.978179	-0.303290	0.467473
C53	C	0.978203	-0.303284	0.537441
C54	C	0.978230	-0.139113	0.303332
C55	C	0.978276	-0.069144	0.303353
C56	C	0.978106	-0.303271	0.139731
C57	C	0.978213	-0.303099	0.069764
C58	C	1.021518	-0.263024	0.570326
C59	C	1.021517	-0.262996	0.636069
C60	C	0.978208	-0.303241	0.668924
C61	C	0.934885	-0.343504	0.636031
C62	C	0.934882	-0.343525	0.570290
N63	N	0.972986	-0.358308	0.772139
N64	N	0.972993	-0.358286	0.834591
C65	C	0.978213	-0.303177	0.866999
N66	N	0.983439	-0.248089	0.834596
N67	N	0.983436	-0.248113	0.772139
C68	C	0.978206	-0.303221	0.740209
C69	C	1.021529	-0.262884	0.971169
C70	C	1.021523	-0.262855	1.036913
C71	C	0.934895	-0.343368	1.036874
C72	C	0.934897	-0.343391	0.971132
C73	C	0.978217	-0.303149	0.938283
H74	H	0.592237	-0.376453	0.376184
H75	H	1.056794	-0.230067	1.063687
H76	H	1.056792	-0.230255	0.543585
H77	H	1.056848	-1.063008	0.230382
Cl78	Cl	1.075961	-0.212367	0.677418
Cl79	Cl	0.880442	-0.393956	1.078172
H80	H	0.899621	-0.376269	0.662786
Cl81	Cl	0.736126	-0.394307	0.393964
H82	H	0.592217	-0.230155	0.230385
H83	H	0.899607	-0.376309	0.543516
Cl84	Cl	1.075962	-0.929178	0.212531
Cl85	Cl	0.880443	-0.394009	0.929789
H86	H	0.899703	-1.063064	0.376324
H87	H	0.364711	-0.376465	0.376199
Cl88	Cl	0.220818	-0.394334	0.394006
H89	H	0.236459	-0.230171	0.230406
Cl90	Cl	0.880465	-0.929243	0.394112
Cl91	Cl	1.075984	-0.212292	0.929871
H92	H	0.364694	-0.230166	0.230393
Cl93	Cl	0.736117	-0.212288	0.212574
H94	H	1.056626	-0.542905	0.230280
H95	H	0.899541	-0.662227	0.376250
Cl96	Cl	1.075861	-0.676726	0.212492
Cl97	Cl	0.880307	-0.528402	0.394048
