data_functionalizedCrystal
_audit_creation_method	'MofGen! by Chris Wilmer'
_symmetry_space_group_name_H-M	'P1'
_symmetry_Int_Tables_number	1
_symmetry_cell_setting	triclinic
loop_
_symmetry_equiv_pos_as_xyz
  x,y,z
_cell_length_a	19.805407
_cell_length_b	12.759400
_cell_length_c	19.805399
_cell_angle_alpha	90.022119
_cell_angle_beta	90.019573
_cell_angle_gamma	90.013166
loop_
_atom_site_label
_atom_site_type_symbol
_atom_site_fract_x
_atom_site_fract_y
_atom_site_fract_z
Zn1	Zn	1.034798	-0.418291	0.382745
Zn2	Zn	1.534798	0.081709	0.882745
Zn3	Zn	1.034739	-0.593984	0.269568
Zn4	Zn	1.534739	-0.093984	0.769568
Zn5	Zn	0.921613	-0.418320	0.269570
Zn6	Zn	1.421613	0.081680	0.769570
Zn7	Zn	0.921602	-0.593928	0.382715
Zn8	Zn	1.421602	-0.093928	0.882715
O9	O	0.978188	-0.506131	0.326149
O10	O	1.478188	-0.006131	0.826149
O11	O	1.129507	-0.441608	0.367744
O12	O	1.629507	0.058392	0.867744
O13	O	1.019712	-0.570717	0.174852
O14	O	1.519712	-0.070717	0.674852
O15	O	0.936656	-0.271295	0.284597
O16	O	1.436656	0.228705	0.784597
O17	O	1.129463	-0.570689	0.284593
O18	O	1.629463	-0.070689	0.784593
O19	O	1.019813	-0.271273	0.367746
O20	O	1.519813	0.228727	0.867746
O21	O	0.936599	-0.441657	0.174853
O22	O	1.436599	0.058343	0.674853
O23	O	0.826895	-0.441603	0.284567
O24	O	1.326895	0.058397	0.784567
O25	O	0.936638	-0.570594	0.477435
O26	O	1.436638	-0.070594	0.977435
O27	O	0.826887	-0.570622	0.367694
O28	O	1.326887	-0.070622	0.867694
O29	O	1.019803	-0.441554	0.477458
O30	O	1.519803	0.058446	0.977458
O31	O	1.019702	-0.740998	0.284563
O32	O	1.519702	-0.240998	0.784563
O33	O	0.936581	-0.740957	0.367692
O34	O	1.436581	-0.240957	0.867692
C35	C	0.802332	-0.506110	0.326128
C36	C	1.302332	-0.006110	0.826128
C37	C	0.727100	-0.506127	0.326134
C38	C	1.227100	-0.006127	0.826134
C39	C	0.691770	-0.573408	0.369348
C40	C	1.191770	-0.073408	0.869348
C41	C	0.621081	-0.573410	0.369358
C42	C	1.121081	-0.073410	0.869358
C43	C	0.585724	-0.506135	0.326149
C44	C	1.085724	-0.006135	0.826149
C45	C	0.621060	-0.438847	0.282933
C46	C	1.121060	0.061153	0.782933
C47	C	0.691747	-0.438840	0.282928
C48	C	1.191747	0.061160	0.782928
C49	C	0.335986	-0.438870	0.282956
C50	C	0.835986	0.061130	0.782956
C51	C	0.265294	-0.438884	0.282963
C52	C	0.765294	0.061116	0.782963
C53	C	0.265321	-0.573440	0.369386
C54	C	0.765321	-0.073440	0.869386
C55	C	0.336008	-0.573433	0.369380
C56	C	0.836008	-0.073433	0.869380
C57	C	0.371337	-0.506141	0.326167
C58	C	0.871337	-0.006141	0.826167
C59	C	0.447985	-0.506139	0.326158
C60	C	0.947985	-0.006139	0.826158
C61	C	0.509077	-0.506142	0.326154
C62	C	1.009077	-0.006142	0.826154
C63	C	0.978152	-0.779098	0.326139
C64	C	1.478152	-0.279098	0.826139
C65	C	0.978199	-0.895875	0.326157
C66	C	1.478199	-0.395875	0.826157
C67	C	1.021477	-0.950646	0.369488
C68	C	1.521477	-0.450646	0.869488
C69	C	1.021509	-1.060370	0.369505
C70	C	1.521509	-0.560370	0.869505
C71	C	0.934982	-1.060542	0.282853
C72	C	1.434982	-0.560542	0.782853
C73	C	0.934948	-0.950820	0.282840
C74	C	1.434948	-0.450820	0.782840
C75	C	1.064729	-0.895701	0.412805
C76	C	1.564729	-0.395701	0.912805
C77	C	1.108011	-0.950472	0.456139
C78	C	1.608011	-0.450472	0.956139
C79	C	1.108042	-1.060196	0.456156
C80	C	1.608042	-0.560196	0.956156
C81	C	1.064792	-1.115149	0.412838
C82	C	1.564792	-0.615149	0.912838
C83	C	1.154731	-0.506152	0.326172
C84	C	1.654731	-0.006152	0.826172
C85	C	1.229963	-0.506160	0.326181
C86	C	1.729963	-0.006160	0.826181
C87	C	0.978226	-0.506064	0.502692
C88	C	1.478226	-0.006064	1.002692
C89	C	0.978242	-0.506036	0.577924
C90	C	1.478242	-0.006036	1.077924
C91	C	0.978242	-0.232097	0.326175
C92	C	1.478242	0.267903	0.826175
C93	C	0.978265	-0.115321	0.326186
C94	C	1.478265	0.384679	0.826186
C95	C	0.978189	-0.506121	0.150293
C96	C	1.478189	-0.006121	0.650293
C97	C	0.978304	-0.505853	0.075062
C98	C	1.478304	-0.005853	0.575062
C99	C	1.021547	-0.438842	0.613281
C100	C	1.521547	0.061158	1.113281
C101	C	1.021554	-0.438811	0.683970
C102	C	1.521554	0.061189	1.183970
C103	C	0.978259	-0.505981	0.719300
C104	C	1.478259	-0.005981	1.219300
C105	C	0.934949	-0.573179	0.683938
C106	C	1.434949	-0.073179	1.183938
C107	C	0.934940	-0.573203	0.613251
C108	C	1.434940	-0.073203	1.113251
C109	C	0.934988	-0.573081	0.969011
C110	C	1.434988	-0.073081	1.469011
C111	C	0.935002	-0.573054	1.039704
C112	C	1.435002	-0.073054	1.539704
C113	C	1.021602	-0.438689	1.039730
C114	C	1.521602	0.061311	1.539730
C115	C	1.021592	-0.438713	0.969043
C116	C	1.521592	0.061287	1.469043
C117	C	0.978280	-0.505906	0.933687
C118	C	1.478280	-0.005906	1.433687
C119	C	0.978272	-0.505937	0.857039
C120	C	1.478272	-0.005937	1.357039
C121	C	0.978270	-0.505957	0.795947
C122	C	1.478270	-0.005957	1.295947
H123	H	0.364743	-0.384085	0.247764
H124	H	0.864743	0.115915	0.747764
N125	N	1.064702	-0.777357	0.412779
N126	N	1.564702	-0.277357	0.912779
H127	H	1.098669	-0.750858	0.446792
H128	H	1.598669	-0.250858	0.946792
H129	H	1.018235	-0.751038	0.425154
H130	H	1.518235	-0.251038	0.925154
H131	H	0.236547	-0.628228	0.404575
H132	H	0.736547	-0.128228	0.904575
H133	H	0.364792	-0.628219	0.404563
H134	H	0.864792	-0.128219	0.904563
H135	H	0.592267	-0.384066	0.247755
H136	H	1.092267	0.115934	0.747755
N137	N	0.888273	-0.891727	0.236107
N138	N	1.388273	-0.391727	0.736107
H139	H	0.839912	-0.910864	0.246576
H140	H	1.339912	-0.410864	0.746576
H141	H	0.898875	-0.910868	0.187775
H142	H	1.398875	-0.410868	0.687775
N143	N	1.154659	-0.891215	0.502860
N144	N	1.654659	-0.391215	1.002860
H145	H	1.144123	-0.910276	0.551213
H146	H	1.644123	-0.410276	1.051213
H147	H	1.148055	-0.813413	0.496219
H148	H	1.648055	-0.313413	0.996219
H149	H	0.236509	-0.384094	0.247778
H150	H	0.736509	0.115906	0.747778
N151	N	1.154711	-1.119253	0.502913
N152	N	1.654711	-0.619253	1.002913
H153	H	1.203074	-1.100118	0.492450
H154	H	1.703074	-0.600118	0.992450
H155	H	1.148116	-1.197084	0.496343
H156	H	1.648116	-0.697084	0.996343
N157	N	1.068317	-0.366210	1.077864
N158	N	1.568317	0.133790	1.577864
H159	H	1.061754	-0.376380	1.128005
H160	H	1.561754	0.123620	1.628005
H161	H	1.057798	-0.291179	1.065511
H162	H	1.557798	0.208821	1.565511
N163	N	1.068292	-0.366272	0.930937
N164	N	1.568292	0.133728	1.430937
H165	H	1.095726	-0.323697	0.964062
H166	H	1.595726	0.176303	1.464062
H167	H	1.040745	-0.317660	0.901608
H168	H	1.540745	0.182340	1.401608
H169	H	1.056818	-0.384097	0.712754
H170	H	1.556818	0.115903	1.212754
N171	N	1.064817	-1.233494	0.412861
N172	N	1.564817	-0.733494	0.912861
H173	H	1.098794	-1.259856	0.446887
H174	H	1.598794	-0.759856	0.946887
H175	H	1.077272	-1.259874	0.366422
H176	H	1.577272	-0.759874	0.866422
N177	N	0.888341	-1.119806	0.236129
N178	N	1.388341	-0.619806	0.736129
H179	H	0.894932	-1.197626	0.242710
H180	H	1.394932	-0.697626	0.742710
H181	H	0.898901	-1.100655	0.187798
H182	H	1.398901	-0.600655	0.687798
H183	H	1.056805	-0.384147	0.584520
H184	H	1.556805	0.115853	1.084520
H185	H	0.899696	-0.627866	0.712709
H186	H	1.399696	-0.127866	1.212709
N187	N	0.888304	-0.645504	1.077812
N188	N	1.388304	-0.145504	1.577812
H189	H	0.860863	-0.688073	1.044689
H190	H	1.360863	-0.188073	1.544689
H191	H	0.856999	-0.602719	1.107141
H192	H	1.356999	-0.102719	1.607141
H193	H	0.899731	-0.627809	0.940233
H194	H	1.399731	-0.127809	1.440233
N195	N	0.888226	-0.645667	0.575112
N196	N	1.388226	-0.145667	1.075112
H197	H	0.860800	-0.688215	0.608218
H198	H	1.360800	-0.188215	1.108218
H199	H	0.915758	-0.694303	0.545780
H200	H	1.415758	-0.194303	1.045780
H201	H	0.592318	-0.628198	0.404547
H202	H	1.092318	-0.128198	0.904547
N203	N	0.729902	-0.645977	0.415948
N204	N	1.229902	-0.145977	0.915948
H205	H	0.696791	-0.688598	0.443325
H206	H	1.196791	-0.188598	0.943325
H207	H	0.759250	-0.603274	0.447316
H208	H	1.259250	-0.103274	0.947316
N209	N	0.729857	-0.366266	0.236323
N210	N	1.229857	0.133734	0.736323
H211	H	0.696734	-0.323648	0.208951
H212	H	1.196734	0.176352	0.708951
H213	H	0.759170	-0.408959	0.204950
H214	H	1.259170	0.091041	0.704950
