data_functionalizedCrystal
_audit_creation_method	'MofGen! by Chris Wilmer'
_symmetry_space_group_name_H-M	'P1'
_symmetry_Int_Tables_number	1
_symmetry_cell_setting	triclinic
loop_
_symmetry_equiv_pos_as_xyz
  x,y,z
_cell_length_a	15.712078
_cell_length_b	10.654541
_cell_length_c	9.130307
_cell_angle_alpha	89.999822
_cell_angle_beta	90.002072
_cell_angle_gamma	77.967461
loop_
_atom_site_label
_atom_site_type_symbol
_atom_site_fract_x
_atom_site_fract_y
_atom_site_fract_z
O1	O	0.121728	-1.722214	0.121751
O2	O	0.133328	-1.361917	0.121763
O3	O	0.001413	-1.494133	0.121751
O4	O	0.253643	-1.589997	0.121763
O5	O	0.001412	-1.494127	-0.121848
O6	O	0.133327	-1.361910	-0.121836
O7	O	0.121726	-1.722207	-0.121848
Cu8	Cu	0.127527	-1.542058	-0.144085
Cu9	Cu	0.127528	-1.542066	0.143999
O10	O	0.253641	-1.589990	-0.121836
C11	C	0.132476	-1.314735	-0.000035
C12	C	0.129929	-1.174154	-0.000030
N13	N	0.127525	-1.542061	-0.346708
C14	C	-0.030884	-1.478469	-0.000047
C15	C	-0.127119	-1.431790	-0.000042
C16	C	-0.491842	-1.828110	-0.000041
C17	C	-0.582267	-1.784218	-0.000040
C18	C	-0.562968	-1.564289	-0.000031
C19	C	-0.472540	-1.608162	-0.000039
C20	C	-0.436984	-1.740074	-0.000042
C21	C	-0.417682	-1.520126	-0.000041
C22	C	-0.327262	-1.563997	-0.000042
C23	C	-0.291699	-1.695903	-0.000040
C24	C	-0.346564	-1.783944	-0.000043
C25	C	-0.453239	-1.388215	-0.000028
C26	C	-0.398381	-1.300180	-0.000030
C27	C	-0.307959	-1.344049	-0.000041
C28	C	-0.272397	-1.475955	-0.000039
C29	C	-0.253095	-1.256008	-0.000038
C30	C	-0.162674	-1.299878	-0.000039
C31	C	-0.181977	-1.519826	-0.000040
C32	C	0.285939	-1.605654	-0.000035
C33	C	0.382174	-1.652334	-0.000031
C34	C	0.122578	-1.769389	-0.000047
C35	C	0.125125	-1.909970	-0.000042
C36	C	0.287670	-1.216645	-0.000005
C37	C	0.365340	-1.171845	0.000014
C38	C	0.362941	-1.039756	0.000015
C39	C	0.282864	-0.952460	-0.000006
C40	C	0.205194	-0.997260	-0.000025
C41	C	0.207601	-1.129355	-0.000022
C42	C	0.047455	-0.954769	-0.000061
C43	C	0.049852	-1.086858	-0.000052
C44	C	-0.032622	-0.867474	-0.000083
C45	C	-0.110294	-0.912273	-0.000091
C46	C	-0.107892	-1.044372	-0.000091
C47	C	-0.027818	-1.131658	-0.000071
C48	C	0.010748	-1.659224	-0.346708
C49	C	-0.047637	-1.717815	-0.423375
C50	C	-0.047638	-1.717827	-0.576709
C51	C	0.010752	-1.659239	-0.653379
C52	C	0.069138	-1.600648	-0.576712
C53	C	0.069134	-1.600645	-0.423375
C54	C	0.185909	-1.483479	-0.576711
C55	C	0.185915	-1.483473	-0.423377
C56	C	0.244298	-1.424890	-0.653381
C57	C	0.302690	-1.366306	-0.576714
C58	C	0.302689	-1.366297	-0.423371
C59	C	0.244301	-1.424882	-0.346710
N60	N	0.127523	-1.542069	0.346622
H61	H	-0.153026	-1.627241	-0.000057
H62	H	-0.282058	-1.148605	-0.000021
O63	O	0.446710	-0.991425	0.000019
H64	H	0.449380	-0.932248	0.099298
O65	O	-0.110604	-1.781034	-0.659405
H66	H	-0.178281	-1.733976	-0.629984
O67	O	0.365665	-1.303124	-0.659400
H68	H	0.355856	-1.312978	-0.778901
H69	H	0.280918	-0.844908	-0.000023
H70	H	-0.591930	-1.456886	-0.000023
O71	O	-0.550764	-1.340890	-0.000043
H72	H	-0.578777	-1.376809	0.099229
O73	O	-0.194174	-1.743227	-0.000058
H74	H	-0.166157	-1.707320	0.099221
H75	H	-0.427343	-1.192776	-0.000022
H76	H	-0.118007	-1.228190	-0.000042
O77	O	-0.308202	-1.926221	-0.000047
H78	H	-0.361538	-1.980076	-0.000041
O79	O	0.244299	-1.424911	-0.818762
H80	H	0.229819	-1.324465	-0.859210
O81	O	-0.453483	-1.970388	-0.000040
H82	H	-0.475468	-2.014704	-0.099325
H83	H	-0.095180	-1.765514	-0.360937
O84	O	0.010755	-1.659247	-0.818760
H85	H	-0.039651	-1.709835	-0.859190
O86	O	0.365665	-1.303106	-0.340679
H87	H	0.406266	-1.262381	-0.419758
O88	O	-0.641433	-1.879185	-0.000050
H89	H	-0.683094	-1.864449	-0.099335
O90	O	0.244295	-1.424859	-0.181329
H91	H	0.193880	-1.475428	-0.140903
O92	O	0.290252	-1.359111	-0.000010
H93	H	0.324929	-1.403118	0.099280
O94	O	-0.035216	-0.725004	-0.000086
H95	H	0.032244	-0.708514	-0.000056
H96	H	0.430537	-1.242935	0.000028
H97	H	-0.175486	-0.841189	-0.000107
O98	O	-0.191665	-1.092692	-0.000112
H99	H	-0.247744	-1.009796	-0.000119
H100	H	-0.025855	-1.239215	-0.000053
O101	O	0.010752	-1.659211	-0.181327
H102	H	-0.039659	-1.709784	-0.140894
