data_functionalizedCrystal
_audit_creation_method	'MofGen! by Chris Wilmer'
_symmetry_space_group_name_H-M	'P1'
_symmetry_Int_Tables_number	1
_symmetry_cell_setting	triclinic
loop_
_symmetry_equiv_pos_as_xyz
  x,y,z
_cell_length_a	6.817900
_cell_length_b	13.563541
_cell_length_c	17.110486
_cell_angle_alpha	111.125513
_cell_angle_beta	99.060439
_cell_angle_gamma	104.704624
loop_
_atom_site_label
_atom_site_type_symbol
_atom_site_fract_x
_atom_site_fract_y
_atom_site_fract_z
V1	V	-4.002410	-0.153240	-0.280179
O2	O	-3.964091	0.007704	-0.240342
O3	O	-3.979384	-0.304176	-0.311447
O4	O	-3.931851	-0.150733	-0.387235
O5	O	-4.011954	-0.146801	-0.164029
V6	V	-4.485622	-0.134007	-0.262255
O7	O	-4.264352	-0.195429	-0.319496
O8	O	-4.673877	-0.091817	-0.222938
O9	O	-4.285441	0.016929	-0.230987
O10	O	-4.641338	-0.294950	-0.302093
O11	O	-4.593475	-0.140446	-0.378405
O12	O	-4.332974	-0.136513	-0.155199
C13	C	-3.831275	-0.340975	-0.315590
C14	C	-3.893588	-0.464367	-0.341869
C15	C	-3.956312	-0.749165	-0.112315
C16	C	-3.897752	-0.633232	-0.087623
C17	C	-3.896708	-0.591010	-0.151182
C18	C	-3.954230	-0.664732	-0.239439
C19	C	-4.012780	-0.780676	-0.264133
C20	C	-3.953176	-0.622521	-0.303000
C21	C	-4.010697	-0.696243	-0.391256
C22	C	-4.069242	-0.812175	-0.415947
C23	C	-4.070286	-0.854398	-0.352387
C24	C	-3.894626	-0.506577	-0.278306
C25	C	-3.951094	-0.538088	-0.430123
C26	C	-4.009654	-0.654021	-0.454816
C27	C	-3.770640	-0.145243	-0.412263
C28	C	-3.794401	-0.144192	-0.500000
C29	C	-3.987782	-0.149239	-0.546460
C30	C	-4.010097	-0.148251	-0.628897
C31	C	-3.839031	-0.142225	-0.664876
C32	C	-3.645633	-0.137175	-0.618409
C33	C	-3.623317	-0.138155	-0.535971
C34	C	-3.897291	-0.138982	-0.913523
C35	C	-3.919624	-0.138006	-0.995969
C36	C	-4.284086	-0.149080	-1.006451
C37	C	-4.261756	-0.150066	-0.924012
C38	C	-4.068358	-0.145010	-0.877551
C39	C	-3.861837	-0.141218	-0.749142
C40	C	-4.045550	-0.146008	-0.793284
C41	C	-4.096894	0.053723	-0.226843
C42	C	-4.013818	0.177113	-0.200569
C43	C	-4.157529	-0.142007	-0.130167
C44	C	-4.113005	-0.143052	-0.042429
H45	H	-3.849016	-0.496611	-0.131072
H46	H	-3.506346	-0.132262	-0.647708
O47	O	-4.125082	-0.883943	-0.501636
C48	C	-4.240440	-1.076519	-0.606962
C49	C	-4.177199	-0.995369	-0.509889
H50	H	-4.282635	-1.166625	-0.613667
H51	H	-4.102946	-1.057244	-0.635596
H52	H	-4.382711	-1.065758	-0.643497
H53	H	-4.034979	-1.006085	-0.473281
H54	H	-4.314811	-1.014666	-0.481322
O55	O	-3.950120	-0.497272	-0.491981
C56	C	-4.012420	-0.540755	-0.645171
C57	C	-4.013582	-0.587138	-0.575214
H58	H	-4.063765	-0.613390	-0.712482
H59	H	-3.846501	-0.482967	-0.633490
H60	H	-4.126284	-0.491560	-0.641328
H61	H	-3.899822	-0.636385	-0.579016
H62	H	-4.179571	-0.644866	-0.586917
O63	O	-4.065489	-0.725792	-0.540504
C64	C	-4.180837	-0.918372	-0.645822
C65	C	-4.117605	-0.837216	-0.548751
H66	H	-4.223031	-1.008476	-0.652523
H67	H	-4.043339	-0.899100	-0.674454
H68	H	-4.323107	-0.907615	-0.682363
H69	H	-3.975387	-0.847927	-0.512139
H70	H	-4.255221	-0.856510	-0.520186
O71	O	-4.154006	-0.155291	-0.511542
C72	C	-4.392365	-0.259377	-0.456333
C73	C	-4.204135	-0.252678	-0.495888
H74	H	-4.432924	-0.338096	-0.443648
H75	H	-4.534519	-0.262886	-0.503693
H76	H	-4.348897	-0.182049	-0.392312
H77	H	-4.247400	-0.329987	-0.559901
H78	H	-4.062033	-0.249114	-0.448470
O79	O	-3.435409	-0.133067	-0.490739
C80	C	-3.146657	-0.031204	-0.359725
C81	C	-3.359424	-0.036818	-0.410866
H82	H	-3.085181	0.046594	-0.295130
H83	H	-3.028090	-0.026660	-0.399537
H84	H	-3.169263	-0.109451	-0.346627
H85	H	-3.337021	0.041410	-0.423976
H86	H	-3.477916	-0.041418	-0.371029
H87	H	-4.167561	-0.152353	-0.666719
H88	H	-3.850925	-0.573216	-0.015765
O89	O	-3.695749	-0.135228	-0.784140
C90	C	-3.457270	-0.031076	-0.839269
C91	C	-3.645400	-0.037739	-0.799654
H92	H	-3.416477	0.047750	-0.851807
H93	H	-3.500683	-0.108313	-0.903350
H94	H	-3.315266	-0.027700	-0.791914
H95	H	-3.787482	-0.041080	-0.846942
H96	H	-3.601812	0.039496	-0.735558
O97	O	-3.957510	-0.790370	-0.050696
C98	C	-4.022509	-0.955018	-0.021459
C99	C	-4.021308	-0.908508	-0.091341
H100	H	-4.074041	-1.050536	-0.054293
H101	H	-4.137065	-0.928882	0.016852
H102	H	-3.857142	-0.920050	0.024812
H103	H	-4.186588	-0.943452	-0.137670
H104	H	-3.906638	-0.934633	-0.129587
H105	H	-4.401060	-0.154972	-0.894724
H106	H	-4.117980	-0.948799	-0.372488
O107	O	-4.471910	-0.154128	-1.051717
C108	C	-4.760786	-0.256074	-1.182684
C109	C	-4.548065	-0.250484	-1.131522
H110	H	-4.822443	-0.333984	-1.247209
H111	H	-4.738320	-0.177919	-1.195905
H112	H	-4.879157	-0.260493	-1.142778
H113	H	-4.429586	-0.246101	-1.171381
H114	H	-4.570700	-0.328638	-1.118293
O115	O	-3.753514	-0.132000	-1.030963
C116	C	-3.515054	-0.027842	-1.086094
C117	C	-3.703192	-0.034516	-1.046485
H118	H	-3.474283	0.050979	-1.098638
H119	H	-3.558446	-0.105082	-1.150171
H120	H	-3.373043	-0.024450	-1.038734
H121	H	-3.845281	-0.037872	-1.093779
H122	H	-3.659625	0.042722	-0.982393
O123	O	-3.839149	-0.435027	-0.192580
C124	C	-3.946175	-0.378048	-0.060184
C125	C	-4.009286	-0.459133	-0.157270
H126	H	-4.083680	-0.397524	-0.031602
H127	H	-3.904257	-0.287913	-0.053401
H128	H	-3.803784	-0.388730	-0.023657
H129	H	-4.151715	-0.448552	-0.193857
H130	H	-4.051069	-0.549237	-0.163987
O131	O	-3.709638	-0.134349	-0.868444
C132	C	-3.525200	-0.225926	-0.801383
C133	C	-3.737861	-0.231225	-0.852369
H134	H	-3.547937	-0.304250	-0.788386
H135	H	-3.463249	-0.148175	-0.736747
H136	H	-3.406932	-0.221457	-0.841329
H137	H	-3.856280	-0.235736	-0.812496
H138	H	-3.799636	-0.308963	-0.917009
H139	H	-4.184827	-0.150911	-0.763985
