data_functionalizedCrystal
_audit_creation_method	'MofGen! by Chris Wilmer'
_symmetry_space_group_name_H-M	'P1'
_symmetry_Int_Tables_number	1
_symmetry_cell_setting	triclinic
loop_
_symmetry_equiv_pos_as_xyz
  x,y,z
_cell_length_a	14.971491
_cell_length_b	10.723024
_cell_length_c	14.048226
_cell_angle_alpha	90.005928
_cell_angle_beta	90.003182
_cell_angle_gamma	84.042052
loop_
_atom_site_label
_atom_site_type_symbol
_atom_site_fract_x
_atom_site_fract_y
_atom_site_fract_z
O1	O	1.187811	0.162649	0.079199
O2	O	1.521144	0.495983	0.412532
O3	O	1.854477	0.829316	0.745866
O4	O	0.927516	0.182116	0.079192
O5	O	1.260849	0.515449	0.412525
O6	O	1.594182	0.848783	0.745858
O7	O	1.063667	-0.009256	0.079192
O8	O	1.397001	0.324077	0.412525
O9	O	1.730334	0.657411	0.745859
O10	O	1.051659	0.354022	0.079199
O11	O	1.384992	0.687355	0.412532
O12	O	1.718326	1.020688	0.745865
O13	O	1.063664	-0.009272	-0.079129
O14	O	1.396998	0.324062	0.254204
O15	O	1.730331	0.657395	0.587537
O16	O	0.927513	0.182100	-0.079130
O17	O	1.260846	0.515434	0.254204
O18	O	1.594179	0.848767	0.587537
O19	O	1.187808	0.162634	-0.079122
O20	O	1.521141	0.495967	0.254211
O21	O	1.854474	0.829300	0.587544
Zn22	Zn	1.057660	0.172364	-0.104263
Zn23	Zn	1.390993	0.505698	0.229070
Zn24	Zn	1.724326	0.839031	0.562404
Zn25	Zn	1.057664	0.172385	0.104332
Zn26	Zn	1.390997	0.505719	0.437666
Zn27	Zn	1.724330	0.839052	0.770999
O28	O	1.051656	0.354006	-0.079123
O29	O	1.384989	0.687339	0.254211
O30	O	1.718323	1.020672	0.587544
C31	C	0.894185	0.181237	0.000030
C32	C	1.227518	0.514570	0.333363
C33	C	1.560852	0.847903	0.666697
C34	C	0.794874	0.178624	0.000027
C35	C	1.128207	0.511958	0.333361
C36	C	1.461541	0.845291	0.666694
C37	C	0.367110	0.167360	0.086350
C38	C	0.700443	0.500694	0.419683
C39	C	1.033776	0.834027	0.753017
C40	C	0.460423	0.169811	0.086346
C41	C	0.793756	0.503144	0.419680
C42	C	1.127090	0.836478	0.753013
C43	C	0.507074	0.171036	0.000042
C44	C	0.840407	0.504369	0.333376
C45	C	1.173740	0.837703	0.666709
C46	C	0.460407	0.169797	-0.086264
C47	C	0.793741	0.503131	0.247069
C48	C	1.127074	0.836464	0.580403
C49	C	0.367096	0.167338	-0.086260
C50	C	0.700430	0.500671	0.247074
C51	C	1.033763	0.834004	0.580407
C52	C	0.654897	0.174927	-0.086268
C53	C	0.988230	0.508261	0.247066
C54	C	1.321563	0.841594	0.580399
C55	C	0.748214	0.177389	-0.086272
C56	C	1.081547	0.510723	0.247061
C57	C	1.414880	0.844056	0.580394
C58	C	0.748223	0.177401	0.086339
C59	C	1.081557	0.510734	0.419672
C60	C	1.414890	0.844067	0.753005
C61	C	0.654912	0.174941	0.086343
C62	C	0.988246	0.508274	0.419676
C63	C	1.321579	0.841608	0.753010
C64	C	0.608252	0.173705	0.000036
C65	C	0.941585	0.507038	0.333370
C66	C	1.274919	0.840371	0.666703
C67	C	1.062792	-0.055754	0.000032
C68	C	1.396125	0.277579	0.333366
C69	C	1.729459	0.610912	0.666699
C70	C	1.060177	-0.194281	0.000036
C71	C	1.393511	0.139052	0.333369
C72	C	1.726844	0.472385	0.666702
C73	C	1.136361	-0.270058	0.000039
C74	C	1.469694	0.063275	0.333372
C75	C	1.803027	0.396608	0.666706
C76	C	1.133660	-0.413233	0.000043
C77	C	1.466994	-0.079900	0.333376
C78	C	1.800327	0.253433	0.666709
C79	C	1.221138	0.163513	0.000041
C80	C	1.554472	0.496846	0.333375
C81	C	1.887805	0.830180	0.666708
C82	C	1.320449	0.166126	0.000050
C83	C	1.653783	0.499459	0.333384
C84	C	1.987116	0.832792	0.666717
C85	C	1.052531	0.400504	0.000039
C86	C	1.385865	0.733837	0.333372
C87	C	1.719198	1.067171	0.666706
C88	C	1.055146	0.539031	0.000042
C89	C	1.388479	0.872364	0.333375
C90	C	1.721813	1.205698	0.666709
N91	N	1.057667	0.172390	0.246693
N92	N	1.391000	0.505724	0.580026
N93	N	1.724333	0.839057	0.913360
N94	N	1.057664	0.172350	-0.246624
N95	N	1.390997	0.505683	0.086710
N96	N	1.724330	0.839016	0.420043
C97	C	1.118069	0.087818	0.296511
C98	C	1.451402	0.421151	0.629844
C99	C	1.784736	0.754484	0.963178
C100	C	1.118073	0.087814	0.396169
C101	C	1.451406	0.421147	0.729502
C102	C	1.784739	0.754480	1.062835
C103	C	1.057669	0.172377	0.446006
C104	C	1.391002	0.505711	0.779340
C105	C	1.724336	0.839044	1.112673
C106	C	0.997264	0.256959	0.396181
C107	C	1.330597	0.590292	0.729515
C108	C	1.663931	0.923626	1.062848
C109	C	0.997265	0.256968	0.296525
C110	C	1.330599	0.590301	0.629859
C111	C	1.663932	0.923635	0.963192
C112	C	0.997264	0.256932	0.603895
C113	C	1.330597	0.590266	0.937229
C114	C	1.663931	0.923599	1.270562
C115	C	0.997261	0.256922	0.703558
C116	C	1.330595	0.590256	1.036891
C117	C	1.663928	0.923589	1.370225
C118	C	1.118071	0.087778	0.703539
C119	C	1.451405	0.421111	1.036872
C120	C	1.784738	0.754445	1.370206
C121	C	1.118073	0.087787	0.603883
C122	C	1.451406	0.421120	0.937216
C123	C	1.784739	0.754454	1.270550
C124	C	1.057666	0.172367	0.554065
C125	C	1.391000	0.505701	0.887398
C126	C	1.724333	0.839034	1.220731
H127	H	0.498410	0.170809	0.156620
H128	H	0.831744	0.504142	0.489954
H129	H	1.165077	0.837475	0.823287
H130	H	0.616931	0.173952	0.156620
H131	H	0.950264	0.507286	0.489953
H132	H	1.283598	0.840619	0.823286
H133	H	0.992955	-0.235403	0.000040
H134	H	1.326288	0.097931	0.333373
H135	H	1.659622	0.431264	0.666707
Cl136	Cl	0.921331	0.363298	0.233898
Cl137	Cl	1.254664	0.696631	0.567231
Cl138	Cl	1.587997	1.029964	0.900564
Cl139	Cl	0.806880	0.178970	0.194838
Cl140	Cl	1.140213	0.512303	0.528172
Cl141	Cl	1.473546	0.845637	0.861505
Cl142	Cl	0.806860	0.178919	-0.194771
Cl143	Cl	1.140194	0.512253	0.138563
Cl144	Cl	1.473527	0.845586	0.471896
Cl145	Cl	0.921324	0.363239	0.766204
Cl146	Cl	1.254657	0.696572	1.099537
Cl147	Cl	1.587991	1.029906	1.432870
Cl148	Cl	1.194006	-0.018504	0.233869
Cl149	Cl	1.527339	0.314829	0.567202
Cl150	Cl	1.860672	0.648163	0.900535
H151	H	0.989924	-0.395864	0.000033
H152	H	1.323257	-0.062530	0.333366
H153	H	1.656590	0.270803	0.666699
H154	H	0.948078	0.325811	0.563337
H155	H	1.281411	0.659144	0.896670
H156	H	1.614744	0.992478	1.230003
H157	H	0.616908	0.173936	-0.156548
H158	H	0.950241	0.507269	0.176786
H159	H	1.283574	0.840603	0.510119
Cl160	Cl	0.308471	0.165829	0.194854
Cl161	Cl	0.641805	0.499163	0.528187
Cl162	Cl	0.975138	0.832496	0.861520
H163	H	1.167257	0.018949	0.436730
H164	H	1.500591	0.352282	0.770064
H165	H	1.833924	0.685616	1.103397
H166	H	0.948085	0.325819	0.436765
H167	H	1.281419	0.659152	0.770098
H168	H	1.614752	0.992485	1.103431
Cl169	Cl	1.194003	-0.018529	0.541228
Cl170	Cl	1.527336	0.314804	0.874561
Cl171	Cl	1.860670	0.648138	1.207895
H172	H	1.203583	-0.228937	0.000035
H173	H	1.536916	0.104396	0.333368
H174	H	1.870250	0.437730	0.666702
H175	H	0.498399	0.170787	-0.156535
H176	H	0.831732	0.504120	0.176799
H177	H	1.165065	0.837454	0.510132
H178	H	0.329106	0.166345	-0.156534
H179	H	0.662439	0.499679	0.176800
H180	H	0.995772	0.833012	0.510133
Cl181	Cl	1.234359	-0.513756	0.000040
Cl182	Cl	1.567692	-0.180423	0.333373
Cl183	Cl	1.901025	0.152911	0.666706
Cl184	Cl	1.194008	-0.018552	0.766171
Cl185	Cl	1.527341	0.314782	1.099504
Cl186	Cl	1.860675	0.648115	1.432837
