data_functionalizedCrystal
_audit_creation_method	'MofGen! by Chris Wilmer'
_symmetry_space_group_name_H-M	'P1'
_symmetry_Int_Tables_number	1
_symmetry_cell_setting	triclinic
loop_
_symmetry_equiv_pos_as_xyz
  x,y,z
_cell_length_a	13.032831
_cell_length_b	12.645330
_cell_length_c	13.034296
_cell_angle_alpha	82.792128
_cell_angle_beta	74.814550
_cell_angle_gamma	82.822813
loop_
_atom_site_label
_atom_site_type_symbol
_atom_site_fract_x
_atom_site_fract_y
_atom_site_fract_z
Zn1	Zn	1.700202	-0.537420	-0.806483
Zn2	Zn	1.677517	-0.734681	-0.628864
Zn3	Zn	1.500005	-0.537429	-0.606364
Zn4	Zn	1.522548	-0.694629	-0.783916
O5	O	1.600068	-0.626040	-0.706407
O6	O	1.845831	-0.580344	-0.801782
O7	O	1.635042	-0.725281	-0.477240
O8	O	1.526622	-0.389085	-0.632938
O9	O	1.829164	-0.725271	-0.671287
O10	O	1.673706	-0.389078	-0.779964
O11	O	1.504625	-0.580361	-0.460709
O12	O	1.354357	-0.541525	-0.611056
O13	O	1.565042	-0.657009	-0.935549
O14	O	1.370919	-0.657019	-0.741502
O15	O	1.695564	-0.541508	-0.952129
O16	O	1.656900	-0.877711	-0.649405
O17	O	1.543045	-0.848285	-0.763320
C18	C	1.324098	-0.594927	-0.671389
C19	C	1.206040	-0.581640	-0.656434
C20	C	1.161616	-0.632975	-0.714212
C21	C	1.039597	-0.619243	-0.698756
C22	C	1.599989	-0.901462	-0.706382
C23	C	1.600056	-1.019296	-0.706419
C24	C	1.528801	-1.168402	-0.778380
C25	C	1.528349	-1.045826	-0.778062
C26	C	1.555529	-1.073073	-0.590639
C27	C	1.555094	-1.195559	-0.591075
C28	C	1.716224	-1.195833	-0.749395
C29	C	1.715846	-1.072873	-0.751755
C30	C	1.877116	-0.657274	-0.741562
C31	C	1.995177	-0.670585	-0.756543
C32	C	1.635348	-0.594790	-0.983458
C33	C	1.650383	-0.581473	-1.101520
C34	C	1.600180	-0.349542	-0.706458
C35	C	1.600227	-0.231715	-0.706480
C36	C	1.592506	-0.632684	-1.145953
C37	C	1.608043	-0.618922	-1.267977
C38	C	1.564986	-0.657098	-0.430441
C39	C	1.550158	-0.670140	-0.312406
H40	H	1.153740	-0.527520	-0.595530
C41	C	1.732865	-0.508480	-1.172155
H42	H	1.767168	-0.478142	-1.128455
H43	H	1.697728	-0.452866	-1.210286
H44	H	1.784605	-0.549413	-1.221290
H45	H	1.604089	-1.238778	-0.534913
H46	H	1.489104	-0.724180	-1.260114
C47	C	1.510025	-0.705676	-1.075314
H48	H	1.510397	-0.705344	-1.002566
H49	H	1.527828	-0.776624	-1.095399
H50	H	1.440952	-0.680075	-1.084386
C51	C	1.767342	-1.229501	-0.862525
H52	H	1.718411	-1.265758	-0.884646
H53	H	1.830517	-1.275836	-0.862077
H54	H	1.784608	-1.167667	-0.910656
C55	C	1.622718	-1.052044	-0.515441
H56	H	1.678654	-1.010176	-0.554080
H57	H	1.652387	-1.118340	-0.487368
H58	H	1.578562	-1.014618	-0.458489
H59	H	1.558168	-1.190560	-0.864035
H60	H	1.213918	-0.687086	-0.775124
C61	C	1.760873	-1.024439	-0.866950
H62	H	1.709333	-0.971781	-0.887339
H63	H	1.777038	-1.079360	-0.913818
H64	H	1.824022	-0.992269	-0.870754
H65	H	0.987300	-0.565119	-0.637848
C66	C	1.065813	-0.743720	-0.838809
H67	H	1.138555	-0.743373	-0.838393
H68	H	1.056806	-0.718263	-0.907934
H69	H	1.045661	-0.814661	-0.820831
H70	H	1.557856	-1.008468	-0.863467
H71	H	1.443645	-1.192087	-0.749134
C72	C	1.412570	-0.996535	-0.738123
H73	H	1.365630	-1.051436	-0.722020
H74	H	1.394311	-0.945502	-0.792038
H75	H	1.406337	-0.962273	-0.675648
H76	H	1.469876	-1.217729	-0.556375
C77	C	1.441483	-1.023126	-0.543317
H78	H	1.420838	-0.969515	-0.593941
H79	H	1.439700	-0.991908	-0.480201
H80	H	1.393544	-1.077149	-0.526638
H81	H	1.773004	-1.055712	-0.704332
H82	H	1.769613	-1.238439	-0.697201
C83	C	1.690531	-0.545929	-1.338613
H84	H	1.690150	-0.546251	-1.411359
H85	H	1.759598	-0.571520	-1.329536
H86	H	1.672718	-0.474975	-1.318530
