data_functionalizedCrystal
_audit_creation_method	'MofGen! by Chris Wilmer'
_symmetry_space_group_name_H-M	'P1'
_symmetry_Int_Tables_number	1
_symmetry_cell_setting	triclinic
loop_
_symmetry_equiv_pos_as_xyz
  x,y,z
_cell_length_a	13.033291
_cell_length_b	16.625539
_cell_length_c	13.032721
_cell_angle_alpha	97.153640
_cell_angle_beta	105.184202
_cell_angle_gamma	82.790211
loop_
_atom_site_label
_atom_site_type_symbol
_atom_site_fract_x
_atom_site_fract_y
_atom_site_fract_z
Zn1	Zn	1.570218	-0.631278	-0.216819
Zn2	Zn	2.070218	-0.131278	0.283181
Zn3	Zn	1.547534	-0.511621	-0.394463
Zn4	Zn	2.047534	-0.011621	0.105537
Zn5	Zn	1.392579	-0.481233	-0.239393
Zn6	Zn	1.892579	0.018767	0.260607
Zn7	Zn	1.369997	-0.631185	-0.416925
Zn8	Zn	1.869997	-0.131185	0.083075
O9	O	1.470082	-0.563830	-0.316900
O10	O	1.970082	-0.063830	0.183100
O11	O	1.715851	-0.628161	-0.221536
O12	O	2.215851	-0.128161	0.278464
O13	O	1.526936	-0.394758	-0.373940
O14	O	2.026936	0.105242	0.126060
O15	O	1.435088	-0.488458	-0.087756
O16	O	1.935088	0.011542	0.412244
O17	O	1.699185	-0.540250	-0.352051
O18	O	2.199185	-0.040250	0.147949
O19	O	1.565598	-0.598695	-0.071171
O20	O	2.065598	-0.098695	0.428829
O21	O	1.413092	-0.372433	-0.260011
O22	O	1.913092	0.127567	0.239989
O23	O	1.240942	-0.488369	-0.281791
O24	O	1.740942	0.011631	0.218209
O25	O	1.396599	-0.744030	-0.390333
O26	O	1.896599	-0.244030	0.109667
O27	O	1.224350	-0.598538	-0.412223
O28	O	1.724350	-0.098538	0.087777
O29	O	1.543701	-0.744098	-0.243316
O30	O	2.043701	-0.244098	0.256684
O31	O	1.505039	-0.540161	-0.546086
O32	O	2.005039	-0.040161	-0.046086
O33	O	1.374603	-0.628004	-0.562588
O34	O	1.874603	-0.128004	-0.062588
C35	C	1.194104	-0.540146	-0.351895
C36	C	1.694104	-0.040146	0.148105
C37	C	1.076037	-0.530036	-0.366891
C38	C	1.576037	-0.030036	0.133109
C39	C	1.470161	-0.774138	-0.316812
C40	C	1.970161	-0.274138	0.183188
C41	C	1.470195	-0.863759	-0.316775
C42	C	1.970195	-0.363759	0.183225
C43	C	0.909607	-0.558665	-0.324590
C44	C	1.409607	-0.058665	0.175410
C45	C	1.031635	-0.569114	-0.309093
C46	C	1.531635	-0.069114	0.190907
C47	C	1.470259	-1.191928	-0.316650
C48	C	1.970259	-0.691928	0.183350
C49	C	1.470238	-1.100622	-0.316688
C50	C	1.970238	-0.600622	0.183312
C51	C	1.470227	-1.027846	-0.316713
C52	C	1.970227	-0.527846	0.183287
C53	C	1.470205	-0.936534	-0.316750
C54	C	1.970205	-0.436534	0.183250
C55	C	1.747137	-0.587606	-0.281770
C56	C	2.247137	-0.087606	0.218230
C57	C	1.865202	-0.597738	-0.266799
C58	C	2.365202	-0.097738	0.233201
C59	C	1.434938	-0.587390	-0.592874
C60	C	1.934938	-0.087390	-0.092874
C61	C	1.420000	-0.597504	-0.710925
C62	C	1.920000	-0.097504	-0.210925
C63	C	1.470074	-0.354338	-0.316903
C64	C	1.970074	0.145662	0.183097
C65	C	1.470284	-0.264710	-0.316616
C66	C	1.970284	0.235290	0.183384
C67	C	1.477935	-0.558592	-0.755349
C68	C	1.977935	-0.058592	-0.255349
C69	C	1.462497	-0.569045	-0.877360
C70	C	1.962497	-0.069045	-0.377360
C71	C	1.505392	-0.540198	-0.039845
C72	C	2.005392	-0.040198	0.460155
C73	C	1.520440	-0.530127	0.078220
C74	C	2.020440	-0.030127	0.578220
H75	H	0.857283	-0.517473	-0.385535
H76	H	1.357283	-0.017473	0.114465
O77	O	0.934495	-0.652296	-0.186055
O78	O	1.434495	-0.152296	0.313945
H79	H	0.979001	-0.701629	-0.227284
H80	H	1.479001	-0.201629	0.272716
H81	H	1.358976	-0.638560	-0.763220
H82	H	1.858976	-0.138560	-0.263220
O83	O	1.006740	-0.475466	-0.447626
O84	O	1.506740	0.024534	0.052374
H85	H	1.057833	-0.448428	-0.487592
H86	H	1.557833	0.051572	0.012408
H87	H	1.538968	-0.517542	-0.703055
H88	H	2.038968	-0.017542	-0.203055
H89	H	1.401469	-0.610104	-0.929652
H90	H	1.901469	-0.110104	-0.429652
H91	H	1.083957	-0.610301	-0.248134
H92	H	1.583957	-0.110301	0.251866
H93	H	1.581477	-0.489075	-0.869488
H94	H	2.081477	0.010925	-0.369488
