data_functionalizedCrystal
_audit_creation_method	'MofGen! by Chris Wilmer'
_symmetry_space_group_name_H-M	'P1'
_symmetry_Int_Tables_number	1
_symmetry_cell_setting	triclinic
loop_
_symmetry_equiv_pos_as_xyz
  x,y,z
_cell_length_a	27.732048
_cell_length_b	23.532355
_cell_length_c	22.610064
_cell_angle_alpha	90.008169
_cell_angle_beta	90.003306
_cell_angle_gamma	82.735077
loop_
_atom_site_label
_atom_site_type_symbol
_atom_site_fract_x
_atom_site_fract_y
_atom_site_fract_z
O1	O	0.058554	0.755162	0.049110
O2	O	0.391887	1.088496	0.382444
O3	O	0.725220	1.421829	0.715777
O4	O	0.067070	0.589276	0.049130
O5	O	0.400404	0.922610	0.382463
O6	O	0.733737	1.255943	0.715797
O7	O	-0.007578	0.677371	0.049108
O8	O	0.325756	1.010705	0.382442
O9	O	0.659089	1.344038	0.715775
O10	O	0.133202	0.667067	0.049132
O11	O	0.466535	1.000401	0.382466
O12	O	0.799868	1.333734	0.715799
O13	O	-0.007569	0.677347	-0.049261
O14	O	0.325764	1.010680	0.284073
O15	O	0.659098	1.344013	0.617406
O16	O	0.067079	0.589252	-0.049239
O17	O	0.400412	0.922585	0.284094
O18	O	0.733746	1.255918	0.617428
O19	O	0.058562	0.755137	-0.049259
O20	O	0.391896	1.088471	0.284075
O21	O	0.725229	1.421804	0.617408
Zn22	Zn	0.062822	0.672191	-0.064867
Zn23	Zn	0.396155	1.005524	0.268466
Zn24	Zn	0.729489	1.338857	0.601800
Zn25	Zn	0.062811	0.672223	0.064739
Zn26	Zn	0.396144	1.005557	0.398072
Zn27	Zn	0.729477	1.338890	0.731405
O28	O	0.133210	0.667043	-0.049237
O29	O	0.466544	1.000376	0.284096
O30	O	0.799877	1.333709	0.617430
C31	C	0.066862	0.568048	-0.000052
C32	C	0.400195	0.901381	0.333281
C33	C	0.733528	1.234715	0.666615
C34	C	0.066222	0.504831	-0.000045
C35	C	0.399555	0.838164	0.333288
C36	C	0.732888	1.171497	0.666622
C37	C	0.062205	0.112812	-0.053692
C38	C	0.395538	0.446145	0.279642
C39	C	0.728872	0.779479	0.612975
C40	C	0.061596	0.053414	-0.053694
C41	C	0.394929	0.386747	0.279639
C42	C	0.728263	0.720080	0.612973
O43	O	0.061269	0.022684	-0.099296
O44	O	0.394602	0.356018	0.234037
O45	O	0.727935	0.689351	0.567371
N46	N	0.061289	0.023720	-0.000073
N47	N	0.394623	0.357053	0.333260
N48	N	0.727956	0.690386	0.666594
C49	C	0.061587	0.053427	0.053554
C50	C	0.394920	0.386761	0.386887
C51	C	0.728253	0.720094	0.720220
O52	O	0.061270	0.022716	0.099162
O53	O	0.394603	0.356049	0.432495
O54	O	0.727936	0.689382	0.765829
C55	C	0.062192	0.112825	0.053555
C56	C	0.395526	0.446158	0.386889
C57	C	0.728859	0.779491	0.720222
C58	C	0.062504	0.142515	-0.000069
C59	C	0.395837	0.475849	0.333264
C60	C	0.729170	0.809182	0.666598
C61	C	0.062516	0.142503	-0.107311
C62	C	0.395849	0.475836	0.226022
C63	C	0.729182	0.809169	0.559355
C64	C	0.063126	0.201896	-0.107309
C65	C	0.396459	0.535230	0.226024
C66	C	0.729792	0.868563	0.559358
C67	C	0.063424	0.231600	-0.053686
C68	C	0.396758	0.564933	0.279647
C69	C	0.730091	0.898266	0.612980
C70	C	0.063114	0.201909	-0.000066
C71	C	0.396447	0.535242	0.333267
C72	C	0.729780	0.868576	0.666600
C73	C	0.062486	0.142532	0.107181
C74	C	0.395820	0.475865	0.440515
C75	C	0.729153	0.809199	0.773848
C76	C	0.063091	0.201934	0.107179
C77	C	0.396425	0.535267	0.440512
C78	C	0.729758	0.868600	0.773845
C79	C	0.063403	0.231624	0.053554
C80	C	0.396736	0.564957	0.386888
C81	C	0.730069	0.898291	0.720221
C82	C	0.064022	0.291006	0.053559
C83	C	0.397356	0.624340	0.386892
C84	C	0.730689	0.957673	0.720225
N85	N	0.064329	0.320701	-0.000062
N86	N	0.397662	0.654034	0.333271
N87	N	0.730995	0.987367	0.666605
C88	C	0.064030	0.290997	-0.053685
C89	C	0.397363	0.624331	0.279649
C90	C	0.730697	0.957664	0.612982
C91	C	0.060314	-0.071312	0.053546
C92	C	0.393648	0.262022	0.386879
C93	C	0.726981	0.595355	0.720212
C94	C	0.059712	-0.130709	0.053545
C95	C	0.393046	0.202625	0.386878
C96	C	0.726379	0.535958	0.720211
C97	C	0.059721	-0.130718	-0.053703
C98	C	0.393054	0.202616	0.279630
C99	C	0.726387	0.535949	0.612964
C100	C	0.060326	-0.071320	-0.053701
C101	C	0.393659	0.262013	0.279632
C102	C	0.726993	0.595346	0.612965
C103	C	0.060621	-0.041617	-0.000075
C104	C	0.393954	0.291716	0.333258
C105	C	0.727288	0.625049	0.666592
C106	C	0.065311	0.415729	-0.053675
C107	C	0.398644	0.749062	0.279658
C108	C	0.731978	1.082395	0.612992
C109	C	0.065923	0.475127	-0.053668
C110	C	0.399256	0.808461	0.279666
C111	C	0.732590	1.141794	0.612999
C112	C	0.065912	0.475132	0.053580
C113	C	0.399245	0.808465	0.386913
C114	C	0.732579	1.141798	0.720246
C115	C	0.065303	0.415738	0.053573
C116	C	0.398636	0.749071	0.386906
C117	C	0.731969	1.082404	0.720239
C118	C	0.065001	0.386038	-0.000059
C119	C	0.398334	0.719371	0.333274
C120	C	0.731667	1.052705	0.666607
O121	O	0.064348	0.321774	0.099138
O122	O	0.397681	0.655107	0.432471
O123	O	0.731015	0.988440	0.765804
O124	O	0.064341	0.321717	-0.099285
O125	O	0.397674	0.655050	0.234048
O126	O	0.731007	0.988384	0.567381
C127	C	-0.025580	0.677143	-0.000078
C128	C	0.307753	1.010476	0.333256
C129	C	0.641086	1.343809	0.666589
C130	C	-0.079236	0.676491	-0.000083
C131	C	0.254097	1.009825	0.333251
C132	C	0.587430	1.343158	0.666584
C133	C	-0.417985	0.724449	-0.000058
C134	C	-0.084652	1.057783	0.333275
C135	C	0.248682	1.391116	0.666609
C136	C	-0.619648	0.722033	-0.000049
C137	C	-0.286315	1.055366	0.333284
C138	C	0.047019	1.388700	0.666617
O139	O	-0.650843	0.765887	-0.000029
O140	O	-0.317510	1.099220	0.333305
O141	O	0.015823	1.432554	0.666638
N142	N	-0.638844	0.669796	-0.000044
N143	N	-0.305511	1.003130	0.333290
N144	N	0.027823	1.336463	0.666623
C145	C	-0.607621	0.618160	-0.000036
C146	C	-0.274287	0.951493	0.333297
C147	C	0.059046	1.284827	0.666630
O148	O	-0.628575	0.573674	-0.000025
O149	O	-0.295242	0.907007	0.333308
O150	O	0.038092	1.240341	0.666641
C151	C	-0.405959	0.620577	-0.000041
C152	C	-0.072625	0.953911	0.333293
C153	C	0.260708	1.287244	0.666626
C154	C	-0.386766	0.672817	-0.000052
C155	C	-0.053432	1.006151	0.333281
C156	C	0.279901	1.339484	0.666614
C157	C	-0.398792	0.776685	-0.000069
C158	C	-0.065458	1.110019	0.333264
C159	C	0.267875	1.443352	0.666598
C160	C	-0.348379	0.777289	-0.000074
C161	C	-0.015046	1.110622	0.333259
C162	C	0.318288	1.443955	0.666592
C163	C	-0.317160	0.725657	-0.000069
C164	C	0.016174	1.058990	0.333265
C165	C	0.349507	1.392323	0.666598
C166	C	-0.336353	0.673421	-0.000058
C167	C	-0.003020	1.006754	0.333276
C168	C	0.330314	1.340087	0.666609
C169	C	-0.374736	0.568942	-0.000029
C170	C	-0.041403	0.902275	0.333304
C171	C	0.291930	1.235608	0.666638
C172	C	-0.324318	0.569551	-0.000029
C173	C	0.009015	0.902884	0.333305
C174	C	0.342349	1.236217	0.666638
C175	C	-0.305125	0.621791	-0.000040
C176	C	0.028208	0.955124	0.333293
C177	C	0.361541	1.288457	0.666626
C178	C	-0.254721	0.622392	-0.000057
C179	C	0.078613	0.955725	0.333276
C180	C	0.411946	1.289059	0.666609
N181	N	-0.235525	0.674629	-0.000063
N182	N	0.097808	1.007962	0.333270
N183	N	0.431142	1.341295	0.666604
C184	C	-0.266744	0.726261	-0.000069
C185	C	0.066589	1.059594	0.333265
C186	C	0.399922	1.392928	0.666598
C187	C	-0.713496	0.616895	-0.000035
C188	C	-0.380163	0.950228	0.333298
C189	C	-0.046830	1.283561	0.666631
C190	C	-0.763912	0.616290	-0.000035
C191	C	-0.430578	0.949624	0.333298
C192	C	-0.097245	1.282957	0.666631
C193	C	-0.775936	0.720163	-0.000047
C194	C	-0.442602	1.053497	0.333286
C195	C	-0.109269	1.386830	0.666620
C196	C	-0.725520	0.720767	-0.000051
C197	C	-0.392186	1.054101	0.333282
C198	C	-0.058853	1.387434	0.666615
C199	C	-0.694301	0.669131	-0.000041
C200	C	-0.360967	1.002465	0.333292
C201	C	-0.027634	1.335798	0.666626
C202	C	-0.160873	0.727525	-0.000080
C203	C	0.172460	1.060858	0.333253
C204	C	0.505793	1.394191	0.666586
C205	C	-0.110456	0.728124	-0.000088
C206	C	0.222878	1.061457	0.333245
C207	C	0.556211	1.394790	0.666578
C208	C	-0.098436	0.624251	-0.000073
C209	C	0.234897	0.957584	0.333260
C210	C	0.568231	1.290918	0.666594
C211	C	-0.148849	0.623652	-0.000068
C212	C	0.184484	0.956985	0.333265
C213	C	0.517817	1.290318	0.666598
C214	C	-0.180067	0.675293	-0.000070
C215	C	0.153266	1.008626	0.333263
C216	C	0.486599	1.341960	0.666597
O217	O	-0.223497	0.578561	-0.000071
O218	O	0.109836	0.911895	0.333262
O219	O	0.443169	1.245228	0.666595
O220	O	-0.245780	0.770740	-0.000067
O221	O	0.087553	1.104074	0.333267
O222	O	0.420886	1.437407	0.666600
C223	C	-0.468398	0.723846	-0.000053
C224	C	-0.135065	1.057179	0.333281
C225	C	0.198269	1.390513	0.666614
C226	C	-0.487591	0.671610	-0.000042
C227	C	-0.154258	1.004943	0.333292
C228	C	0.179075	1.338277	0.666625
C229	C	-0.456372	0.619978	-0.000036
C230	C	-0.123039	0.953311	0.333297
C231	C	0.210295	1.286645	0.666631
C232	C	-0.538007	0.671006	-0.000042
C233	C	-0.204673	1.004339	0.333292
C234	C	0.128660	1.337672	0.666625
C235	C	-0.569226	0.722638	-0.000047
C236	C	-0.235893	1.055971	0.333286
C237	C	0.097441	1.389305	0.666620
C238	C	-0.550030	0.774875	-0.000053
C239	C	-0.216697	1.108208	0.333281
C240	C	0.116637	1.441541	0.666614
C241	C	-0.499617	0.775478	-0.000058
C242	C	-0.166284	1.108811	0.333275
C243	C	0.167049	1.442145	0.666609
C244	C	-0.475568	0.567741	-0.000030
C245	C	-0.142234	0.901075	0.333303
C246	C	0.191099	1.234408	0.666636
C247	C	-0.525981	0.567142	-0.000026
C248	C	-0.192648	0.900475	0.333308
C249	C	0.140686	1.233809	0.666641
C250	C	-0.557200	0.618774	-0.000031
C251	C	-0.223867	0.952107	0.333302
C252	C	0.109466	1.285441	0.666635
C253	C	0.151213	0.667271	-0.000050
C254	C	0.484547	1.000605	0.333284
C255	C	0.817880	1.333938	0.666617
C256	C	0.204869	0.667923	-0.000041
C257	C	0.538202	1.001256	0.333292
C258	C	0.871536	1.334589	0.666626
C259	C	0.058771	0.776366	-0.000075
C260	C	0.392104	1.109699	0.333258
C261	C	0.725438	1.443033	0.666591
C262	C	0.059411	0.839583	-0.000078
C263	C	0.392744	1.172917	0.333255
C264	C	0.726078	1.506250	0.666588
N265	N	0.062829	0.672173	-0.153320
N266	N	0.396163	1.005506	0.180014
N267	N	0.729496	1.338839	0.513347
C268	C	0.033644	0.637927	-0.438162
C269	C	0.366977	0.971260	-0.104828
C270	C	0.700311	1.304593	0.228505
C271	C	0.033646	0.637921	-0.376242
C272	C	0.366980	0.971254	-0.042908
C273	C	0.700313	1.304588	0.290425
O274	O	0.008834	0.608780	-0.344218
O275	O	0.342167	0.942114	-0.010885
O276	O	0.675500	1.275447	0.322449
N277	N	0.062814	0.672196	-0.345272
N278	N	0.396147	1.005530	-0.011939
N279	N	0.729480	1.338863	0.321395
C280	C	0.091977	0.706484	-0.376225
C281	C	0.425310	1.039817	-0.042892
C282	C	0.758644	1.373150	0.290442
O283	O	0.116786	0.735637	-0.344197
O284	O	0.450119	1.068971	-0.010864
O285	O	0.783453	1.402304	0.322470
C286	C	0.091972	0.706492	-0.438144
C287	C	0.425305	1.039825	-0.104810
C288	C	0.758638	1.373158	0.228523
C289	C	0.062806	0.672210	-0.469111
C290	C	0.396139	1.005543	-0.135777
C291	C	0.729473	1.338877	0.197556
C292	C	0.004480	0.603648	-0.469129
C293	C	0.337814	0.936981	-0.135795
C294	C	0.671147	1.270315	0.197538
C295	C	0.004479	0.603653	-0.531044
C296	C	0.337812	0.936986	-0.197711
C297	C	0.671145	1.270319	0.135623
C298	C	0.033641	0.637936	-0.561993
C299	C	0.366974	0.971269	-0.228660
C300	C	0.700308	1.304603	0.104674
C301	C	0.062805	0.672215	-0.531026
C302	C	0.396138	1.005548	-0.197693
C303	C	0.729471	1.338881	0.135640
C304	C	0.121132	0.740782	-0.469096
C305	C	0.454465	1.074115	-0.135763
C306	C	0.787799	1.407449	0.197571
C307	C	0.121124	0.740787	-0.531019
C308	C	0.454457	1.074121	-0.197686
C309	C	0.787791	1.407454	0.135648
C310	C	0.091958	0.706505	-0.561986
C311	C	0.425292	1.039839	-0.228652
C312	C	0.758625	1.373172	0.104681
C313	C	0.091965	0.706503	-0.623891
C314	C	0.425298	1.039836	-0.290557
C315	C	0.758632	1.373170	0.042776
N316	N	0.062798	0.672228	-0.654861
N317	N	0.396131	1.005561	-0.321527
N318	N	0.729464	1.338894	0.011806
C319	C	0.033636	0.637944	-0.623912
C320	C	0.366969	0.971278	-0.290578
C321	C	0.700302	1.304611	0.042755
C322	C	0.091985	0.706465	-0.246191
C323	C	0.425319	1.039798	0.087142
C324	C	0.758652	1.373131	0.420475
C325	C	0.091994	0.706454	-0.184274
C326	C	0.425327	1.039787	0.149060
C327	C	0.758660	1.373121	0.482393
C328	C	0.033662	0.637892	-0.184295
C329	C	0.366995	0.971225	0.149039
C330	C	0.700329	1.304559	0.482372
C331	C	0.033657	0.637900	-0.246214
C332	C	0.366990	0.971233	0.087120
C333	C	0.700323	1.304567	0.420453
C334	C	0.062818	0.672189	-0.277161
C335	C	0.396151	1.005523	0.056172
C336	C	0.729485	1.338856	0.389505
C337	C	0.033635	0.637957	-0.753939
C338	C	0.366968	0.971290	-0.420606
C339	C	0.700302	1.304623	-0.087272
C340	C	0.033637	0.637963	-0.815860
C341	C	0.366971	0.971296	-0.482527
C342	C	0.700304	1.304629	-0.149194
C343	C	0.091967	0.706527	-0.815834
C344	C	0.425300	1.039860	-0.482500
C345	C	0.758633	1.373193	-0.149167
C346	C	0.091966	0.706518	-0.753918
C347	C	0.425300	1.039852	-0.420585
C348	C	0.758633	1.373185	-0.087251
C349	C	0.062797	0.672232	-0.722972
C350	C	0.396130	1.005565	-0.389639
C351	C	0.729463	1.338899	-0.056306
O352	O	0.116764	0.735631	-0.655954
O353	O	0.450097	1.068964	-0.322620
O354	O	0.783430	1.402297	0.010713
O355	O	0.008826	0.608801	-0.655947
O356	O	0.342159	0.942134	-0.322614
O357	O	0.675493	1.275468	0.010719
N358	N	0.062800	0.672246	0.153191
N359	N	0.396133	1.005579	0.486524
N360	N	0.729466	1.338913	0.819858
H361	H	0.062271	0.118325	-0.150980
H362	H	0.395605	0.451658	0.182354
H363	H	0.728938	0.784991	0.515687
H364	H	-0.424206	0.818733	-0.000071
H365	H	-0.090873	1.152066	0.333262
H366	H	0.242460	1.485400	0.666595
H367	H	-0.332757	0.819828	-0.000081
H368	H	0.000576	1.153161	0.333252
H369	H	0.333909	1.486495	0.666585
H370	H	-0.801363	0.762204	-0.000052
H371	H	-0.468030	1.095538	0.333281
H372	H	-0.134697	1.428871	0.666615
C373	C	-0.547086	0.509670	-0.000013
C374	C	-0.213753	0.843003	0.333320
C375	C	0.119580	1.176336	0.666653
N376	N	-0.562982	0.466383	0.000002
N377	N	-0.229648	0.799716	0.333335
N378	N	0.103685	1.133049	0.666668
H379	H	0.144870	0.768711	-0.556213
H380	H	0.478204	1.102045	-0.222880
H381	H	0.811537	1.435378	0.110453
H382	H	-0.390354	0.526402	-0.000016
H383	H	-0.057020	0.859736	0.333317
H384	H	0.276313	1.193069	0.666651
H385	H	0.060580	-0.047150	-0.097367
H386	H	0.393914	0.286183	0.235966
H387	H	0.727247	0.619516	0.569300
H388	H	-0.186286	0.769576	-0.000079
H389	H	0.147048	1.102910	0.333254
H390	H	0.480381	1.436243	0.666587
H391	H	-0.164477	0.581114	-0.000075
H392	H	0.168857	0.914447	0.333258
H393	H	0.502190	1.247780	0.666591
C394	C	-0.289980	0.512745	-0.000019
C395	C	0.043354	0.846079	0.333314
C396	C	0.376687	1.179412	0.666648
N397	N	-0.264117	0.469960	-0.000014
N398	N	0.069216	0.803293	0.333319
N399	N	0.402550	1.136626	0.666653
C400	C	0.063417	0.234603	0.166173
C401	C	0.396751	0.567936	0.499507
C402	C	0.730084	0.901270	0.832840
N403	N	0.063664	0.259208	0.210608
N404	N	0.396998	0.592541	0.543942
N405	N	0.730331	0.925875	0.877275
C406	C	0.124082	0.744162	-0.150217
C407	C	0.457415	1.077496	0.183116
C408	C	0.790748	1.410829	0.516449
N409	N	0.148249	0.772569	-0.124568
N410	N	0.481582	1.105902	0.208765
N411	N	0.814916	1.439235	0.542098
H412	H	0.065069	0.391553	-0.097347
H413	H	0.398403	0.724887	0.235986
H414	H	0.731736	1.058220	0.569319
H415	H	0.009887	0.610044	-0.841071
H416	H	0.343221	0.943377	-0.507737
H417	H	0.676554	1.276710	-0.174404
H418	H	0.059476	-0.154913	-0.097366
H419	H	0.392810	0.178420	0.235968
H420	H	0.726143	0.511754	0.569301
H421	H	-0.073008	0.582213	-0.000071
H422	H	0.260325	0.915547	0.333263
H423	H	0.593658	1.248880	0.666596
C424	C	0.059374	-0.163362	0.112536
C425	C	0.392707	0.169971	0.445869
C426	C	0.726040	0.503305	0.779202
N427	N	0.059115	-0.187954	0.156970
N428	N	0.392448	0.145379	0.490303
N429	N	0.725782	0.478713	0.823636
C430	C	-0.704413	0.778235	-0.000059
C431	C	-0.371079	1.111568	0.333274
C432	C	-0.037746	1.444901	0.666608
N433	N	-0.688518	0.821522	-0.000063
N434	N	-0.355184	1.154855	0.333271
N435	N	-0.021851	1.488188	0.666604
C436	C	0.066263	0.507784	-0.112661
C437	C	0.399597	0.841117	0.220672
C438	C	0.732930	1.174450	0.554006
N439	N	0.066518	0.532379	-0.157094
N440	N	0.399851	0.865712	0.176240
N441	N	0.733185	1.199045	0.509573
C442	C	0.060645	-0.038645	0.112543
C443	C	0.393978	0.294689	0.445876
C444	C	0.727311	0.628022	0.779210
N445	N	0.060893	-0.014043	0.156979
N446	N	0.394226	0.319290	0.490313
N447	N	0.727559	0.652624	0.823646
C448	C	0.062136	0.109887	0.166174
C449	C	0.395469	0.443220	0.499507
C450	C	0.728802	0.776554	0.832840
N451	N	0.061868	0.085300	0.210610
N452	N	0.395201	0.418634	0.543943
N453	N	0.728535	0.751967	0.877277
C454	C	0.001570	0.600191	-0.280271
C455	C	0.334903	0.933524	0.053062
C456	C	0.668236	1.266858	0.386395
N457	N	-0.022601	0.571788	-0.305920
N458	N	0.310733	0.905122	0.027413
N459	N	0.644066	1.238455	0.360746
C460	C	0.064966	0.383076	0.112562
C461	C	0.398299	0.716410	0.445895
C462	C	0.731632	1.049743	0.779228
N463	N	0.064707	0.358481	0.156994
N464	N	0.398041	0.691814	0.490327
N465	N	0.731374	1.025147	0.823660
H466	H	-0.483996	0.818017	-0.000067
H467	H	-0.150662	1.151351	0.333266
H468	H	0.182671	1.484684	0.666599
H469	H	-0.094832	0.770666	-0.000099
H470	H	0.238501	1.103999	0.333234
H471	H	0.571835	1.437332	0.666567
C472	C	0.066238	0.507817	0.112562
C473	C	0.399571	0.841151	0.445895
C474	C	0.732904	1.174484	0.779228
N475	N	0.066478	0.532439	0.156987
N476	N	0.399812	0.865772	0.490321
N477	N	0.733145	1.199105	0.823654
H478	H	-0.779534	0.573751	-0.000036
H479	H	-0.446200	0.907085	0.333297
H480	H	-0.112867	1.240418	0.666631
H481	H	-0.688082	0.574844	-0.000027
H482	H	-0.354748	0.908177	0.333307
H483	H	-0.021415	1.241511	0.666640
H484	H	0.115736	0.734385	-0.271385
H485	H	0.449070	1.067719	0.061948
H486	H	0.782403	1.401052	0.395281
C487	C	0.153213	0.778501	-0.435046
C488	C	0.486546	1.111834	-0.101713
C489	C	0.819880	1.445167	0.231620
N490	N	0.177376	0.806915	-0.409401
N491	N	0.510710	1.140248	-0.076068
N492	N	0.844043	1.473581	0.257266
C493	C	0.124042	0.744238	-0.849889
C494	C	0.457375	1.077572	-0.516556
C495	C	0.790709	1.410905	-0.183223
N496	N	0.148198	0.772647	-0.875542
N497	N	0.481531	1.105980	-0.542208
N498	N	0.814865	1.439314	-0.208875
C499	C	-0.584381	0.831670	-0.000058
C500	C	-0.251048	1.165003	0.333275
C501	C	0.082285	1.498337	0.666609
N502	N	-0.610257	0.874446	-0.000058
N503	N	-0.276923	1.207779	0.333275
N504	N	0.056410	1.541113	0.666609
H505	H	-0.450153	0.525695	-0.000024
H506	H	-0.116820	0.859028	0.333309
H507	H	0.216513	1.192362	0.666642
C508	C	0.001550	0.600236	-0.719908
C509	C	0.334883	0.933569	-0.386574
C510	C	0.668216	1.266903	-0.053241
N511	N	-0.022614	0.571821	-0.694276
N512	N	0.310719	0.905155	-0.360942
N513	N	0.644052	1.238488	-0.027609
H514	H	-0.019273	0.575739	-0.556252
H515	H	0.314061	0.909072	-0.222918
H516	H	0.647394	1.242406	0.110415
C517	C	-0.027601	0.565927	-0.435095
C518	C	0.305732	0.899261	-0.101761
C519	C	0.639066	1.232594	0.231572
N520	N	-0.051763	0.537510	-0.409464
N521	N	0.281570	0.870843	-0.076131
N522	N	0.614903	1.204176	0.257202
H523	H	0.009917	0.609976	-0.159085
H524	H	0.343250	0.943310	0.174248
H525	H	0.676583	1.276643	0.507582
H526	H	0.063376	0.226066	-0.150975
H527	H	0.396710	0.559399	0.182358
H528	H	0.730043	0.892732	0.515691
C529	C	0.124053	0.744226	-0.719854
C530	C	0.457386	1.077559	-0.386520
C531	C	0.790720	1.410893	-0.053187
N532	N	0.148218	0.772633	-0.694200
N533	N	0.481551	1.105966	-0.360867
N534	N	0.814885	1.439299	-0.027534
