data_functionalizedCrystal
_audit_creation_method	'MofGen! by Chris Wilmer'
_symmetry_space_group_name_H-M	'P1'
_symmetry_Int_Tables_number	1
_symmetry_cell_setting	triclinic
loop_
_symmetry_equiv_pos_as_xyz
  x,y,z
_cell_length_a	13.897447
_cell_length_b	13.897449
_cell_length_c	18.215399
_cell_angle_alpha	90.023868
_cell_angle_beta	89.974944
_cell_angle_gamma	89.980542
loop_
_atom_site_label
_atom_site_type_symbol
_atom_site_fract_x
_atom_site_fract_y
_atom_site_fract_z
Zn1	Zn	-0.384027	-1.474669	-0.416210
Zn2	Zn	0.115973	-0.974669	0.083790
Zn3	Zn	-0.545336	-1.474564	-0.293150
Zn4	Zn	-0.045336	-0.974564	0.206850
Zn5	Zn	-0.384057	-1.313365	-0.293149
Zn6	Zn	0.115943	-0.813365	0.206851
Zn7	Zn	-0.545281	-1.313335	-0.416166
Zn8	Zn	-0.045281	-0.813335	0.083834
O9	O	-0.464675	-1.393983	-0.354669
O10	O	0.035325	-0.893983	0.145331
O11	O	-0.405435	-1.609637	-0.399905
O12	O	0.094565	-1.109637	0.100095
O13	O	-0.523978	-1.453149	-0.190165
O14	O	-0.023978	-0.953149	0.309835
O15	O	-0.249071	-1.334818	-0.309491
O16	O	0.250929	-0.834818	0.190509
O17	O	-0.523949	-1.609560	-0.309493
O18	O	-0.023949	-1.109560	0.190507
O19	O	-0.249049	-1.453328	-0.399903
O20	O	0.250951	-0.953328	0.100097
O21	O	-0.405486	-1.334717	-0.190164
O22	O	0.094514	-0.834717	0.309836
O23	O	-0.405433	-1.178379	-0.309448
O24	O	0.094567	-0.678379	0.190552
O25	O	-0.523855	-1.334768	-0.519156
O26	O	-0.023855	-0.834768	-0.019156
O27	O	-0.523884	-1.178357	-0.399829
O28	O	-0.023884	-0.678357	0.100171
O29	O	-0.405382	-1.453300	-0.519188
O30	O	0.094618	-0.953300	-0.019188
O31	O	-0.680311	-1.453121	-0.309450
O32	O	-0.180311	-0.953121	0.190550
O33	O	-0.680270	-1.334666	-0.399830
O34	O	-0.180270	-0.834666	0.100170
C35	C	-0.464656	-1.143369	-0.354634
C36	C	0.035344	-0.643369	0.145366
C37	C	-0.464672	-1.036155	-0.354637
C38	C	0.035328	-0.536155	0.145363
C39	C	-0.715290	-1.393905	-0.354652
C40	C	-0.215290	-0.893905	0.145348
C41	C	-0.822503	-1.393960	-0.354669
C42	C	-0.322503	-0.893960	0.145331
C43	C	-0.464673	-0.949085	-0.354646
C44	C	0.035327	-0.449085	0.145354
C45	C	-0.464679	-0.839853	-0.354664
C46	C	0.035321	-0.339853	0.145336
C47	C	-0.909573	-1.394006	-0.354686
C48	C	-0.409573	-0.894006	0.145314
C49	C	-1.018806	-1.394074	-0.354705
C50	C	-0.518806	-0.894074	0.145295
C51	C	-0.213082	-1.394088	-0.354702
C52	C	0.286918	-0.894088	0.145298
C53	C	-0.105868	-1.394133	-0.354716
C54	C	0.394132	-0.894133	0.145284
C55	C	-0.464609	-1.394042	-0.546622
C56	C	0.035391	-0.894042	-0.046622
C57	C	-0.464580	-1.394067	-0.628421
C58	C	0.035420	-0.894067	-0.128421
C59	C	-0.464691	-0.645576	-0.354695
C60	C	0.035309	-0.145576	0.145305
C61	C	-0.464687	-0.752790	-0.354683
C62	C	0.035313	-0.252790	0.145317
C63	C	-0.402834	-1.455809	-0.816633
C64	C	0.097166	-0.955809	-0.316633
C65	C	-0.402806	-1.455820	-0.893491
C66	C	0.097194	-0.955820	-0.393491
C67	C	-0.526178	-1.332394	-0.893447
C68	C	-0.026178	-0.832394	-0.393447
C69	C	-0.526200	-1.332378	-0.816589
C70	C	-0.026200	-0.832378	-0.316589
C71	C	-0.464530	-1.394091	-0.778184
C72	C	0.035470	-0.894091	-0.278184
C73	C	-0.464479	-1.394118	-0.931900
C74	C	0.035521	-0.894118	-0.431900
C75	C	-0.464449	-1.394130	-1.015234
C76	C	0.035551	-0.894130	-0.515234
C77	C	-0.464558	-1.394078	-0.694845
C78	C	0.035442	-0.894078	-0.194845
C79	C	-0.464672	-1.393980	-0.163462
C80	C	0.035328	-0.893980	0.336538
C81	C	-0.464428	-1.394142	-0.081664
C82	C	0.035572	-0.894142	0.418336
H83	H	-0.352565	-1.506075	-0.924793
H84	H	0.147435	-1.006075	-0.424793
H85	H	-0.576440	-1.282113	-0.785284
H86	H	-0.076440	-0.782113	-0.285284
H87	H	-0.352615	-1.506057	-0.785365
H88	H	0.147385	-1.006057	-0.285365
C89	C	-0.594020	-1.264520	-0.935694
C90	C	-0.094020	-0.764520	-0.435694
C91	C	-0.594004	-1.264537	-1.020234
C92	C	-0.094004	-0.764537	-0.520234
C93	C	-0.661850	-1.196664	-1.062480
C94	C	-0.161850	-0.696664	-0.562480
C95	C	-0.729714	-1.128773	-1.020185
C96	C	-0.229714	-0.628773	-0.520185
C97	C	-0.729733	-1.128753	-0.935640
C98	C	-0.229733	-0.628753	-0.435640
C99	C	-0.661886	-1.196626	-0.893395
C100	C	-0.161886	-0.696626	-0.393395
H101	H	-0.543765	-1.314796	-1.051547
H102	H	-0.043765	-0.814796	-0.551547
H103	H	-0.661836	-1.196679	-1.125065
H104	H	-0.161836	-0.696679	-0.625065
H105	H	-0.779938	-1.078529	-1.051458
H106	H	-0.279938	-0.578529	-0.551458
H107	H	-0.779972	-1.078494	-0.904327
H108	H	-0.279972	-0.578494	-0.404327
H109	H	-0.661901	-1.196611	-0.830809
H110	H	-0.161901	-0.696611	-0.330809
