data_functionalizedCrystal
_audit_creation_method	'MofGen! by Chris Wilmer'
_symmetry_space_group_name_H-M	'P1'
_symmetry_Int_Tables_number	1
_symmetry_cell_setting	triclinic
loop_
_symmetry_equiv_pos_as_xyz
  x,y,z
_cell_length_a	14.519709
_cell_length_b	19.288864
_cell_length_c	18.366186
_cell_angle_alpha	89.976766
_cell_angle_beta	89.994197
_cell_angle_gamma	83.408195
loop_
_atom_site_label
_atom_site_type_symbol
_atom_site_fract_x
_atom_site_fract_y
_atom_site_fract_z
O1	O	0.115043	0.921767	-0.060785
O2	O	0.130562	0.719562	-0.060735
O3	O	-0.011470	0.826026	-0.060755
O4	O	0.257075	0.815304	-0.060765
O5	O	-0.011473	0.826007	0.060345
O6	O	0.130559	0.719543	0.060364
O7	O	0.115040	0.921748	0.060315
Zn8	Zn	0.122799	0.820643	0.079567
Zn9	Zn	0.122803	0.820668	-0.079987
O10	O	0.257072	0.815285	0.060334
C11	C	0.130061	0.693675	-0.000179
C12	C	0.128562	0.616566	-0.000160
C13	C	0.211900	0.572169	-0.000175
C14	C	0.210492	0.499717	-0.000183
C15	C	0.125741	0.471665	-0.000191
C16	C	0.042392	0.516071	-0.000172
C17	C	0.043803	0.588521	-0.000156
C18	C	0.059118	0.363170	-0.042639
C19	C	0.057711	0.290720	-0.042659
C20	C	0.121387	0.248203	-0.000234
C21	C	0.186485	0.278144	0.042200
C22	C	0.187896	0.350594	0.042215
C23	C	0.124202	0.393105	-0.000207
C24	C	0.203203	0.125246	-0.000257
C25	C	0.201792	0.052792	-0.000260
C26	C	0.033689	0.069148	-0.000257
C27	C	0.035103	0.141599	-0.000246
C28	C	0.119863	0.169644	-0.000249
C29	C	-0.045828	0.825517	-0.000205
C30	C	-0.148200	0.824019	-0.000204
C31	C	-0.523061	0.818507	-0.000222
C32	C	-0.418762	0.820037	-0.000216
C33	C	-0.335633	0.821263	-0.000212
C34	C	-0.231329	0.822794	-0.000208
C35	C	0.291430	0.815794	-0.000217
C36	C	0.393802	0.817291	-0.000223
C37	C	0.115541	0.947636	-0.000243
C38	C	0.117040	1.024745	-0.000267
N39	N	0.122796	0.820631	0.188458
C40	C	0.178592	0.862819	0.226539
C41	C	0.178590	0.862830	0.302767
C42	C	0.122802	0.820639	0.340910
C43	C	0.066995	0.778449	0.302820
C44	C	0.066992	0.778444	0.226594
C45	C	0.120471	0.758019	0.461707
C46	C	0.120480	0.758022	0.537932
C47	C	0.122807	0.820654	0.576018
C48	C	0.125143	0.883284	0.537870
C49	C	0.125140	0.883280	0.461643
C50	C	0.122799	0.820640	0.423565
C51	C	0.178604	0.862857	0.696754
C52	C	0.178595	0.862870	0.772983
C53	C	0.067006	0.778482	0.773035
C54	C	0.067009	0.778476	0.696808
C55	C	0.122813	0.820663	0.658671
N56	N	0.122806	0.820680	0.811122
H57	H	0.269658	0.016645	-0.000268
F58	F	0.117934	0.691359	0.421180
F59	F	0.257173	0.382457	0.087378
H60	H	0.021581	0.744131	0.804091
H61	H	0.272220	0.148080	-0.000249
F62	F	-0.008659	0.408413	-0.087795
H63	H	0.021577	0.744119	0.665802
H64	H	0.021571	0.744098	0.333882
F65	F	0.007607	0.733537	0.186064
H66	H	0.280918	0.594998	-0.000179
F67	F	0.299195	0.452459	-0.000196
F68	F	-0.044901	0.635773	-0.000141
H69	H	-0.026613	0.493226	-0.000188
H70	H	0.224028	0.897185	0.333778
F71	F	0.254259	0.232900	0.087354
F72	F	-0.053598	0.188851	-0.000234
F73	F	0.118003	0.691365	0.578525
F74	F	-0.056510	0.039297	-0.000258
H75	H	0.004708	0.266348	-0.077214
F76	F	0.237998	0.907707	0.185956
F77	F	0.127625	0.949933	0.421046
H78	H	0.127042	0.934285	0.568877
F79	F	0.237978	0.907767	0.656164
F80	F	0.237980	0.907778	0.813512
