data_functionalizedCrystal
_audit_creation_method	'MofGen! by Chris Wilmer'
_symmetry_space_group_name_H-M	'P1'
_symmetry_Int_Tables_number	1
_symmetry_cell_setting	triclinic
loop_
_symmetry_equiv_pos_as_xyz
  x,y,z
_cell_length_a	13.032831
_cell_length_b	12.759394
_cell_length_c	13.032268
_cell_angle_alpha	82.850556
_cell_angle_beta	89.113023
_cell_angle_gamma	82.819699
loop_
_atom_site_label
_atom_site_type_symbol
_atom_site_fract_x
_atom_site_fract_y
_atom_site_fract_z
Zn1	Zn	1.498516	-0.709531	0.780836
Zn2	Zn	1.520266	-0.866066	0.608856
Zn3	Zn	1.348372	-0.665642	0.587076
Zn4	Zn	1.326514	-0.860386	0.758981
O5	O	1.423417	-0.775406	0.683937
O6	O	1.645323	-0.751041	0.776283
O7	O	1.515714	-0.823489	0.462050
O8	O	1.368334	-0.524452	0.612811
O9	O	1.661303	-0.866047	0.649930
O10	O	1.478644	-0.556698	0.755165
O11	O	1.389424	-0.676238	0.446049
O12	O	1.201551	-0.670730	0.591619
O13	O	1.331080	-0.856365	0.905797
O14	O	1.185492	-0.813807	0.717916
O15	O	1.457449	-0.745533	0.921853
O16	O	1.494519	-1.012324	0.628738
O17	O	1.352170	-1.008150	0.739035
C18	C	1.156204	-0.736890	0.650033
C19	C	1.041886	-0.720441	0.635554
C20	C	0.983013	-0.783991	0.691494
C21	C	0.864859	-0.766992	0.676530
C22	C	1.423358	-1.048362	0.683904
C23	C	1.423423	-1.165151	0.683937
C24	C	1.571737	-1.169469	0.569196
C25	C	1.645919	-1.226494	0.511841
C26	C	1.645976	-1.336227	0.511877
C27	C	1.571844	-1.388938	0.569276
C28	C	1.497662	-1.331913	0.626631
C29	C	1.497612	-1.222177	0.626586
C30	C	1.349354	-1.327597	0.741376
C31	C	1.349291	-1.217862	0.741336
C32	C	1.275223	-1.380309	0.798775
C33	C	1.201034	-1.323282	0.856125
C34	C	1.200980	-1.213542	0.856086
C35	C	1.275109	-1.160838	0.798690
C36	C	1.691673	-0.814073	0.717974
C37	C	1.805988	-0.830551	0.732478
C38	C	1.389400	-0.805211	0.952184
C39	C	1.374904	-0.817912	1.066495
C40	C	1.423501	-0.501391	0.683996
C41	C	1.423537	-0.384622	0.684021
C42	C	1.457360	-0.745650	0.416741
C43	C	1.472056	-0.732682	0.302456
C44	C	1.430966	-0.768737	1.125403
C45	C	1.415986	-0.781863	1.243550
H46	H	0.843051	-0.897544	0.791460
H47	H	1.706386	-1.382658	0.465180
H48	H	1.004816	-0.653444	0.576587
H49	H	1.020082	-0.850981	0.750469
C50	C	0.815259	-0.677759	0.597894
C51	C	0.707933	-0.678668	0.598652
C52	C	0.662209	-0.596499	0.526213
H53	H	0.830782	-0.611312	0.615178
H54	H	0.841512	-0.687866	0.530948
H55	H	0.681689	-0.668554	0.665583
H56	H	0.692381	-0.745096	0.581357
H57	H	0.688462	-0.606605	0.459267
H58	H	0.677739	-0.530058	0.543503
H59	H	0.589385	-0.597111	0.526711
H60	H	1.571905	-1.478291	0.569310
H61	H	1.275278	-1.469661	0.798805
C62	C	1.571873	-1.050342	0.569057
C63	C	1.652679	-1.016388	0.506534
C64	C	1.652846	-0.906657	0.506389
H65	H	1.507828	-1.013918	0.542769
H66	H	1.581235	-1.035364	0.637666
H67	H	1.643309	-1.031356	0.437939
H68	H	1.716736	-1.052782	0.532806
H69	H	1.662208	-0.891680	0.574998
H70	H	1.588798	-0.870244	0.480103
H71	H	1.707677	-0.883608	0.463976
C72	C	1.509772	-0.699552	1.076224
C73	C	1.558573	-0.656708	1.153465
C74	C	1.631166	-0.592956	1.108203
H75	H	1.559938	-0.741470	1.039998
H76	H	1.475738	-0.643433	1.029360
H77	H	1.592606	-0.712818	1.200311
H78	H	1.508434	-0.614772	1.189697
H79	H	1.597132	-0.536837	1.061339
H80	H	1.681324	-0.634882	1.071978
H81	H	1.664279	-0.563871	1.160603
C82	C	1.120611	-1.380694	0.918332
C83	C	1.136529	-1.488995	0.906075
C84	C	1.062453	-1.541917	0.963353
H85	H	1.126765	-1.372623	0.989373
H86	H	1.053403	-1.351206	0.894442
H87	H	1.203720	-1.518474	0.929970
H88	H	1.130366	-1.497098	0.835046
H89	H	0.995245	-1.512429	0.939463
H90	H	1.068613	-1.533838	1.034390
H91	H	1.073237	-1.615403	0.955037
H92	H	1.356887	-0.833677	1.280578
C93	C	1.296281	-0.887174	1.115938
C94	C	1.346738	-0.969720	1.184967
C95	C	1.274346	-1.033556	1.230518
H96	H	1.246172	-0.845283	1.152252
H97	H	1.263068	-0.916392	1.063692
H98	H	1.379935	-0.940503	1.237205
H99	H	1.396841	-1.011637	1.148679
H100	H	1.241132	-1.062775	1.178273
H101	H	1.224240	-0.991656	1.266826
H102	H	1.308571	-1.089576	1.277352
C103	C	1.120323	-1.151812	0.918390
C104	C	1.055409	-1.221462	0.968642
C105	C	0.981088	-1.164637	1.026037
H106	H	1.153803	-1.119586	0.968275
H107	H	1.080446	-1.098251	0.873340
H108	H	1.095280	-1.275004	1.013688
H109	H	1.021904	-1.253690	0.918781
H110	H	0.941211	-1.111076	0.980988
H111	H	1.014577	-1.132414	1.075917
H112	H	0.937029	-1.211884	1.060133
H113	H	1.706279	-1.183567	0.465110
H114	H	1.275066	-1.071485	0.798646
H115	H	1.531142	-0.680853	1.265427
