data_functionalizedCrystal
_audit_creation_method	'MofGen! by Chris Wilmer'
_symmetry_space_group_name_H-M	'P1'
_symmetry_Int_Tables_number	1
_symmetry_cell_setting	triclinic
loop_
_symmetry_equiv_pos_as_xyz
  x,y,z
_cell_length_a	11.792241
_cell_length_b	23.532357
_cell_length_c	10.268362
_cell_angle_alpha	90.006876
_cell_angle_beta	89.999574
_cell_angle_gamma	96.489146
loop_
_atom_site_label
_atom_site_type_symbol
_atom_site_fract_x
_atom_site_fract_y
_atom_site_fract_z
O1	O	-1.505044	0.078053	0.108191
O2	O	-1.174511	0.086098	0.108223
O3	O	-1.349775	-0.000799	0.108179
O4	O	-1.329781	0.164950	0.108235
O5	O	-1.349758	-0.000796	-0.108421
O6	O	-1.174494	0.086101	-0.108377
O7	O	-1.505028	0.078056	-0.108410
Cu8	Cu	-1.339760	0.082079	-0.128171
Cu9	Cu	-1.339779	0.082075	0.127985
O10	O	-1.329764	0.164953	-0.108366
C11	C	-1.349266	-0.022017	-0.000125
C12	C	-1.347763	-0.085244	-0.000137
C13	C	-1.132224	0.085594	-0.000073
C14	C	-1.006246	0.084082	-0.000062
C15	C	-1.547315	0.078560	-0.000110
C16	C	-1.673292	0.080073	-0.000113
C17	C	-1.338332	-0.477313	0.118003
C18	C	-1.336903	-0.536721	0.118011
O19	O	-1.336133	-0.567443	0.218424
N20	N	-1.336185	-0.566435	-0.000056
C21	C	-1.336885	-0.536737	-0.118139
O22	O	-1.336142	-0.567466	-0.218564
C23	C	-1.338306	-0.477330	-0.118145
C24	C	-1.339036	-0.447620	-0.000070
C25	C	-1.339060	-0.447603	0.236069
C26	C	-1.340492	-0.388199	0.236061
C27	C	-1.341195	-0.358506	0.117987
C28	C	-1.340467	-0.388216	-0.000078
C29	C	-1.338998	-0.447632	-0.236227
C30	C	-1.340418	-0.388221	-0.236223
C31	C	-1.341148	-0.358511	-0.118148
C32	C	-1.342602	-0.299119	-0.118160
N33	N	-1.343319	-0.269405	-0.000093
C34	C	-1.342616	-0.299098	0.117981
C35	C	-1.333899	-0.661496	-0.118117
C36	C	-1.332486	-0.720903	-0.118112
C37	C	-1.332502	-0.720883	0.118038
C38	C	-1.333923	-0.661476	0.118032
C39	C	-1.334616	-0.631782	-0.000050
C40	C	-1.345623	-0.174346	0.117955
C41	C	-1.347059	-0.114938	0.117937
C42	C	-1.347037	-0.114963	-0.118213
C43	C	-1.345607	-0.174367	-0.118195
C44	C	-1.344896	-0.204057	-0.000101
O45	O	-1.343368	-0.268358	-0.218522
O46	O	-1.343344	-0.268361	0.218389
C47	C	-0.775601	0.081300	-0.000101
C48	C	-0.903949	0.082846	-0.000080
C49	C	-1.330273	0.186171	-0.000058
C50	C	-1.331776	0.249399	-0.000038
N51	N	-1.339754	0.082081	-0.308337
C52	C	-1.339762	0.082081	-0.426179
C53	C	-1.339777	0.082076	-0.574017
N54	N	-1.339794	0.082069	0.308150
H55	H	-1.345039	-0.198513	0.214119
C56	C	-1.249904	-0.090558	0.319216
C57	C	-1.347833	-0.082294	0.247752
H58	H	-1.250373	-0.070407	0.399357
H59	H	-1.248966	-0.130187	0.336074
H60	H	-1.183959	-0.076674	0.270687
H61	H	-1.413779	-0.096181	0.296277
H62	H	-1.348782	-0.042656	0.230897
H63	H	-1.331925	-0.745070	0.214180
H64	H	-1.331909	-0.745089	-0.214261
H65	H	-1.347615	-0.090776	-0.214345
C66	C	-1.237914	-0.588570	0.255037
C67	C	-1.334686	-0.628824	0.247830
H68	H	-1.238381	-0.568415	0.335173
H69	H	-1.171191	-0.607614	0.250109
H70	H	-1.238555	-0.562377	0.184727
H71	H	-1.334041	-0.655020	0.318135
H72	H	-1.401426	-0.609780	0.252771
C73	C	-1.239733	-0.508306	-0.373202
C74	C	-1.338148	-0.480268	-0.366031
H75	H	-1.239201	-0.528452	-0.453344
H76	H	-1.174126	-0.480982	-0.368231
H77	H	-1.239141	-0.534507	-0.302901
H78	H	-1.338736	-0.454064	-0.436327
H79	H	-1.403773	-0.507595	-0.371015
H80	H	-1.338484	-0.471773	0.332224
H81	H	-1.341082	-0.364014	0.332210
H82	H	-1.334467	-0.637324	-0.214279
H83	H	-1.340966	-0.364047	-0.332381
C84	C	-1.345733	-0.168416	-0.351620
C85	C	-1.344811	-0.207028	-0.247983
H86	H	-1.345226	-0.188577	-0.431745
H87	H	-1.412485	-0.149393	-0.346721
H88	H	-1.280101	-0.141097	-0.346689
H89	H	-1.410448	-0.234344	-0.252909
H90	H	-1.278052	-0.226060	-0.252885
