data_functionalizedCrystal
_audit_creation_method	'MofGen! by Chris Wilmer'
_symmetry_space_group_name_H-M	'P1'
_symmetry_Int_Tables_number	1
_symmetry_cell_setting	triclinic
loop_
_symmetry_equiv_pos_as_xyz
  x,y,z
_cell_length_a	14.908932
_cell_length_b	14.908977
_cell_length_c	14.908308
_cell_angle_alpha	89.840289
_cell_angle_beta	83.630060
_cell_angle_gamma	90.214730
loop_
_atom_site_label
_atom_site_type_symbol
_atom_site_fract_x
_atom_site_fract_y
_atom_site_fract_z
Zn1	Zn	-1.372821	0.303754	-0.413478
Zn2	Zn	-0.872821	0.803754	0.086522
Zn3	Zn	-1.390062	0.444401	-0.253518
Zn4	Zn	-0.890062	0.944401	0.246482
Zn5	Zn	-1.230197	0.303792	-0.270852
Zn6	Zn	-0.730197	0.803792	0.229148
Zn7	Zn	-1.231152	0.462685	-0.412427
Zn8	Zn	-0.731152	0.962685	0.087573
O9	O	-1.306058	0.378658	-0.337569
O10	O	-0.806058	0.878658	0.162431
O11	O	-1.501301	0.314743	-0.385445
O12	O	-1.001301	0.814743	0.114555
O13	O	-1.375672	0.418113	-0.129624
O14	O	-0.875672	0.918113	0.370376
O15	O	-1.241501	0.178428	-0.297466
O16	O	-0.741501	0.678428	0.202534
O17	O	-1.513969	0.418076	-0.267923
O18	O	-1.013969	0.918076	0.232077
O19	O	-1.346286	0.178400	-0.402253
O20	O	-0.846286	0.678400	0.097747
O21	O	-1.258219	0.314808	-0.142359
O22	O	-0.758219	0.814808	0.357641
O23	O	-1.104130	0.332537	-0.296447
O24	O	-0.604130	0.832537	0.203553
O25	O	-1.243129	0.449238	-0.538760
O26	O	-0.743129	0.949238	-0.038760
O27	O	-1.104832	0.449275	-0.400462
O28	O	-0.604832	0.949275	0.099538
O29	O	-1.347212	0.332472	-0.539532
O30	O	-0.847212	0.832472	-0.039532
O31	O	-1.376598	0.572185	-0.266904
O32	O	-0.876598	1.072185	0.233096
O33	O	-1.259847	0.585618	-0.383654
O34	O	-0.759847	1.085618	0.116346
C35	C	-1.071760	0.392895	-0.350222
C36	C	-0.571760	0.892895	0.149778
C37	C	-0.971527	0.399009	-0.355655
C38	C	-0.471527	0.899009	0.144345
C39	C	-0.830652	0.468485	-0.417358
C40	C	-0.330652	0.968485	0.082642
C41	C	-0.924830	0.462742	-0.412261
C42	C	-0.424830	0.962742	0.087739
C43	C	-0.924039	0.341016	-0.304139
C44	C	-0.424039	0.841016	0.195861
C45	C	-0.829861	0.346759	-0.309236
C46	C	-0.329861	0.846759	0.190764
C47	C	-0.783171	0.410495	-0.365849
C48	C	-0.283171	0.910495	0.134151
C49	C	-0.688991	0.416234	-0.370950
C50	C	-0.188991	0.916234	0.129050
C51	C	-0.688202	0.294512	-0.262824
C52	C	-0.188202	0.794512	0.237176
C53	C	-0.782380	0.288769	-0.257727
C54	C	-0.282380	0.788769	0.242273
C55	C	-1.320220	0.611406	-0.323302
C56	C	-0.820220	1.111406	0.176698
C57	C	-1.326360	0.710973	-0.317224
C58	C	-0.826360	1.210973	0.182776
C59	C	-0.541270	0.364357	-0.324862
C60	C	-0.041270	0.864357	0.175138
C61	C	-0.641503	0.358241	-0.319435
C62	C	-0.141503	0.858241	0.180565
C63	C	-1.216219	0.912124	-0.427282
C64	C	-0.716219	1.412124	0.072718
C65	C	-1.221984	1.005677	-0.421574
C66	C	-0.721984	1.505677	0.078426
C67	C	-1.343652	0.991633	-0.300099
C68	C	-0.843652	1.491633	0.199901
C69	C	-1.337886	0.898080	-0.305806
C70	C	-0.837886	1.398080	0.194194
C71	C	-1.274168	0.858329	-0.369401
C72	C	-0.774168	1.358329	0.130599
C73	C	-1.268408	0.764775	-0.375112
C74	C	-0.768408	1.264775	0.124888
C75	C	-1.390070	0.750733	-0.253632
C76	C	-0.890070	1.250733	0.246368
C77	C	-1.395836	0.844286	-0.247925
C78	C	-0.895836	1.344286	0.252075
C79	C	-1.293354	0.392891	-0.572782
C80	C	-0.793354	0.892891	-0.072782
C81	C	-1.287940	0.398956	-0.673016
C82	C	-0.787940	0.898956	-0.173016
C83	C	-1.291835	1.145002	-0.351901
C84	C	-0.791835	1.645002	0.148099
C85	C	-1.285700	1.045435	-0.357986
C86	C	-0.785700	1.545435	0.142014
C87	C	-1.386146	0.288743	-0.862173
C88	C	-0.886146	0.788743	-0.362173
C89	C	-1.381062	0.294439	-0.956351
C90	C	-0.881062	0.794439	-0.456351
C91	C	-1.272684	0.416037	-0.955554
C92	C	-0.772684	0.916037	-0.455554
C93	C	-1.277768	0.410342	-0.861375
C94	C	-0.777768	0.910342	-0.361375
C95	C	-1.334502	0.346694	-0.814688
C96	C	-0.834502	0.846694	-0.314688
C97	C	-1.339590	0.341003	-0.720507
C98	C	-0.839590	0.841003	-0.220507
C99	C	-1.231208	0.462597	-0.719712
C100	C	-0.731208	0.962597	-0.219712
C101	C	-1.226124	0.468292	-0.813890
C102	C	-0.726124	0.968292	-0.313890
C103	C	-1.318761	0.364413	-0.103272
C104	C	-0.818761	0.864413	0.396728
C105	C	-1.324333	0.358085	-0.003045
C106	C	-0.824333	0.858085	0.496955
H107	H	-0.963486	0.509964	-0.454205
H108	H	-0.463486	1.009964	0.045795
H109	H	-0.820408	0.236879	-0.211633
H110	H	-0.320408	0.736879	0.288367
H111	H	-1.189158	0.509786	-0.681039
H112	H	-0.689158	1.009786	-0.181039
Br113	Br	-1.451149	0.215786	-1.020794
Br114	Br	-0.951149	0.715786	-0.520794
Br115	Br	-0.623758	0.215800	-0.192921
Br116	Br	-0.123758	0.715800	0.307079
Br117	Br	-1.129759	0.858171	-0.513596
Br118	Br	-0.629759	1.358171	-0.013596
Br119	Br	-1.143331	1.078682	-0.500126
Br120	Br	-0.643331	1.578682	-0.000126
Br121	Br	-1.181939	0.710827	-0.461420
Br122	Br	-0.681939	1.210827	0.038580
Br123	Br	-0.987420	0.254532	-0.227306
Br124	Br	-0.487420	0.754532	0.272694
Br125	Br	-1.430120	1.045597	-0.213800
Br126	Br	-0.930120	1.545597	0.286200
H127	H	-0.792636	0.520375	-0.463462
H128	H	-0.292636	1.020375	0.036538
H129	H	-1.447711	0.876664	-0.196146
H130	H	-0.947711	1.376664	0.303854
Br131	Br	-1.468729	0.677721	-0.175081
Br132	Br	-0.968729	1.177721	0.324919
Br133	Br	-0.625626	0.502727	-0.447784
Br134	Br	-0.125626	1.002727	0.052216
H135	H	-1.385787	0.289178	-0.682495
H136	H	-0.885787	0.789178	-0.182495
Br137	Br	-1.149129	0.554664	-0.877260
Br138	Br	-0.649129	1.054664	-0.377260
H139	H	-1.432345	0.236923	-0.824159
H140	H	-0.932345	0.736923	-0.324159
Br141	Br	-1.195684	0.502401	-1.018932
Br142	Br	-0.695684	1.002401	-0.518932
