data_functionalizedCrystal
_audit_creation_method	'MofGen! by Chris Wilmer'
_symmetry_space_group_name_H-M	'P1'
_symmetry_Int_Tables_number	1
_symmetry_cell_setting	triclinic
loop_
_symmetry_equiv_pos_as_xyz
  x,y,z
_cell_length_a	12.594517
_cell_length_b	18.050589
_cell_length_c	12.594509
_cell_angle_alpha	89.972505
_cell_angle_beta	90.021327
_cell_angle_gamma	89.965502
loop_
_atom_site_label
_atom_site_type_symbol
_atom_site_fract_x
_atom_site_fract_y
_atom_site_fract_z
Zn1	Zn	1.627129	0.295641	0.601865
Zn2	Zn	1.626962	0.419845	0.423889
Zn3	Zn	1.449133	0.295673	0.423894
Zn4	Zn	1.449057	0.419793	0.601819
O5	O	1.538070	0.357738	0.512867
O6	O	1.776053	0.312125	0.578274
O7	O	1.603334	0.403408	0.274944
O8	O	1.472846	0.191744	0.447524
O9	O	1.775930	0.403377	0.447515
O10	O	1.603619	0.191721	0.578279
O11	O	1.472684	0.312179	0.274948
O12	O	1.300177	0.312129	0.447479
O13	O	1.472717	0.403289	0.750771
O14	O	1.300122	0.403320	0.578200
O15	O	1.603546	0.312075	0.750805
O16	O	1.603261	0.523763	0.447470
O17	O	1.472555	0.523725	0.578195
C18	C	1.261529	0.357723	0.512836
C19	C	1.143224	0.357735	0.512848
C20	C	1.073970	0.308068	0.441884
C21	C	1.003128	0.375810	0.415705
C22	C	1.003267	0.290026	0.539044
C23	C	1.073940	0.425512	0.486618
C24	C	1.074086	0.339682	0.610002
C25	C	1.003275	0.407471	0.583860
C26	C	1.537911	0.550690	0.512850
C27	C	1.537940	0.633236	0.512879
C28	C	1.466899	0.832693	0.583943
C29	C	1.440943	0.882138	0.486818
C30	C	1.538020	0.784366	0.512893
C31	C	1.564005	0.882003	0.610030
C32	C	1.538095	0.930351	0.512916
C33	C	1.512012	0.832724	0.415717
C34	C	1.635119	0.832585	0.538995
C35	C	1.609200	0.882007	0.441803
C36	C	1.537974	0.700268	0.512882
C37	C	1.538141	1.014448	0.512917
C38	C	1.815691	0.357754	0.512899
C39	C	1.933997	0.357760	0.512913
C40	C	1.538142	0.357673	0.790488
C41	C	1.538172	0.357645	0.908794
C42	C	1.538219	1.164032	0.512908
C43	C	1.538178	1.081487	0.512929
C44	C	1.538061	0.357749	0.236326
C45	C	1.538236	0.357568	0.118021
C46	C	1.467037	0.407228	0.978028
C47	C	1.564149	0.425374	1.048819
C48	C	1.441136	0.339455	1.048802
C49	C	1.635335	0.375826	0.978026
C50	C	1.512256	0.289876	0.978003
C51	C	1.609435	0.307996	1.048762
H52	H	1.104854	0.482801	0.464397
C53	C	0.961598	0.464286	0.664973
C54	C	0.989751	0.546860	0.652775
C55	C	0.948073	0.603677	0.733883
C56	C	0.878242	0.577920	0.827190
C57	C	0.850085	0.495342	0.839393
C58	C	0.891763	0.438525	0.758284
H59	H	1.041447	0.565931	0.583700
H60	H	0.968918	0.664806	0.724850
H61	H	0.847390	0.619979	0.887232
H62	H	0.798389	0.476271	0.908468
H63	H	0.870919	0.377396	0.767318
H64	H	1.406927	0.449224	0.946972
C65	C	1.690483	0.911089	0.360552
C66	C	1.756013	0.856180	0.293765
C67	C	1.837285	0.885266	0.212508
C68	C	1.853027	0.969261	0.198039
C69	C	1.787495	1.024176	0.264829
C70	C	1.706223	0.995090	0.346085
H71	H	1.744361	0.793997	0.304474
H72	H	1.885796	0.844615	0.163066
H73	H	1.913190	0.990793	0.137888
H74	H	1.799147	1.086359	0.254120
H75	H	1.657712	1.035741	0.395527
H76	H	1.717178	0.810804	0.561097
H77	H	0.971962	0.391096	0.333572
H78	H	1.358865	0.903921	0.464762
C79	C	1.593663	0.911248	0.720990
C80	C	1.524025	0.891770	0.817512
C81	C	1.553673	0.921012	0.928473
C82	C	1.652958	0.969732	0.942911
C83	C	1.722602	0.989212	0.846386
C84	C	1.692955	0.959970	0.735425
H85	H	1.450522	0.855703	0.806826
H86	H	1.502117	0.906592	0.999927
H87	H	1.674905	0.991379	1.025051
H88	H	1.796105	1.025280	0.857072
H89	H	1.744510	0.974391	0.663971
H90	H	1.586104	0.482652	1.079925
H91	H	1.717448	0.391245	0.947067
C92	C	1.116233	0.319008	0.720925
C93	C	1.088437	0.243300	0.769960
C94	C	1.130588	0.222616	0.880883
C95	C	1.200534	0.277640	0.942772
C96	C	1.228334	0.353353	0.893738
C97	C	1.186184	0.374037	0.782815
H98	H	1.036655	0.202563	0.724145
H99	H	1.110008	0.166568	0.917181
H100	H	1.231737	0.262328	1.024884
H101	H	1.280116	0.394089	0.939553
H102	H	1.206763	0.430085	0.746517
H103	H	0.972167	0.232762	0.561138
H104	H	1.669689	0.266032	1.079623
C105	C	1.385550	0.803430	0.664996
C106	C	1.267149	0.823028	0.652849
C107	C	1.185798	0.793763	0.733894
C108	C	1.222849	0.744900	0.827087
C109	C	1.341256	0.725300	0.839238
C110	C	1.422607	0.754565	0.758193
H111	H	1.239716	0.859201	0.583858
H112	H	1.098145	0.808273	0.724899
H113	H	1.162628	0.723236	0.887082
H114	H	1.368688	0.689126	0.908229
H115	H	1.510260	0.740055	0.767188
C116	C	1.482236	0.803614	0.304717
C117	C	1.560575	0.754261	0.243002
C118	C	1.530799	0.725151	0.132004
C119	C	1.422685	0.745393	0.082721
C120	C	1.344339	0.794748	0.144438
C121	C	1.374115	0.823858	0.255435
H122	H	1.640614	0.739274	0.279483
H123	H	1.588796	0.688615	0.086318
H124	H	1.400643	0.723843	0.000554
H125	H	1.264300	0.809734	0.107956
H126	H	1.316118	0.860394	0.301122
C127	C	1.482561	0.212521	0.935936
C128	C	1.374033	0.178426	0.963802
C129	C	1.344324	0.101071	0.921732
C130	C	1.423142	0.057811	0.851796
C131	C	1.531677	0.091905	0.823926
C132	C	1.561387	0.169260	0.865996
H133	H	1.315681	0.210450	1.015577
H134	H	1.263979	0.075833	0.942364
H135	H	1.401150	0.000548	0.820653
H136	H	1.590030	0.059881	0.772151
H137	H	1.641732	0.194499	0.845364
H138	H	1.359046	0.324102	1.079892
H139	H	1.105011	0.266108	0.381799
