data_functionalizedCrystal
_audit_creation_method	'MofGen! by Chris Wilmer'
_symmetry_space_group_name_H-M	'P1'
_symmetry_Int_Tables_number	1
_symmetry_cell_setting	triclinic
loop_
_symmetry_equiv_pos_as_xyz
  x,y,z
_cell_length_a	12.759401
_cell_length_b	12.759400
_cell_length_c	12.759393
_cell_angle_alpha	89.969548
_cell_angle_beta	90.022497
_cell_angle_gamma	89.984606
loop_
_atom_site_label
_atom_site_type_symbol
_atom_site_fract_x
_atom_site_fract_y
_atom_site_fract_z
Zn1	Zn	-1.606267	-0.418192	-0.594064
Zn2	Zn	-1.606159	-0.593908	-0.418384
Zn3	Zn	-1.430566	-0.418246	-0.418395
Zn4	Zn	-1.430558	-0.593832	-0.594017
O5	O	-1.518388	-0.506045	-0.506215
O6	O	-1.753274	-0.441511	-0.570775
O7	O	-1.582824	-0.570660	-0.271365
O8	O	-1.453922	-0.271218	-0.441722
O9	O	-1.753194	-0.570608	-0.441704
O10	O	-1.583009	-0.271178	-0.570785
O11	O	-1.453817	-0.441602	-0.271372
O12	O	-1.283544	-0.441529	-0.441676
O13	O	-1.453909	-0.570479	-0.741044
O14	O	-1.283538	-0.570531	-0.570705
O15	O	-1.583001	-0.441437	-0.741079
O16	O	-1.582816	-0.740919	-0.441658
O17	O	-1.453803	-0.740863	-0.570695
C18	C	-1.245420	-0.506029	-0.506187
C19	C	-1.128644	-0.506047	-0.506200
C20	C	-1.073806	-0.573320	-0.573278
C21	C	-0.964082	-0.573323	-0.573296
C22	C	-0.964043	-0.438776	-0.439148
C23	C	-1.073765	-0.438769	-0.439136
C24	C	-1.518326	-0.779012	-0.506193
C25	C	-1.518395	-0.895789	-0.506219
C26	C	-0.792421	-0.506059	-0.506237
C27	C	-0.909197	-0.506057	-0.506229
C28	C	-1.585711	-1.060376	-0.439138
C29	C	-1.585648	-0.950652	-0.439105
C30	C	-1.451194	-0.950655	-0.573363
C31	C	-1.451252	-1.060377	-0.573390
C32	C	-1.518466	-0.505944	-0.780248
C33	C	-1.518500	-0.505901	-0.897025
C34	C	-1.518478	-0.232011	-0.506260
C35	C	-1.518517	-0.115235	-0.506279
C36	C	-1.585723	-0.438698	-0.951907
C37	C	-1.585741	-0.438653	-1.061631
C38	C	-1.451309	-0.573022	-1.061582
C39	C	-1.451287	-0.573061	-0.951860
C40	C	-1.518370	-0.506069	-0.233248
C41	C	-1.518540	-0.505816	-0.116471
H42	H	-0.919438	-0.628102	-0.627919
Cl43	Cl	-1.366647	-0.881684	-0.657736
H44	H	-1.640450	-0.384009	-0.907264
Cl45	Cl	-1.142708	-0.354183	-0.354809
H46	H	-1.396530	-1.105045	-0.628067
H47	H	-1.118485	-0.628099	-0.627888
Cl48	Cl	-1.670268	-1.129336	-0.354765
H49	H	-1.396589	-0.627704	-1.106242
Cl50	Cl	-1.670264	-0.354174	-1.130621
Cl51	Cl	-0.895044	-0.354206	-0.354842
Cl52	Cl	-1.366764	-0.657546	-0.882860
Cl53	Cl	-1.670126	-0.881691	-0.354695
