data_functionalizedCrystal
_audit_creation_method	'MofGen! by Chris Wilmer'
_symmetry_space_group_name_H-M	'P1'
_symmetry_Int_Tables_number	1
_symmetry_cell_setting	triclinic
loop_
_symmetry_equiv_pos_as_xyz
  x,y,z
_cell_length_a	19.805405
_cell_length_b	19.805407
_cell_length_c	19.805382
_cell_angle_alpha	89.922126
_cell_angle_beta	89.897720
_cell_angle_gamma	90.025657
loop_
_atom_site_label
_atom_site_type_symbol
_atom_site_fract_x
_atom_site_fract_y
_atom_site_fract_z
Zn1	Zn	-0.269005	1.035095	-0.382796
Zn2	Zn	-0.382337	1.034903	-0.269604
Zn3	Zn	-0.269166	0.921803	-0.269611
Zn4	Zn	-0.382156	0.921873	-0.382742
O5	O	-0.325666	0.978418	-0.326189
O6	O	-0.284047	1.129786	-0.367801
O7	O	-0.367468	1.019791	-0.174888
O8	O	-0.174428	0.936882	-0.284651
O9	O	-0.367312	1.129645	-0.284639
O10	O	-0.174309	1.020117	-0.367808
O11	O	-0.284322	0.936697	-0.174894
O12	O	-0.284146	0.827096	-0.284599
O13	O	-0.367002	0.937001	-0.477466
O14	O	-0.367159	0.827147	-0.367716
O15	O	-0.283871	1.020185	-0.477506
O16	O	-0.477030	1.019859	-0.284587
O17	O	-0.476896	0.936815	-0.367709
C18	C	-0.325651	0.802562	-0.326153
C19	C	-0.325661	0.727330	-0.326153
C20	C	-0.368972	0.265584	-0.369443
C21	C	-0.368971	0.336272	-0.369429
C22	C	-0.325682	0.371569	-0.326215
C23	C	-0.282397	0.336173	-0.283008
C24	C	-0.282402	0.265486	-0.283020
C25	C	-0.282376	0.621246	-0.282961
C26	C	-0.282373	0.691938	-0.282954
C27	C	-0.368945	0.692032	-0.369370
C28	C	-0.368950	0.621345	-0.369381
C29	C	-0.325668	0.585956	-0.326172
C30	C	-0.325670	0.509308	-0.326187
C31	C	-0.325676	0.448216	-0.326203
C32	C	-0.501522	0.978342	-0.326156
C33	C	-0.576754	0.978372	-0.326164
C34	C	-0.612145	1.021654	-0.282928
C35	C	-0.682833	1.021683	-0.282943
C36	C	-0.718130	0.978425	-0.326191
C37	C	-0.682733	0.935141	-0.369433
C38	C	-0.612046	0.935116	-0.369420
C39	C	-0.967807	0.935240	-0.369483
C40	C	-1.038499	0.935267	-0.369490
C41	C	-1.038594	1.021808	-0.283005
C42	C	-0.967907	1.021783	-0.282993
C43	C	-0.932517	0.978501	-0.326237
C44	C	-0.855868	0.978471	-0.326221
C45	C	-0.794777	0.978451	-0.326204
C46	C	-0.149123	0.978513	-0.326236
C47	C	-0.073891	0.978554	-0.326257
C48	C	-0.325398	0.978622	-0.502732
C49	C	-0.325284	0.978709	-0.577964
C50	C	-0.325682	1.154961	-0.326225
C51	C	-0.325688	1.230193	-0.326241
C52	C	-0.325884	0.978255	-0.150332
C53	C	-0.325807	0.978299	-0.075100
C54	C	-0.281728	1.021674	0.386477
C55	C	-0.281799	1.021614	0.315789
C56	C	-0.325431	0.978591	0.280661
C57	C	-0.368990	0.935621	0.316224
C58	C	-0.368914	0.935678	0.386911
C59	C	-0.369294	0.935388	0.031152
C60	C	-0.369367	0.935336	-0.039540
C61	C	-0.282179	1.021325	-0.039970
C62	C	-0.282104	1.021382	0.030716
C63	C	-0.325659	0.978409	0.066274
C64	C	-0.325580	0.978474	0.142922
C65	C	-0.325514	0.978529	0.204014
H66	H	-0.404190	0.720855	-0.404551
H67	H	-0.404899	0.900299	-0.068140
O68	O	-0.239619	1.063101	0.064804
C69	C	-0.124226	1.095217	0.085990
C70	C	-0.172269	1.047919	0.047360
H71	H	-0.069764	1.082969	0.071890
H72	H	-0.131590	1.087878	0.142629
H73	H	-0.135767	1.149858	0.072013
H74	H	-0.160758	0.993260	0.061280
H75	H	-0.164896	1.055316	-0.009270
H76	H	-0.404769	0.900407	0.060094
H77	H	-0.404513	0.900588	0.287617
H78	H	-0.404375	0.900683	0.415862
H79	H	-0.938998	0.899998	-0.404692
H80	H	-0.711646	1.056927	-0.247735
O81	O	-0.716943	0.893026	-0.411413
C82	C	-0.738626	0.777910	-0.444131
C83	C	-0.699834	0.825531	-0.396557
H84	H	-0.724818	0.723329	-0.432128
H85	H	-0.724598	0.789756	-0.498729
H86	H	-0.795224	0.785394	-0.436725
H87	H	-0.643226	0.818073	-0.403903
H88	H	-0.713917	0.813673	-0.341977
O89	O	-0.410969	0.587134	-0.411452
C90	C	-0.443808	0.565633	-0.526529
C91	C	-0.396187	0.604430	-0.478962
H92	H	-0.431865	0.579592	-0.581121
H93	H	-0.498395	0.579506	-0.514595
H94	H	-0.436388	0.509035	-0.519081
H95	H	-0.403547	0.661037	-0.486383
H96	H	-0.341618	0.590501	-0.490907
H97	H	-1.067417	1.057052	-0.247797
O98	O	-0.411084	0.231404	-0.411446
C99	C	-0.496921	0.238967	-0.497194
C100	C	-0.449275	0.277756	-0.449647
H101	H	-0.527801	0.276425	-0.528102
H102	H	-0.532361	0.205828	-0.466097
H103	H	-0.465835	0.205922	-0.532618
H104	H	-0.480306	0.310837	-0.414214
H105	H	-0.413833	0.310852	-0.480786
O106	O	-0.240303	0.726122	-0.240905
C107	C	-0.154414	0.718574	-0.155208
C108	C	-0.202030	0.679777	-0.202779
H109	H	-0.123448	0.681120	-0.124381
H110	H	-0.185459	0.751584	-0.119716
H111	H	-0.119047	0.751746	-0.186350
H112	H	-0.237406	0.646568	-0.171691
H113	H	-0.170942	0.646809	-0.238273
O114	O	-0.240443	0.586863	-0.240889
C115	C	-0.231393	0.506955	-0.149499
C116	C	-0.278951	0.545855	-0.197116
H117	H	-0.262507	0.473779	-0.114107
H118	H	-0.200487	0.544317	-0.118568
H119	H	-0.195967	0.473933	-0.180611
H120	H	-0.314417	0.578878	-0.166056
H121	H	-0.309809	0.508456	-0.228050
H122	H	-0.404219	0.365084	-0.404606
O123	O	-0.240421	0.370430	-0.240931
C124	C	-0.207543	0.391870	-0.125854
C125	C	-0.255133	0.353045	-0.173429
H126	H	-0.219411	0.377817	-0.071269
H127	H	-0.214978	0.448478	-0.133209
H128	H	-0.152970	0.378020	-0.137872
H129	H	-0.309724	0.366838	-0.161440
H130	H	-0.247639	0.296445	-0.166064
H131	H	-0.939171	1.057005	-0.247774
O132	O	-0.239411	1.063252	0.281223
C133	C	-0.148060	1.071673	0.201125
C134	C	-0.196020	1.024443	0.240237
H135	H	-0.112976	1.040316	0.167968
H136	H	-0.116817	1.102418	0.238349
H137	H	-0.178919	1.107263	0.168065
H138	H	-0.165213	0.988812	0.273297
H139	H	-0.227265	0.993746	0.202976
H140	H	-1.067235	0.900042	-0.404713
O141	O	-0.240452	0.231076	-0.240980
C142	C	-0.231355	0.151106	-0.149650
C143	C	-0.278938	0.190043	-0.197211
H144	H	-0.262451	0.117911	-0.114260
H145	H	-0.200426	0.188445	-0.118712
H146	H	-0.195952	0.118101	-0.180805
H147	H	-0.314381	0.223050	-0.166108
H148	H	-0.309819	0.152668	-0.228150
O149	O	-0.577966	1.063738	-0.240893
C150	C	-0.585530	1.149550	-0.155081
C151	C	-0.624318	1.101935	-0.202663
H152	H	-0.622988	1.180435	-0.124149
H153	H	-0.552364	1.184987	-0.186152
H154	H	-0.552513	1.118440	-0.119680
H155	H	-0.657372	1.132991	-0.238072
H156	H	-0.657441	1.066496	-0.171550
H157	H	-0.583232	0.899872	-0.404629
H158	H	-0.246200	1.056711	0.415074
H159	H	-0.246712	1.056314	-0.068930
