data_functionalizedCrystal
_audit_creation_method	'MofGen! by Chris Wilmer'
_symmetry_space_group_name_H-M	'P1'
_symmetry_Int_Tables_number	1
_symmetry_cell_setting	triclinic
loop_
_symmetry_equiv_pos_as_xyz
  x,y,z
_cell_length_a	21.295419
_cell_length_b	21.295417
_cell_length_c	21.295411
_cell_angle_alpha	90.020597
_cell_angle_beta	90.024539
_cell_angle_gamma	90.044503
loop_
_atom_site_label
_atom_site_type_symbol
_atom_site_fract_x
_atom_site_fract_y
_atom_site_fract_z
Zn1	Zn	0.962359	-0.250432	0.355916
Zn2	Zn	0.962263	-0.355684	0.250643
Zn3	Zn	0.857082	-0.250460	0.250661
Zn4	Zn	0.857053	-0.355695	0.355875
O5	O	0.909689	-0.303068	0.303274
O6	O	1.050436	-0.264378	0.341961
O7	O	0.948282	-0.341733	0.162556
O8	O	0.871100	-0.162367	0.264648
O9	O	1.050365	-0.341706	0.264617
O10	O	0.948446	-0.162347	0.341978
O11	O	0.871007	-0.264425	0.162569
O12	O	0.768989	-0.264436	0.264608
O13	O	0.871050	-0.341724	0.443970
O14	O	0.768968	-0.341751	0.341908
O15	O	0.948418	-0.264388	0.444000
O16	O	0.948254	-0.443775	0.264578
O17	O	0.870957	-0.443783	0.341891
C18	C	0.746138	-0.303098	0.303256
C19	C	0.676170	-0.303126	0.303263
C20	C	0.643362	-0.262927	0.343598
C21	C	0.577620	-0.262910	0.343601
C22	C	0.544687	-0.303104	0.303275
C23	C	0.577502	-0.343305	0.262932
C24	C	0.643244	-0.343317	0.262926
N25	N	0.441412	-0.358181	0.298356
N26	N	0.378961	-0.358168	0.298365
C27	C	0.346612	-0.303071	0.303289
N28	N	0.379074	-0.247985	0.308215
N29	N	0.441532	-0.247999	0.308209
C30	C	0.473402	-0.303095	0.303276
C31	C	0.242519	-0.262850	0.343628
C32	C	0.176776	-0.262832	0.343626
C33	C	0.176660	-0.343233	0.262961
C34	C	0.242402	-0.343245	0.262960
C35	C	0.275328	-0.303055	0.303297
C36	C	0.909609	-0.466619	0.303242
C37	C	0.909632	-0.536588	0.303249
C38	C	0.949884	-0.569386	0.343544
C39	C	0.949906	-0.635129	0.343559
C40	C	0.909683	-0.668070	0.303269
C41	C	0.869424	-0.635263	0.262971
C42	C	0.869399	-0.569522	0.262962
N43	N	0.904924	-0.771324	0.248178
N44	N	0.904952	-0.833775	0.248189
C45	C	0.909757	-0.866145	0.303297
N46	N	0.914545	-0.833704	0.358395
N47	N	0.914521	-0.771247	0.358383
C48	C	0.909706	-0.739355	0.303276
C49	C	0.950034	-0.970229	0.343612
C50	C	0.950052	-1.035973	0.343629
C51	C	0.869574	-1.036106	0.263035
C52	C	0.869553	-0.970363	0.263024
C53	C	0.909786	-0.937429	0.303312
C54	C	1.073880	-0.303038	0.303292
C55	C	1.143848	-0.303025	0.303299
C56	C	0.909742	-0.303055	0.467464
C57	C	0.909764	-0.303049	0.537432
C58	C	0.909787	-0.138878	0.303319
C59	C	0.909829	-0.068909	0.303339
C60	C	0.909674	-0.303036	0.139722
C61	C	0.909773	-0.302864	0.069754
C62	C	0.950048	-0.262778	0.570315
C63	C	0.950047	-0.262751	0.636058
C64	C	0.909769	-0.303006	0.668915
C65	C	0.869477	-0.343279	0.636023
C66	C	0.869475	-0.343301	0.570282
N67	N	0.904913	-0.358075	0.772131
N68	N	0.904919	-0.358052	0.834582
C69	C	0.909773	-0.302942	0.866989
N70	N	0.914633	-0.247853	0.834586
N71	N	0.914630	-0.247876	0.772128
C72	C	0.909767	-0.302986	0.740200
C73	C	0.950058	-0.262638	0.971158
C74	C	0.950052	-0.262610	1.036902
C75	C	0.869486	-0.343143	1.036866
C76	C	0.869488	-0.343166	0.971124
C77	C	0.909777	-0.302914	0.938274
H78	H	0.150065	-0.230094	0.376471
H79	H	0.836820	-1.062926	0.230234
O80	O	0.830438	-0.938596	0.223816
C81	C	0.750595	-0.945668	0.143905
C82	C	0.794874	-0.981722	0.188267
H83	H	0.721820	-0.980519	0.115162
H84	H	0.779472	-0.914891	0.110971
H85	H	0.717680	-0.914895	0.172780
H86	H	0.827797	-1.012529	0.159443
H87	H	0.765958	-1.012459	0.221203
H88	H	0.269114	-0.375982	0.230117
O89	O	0.989198	-0.223615	0.538503
C90	C	1.069136	-0.143764	0.545480
C91	C	1.024821	-0.188075	0.581587
H92	H	1.097957	-0.115028	0.580297
H93	H	1.040284	-0.110820	0.514710
H94	H	1.102005	-0.172679	0.514695
H95	H	0.991943	-0.159211	0.612406
H96	H	1.053712	-0.221021	0.612317
O97	O	0.675416	-0.223853	0.382688
C98	C	0.749695	-0.138863	0.391303
C99	C	0.713442	-0.183085	0.346966
H100	H	0.780437	-0.105882	0.362439
H101	H	0.780506	-0.167783	0.424151
H102	H	0.714939	-0.110156	0.420147
H103	H	0.748152	-0.211801	0.318081
H104	H	0.682620	-0.154129	0.314159
H105	H	0.149847	-0.375959	0.230127
H106	H	0.836685	-0.375913	1.063618
H107	H	0.836689	-0.375963	0.944350
H108	H	0.982860	-0.229859	0.944410
O109	O	0.545839	-0.223844	0.382848
C110	C	0.552887	-0.144088	0.462843
C111	C	0.588954	-0.188306	0.418437
H112	H	0.587730	-0.115335	0.491620
H113	H	0.522118	-0.173011	0.495745
H114	H	0.522104	-0.111150	0.434001
H115	H	0.619771	-0.221253	0.447228
H116	H	0.619683	-0.159344	0.385534
O117	O	0.830433	-0.382455	0.538266
C118	C	0.821920	-0.467497	0.464066
C119	C	0.866204	-0.423183	0.500276
H120	H	0.850824	-0.500445	0.433352
H121	H	0.789033	-0.438648	0.433230
H122	H	0.793114	-0.496235	0.498850
H123	H	0.895050	-0.394435	0.465537
H124	H	0.899049	-0.452068	0.531121
O125	O	0.989093	-0.223567	0.668039
C126	C	0.997630	-0.138588	0.742307
C127	C	0.953337	-0.182911	0.706119
H128	H	0.968740	-0.105715	0.773114
H129	H	1.026414	-0.109776	0.707565
H130	H	1.030536	-0.167495	0.773067
H131	H	0.920393	-0.154052	0.675358
H132	H	0.924597	-0.211725	0.740895
H133	H	0.269329	-0.230121	0.376469
O134	O	0.545487	-0.382418	0.223851
C135	C	0.471151	-0.467358	0.215234
C136	C	0.507379	-0.423113	0.259569
H137	H	0.440323	-0.500263	0.244093
H138	H	0.505867	-0.496139	0.186414
H139	H	0.440409	-0.438390	0.182363
H140	H	0.538122	-0.452032	0.292477
H141	H	0.472630	-0.394330	0.288344
H142	H	0.982678	-0.661839	0.376379
O143	O	0.675019	-0.382430	0.223726
C144	C	0.667966	-0.462146	0.143691
C145	C	0.631902	-0.417891	0.188062
H146	H	0.633122	-0.490819	0.114836
H147	H	0.698708	-0.495152	0.172501
H148	H	0.698775	-0.433193	0.110856
H149	H	0.601058	-0.446794	0.220907
H150	H	0.601200	-0.384883	0.159214
O151	O	0.988983	-0.537492	0.382740
C152	C	1.068840	-0.544302	0.462644
C153	C	1.024583	-0.580501	0.418297
H154	H	1.097644	-0.579058	0.491394
H155	H	1.039945	-0.513557	0.495573
H156	H	1.101729	-0.513483	0.433756
H157	H	0.991685	-0.611354	0.447134
H158	H	1.053517	-0.611206	0.385367
O159	O	0.830294	-0.667162	0.223812
C160	C	0.750494	-0.660357	0.143851
C161	C	0.794771	-0.624155	0.188175
H162	H	0.721771	-0.625602	0.115017
H163	H	0.717535	-0.691143	0.172695
H164	H	0.779433	-0.691134	0.110993
H165	H	0.765882	-0.593344	0.221042
H166	H	0.827731	-0.593408	0.159292
O167	O	0.830443	-0.382451	0.667965
C168	C	0.821927	-0.467395	0.742208
C169	C	0.866209	-0.423082	0.706064
H170	H	0.850826	-0.500248	0.773030
H171	H	0.793145	-0.496229	0.707437
H172	H	0.789019	-0.438478	0.772949
H173	H	0.899156	-0.451951	0.675323
H174	H	0.894947	-0.394246	0.740869
O175	O	0.989155	-0.223399	1.068775
C176	C	1.019759	-0.116307	1.088923
C177	C	0.975446	-0.160644	1.052778
H178	H	1.008682	-0.065560	1.076013
H179	H	1.070520	-0.127310	1.076006
H180	H	1.012852	-0.123231	1.141551
H181	H	0.982296	-0.153745	1.000142
H182	H	0.924701	-0.149631	1.065747
O183	O	0.830320	-0.537561	0.223874
C184	C	0.794647	-0.436341	0.188112
C185	C	0.838924	-0.472460	0.232422
H186	H	0.801597	-0.383701	0.194999
H187	H	0.743873	-0.449270	0.199123
H188	H	0.805723	-0.449320	0.137373
H189	H	0.827904	-0.459501	0.283177
H190	H	0.889684	-0.459528	0.221357
H191	H	0.982793	-0.943413	0.376419
O192	O	0.989095	-1.067933	0.382754
C193	C	1.024827	-1.169151	0.418461
C194	C	0.980569	-1.133034	0.374130
H195	H	1.017959	-1.221791	0.411494
H196	H	1.013747	-1.156257	0.469222
H197	H	1.075579	-1.156137	0.407453
H198	H	0.929802	-1.146029	0.385081
H199	H	0.991703	-1.145931	0.323382
