data_functionalizedCrystal
_audit_creation_method	'MofGen! by Chris Wilmer'
_symmetry_space_group_name_H-M	'P1'
_symmetry_Int_Tables_number	1
_symmetry_cell_setting	triclinic
loop_
_symmetry_equiv_pos_as_xyz
  x,y,z
_cell_length_a	19.805407
_cell_length_b	14.908178
_cell_length_c	19.805399
_cell_angle_alpha	86.675724
_cell_angle_beta	89.982197
_cell_angle_gamma	93.311253
loop_
_atom_site_label
_atom_site_type_symbol
_atom_site_fract_x
_atom_site_fract_y
_atom_site_fract_z
Zn1	Zn	1.019222	-0.359271	-0.367131
Zn2	Zn	1.012622	-0.510147	-0.247410
Zn3	Zn	0.906036	-0.359289	-0.253958
Zn4	Zn	0.899488	-0.510092	-0.360562
O5	O	0.959342	-0.434700	-0.307265
O6	O	1.113062	-0.379300	-0.351258
O7	O	0.998461	-0.490166	-0.153560
O8	O	0.926553	-0.233032	-0.274460
O9	O	1.108213	-0.490148	-0.263299
O10	O	1.009710	-0.233019	-0.357608
O11	O	0.920153	-0.379331	-0.158372
O12	O	0.810451	-0.379277	-0.268091
O13	O	0.915392	-0.490055	-0.456151
O14	O	0.805640	-0.490072	-0.346413
O15	O	1.003361	-0.379247	-0.460977
O16	O	0.992112	-0.636394	-0.256930
O17	O	0.908993	-0.636353	-0.340063
C18	C	0.783487	-0.434671	-0.307250
C19	C	0.708255	-0.434681	-0.307259
C20	C	0.675432	-0.377064	-0.353120
C21	C	0.604743	-0.377069	-0.353123
C22	C	0.566879	-0.434696	-0.307266
C23	C	0.599706	-0.492315	-0.261400
C24	C	0.670394	-0.492305	-0.261395
C25	C	0.314631	-0.492355	-0.261419
C26	C	0.243939	-0.492363	-0.261429
C27	C	0.248980	-0.377120	-0.353147
C28	C	0.319668	-0.377110	-0.353142
C29	C	0.352490	-0.434725	-0.307273
C30	C	0.429139	-0.434718	-0.307270
C31	C	0.490231	-0.434708	-0.307272
C32	C	0.949144	-0.669110	-0.297088
C33	C	0.944843	-0.769391	-0.292756
C34	C	1.023287	-0.957668	-0.371291
C35	C	1.019248	-1.051891	-0.367224
C36	C	0.932724	-1.052064	-0.280558
C37	C	0.936762	-0.957840	-0.284625
C38	C	0.982046	-0.910645	-0.329993
C39	C	0.986088	-0.816420	-0.334056
C40	C	0.899560	-0.816594	-0.247394
C41	C	0.895522	-0.910818	-0.243326
C42	C	1.135883	-0.434729	-0.307281
C43	C	1.211115	-0.434741	-0.307287
C44	C	0.959382	-0.434643	-0.483810
C45	C	0.959400	-0.434619	-0.559044
C46	C	0.969598	-0.199374	-0.317497
C47	C	0.973969	-0.099092	-0.321858
C48	C	1.005206	-0.376918	-0.596902
C49	C	1.005214	-0.376892	-0.667591
C50	C	0.959418	-0.434571	-0.700421
C51	C	0.913607	-0.492274	-0.662558
C52	C	0.913597	-0.492295	-0.591870
C53	C	0.913649	-0.492190	-0.947635
C54	C	0.913665	-0.492167	-1.018328
C55	C	1.005266	-0.376787	-1.023357
C56	C	1.005256	-0.376808	-0.952668
C57	C	0.959443	-0.434507	-0.914811
C58	C	0.959433	-0.434533	-0.838162
C59	C	0.959430	-0.434550	-0.777069
C60	C	0.959343	-0.434691	-0.131410
C61	C	0.959468	-0.434461	-0.056188
H62	H	0.350494	-0.330187	-0.390485
H63	H	0.213111	-0.539291	-0.224084
Cl64	Cl	1.062784	-0.304407	-0.555637
H65	H	0.876355	-0.539186	-0.916820
H66	H	0.697117	-0.539221	-0.224049
Cl67	Cl	1.043017	-0.757091	-0.391087
Cl68	Cl	0.856033	-0.564783	-0.703830
H69	H	0.222249	-0.330203	-0.390493
Cl70	Cl	1.062831	-0.304296	-0.911401
H71	H	0.895853	-1.090506	-0.243625
Cl72	Cl	0.838592	-0.970157	-0.186301
H73	H	0.876290	-0.539272	-0.561047
H74	H	0.865981	-0.778298	-0.213764
H75	H	1.060164	-0.919241	-0.408227
Cl76	Cl	1.062859	-0.304246	-1.070953
H77	H	1.042515	-0.329909	-0.698413
Cl78	Cl	0.563483	-0.304636	-0.410782
Cl79	Cl	0.856088	-0.564683	-1.059599
H80	H	1.052828	-1.090173	-0.400857
H81	H	0.341346	-0.539270	-0.224070
Cl82	Cl	0.723026	-0.304619	-0.410775
Cl83	Cl	0.552105	-0.564755	-0.203748
