data_functionalizedCrystal
_audit_creation_method	'MofGen! by Chris Wilmer'
_symmetry_space_group_name_H-M	'P1'
_symmetry_Int_Tables_number	1
_symmetry_cell_setting	triclinic
loop_
_symmetry_equiv_pos_as_xyz
  x,y,z
_cell_length_a	12.759401
_cell_length_b	12.645323
_cell_length_c	12.759400
_cell_angle_alpha	90.026387
_cell_angle_beta	89.985155
_cell_angle_gamma	89.980706
loop_
_atom_site_label
_atom_site_type_symbol
_atom_site_fract_x
_atom_site_fract_y
_atom_site_fract_z
Zn1	Zn	1.606264	-0.599339	0.418254
Zn2	Zn	1.606156	-0.422075	0.593956
Zn3	Zn	1.430563	-0.422094	0.418293
Zn4	Zn	1.430554	-0.599301	0.593891
O5	O	1.518384	-0.510702	0.506099
O6	O	1.753270	-0.575833	0.441572
O7	O	1.582821	-0.273730	0.570698
O8	O	1.453919	-0.445631	0.271266
O9	O	1.753191	-0.445597	0.570660
O10	O	1.583006	-0.575852	0.271238
O11	O	1.453814	-0.273744	0.441638
O12	O	1.283541	-0.445593	0.441575
O13	O	1.453904	-0.747653	0.570549
O14	O	1.283535	-0.575786	0.570587
O15	O	1.582997	-0.747682	0.441509
O16	O	1.582813	-0.445560	0.740969
O17	O	1.453799	-0.575767	0.740921
C18	C	1.245417	-0.510688	0.506079
C19	C	1.128640	-0.510707	0.506096
C20	C	1.073802	-0.578386	0.573380
C21	C	0.964078	-0.578398	0.573393
C22	C	0.964040	-0.443042	0.438836
C23	C	1.073762	-0.443036	0.438818
C24	C	1.073824	-0.656530	0.651069
C25	C	0.964100	-0.656541	0.651082
C26	C	1.518462	-0.787208	0.506017
C27	C	1.518495	-0.905038	0.505983
C28	C	1.437032	-1.072584	0.586779
C29	C	1.437245	-0.950024	0.587180
C30	C	1.629197	-0.949550	0.536030
C31	C	1.628750	-1.072149	0.536537
C32	C	1.490302	-1.072240	0.394687
C33	C	1.487832	-0.949634	0.395354
C34	C	1.792418	-0.510717	0.506119
C35	C	1.909194	-0.510724	0.506127
C36	C	1.518322	-0.510680	0.779066
C37	C	1.518391	-0.510706	0.895843
C38	C	1.518368	-0.235273	0.506104
C39	C	1.518538	-0.117443	0.505842
C40	C	1.518475	-0.510748	0.232065
C41	C	1.518514	-0.510767	0.115289
C42	C	1.585643	-0.442982	0.950695
C43	C	1.585708	-0.443015	1.060419
C44	C	1.451260	-0.578498	1.060429
C45	C	1.451201	-0.578470	0.950707
C46	C	1.663263	-0.364759	0.950689
C47	C	1.663327	-0.364791	1.060413
H48	H	0.930103	-0.734591	0.622045
H49	H	1.691538	-1.101825	0.480145
H50	H	1.118407	-0.387932	0.384022
C51	C	1.570503	-1.111430	0.313223
N52	N	1.630915	-1.140951	0.251873
C53	C	0.903663	-0.368605	0.364837
N54	N	0.858189	-0.312535	0.309101
H55	H	0.934304	-0.634411	0.732430
H56	H	1.740632	-0.394267	1.094361
H57	H	1.634137	-0.286735	0.916735
H58	H	1.653540	-0.918858	0.616435
H59	H	1.641589	-0.282677	1.090268
C60	C	1.114100	-0.767503	0.621791
N61	N	1.144436	-0.851089	0.599748
C62	C	1.773151	-0.394548	0.910350
N63	N	1.855917	-0.416985	0.879967
C64	C	1.461978	-1.114198	0.697413
N65	N	1.480775	-1.145537	0.780743
C66	C	1.377347	-0.653028	1.120790
N67	N	1.321672	-0.709162	1.166253
C68	C	1.377269	-0.653022	0.890373
N69	N	1.321595	-0.709192	0.844930
C70	C	1.119780	-0.616615	0.755430
N71	N	1.154395	-0.586549	0.834034
H72	H	1.355156	-0.919928	0.568377
H73	H	1.455886	-0.920707	0.669584
C74	C	1.325798	-1.112399	0.561617
N75	N	1.242014	-1.142395	0.542664
H76	H	1.652684	-1.100756	0.617793
C77	C	1.713443	-0.910182	0.458915
N78	N	1.776896	-0.880526	0.400832
C79	C	1.383138	-1.113986	0.357691
N80	N	1.302417	-1.145428	0.329839
C81	C	1.377795	-0.910286	0.364715
N82	N	1.294921	-0.880628	0.341633
H83	H	1.542860	-0.919011	0.331863
