data_functionalizedCrystal
_audit_creation_method	'MofGen! by Chris Wilmer'
_symmetry_space_group_name_H-M	'P1'
_symmetry_Int_Tables_number	1
_symmetry_cell_setting	triclinic
loop_
_symmetry_equiv_pos_as_xyz
  x,y,z
_cell_length_a	10.489711
_cell_length_b	10.489741
_cell_length_c	11.804365
_cell_angle_alpha	101.956800
_cell_angle_beta	101.970814
_cell_angle_gamma	95.466909
loop_
_atom_site_label
_atom_site_type_symbol
_atom_site_fract_x
_atom_site_fract_y
_atom_site_fract_z
O1	O	1.719619	-0.154257	0.099062
O2	O	1.348416	-0.171191	0.099054
O3	O	1.542465	0.022876	0.099061
O4	O	1.525570	-0.348323	0.099055
O5	O	1.491379	-0.028163	-0.098997
O6	O	1.297330	-0.222229	-0.099004
O7	O	1.668533	-0.205295	-0.098996
Cu8	Cu	1.478267	-0.218422	-0.117084
Cu9	Cu	1.538682	-0.158064	0.117142
O10	O	1.474484	-0.399362	-0.099003
C11	C	1.275341	-0.195440	0.000024
C12	C	1.133709	-0.191638	0.000021
C13	C	0.951325	-0.308340	0.000033
C14	C	1.068659	-0.224880	0.097685
C15	C	1.018265	-0.275169	-0.097585
C16	C	0.998732	-0.101313	0.097779
C17	C	0.948306	-0.151641	-0.097578
C18	C	1.065618	-0.068085	0.000098
C19	C	1.501303	-0.421374	0.000025
C20	C	1.505120	-0.563004	0.000023
C21	C	1.628589	-0.631128	0.000035
C22	C	1.545076	-0.748419	-0.097618
C23	C	1.595414	-0.698077	0.097651
C24	C	1.421535	-0.678451	-0.097710
C25	C	1.471913	-0.628077	0.097647
C26	C	1.388305	-0.745347	-0.000030
C27	C	1.741609	-0.181046	0.000036
C28	C	1.883243	-0.184845	0.000047
C29	C	1.515647	0.044889	0.000035
C30	C	1.511832	0.186520	0.000045
N31	N	1.435783	-0.260875	-0.281827
C32	C	1.683194	-0.013633	-0.655766
C33	C	1.715331	0.018488	-0.531103
C34	C	1.645446	-0.051350	-0.468778
C35	C	1.543420	-0.153314	-0.531128
C36	C	1.511286	-0.185445	-0.655803
C37	C	1.473539	-0.223162	-0.468815
C38	C	1.371513	-0.325126	-0.531164
C39	C	1.339384	-0.357251	-0.655827
C40	C	1.409268	-0.287413	-0.718153
C41	C	1.505673	-0.191031	-0.344140
C42	C	1.333765	-0.362843	-0.344176
C43	C	1.301628	-0.394964	-0.468839
N44	N	1.581175	-0.115601	0.281884
H45	H	0.989242	-0.027810	0.180434
H46	H	1.120946	-0.255862	0.180238
H47	H	1.730079	-0.581493	-0.000060
F48	F	1.679650	-0.017160	-0.336100
H49	H	1.348018	-0.668922	-0.180360
F50	F	1.585528	-0.816761	-0.205521
F51	F	1.130292	0.064719	0.000166
F52	F	0.879919	-0.111208	-0.205490
H53	H	1.027926	-0.348717	-0.180143
F54	F	1.431521	-0.559696	0.205561
F55	F	1.230811	-0.465783	-0.722185
F56	F	1.691558	-0.710764	0.205557
F57	F	1.193046	-0.503481	-0.535209
H58	H	1.286685	-0.794796	-0.000086
H59	H	1.588743	-0.108012	-0.293386
F60	F	1.823910	0.126999	-0.464751
H61	H	1.740091	0.043214	-0.706520
H62	H	1.383099	-0.313562	-0.819663
H63	H	0.901659	-0.409816	0.000128
F64	F	1.259388	-0.437179	-0.277850
