data_functionalizedCrystal
_audit_creation_method	'MofGen! by Chris Wilmer'
_symmetry_space_group_name_H-M	'P1'
_symmetry_Int_Tables_number	1
_symmetry_cell_setting	triclinic
loop_
_symmetry_equiv_pos_as_xyz
  x,y,z
_cell_length_a	15.944551
_cell_length_b	15.944480
_cell_length_c	14.421503
_cell_angle_alpha	90.006710
_cell_angle_beta	90.003340
_cell_angle_gamma	96.515707
loop_
_atom_site_label
_atom_site_type_symbol
_atom_site_fract_x
_atom_site_fract_y
_atom_site_fract_z
O1	O	0.108038	-1.114566	-0.077094
O2	O	0.358038	-0.864566	0.172906
O3	O	0.608038	-0.614566	0.422906
O4	O	0.858038	-0.364566	0.672906
O5	O	0.121456	-0.870009	-0.077100
O6	O	0.371456	-0.620009	0.172900
O7	O	0.621456	-0.370009	0.422900
O8	O	0.871456	-0.120009	0.672900
O9	O	-0.007530	-0.998966	-0.077088
O10	O	0.242470	-0.748966	0.172912
O11	O	0.492470	-0.498966	0.422912
O12	O	0.742470	-0.248966	0.672912
O13	O	0.237023	-0.985609	-0.077105
O14	O	0.487023	-0.735609	0.172895
O15	O	0.737023	-0.485609	0.422895
O16	O	0.987023	-0.235609	0.672895
O17	O	-0.007511	-0.998944	0.077135
O18	O	0.242489	-0.748944	0.327135
O19	O	0.492489	-0.498944	0.577135
O20	O	0.742489	-0.248944	0.827135
O21	O	0.121475	-0.869987	0.077123
O22	O	0.371475	-0.619987	0.327123
O23	O	0.621475	-0.369987	0.577123
O24	O	0.871475	-0.119987	0.827123
O25	O	0.108057	-1.114545	0.077130
O26	O	0.358057	-0.864545	0.327130
O27	O	0.608057	-0.614545	0.577130
O28	O	0.858057	-0.364545	0.827130
Cu29	Cu	0.114768	-0.992264	0.091208
Cu30	Cu	0.364768	-0.742264	0.341208
Cu31	Cu	0.614768	-0.492264	0.591208
Cu32	Cu	0.864768	-0.242264	0.841208
Cu33	Cu	0.114745	-0.992289	-0.091179
Cu34	Cu	0.364745	-0.742289	0.158821
Cu35	Cu	0.614745	-0.492289	0.408821
Cu36	Cu	0.864745	-0.242289	0.658821
O37	O	0.237042	-0.985588	0.077118
O38	O	0.487042	-0.735588	0.327118
O39	O	0.737042	-0.485588	0.577118
O40	O	0.987042	-0.235588	0.827118
C41	C	0.120919	-0.838703	0.000011
C42	C	0.370919	-0.588703	0.250011
C43	C	0.620919	-0.338703	0.500011
C44	C	0.870919	-0.088703	0.750011
C45	C	0.119280	-0.745454	0.000009
C46	C	0.369280	-0.495454	0.250009
C47	C	0.619280	-0.245454	0.500009
C48	C	0.869280	0.004546	0.750009
C49	C	0.195212	-0.509692	0.000001
C50	C	0.445212	-0.259692	0.250001
C51	C	0.695212	-0.009692	0.500001
C52	C	0.945212	0.240308	0.750001
C53	C	0.154282	-0.459123	0.076048
C54	C	0.404282	-0.209123	0.326048
C55	C	0.654282	0.040877	0.576048
C56	C	0.904282	0.290877	0.826048
C57	C	0.116244	-0.574732	0.000009
C58	C	0.366244	-0.324732	0.250009
C59	C	0.616244	-0.074732	0.500009
C60	C	0.866244	0.175268	0.750009
C61	C	0.154245	-0.459149	-0.076004
C62	C	0.404245	-0.209149	0.173996
C63	C	0.654245	0.040851	0.423996
C64	C	0.904245	0.290851	0.673996
C65	C	0.113317	-0.409821	0.000006
C66	C	0.363317	-0.159821	0.250006
C67	C	0.613317	0.090179	0.500006
C68	C	0.863317	0.340179	0.750006
C69	C	0.075336	-0.525391	0.076119
C70	C	0.325336	-0.275391	0.326119
C71	C	0.575336	-0.025391	0.576119
C72	C	0.825336	0.224609	0.826119
C73	C	0.075310	-0.525420	-0.076002
C74	C	0.325310	-0.275420	0.173998
C75	C	0.575310	-0.025420	0.423998
C76	C	0.825310	0.224580	0.673998
C77	C	0.034323	-0.474883	0.000064
C78	C	0.284323	-0.224883	0.250064
C79	C	0.534323	0.025117	0.500064
C80	C	0.784323	0.275117	0.750064
C81	C	0.117933	-0.669732	0.000012
C82	C	0.367933	-0.419732	0.250012
C83	C	0.617933	-0.169732	0.500012
C84	C	0.867933	0.080268	0.750012
C85	C	0.111622	-0.314823	0.000010
C86	C	0.361622	-0.064823	0.250010
C87	C	0.611622	0.185177	0.500010
C88	C	0.861622	0.435177	0.750010
C89	C	-0.038814	-0.998401	0.000023
C90	C	0.211186	-0.748401	0.250023
C91	C	0.461186	-0.498401	0.500023
C92	C	0.711186	-0.248401	0.750023
C93	C	-0.132060	-0.996738	0.000024
C94	C	0.117940	-0.746738	0.250024
C95	C	0.367940	-0.496738	0.500024
C96	C	0.617940	-0.246738	0.750024
C97	C	-0.346895	-0.912831	0.000009
C98	C	-0.096895	-0.662831	0.250009
C99	C	0.153105	-0.412831	0.500009
C100	C	0.403105	-0.162831	0.750009
C101	C	-0.407913	-0.951784	0.076051
C102	C	-0.157913	-0.701784	0.326051
C103	C	0.092087	-0.451784	0.576051
C104	C	0.342087	-0.201784	0.826051
C105	C	-0.302785	-0.993731	0.000017
C106	C	-0.052785	-0.743731	0.250017
C107	C	0.197215	-0.493731	0.500017
C108	C	0.447215	-0.243731	0.750017
C109	C	-0.407915	-0.951824	-0.076001
C110	C	-0.157915	-0.701824	0.173999
C111	C	0.092085	-0.451824	0.423999
C112	C	0.342085	-0.201824	0.673999
C113	C	-0.467697	-0.990820	0.000006
C114	C	-0.217697	-0.740820	0.250006
C115	C	0.032303	-0.490820	0.500006
C116	C	0.282303	-0.240820	0.750006
C117	C	-0.362574	-1.032706	0.076122
C118	C	-0.112574	-0.782706	0.326122
C119	C	0.137426	-0.532706	0.576122
C120	C	0.387426	-0.282706	0.826122
C121	C	-0.362570	-1.032735	-0.075999
C122	C	-0.112570	-0.782735	0.174001
C123	C	0.137430	-0.532735	0.424001
C124	C	0.387430	-0.282735	0.674001
C125	C	-0.423570	-1.071747	0.000063
C126	C	-0.173570	-0.821747	0.250063
C127	C	0.076430	-0.571747	0.500063
C128	C	0.326430	-0.321747	0.750063
C129	C	-0.207783	-0.995405	0.000024
C130	C	0.042217	-0.745405	0.250024
C131	C	0.292217	-0.495405	0.500024
C132	C	0.542217	-0.245405	0.750024
C133	C	-0.562697	-0.989152	0.000005
C134	C	-0.312697	-0.739152	0.250005
C135	C	-0.062697	-0.489152	0.500005
C136	C	0.187303	-0.239152	0.750005
C137	C	0.268327	-0.986153	0.000004
C138	C	0.518327	-0.736153	0.250004
C139	C	0.768327	-0.486153	0.500004
C140	C	1.018327	-0.236153	0.750004
C141	C	0.361572	-0.987815	-0.000003
C142	C	0.611572	-0.737815	0.249997
C143	C	0.861572	-0.487815	0.499997
C144	C	1.111572	-0.237815	0.749997
C145	C	0.108605	-0.145849	0.000015
C146	C	0.358605	0.104151	0.250015
C147	C	0.608605	0.354151	0.500015
C148	C	0.858605	0.604151	0.750015
C149	C	0.110278	-0.239094	0.000006
C150	C	0.360278	0.010906	0.250006
C151	C	0.610278	0.260906	0.500006
C152	C	0.860278	0.510906	0.750006
N153	N	0.114783	-0.992252	0.219490
N154	N	0.364783	-0.742252	0.469490
N155	N	0.614783	-0.492252	0.719490
N156	N	0.864783	-0.242252	0.969490
N157	N	0.114723	-0.992308	-0.219460
N158	N	0.364723	-0.742308	0.030540
N159	N	0.614723	-0.492308	0.280540
N160	N	0.864723	-0.242308	0.530540
C161	C	0.174399	-0.932612	0.469138
C162	C	0.424399	-0.682612	0.719138
C163	C	0.674399	-0.432612	0.969138
C164	C	0.924399	-0.182612	1.219138
C165	C	0.190687	-1.008515	0.530941
C166	C	0.440687	-0.758515	0.780941
C167	C	0.690687	-0.508515	1.030941
C168	C	0.940687	-0.258515	1.280941
C169	C	0.114763	-0.992273	0.408651
C170	C	0.364763	-0.742273	0.658651
C171	C	0.614763	-0.492273	0.908651
C172	C	0.864763	-0.242273	1.158651
C173	C	0.098495	-0.916390	0.530941
C174	C	0.348495	-0.666390	0.780941
C175	C	0.598495	-0.416390	1.030941
C176	C	0.848495	-0.166390	1.280941
C177	C	0.114746	-0.992286	0.591372
C178	C	0.364746	-0.742286	0.841372
C179	C	0.614746	-0.492286	1.091372
C180	C	0.864746	-0.242286	1.341372
C181	C	0.131089	-1.068214	0.469094
C182	C	0.381089	-0.818214	0.719094
C183	C	0.631089	-0.568214	0.969094
C184	C	0.881089	-0.318214	1.219094
C185	C	0.038863	-0.976039	0.469088
C186	C	0.288863	-0.726039	0.719088
C187	C	0.538863	-0.476039	0.969088
C188	C	0.788863	-0.226039	1.219088
C189	C	0.055119	-1.051996	0.530864
C190	C	0.305119	-0.801996	0.780864
C191	C	0.555119	-0.551996	1.030864
C192	C	0.805119	-0.301996	1.280864
C193	C	0.114775	-0.992264	0.303390
C194	C	0.364775	-0.742264	0.553390
C195	C	0.614775	-0.492264	0.803390
C196	C	0.864775	-0.242264	1.053390
C197	C	0.114733	-0.992303	0.696631
C198	C	0.364733	-0.742303	0.946631
C199	C	0.614733	-0.492303	1.196631
C200	C	0.864733	-0.242303	1.446631
H201	H	0.263230	-0.525316	0.000068
H202	H	0.513230	-0.275316	0.250068
H203	H	0.763230	-0.025316	0.500068
H204	H	1.013230	0.224684	0.750068
H205	H	0.084743	-0.852212	0.558111
H206	H	0.334743	-0.602212	0.808111
H207	H	0.584743	-0.352212	1.058111
H208	H	0.834743	-0.102212	1.308111
F209	F	-0.434174	-0.907050	0.160079
F210	F	-0.184174	-0.657050	0.410079
F211	F	0.065826	-0.407050	0.660079
F212	F	0.315826	-0.157050	0.910079
H213	H	0.187640	-0.430177	0.140334
H214	H	0.437640	-0.180177	0.390334
H215	H	0.687640	0.069823	0.640334
H216	H	0.937640	0.319823	0.890334
F217	F	-0.054647	-0.454661	0.000127
F218	F	0.195353	-0.204661	0.250127
F219	F	0.445353	0.045339	0.500127
F220	F	0.695353	0.295339	0.750127
H221	H	0.187602	-0.430219	-0.140287
H222	H	0.437602	-0.180219	0.109713
H223	H	0.687602	0.069781	0.359713
H224	H	0.937602	0.319781	0.609713
H225	H	-0.456746	-1.138956	0.000107
H226	H	-0.206746	-0.888956	0.250107
H227	H	0.043254	-0.638956	0.500107
H228	H	0.293254	-0.388956	0.750107
F229	F	0.149162	-1.152120	0.433737
F230	F	0.399162	-0.902120	0.683737
F231	F	0.649162	-0.652120	0.933737
F232	F	0.899162	-0.402120	1.183737
F233	F	0.240369	-0.866734	0.433708
F234	F	0.490369	-0.616734	0.683708
F235	F	0.740369	-0.366734	0.933708
F236	F	0.990369	-0.116734	1.183708
H237	H	-0.342456	-1.066932	-0.140288
H238	H	-0.092456	-0.816932	0.109712
H239	H	0.157544	-0.566932	0.359712
H240	H	0.407544	-0.316932	0.609712
H241	H	-0.342584	-1.066886	0.140480
H242	H	-0.092584	-0.816886	0.390480
H243	H	0.157416	-0.566886	0.640480
H244	H	0.407416	-0.316886	0.890480
H245	H	0.042015	-0.554210	0.140475
H246	H	0.292015	-0.304210	0.390475
H247	H	0.542015	-0.054210	0.640475
H248	H	0.792015	0.195790	0.890475
H249	H	0.004676	-1.102510	0.557796
H250	H	0.254676	-0.852510	0.807796
H251	H	0.504676	-0.602510	1.057796
H252	H	0.754676	-0.352510	1.307796
F253	F	-0.434174	-0.907093	-0.160023
F254	F	-0.184174	-0.657093	0.089977
F255	F	0.065826	-0.407093	0.339977
F256	F	0.315826	-0.157093	0.589977
H257	H	0.041978	-0.554375	-0.140291
H258	H	0.291978	-0.304375	0.109709
H259	H	0.541978	-0.054375	0.359709
H260	H	0.791978	0.195625	0.609709
H261	H	-0.313570	-0.845681	0.000083
H262	H	-0.063570	-0.595681	0.250083
H263	H	0.186430	-0.345681	0.500083
H264	H	0.436430	-0.095681	0.750083
F265	F	0.274573	-1.026479	0.566453
F266	F	0.524573	-0.776479	0.816453
F267	F	0.774573	-0.526479	1.066453
F268	F	1.024573	-0.276479	1.316453
H269	H	-0.025295	-0.962272	0.441899
H270	H	0.224705	-0.712272	0.691899
H271	H	0.474705	-0.462272	0.941899
H272	H	0.724705	-0.212272	1.191899
