data_functionalizedCrystal
_audit_creation_method	'MofGen! by Chris Wilmer'
_symmetry_space_group_name_H-M	'P1'
_symmetry_Int_Tables_number	1
_symmetry_cell_setting	triclinic
loop_
_symmetry_equiv_pos_as_xyz
  x,y,z
_cell_length_a	15.995350
_cell_length_b	23.532407
_cell_length_c	14.472310
_cell_angle_alpha	89.994233
_cell_angle_beta	89.990621
_cell_angle_gamma	83.170526
loop_
_atom_site_label
_atom_site_type_symbol
_atom_site_fract_x
_atom_site_fract_y
_atom_site_fract_z
O1	O	1.110386	0.073404	-0.076772
O2	O	0.866535	0.082469	-0.076793
O3	O	0.995814	-0.004967	-0.076765
O4	O	0.981107	0.160840	-0.076800
O5	O	0.995781	-0.004962	0.076917
O6	O	0.866502	0.082474	0.076889
O7	O	1.110353	0.073409	0.076910
Cu8	Cu	0.988424	0.077942	0.090932
Cu9	Cu	0.988464	0.077936	-0.090815
O10	O	0.981074	0.160845	0.076882
C11	C	0.835327	0.082096	0.000046
C12	C	0.742386	0.080973	0.000039
C13	C	0.404672	0.076938	0.000059
C14	C	0.452624	0.014668	0.000415
C15	C	0.549305	0.015792	0.000062
C16	C	0.572216	0.078939	0.000050
C17	C	0.530892	0.109650	-0.087713
C18	C	0.434270	0.108086	-0.087780
C19	C	0.433882	0.109378	0.086985
C20	C	0.530828	0.109364	0.088139
C21	C	0.666904	0.080074	0.000041
C22	C	0.309984	0.075805	0.000061
C23	C	0.995423	-0.026182	0.000078
C24	C	0.994297	-0.089404	0.000085
C25	C	1.063739	-0.488239	0.000041
C26	C	1.062693	-0.547644	0.000033
O27	O	1.127067	-0.584141	0.000005
N28	N	0.985837	-0.570566	0.000028
C29	C	0.910022	-0.534080	0.000020
O30	O	0.844554	-0.559031	0.000013
C31	C	0.911069	-0.474677	0.000020
C32	C	0.987930	-0.451758	0.000035
C33	C	1.140594	-0.465320	0.000055
C34	C	1.141640	-0.405920	0.000063
C35	C	1.065830	-0.369439	0.000058
C36	C	0.988975	-0.392358	0.000044
C37	C	0.835255	-0.438192	0.000006
C38	C	0.836308	-0.378785	0.000005
C39	C	0.913169	-0.355867	0.000020
C40	C	0.914212	-0.296477	0.000048
N41	N	0.991068	-0.273555	0.000053
C42	C	1.066877	-0.310036	0.000059
C43	C	0.907829	-0.658831	0.000017
C44	C	0.906781	-0.718233	0.000023
C45	C	1.059453	-0.731793	0.000035
C46	C	1.060500	-0.672389	0.000036
C47	C	0.984685	-0.635909	0.000023
C48	C	1.069067	-0.185291	0.000078
C49	C	1.070106	-0.125885	0.000091
C50	C	0.917435	-0.112330	0.000074
C51	C	0.916396	-0.171731	0.000066
C52	C	0.992219	-0.208210	0.000065
O53	O	0.849872	-0.259945	0.000073
O54	O	1.132335	-0.285076	0.000053
C55	C	1.141561	0.073781	0.000069
C56	C	1.234502	0.074905	0.000070
C57	C	0.981465	0.182060	0.000037
C58	C	0.982591	0.245281	0.000024
N59	N	0.988403	0.077946	0.218763
N60	N	0.988492	0.077927	-0.218646
C61	C	0.988463	0.077933	0.592854
C62	C	0.919059	0.124562	0.553673
C63	C	0.919217	0.124732	0.446585
C64	C	0.988432	0.077939	0.407263
C65	C	1.075689	0.090918	0.446104
C66	C	1.075298	0.091250	0.553226
C67	C	0.971390	0.018188	0.553394
C68	C	0.969383	0.018587	0.446267
C69	C	0.988421	0.077942	0.302375
C70	C	0.988480	0.077932	0.697742
H71	H	0.558317	0.086945	0.153065
H72	H	1.016688	-0.017738	0.419504
H73	H	0.853972	0.116956	0.579458
C74	C	0.752910	-0.338660	-0.000005
H75	H	0.706990	-0.360821	-0.000008
H76	H	0.750155	-0.315199	-0.053594
H77	H	0.750129	-0.315211	0.053597
C78	C	0.390465	0.171400	0.087777
H79	H	0.354704	0.177518	0.035422
H80	H	0.431920	0.197124	0.085842
H81	H	0.357969	0.177816	0.142547
C82	C	0.549457	0.172321	-0.092145
H83	H	0.582658	0.180332	-0.040389
H84	H	0.497965	0.197015	-0.091333
H85	H	0.579220	0.178276	-0.147444
C86	C	0.822235	-0.743437	0.000014
H87	H	0.777240	-0.713197	0.000005
H88	H	0.818635	-0.766334	0.053601
H89	H	0.818663	-0.766320	-0.053590
H90	H	0.545809	0.155413	0.093430
C91	C	0.831851	-0.196943	0.000047
H92	H	0.786853	-0.166706	0.000039
H93	H	0.828249	-0.219844	0.053629
H94	H	0.828288	-0.219823	-0.053563
C95	C	1.223992	-0.505441	0.000068
H96	H	1.269906	-0.483275	0.000083
H97	H	1.226783	-0.528898	-0.053520
H98	H	1.226746	-0.528895	0.053671
H99	H	0.559458	0.088316	-0.153019
H100	H	1.132698	-0.107228	0.000105
C101	C	1.152470	-0.225410	0.000085
H102	H	1.198386	-0.203245	0.000103
H103	H	1.155259	-0.248863	-0.053508
H104	H	1.155224	-0.248867	0.053684
H105	H	0.855713	-0.082617	0.000073
H106	H	0.854341	0.116999	0.420326
C107	C	0.933509	0.184120	0.590005
H108	H	0.981656	0.180693	0.628945
H109	H	0.885580	0.199976	0.624103
H110	H	0.942223	0.208431	0.539374
H111	H	0.401642	0.153804	-0.091771
H112	H	0.905199	0.008737	0.420881
C113	C	1.145046	-0.647184	0.000044
H114	H	1.190041	-0.677424	0.000042
H115	H	1.148621	-0.624294	0.053634
H116	H	1.148642	-0.624294	-0.053558
C117	C	1.142845	-0.771927	0.000034
H118	H	1.188773	-0.749773	0.000046
H119	H	1.145616	-0.795378	-0.053560
H120	H	1.145595	-0.795385	0.053632
H121	H	0.930067	0.169068	0.420943
C122	C	0.824428	-0.618706	0.000020
H123	H	0.778511	-0.640870	0.000026
H124	H	0.821664	-0.595246	-0.053569
H125	H	0.821651	-0.595257	0.053622
H126	H	1.090418	0.134821	0.578193
C127	C	1.147122	0.047116	0.588242
H128	H	1.176415	0.029068	0.536997
H129	H	1.124333	0.019131	0.624729
H130	H	1.184941	0.065929	0.624591
C131	C	0.750708	-0.463392	-0.000022
H132	H	0.760929	-0.503996	-0.000019
H133	H	0.719539	-0.450861	-0.053621
H134	H	0.719500	-0.450872	0.053570
H135	H	1.091183	0.133993	0.419259
H136	H	1.022009	-0.016511	0.578732
H137	H	0.577921	-0.008349	0.062975
C138	C	0.887319	0.001340	0.589917
H139	H	0.861841	0.030590	0.629576
H140	H	0.897390	-0.033565	0.623287
H141	H	0.850847	-0.003382	0.539412
H142	H	1.128548	0.057860	0.420631
C143	C	0.406353	0.081882	0.176851
H144	H	0.376785	0.050356	0.162194
H145	H	0.370645	0.109364	0.211108
H146	H	0.454649	0.068949	0.212682
H147	H	1.204228	-0.387266	0.000072
C148	C	0.427860	-0.018957	0.085437
H149	H	0.388050	0.004677	0.121477
H150	H	0.476530	-0.030405	0.121572
H151	H	0.403700	-0.051883	0.065710
H152	H	0.577379	-0.008516	-0.062950
C153	C	0.426451	-0.018810	-0.084119
H154	H	0.386429	0.004998	-0.119631
H155	H	0.402176	-0.051591	-0.063931
H156	H	0.474603	-0.030480	-0.120960
H157	H	0.416162	0.085686	-0.153376
