data_functionalizedCrystal
_audit_creation_method	'MofGen! by Chris Wilmer'
_symmetry_space_group_name_H-M	'P1'
_symmetry_Int_Tables_number	1
_symmetry_cell_setting	triclinic
loop_
_symmetry_equiv_pos_as_xyz
  x,y,z
_cell_length_a	12.811457
_cell_length_b	15.625429
_cell_length_c	11.892095
_cell_angle_alpha	75.870647
_cell_angle_beta	91.498327
_cell_angle_gamma	85.833104
loop_
_atom_site_label
_atom_site_type_symbol
_atom_site_fract_x
_atom_site_fract_y
_atom_site_fract_z
O1	O	1.392902	0.121362	-0.000948
O2	O	1.089878	0.132395	-0.036537
O3	O	1.245781	-0.001098	0.034166
O4	O	1.236999	0.254855	-0.071651
O5	O	1.232781	0.010015	0.216285
O6	O	1.076878	0.143508	0.145582
O7	O	1.379902	0.132475	0.181171
Zn8	Zn	1.226326	0.139756	0.192292
Zn9	Zn	1.243453	0.125114	-0.047658
O10	O	1.223999	0.265968	0.110468
C11	C	1.044529	0.136993	0.050933
C12	C	0.928772	0.134125	0.040240
C13	C	0.697078	0.140837	0.218723
C14	C	0.588314	0.138143	0.208683
C15	C	0.602477	0.126036	0.010121
C16	C	0.711241	0.128730	0.020162
C17	C	0.758538	0.136132	0.124466
C18	C	0.867304	0.138833	0.134503
C19	C	0.881465	0.126720	-0.064055
C20	C	0.772701	0.124026	-0.074095
C21	C	1.237596	-0.028323	0.138488
C22	C	1.232563	-0.125999	0.178003
C23	C	1.251408	-0.477532	-0.188367
C24	C	1.246672	-0.569311	-0.151203
C25	C	1.232501	-0.557182	0.047331
C26	C	1.237241	-0.465401	0.010184
C27	C	1.246694	-0.425583	-0.107666
C28	C	1.232527	-0.413452	0.090885
C29	C	1.237261	-0.321678	0.053741
C30	C	1.246710	-0.281853	-0.064105
C31	C	1.251428	-0.333809	-0.144811
C32	C	1.223067	-0.453271	0.208734
C33	C	1.218353	-0.401322	0.289435
C34	C	1.223094	-0.309547	0.252292
C35	C	1.232543	-0.269722	0.134446
C36	C	1.218376	-0.257591	0.332997
C37	C	1.223111	-0.165817	0.295853
C38	C	1.237278	-0.177948	0.097302
C39	C	1.425251	0.127877	0.093699
C40	C	1.541009	0.130744	0.104384
C41	C	1.232184	0.293192	0.006144
C42	C	1.237217	0.390868	-0.033378
N43	N	1.214645	0.149748	0.356053
N44	N	1.255143	0.115115	-0.211415
C45	C	1.336425	0.045533	0.647904
C46	C	1.328268	0.052524	0.762544
C47	C	1.190168	0.170716	0.699976
C48	C	1.198326	0.163725	0.585336
C49	C	1.271458	0.101133	0.559305
C50	C	1.279620	0.094147	0.444662
C51	C	1.141515	0.212334	0.382097
C52	C	1.133358	0.219325	0.496737
H53	H	0.735586	0.146876	0.303647
H54	H	1.395979	-0.005426	0.626708
F55	F	0.946882	0.121725	-0.164382
H56	H	1.244984	-0.145527	0.001338
H57	H	1.250502	-0.611604	-0.216930
H58	H	0.538276	0.141979	0.285435
F59	F	1.397414	-0.006654	0.856836
F60	F	1.251751	-0.184178	-0.103638
F61	F	0.917639	0.146714	0.245510
H62	H	1.259134	-0.301388	-0.240775
F63	F	1.055526	0.285935	0.524454
F64	F	0.552130	0.118092	-0.100849
F65	F	1.072374	0.271513	0.287790
H66	H	1.259114	-0.445111	-0.284331
H67	H	0.734177	0.117995	-0.159015
F68	F	1.218025	-0.550946	0.248264
F69	F	1.222433	-0.599569	0.172751
F70	F	1.208285	-0.443708	0.414855
H71	H	1.130619	0.221672	0.721189
H72	H	1.210670	-0.290024	0.428950
F73	F	1.218098	-0.110527	0.381744
F74	F	1.357455	0.027533	0.416959
