data_functionalizedCrystal
_audit_creation_method	'MofGen! by Chris Wilmer'
_symmetry_space_group_name_H-M	'P1'
_symmetry_Int_Tables_number	1
_symmetry_cell_setting	triclinic
loop_
_symmetry_equiv_pos_as_xyz
  x,y,z
_cell_length_a	15.995350
_cell_length_b	17.019294
_cell_length_c	15.072220
_cell_angle_alpha	86.119892
_cell_angle_beta	89.991149
_cell_angle_gamma	83.443443
loop_
_atom_site_label
_atom_site_type_symbol
_atom_site_fract_x
_atom_site_fract_y
_atom_site_fract_z
O1	O	1.110876	0.101674	-0.081474
O2	O	1.360876	0.351674	0.168526
O3	O	1.610876	0.601674	0.418526
O4	O	1.860876	0.851674	0.668526
O5	O	0.867085	0.114230	-0.082451
O6	O	1.117085	0.364230	0.167549
O7	O	1.367085	0.614230	0.417549
O8	O	1.617085	0.864230	0.667549
O9	O	0.995780	-0.006880	-0.073185
O10	O	1.245780	0.243120	0.176815
O11	O	1.495780	0.493120	0.426815
O12	O	1.745780	0.743120	0.676815
O13	O	0.982181	0.222784	-0.090741
O14	O	1.232181	0.472784	0.159259
O15	O	1.482181	0.722784	0.409259
O16	O	1.732181	0.972784	0.659259
O17	O	0.995748	-0.006873	0.074380
O18	O	1.245748	0.243127	0.324380
O19	O	1.495748	0.493127	0.574380
O20	O	1.745748	0.743127	0.824380
O21	O	0.867054	0.114237	0.065113
O22	O	1.117054	0.364237	0.315113
O23	O	1.367054	0.614237	0.565113
O24	O	1.617054	0.864237	0.815113
O25	O	1.110844	0.101681	0.066091
O26	O	1.360844	0.351681	0.316091
O27	O	1.610844	0.601681	0.566091
O28	O	1.860844	0.851681	0.816091
Zn29	Zn	0.988944	0.107960	0.089031
Zn30	Zn	1.238944	0.357960	0.339031
Zn31	Zn	1.488944	0.607960	0.589031
Zn32	Zn	1.738944	0.857960	0.839031
Zn33	Zn	0.988986	0.107951	-0.105392
Zn34	Zn	1.238986	0.357951	0.144608
Zn35	Zn	1.488986	0.607951	0.394608
Zn36	Zn	1.738986	0.857951	0.644608
O37	O	0.982149	0.222791	0.056824
O38	O	1.232149	0.472791	0.306824
O39	O	1.482149	0.722791	0.556824
O40	O	1.732149	0.972791	0.806824
C41	C	0.835875	0.113714	-0.008632
C42	C	1.085875	0.363714	0.241368
C43	C	1.335875	0.613714	0.491368
C44	C	1.585875	0.863714	0.741368
C45	C	0.742927	0.112158	-0.008520
C46	C	0.992927	0.362158	0.241480
C47	C	1.242927	0.612158	0.491480
C48	C	1.492927	0.862158	0.741480
C49	C	0.995248	-0.036266	0.002842
C50	C	1.245248	0.213734	0.252842
C51	C	1.495248	0.463734	0.502842
C52	C	1.745248	0.713734	0.752842
C53	C	0.993700	-0.123836	0.009530
C54	C	1.243700	0.126164	0.259530
C55	C	1.493700	0.376164	0.509530
C56	C	1.743700	0.626164	0.759530
C57	C	0.405186	0.106569	-0.008074
C58	C	0.655186	0.356569	0.241926
C59	C	0.905186	0.606569	0.491926
C60	C	1.155186	0.856569	0.741926
C61	C	0.452722	0.020317	-0.001151
C62	C	0.702722	0.270317	0.248849
C63	C	0.952722	0.520317	0.498849
C64	C	1.202722	0.770317	0.748849
C65	C	0.549410	0.021873	-0.001609
C66	C	0.799410	0.271873	0.248391
C67	C	1.049410	0.521873	0.498391
C68	C	1.299410	0.771873	0.748391
C69	C	0.572743	0.109342	-0.008295
C70	C	0.822743	0.359342	0.241705
C71	C	1.072743	0.609342	0.491705
C72	C	1.322743	0.859342	0.741705
C73	C	0.531624	0.151880	-0.095810
C74	C	0.781624	0.401880	0.154190
C75	C	1.031624	0.651880	0.404190
C76	C	1.281624	0.901880	0.654190
C77	C	0.434991	0.149714	-0.095709
C78	C	0.684991	0.399714	0.154291
C79	C	0.934991	0.649714	0.404291
C80	C	1.184991	0.899714	0.654291
C81	C	0.434614	0.151503	0.071964
C82	C	0.684614	0.401503	0.321964
C83	C	0.934614	0.651503	0.571964
C84	C	1.184614	0.901503	0.821964
C85	C	0.531559	0.151483	0.073073
C86	C	0.781559	0.401483	0.323073
C87	C	1.031559	0.651483	0.573073
C88	C	1.281559	0.901483	0.823073
C89	C	0.667439	0.110913	-0.008423
C90	C	0.917439	0.360913	0.241577
C91	C	1.167439	0.610913	0.491577
C92	C	1.417439	0.860913	0.741577
C93	C	0.310490	0.105001	-0.007952
C94	C	0.560490	0.355001	0.242048
C95	C	0.810490	0.605001	0.492048
C96	C	1.060490	0.855001	0.742048
C97	C	0.992992	-0.164976	-0.067765
C98	C	1.242992	0.085024	0.182235
C99	C	1.492992	0.335024	0.432235
C100	C	1.742992	0.585024	0.682235
C101	C	0.991532	-0.247256	-0.061478
C102	C	1.241532	0.002744	0.188522
C103	C	1.491532	0.252744	0.438522
C104	C	1.741532	0.502744	0.688522
C105	C	0.990786	-0.288396	0.022105
C106	C	1.240786	-0.038396	0.272105
C107	C	1.490786	0.211604	0.522105
C108	C	1.740786	0.461604	0.772105
C109	C	0.991491	-0.247250	0.099405
C110	C	1.241491	0.002750	0.349405
C111	C	1.491491	0.252750	0.599405
C112	C	1.741491	0.502750	0.849405
C113	C	0.992945	-0.164971	0.093118
C114	C	1.242945	0.085029	0.343118
C115	C	1.492945	0.335029	0.593118
C116	C	1.742945	0.585029	0.843118
C117	C	0.986389	-0.536828	0.045114
C118	C	1.236389	-0.286828	0.295114
C119	C	1.486389	-0.036828	0.545114
C120	C	1.736389	0.213172	0.795114
C121	C	0.984937	-0.619114	0.051396
C122	C	1.234937	-0.369114	0.301396
C123	C	1.484937	-0.119114	0.551396
C124	C	1.734937	0.130886	0.801396
C125	C	0.984976	-0.619113	-0.109488
C126	C	1.234976	-0.369113	0.140512
C127	C	1.484976	-0.119113	0.390512
C128	C	1.734976	0.130887	0.640512
C129	C	0.986435	-0.536833	-0.115768
C130	C	1.236435	-0.286833	0.134232
C131	C	1.486435	-0.036833	0.384232
C132	C	1.736435	0.213167	0.634232
C133	C	0.987136	-0.495693	-0.038468
C134	C	1.237136	-0.245693	0.211532
C135	C	1.487136	0.004307	0.461532
C136	C	1.737136	0.254307	0.711532
C137	C	0.989296	-0.372501	0.028533
C138	C	1.239296	-0.122501	0.278533
C139	C	1.489296	0.127499	0.528533
C140	C	1.739296	0.377499	0.778533
C141	C	0.988620	-0.411590	-0.044897
C142	C	1.238620	-0.161590	0.205103
C143	C	1.488620	0.088410	0.455103
C144	C	1.738620	0.338410	0.705103
C145	C	1.142054	0.102196	-0.007731
C146	C	1.392054	0.352196	0.242269
C147	C	1.642054	0.602196	0.492269
C148	C	1.892054	0.852196	0.742269
C149	C	1.235002	0.103753	-0.007849
C150	C	1.485002	0.353753	0.242151
C151	C	1.735002	0.603753	0.492151
C152	C	1.985002	0.853753	0.742151
C153	C	0.982681	0.252177	-0.019205
C154	C	1.232681	0.502177	0.230795
C155	C	1.482681	0.752177	0.480795
C156	C	1.732681	1.002177	0.730795
C157	C	0.984229	0.339747	-0.025899
C158	C	1.234229	0.589747	0.224101
C159	C	1.484229	0.839747	0.474101
C160	C	1.734229	1.089747	0.724101
N161	N	0.988921	0.107965	0.221719
N162	N	1.238921	0.357965	0.471719
N163	N	1.488921	0.607965	0.721719
N164	N	1.738921	0.857965	0.971719
N165	N	0.989015	0.107939	-0.238080
N166	N	1.239015	0.357939	0.011920
N167	N	1.489015	0.607939	0.261920
N168	N	1.739015	0.857939	0.511920
C169	C	0.988984	0.107948	0.580922
C170	C	1.238984	0.357948	0.830922
C171	C	1.488984	0.607948	1.080922
C172	C	1.738984	0.857948	1.330922
C173	C	0.919891	0.172534	0.538373
C174	C	1.169891	0.422534	0.788373
C175	C	1.419891	0.672534	1.038373
C176	C	1.669891	0.922534	1.288373
C177	C	0.920049	0.172770	0.435530
C178	C	1.170049	0.422770	0.685530
C179	C	1.420049	0.672770	0.935530
C180	C	1.670049	0.922770	1.185530
C181	C	0.988952	0.107957	0.402717
C182	C	1.238952	0.357957	0.652717
C183	C	1.488952	0.607957	0.902717
C184	C	1.738952	0.857957	1.152717
C185	C	1.076296	0.125934	0.438641
C186	C	1.326296	0.375934	0.688641
C187	C	1.576296	0.625934	0.938641
C188	C	1.826296	0.875934	1.188641
C189	C	1.075908	0.126393	0.541464
C190	C	1.325908	0.376393	0.791464
C191	C	1.575908	0.626393	1.041464
C192	C	1.825908	0.876393	1.291464
C193	C	0.971512	0.025193	0.549347
C194	C	1.221512	0.275193	0.799347
C195	C	1.471512	0.525193	1.049347
C196	C	1.721512	0.775193	1.299347
C197	C	0.969507	0.025745	0.446441
C198	C	1.219507	0.275745	0.696441
C199	C	1.469507	0.525745	0.946441
C200	C	1.719507	0.775745	1.196441
C201	C	0.988940	0.107960	0.302004
C202	C	1.238940	0.357960	0.552004
C203	C	1.488940	0.607960	0.802004
C204	C	1.738940	0.857960	1.052004
C205	C	0.989002	0.107946	0.681636
C206	C	1.239002	0.357946	0.931636
C207	C	1.489002	0.607946	1.181636
C208	C	1.739002	0.857946	1.431636
H209	H	0.577866	-0.011565	0.061351
H210	H	0.827866	0.238435	0.311351
H211	H	1.077866	0.488435	0.561351
H212	H	1.327866	0.738435	0.811351
H213	H	0.402668	0.213038	-0.104373
H214	H	0.652668	0.463038	0.145627
H215	H	0.902668	0.713038	0.395627
H216	H	1.152668	0.963038	0.645627
H217	H	0.545673	0.216141	-0.103855
H218	H	0.795673	0.466141	0.146145
H219	H	1.045673	0.716141	0.396145
H220	H	1.295673	0.966141	0.646145
H221	H	0.988691	-0.406006	0.096586
H222	H	1.238691	-0.156006	0.346586
H223	H	1.488691	0.093994	0.596586
H224	H	1.738691	0.343994	0.846586
F225	F	0.551537	0.234857	0.073353
F226	F	0.801537	0.484857	0.323353
F227	F	1.051537	0.734857	0.573353
F228	F	1.301537	0.984857	0.823353
F229	F	0.993791	-0.121199	-0.156725
F230	F	1.243791	0.128801	0.093275
F231	F	1.493791	0.378801	0.343275
F232	F	1.743791	0.628801	0.593275
H233	H	0.930883	0.233600	0.559545
H234	H	1.180883	0.483600	0.809545
H235	H	1.430883	0.733600	1.059545
H236	H	1.680883	0.983600	1.309545
H237	H	1.128923	0.081206	0.569796
H238	H	1.378923	0.331206	0.819796
H239	H	1.628923	0.581206	1.069796
H240	H	1.878923	0.831206	1.319796
H241	H	1.128934	0.080144	0.417676
H242	H	1.378934	0.330144	0.667676
H243	H	1.628934	0.580144	0.917676
H244	H	1.878934	0.830144	1.167676
H245	H	0.414098	0.123308	0.137989
H246	H	0.664098	0.373308	0.387989
H247	H	0.914098	0.623308	0.637989
H248	H	1.164098	0.873308	0.887989
F249	F	0.835173	0.158810	0.403635
F250	F	1.085173	0.408810	0.653635
F251	F	1.335173	0.658810	0.903635
F252	F	1.585173	0.908810	1.153635
H253	H	0.560047	0.122329	-0.156262
H254	H	0.810047	0.372329	0.093738
H255	H	1.060047	0.622329	0.343738
H256	H	1.310047	0.872329	0.593738
H257	H	0.984404	-0.652618	-0.172422
H258	H	1.234404	-0.402618	0.077578
H259	H	1.484404	-0.152618	0.327578
H260	H	1.734404	0.097382	0.577578
H261	H	1.092077	0.185598	0.408312
H262	H	1.342077	0.435598	0.658312
H263	H	1.592077	0.685598	0.908312
H264	H	1.842077	0.935598	1.158312
F265	F	0.990779	-0.291037	-0.143746
F266	F	1.240779	-0.041037	0.106254
F267	F	1.490779	0.208963	0.356254
F268	F	1.740779	0.458963	0.606254
H269	H	0.984326	-0.652607	0.119462
H270	H	1.234326	-0.402607	0.369462
H271	H	1.484326	-0.152607	0.619462
H272	H	1.734326	0.097393	0.869462
F273	F	0.567211	0.110831	0.157660
F274	F	0.817211	0.360831	0.407660
F275	F	1.067211	0.610831	0.657660
F276	F	1.317211	0.860831	0.907660
H277	H	1.016569	-0.024569	0.424582
H278	H	1.266569	0.225431	0.674582
H279	H	1.516569	0.475431	0.924582
H280	H	1.766569	0.725431	1.174582
H281	H	0.402777	0.215097	0.067673
H282	H	0.652777	0.465097	0.317673
H283	H	0.902777	0.715097	0.567673
H284	H	1.152777	0.965097	0.817673
F285	F	0.987124	-0.493053	0.127385
F286	F	1.237124	-0.243053	0.377385
F287	F	1.487124	0.006947	0.627385
F288	F	1.737124	0.256947	0.877385
F289	F	0.989416	-0.367804	-0.133849
F290	F	1.239416	-0.117804	0.116151
F291	F	1.489416	0.132196	0.366151
F292	F	1.739416	0.382196	0.616151
H293	H	0.931196	0.234181	0.406222
H294	H	1.181196	0.484181	0.656222
H295	H	1.431196	0.734181	0.906222
H296	H	1.681196	0.984181	1.156222
H297	H	0.987044	-0.503342	-0.183830
H298	H	1.237044	-0.253342	0.066170
H299	H	1.487044	-0.003342	0.316170
H300	H	1.737044	0.246658	0.566170
H301	H	1.091319	0.186745	0.560833
H302	H	1.341319	0.436745	0.810833
H303	H	1.591319	0.686745	1.060833
H304	H	1.841319	0.936745	1.310833
F305	F	0.834747	0.158756	0.571768
F306	F	1.084747	0.408756	0.821768
F307	F	1.334747	0.658756	1.071768
F308	F	1.584747	0.908756	1.321768
F309	F	0.990688	-0.291036	0.188361
F310	F	1.240688	-0.041036	0.438361
F311	F	1.490688	0.208964	0.688361
F312	F	1.740688	0.458964	0.938361
F313	F	0.890064	0.002610	0.585013
F314	F	1.140064	0.252610	0.835013
F315	F	1.390064	0.502610	1.085013
F316	F	1.640064	0.752610	1.335013
F317	F	0.993698	-0.121187	0.175386
F318	F	1.243698	0.128813	0.425386
F319	F	1.493698	0.378813	0.675386
F320	F	1.743698	0.628813	0.925386
H321	H	0.905257	0.012102	0.423107
H322	H	1.155257	0.262102	0.673107
H323	H	1.405257	0.512102	0.923107
H324	H	1.655257	0.762102	1.173107
H325	H	0.433182	-0.014004	-0.058623
H326	H	0.683182	0.235996	0.191377
H327	H	0.933182	0.485996	0.441377
H328	H	1.183182	0.735996	0.691377
F329	F	0.428545	-0.024744	0.081278
F330	F	0.678545	0.225256	0.331278
F331	F	0.928545	0.475256	0.581278
F332	F	1.178545	0.725256	0.831278
F333	F	1.037371	-0.037629	0.585939
F334	F	1.287371	0.212371	0.835939
F335	F	1.537371	0.462371	1.085939
F336	F	1.787371	0.712371	1.335939
H337	H	0.577321	-0.011796	-0.059544
H338	H	0.827321	0.238204	0.190456
H339	H	1.077321	0.488204	0.440456
H340	H	1.327321	0.738204	0.690456
H341	H	0.416733	0.118687	-0.156326
H342	H	0.666733	0.368687	0.093674
H343	H	0.916733	0.618687	0.343674
H344	H	1.166733	0.868687	0.593674
