data_functionalizedCrystal
_audit_creation_method	'MofGen! by Chris Wilmer'
_symmetry_space_group_name_H-M	'P1'
_symmetry_Int_Tables_number	1
_symmetry_cell_setting	triclinic
loop_
_symmetry_equiv_pos_as_xyz
  x,y,z
_cell_length_a	14.853567
_cell_length_b	19.188930
_cell_length_c	13.930277
_cell_angle_alpha	89.990320
_cell_angle_beta	89.995755
_cell_angle_gamma	83.389856
loop_
_atom_site_label
_atom_site_type_symbol
_atom_site_fract_x
_atom_site_fract_y
_atom_site_fract_z
O1	O	1.195862	0.091155	-0.079776
O2	O	0.933342	0.102014	-0.079794
O3	O	1.072177	-0.005046	-0.079766
O4	O	1.057026	0.198215	-0.079804
O5	O	1.072158	-0.005048	0.079896
O6	O	0.933322	0.102012	0.079868
O7	O	1.195842	0.091153	0.079886
Zn8	Zn	1.064579	0.096582	0.105227
Zn9	Zn	1.064605	0.096585	-0.105135
O10	O	1.057007	0.198213	0.079858
C11	C	0.899746	0.101521	0.000035
C12	C	0.799671	0.100046	0.000029
C13	C	0.387525	0.030218	0.000064
C14	C	0.365537	0.157407	0.000039
C15	C	0.459563	0.158794	0.000036
C16	C	0.517574	0.095891	0.000045
C17	C	0.481560	0.031602	0.000058
C18	C	0.495585	0.223081	0.000013
C19	C	0.589616	0.224470	0.000009
C20	C	0.647629	0.161567	0.000025
C21	C	0.611610	0.097276	0.000039
C22	C	0.669621	0.034373	0.000048
C23	C	0.633603	-0.029919	0.000069
C24	C	0.539574	-0.031301	0.000074
C25	C	0.741659	0.162949	0.000020
C26	C	0.763656	0.035757	0.000042
C27	C	1.071677	-0.031060	0.000068
C28	C	1.070204	-0.108569	0.000076
C29	C	1.151668	-0.153221	0.000086
C30	C	1.150285	-0.226050	0.000071
C31	C	1.067432	-0.254223	0.000065
C32	C	0.985957	-0.209561	0.000049
C33	C	0.987343	-0.136734	0.000055
N34	N	1.004095	-0.362440	0.054396
N35	N	1.002783	-0.431623	0.054393
C36	C	1.063251	-0.473645	0.000045
N37	N	1.125093	-0.443873	-0.054287
N38	N	1.126407	-0.374684	-0.054279
C39	C	1.065920	-0.333190	0.000058
C40	C	1.143220	-0.597267	0.000037
C41	C	1.141833	-0.670096	0.000015
C42	C	0.977503	-0.653606	0.000003
C43	C	0.978893	-0.580778	0.000015
C44	C	1.061754	-0.552613	0.000036
C45	C	1.229438	0.091646	0.000055
C46	C	1.329513	0.093120	0.000055
C47	C	1.057507	0.224226	0.000022
C48	C	1.058980	0.301736	0.000008
N49	N	1.064569	0.096579	0.248793
N50	N	1.064623	0.096582	-0.248701
C51	C	1.003126	0.143972	0.701050
C52	C	1.126108	0.049192	0.701044
C53	C	1.126098	0.049190	0.600548
C54	C	1.064601	0.096580	0.550299
C55	C	1.003115	0.143973	0.600545
C56	C	1.187588	0.001803	0.550295
C57	C	1.187581	0.001799	0.449793
C58	C	1.126079	0.049187	0.399541
C59	C	1.064590	0.096581	0.449794
C60	C	1.003094	0.143971	0.399544
C61	C	0.941600	0.191363	0.449794
C62	C	0.941614	0.191361	0.550293
C63	C	1.126065	0.049189	0.299043
C64	C	1.003083	0.143972	0.299039
H65	H	0.448345	0.274293	-0.000004
F66	F	0.892186	-0.533253	0.000008
H67	H	1.208174	-0.706452	0.000018
H68	H	0.770981	0.215294	0.000005
F69	F	0.889324	-0.683584	-0.000008
F70	F	0.349192	-0.038203	0.000091
H71	H	0.953001	0.182561	0.258132
F72	F	1.231407	-0.567290	0.000064
F73	F	0.937679	0.194405	0.754527
H74	H	1.176181	0.010611	0.741960
F75	F	0.876158	0.241802	0.396304
H76	H	1.176137	0.010607	0.258133
F77	F	0.303795	0.224348	0.000017
F78	F	0.627940	0.292895	-0.000012
H79	H	0.891548	0.229946	0.591213
F80	F	0.900634	-0.089210	0.000044
F81	F	1.253040	-0.048627	0.603773
F82	F	0.897779	-0.239545	0.000036
H83	H	0.810884	-0.015466	0.000053
F84	F	0.695354	-0.096862	0.000072
H85	H	0.510239	-0.083644	0.000114
F86	F	1.236994	-0.273581	0.000080
H87	H	1.219140	-0.130295	0.000100
F88	F	1.253025	-0.048639	0.396320
