data_functionalizedCrystal
_audit_creation_method	'MofGen! by Chris Wilmer'
_symmetry_space_group_name_H-M	'P1'
_symmetry_Int_Tables_number	1
_symmetry_cell_setting	triclinic
loop_
_symmetry_equiv_pos_as_xyz
  x,y,z
_cell_length_a	19.188930
_cell_length_b	14.519709
_cell_length_c	12.996460
_cell_angle_alpha	89.998766
_cell_angle_beta	89.979925
_cell_angle_gamma	83.412462
loop_
_atom_site_label
_atom_site_type_symbol
_atom_site_fract_x
_atom_site_fract_y
_atom_site_fract_z
O1	O	-0.926557	-0.115129	0.085900
O2	O	-0.593224	0.218204	0.419233
O3	O	-0.259890	0.551538	0.752567
O4	O	-0.723301	-0.130628	0.085830
O5	O	-0.389968	0.202705	0.419163
O6	O	-0.056634	0.536038	0.752496
O7	O	-0.830318	0.011393	0.085857
O8	O	-0.496985	0.344727	0.419191
O9	O	-0.163651	0.678060	0.752524
O10	O	-0.819540	-0.257151	0.085872
O11	O	-0.486207	0.076183	0.419206
O12	O	-0.152873	0.409516	0.752539
O13	O	-0.830304	0.011385	-0.085276
O14	O	-0.496971	0.344718	0.248057
O15	O	-0.163638	0.678052	0.581390
O16	O	-0.723287	-0.130637	-0.085304
O17	O	-0.389954	0.202697	0.248029
O18	O	-0.056620	0.536030	0.581363
O19	O	-0.926543	-0.115137	-0.085234
O20	O	-0.593210	0.218196	0.248099
O21	O	-0.259877	0.551529	0.581433
Cu22	Cu	-0.824914	-0.122888	-0.100895
Cu23	Cu	-0.491581	0.210446	0.232438
Cu24	Cu	-0.158247	0.543779	0.565772
Cu25	Cu	-0.824930	-0.122878	0.101491
Cu26	Cu	-0.491597	0.210455	0.434824
Cu27	Cu	-0.158264	0.543789	0.768157
O28	O	-0.819526	-0.257159	-0.085262
O29	O	-0.486193	0.076174	0.248072
O30	O	-0.152859	0.409508	0.581405
C31	C	-0.697281	-0.130130	0.000254
C32	C	-0.363948	0.203203	0.333587
C33	C	-0.030615	0.536536	0.666920
C34	C	-0.619771	-0.128624	0.000227
C35	C	-0.286438	0.204710	0.333560
C36	C	0.046895	0.538043	0.666893
C37	C	-0.829809	0.045746	0.000290
C38	C	-0.496475	0.379079	0.333623
C39	C	-0.163142	0.712412	0.666957
C40	C	-0.828304	0.148118	0.000289
C41	C	-0.494970	0.481451	0.333622
C42	C	-0.161637	0.814784	0.666956
C43	C	-0.952563	-0.115635	0.000344
C44	C	-0.619230	0.217698	0.333678
C45	C	-0.285896	0.551032	0.667011
C46	C	-1.030073	-0.117142	0.000378
C47	C	-0.696740	0.216192	0.333712
C48	C	-0.363406	0.549525	0.667045
C49	C	-0.575144	-0.211957	0.000247
C50	C	-0.241811	0.121376	0.333581
C51	C	0.091523	0.454709	0.666914
C52	C	-0.502315	-0.210542	0.000259
C53	C	-0.168982	0.122791	0.333592
C54	C	0.164351	0.456125	0.666925
C55	C	-0.474117	-0.125788	0.000270
C56	C	-0.140784	0.207545	0.333603
C57	C	0.192550	0.540879	0.666936
C58	C	-0.518754	-0.042443	0.000243
C59	C	-0.185421	0.290890	0.333577
C60	C	0.147913	0.624223	0.666910
C61	C	-0.591581	-0.043861	0.000222
C62	C	-0.258248	0.289472	0.333555
C63	C	0.075085	0.622805	0.666888
N64	N	-0.365911	-0.061001	0.058552
N65	N	-0.032577	0.272332	0.391885
N66	N	0.300756	0.605665	0.725219
N67	N	-0.296727	-0.059660	0.058575
N68	N	0.036606	0.273673	0.391908
N69	N	0.369939	0.607006	0.725241
C70	C	-0.254693	-0.121511	0.000332
C71	C	0.078640	0.211822	0.333666
C72	C	0.411974	0.545156	0.666999
N73	N	-0.284454	-0.184768	-0.057920
N74	N	0.048879	0.148566	0.275413
N75	N	0.382212	0.481899	0.608746
N76	N	-0.353644	-0.186112	-0.057938
N77	N	-0.020310	0.147222	0.275395
N78	N	0.313023	0.480555	0.608728
C79	C	-0.395149	-0.124241	0.000292
C80	C	-0.061816	0.209092	0.333626
C81	C	0.271518	0.542425	0.666959
C82	C	-0.131096	-0.203315	0.000364
C83	C	0.202237	0.130018	0.333697
C84	C	0.535571	0.463351	0.667031
C85	C	-0.058266	-0.201896	0.000369
C86	C	0.275067	0.131437	0.333702
C87	C	0.608401	0.464770	0.667035
C88	C	-0.074706	-0.033796	0.000364
C89	C	0.258627	0.299538	0.333697
C90	C	0.591960	0.632871	0.667030
C91	C	-0.147535	-0.035217	0.000348
C92	C	0.185799	0.298116	0.333682
C93	C	0.519132	0.631450	0.667015
C94	C	-0.175725	-0.119979	0.000353
C95	C	0.157609	0.213354	0.333687
C96	C	0.490942	0.546687	0.667020
C97	C	-0.820035	-0.291511	0.000308
C98	C	-0.486702	0.041822	0.333641
C99	C	-0.153369	0.375155	0.666975
C100	C	-0.821541	-0.393883	0.000316
C101	C	-0.488207	-0.060550	0.333649
C102	C	-0.154874	0.272783	0.666982
N103	N	-0.824908	-0.122894	-0.243242
N104	N	-0.491574	0.210439	0.090091
N105	N	-0.158241	0.543773	0.423425
C106	C	-0.822762	0.522979	0.000314
C107	C	-0.489429	0.856312	0.333647
C108	C	-0.156096	1.189646	0.666981
C109	C	-0.824301	0.418681	0.000307
C110	C	-0.490968	0.752014	0.333640
C111	C	-0.157634	1.085347	0.666973
C112	C	-0.825533	0.335552	0.000300
C113	C	-0.492199	0.668885	0.333634
C114	C	-0.158866	1.002218	0.666967
C115	C	-0.827072	0.231247	0.000295
C116	C	-0.493739	0.564580	0.333629
C117	C	-0.160405	0.897913	0.666962
C118	C	-0.824911	-0.122896	-0.336348
C119	C	-0.491577	0.210437	-0.003015
C120	C	-0.158244	0.543770	0.330319
C121	C	-0.824917	-0.122890	-0.453153
C122	C	-0.491584	0.210443	-0.119820
C123	C	-0.158250	0.543777	0.213514
C124	C	-0.824926	-0.122880	-0.546251
C125	C	-0.491593	0.210454	-0.212918
C126	C	-0.158259	0.543787	0.120415
C127	C	-0.824933	-0.122875	-0.663064
C128	C	-0.491600	0.210459	-0.329731
C129	C	-0.158267	0.543792	0.003603
N130	N	-0.824942	-0.122864	0.243838
N131	N	-0.491609	0.210469	0.577171
N132	N	-0.158275	0.543802	0.910504
H133	H	-0.598091	-0.280977	0.000253
H134	H	-0.264758	0.052356	0.333587
H135	H	0.068575	0.385689	0.666920
H136	H	-0.183871	0.032642	0.000337
H137	H	0.149462	0.365976	0.333671
H138	H	0.482795	0.699309	0.667004
H139	H	-0.021931	-0.269760	0.000380
H140	H	0.311403	0.063574	0.333713
H141	H	0.644736	0.396907	0.667046
F142	F	-0.161101	-0.293526	0.000361
F143	F	0.172233	0.039808	0.333695
F144	F	0.505566	0.373141	0.667028
F145	F	-0.044701	0.056407	0.000366
F146	F	0.288633	0.389740	0.333699
F147	F	0.621966	0.723073	0.667032
H148	H	-0.465973	-0.278404	0.000273
H149	H	-0.132640	0.054929	0.333606
H150	H	0.200694	0.388262	0.666939
H151	H	-0.627917	0.024001	0.000205
H152	H	-0.294584	0.357334	0.333539
H153	H	0.038749	0.690668	0.666872
F154	F	-0.488742	0.047758	0.000250
F155	F	-0.155409	0.381091	0.333584
F156	F	0.177924	0.714424	0.666917
