data_functionalizedCrystal
_audit_creation_method	'MofGen! by Chris Wilmer'
_symmetry_space_group_name_H-M	'P1'
_symmetry_Int_Tables_number	1
_symmetry_cell_setting	triclinic
loop_
_symmetry_equiv_pos_as_xyz
  x,y,z
_cell_length_a	14.519731
_cell_length_b	12.996460
_cell_length_c	10.654550
_cell_angle_alpha	89.994187
_cell_angle_beta	84.086892
_cell_angle_gamma	89.993791
loop_
_atom_site_label
_atom_site_type_symbol
_atom_site_fract_x
_atom_site_fract_y
_atom_site_fract_z
O1	O	1.224712	-0.085569	0.164752
O2	O	1.724712	0.414431	0.664752
O3	O	0.956338	-0.085570	0.184111
O4	O	1.456338	0.414430	0.684111
O5	O	1.096695	-0.085563	-0.008366
O6	O	1.596695	0.414437	0.491634
O7	O	1.084354	-0.085576	0.357230
O8	O	1.584354	0.414424	0.857230
O9	O	1.096679	0.085571	-0.008376
O10	O	1.596679	0.585571	0.491624
O11	O	0.956321	0.085563	0.184101
O12	O	1.456321	0.585563	0.684101
O13	O	1.224695	0.085565	0.164743
O14	O	1.724695	0.585565	0.664743
Cu15	Cu	1.090507	0.101190	0.174421
Cu16	Cu	1.590507	0.601190	0.674421
Cu17	Cu	1.090526	-0.101195	0.174433
Cu18	Cu	1.590526	0.398805	0.674433
O19	O	1.084338	0.085558	0.357220
O20	O	1.584338	0.585558	0.857220
C21	C	0.921965	-0.000004	0.183199
C22	C	1.421965	0.499996	0.683199
C23	C	0.819571	-0.000004	0.180481
C24	C	1.319571	0.499996	0.680481
N25	N	1.090500	0.243537	0.174412
N26	N	1.590500	0.743537	0.674412
C27	C	0.736416	-0.000008	0.178272
C28	C	1.236416	0.499992	0.678272
C29	C	0.632093	-0.000008	0.175513
C30	C	1.132093	0.499992	0.675513
C31	C	0.548942	-0.000008	0.173322
C32	C	1.048942	0.499992	0.673322
C33	C	0.444612	-0.000010	0.170563
C34	C	0.944612	0.499990	0.670563
C35	C	1.090518	0.663352	0.174438
C36	C	1.590518	1.163352	0.674438
C37	C	1.090510	0.546546	0.174435
C38	C	1.590510	1.046546	0.674435
C39	C	1.090510	0.453448	0.174426
C40	C	1.590510	0.953448	0.674426
C41	C	1.090501	0.336636	0.174421
C42	C	1.590501	0.836636	0.674421
C43	C	1.259068	-0.000004	0.165655
C44	C	1.759068	0.499996	0.665655
C45	C	1.361462	-0.000010	0.168373
C46	C	1.861462	0.499990	0.668373
N47	N	1.090532	0.756457	0.174437
N48	N	1.590532	1.256457	0.674437
C49	C	1.095781	0.000003	-0.055160
C50	C	1.595781	0.500003	0.444840
C51	C	1.093070	0.000002	-0.194578
C52	C	1.593070	0.500002	0.305422
C53	C	1.175710	0.000002	-0.274850
C54	C	1.675710	0.500002	0.225150
C55	C	1.173157	-0.000011	-0.405846
C56	C	1.673157	0.499989	0.094154
C57	C	1.005317	-0.000019	-0.376286
C58	C	1.505317	0.499981	0.123714
C59	C	1.007871	-0.000014	-0.245293
C60	C	1.507871	0.499986	0.254707
C61	C	1.270493	-0.059972	-0.602613
C62	C	1.770493	0.440028	-0.102613
C63	C	1.353138	-0.059954	-0.682890
C64	C	1.853138	0.440046	-0.182890
C65	C	1.428052	0.000019	-0.653434
C66	C	1.928052	0.500019	-0.153434
C67	C	1.420325	0.059998	-0.543704
C68	C	1.920325	0.559998	-0.043704
C69	C	1.337679	0.059990	-0.463434
C70	C	1.837679	0.559990	0.036566
C71	C	1.262768	-0.000007	-0.492888
C72	C	1.762768	0.499993	0.007112
C73	C	0.910540	0.059956	-0.048524
C74	C	1.410540	0.559956	0.451476
C75	C	0.827893	0.059954	0.031749
C76	C	1.327893	0.559954	0.531749
C77	C	0.752972	-0.000012	0.002297
C78	C	1.252972	0.499988	0.502297
C79	C	0.760690	-0.059976	-0.107436
C80	C	1.260690	0.440024	0.392564
C81	C	0.843337	-0.059975	-0.187709
C82	C	1.343337	0.440025	0.312291
C83	C	0.918259	-0.000011	-0.158248
C84	C	1.418259	0.499989	0.341752
C85	C	1.085252	-0.000011	0.404014
C86	C	1.585252	0.499989	0.904014
C87	C	1.087963	-0.000016	0.543432
C88	C	1.587963	0.499984	1.043432
H89	H	1.245085	0.000012	-0.233562
H90	H	1.745085	0.500012	0.266438
H91	H	0.849621	-0.108816	-0.277050
H92	H	1.349621	0.391184	0.222950
F93	F	0.819673	0.123796	0.148521
F94	F	1.319673	0.623796	0.648521
F95	F	1.190770	-0.123821	-0.633959
F96	F	1.690770	0.376179	-0.133959
F97	F	1.516005	0.000041	-0.738879
F98	F	2.016005	0.500041	-0.238879
F99	F	1.361359	-0.123790	-0.799668
F100	F	1.861359	0.376210	-0.299668
F101	F	0.990282	0.123777	-0.017166
F102	F	1.490282	0.623777	0.482834
F103	F	0.680947	-0.123794	-0.138790
F104	F	1.180947	0.376206	0.361210
F105	F	1.329450	0.123822	-0.346660
F106	F	1.829450	0.623822	0.153340
F107	F	1.500058	0.123836	-0.512370
F108	F	2.000058	0.623836	-0.012370
H109	H	0.935950	-0.000030	-0.417595
H110	H	1.435950	0.499970	0.082405
H111	H	0.685672	0.000006	0.067658
H112	H	1.185672	0.500006	0.567658
