data_functionalizedCrystal
_audit_creation_method	'MofGen! by Chris Wilmer'
_symmetry_space_group_name_H-M	'P1'
_symmetry_Int_Tables_number	1
_symmetry_cell_setting	triclinic
loop_
_symmetry_equiv_pos_as_xyz
  x,y,z
_cell_length_a	21.295417
_cell_length_b	12.759401
_cell_length_c	12.759393
_cell_angle_alpha	89.980324
_cell_angle_beta	89.961905
_cell_angle_gamma	90.030933
loop_
_atom_site_label
_atom_site_type_symbol
_atom_site_fract_x
_atom_site_fract_y
_atom_site_fract_z
Zn1	Zn	-0.250572	1.606151	-0.593929
Zn2	Zn	0.249428	2.106151	-0.093929
Zn3	Zn	-0.355854	1.605994	-0.418226
Zn4	Zn	0.144146	2.105994	0.081774
Zn5	Zn	-0.250603	1.430450	-0.418268
Zn6	Zn	0.249397	1.930450	0.081732
Zn7	Zn	-0.355808	1.430393	-0.593867
Zn8	Zn	0.144192	1.930393	-0.093867
O9	O	-0.303209	1.518247	-0.506073
O10	O	0.196791	2.018247	-0.006073
O11	O	-0.264544	1.753151	-0.570630
O12	O	0.235456	2.253151	-0.070630
O13	O	-0.341924	1.582665	-0.271210
O14	O	0.158076	2.082665	0.228790
O15	O	-0.162509	1.453846	-0.441614
O16	O	0.337491	1.953846	0.058386
O17	O	-0.341894	1.753035	-0.441542
O18	O	0.158106	2.253035	0.058458
O19	O	-0.162486	1.582933	-0.570671
O20	O	0.337514	2.082933	-0.070671
O21	O	-0.264597	1.453694	-0.271242
O22	O	0.235403	1.953694	0.228758
O23	O	-0.264553	1.283421	-0.441553
O24	O	0.235447	1.783421	0.058447
O25	O	-0.341815	1.453750	-0.740896
O26	O	0.158185	1.953750	-0.240896
O27	O	-0.341846	1.283380	-0.570565
O28	O	0.158154	1.783380	-0.070565
O29	O	-0.264499	1.582878	-0.740942
O30	O	0.235501	2.082878	-0.240942
O31	O	-0.443937	1.582610	-0.441482
O32	O	0.056063	2.082610	0.058518
O33	O	-0.443903	1.453597	-0.570524
O34	O	0.056097	1.953597	-0.070524
C35	C	-0.303198	1.245279	-0.506058
C36	C	0.196802	1.745279	-0.006058
C37	C	-0.303209	1.128503	-0.506076
C38	C	0.196791	1.628503	-0.006076
C39	C	-0.263005	1.073702	-0.573396
C40	C	0.236995	1.573702	-0.073396
C41	C	-0.263012	0.963978	-0.573403
C42	C	0.236988	1.463978	-0.073403
C43	C	-0.343430	0.963866	-0.438767
C44	C	0.156570	1.463866	0.061233
C45	C	-0.343420	1.073588	-0.438756
C46	C	0.156580	1.573588	0.061244
C47	C	-0.466761	1.518109	-0.506014
C48	C	0.033239	2.018109	-0.006014
C49	C	-0.536729	1.518146	-0.506025
C50	C	-0.036729	2.018146	-0.006025
C51	C	-0.569592	1.585383	-0.438901
C52	C	-0.069592	2.085383	0.061099
C53	C	-0.635335	1.585432	-0.438925
C54	C	-0.135335	2.085432	0.061075
C55	C	-0.668211	1.518226	-0.506061
C56	C	-0.168211	2.018226	-0.006061
C57	C	-0.635340	1.450985	-0.573198
C58	C	-0.135340	1.950985	-0.073198
C59	C	-0.569599	1.450945	-0.573180
C60	C	-0.069599	1.950945	-0.073180
N61	N	-0.771477	1.426319	-0.514065
N62	N	-0.271477	1.926319	-0.014065
N63	N	-0.833928	1.426360	-0.514076
N64	N	-0.333928	1.926360	-0.014076
C65	C	-0.866286	1.518344	-0.506121
C66	C	-0.366286	2.018344	-0.006121
N67	N	-0.833833	1.610287	-0.498134
N68	N	-0.333833	2.110287	0.001866
N69	N	-0.771376	1.610245	-0.498117
N70	N	-0.271376	2.110245	0.001883
C71	C	-0.739497	1.518262	-0.506089
C72	C	-0.239497	2.018262	-0.006089
C73	C	-0.970435	1.585639	-0.439019
C74	C	-0.470435	2.085639	0.060981
C75	C	-1.036178	1.585690	-0.439050
C76	C	-0.536178	2.085690	0.060950
C77	C	-1.036183	1.451233	-0.573318
C78	C	-0.536183	1.951233	-0.073318
C79	C	-0.970440	1.451192	-0.573293
C80	C	-0.470440	1.951192	-0.073293
C81	C	-0.937570	1.518393	-0.506138
C82	C	-0.437570	2.018393	-0.006138
C83	C	-0.139019	1.518414	-0.506154
C84	C	0.360981	2.018414	-0.006154
C85	C	-0.069051	1.518485	-0.506189
C86	C	0.430949	2.018485	-0.006189
C87	C	-0.303149	1.518325	-0.780106
C88	C	0.196851	2.018325	-0.280106
C89	C	-0.303123	1.518359	-0.896883
C90	C	0.196877	2.018359	-0.396883
C91	C	-0.303220	1.792280	-0.506088
C92	C	0.196780	2.292280	-0.006088
C93	C	-0.303225	1.909057	-0.506095
C94	C	0.196775	2.409057	-0.006095
C95	C	-0.262858	1.585601	-0.951770
C96	C	0.237142	2.085601	-0.451770
C97	C	-0.262831	1.585619	-1.061494
C98	C	0.237169	2.085619	-0.561494
C99	C	-0.343339	1.451149	-1.061434
C100	C	0.156661	1.951149	-0.561434
C101	C	-0.343363	1.451127	-0.951712
C102	C	0.156637	1.951127	-0.451712
C103	C	-0.303224	1.518229	-0.233105
C104	C	0.196776	2.018229	0.266895
C105	C	-0.303072	1.518399	-0.116329
C106	C	0.196928	2.018399	0.383671
H107	H	-0.542831	1.640105	-0.384222
H108	H	-0.042831	2.140105	0.115778
F109	F	-0.386165	1.379604	-1.119796
F110	F	0.113835	1.879604	-0.619796
H111	H	-0.230090	1.640343	-0.907132
H112	H	0.269910	2.140343	-0.407132
H113	H	-0.376151	1.396363	-0.907021
H114	H	0.123849	1.896363	-0.407021
H115	H	-0.662112	1.396267	-0.627862
H116	H	-0.162112	1.896267	-0.127862
H117	H	-0.542841	1.396192	-0.627841
H118	H	-0.042841	1.896192	-0.127841
F119	F	-0.935450	1.657159	-0.367548
F120	F	-0.435450	2.157159	0.132452
H121	H	-0.230042	1.640373	-1.106179
H122	H	0.269958	2.140373	-0.606179
H123	H	-0.376170	0.919140	-0.383959
H124	H	0.123830	1.419140	0.116041
H125	H	-1.062935	1.640449	-0.384392
H126	H	-0.562935	2.140449	0.115608
H127	H	-0.662097	1.640188	-0.384265
H128	H	-0.162097	2.140188	0.115735
H129	H	-0.230260	1.118410	-0.628210
H130	H	0.269740	1.618410	-0.128210
F131	F	-0.935463	1.379624	-0.644732
F132	F	-0.435463	1.879624	-0.144732
F133	F	-1.071168	1.379713	-0.644776
F134	F	-0.571168	1.879713	-0.144776
H135	H	-0.376160	1.118208	-0.383930
H136	H	0.123840	1.618208	0.116070
H137	H	-0.230273	0.919363	-0.628220
H138	H	0.269727	1.419363	-0.128220
