data_functionalizedCrystal
_audit_creation_method	'MofGen! by Chris Wilmer'
_symmetry_space_group_name_H-M	'P1'
_symmetry_Int_Tables_number	1
_symmetry_cell_setting	triclinic
loop_
_symmetry_equiv_pos_as_xyz
  x,y,z
_cell_length_a	10.654549
_cell_length_b	11.026607
_cell_length_c	9.130313
_cell_angle_alpha	89.997484
_cell_angle_beta	89.997498
_cell_angle_gamma	96.535397
loop_
_atom_site_label
_atom_site_type_symbol
_atom_site_fract_x
_atom_site_fract_y
_atom_site_fract_z
O1	O	1.704908	0.170765	-0.121760
O2	O	1.342961	0.187035	-0.121770
O3	O	1.493936	0.001995	-0.121761
O4	O	1.553932	0.355806	-0.121770
O5	O	1.493922	0.001989	0.121838
O6	O	1.342947	0.187030	0.121829
O7	O	1.704893	0.170760	0.121838
Cu8	Cu	1.523919	0.178894	0.144076
Cu9	Cu	1.523936	0.178901	-0.144008
O10	O	1.553918	0.355800	0.121829
C11	C	1.295896	0.185838	0.000028
C12	C	1.155677	0.182264	0.000024
C13	C	0.968081	0.287846	0.000027
C14	C	1.099833	0.291213	0.000018
C15	C	1.079763	0.069940	0.000024
C16	C	0.948014	0.066575	0.000022
C17	C	1.482861	-0.043312	0.000037
C18	C	1.449867	-0.178304	0.000030
C19	C	1.540970	-0.251343	0.000031
C20	C	1.506871	-0.390864	0.000024
C21	C	1.751958	0.171957	0.000037
C22	C	1.892177	0.175531	0.000031
C23	C	1.564993	0.401107	0.000028
C24	C	1.597988	0.536099	0.000025
N25	N	1.523916	0.178889	0.346699
N26	N	1.523946	0.178896	-0.346631
C27	C	1.590804	0.096988	0.423355
C28	C	1.590816	0.096988	0.576691
C29	C	1.457050	0.260801	0.576703
C30	C	1.457031	0.260794	0.423369
H31	H	1.125242	-0.018767	0.000019
C32	C	1.369176	-0.445125	-0.000286
C33	C	1.309497	-0.406206	-0.125631
C34	C	1.182661	-0.456181	-0.125978
H35	H	1.328298	-0.418878	0.084562
H36	H	1.364501	-0.531683	-0.000370
H37	H	1.314165	-0.319667	-0.125534
H38	H	1.350338	-0.432452	-0.210500
H39	H	1.177986	-0.542739	-0.126062
H40	H	1.141795	-0.429930	-0.041124
H41	H	1.142156	-0.429791	-0.211029
C42	C	1.384380	0.349858	0.340395
C43	C	1.325846	0.421618	0.440354
C44	C	1.258923	0.503679	0.363973
H45	H	1.322023	0.305784	0.280592
H46	H	1.441060	0.400941	0.280592
H47	H	1.269171	0.370542	0.500132
H48	H	1.388174	0.465719	0.500160
H49	H	1.315603	0.554762	0.304170
H50	H	1.196572	0.459595	0.304173
H51	H	1.219209	0.552385	0.431783
C52	C	0.865808	-0.055497	0.000101
C53	C	0.942904	-0.150196	0.000145
C54	C	0.867221	-0.262659	0.000231
H55	H	0.813981	-0.061578	-0.084825
H56	H	0.814011	-0.061474	0.085082
H57	H	0.994679	-0.144222	-0.084828
H58	H	0.994730	-0.144156	0.085065
H59	H	0.815424	-0.268636	0.085212
H60	H	0.815397	-0.268726	-0.084697
H61	H	0.919519	-0.326925	0.000274
H62	H	1.644211	-0.210582	0.000043
H63	H	1.701236	-0.423148	-0.000082
H64	H	0.922623	0.376565	0.000034
H65	H	1.161629	0.382671	0.000014
H66	H	1.346625	-0.219064	0.000018
H67	H	1.645263	0.030294	0.360933
H68	H	1.645281	0.030296	0.639101
H69	H	1.402596	0.327489	0.639143
