data_functionalizedCrystal
_audit_creation_method	'MofGen! by Chris Wilmer'
_symmetry_space_group_name_H-M	'P1'
_symmetry_Int_Tables_number	1
_symmetry_cell_setting	triclinic
loop_
_symmetry_equiv_pos_as_xyz
  x,y,z
_cell_length_a	8.559649
_cell_length_b	10.868271
_cell_length_c	8.559649
_cell_angle_alpha	90.003438
_cell_angle_beta	69.778664
_cell_angle_gamma	90.004136
loop_
_atom_site_label
_atom_site_type_symbol
_atom_site_fract_x
_atom_site_fract_y
_atom_site_fract_z
O1	O	2.126881	0.102303	-0.055034
O2	O	1.651396	0.102308	0.028747
O3	O	1.931029	0.102304	-0.250886
O4	O	1.847248	0.102307	0.224599
O5	O	1.931010	-0.102341	-0.250893
O6	O	1.651377	-0.102337	0.028740
O7	O	2.126862	-0.102342	-0.055041
Zn8	Zn	1.889116	-0.134831	-0.013152
Zn9	Zn	1.889141	0.134797	-0.013142
O10	O	1.847229	-0.102338	0.224592
C11	C	1.591077	-0.000014	0.035093
C12	C	1.411378	-0.000012	0.053992
N13	N	1.889111	-0.318845	-0.013161
C14	C	1.889133	-0.569851	-0.013145
C15	C	1.889115	-0.430174	-0.013148
C16	C	2.187180	-0.000017	-0.061387
C17	C	2.366879	-0.000011	-0.080286
C18	C	1.937369	-0.000016	-0.311198
C19	C	1.956268	-0.000010	-0.490898
N20	N	1.889161	0.318811	-0.013148
C21	C	1.840889	-0.000015	0.284904
C22	C	1.821990	-0.000013	0.464604
H23	H	1.466258	-0.000006	-0.209705
F24	F	1.281477	0.000000	0.223166
H25	H	1.692570	-0.000016	-0.436018
H26	H	2.085696	-0.000021	-0.590286
