data_functionalizedCrystal
_audit_creation_method	'MofGen! by Chris Wilmer'
_symmetry_space_group_name_H-M	'P1'
_symmetry_Int_Tables_number	1
_symmetry_cell_setting	triclinic
loop_
_symmetry_equiv_pos_as_xyz
  x,y,z
_cell_length_a	14.853569
_cell_length_b	14.853559
_cell_length_c	16.776229
_cell_angle_alpha	89.995543
_cell_angle_beta	89.994835
_cell_angle_gamma	83.633509
loop_
_atom_site_label
_atom_site_type_symbol
_atom_site_fract_x
_atom_site_fract_y
_atom_site_fract_z
O1	O	1.196364	0.117713	-0.066248
O2	O	1.696364	0.617713	0.433752
O3	O	0.933904	0.131733	-0.066257
O4	O	1.433904	0.631733	0.433743
O5	O	1.072148	-0.006507	-0.066251
O6	O	1.572148	0.493493	0.433749
O7	O	1.058119	0.255954	-0.066253
O8	O	1.558119	0.755954	0.433747
O9	O	1.072130	-0.006515	0.066325
O10	O	1.572130	0.493485	0.566325
O11	O	0.933885	0.131725	0.066320
O12	O	1.433885	0.631725	0.566320
O13	O	1.196345	0.117705	0.066329
O14	O	1.696345	0.617705	0.566329
Zn15	Zn	1.065112	0.124714	0.087374
Zn16	Zn	1.565112	0.624714	0.587374
Zn17	Zn	1.065137	0.124725	-0.087302
Zn18	Zn	1.565137	0.624725	0.412698
O19	O	1.058101	0.255945	0.066323
O20	O	1.558101	0.755945	0.566323
C21	C	0.900306	0.131094	0.000030
C22	C	1.400306	0.631094	0.500030
C23	C	0.800222	0.129189	0.000027
C24	C	1.300222	0.629189	0.500027
C25	C	0.763848	0.046178	0.000024
C26	C	1.263848	0.546178	0.500024
C27	C	0.742554	0.210411	0.000032
C28	C	1.242554	0.710411	0.500032
C29	C	0.648520	0.208625	0.000033
C30	C	1.148520	0.708625	0.500033
C31	C	0.612146	0.125614	0.000031
C32	C	1.112146	0.625614	0.500031
C33	C	0.669806	0.044389	0.000028
C34	C	1.169806	0.544389	0.500028
C35	C	0.590853	0.289848	0.000044
C36	C	1.090853	0.789848	0.500044
C37	C	0.496812	0.288065	0.000046
C38	C	0.996812	0.788065	0.500046
C39	C	0.460437	0.205053	0.000038
C40	C	0.960437	0.705053	0.500038
C41	C	0.518103	0.123825	0.000034
C42	C	1.018103	0.623825	0.500034
C43	C	0.481729	0.040813	0.000032
C44	C	0.981729	0.540813	0.500032
C45	C	0.539394	-0.040416	0.000022
C46	C	1.039394	0.459584	0.500022
C47	C	0.633430	-0.038623	0.000020
C48	C	1.133430	0.461377	0.500020
C49	C	0.366401	0.203260	0.000040
C50	C	0.866401	0.703260	0.500040
C51	C	0.387687	0.039024	0.000035
C52	C	0.887687	0.539024	0.500035
C53	C	1.071505	-0.040100	0.000036
C54	C	1.571505	0.459900	0.500036
C55	C	1.069604	-0.140184	0.000031
C56	C	1.569604	0.359816	0.500031
C57	C	1.061550	-0.563354	-0.072237
C58	C	1.561550	-0.063354	0.427763
C59	C	1.061530	-0.563358	0.072303
C60	C	1.561530	-0.063358	0.572303
C61	C	1.063324	-0.469325	0.072304
C62	C	1.563324	0.030675	0.572304
C63	C	1.064229	-0.422302	0.000033
C64	C	1.564229	0.077698	0.500033
C65	C	1.063341	-0.469312	-0.072238
C66	C	1.563341	0.030688	0.427762
C67	C	1.064202	-0.422307	0.144574
C68	C	1.564202	0.077693	0.644574
C69	C	1.065995	-0.328268	0.144578
C70	C	1.565995	0.171732	0.644578
C71	C	1.066907	-0.281244	0.072306
C72	C	1.566907	0.218756	0.572306
C73	C	1.066020	-0.328260	0.000032
C74	C	1.566020	0.171740	0.500032
C75	C	1.066925	-0.281236	-0.072239
C76	C	1.566925	0.218764	0.427761
C77	C	1.066045	-0.328252	-0.144514
C78	C	1.566045	0.171748	0.355486
C79	C	1.064253	-0.422288	-0.144510
C80	C	1.564253	0.077712	0.355490
C81	C	1.068699	-0.187207	0.072302
C82	C	1.568699	0.312793	0.572302
C83	C	1.068716	-0.187194	-0.072241
C84	C	1.568716	0.312806	0.427759
C85	C	1.229943	0.118345	0.000040
C86	C	1.729943	0.618345	0.500040
C87	C	1.330027	0.120249	0.000038
C88	C	1.830027	0.620249	0.500038
C89	C	1.058744	0.289538	0.000035
C90	C	1.558744	0.789538	0.500035
C91	C	1.060645	0.389622	0.000034
C92	C	1.560645	0.889622	0.500034
N93	N	1.065102	0.124705	0.206585
N94	N	1.565102	0.624705	0.706585
N95	N	1.065154	0.124726	-0.206513
N96	N	1.565154	0.624726	0.293487
C97	C	1.126336	0.063518	0.248304
C98	C	1.626336	0.563518	0.748304
C99	C	1.126341	0.063517	0.331757
C100	C	1.626341	0.563517	0.831757
C101	C	1.065116	0.124709	0.373488
C102	C	1.565116	0.624709	0.873488
C103	C	1.003876	0.185899	0.331762
C104	C	1.503876	0.685899	0.831762
C105	C	1.003867	0.185895	0.248312
C106	C	1.503867	0.685895	0.748312
C107	C	1.003909	0.185917	0.668309
C108	C	1.503909	0.685917	1.168309
C109	C	1.003924	0.185918	0.751766
C110	C	1.503924	0.685918	1.251766
C111	C	1.126382	0.063539	0.751754
C112	C	1.626382	0.563539	1.251754
C113	C	1.126373	0.063535	0.668304
C114	C	1.626373	0.563535	1.168304
C115	C	1.065131	0.124722	0.626586
C116	C	1.565131	0.624722	1.126586
C117	C	1.065125	0.124721	0.536097
C118	C	1.565125	0.624721	1.036097
C119	C	1.065125	0.124715	0.463975
C120	C	1.565125	0.624715	0.963975
H121	H	0.810803	-0.019956	0.000013
H122	H	1.310803	0.480044	0.500013
O123	O	1.192356	-0.002504	0.203302
O124	O	1.692356	0.497496	0.703302
H125	H	1.182064	0.007768	0.138263
H126	H	1.682064	0.507768	0.638263
H127	H	0.954004	0.235719	0.214344
H128	H	1.454004	0.735719	0.714344
H129	H	0.449869	0.354207	0.000052
H130	H	0.949869	0.854207	0.500052
O131	O	1.192433	-0.002468	0.796749
O132	O	1.692433	0.497532	1.296749
H133	H	1.182150	0.007803	0.861788
H134	H	1.682150	0.507803	1.361788
O135	O	0.695622	-0.126229	0.000014
O136	O	1.195622	0.373771	0.500014
H137	H	0.682666	-0.165957	0.054046
H138	H	1.182666	0.334043	0.554046
H139	H	1.176201	0.013693	0.365724
H140	H	1.676201	0.513693	0.865724
O141	O	0.937900	0.251934	0.796781
O142	O	1.437900	0.751934	1.296781
H143	H	0.895312	0.294482	0.753753
H144	H	1.395312	0.794482	1.253753
H145	H	1.069458	-0.148915	-0.131093
H146	H	1.569458	0.351085	0.368907
H147	H	0.772176	0.277995	0.000039
H148	H	1.272176	0.777995	0.500039
H149	H	1.066775	-0.289952	-0.203357
H150	H	1.566775	0.210048	0.296643
H151	H	0.358079	-0.028574	0.000029
H152	H	0.858079	0.471426	0.500029
H153	H	1.176231	0.013710	0.634329
H154	H	1.676231	0.513710	1.134329
O155	O	0.500152	-0.129945	0.000023
O156	O	1.000152	0.370055	0.500023
H157	H	0.523299	-0.168983	0.054059
H158	H	1.023299	0.331017	0.554059
O159	O	1.060587	-0.614056	-0.150188
O160	O	1.560587	-0.114056	0.349812
H161	H	1.122334	-0.603969	-0.184842
H162	H	1.622334	-0.103969	0.315158
H163	H	0.954044	0.235739	0.634349
H164	H	1.454044	0.735739	1.134349
H165	H	1.063535	-0.460576	-0.203353
H166	H	1.563535	0.039424	0.296647
H167	H	0.319454	0.269396	0.000055
H168	H	0.819454	0.769396	0.500055
O169	O	1.060571	-0.614071	0.150251
O170	O	1.560571	-0.114071	0.650251
H171	H	1.059187	-0.687361	0.138110
H172	H	1.559187	-0.187361	0.638110
H173	H	1.063460	-0.460599	0.203413
H174	H	1.563460	0.039401	0.703413
H175	H	0.620476	0.357431	0.000051
H176	H	1.120476	0.857431	0.500051
H177	H	0.954021	0.235720	0.365745
H178	H	1.454021	0.735720	0.865745
O179	O	1.066964	-0.277568	0.222529
O180	O	1.566964	0.222432	0.722529
H181	H	1.005224	-0.287660	0.257191
H182	H	1.505224	0.212340	0.757191
O183	O	1.069654	-0.136495	0.150244
O184	O	1.569654	0.363505	0.650244
H185	H	1.068726	-0.184992	0.200498
H186	H	1.568726	0.315008	0.700498
