data_functionalizedCrystal
_audit_creation_method	'MofGen! by Chris Wilmer'
_symmetry_space_group_name_H-M	'P1'
_symmetry_Int_Tables_number	1
_symmetry_cell_setting	triclinic
loop_
_symmetry_equiv_pos_as_xyz
  x,y,z
_cell_length_a	15.944493
_cell_length_b	13.339070
_cell_length_c	11.804365
_cell_angle_alpha	105.124870
_cell_angle_beta	101.834508
_cell_angle_gamma	80.447831
loop_
_atom_site_label
_atom_site_type_symbol
_atom_site_fract_x
_atom_site_fract_y
_atom_site_fract_z
O1	O	0.408897	-1.362642	-0.099011
O2	O	0.353626	-1.068125	-0.099012
O3	O	0.260863	-1.223459	-0.099022
O4	O	0.501659	-1.207308	-0.099002
O5	O	0.285250	-1.182565	0.099037
O6	O	0.378012	-1.027232	0.099046
O7	O	0.433283	-1.321748	0.099047
Cu8	Cu	0.407874	-1.170756	0.117131
Cu9	Cu	0.379034	-1.219117	-0.117096
O10	O	0.526046	-1.166415	0.099057
C11	C	0.356483	-1.009991	0.000017
C12	C	0.328653	-0.897694	0.000016
C13	C	0.241607	-1.202353	0.000003
C14	C	0.147896	-1.200378	-0.000013
C15	C	-0.066556	-1.291805	0.000010
C16	C	-0.140637	-1.262662	-0.097642
C17	C	-0.023678	-1.196709	0.000002
C18	C	-0.116575	-1.222322	0.097628
C19	C	-0.189409	-1.193171	0.000021
C20	C	-0.096535	-1.167608	-0.097731
C21	C	-0.072455	-1.127264	0.097627
C22	C	-0.146522	-1.098056	-0.000050
C23	C	0.071795	-1.198750	-0.000010
C24	C	-0.284882	-1.191124	0.000025
C25	C	0.430426	-1.379883	0.000016
C26	C	0.458254	-1.492181	0.000009
C27	C	0.545301	-1.187521	0.000030
C28	C	0.639012	-1.189498	0.000037
N29	N	0.428160	-1.136749	0.281874
C30	C	0.545039	-0.532862	0.000015
C31	C	0.571188	-0.638371	0.000012
C32	C	0.510557	-0.703207	0.000013
C33	C	0.423771	-0.662524	0.000016
C34	C	0.397618	-0.557007	0.000010
C35	C	0.363136	-0.727352	0.000008
C36	C	0.276351	-0.686669	0.000012
C37	C	0.250202	-0.581162	0.000006
C38	C	0.310834	-0.516326	0.000004
C39	C	0.389289	-0.832868	0.000015
C40	C	0.241868	-0.857014	0.000010
C41	C	0.215719	-0.751505	0.000013
N42	N	0.358744	-1.253133	-0.281839
C43	C	0.310014	-1.334796	0.655810
C44	C	0.294664	-1.360522	0.531147
C45	C	0.328037	-1.304580	0.468823
C46	C	0.376762	-1.222910	0.531174
C47	C	0.392119	-1.197188	0.655849
C48	C	0.410142	-1.166972	0.468861
C49	C	0.458867	-1.085301	0.531212
C50	C	0.474222	-1.059582	0.655876
C51	C	0.440849	-1.115524	0.718200
C52	C	0.394785	-1.192694	0.344186
C53	C	0.476890	-1.055085	0.344225
C54	C	0.492240	-1.029360	0.468888
H55	H	-0.031853	-1.373740	-0.000088
Cl56	Cl	0.233413	-1.463187	0.452766
Cl57	Cl	0.518851	-0.984759	0.265882
H58	H	0.179534	-0.548045	-0.000005
H59	H	0.282852	-1.380342	0.706563
H60	H	0.192496	-0.909804	0.000006
H61	H	0.459951	-0.865980	0.000017
H62	H	-0.170390	-1.319869	-0.180201
Cl63	Cl	0.553494	-0.926692	0.547284
H64	H	-0.181097	-1.016088	-0.000104
H65	H	0.453344	-1.094576	0.819711
Cl66	Cl	0.333531	-1.295360	0.265818
H67	H	0.145056	-0.718368	0.000006
Cl68	Cl	-0.131092	-1.258038	0.225084
H69	H	-0.087244	-1.144534	-0.180377
H70	H	0.594394	-0.480067	0.000003
H71	H	-0.042679	-1.070091	0.180188
Cl72	Cl	0.308736	-1.336919	0.312101
Cl73	Cl	0.535488	-0.956923	0.734262
H74	H	0.531853	-0.789116	0.000008
Cl75	Cl	0.277964	-0.383680	0.000010
H76	H	0.641848	-0.671489	0.000000
