data_functionalizedCrystal
_audit_creation_method	'MofGen! by Chris Wilmer'
_symmetry_space_group_name_H-M	'P1'
_symmetry_Int_Tables_number	1
_symmetry_cell_setting	triclinic
loop_
_symmetry_equiv_pos_as_xyz
  x,y,z
_cell_length_a	8.497374
_cell_length_b	8.497365
_cell_length_c	11.169417
_cell_angle_alpha	89.969268
_cell_angle_beta	89.997658
_cell_angle_gamma	90.037770
loop_
_atom_site_label
_atom_site_type_symbol
_atom_site_fract_x
_atom_site_fract_y
_atom_site_fract_z
Zn1	Zn	0.627607	-0.892031	1.835172
Zn2	Zn	0.891551	-0.628296	1.835055
Zn3	Zn	0.627785	-0.628266	1.634419
Zn4	Zn	0.891345	-0.892036	1.634498
O5	O	0.759572	-0.760157	1.734786
O6	O	0.662632	-0.857056	2.003106
O7	O	0.856722	-0.407529	1.808358
O8	O	0.406999	-0.663240	1.661065
O9	O	0.856550	-0.663291	2.003020
O10	O	0.406869	-0.857027	1.808558
O11	O	0.662934	-0.407507	1.660951
O12	O	0.662734	-0.663246	1.466480
O13	O	0.856199	-1.112798	1.661200
O14	O	0.856371	-0.857036	1.466538
O15	O	0.662432	-1.112794	1.808635
O16	O	1.112286	-0.663297	1.808435
O17	O	1.112135	-0.857065	1.661086
C18	C	0.759551	-0.760139	1.422961
C19	C	0.759580	-0.760169	1.289561
C20	C	1.169452	-0.760180	1.734771
C21	C	1.348096	-0.760154	1.734803
C22	C	0.759744	-0.350277	1.734699
C23	C	0.759420	-0.171634	1.734870
C24	C	0.759594	-0.760176	2.047828
C25	C	0.759604	-0.760184	2.181228
