data_functionalizedCrystal
_audit_creation_method	'MofGen! by Chris Wilmer'
_symmetry_space_group_name_H-M	'P1'
_symmetry_Int_Tables_number	1
_symmetry_cell_setting	triclinic
loop_
_symmetry_equiv_pos_as_xyz
  x,y,z
_cell_length_a	18.050591
_cell_length_b	18.050589
_cell_length_c	16.120379
_cell_angle_alpha	87.038840
_cell_angle_beta	92.857147
_cell_angle_gamma	90.024227
loop_
_atom_site_label
_atom_site_type_symbol
_atom_site_fract_x
_atom_site_fract_y
_atom_site_fract_z
Zn1	Zn	1.114156	-0.274172	-0.471566
Zn2	Zn	1.120315	-0.404745	-0.332157
Zn3	Zn	0.996224	-0.280565	-0.332148
Zn4	Zn	0.989926	-0.398319	-0.471515
O5	O	1.055155	-0.339451	-0.401846
O6	O	1.218897	-0.291507	-0.453098
O7	O	1.109068	-0.393638	-0.215487
O8	O	1.011927	-0.175792	-0.350659
O9	O	1.223422	-0.387439	-0.350675
O10	O	1.098571	-0.171095	-0.453089
O11	O	1.017899	-0.302403	-0.215480
O12	O	0.891465	-0.296172	-0.350610
O13	O	1.001191	-0.376486	-0.588191
O14	O	0.886838	-0.382685	-0.453003
O15	O	1.092463	-0.285276	-0.588228
O16	O	1.102961	-0.507818	-0.350626
O17	O	1.007164	-0.503097	-0.453012
C18	C	0.862205	-0.339425	-0.401800
C19	C	0.779660	-0.339431	-0.401800
C20	C	0.582698	-0.292322	-0.346247
C21	C	0.534198	-0.360998	-0.325736
C22	C	0.628527	-0.339452	-0.401838
C23	C	0.529946	-0.270799	-0.422347
C24	C	0.482541	-0.339466	-0.401873
C25	C	0.581116	-0.408165	-0.381287
C26	C	0.576867	-0.317919	-0.477934
C27	C	0.528388	-0.386641	-0.457451
C28	C	0.712627	-0.339443	-0.401816
C29	C	0.398443	-0.339483	-0.401895
C30	C	1.055066	-0.532403	-0.401833
C31	C	1.055095	-0.614948	-0.401855
C32	C	1.003050	-0.811859	-0.457513
C33	C	0.988362	-0.864779	-0.381433
C34	C	1.055167	-0.766078	-0.401865
C35	C	1.069891	-0.860240	-0.477954
C36	C	1.055236	-0.912062	-0.401883
C37	C	1.040446	-0.817912	-0.325745
C38	C	1.122004	-0.813366	-0.422318
C39	C	1.107344	-0.866266	-0.346186
C40	C	1.055126	-0.681980	-0.401857
C41	C	1.055278	-0.996159	-0.401883
C42	C	1.248859	-0.339477	-0.401893
C43	C	1.331404	-0.339488	-0.401913
C44	C	1.045438	-0.329451	-0.619307
C45	C	1.041296	-0.325189	-0.711975
C46	C	1.055264	-0.145743	-0.401879
C47	C	1.055311	-0.063197	-0.401892
C48	C	1.064878	-0.349358	-0.185232
C49	C	1.069163	-0.353410	-0.092564
C50	C	1.076997	-0.360808	0.077101
C51	C	1.033465	-0.317793	0.118365
C52	C	1.037824	-0.321910	0.212772
C53	C	1.072639	-0.356693	-0.017315
H54	H	0.603475	-0.466250	-0.363883
O55	O	0.614188	-0.239593	-0.283911
H56	H	0.646581	-0.195754	-0.316537
H57	H	1.117536	-0.400723	0.112675
O58	O	0.509216	-0.385145	-0.240519
H59	H	0.475607	-0.340336	-0.216256
H60	H	0.504759	-0.426552	-0.504477
O61	O	1.086359	-0.885019	-0.563178
H62	H	1.042985	-0.863160	-0.609237
H63	H	0.595740	-0.299677	-0.542252
O64	O	0.979756	-0.264917	0.071251
H65	H	0.984712	-0.269945	0.003418
H66	H	0.958918	-0.788055	-0.504505
O67	O	0.500214	-0.193889	-0.445319
H68	H	0.522052	-0.154872	-0.399069
H69	H	0.931873	-0.887347	-0.364150
H70	H	1.178479	-0.790798	-0.439637
O71	O	1.023893	-0.793262	-0.240493
H72	H	1.023964	-0.731743	-0.241165
H73	H	1.151450	-0.889938	-0.299080
