data_functionalizedCrystal
_audit_creation_method	'MofGen! by Chris Wilmer'
_symmetry_space_group_name_H-M	'P1'
_symmetry_Int_Tables_number	1
_symmetry_cell_setting	triclinic
loop_
_symmetry_equiv_pos_as_xyz
  x,y,z
_cell_length_a	6.394989
_cell_length_b	10.723023
_cell_length_c	9.798715
_cell_angle_alpha	89.996449
_cell_angle_beta	90.000171
_cell_angle_gamma	94.517371
loop_
_atom_site_label
_atom_site_type_symbol
_atom_site_fract_x
_atom_site_fract_y
_atom_site_fract_z
O1	O	-0.293014	1.660298	-0.113478
O2	O	-0.321064	1.297443	-0.113480
O3	O	-0.003048	1.484021	-0.113480
O4	O	-0.611029	1.473720	-0.113478
O5	O	-0.003047	1.484006	0.113502
O6	O	-0.321063	1.297429	0.113502
O7	O	-0.293013	1.660283	0.113505
Zn8	Zn	-0.307038	1.478854	0.149541
Zn9	Zn	-0.307039	1.478873	-0.149517
O10	O	-0.611028	1.473706	0.113504
C11	C	-0.319022	1.250914	0.000010
C12	C	-0.312916	1.112295	0.000009
C13	C	-0.310194	1.050502	-0.117575
C14	C	-0.303883	0.907232	-0.117579
C15	C	0.074803	1.481977	0.000006
C16	C	0.311127	1.475752	0.000005
C17	C	-0.295054	1.706812	0.000011
C18	C	-0.301161	1.845431	0.000003
N19	N	-0.307036	1.478850	0.353641
N20	N	-0.307024	1.478886	-0.353617
C21	C	-0.172922	1.557183	0.421418
C22	C	-0.172914	1.557203	0.578581
H23	H	-0.303492	0.898564	0.100676
C24	C	-0.309758	1.040494	0.136008
H25	H	-0.312299	1.097840	0.209780
H26	H	-0.185905	0.997277	0.141081
H27	H	-0.429160	0.982080	0.141076
H28	H	-0.421844	1.411796	0.411966
H29	H	-0.058097	1.624228	0.363096
H30	H	-0.312547	1.103665	-0.218240
C31	C	-0.017791	1.647805	0.657304
H32	H	0.066337	1.696942	0.594378
H33	H	0.069548	1.601349	0.713058
H34	H	-0.093568	1.701042	0.713031
C35	C	-0.300727	0.835453	-0.253579
H36	H	-0.296915	0.748575	-0.235740
H37	H	-0.180051	0.864345	-0.304453
H38	H	-0.423305	0.849139	-0.304440
C39	C	-0.462157	1.388282	0.567669
H40	H	-0.546304	1.339156	0.630595
H41	H	-0.386399	1.335052	0.511933
H42	H	-0.549508	1.434750	0.511924
