data_functionalizedCrystal
_audit_creation_method	'MofGen! by Chris Wilmer'
_symmetry_space_group_name_H-M	'P1'
_symmetry_Int_Tables_number	1
_symmetry_cell_setting	triclinic
loop_
_symmetry_equiv_pos_as_xyz
  x,y,z
_cell_length_a	17.640112
_cell_length_b	18.101395
_cell_length_c	17.640968
_cell_angle_alpha	78.770922
_cell_angle_beta	92.139080
_cell_angle_gamma	101.255692
loop_
_atom_site_label
_atom_site_type_symbol
_atom_site_fract_x
_atom_site_fract_y
_atom_site_fract_z
Zn1	Zn	1.247775	-0.021279	-0.195081
Zn2	Zn	1.221983	-0.174071	-0.068105
Zn3	Zn	1.095100	-0.069453	-0.093729
Zn4	Zn	1.120725	-0.164323	-0.220687
O5	O	1.171396	-0.107282	-0.144400
O6	O	1.350625	-0.025466	-0.156797
O7	O	1.183633	-0.184434	0.034768
O8	O	1.115423	0.040585	-0.107181
O9	O	1.331676	-0.137722	-0.063509
O10	O	1.227592	0.075978	-0.181644
O11	O	1.090413	-0.107572	0.015942
O12	O	0.992228	-0.098119	-0.132010
O13	O	1.159097	-0.121107	-0.323562
O14	O	1.011054	-0.167820	-0.225285
O15	O	1.252440	-0.016013	-0.304750
O16	O	1.208481	-0.276426	-0.088338
O17	O	1.134087	-0.269264	-0.200439
C18	C	0.974086	-0.137139	-0.184207
C19	C	0.889679	-0.149927	-0.201255
C20	C	0.563038	-0.010125	-0.014899
C21	C	0.483727	-0.022153	-0.030928
C22	C	0.503352	-0.094901	-0.127887
C23	C	0.582666	-0.082876	-0.111869
C24	C	0.612502	-0.040488	-0.055373
C25	C	0.632131	-0.113239	-0.152344
C26	C	0.711437	-0.101218	-0.136324
C27	C	0.741280	-0.058834	-0.079829
C28	C	0.691809	-0.028467	-0.039353
C29	C	0.602292	-0.155631	-0.208836
C30	C	0.651757	-0.185994	-0.249311
C31	C	0.731066	-0.173968	-0.233295
C32	C	0.760908	-0.131585	-0.176800
C33	C	0.780536	-0.204335	-0.273771
C34	C	0.859843	-0.192314	-0.257751
C35	C	0.840215	-0.119564	-0.160780
C36	C	1.171290	-0.299713	-0.144399
C37	C	1.171319	-0.382019	-0.144409
C38	C	1.171494	-0.681075	-0.144416
C39	C	1.124853	-0.645221	-0.215066
C40	C	1.124537	-0.559687	-0.214938
C41	C	1.171407	-0.532710	-0.144413
C42	C	1.133552	-0.585373	-0.068746
C43	C	1.133246	-0.670995	-0.069175
C44	C	1.255975	-0.632588	-0.148704
C45	C	1.255858	-0.546609	-0.150555
C46	C	1.171358	-0.448861	-0.144407
C47	C	1.171539	-0.764926	-0.144418
C48	C	1.369476	-0.077307	-0.104439
C49	C	1.453886	-0.064534	-0.087409
C50	C	1.211504	-0.062099	-0.342481
C51	C	1.228596	-0.042845	-0.426892
C52	C	1.171526	0.085908	-0.144415
C53	C	1.171582	0.168234	-0.144421
C54	C	1.041843	-0.253106	-0.753474
C55	C	1.057920	-0.235002	-0.832787
C56	C	1.155109	-0.125577	-0.813189
C57	C	1.139039	-0.143670	-0.733873
C58	C	1.082405	-0.207436	-0.704022
C59	C	1.179601	-0.097999	-0.684421
C60	C	1.163534	-0.116093	-0.605112
C61	C	1.106905	-0.179858	-0.575254
C62	C	1.066339	-0.225530	-0.624712
C63	C	1.236238	-0.034237	-0.714273
C64	C	1.276800	0.011433	-0.664821
C65	C	1.260729	-0.006657	-0.585511
C66	C	1.204100	-0.070421	-0.555653
C67	C	1.301296	0.039015	-0.536052
C68	C	1.285229	0.020921	-0.456743
C69	C	1.188033	-0.088515	-0.476344
C70	C	1.131487	-0.152228	0.052919
C71	C	1.114543	-0.171252	0.137358
H72	H	0.900119	-0.217038	-0.290710
Cl73	Cl	1.116829	-0.168674	-0.438812
H74	H	1.062956	-0.678821	-0.213602
Cl75	Cl	1.006918	-0.292422	-0.894955
H76	H	1.347412	0.090929	-0.560368
H77	H	1.020204	-0.277439	-0.600410
Cl78	Cl	1.086709	-0.202609	-0.475549
Cl79	Cl	0.970639	-0.333265	-0.715942
H80	H	0.756230	-0.238854	-0.319764
H81	H	1.318258	0.058112	-0.416478
H82	H	1.150097	-0.523052	-0.271551
Cl83	Cl	0.840980	-0.043725	-0.059684
H84	H	1.071008	-0.703884	-0.063660
Cl85	Cl	1.164161	-0.652871	-0.302815
Cl86	Cl	1.304389	-0.641061	-0.231125
Cl87	Cl	0.600553	0.043169	0.056121
Cl88	Cl	1.028361	-0.546842	-0.212530
H89	H	1.201222	-0.073661	-0.837504
H90	H	1.322913	0.063350	-0.689136
Cl91	Cl	1.182054	-0.709397	0.013526
H92	H	1.284111	-0.510354	-0.206162
H93	H	1.249319	-0.019509	-0.778852
H94	H	0.864511	-0.085034	-0.114787
Cl95	Cl	1.038323	-0.572161	-0.059557
Cl96	Cl	0.729325	0.024828	0.031666
H97	H	1.165741	-0.569009	-0.015381
Cl98	Cl	0.421543	0.016016	0.019967
H99	H	0.479047	-0.129416	-0.173884
Cl100	Cl	1.314359	-0.516782	-0.074911
Cl101	Cl	1.309939	-0.668740	-0.068967
H102	H	0.627452	-0.220508	-0.295307
Cl103	Cl	0.502588	-0.170754	-0.228966
