data_functionalizedCrystal
_audit_creation_method	'MofGen! by Chris Wilmer'
_symmetry_space_group_name_H-M	'P1'
_symmetry_Int_Tables_number	1
_symmetry_cell_setting	triclinic
loop_
_symmetry_equiv_pos_as_xyz
  x,y,z
_cell_length_a	14.472311
_cell_length_b	15.995343
_cell_length_c	15.995350
_cell_angle_alpha	96.509221
_cell_angle_beta	89.993325
_cell_angle_gamma	89.997583
loop_
_atom_site_label
_atom_site_type_symbol
_atom_site_fract_x
_atom_site_fract_y
_atom_site_fract_z
O1	O	-0.076744	1.110994	-0.107884
O2	O	0.423256	1.610994	0.392116
O3	O	-0.076765	0.867217	-0.121218
O4	O	0.423235	1.367217	0.378782
O5	O	-0.076753	0.995769	0.007337
O6	O	0.423247	1.495769	0.507337
O7	O	-0.076756	0.982442	-0.236439
O8	O	0.423244	1.482442	0.263561
O9	O	0.076929	0.995750	0.007318
O10	O	0.576929	1.495750	0.507318
O11	O	0.076917	0.867198	-0.121237
O12	O	0.576917	1.367198	0.378763
O13	O	0.076938	1.110974	-0.107903
O14	O	0.576938	1.610974	0.392097
Cu15	Cu	0.090960	0.989085	-0.114572
Cu16	Cu	0.590960	1.489085	0.385428
Cu17	Cu	-0.090787	0.989107	-0.114549
Cu18	Cu	0.409213	1.489107	0.385451
O19	O	0.076926	0.982423	-0.236458
O20	O	0.576926	1.482423	0.263542
C21	C	0.000073	0.836013	-0.120678
C22	C	0.500073	1.336013	0.379322
C23	C	0.000065	0.743062	-0.119028
C24	C	0.500065	1.243062	0.380972
N25	N	0.218791	0.989075	-0.114588
N26	N	0.718791	1.489075	0.385412
C27	C	0.000077	0.572876	-0.116035
C28	C	0.500077	1.072876	0.383965
C29	C	0.000078	0.549530	-0.023238
C30	C	0.500078	1.049530	0.476762
C31	C	0.000432	0.452852	-0.021492
C32	C	0.500432	0.952852	0.478508
C33	C	0.000088	0.405316	-0.113086
C34	C	0.500088	0.905316	0.386914
C35	C	0.087673	0.434397	-0.159757
C36	C	0.587673	0.934397	0.340243
C37	C	0.087741	0.531189	-0.160858
C38	C	0.587741	1.031189	0.339142
C39	C	-0.087030	0.531121	-0.162195
C40	C	0.412970	1.031121	0.337805
C41	C	-0.088176	0.434627	-0.158769
C42	C	0.411824	0.934627	0.341231
C43	C	0.000098	0.310618	-0.111425
C44	C	0.500098	0.810618	0.388575
C45	C	0.000074	0.667574	-0.117699
C46	C	0.500074	1.167574	0.382301
C47	C	0.407291	0.989087	-0.114572
C48	C	0.907291	1.489087	0.385428
C49	C	0.446515	0.920290	-0.183335
C50	C	0.946515	1.420290	0.316665
C51	C	0.553603	0.920053	-0.183149
C52	C	1.053603	1.420053	0.316851
C53	C	0.592882	0.989099	-0.114558
C54	C	1.092882	1.489099	0.385442
C55	C	0.553991	0.970374	-0.027087
C56	C	1.053991	1.470374	0.472913
C57	C	0.446870	0.969874	-0.027498
C58	C	0.946870	1.469874	0.472502
C59	C	0.446758	1.076820	-0.132492
C60	C	0.946758	1.576820	0.367508
C61	C	0.553886	1.076238	-0.134469
C62	C	1.053886	1.576238	0.365531
C63	C	0.697770	0.989107	-0.114545
C64	C	1.197770	1.489107	0.385455
C65	C	0.302403	0.989077	-0.114580
C66	C	0.802403	1.489077	0.385420
N67	N	0.781382	0.989111	-0.114543
N68	N	1.281382	1.489111	0.385457
C69	C	0.000086	0.995209	0.038522
C70	C	0.500086	1.495209	0.538522
C71	C	0.000081	0.993557	0.131472
C72	C	0.500081	1.493557	0.631472
C73	C	0.000098	1.142179	-0.108444
C74	C	0.500098	1.642179	0.391556
C75	C	0.000101	1.235130	-0.110093
C76	C	0.500101	1.735130	0.389907
C77	C	0.000085	0.982983	-0.267643
C78	C	0.500085	1.482983	0.232357
C79	C	0.000084	0.984635	-0.360594
C80	C	0.500084	1.484635	0.139406
C81	C	0.000083	0.987625	0.469220
C82	C	0.500083	1.487625	0.969220
C83	C	-0.000269	0.896072	0.421783
C84	C	0.499731	1.396072	0.921783
C85	C	0.000077	0.897725	0.325093
C86	C	0.500077	1.397725	0.825093
C87	C	0.000082	0.990567	0.301659
C88	C	0.500082	1.490567	0.801659
C89	C	0.087844	1.035713	0.342727
C90	C	0.587844	1.535713	0.842727
C91	C	0.087917	1.033413	0.439363
C92	C	0.587917	1.533413	0.939363
C93	C	-0.086848	1.035326	0.439743
C94	C	0.413152	1.535326	0.939743
C95	C	-0.088008	1.035305	0.342797
C96	C	0.411992	1.535305	0.842797
C97	C	0.000084	0.992235	0.206962
C98	C	0.500084	1.492235	0.706962
C99	C	0.000088	0.985960	0.563917
C100	C	0.500088	1.485960	1.063917
H101	H	-0.062340	0.433841	0.015041
H102	H	0.437660	0.933841	0.515041
H103	H	0.421384	1.128013	-0.082353
H104	H	0.921384	1.628013	0.417647
Cl105	Cl	0.593266	1.045709	0.053848
Cl106	Cl	1.093266	1.545709	0.553848
H107	H	0.091902	1.100629	0.471612
H108	H	0.591902	1.600629	0.971612
H109	H	-0.063206	0.859488	0.440322
H110	H	0.436794	1.359488	0.940322
Cl111	Cl	-0.189548	0.989117	0.471452
Cl112	Cl	0.310452	1.489117	0.971452
Cl113	Cl	0.092894	1.141023	0.320922
Cl114	Cl	0.592894	1.641023	0.820922
Cl115	Cl	-0.096758	0.383754	-0.261958
Cl116	Cl	0.403242	0.883754	0.238042
H117	H	0.153150	1.004341	0.314336
H118	H	0.653150	1.504341	0.814336
Cl119	Cl	-0.096878	0.592784	0.032313
Cl120	Cl	0.403122	1.092784	0.532313
H121	H	0.420766	0.931199	-0.248565
H122	H	0.920766	1.431199	0.251435
Cl123	Cl	0.096063	0.839658	0.452378
Cl124	Cl	0.596063	1.339658	0.952378
Cl125	Cl	0.096906	0.594263	0.031382
Cl126	Cl	0.596906	1.094263	0.531382
H127	H	-0.153438	0.559400	-0.132909
H128	H	0.346562	1.059400	0.367091
H129	H	-0.152972	0.416077	-0.124781
H130	H	0.347028	0.916077	0.375219
Cl131	Cl	0.404975	0.820326	-0.165860
Cl132	Cl	0.904975	1.320326	0.334140
Cl133	Cl	0.405061	1.104725	-0.228899
Cl134	Cl	0.905061	1.604725	0.271101
H135	H	0.579241	0.854946	-0.171660
H136	H	1.079241	1.354946	0.328340
H137	H	0.090683	0.402550	-0.227168
H138	H	0.590683	0.902550	0.272832
H139	H	0.579291	1.090447	-0.198824
H140	H	1.079291	1.590447	0.301176
H141	H	0.063585	0.434408	0.014854
H142	H	0.563585	0.934408	0.514854
Cl143	Cl	0.595164	1.158956	-0.062192
Cl144	Cl	1.095164	1.658956	0.437808
H145	H	0.063090	0.861982	0.297219
H146	H	0.563090	1.361982	0.797219
Cl147	Cl	0.188693	0.403369	-0.110343
Cl148	Cl	0.688693	0.903369	0.389657
H149	H	-0.093303	1.103010	0.327438
H150	H	0.406697	1.603010	0.827438
H151	H	0.153462	0.557967	-0.128930
H152	H	0.653462	1.057967	0.371070
Cl153	Cl	0.595423	0.872745	-0.002196
Cl154	Cl	1.095423	1.372745	0.497804
Cl155	Cl	-0.097053	0.842932	0.281218
Cl156	Cl	0.402947	1.342932	0.781218
H157	H	-0.087875	0.545135	-0.230499
H158	H	0.412125	1.045135	0.269501
H159	H	0.153518	1.000477	0.457655
H160	H	0.653518	1.500477	0.957655
H161	H	0.420920	1.018095	0.025226
H162	H	0.920920	1.518095	0.525226
Cl163	Cl	0.408307	0.871105	-0.003205
Cl164	Cl	0.908307	1.371105	0.496795
Cl165	Cl	-0.188262	0.984762	0.300249
Cl166	Cl	0.311738	1.484762	0.800249
Cl167	Cl	-0.087757	1.139541	0.488783
Cl168	Cl	0.412243	1.639541	0.988783
Cl169	Cl	0.594207	0.937184	-0.283520
Cl170	Cl	1.094207	1.437184	0.216480
H171	H	0.091485	0.545762	-0.228909
H172	H	0.591485	1.045762	0.271091
