data_functionalizedCrystal
_audit_creation_method	'MofGen! by Chris Wilmer'
_symmetry_space_group_name_H-M	'P1'
_symmetry_Int_Tables_number	1
_symmetry_cell_setting	triclinic
loop_
_symmetry_equiv_pos_as_xyz
  x,y,z
_cell_length_a	19.288859
_cell_length_b	19.288865
_cell_length_c	17.766277
_cell_angle_alpha	90.013390
_cell_angle_beta	89.997830
_cell_angle_gamma	96.865014
loop_
_atom_site_label
_atom_site_type_symbol
_atom_site_fract_x
_atom_site_fract_y
_atom_site_fract_z
O1	O	0.921347	-0.086631	-0.062618
O2	O	0.719086	-0.098324	-0.062617
O3	O	0.826061	0.008653	-0.062602
O4	O	0.814372	-0.193608	-0.062632
O5	O	0.826059	0.008664	0.062586
O6	O	0.719084	-0.098313	0.062571
O7	O	0.921345	-0.086620	0.062571
Cu8	Cu	0.820215	-0.092466	0.074002
Cu9	Cu	0.820217	-0.092479	-0.074048
O10	O	0.814370	-0.193597	0.062556
C11	C	0.693209	-0.097943	-0.000022
C12	C	0.616105	-0.096816	-0.000022
C13	C	0.052064	-0.151959	-0.000031
C14	C	0.124511	-0.153025	-0.000035
C15	C	0.169217	-0.090255	-0.000024
C16	C	0.141472	-0.026416	-0.000029
C17	C	0.069027	-0.025353	-0.000032
C18	C	0.290487	-0.043438	0.043845
C19	C	0.362931	-0.044505	0.043853
C20	C	0.392663	-0.093533	-0.000017
C21	C	0.349942	-0.141507	-0.043885
C22	C	0.277496	-0.140443	-0.043888
C23	C	0.247773	-0.091401	-0.000021
C24	C	0.498955	-0.158523	-0.000022
C25	C	0.571403	-0.159586	-0.000031
C26	C	0.588364	-0.032976	-0.000017
C27	C	0.515917	-0.031915	-0.000016
C28	C	0.471216	-0.094691	-0.000015
C29	C	0.825684	0.034535	-0.000006
C30	C	0.824555	0.111638	0.000001
C31	C	0.947223	-0.087001	-0.000025
C32	C	1.024327	-0.088128	-0.000031
N33	N	0.820219	-0.092483	-0.178178
C34	C	0.814747	-0.219479	-0.000042
C35	C	0.815876	-0.296583	-0.000053
C36	C	0.887323	0.156336	0.000004
C37	C	0.886262	0.228783	-0.000008
C38	C	0.822430	0.256529	-0.000008
C39	C	0.759654	0.211822	-0.000016
C40	C	0.760716	0.139376	-0.000011
C41	C	0.772250	0.364819	0.043843
C42	C	0.771190	0.437264	0.043843
C43	C	0.819150	0.479975	-0.000025
C44	C	0.868183	0.450234	-0.043883
C45	C	0.869245	0.377788	-0.043879
C46	C	0.821271	0.335083	-0.000013
C47	C	0.880773	0.603228	-0.000035
C48	C	0.879709	0.675676	-0.000052
C49	C	0.753099	0.658713	-0.000052
C50	C	0.754164	0.586267	-0.000043
C51	C	0.818003	0.558529	-0.000031
C52	C	0.867680	-0.045192	-0.782461
C53	C	0.867678	-0.045190	-0.703659
C54	C	0.820221	-0.092466	-0.664267
C55	C	0.772751	-0.139734	-0.703684
C56	C	0.772749	-0.139729	-0.782484
C57	C	0.810793	-0.155753	-0.539444
C58	C	0.810799	-0.155759	-0.460645
C59	C	0.820221	-0.092480	-0.421221
C60	C	0.829652	-0.029193	-0.460605
C61	C	0.829651	-0.029188	-0.539405
C62	C	0.820217	-0.092476	-0.578821
C63	C	0.867683	-0.045210	-0.296368
C64	C	0.867677	-0.045208	-0.217565
C65	C	0.772753	-0.139757	-0.217591
C66	C	0.772757	-0.139754	-0.296393
C67	C	0.820225	-0.092481	-0.335776
N68	N	0.820218	-0.092456	0.178132
H69	H	0.046445	0.026628	-0.000033
Cl70	Cl	0.930878	0.340401	-0.099018
Cl71	Cl	0.442757	-0.237440	-0.000024
Cl72	Cl	0.681801	0.083181	-0.000015
Cl73	Cl	0.416629	0.015799	0.099007
H74	H	0.734110	-0.178225	-0.671607
Cl75	Cl	0.927343	0.014220	-0.168021
Cl76	Cl	0.197674	0.052494	-0.000019
Cl77	Cl	0.713088	-0.199184	-0.168076
H78	H	0.803124	-0.207291	-0.428585
H79	H	0.015673	-0.203077	-0.000034
H80	H	0.803108	-0.207286	-0.571537
H81	H	0.734100	-0.178218	-0.814570
Cl82	Cl	0.253122	0.018238	0.098956
Cl83	Cl	0.961025	0.568354	-0.000016
Cl84	Cl	0.159389	-0.233275	-0.000032
Cl85	Cl	0.223793	-0.200746	-0.099039
H86	H	0.374147	-0.181432	-0.079606
Cl87	Cl	0.967577	0.121469	-0.000002
H88	H	0.593984	-0.211567	-0.000037
H89	H	0.906330	-0.006698	-0.814525
H90	H	0.624763	0.018132	-0.000014
H91	H	0.493333	0.020063	-0.000012
H92	H	0.734112	-0.178244	-0.328480
H93	H	0.937377	0.265183	-0.000008
H94	H	0.907236	0.485008	-0.079606
Cl95	Cl	0.927349	0.014233	-0.654110
Cl96	Cl	0.672851	0.693587	-0.000057
Cl97	Cl	0.958626	0.731869	-0.000052
Cl98	Cl	0.841498	0.050369	-0.588914
H99	H	0.703051	0.549873	-0.000042
H100	H	0.837325	0.022335	-0.428508
Cl101	Cl	0.709553	0.474645	0.098982
H102	H	0.733193	0.330049	0.079570
H103	H	0.707681	0.234417	-0.000018
Cl104	Cl	0.927353	0.014221	-0.345882
