data_functionalizedCrystal
_audit_creation_method	'MofGen! by Chris Wilmer'
_symmetry_space_group_name_H-M	'P1'
_symmetry_Int_Tables_number	1
_symmetry_cell_setting	triclinic
loop_
_symmetry_equiv_pos_as_xyz
  x,y,z
_cell_length_a	10.723023
_cell_length_b	14.519731
_cell_length_c	9.798715
_cell_angle_alpha	89.995867
_cell_angle_beta	89.996770
_cell_angle_gamma	84.078200
loop_
_atom_site_label
_atom_site_type_symbol
_atom_site_fract_x
_atom_site_fract_y
_atom_site_fract_z
O1	O	1.655992	0.129343	-0.113480
O2	O	2.155992	0.629343	0.386520
O3	O	1.292725	0.141724	-0.113487
O4	O	1.792725	0.641724	0.386513
O5	O	1.483976	0.001346	-0.113471
O6	O	1.983976	0.501346	0.386529
O7	O	1.464741	0.269722	-0.113496
O8	O	1.964741	0.769722	0.386504
O9	O	1.483962	0.001345	0.113511
O10	O	1.983962	0.501345	0.613511
O11	O	1.292710	0.141724	0.113496
O12	O	1.792710	0.641724	0.613496
O13	O	1.655977	0.129342	0.113502
O14	O	2.155977	0.629342	0.613502
Zn15	Zn	1.474342	0.135533	0.149537
Zn16	Zn	1.974342	0.635533	0.649537
Zn17	Zn	1.474360	0.135534	-0.149522
Zn18	Zn	1.974360	0.635534	0.350478
O19	O	1.464726	0.269721	0.113486
O20	O	1.964726	0.769721	0.613486
C21	C	1.246226	0.140823	0.000004
C22	C	1.746226	0.640823	0.500004
C23	C	1.107697	0.138128	0.000002
C24	C	1.607697	0.638128	0.500002
C25	C	1.483067	-0.033019	0.000020
C26	C	1.983067	0.466981	0.500020
C27	C	1.480367	-0.135413	0.000021
C28	C	1.980367	0.364587	0.500021
C29	C	1.045929	0.136926	0.117585
C30	C	1.545929	0.636926	0.617585
C31	C	0.902751	0.134140	0.117585
C32	C	1.402751	0.634140	0.617585
C33	C	1.478172	-0.218568	0.000018
C34	C	1.978172	0.281432	0.500018
C35	C	1.475430	-0.322891	0.000008
C36	C	1.975430	0.177109	0.500008
C37	C	1.473254	-0.406041	-0.000001
C38	C	1.973254	0.093959	0.499999
C39	C	1.470512	-0.510370	-0.000009
C40	C	1.970512	-0.010370	0.499991
C41	C	1.702476	0.130243	0.000008
C42	C	2.202476	0.630243	0.500008
C43	C	1.841005	0.132939	0.000001
C44	C	2.341005	0.632939	0.500001
C45	C	1.465635	0.304085	-0.000008
C46	C	1.965635	0.804085	0.499992
C47	C	1.468336	0.406479	-0.000018
C48	C	1.968336	0.906479	0.499982
N49	N	1.474338	0.135532	0.353637
N50	N	1.974338	0.635532	0.853637
N51	N	1.474374	0.135527	-0.353622
N52	N	1.974374	0.635527	0.146378
C53	C	1.554642	0.076331	0.421420
C54	C	2.054642	0.576331	0.921420
C55	C	1.554662	0.076328	0.578583
C56	C	2.054662	0.576328	1.078583
H57	H	1.099046	0.137954	0.218251
H58	H	1.599046	0.637954	0.718251
H59	H	0.849631	0.133112	0.218252
H60	H	1.349631	0.633112	0.718252
H61	H	1.405597	0.186211	0.411955
H62	H	1.905597	0.686211	0.911955
C63	C	0.911949	0.134465	-0.134140
C64	C	1.411949	0.634465	0.365860
C65	C	0.972854	0.215112	-0.141256
C66	C	1.472854	0.715112	0.358744
C67	C	1.038242	0.216545	-0.264797
C68	C	1.538242	0.716545	0.235203
H69	H	0.854773	0.133400	-0.208025
H70	H	1.354773	0.633400	0.291975
H71	H	0.972190	0.081798	-0.139218
H72	H	1.472190	0.581798	0.360782
H73	H	0.912620	0.267766	-0.136191
H74	H	1.412620	0.767766	0.363809
H75	H	1.030050	0.216195	-0.067399
H76	H	1.530050	0.716195	0.432601
H77	H	1.098483	0.163877	-0.269875
H78	H	1.598483	0.663877	0.230125
H79	H	0.981057	0.215477	-0.338672
H80	H	1.481057	0.715477	0.161328
H81	H	1.079583	0.271259	-0.269636
H82	H	1.579583	0.771259	0.230364
C83	C	1.646156	0.008620	0.343708
C84	C	2.146156	0.508620	0.843708
C85	C	1.625412	-0.082110	0.378311
C86	C	2.125412	0.417890	0.878311
C87	C	1.709682	-0.144503	0.306725
C88	C	2.209682	0.355497	0.806725
H89	H	1.729596	0.018891	0.366968
H90	H	2.229596	0.518891	0.866968
H91	H	1.633933	0.017564	0.248405
H92	H	2.133933	0.517564	0.748405
H93	H	1.637645	-0.091050	0.473594
H94	H	2.137645	0.408950	0.973594
H95	H	1.541988	-0.092410	0.355048
H96	H	2.041988	0.407590	0.855048
H97	H	1.697459	-0.135559	0.211421
H98	H	2.197459	0.364441	0.711421
H99	H	1.793117	-0.134224	0.329990
H100	H	2.293117	0.365776	0.829990
H101	H	1.695611	-0.206070	0.330183
H102	H	2.195611	0.293930	0.830183
C103	C	1.646538	0.008845	0.656222
C104	C	2.146538	0.508845	1.156222
C105	C	1.769309	0.024361	0.621562
C106	C	2.269309	0.524361	1.121562
C107	C	1.853980	-0.037782	0.693071
C108	C	2.353980	0.462218	1.193071
H109	H	1.632791	-0.052803	0.632937
H110	H	2.132791	0.447197	1.132937
H111	H	1.634453	0.017828	0.751537
H112	H	2.134453	0.517828	1.251537
H113	H	1.781390	0.015370	0.526269
H114	H	2.281390	0.515370	1.026269
H115	H	1.783096	0.085997	0.644851
H116	H	2.283096	0.585997	1.144851
H117	H	1.841895	-0.028798	0.788386
H118	H	2.341895	0.471202	1.288386
H119	H	1.840222	-0.099426	0.669780
H120	H	2.340222	0.400574	1.169780
H121	H	1.937290	-0.027257	0.669574
H122	H	2.437290	0.472743	1.169574
C123	C	1.382894	0.203164	0.568500
C124	C	1.882894	0.703164	1.068500
C125	C	1.449787	0.259848	0.486425
C126	C	1.949787	0.759848	0.986425
C127	C	1.365559	0.322158	0.414642
C128	C	1.865559	0.822158	0.914642
H129	H	1.332491	0.240393	0.631266
H130	H	1.832491	0.740393	1.131266
H131	H	1.330795	0.169746	0.512690
H132	H	1.830795	0.669746	1.012690
H133	H	1.501864	0.293264	0.542231
H134	H	2.001864	0.793264	1.042231
H135	H	1.500185	0.222645	0.423634
H136	H	2.000185	0.722645	0.923634
H137	H	1.313460	0.288740	0.358832
H138	H	1.813460	0.788740	0.858832
H139	H	1.315160	0.359381	0.477417
H140	H	1.815160	0.859381	0.977417
H141	H	1.410933	0.360620	0.358936
H142	H	1.910933	0.860620	0.858936
H143	H	1.054581	0.137092	-0.100664
H144	H	1.554581	0.637092	0.399336
