data_functionalizedCrystal
_audit_creation_method	'MofGen! by Chris Wilmer'
_symmetry_space_group_name_H-M	'P1'
_symmetry_Int_Tables_number	1
_symmetry_cell_setting	triclinic
loop_
_symmetry_equiv_pos_as_xyz
  x,y,z
_cell_length_a	10.654550
_cell_length_b	15.186229
_cell_length_c	10.654551
_cell_angle_alpha	90.001981
_cell_angle_beta	84.485180
_cell_angle_gamma	90.000116
loop_
_atom_site_label
_atom_site_type_symbol
_atom_site_fract_x
_atom_site_fract_y
_atom_site_fract_z
O1	O	1.667840	0.073159	0.176397
O2	O	1.302362	0.073175	0.193203
O3	O	1.493503	0.073165	0.002061
O4	O	1.476699	0.073169	0.367539
O5	O	1.493490	-0.073293	0.002058
O6	O	1.302349	-0.073282	0.193201
O7	O	1.667827	-0.073298	0.176394
Zn8	Zn	1.485086	-0.096543	0.184797
Zn9	Zn	1.485103	0.096420	0.184801
O10	O	1.476686	-0.073288	0.367537
C11	C	1.255557	-0.000052	0.191968
C12	C	1.116114	-0.000046	0.188276
C13	C	1.036629	-0.000047	0.300818
C14	C	0.905608	-0.000062	0.297341
C15	C	0.933570	-0.000071	0.068772
C16	C	1.064589	-0.000062	0.072249
N17	N	1.485084	-0.228236	0.184794
C18	C	1.569750	-0.453964	0.100185
C19	C	1.569754	-0.546153	0.100182
C20	C	1.400439	-0.546153	0.269407
C21	C	1.400430	-0.453965	0.269403
C22	C	1.485093	-0.407873	0.184793
C23	C	1.485106	-0.592250	0.184795
C24	C	1.485109	-0.692207	0.184792
C25	C	1.485088	-0.307910	0.184794
C26	C	1.714632	-0.000070	0.177630
C27	C	1.854075	-0.000070	0.181322
C28	C	1.492262	-0.000062	-0.044738
C29	C	1.488570	-0.000058	-0.184181
N30	N	1.485115	0.228113	0.184794
C31	C	1.486844	0.079777	-0.249684
C32	C	1.483364	0.079778	-0.380704
C33	C	1.483341	-0.079898	-0.380709
C34	C	1.486812	-0.079898	-0.249690
C35	C	1.477926	-0.000059	0.414336
C36	C	1.481619	-0.000057	0.553779
H37	H	0.840896	-0.000065	0.388984
H38	H	1.488211	-0.144913	-0.196356
H39	H	1.481913	-0.144901	-0.434062
H40	H	0.891602	-0.000091	-0.025693
H41	H	1.078576	-0.000040	0.395294
Cl42	Cl	1.293990	-0.396017	0.375770
Cl43	Cl	1.489046	0.180147	-0.167334
H44	H	1.129309	-0.000064	-0.019401
H45	H	1.638686	-0.416437	0.031289
Cl46	Cl	1.294016	-0.604102	0.375773
Cl47	Cl	1.676182	-0.604093	-0.006190
Cl48	Cl	1.481191	0.180146	-0.463044
