data_functionalizedCrystal
_audit_creation_method	'MofGen! by Chris Wilmer'
_symmetry_space_group_name_H-M	'P1'
_symmetry_Int_Tables_number	1
_symmetry_cell_setting	triclinic
loop_
_symmetry_equiv_pos_as_xyz
  x,y,z
_cell_length_a	10.540514
_cell_length_b	9.016244
_cell_length_c	10.540539
_cell_angle_alpha	89.999933
_cell_angle_beta	95.479674
_cell_angle_gamma	90.007876
loop_
_atom_site_label
_atom_site_type_symbol
_atom_site_fract_x
_atom_site_fract_y
_atom_site_fract_z
O1	O	1.685912	0.123351	-0.178743
O2	O	1.316495	0.123349	-0.195632
O3	O	1.509631	0.123349	-0.002480
O4	O	1.492775	0.123352	-0.371894
O5	O	1.509603	-0.123332	-0.002484
O6	O	1.316466	-0.123331	-0.195636
O7	O	1.685883	-0.123329	-0.178747
Cu8	Cu	1.501172	-0.145854	-0.187192
Cu9	Cu	1.501206	0.145874	-0.187187
O10	O	1.492747	-0.123329	-0.371899
C11	C	1.269177	0.000009	-0.194374
C12	C	1.128227	0.000008	-0.190605
C13	C	1.057522	0.000013	-0.328745
C14	C	0.910908	0.000580	-0.324871
C15	C	0.935906	0.140609	-0.115476
C16	C	1.082445	0.140719	-0.120329
C17	C	1.082815	-0.139813	-0.118290
C18	C	0.935836	-0.141653	-0.116957
N19	N	1.501158	-0.351040	-0.187195
C20	C	1.397525	-0.586073	-0.290172
C21	C	1.397755	-0.414181	-0.290557
C22	C	1.633882	-0.413378	-0.217316
C23	C	1.633316	-0.585323	-0.218046
C24	C	1.473384	-0.585585	-0.053759
C25	C	1.470338	-0.413631	-0.054624
C26	C	1.733201	0.000014	-0.180004
C27	C	1.874151	0.000025	-0.183774
C28	C	1.508353	0.000011	0.044821
C29	C	1.504571	0.000019	0.185769
N30	N	1.501230	0.351060	-0.187174
C31	C	1.494025	0.000012	-0.419199
C32	C	1.497807	0.000014	-0.560147
C33	C	1.359652	0.000572	0.369182
C34	C	1.363486	0.000017	0.222564
C35	C	1.572451	-0.140848	0.247430
C36	C	1.567636	-0.140966	0.393974
C37	C	1.570538	0.139556	0.394497
C38	C	1.571837	0.141418	0.247516
H39	H	1.086050	-0.100787	-0.384785
O40	O	1.738691	-0.640424	-0.122552
H41	H	1.789834	-0.544255	-0.076064
O42	O	1.509973	-0.279713	0.190996
H43	H	1.408100	-0.281109	0.209619
H44	H	1.110682	0.246211	-0.170209
H45	H	1.299137	-0.372038	-0.272435
O46	O	1.563781	-0.356733	0.051775
H47	H	1.558941	-0.233829	0.054905
H48	H	1.415654	-0.373034	-0.389540
H49	H	0.869188	0.101951	-0.378357
O50	O	1.738614	-0.359206	-0.120669
H51	H	1.697080	-0.287097	-0.049976
O52	O	1.097540	0.133373	-0.401889
H53	H	1.167569	0.199653	-0.340284
O54	O	1.573507	-0.639540	0.047775
H55	H	1.527123	-0.704212	0.120139
O56	O	1.708094	0.152694	0.215452
H57	H	1.773069	0.151312	0.304746
H58	H	1.309675	-0.101131	0.180802
H59	H	1.657671	-0.625411	-0.315381
H60	H	1.114297	-0.246404	-0.164275
O61	O	1.292712	0.133750	0.166108
H62	H	1.255429	0.199403	0.243523
H63	H	0.911651	-0.150561	-0.014111
O64	O	1.666869	-0.356345	-0.344798
H65	H	1.588950	-0.283620	-0.386900
H66	H	1.669102	-0.147356	0.441952
H67	H	0.893311	0.245632	-0.162288
O68	O	1.347874	-0.643099	-0.015796
H69	H	1.330443	-0.596839	0.078568
O70	O	1.285817	0.134355	0.407078
H71	H	1.346791	0.201881	0.476691
H72	H	1.372699	-0.372890	-0.031792
O73	O	0.881545	-0.279433	-0.183075
H74	H	0.810911	-0.247160	-0.263185
H75	H	1.304135	-0.099881	0.399383
O76	O	1.501141	-0.280435	0.431335
H77	H	1.472715	-0.347158	0.344769
H78	H	1.522170	0.245627	0.206655
H79	H	1.676059	-0.146085	0.225085
O80	O	1.420929	-0.643273	-0.420546
H81	H	1.336595	-0.707228	-0.460998
H82	H	1.524888	0.246324	0.426048
O83	O	1.705520	0.140836	0.457069
H84	H	1.720795	0.042628	0.520172
O85	O	0.854371	-0.132875	-0.396029
H86	H	0.786231	-0.095400	-0.476425
H87	H	0.913592	0.145439	-0.011844
O88	O	1.146058	0.148665	0.014073
H89	H	1.116271	0.251937	0.060271
O90	O	1.145431	-0.141637	0.016670
H91	H	1.118832	-0.039690	0.066878
O92	O	1.266480	-0.640919	-0.266566
H93	H	1.273856	-0.713580	-0.181177
