data_functionalizedCrystal
_audit_creation_method	'MofGen! by Chris Wilmer'
_symmetry_space_group_name_H-M	'P1'
_symmetry_Int_Tables_number	1
_symmetry_cell_setting	triclinic
loop_
_symmetry_equiv_pos_as_xyz
  x,y,z
_cell_length_a	12.759395
_cell_length_b	19.120786
_cell_length_c	12.759387
_cell_angle_alpha	87.523566
_cell_angle_beta	89.980569
_cell_angle_gamma	92.465113
loop_
_atom_site_label
_atom_site_type_symbol
_atom_site_fract_x
_atom_site_fract_y
_atom_site_fract_z
Zn1	Zn	1.588347	-0.279597	-0.576089
Zn2	Zn	1.580708	-0.397073	-0.392895
Zn3	Zn	1.412643	-0.279632	-0.400427
Zn4	Zn	1.405111	-0.397019	-0.568541
O5	O	1.496703	-0.338330	-0.484488
O6	O	1.734355	-0.295189	-0.551795
O7	O	1.558369	-0.381531	-0.246871
O8	O	1.442300	-0.181337	-0.430041
O9	O	1.728742	-0.381497	-0.417203
O10	O	1.571389	-0.181311	-0.559099
O11	O	1.434893	-0.295248	-0.252405
O12	O	1.264624	-0.295196	-0.422721
O13	O	1.429463	-0.381406	-0.716566
O14	O	1.259090	-0.381440	-0.546234
O15	O	1.564086	-0.295137	-0.722112
O16	O	1.551066	-0.495357	-0.409884
O17	O	1.422056	-0.495317	-0.538930
C18	C	1.223736	-0.338317	-0.484476
C19	C	1.106959	-0.338327	-0.484495
C20	C	1.112774	-0.248600	-0.624853
C21	C	1.060821	-0.203744	-0.695041
C22	C	0.951098	-0.203757	-0.695053
C23	C	0.893327	-0.248628	-0.624868
C24	C	0.945280	-0.293483	-0.554681
C25	C	1.055005	-0.293467	-0.554679
C26	C	0.939465	-0.383207	-0.414319
C27	C	1.049187	-0.383199	-0.414310
C28	C	0.881693	-0.428078	-0.344135
C29	C	0.933646	-0.472938	-0.273951
C30	C	1.043376	-0.472924	-0.273942
C31	C	1.101140	-0.428054	-0.344123
C32	C	1.484943	-0.520823	-0.472793
C33	C	1.480008	-0.598893	-0.467825
C34	C	1.544850	-0.635498	-0.532739
C35	C	1.540209	-0.708854	-0.528073
C36	C	1.470731	-0.745604	-0.458487
C37	C	1.405883	-0.708995	-0.393570
C38	C	1.410519	-0.635640	-0.398242
C39	C	1.453368	-0.967091	-0.441020
C40	C	1.448738	-1.040451	-0.436351
C41	C	1.583064	-1.040304	-0.570856
C42	C	1.587698	-0.966949	-0.575518
C43	C	1.522846	-0.930346	-0.510605
C44	C	1.465988	-0.820585	-0.453713
C45	C	1.527585	-0.855365	-0.515384
C46	C	1.770735	-0.338345	-0.484501
C47	C	1.887511	-0.338351	-0.484506
C48	C	1.496786	-0.338262	-0.758526
C49	C	1.496822	-0.338232	-0.875305
C50	C	1.508537	-0.155126	-0.496252
C51	C	1.513580	-0.077055	-0.501265
C52	C	1.637013	-0.248406	-0.881099
C53	C	1.707124	-0.203482	-0.938858
C54	C	1.707151	-0.203457	-1.048581
C55	C	1.637058	-0.248358	-1.100548
C56	C	1.566947	-0.293282	-1.042790
C57	C	1.566930	-0.293304	-0.933064
C58	C	1.426752	-0.383104	-1.036996
C59	C	1.426729	-0.383134	-0.927272
C60	C	1.356659	-0.428005	-1.088963
C61	C	1.286551	-0.472933	-1.031204
C62	C	1.286528	-0.472958	-0.921474
C63	C	1.356618	-0.428058	-0.869513
C64	C	1.496683	-0.338348	-0.211520
C65	C	1.496863	-0.338180	-0.094754
H66	H	0.908798	-0.167227	-0.752199
H67	H	1.202117	-0.248582	-0.624846
N68	N	1.637084	-0.248313	-1.212628
N69	N	1.699678	-0.208193	-1.264186
H70	H	1.699695	-0.208161	-1.343344
N71	N	1.213218	-0.428042	-0.344092
N72	N	1.259597	-0.468089	-0.281417
H73	H	1.338754	-0.468077	-0.281393
H74	H	1.349308	-0.738923	-0.336915
H75	H	1.107870	-0.167210	-0.752182
H76	H	1.593018	-0.738653	-0.580925
N77	N	1.214938	-0.518783	-1.084277
N78	N	1.118294	-0.514106	-1.072303
H79	H	1.067712	-0.546485	-1.109792
N80	N	0.874637	-0.518757	-0.202251
N81	N	0.814982	-0.493988	-0.136955
H82	H	0.773303	-0.526348	-0.086314
N83	N	1.658679	-0.929422	-0.646601
N84	N	1.716570	-0.962113	-0.704555
H85	H	1.766704	-0.935611	-0.754757
H86	H	0.803986	-0.248628	-0.624877
N87	N	1.636986	-0.248448	-0.769019
N88	N	1.655383	-0.303255	-0.716532
H89	H	1.655366	-0.303285	-0.637373
H90	H	1.356682	-0.427978	-1.178306
N91	N	1.649298	-1.077705	-0.637150
N92	N	1.645155	-1.143199	-0.632972
H93	H	1.691934	-1.169614	-0.679796
H94	H	0.792352	-0.428083	-0.344147
N95	N	1.096457	-0.518745	-0.202260
N96	N	1.194423	-0.518733	-0.202261
H97	H	1.231911	-0.551095	-0.151635
N98	N	1.615835	-0.597972	-0.603819
N99	N	1.673723	-0.630667	-0.661772
H100	H	1.723858	-0.604167	-0.711976
N101	N	1.377799	-1.077981	-0.365220
N102	N	1.319927	-1.045293	-0.307242
H103	H	1.269843	-1.071798	-0.256992
H104	H	1.400564	-0.937295	-0.388163
N105	N	1.344271	-0.598258	-0.331933
N106	N	1.282239	-0.631077	-0.269808
H107	H	1.235445	-0.604678	-0.222978
N108	N	1.214923	-0.518857	-0.862478
N109	N	1.248974	-0.563638	-0.798385
H110	H	1.198402	-0.596056	-0.756722
N111	N	1.598559	-0.817820	-0.586445
N112	N	1.668105	-0.776867	-0.552129
H113	H	1.718237	-0.750344	-0.602311
H114	H	1.409422	-0.850516	-0.397053
H115	H	1.356610	-0.428076	-0.780171
N116	N	1.778707	-0.157619	-0.885758
N117	N	1.778678	-0.157645	-0.787792
H118	H	1.829231	-0.125252	-0.750291
H119	H	1.764236	-0.166871	-1.095609
