data_functionalizedCrystal
_audit_creation_method	'MofGen! by Chris Wilmer'
_symmetry_space_group_name_H-M	'P1'
_symmetry_Int_Tables_number	1
_symmetry_cell_setting	triclinic
loop_
_symmetry_equiv_pos_as_xyz
  x,y,z
_cell_length_a	10.685901
_cell_length_b	10.686685
_cell_length_c	10.686551
_cell_angle_alpha	90.361117
_cell_angle_beta	90.348291
_cell_angle_gamma	80.963890
loop_
_atom_site_label
_atom_site_type_symbol
_atom_site_fract_x
_atom_site_fract_y
_atom_site_fract_z
Zn1	Zn	2.022398	-0.610640	0.604928
Zn2	Zn	2.522398	-0.110640	1.104928
Zn3	Zn	2.024746	-0.836712	0.411112
Zn4	Zn	2.524746	-0.336712	0.911112
Zn5	Zn	1.796329	-0.608268	0.411136
Zn6	Zn	2.296329	-0.108268	0.911136
Zn7	Zn	1.828531	-0.804437	0.634665
Zn8	Zn	2.328531	-0.304437	1.134665
O9	O	1.918001	-0.715014	0.515460
O10	O	2.418001	-0.215014	1.015460
O11	O	2.199437	-0.655129	0.566762
O12	O	2.699437	-0.155129	1.066762
O13	O	1.981952	-0.818923	0.236456
O14	O	2.481952	-0.318923	0.736456
O15	O	1.811858	-0.431873	0.424408
O16	O	2.311858	0.068127	0.924408
O17	O	2.201162	-0.821223	0.424367
O18	O	2.701162	-0.321223	0.924367
O19	O	1.977950	-0.433615	0.566786
O20	O	2.477950	0.066385	1.066786
O21	O	1.814135	-0.651085	0.236473
O22	O	2.314135	-0.151085	0.736473
O23	O	1.623873	-0.619790	0.453243
O24	O	2.123873	-0.119790	0.953243
O25	O	1.866741	-0.766215	0.805380
O26	O	2.366741	-0.266215	1.305380
O27	O	1.647532	-0.763915	0.617468
O28	O	2.147532	-0.263915	1.117468
O29	O	2.009175	-0.623833	0.783532
O30	O	2.509175	-0.123833	1.283532
O31	O	2.013177	-1.009140	0.453202
O32	O	2.513177	-0.509140	0.953202
O33	O	1.869018	-0.985428	0.617445
O34	O	2.369018	-0.485428	1.117445
C35	C	1.589879	-0.688094	0.538586
C36	C	2.089879	-0.188094	1.038586
C37	C	1.449512	-0.676605	0.548511
C38	C	1.949512	-0.176605	1.048511
C39	C	1.944883	-1.043104	0.538572
C40	C	2.444883	-0.543104	1.038572
C41	C	1.956502	-1.183469	0.548493
C42	C	2.456502	-0.683469	1.048493
C43	C	2.247404	-0.742041	0.492245
C44	C	2.747404	-0.242041	0.992245
C45	C	2.387776	-0.753558	0.482352
C46	C	2.887776	-0.253558	0.982352
C47	C	1.941288	-0.691689	0.841009
C48	C	2.441288	-0.191689	1.341009
C49	C	1.951212	-0.681749	0.979739
C50	C	2.451212	-0.181749	1.479739
C51	C	1.891050	-0.385644	0.492283
C52	C	2.391050	0.114356	0.992283
C53	C	1.879565	-0.245286	0.482406
C54	C	2.379565	0.254714	0.982406
C55	C	1.894869	-0.738164	0.191166
C56	C	2.394869	-0.238164	0.691166
C57	C	1.885161	-0.747768	0.052395
C58	C	2.385161	-0.247768	0.552395
H59	H	1.442307	-0.828232	0.418127
H60	H	1.942307	-0.328232	0.918127
Br61	Br	1.778261	-0.854663	0.979183
Br62	Br	2.278261	-0.354663	1.479183
H63	H	2.031261	-1.237928	0.612653
H64	H	2.531261	-0.737928	1.112653
Br65	Br	1.754967	-1.154519	0.375440
Br66	Br	2.254967	-0.654519	0.875440
H67	H	1.394976	-0.601936	0.612752
H68	H	1.894976	-0.101936	1.112752
H69	H	2.015362	-0.617624	1.023673
H70	H	2.515362	-0.117624	1.523673
