data_functionalizedCrystal
_audit_creation_method	'MofGen! by Chris Wilmer'
_symmetry_space_group_name_H-M	'P1'
_symmetry_Int_Tables_number	1
_symmetry_cell_setting	triclinic
loop_
_symmetry_equiv_pos_as_xyz
  x,y,z
_cell_length_a	18.050591
_cell_length_b	18.050589
_cell_length_c	16.959447
_cell_angle_alpha	90.026643
_cell_angle_beta	90.020296
_cell_angle_gamma	90.024669
loop_
_atom_site_label
_atom_site_type_symbol
_atom_site_fract_x
_atom_site_fract_y
_atom_site_fract_z
Zn1	Zn	1.135296	-0.295715	0.447055
Zn2	Zn	1.635296	0.204285	0.947055
Zn3	Zn	1.135206	-0.419917	0.314885
Zn4	Zn	1.635206	0.080083	0.814885
Zn5	Zn	1.011115	-0.295737	0.314879
Zn6	Zn	1.511115	0.204263	0.814879
Zn7	Zn	1.011064	-0.419860	0.447010
Zn8	Zn	1.511064	0.080140	0.947010
O9	O	1.073170	-0.357807	0.380957
O10	O	1.573170	0.142193	0.880957
O11	O	1.239209	-0.312205	0.429544
O12	O	1.739209	0.187795	0.929544
O13	O	1.118728	-0.403477	0.204273
O14	O	1.618728	0.096523	0.704273
O15	O	1.027647	-0.191810	0.332428
O16	O	1.527647	0.308190	0.832428
O17	O	1.239143	-0.403455	0.332439
O18	O	1.739143	0.096545	0.832439
O19	O	1.118883	-0.191793	0.429538
O20	O	1.618883	0.308207	0.929538
O21	O	1.027559	-0.312243	0.204268
O22	O	1.527559	0.187757	0.704268
O23	O	0.907183	-0.312188	0.332384
O24	O	1.407183	0.187812	0.832384
O25	O	1.027560	-0.403359	0.557627
O26	O	1.527560	0.096641	1.057627
O27	O	0.907146	-0.403381	0.429461
O28	O	1.407146	0.096619	0.929461
O29	O	1.118833	-0.312150	0.557660
O30	O	1.618833	0.187850	1.057660
O31	O	1.118679	-0.523834	0.332395
O32	O	1.618679	-0.023834	0.832395
O33	O	1.027472	-0.523792	0.429467
O34	O	1.527472	-0.023792	0.929467
C35	C	0.880218	-0.357781	0.380917
C36	C	1.380218	0.142219	0.880917
C37	C	0.797672	-0.357788	0.380919
C38	C	1.297672	0.142212	0.880919
C39	C	0.548845	-0.308146	0.328254
C40	C	1.048845	0.191854	0.828254
C41	C	0.598278	-0.290055	0.400389
C42	C	1.098278	0.209945	0.900389
C43	C	0.500552	-0.357826	0.380984
C44	C	1.000552	0.142174	0.880984
C45	C	0.598201	-0.375863	0.308821
C46	C	1.098201	0.124137	0.808821
C47	C	0.646537	-0.357805	0.380948
C48	C	1.146537	0.142195	0.880948
C49	C	0.548897	-0.339700	0.453158
C50	C	1.048897	0.160300	0.953158
C51	C	0.548816	-0.425539	0.361540
C52	C	1.048816	0.074461	0.861540
C53	C	0.598226	-0.407474	0.433725
C54	C	1.098226	0.092526	0.933725
C55	C	0.416454	-0.357836	0.381003
C56	C	0.916454	0.142164	0.881003
C57	C	0.730633	-0.357796	0.380937
C58	C	1.230633	0.142204	0.880937
C59	C	1.073081	-0.550760	0.380944
C60	C	1.573081	-0.050760	0.880944
C61	C	1.073110	-0.633305	0.380965
C62	C	1.573110	-0.133305	0.880965
C63	C	1.023561	-0.832760	0.433734
C64	C	1.523561	-0.332760	0.933734
C65	C	1.005462	-0.882203	0.361605
C66	C	1.505462	-0.382203	0.861605
C67	C	1.073183	-0.784436	0.380975
C68	C	1.573183	-0.284436	0.880975
C69	C	1.091318	-0.882074	0.453112
C70	C	1.591318	-0.382074	0.953112
C71	C	1.073252	-0.930421	0.380991
C72	C	1.573252	-0.430421	0.880991
C73	C	1.055049	-0.832791	0.308808
C74	C	1.555049	-0.332791	0.808808
C75	C	1.140936	-0.832658	0.400364
C76	C	1.640936	-0.332658	0.900364
C77	C	1.122864	-0.882079	0.328185
C78	C	1.622864	-0.382079	0.828185
C79	C	1.073141	-0.700337	0.380967
C80	C	1.573141	-0.200337	0.880967
C81	C	1.073294	-1.014517	0.380991
C82	C	1.573294	-0.514517	0.880991
C83	C	1.266876	-0.357834	0.380997
C84	C	1.766876	0.142166	0.880997
C85	C	1.349422	-0.357846	0.381014
C86	C	1.849422	0.142154	0.881014
C87	C	1.073201	-0.357746	0.587125
C88	C	1.573201	0.142254	1.087125
C89	C	1.073214	-0.357720	0.674982
C90	C	1.573214	0.142280	1.174982
C91	C	1.073280	-0.164102	0.380987
C92	C	1.573280	0.335898	0.880987
C93	C	1.073327	-0.081556	0.381000
C94	C	1.573327	0.418444	0.881000
C95	C	1.073182	-0.357815	0.175591
C96	C	1.573182	0.142185	0.675591
C97	C	1.073313	-0.357632	0.087735
C98	C	1.573313	0.142368	0.587735
C99	C	1.025781	-0.405130	1.046443
C100	C	1.525781	0.094870	1.546443
C101	C	1.120825	-0.310153	1.046473
C102	C	1.620825	0.189847	1.546473
C103	C	1.120805	-0.310169	0.963927
C104	C	1.620805	0.189831	1.463927
C105	C	1.073273	-0.357666	0.922635
C106	C	1.573273	0.142334	1.422635
C107	C	1.025761	-0.405148	0.963889
C108	C	1.525761	0.094852	1.463889
C109	C	1.168321	-0.262693	0.922666
C110	C	1.668321	0.237307	1.422666
C111	C	1.168304	-0.262708	0.840115
C112	C	1.668304	0.237292	1.340115
C113	C	1.120768	-0.310202	0.798822
C114	C	1.620768	0.189798	1.298822
C115	C	1.073254	-0.357685	0.840081
C116	C	1.573254	0.142315	1.340081
C117	C	1.025722	-0.405183	0.798790
C118	C	1.525722	0.094817	1.298790
C119	C	0.978203	-0.452663	0.840048
C120	C	1.478203	0.047337	1.340048
C121	C	0.978225	-0.452643	0.922596
C122	C	1.478225	0.047357	1.422596
C123	C	1.120746	-0.310222	0.716274
C124	C	1.620746	0.189778	1.216274
C125	C	1.025702	-0.405202	0.716236
C126	C	1.525702	0.094798	1.216236
H127	H	0.527074	-0.482796	0.345084
H128	H	1.027074	0.017204	0.845084
H129	H	1.206996	-0.224046	0.806530
H130	H	1.706996	0.275954	1.306530
O131	O	0.624236	-0.221779	0.420132
O132	O	1.124236	0.278221	0.920132
C133	C	0.696645	-0.149562	0.511551
C134	C	1.196645	0.350438	1.011551
C135	C	0.667287	-0.226924	0.489299
C136	C	1.167287	0.273076	0.989299
H137	H	0.731470	-0.153698	0.567465
H138	H	1.231470	0.346302	1.067465
H139	H	0.648008	-0.110555	0.522207
H140	H	1.148008	0.389445	1.022207
H141	H	0.732233	-0.127167	0.461411
H142	H	1.232233	0.372833	0.961411
H143	H	0.631711	-0.249386	0.539411
H144	H	1.131711	0.250614	1.039411
H145	H	0.715957	-0.265882	0.478615
H146	H	1.215957	0.234118	0.978615
O147	O	0.932141	-0.498738	0.962796
O148	O	1.432141	0.001262	1.462796
C149	C	0.890022	-0.540767	1.089956
C150	C	1.390022	-0.040767	1.589956
C151	C	0.942260	-0.488539	1.044525
C152	C	1.442260	0.011461	1.544525
H153	H	0.898174	-0.532528	1.156042
H154	H	1.398174	-0.032528	1.656042
H155	H	0.903023	-0.600673	1.073772
H156	H	1.403023	-0.100673	1.573772
H157	H	0.830150	-0.527727	1.073678
H158	H	1.330150	-0.027727	1.573678
H159	H	1.002150	-0.501512	1.060779
H160	H	1.502150	-0.001512	1.560779
H161	H	0.929195	-0.428649	1.060713
H162	H	1.429195	0.071351	1.560713
H163	H	0.619860	-0.391127	0.247809
H164	H	1.119860	0.108873	0.747809
O165	O	1.166877	-0.264178	0.676074
O166	O	1.666877	0.235822	1.176074
C167	C	1.208941	-0.222085	0.548917
C168	C	1.708941	0.277915	1.048917
C169	C	1.156669	-0.274282	0.594343
C170	C	1.656669	0.225718	1.094343
H171	H	1.200695	-0.230224	0.482830
H172	H	1.700695	0.269776	0.982830
H173	H	1.268836	-0.235139	0.565091
H174	H	1.768836	0.264861	1.065091
H175	H	1.195953	-0.162203	0.565209
H176	H	1.695953	0.337797	1.065209
H177	H	1.169591	-0.334181	0.578076
H178	H	1.669591	0.165819	1.078076
H179	H	1.096790	-0.261164	0.578166
H180	H	1.596790	0.238836	1.078166
H181	H	0.527330	-0.324368	0.514187
H182	H	1.027330	0.175632	1.014187
H183	H	0.619770	-0.449478	0.478354
H184	H	1.119770	0.050522	0.978354
O185	O	1.166958	-0.263915	1.086495
O186	O	1.666958	0.236085	1.586495
C187	C	1.203053	-0.137588	1.111836
C188	C	1.703053	0.362412	1.611836
C189	C	1.150771	-0.189871	1.066443
C190	C	1.650771	0.310129	1.566443
H191	H	1.189974	-0.077711	1.095653
H192	H	1.689974	0.422289	1.595653
H193	H	1.262937	-0.150577	1.095593
H194	H	1.762937	0.349423	1.595593
H195	H	1.194918	-0.145773	1.177918
H196	H	1.694918	0.354227	1.677918
H197	H	1.158840	-0.181715	1.000351
H198	H	1.658840	0.318285	1.500351
H199	H	1.090906	-0.176869	1.082752
H200	H	1.590906	0.323131	1.582752
O201	O	0.973328	-0.806953	0.486796
O202	O	1.473328	-0.306953	0.986796
C203	C	0.845175	-0.802961	0.526312
C204	C	1.345175	-0.302961	1.026312
C205	C	0.901983	-0.832223	0.466158
C206	C	1.401983	-0.332223	0.966158
H207	H	0.787483	-0.823393	0.509656
H208	H	1.287483	-0.323393	1.009656
H209	H	0.845924	-0.739807	0.526208
H210	H	1.345924	-0.239807	1.026208
H211	H	0.860077	-0.824063	0.587644
H212	H	1.360077	-0.324063	1.087644
H213	H	0.887121	-0.811176	0.404796
H214	H	1.387121	-0.311176	0.904796
H215	H	0.901224	-0.895376	0.466330
H216	H	1.401224	-0.395376	0.966330
H217	H	0.948198	-0.903982	0.345220
H218	H	1.448198	-0.403982	0.845220
H219	H	1.039672	-0.811232	0.247792
H220	H	1.539672	-0.311232	0.747792
H221	H	0.527165	-0.266111	0.283732
H222	H	1.027165	0.233889	0.783732
H223	H	1.164857	-0.903597	0.283524
H224	H	1.664857	-0.403597	0.783524
H225	H	1.198188	-0.810881	0.416783
H226	H	1.698188	-0.310881	0.916783
H227	H	1.106629	-0.903723	0.514111
H228	H	1.606629	-0.403723	1.014111
H229	H	0.986989	-0.443874	0.682622
H230	H	1.486989	0.056126	1.182622
H231	H	0.939506	-0.491339	0.806417
H232	H	1.439506	0.008661	1.306417
O233	O	0.979694	-0.451226	1.086637
O234	O	1.479694	0.048774	1.586637
C235	C	0.937558	-0.493257	1.213791
C236	C	1.437558	0.006743	1.713791
C237	C	0.989802	-0.441028	1.168369
C238	C	1.489802	0.058972	1.668369
H239	H	0.945701	-0.485019	1.279878
H240	H	1.445701	0.014981	1.779878
H241	H	0.950563	-0.553163	1.197608
H242	H	1.450563	-0.053163	1.697608
H243	H	0.877688	-0.480218	1.197504
H244	H	1.377688	0.019782	1.697504
H245	H	1.049689	-0.454000	1.184631
H246	H	1.549689	0.046000	1.684631
H247	H	0.976733	-0.381138	1.184555
H248	H	1.476733	0.118862	1.684555
O249	O	1.214454	-0.216457	0.962692
O250	O	1.714454	0.283543	1.462692
C251	C	1.250555	-0.090132	0.988036
C252	C	1.750555	0.409868	1.488036
C253	C	1.198275	-0.142412	0.942637
C254	C	1.698275	0.357588	1.442637
H255	H	1.237483	-0.030255	0.971851
H256	H	1.737483	0.469745	1.471851
H257	H	1.310441	-0.103126	0.971802
H258	H	1.810441	0.396874	1.471802
H259	H	1.242412	-0.098315	1.054117
H260	H	1.742412	0.401685	1.554117
H261	H	1.206353	-0.134258	0.876545
H262	H	1.706353	0.365742	1.376545
H263	H	1.138409	-0.129405	0.958937
H264	H	1.638409	0.370595	1.458937
