data_functionalizedCrystal
_audit_creation_method	'MofGen! by Chris Wilmer'
_symmetry_space_group_name_H-M	'P1'
_symmetry_Int_Tables_number	1
_symmetry_cell_setting	triclinic
loop_
_symmetry_equiv_pos_as_xyz
  x,y,z
_cell_length_a	16.120484
_cell_length_b	19.077241
_cell_length_c	19.076919
_cell_angle_alpha	90.113904
_cell_angle_beta	95.046610
_cell_angle_gamma	84.670961
loop_
_atom_site_label
_atom_site_type_symbol
_atom_site_fract_x
_atom_site_fract_y
_atom_site_fract_z
Zn1	Zn	-0.303890	-1.044776	-0.453016
Zn2	Zn	-0.438041	-1.043450	-0.341006
Zn3	Zn	-0.303449	-0.932011	-0.330776
Zn4	Zn	-0.449207	-0.920773	-0.454199
O5	O	-0.373647	-0.985252	-0.394750
O6	O	-0.317197	-1.143133	-0.441944
O7	O	-0.415330	-1.032816	-0.241120
O8	O	-0.186365	-0.952228	-0.342215
O9	O	-0.415758	-1.142159	-0.359651
O10	O	-0.186689	-1.035076	-0.432024
O11	O	-0.316446	-0.950942	-0.233603
O12	O	-0.327272	-0.831987	-0.343362
O13	O	-0.434788	-0.933074	-0.552572
O14	O	-0.434360	-0.823730	-0.434041
O15	O	-0.328024	-1.024178	-0.551703
O16	O	-0.556666	-1.021918	-0.360798
O17	O	-0.564869	-0.931788	-0.443961
C18	C	-0.381981	-0.802310	-0.387720
C19	C	-0.385567	-0.724045	-0.384730
C20	C	-0.336025	-0.687777	-0.426243
C21	C	-0.339390	-0.614239	-0.423428
C22	C	-0.392302	-0.576970	-0.379102
C23	C	-0.441846	-0.613243	-0.337584
C24	C	-0.438476	-0.686780	-0.340397
C25	C	-0.407871	-0.356984	-0.366086
C26	C	-0.411239	-0.283442	-0.363278
C27	C	-0.308781	-0.284443	-0.449121
C28	C	-0.305420	-0.357981	-0.451933
C29	C	-0.354960	-0.394248	-0.410412
N30	N	-0.395745	-0.501802	-0.376225
N31	N	-0.351512	-0.469415	-0.413286
C32	C	-0.591141	-0.975508	-0.403634
C33	C	-0.684184	-0.971403	-0.407461
C34	C	-0.854535	-0.963911	-0.414462
C35	C	-0.891913	-1.006719	-0.375053
C36	C	-0.986702	-1.002551	-0.378949
C37	C	-0.759737	-0.968079	-0.410568
C38	C	-0.155304	-0.995053	-0.385846
C39	C	-0.062259	-0.999230	-0.382052
C40	C	-0.382701	-0.977520	-0.578400
C41	C	-0.386559	-0.974225	-0.656660
C42	C	-0.365276	-0.168909	-0.401801
C43	C	-0.361697	-0.247174	-0.404792
C44	C	-0.332788	-1.020108	-0.692976
C45	C	-0.336410	-1.017004	-0.766510
C46	C	-0.393808	-0.968019	-0.803727
C47	C	-0.447581	-0.922131	-0.767406
C48	C	-0.443954	-0.925233	-0.693873
C49	C	-0.410612	-0.953654	-1.023695
C50	C	-0.414237	-0.950557	-1.097233
C51	C	-0.303064	-1.045428	-1.096331
C52	C	-0.299446	-1.048529	-1.022797
C53	C	-0.353216	-1.002638	-0.986483
N54	N	-0.397514	-0.964846	-0.878890
N55	N	-0.349505	-1.005808	-0.911320
C56	C	-0.364566	-0.992998	-0.211813
C57	C	-0.360466	-0.996440	-0.133548
H58	H	-0.292940	-0.718116	-0.462340
O59	O	-0.906440	-0.911219	-0.463024
H60	H	-0.864438	-0.880501	-0.491298
H61	H	-0.299049	-0.584713	-0.457234
H62	H	-0.478818	-0.716309	-0.306592
O63	O	-0.509486	-0.869296	-0.807548
H64	H	-0.546261	-0.837906	-0.769938
O65	O	-0.237537	-1.101366	-0.982662
H66	H	-0.194732	-1.073180	-0.946205
H67	H	-0.448211	-0.386504	-0.332278
O68	O	-0.468302	-0.243244	-0.315458
H69	H	-0.514043	-0.206520	-0.347372
O70	O	-0.255347	-0.245323	-0.493896
H71	H	-0.217992	-0.283593	-0.525193
O72	O	-0.270880	-1.072942	-0.652835
H73	H	-0.234093	-1.104320	-0.690444
H74	H	-0.852725	-1.046498	-0.338387
H75	H	-0.487732	-0.887863	-0.664305
H76	H	-0.262336	-0.388321	-0.488030
O77	O	-0.498912	-0.573051	-0.289770
H78	H	-0.544653	-0.536326	-0.321684
O79	O	-0.468584	-0.904123	-0.984550
H80	H	-0.534440	-0.912630	-1.001796
O81	O	-0.278420	-1.066495	-0.805682
H82	H	-0.237907	-1.101085	-0.767450
H83	H	-0.259286	-1.082789	-1.125907
O84	O	-0.476142	-0.897717	-1.137378
H85	H	-0.512917	-0.866322	-1.099773
