data_functionalizedCrystal
_audit_creation_method	'MofGen! by Chris Wilmer'
_symmetry_space_group_name_H-M	'P1'
_symmetry_Int_Tables_number	1
_symmetry_cell_setting	triclinic
loop_
_symmetry_equiv_pos_as_xyz
  x,y,z
_cell_length_a	14.044191
_cell_length_b	14.044190
_cell_length_c	13.101039
_cell_angle_alpha	93.663707
_cell_angle_beta	86.337551
_cell_angle_gamma	93.191777
loop_
_atom_site_label
_atom_site_type_symbol
_atom_site_fract_x
_atom_site_fract_y
_atom_site_fract_z
O1	O	1.281983	0.225377	-0.085186
O2	O	1.615316	0.558711	0.248148
O3	O	1.948650	0.892044	0.581481
O4	O	1.005311	0.217064	-0.085198
O5	O	1.338644	0.550397	0.248135
O6	O	1.671978	0.883730	0.581469
O7	O	1.139490	0.082885	-0.085172
O8	O	1.472823	0.416219	0.248162
O9	O	1.806156	0.749552	0.581495
O10	O	1.147805	0.359556	-0.085212
O11	O	1.481138	0.692889	0.248122
O12	O	1.814471	1.026222	0.581455
O13	O	1.129864	0.092530	0.085256
O14	O	1.463197	0.425863	0.418590
O15	O	1.796531	0.759197	0.751923
O16	O	0.995685	0.226708	0.085230
O17	O	1.329019	0.560042	0.418563
O18	O	1.662352	0.893375	0.751897
O19	O	1.272357	0.235022	0.085242
O20	O	1.605691	0.568355	0.418576
O21	O	1.939024	0.901688	0.751909
Zn22	Zn	1.132493	0.232396	0.112295
Zn23	Zn	1.465826	0.565730	0.445629
Zn24	Zn	1.799160	0.899063	0.778962
Zn25	Zn	1.145175	0.219689	-0.112251
Zn26	Zn	1.478509	0.553023	0.221082
Zn27	Zn	1.811842	0.886356	0.554416
O28	O	1.138179	0.369200	0.085216
O29	O	1.471512	0.702534	0.418550
O30	O	1.804846	1.035867	0.751883
C31	C	0.964876	0.218249	0.000015
C32	C	1.298210	0.551583	0.333348
C33	C	1.631543	0.884916	0.666682
C34	C	0.858733	0.207402	0.000011
C35	C	1.192066	0.540735	0.333344
C36	C	1.525400	0.874069	0.666678
C37	C	1.131040	0.052086	0.000045
C38	C	1.464373	0.385419	0.333378
C39	C	1.797707	0.718752	0.666712
C40	C	1.120192	-0.054057	0.000054
C41	C	1.453526	0.279276	0.333387
C42	C	1.786859	0.612609	0.666720
C43	C	0.613276	0.264503	0.000013
C44	C	0.946609	0.597836	0.333346
C45	C	1.279943	0.931169	0.666680
C46	C	0.664399	0.187587	0.000022
C47	C	0.997732	0.520920	0.333356
C48	C	1.331066	0.854253	0.666689
C49	C	0.772536	0.198615	0.000016
C50	C	1.105870	0.531948	0.333349
C51	C	1.439203	0.865281	0.666683
C52	C	0.505129	0.253476	0.000019
C53	C	0.838462	0.586810	0.333353
C54	C	1.171795	0.920143	0.666686
C55	C	1.177295	-0.299516	0.000016
C56	C	1.510628	0.033817	0.333349
C57	C	1.843962	0.367150	0.666683
C58	C	1.100378	-0.248393	0.000020
C59	C	1.433712	0.084941	0.333353
C60	C	1.767045	0.418274	0.666686
C61	C	1.111405	-0.140254	0.000038
C62	C	1.444739	0.193079	0.333372
C63	C	1.778072	0.526412	0.666705
C64	C	1.166269	-0.407664	-0.000003
C65	C	1.499603	-0.074331	0.333330
C66	C	1.832936	0.259002	0.666664
C67	C	1.312792	0.233836	0.000027
C68	C	1.646126	0.567169	0.333361
C69	C	1.979459	0.900503	0.666694
C70	C	1.418936	0.244683	0.000024
C71	C	1.752269	0.578016	0.333358
C72	C	2.085603	0.911350	0.666691
C73	C	1.146629	0.400000	-0.000003
C74	C	1.479962	0.733333	0.333330
C75	C	1.813295	1.066666	0.666664
C76	C	1.157477	0.506142	-0.000018
C77	C	1.490810	0.839476	0.333315
C78	C	1.824143	1.172809	0.666649
N79	N	1.123845	0.241069	0.265542
N80	N	1.457178	0.574402	0.598875
N81	N	1.790511	0.907735	0.932209
N82	N	1.153831	0.211010	-0.265498
N83	N	1.487164	0.544343	0.067836
N84	N	1.820497	0.877677	0.401169
C85	C	1.112079	0.252876	0.474582
C86	C	1.445412	0.586210	0.807916
C87	C	1.778746	0.919543	1.141249
C88	C	1.165594	0.199205	0.525469
C89	C	1.498927	0.532539	0.858802
C90	C	1.832260	0.865872	1.192135
C91	C	1.159047	0.205775	0.641786
C92	C	1.492380	0.539108	0.975119
C93	C	1.825714	0.872442	1.308452
C94	C	1.118624	0.246307	0.358255
C95	C	1.451958	0.579641	0.691588
C96	C	1.785291	0.912974	1.024921
H97	H	0.626957	0.113450	-0.000039
H98	H	0.960290	0.446784	0.333294
H99	H	1.293624	0.780117	0.666628
H100	H	1.026246	-0.285839	0.000010
H101	H	1.359579	0.047495	0.333344
H102	H	1.692913	0.380828	0.666677
O103	O	1.232797	0.131806	0.467465
O104	O	1.566131	0.465140	0.800799
O105	O	1.899464	0.798473	1.134132
H106	H	1.270987	0.093499	0.522688
H107	H	1.604321	0.426832	0.856021
H108	H	1.937654	0.760165	1.189355
O109	O	1.275488	-0.249924	0.000030
O110	O	1.608821	0.083409	0.333364
O111	O	1.942155	0.416743	0.666697
H112	H	1.310889	-0.267021	0.069491
H113	H	1.644222	0.066312	0.402824
H114	H	1.977555	0.399646	0.736158
O115	O	0.662866	0.362696	-0.000014
O116	O	0.996199	0.696030	0.333319
O117	O	1.329532	1.029363	0.666652
H118	H	0.741250	0.356056	-0.000027
H119	H	1.074584	0.689389	0.333306
H120	H	1.407917	1.022722	0.666640
O121	O	1.044891	0.320287	0.532577
O122	O	1.378224	0.653620	0.865910
O123	O	1.711558	0.986954	1.199243
H124	H	1.050241	0.314941	0.616159
H125	H	1.383574	0.648275	0.949492
H126	H	1.716907	0.981608	1.282825
