data_functionalizedCrystal
_audit_creation_method	'MofGen! by Chris Wilmer'
_symmetry_space_group_name_H-M	'P1'
_symmetry_Int_Tables_number	1
_symmetry_cell_setting	triclinic
loop_
_symmetry_equiv_pos_as_xyz
  x,y,z
_cell_length_a	21.295418
_cell_length_b	15.297327
_cell_length_c	15.296720
_cell_angle_alpha	107.319222
_cell_angle_beta	99.635200
_cell_angle_gamma	99.728848
loop_
_atom_site_label
_atom_site_type_symbol
_atom_site_fract_x
_atom_site_fract_y
_atom_site_fract_z
Zn1	Zn	-0.835355	0.460919	0.590269
Zn2	Zn	-0.835283	0.589541	0.461663
Zn3	Zn	-0.752122	0.434078	0.434743
Zn4	Zn	-0.708041	0.616430	0.617041
O5	O	-0.782700	0.525242	0.525929
O6	O	-0.923429	0.477961	0.573271
O7	O	-0.842670	0.546432	0.327978
O8	O	-0.781641	0.307495	0.432904
O9	O	-0.923377	0.572459	0.478785
O10	O	-0.842792	0.327215	0.547168
O11	O	-0.781572	0.432214	0.308200
O12	O	-0.658190	0.458287	0.458863
O13	O	-0.706511	0.618287	0.743604
O14	O	-0.625804	0.592260	0.592797
O15	O	-0.800048	0.504034	0.723935
O16	O	-0.799926	0.723251	0.504744
O17	O	-0.706441	0.743006	0.618900
C18	C	-0.619158	0.525279	0.525815
C19	C	-0.549187	0.525322	0.525792
C20	C	-0.748407	0.766877	0.567669
C21	C	-0.733789	0.870255	0.585556
C22	C	-0.748370	0.567154	0.768450
C23	C	-0.733741	0.585015	0.871798
C24	C	-0.499475	0.595146	0.595453
C25	C	-0.433730	0.595133	0.595484
C26	C	-0.417701	0.525303	0.525840
C27	C	-0.467424	0.455466	0.456173
C28	C	-0.533167	0.455475	0.456149
N29	N	-0.326987	0.503967	0.443246
N30	N	-0.264533	0.503964	0.443272
C31	C	-0.219622	0.525269	0.525909
N32	N	-0.239522	0.546596	0.608524
N33	N	-0.301982	0.546604	0.608497
C34	C	-0.346416	0.525284	0.525859
C35	C	-0.098621	0.595084	0.595610
C36	C	-0.032876	0.595065	0.595642
C37	C	-0.066571	0.455401	0.456323
C38	C	-0.132314	0.455416	0.456299
C39	C	-0.148335	0.525263	0.525942
C40	C	0.053117	0.525216	0.526020
C41	C	-0.016851	0.525233	0.525998
C42	C	-0.817142	0.282666	0.484046
C43	C	-0.831819	0.179295	0.466199
C44	C	-0.887390	1.120421	0.398401
C45	C	-0.901124	1.023291	0.381590
C46	C	-0.859292	0.985027	0.432580
C47	C	-0.803722	1.043903	0.500384
C48	C	-0.789984	1.141041	0.517192
C49	C	-0.761886	1.005647	0.551371
C50	C	-0.706316	1.064523	0.619175
C51	C	-0.692580	1.161651	0.635980
C52	C	-0.734412	1.199915	0.584990
C53	C	-0.775624	0.908509	0.534563
C54	C	-0.678218	0.929129	0.653354
C55	C	-0.664483	1.026259	0.670165
C56	C	-0.816942	0.483425	0.284340
C57	C	-0.831731	0.465303	0.180947
C58	C	-0.887306	0.397426	1.122156
C59	C	-0.901054	0.380647	1.025056
C60	C	-0.859227	0.431737	0.986737
C61	C	-0.803649	0.499610	1.045527
C62	C	-0.789901	0.516396	1.142638
C63	C	-0.761823	0.550707	1.007218
C64	C	-0.706244	0.618580	1.066008
C65	C	-0.692499	0.635363	1.163109
C66	C	-0.734326	0.584273	1.201429
C67	C	-0.775570	0.533921	0.910107
C68	C	-0.678166	0.652891	0.930589
C69	C	-0.664417	0.669671	1.027689
H70	H	-0.512514	0.652020	0.652162
H71	H	-0.820869	0.860581	0.479357
Br72	Br	-0.944153	1.172354	0.329203
Br73	Br	-0.588991	0.761780	1.107486
H74	H	-0.723234	1.279006	0.598676
H75	H	-0.820822	0.478657	0.862249
Br76	Br	-0.366252	0.689901	0.690032
H77	H	-0.946368	0.975359	0.326383
Br78	Br	-0.120368	0.689869	0.690126
Br79	Br	-0.621437	0.877207	0.722551
Br80	Br	-0.199785	0.360649	0.361753
Br81	Br	-0.044825	0.360621	0.361811
Br82	Br	-0.878082	0.853255	0.410046
H83	H	-0.647326	1.209584	0.691180
H84	H	-0.723135	0.597931	1.280495
Br85	Br	-0.877886	0.408963	0.854955
H86	H	0.007602	0.651924	0.652373
H87	H	-0.619238	1.074209	0.725372
Br88	Br	-0.976480	0.288540	0.945276
H89	H	-0.647248	0.690637	1.210976
H90	H	-0.921358	0.355841	1.153367
H91	H	-0.454369	0.398608	0.399470
Br92	Br	-0.600638	0.360704	0.361603
H93	H	-0.644107	0.694495	0.899390
