data_functionalizedCrystal
_audit_creation_method	'MofGen! by Chris Wilmer'
_symmetry_space_group_name_H-M	'P1'
_symmetry_Int_Tables_number	1
_symmetry_cell_setting	triclinic
loop_
_symmetry_equiv_pos_as_xyz
  x,y,z
_cell_length_a	6.817900
_cell_length_b	9.108949
_cell_length_c	10.773894
_cell_angle_alpha	101.960636
_cell_angle_beta	96.645922
_cell_angle_gamma	111.764586
loop_
_atom_site_label
_atom_site_type_symbol
_atom_site_fract_x
_atom_site_fract_y
_atom_site_fract_z
V1	V	-3.998221	-0.219021	-0.412398
O2	O	-3.934188	0.016674	-0.379755
O3	O	-4.000031	-0.440196	-0.433422
O4	O	-3.914516	-0.212954	-0.581380
O5	O	-4.020294	-0.212141	-0.230772
V6	V	-4.479917	-0.191148	-0.387777
O7	O	-4.263486	-0.280163	-0.466405
O8	O	-4.664850	-0.130006	-0.333770
O9	O	-4.254901	0.030027	-0.366753
O10	O	-4.661348	-0.426843	-0.420421
O11	O	-4.575241	-0.198028	-0.569403
O12	O	-4.340415	-0.197215	-0.218795
C13	C	-3.858389	-0.494198	-0.433069
C14	C	-3.940921	-0.674993	-0.451385
C15	C	-3.749305	-0.204326	-0.621802
C16	C	-3.762484	-0.200829	-0.760103
C17	C	-3.941934	-0.206890	-0.828614
C18	C	-3.955559	-0.203275	-0.971555
C19	C	-4.059887	0.084020	-0.367104
C20	C	-3.956593	0.264815	-0.348796
C21	C	-4.168971	-0.205848	-0.178367
C22	C	-4.135030	-0.209337	-0.040064
H23	H	-3.990647	-0.761774	-0.553226
Cl24	Cl	-3.879843	-0.601200	-0.191550
Cl25	Cl	-3.733899	-0.191120	-1.044360
Cl26	Cl	-4.163578	-0.219040	-0.755803
Cl27	Cl	-4.356671	-0.221447	-0.967252
Cl28	Cl	-3.540838	-0.188673	-0.832913
