data_functionalizedCrystal
_audit_creation_method	'MofGen! by Chris Wilmer'
_symmetry_space_group_name_H-M	'P1'
_symmetry_Int_Tables_number	1
_symmetry_cell_setting	triclinic
loop_
_symmetry_equiv_pos_as_xyz
  x,y,z
_cell_length_a	16.974897
_cell_length_b	14.519709
_cell_length_c	15.455450
_cell_angle_alpha	87.021976
_cell_angle_beta	89.339242
_cell_angle_gamma	96.460201
loop_
_atom_site_label
_atom_site_type_symbol
_atom_site_fract_x
_atom_site_fract_y
_atom_site_fract_z
O1	O	1.043084	-0.110355	-0.145287
O2	O	1.543084	0.389645	0.354713
O3	O	0.813590	-0.126115	-0.129198
O4	O	1.313590	0.373885	0.370802
O5	O	0.934422	0.016042	-0.137645
O6	O	1.434422	0.516042	0.362355
O7	O	0.922251	-0.252513	-0.136840
O8	O	1.422251	0.247487	0.363160
O9	O	0.940566	0.008867	0.006182
O10	O	1.440566	0.508867	0.506182
O11	O	0.819733	-0.133291	0.014628
O12	O	1.319733	0.366709	0.514628
O13	O	1.049227	-0.117531	-0.001460
O14	O	1.549227	0.382469	0.498540
Cu15	Cu	0.935041	-0.126066	0.019717
Cu16	Cu	1.435041	0.373934	0.519717
Cu17	Cu	0.927776	-0.117580	-0.150375
Cu18	Cu	1.427776	0.382420	0.349625
O19	O	0.928394	-0.259688	0.006986
O20	O	1.428394	0.240312	0.506986
C21	C	0.787291	-0.129234	-0.055226
C22	C	1.287291	0.370766	0.444774
C23	C	0.699775	-0.127827	-0.049089
C24	C	1.199775	0.372173	0.450911
C25	C	0.655304	-0.123258	-0.124600
C26	C	1.155304	0.376742	0.375400
C27	C	0.573073	-0.121951	-0.118821
C28	C	1.073073	0.378049	0.381179
C29	C	0.535315	-0.125207	-0.037531
C30	C	1.035315	0.374793	0.462469
C31	C	0.579792	-0.129780	0.037985
C32	C	1.079792	0.370220	0.537985
C33	C	0.662021	-0.131093	0.032206
C34	C	1.162021	0.368907	0.532206
C35	C	0.289747	-0.121705	-0.011840
C36	C	0.789747	0.378295	0.488160
C37	C	0.207512	-0.120388	-0.006066
C38	C	0.707512	0.379612	0.493934
C39	C	0.200799	-0.112561	-0.162873
C40	C	0.700799	0.387439	0.337127
C41	C	0.283030	-0.113869	-0.168645
C42	C	0.783030	0.386131	0.331355
C43	C	0.327499	-0.118447	-0.093129
C44	C	0.827499	0.381553	0.406871
N45	N	0.451262	-0.123868	-0.031623
N46	N	0.951262	0.376132	0.468377
N47	N	0.411550	-0.119792	-0.099038
N48	N	0.911550	0.380208	0.400962
C49	C	0.936927	0.046810	-0.065688
C50	C	1.436927	0.546810	0.434312
C51	C	0.935228	0.149180	-0.065555
C52	C	1.435228	0.649180	0.434445
C53	C	0.928973	0.524033	-0.065093
C54	C	1.428973	1.024033	0.434907
C55	C	0.930710	0.419737	-0.065221
C56	C	1.430710	0.919737	0.434779
C57	C	0.932100	0.336610	-0.065323
C58	C	1.432100	0.836610	0.434677
C59	C	0.933838	0.232307	-0.065453
C60	C	1.433838	0.732307	0.434547
C61	C	1.075526	-0.114411	-0.075435
C62	C	1.575526	0.385589	0.424565
C63	C	1.163041	-0.115818	-0.081577
C64	C	1.663041	0.384182	0.418423
C65	C	0.925891	0.709542	-0.064942
C66	C	1.425891	1.209542	0.435058
C67	C	0.927593	0.607169	-0.064988
C68	C	1.427593	1.107169	0.435012
N69	N	0.940157	-0.132033	0.139350
N70	N	1.440157	0.367967	0.639350
N71	N	0.922666	-0.111605	-0.270009
N72	N	1.422666	0.388395	0.229991
C73	C	0.894221	-0.078551	0.187999
C74	C	1.394221	0.421449	0.687999
C75	C	0.898109	-0.083075	0.278532
C76	C	1.398109	0.416925	0.778532
C77	C	0.947938	-0.141076	0.320412
C78	C	1.447938	0.358924	0.820412
C79	C	0.993876	-0.194564	0.271756
C80	C	1.493876	0.305436	0.771756
C81	C	0.989983	-0.190045	0.181226
C82	C	1.489983	0.309955	0.681226
C83	C	0.964711	-0.160574	0.590805
C84	C	1.464711	0.339426	1.090805
C85	C	0.968602	-0.165087	0.681342
C86	C	1.468602	0.334913	1.181342
C87	C	0.872833	-0.053599	0.688111
C88	C	1.372833	0.446401	1.188111
C89	C	0.868949	-0.049081	0.597578
C90	C	1.368949	0.450919	1.097578
C91	C	0.914884	-0.102572	0.548930
C92	C	1.414884	0.397428	1.048930
N93	N	0.951915	-0.145699	0.412951
N94	N	1.451915	0.354301	0.912951
N95	N	0.910901	-0.097953	0.456394
N96	N	1.410901	0.402047	0.956394
H97	H	0.325944	-0.125426	0.049651
H98	H	0.825944	0.374574	0.549651
Cl99	Cl	1.047736	-0.257280	0.120065
Cl100	Cl	1.547736	0.242720	0.620065
Cl101	Cl	0.831582	-0.005623	0.135358
Cl102	Cl	1.331582	0.494377	0.635358
H103	H	0.313768	-0.111211	-0.234840
H104	H	0.813768	0.388789	0.265160
H105	H	0.860703	-0.039524	0.318138
H106	H	1.360703	0.460476	0.818138
Cl107	Cl	0.160048	-0.124463	0.096135
Cl108	Cl	0.660048	0.375537	0.596135
Cl109	Cl	0.532323	-0.133881	0.140179
Cl110	Cl	1.032323	0.366119	0.640179
H111	H	0.828375	-0.001847	0.563486
H112	H	1.328375	0.498153	1.063486
H113	H	1.002118	-0.204127	0.551206
H114	H	1.502118	0.295873	1.051206
H115	H	0.698228	-0.134818	0.093695
H116	H	1.198228	0.365182	0.593695
H117	H	1.009180	-0.212322	0.715438
H118	H	1.509180	0.287678	1.215438
H119	H	0.686041	-0.120603	-0.190795
H120	H	1.186041	0.379397	0.309205
Cl121	Cl	0.815086	0.013637	0.749274
Cl122	Cl	1.315086	0.513637	1.249274
Cl123	Cl	1.056512	-0.267488	0.324407
Cl124	Cl	1.556512	0.232512	0.824407
H125	H	0.164584	-0.108836	-0.224354
H126	H	0.664584	0.391164	0.275646
Cl127	Cl	0.517170	-0.116206	-0.213754
Cl128	Cl	1.017170	0.383794	0.286246
