data_functionalizedCrystal
_audit_creation_method	'MofGen! by Chris Wilmer'
_symmetry_space_group_name_H-M	'P1'
_symmetry_Int_Tables_number	1
_symmetry_cell_setting	triclinic
loop_
_symmetry_equiv_pos_as_xyz
  x,y,z
_cell_length_a	12.759401
_cell_length_b	25.639239
_cell_length_c	12.759393
_cell_angle_alpha	89.964273
_cell_angle_beta	89.981266
_cell_angle_gamma	90.038847
loop_
_atom_site_label
_atom_site_type_symbol
_atom_site_fract_x
_atom_site_fract_y
_atom_site_fract_z
Zn1	Zn	1.606083	-0.208125	-0.593941
Zn2	Zn	1.605903	-0.295569	-0.418245
Zn3	Zn	1.430384	-0.208150	-0.418281
Zn4	Zn	1.430300	-0.295531	-0.593886
O5	O	1.518167	-0.251844	-0.506088
O6	O	1.753080	-0.219730	-0.570643
O7	O	1.582580	-0.284000	-0.271228
O8	O	1.453801	-0.134981	-0.441621
O9	O	1.752948	-0.283975	-0.441559
O10	O	1.582886	-0.134963	-0.570678
O11	O	1.453627	-0.219773	-0.271255
O12	O	1.283352	-0.219736	-0.441567
O13	O	1.453658	-0.283910	-0.740914
O14	O	1.283290	-0.283934	-0.570584
O15	O	1.582805	-0.219693	-0.740955
O16	O	1.582498	-0.368729	-0.441505
O17	O	1.453483	-0.368701	-0.570549
C18	C	1.245200	-0.251834	-0.506074
C19	C	1.128423	-0.251843	-0.506093
C20	C	1.073557	-0.285324	-0.573160
C21	C	0.963833	-0.285331	-0.573172
C22	C	0.963852	-0.218373	-0.439039
C23	C	1.073574	-0.218364	-0.439033
C24	C	1.128406	-0.318803	-0.640220
C25	C	1.073539	-0.352288	-0.707292
C26	C	0.963815	-0.352294	-0.707303
C27	C	0.908958	-0.318816	-0.640242
C28	C	1.517991	-0.387686	-0.506040
C29	C	1.518011	-0.445800	-0.506055
C30	C	1.585521	-0.806165	-0.439010
C31	C	1.585561	-0.860770	-0.439024
O32	O	1.642777	-0.889008	-0.381967
N33	N	1.518352	-0.888083	-0.506158
C34	C	1.451105	-0.860789	-0.573289
O35	O	1.393943	-0.889034	-0.630394
C36	C	1.451070	-0.806185	-0.573280
C37	C	1.518277	-0.778875	-0.506134
C38	C	1.652722	-0.778855	-0.371870
C39	C	1.652680	-0.724255	-0.371855
C40	C	1.585436	-0.696964	-0.438980
C41	C	1.518234	-0.724275	-0.506119
C42	C	1.383830	-0.778892	-0.640416
C43	C	1.383801	-0.724285	-0.640401
C44	C	1.451008	-0.696975	-0.573256
C45	C	1.450948	-0.642384	-0.573228
N46	N	1.518157	-0.615071	-0.506094
C47	C	1.585401	-0.642361	-0.438970
C48	C	1.451184	-0.975459	-0.573306
C49	C	1.451213	-1.030062	-0.573311
C50	C	1.585671	-1.030039	-0.439046
C51	C	1.585636	-0.975436	-0.439037
C52	C	1.518394	-0.948146	-0.506172
C53	C	1.585307	-0.527696	-0.438943
C54	C	1.585255	-0.473091	-0.438930
C55	C	1.450802	-0.473118	-0.573198
C56	C	1.450849	-0.527719	-0.573207
C57	C	1.518110	-0.555006	-0.506076
O58	O	1.393764	-0.614111	-0.630258
O59	O	1.642564	-0.614109	-0.381885
C60	C	1.792201	-0.251854	-0.506103
C61	C	1.908977	-0.251858	-0.506109
C62	C	1.518242	-0.251794	-0.780122
C63	C	1.518274	-0.251773	-0.896898
C64	C	1.518373	-0.115471	-0.506159
C65	C	1.518461	-0.057357	-0.506190
C66	C	1.585549	-0.218305	-1.061508
C67	C	1.585527	-0.218328	-0.951784
C68	C	1.451047	-0.285201	-0.951742
C69	C	1.451076	-0.285180	-1.061465
C70	C	1.652799	-0.184854	-1.116388
C71	C	1.720028	-0.151427	-1.061552
C72	C	1.720005	-0.151450	-0.951827
C73	C	1.652754	-0.184900	-0.896940
C74	C	1.518153	-0.251855	-0.233121
C75	C	1.518325	-0.251729	-0.116345
H76	H	1.639982	-0.450856	-0.384249
O77	O	1.652989	-0.184783	-1.222973
C78	C	1.726738	-0.148082	-1.259656
H79	H	1.788119	-0.140773	-1.196436
H80	H	1.685134	-0.109954	-1.279135
C81	C	1.705194	-0.178349	-1.436459
C82	C	1.780588	-0.169375	-1.358815
H83	H	1.738409	-0.191482	-1.497628
H84	H	1.655505	-0.203074	-1.411746
H85	H	1.670530	-0.146574	-1.452679
H86	H	1.815241	-0.201151	-1.342587
H87	H	1.830285	-0.144656	-1.383527
H88	H	1.774753	-0.124235	-0.907182
O89	O	1.126921	-0.185786	-0.374029
C90	C	1.190466	-0.152056	-0.433963
H91	H	1.157436	-0.148878	-0.516723
H92	H	1.273607	-0.168217	-0.437517
C93	C	1.232757	-0.101575	-0.281185
C94	C	1.192183	-0.097669	-0.382830
H95	H	1.233821	-0.068028	-0.249643
H96	H	1.189949	-0.124301	-0.240805
H97	H	1.302037	-0.115045	-0.284161
H98	H	1.122900	-0.084206	-0.379852
H99	H	1.234980	-0.074939	-0.423208
O100	O	1.126938	-0.384732	-0.772486
C101	C	1.190448	-0.355001	-0.840465
H102	H	1.206915	-0.315356	-0.803555
H103	H	1.148201	-0.349306	-0.918348
C104	C	1.274424	-0.432468	-0.904706
C105	C	1.294656	-0.383775	-0.859368
H106	H	1.338703	-0.450217	-0.916372
H107	H	1.231634	-0.452498	-0.858911
H108	H	1.239215	-0.427714	-0.969604
H109	H	1.329852	-0.388529	-0.794467
H110	H	1.337454	-0.363746	-0.905153
H111	H	1.652749	-0.184920	-0.807595
H112	H	0.919178	-0.191117	-0.384440
O113	O	0.910679	-0.384867	-0.772490
C114	C	0.982623	-0.414402	-0.831693
H115	H	1.060817	-0.416179	-0.788646
H116	H	0.994347	-0.395304	-0.911557
C117	C	0.843710	-0.467877	-0.899503
C118	C	0.939746	-0.470064	-0.846626
H119	H	0.817260	-0.502211	-0.908719
H120	H	0.795238	-0.447978	-0.859620
H121	H	0.853493	-0.451960	-0.966050
H122	H	0.929959	-0.485975	-0.780076
H123	H	0.988215	-0.489967	-0.886498
O124	O	1.385751	-0.949033	-0.638549
C125	C	1.326464	-0.984854	-0.697817
H126	H	1.322885	-1.023793	-0.654780
H127	H	1.364897	-0.990616	-0.777644
C128	C	1.219014	-0.915777	-0.765718
C129	C	1.214612	-0.963600	-0.712854
H130	H	1.150020	-0.902666	-0.774999
H131	H	1.258960	-0.891643	-0.725791
H132	H	1.251047	-0.920584	-0.832235
H133	H	1.182592	-0.958791	-0.646334
H134	H	1.174658	-0.987733	-0.752770
H135	H	0.819613	-0.318820	-0.640266
O136	O	1.650672	-0.554117	-0.373630
C137	C	1.709987	-0.518295	-0.314393
H138	H	1.666918	-0.479397	-0.310722
H139	H	1.789756	-0.512430	-0.352930
C140	C	1.778100	-0.587404	-0.207095
C141	C	1.725198	-0.539631	-0.202579
H142	H	1.787487	-0.600566	-0.138124
H143	H	1.738142	-0.611539	-0.247006
H144	H	1.844568	-0.582511	-0.239214
H145	H	1.658726	-0.544527	-0.170473
H146	H	1.765145	-0.515498	-0.162660
H147	H	1.774787	-0.124196	-1.106248
O148	O	1.718075	-0.697810	-0.306607
C149	C	1.777412	-0.733615	-0.247358
H150	H	1.781033	-0.772520	-0.290409
H151	H	1.738994	-0.739471	-0.167529
C152	C	1.884784	-0.664481	-0.179444
C153	C	1.889240	-0.712263	-0.232324
H154	H	1.953764	-0.651309	-0.170166
H155	H	1.844806	-0.640358	-0.219358
H156	H	1.852765	-0.669367	-0.112925
H157	H	1.921246	-0.707375	-0.298846
H158	H	1.929226	-0.736385	-0.192421
H159	H	1.396293	-0.312434	-0.907044
H160	H	1.396477	-1.052293	-0.627977
H161	H	1.707486	-0.801069	-0.317210
H162	H	1.396336	-0.312397	-1.106114
H163	H	1.640362	-0.953203	-0.384362
H164	H	1.640428	-1.052268	-0.384394
O165	O	1.318515	-0.805332	-0.705745
C166	C	1.259153	-0.769525	-0.764965
H167	H	1.302166	-0.730581	-0.768612
H168	H	1.179373	-0.763771	-0.726429
C169	C	1.191143	-0.838623	-0.872305
C170	C	1.243977	-0.790793	-0.876791
H171	H	1.181777	-0.851743	-0.941283
H172	H	1.231132	-0.862748	-0.832405
H173	H	1.124665	-0.833822	-0.840187
H174	H	1.310458	-0.795596	-0.908897
H175	H	1.203998	-0.766670	-0.916699
O176	O	1.318629	-0.697753	-0.705728
C177	C	1.378386	-0.666102	-0.773610
H178	H	1.461142	-0.682510	-0.780170
H179	H	1.381988	-0.624729	-0.741120
C180	C	1.225362	-0.645097	-0.874730
C181	C	1.327002	-0.665253	-0.882794
H182	H	1.193665	-0.644571	-0.942079
H183	H	1.185101	-0.666419	-0.828995
H184	H	1.228377	-0.610621	-0.847651
H185	H	1.323985	-0.699730	-0.909860
H186	H	1.367261	-0.643937	-0.928537
H187	H	1.217749	-0.318802	-0.640216
H188	H	1.396049	-0.450890	-0.627847
H189	H	1.396127	-0.549956	-0.627886
