data_functionalizedCrystal
_audit_creation_method	'MofGen! by Chris Wilmer'
_symmetry_space_group_name_H-M	'P1'
_symmetry_Int_Tables_number	1
_symmetry_cell_setting	triclinic
loop_
_symmetry_equiv_pos_as_xyz
  x,y,z
_cell_length_a	13.897449
_cell_length_b	13.897448
_cell_length_c	13.897441
_cell_angle_alpha	89.971988
_cell_angle_beta	90.020733
_cell_angle_gamma	89.979152
loop_
_atom_site_label
_atom_site_type_symbol
_atom_site_fract_x
_atom_site_fract_y
_atom_site_fract_z
Zn1	Zn	1.474690	0.383951	0.545399
Zn2	Zn	1.724690	0.633951	0.795399
Zn3	Zn	1.974690	0.883951	1.045399
Zn4	Zn	2.224690	1.133951	1.295399
Zn5	Zn	1.474579	0.545273	0.384107
Zn6	Zn	1.724579	0.795273	0.634107
Zn7	Zn	1.974579	1.045273	0.884107
Zn8	Zn	2.224579	1.295273	1.134107
Zn9	Zn	1.313379	0.383997	0.384117
Zn10	Zn	1.563379	0.633997	0.634117
Zn11	Zn	1.813379	0.883997	0.884117
Zn12	Zn	2.063379	1.133997	1.134117
Zn13	Zn	1.313356	0.545210	0.545360
Zn14	Zn	1.563356	0.795210	0.795360
Zn15	Zn	1.813356	1.045210	1.045360
Zn16	Zn	2.063356	1.295210	1.295360
O17	O	1.394001	0.464608	0.464746
O18	O	1.644001	0.714608	0.714746
O19	O	1.894001	0.964608	0.964746
O20	O	2.144001	1.214608	1.214746
O21	O	1.609657	0.405358	0.524015
O22	O	1.859657	0.655358	0.774015
O23	O	2.109657	0.905358	1.024015
O24	O	2.359657	1.155358	1.274015
O25	O	1.453159	0.523925	0.249127
O26	O	1.703159	0.773925	0.499127
O27	O	1.953159	1.023925	0.749127
O28	O	2.203159	1.273925	0.999127
O29	O	1.334834	0.249009	0.405532
O30	O	1.584834	0.499009	0.655532
O31	O	1.834834	0.749009	0.905532
O32	O	2.084834	0.999009	1.155532
O33	O	1.609575	0.523881	0.405515
O34	O	1.859575	0.773881	0.655515
O35	O	2.109575	1.023881	0.905515
O36	O	2.359575	1.273881	1.155515
O37	O	1.453348	0.248976	0.524024
O38	O	1.703348	0.498976	0.774024
O39	O	1.953348	0.748976	1.024024
O40	O	2.203348	0.998976	1.274024
O41	O	1.334726	0.405436	0.249134
O42	O	1.584726	0.655436	0.499134
O43	O	1.834726	0.905436	0.749134
O44	O	2.084726	1.155436	0.999134
O45	O	1.178394	0.405375	0.405494
O46	O	1.428394	0.655375	0.655494
O47	O	1.678394	0.905375	0.905494
O48	O	1.928394	1.155375	1.155494
O49	O	1.334794	0.523773	0.680347
O50	O	1.584794	0.773773	0.930347
O51	O	1.834794	1.023773	1.180347
O52	O	2.084794	1.273773	1.430347
O53	O	1.178377	0.523817	0.523958
O54	O	1.428377	0.773817	0.773958
O55	O	1.678377	1.023817	1.023958
O56	O	1.928377	1.273817	1.273958
O57	O	1.453325	0.405297	0.680375
O58	O	1.703325	0.655297	0.930375
O59	O	1.953325	0.905297	1.180375
O60	O	2.203325	1.155297	1.430375
O61	O	1.453136	0.680246	0.405477
O62	O	1.703136	0.930246	0.655477
O63	O	1.953136	1.180246	0.905477
O64	O	2.203136	1.430246	1.155477
O65	O	1.334686	0.680200	0.523949
O66	O	1.584686	0.930200	0.773949
O67	O	1.834686	1.180200	1.023949
O68	O	2.084686	1.430200	1.273949
C69	C	1.143387	0.464595	0.464724
C70	C	1.393387	0.714595	0.714724
C71	C	1.643387	0.964595	0.964724
C72	C	1.893387	1.214595	1.214724
C73	C	1.036173	0.464613	0.464737
C74	C	1.286173	0.714613	0.714737
C75	C	1.536173	0.964613	0.964737
C76	C	1.786173	1.214613	1.214737
C77	C	1.393922	0.715222	0.464729
C78	C	1.643922	0.965222	0.714729
C79	C	1.893922	1.215222	0.964729
C80	C	2.143922	1.465222	1.214729
C81	C	1.393977	0.822436	0.464754
C82	C	1.643977	1.072436	0.714754
C83	C	1.893977	1.322436	0.964754
C84	C	2.143977	1.572436	1.214754
C85	C	0.839878	0.464616	0.464762
C86	C	1.089878	0.714616	0.714762
C87	C	1.339878	0.964616	0.964762
C88	C	1.589878	1.214616	1.214762
C89	C	0.949110	0.464611	0.464746
C90	C	1.199110	0.714611	0.714746
C91	C	1.449110	0.964611	0.964746
C92	C	1.699110	1.214611	1.214746
C93	C	1.394072	1.018731	0.464824
C94	C	1.644072	1.268731	0.714824
C95	C	1.894072	1.518731	0.964824
C96	C	2.144072	1.768731	1.214824
C97	C	1.394016	0.909499	0.464788
C98	C	1.644016	1.159499	0.714788
C99	C	1.894016	1.409499	0.964788
C100	C	2.144016	1.659499	1.214788
C101	C	1.645594	0.464621	0.464768
C102	C	1.895594	0.714621	0.714768
C103	C	2.145594	0.964621	0.964768
C104	C	2.395594	1.214621	1.214768
C105	C	1.752808	0.464627	0.464778
C106	C	2.002808	0.714627	0.714778
C107	C	2.252808	0.964627	0.964778
C108	C	2.502808	1.214627	1.214778
C109	C	1.394069	0.464522	0.716339
C110	C	1.644069	0.714522	0.966339
C111	C	1.894069	0.964522	1.216339
C112	C	2.144069	1.214522	1.466339
C113	C	1.394098	0.464486	0.823553
C114	C	1.644098	0.714486	1.073553
C115	C	1.894098	0.964486	1.323553
C116	C	2.144098	1.214486	1.573553
C117	C	1.394098	1.213015	0.464795
C118	C	1.644098	1.463015	0.714795
C119	C	1.894098	1.713015	0.964795
C120	C	2.144098	1.963015	1.214795
C121	C	1.394118	1.105801	0.464845
C122	C	1.644118	1.355801	0.714845
C123	C	1.894118	1.605801	0.964845
C124	C	2.144118	1.855801	1.214845
C125	C	1.393988	0.464623	0.214131
C126	C	1.643988	0.714623	0.464131
C127	C	1.893988	0.964623	0.714131
C128	C	2.143988	1.214623	0.964131
C129	C	1.394146	0.464388	0.106918
C130	C	1.644146	0.714388	0.356918
C131	C	1.894146	0.964388	0.606918
C132	C	2.144146	1.214388	0.856918
C133	C	1.394125	0.464421	1.019848
C134	C	1.644125	0.714421	1.269848
C135	C	1.894125	0.964421	1.519848
C136	C	2.144125	1.214421	1.769848
C137	C	1.394107	0.464460	0.910615
C138	C	1.644107	0.714460	1.160615
C139	C	1.894107	0.964460	1.410615
C140	C	2.144107	1.214460	1.660615
