data_functionalizedCrystal
_audit_creation_method	'MofGen! by Chris Wilmer'
_symmetry_space_group_name_H-M	'P1'
_symmetry_Int_Tables_number	1
_symmetry_cell_setting	triclinic
loop_
_symmetry_equiv_pos_as_xyz
  x,y,z
_cell_length_a	12.759401
_cell_length_b	19.077068
_cell_length_c	12.759393
_cell_angle_alpha	92.262348
_cell_angle_beta	89.979062
_cell_angle_gamma	92.328499
loop_
_atom_site_label
_atom_site_type_symbol
_atom_site_fract_x
_atom_site_fract_y
_atom_site_fract_z
Zn1	Zn	1.589374	-0.280138	-0.610771
Zn2	Zn	1.582167	-0.397851	-0.442129
Zn3	Zn	1.413670	-0.280175	-0.435108
Zn4	Zn	1.406569	-0.397802	-0.617763
O5	O	1.497945	-0.338992	-0.526443
O6	O	1.735438	-0.295758	-0.588412
O7	O	1.559771	-0.382278	-0.294179
O8	O	1.442966	-0.181680	-0.452545
O9	O	1.730143	-0.382241	-0.464512
O10	O	1.572054	-0.181652	-0.581604
O11	O	1.435977	-0.295822	-0.289020
O12	O	1.265708	-0.295774	-0.459326
O13	O	1.430863	-0.382158	-0.763855
O14	O	1.260490	-0.382194	-0.593522
O15	O	1.565169	-0.295710	-0.758717
O16	O	1.552885	-0.496336	-0.471292
O17	O	1.423874	-0.496300	-0.600330
C18	C	1.224978	-0.338983	-0.526421
C19	C	1.108201	-0.338996	-0.526438
C20	C	1.050645	-0.384064	-0.596212
C21	C	0.940921	-0.384066	-0.596233
C22	C	0.946317	-0.293932	-0.456697
C23	C	1.056040	-0.293927	-0.456682
C24	C	1.486856	-0.521855	-0.537355
C25	C	1.482208	-0.600085	-0.542058
C26	C	1.547245	-0.636833	-0.477141
C27	C	1.542880	-0.710338	-0.481570
C28	C	1.473471	-0.747094	-0.550913
C29	C	1.408431	-0.710341	-0.615838
C30	C	1.412802	-0.636837	-0.611413
C31	C	1.453194	-0.966927	-0.571352
C32	C	1.448825	-1.040436	-0.575770
C33	C	1.583276	-1.040429	-0.441503
C34	C	1.587637	-0.966923	-0.437080
C35	C	1.522600	-0.930177	-0.502008
N36	N	1.469005	-0.822228	-0.555441
N37	N	1.527073	-0.855044	-0.497485
C38	C	1.771978	-0.339001	-0.526465
C39	C	1.888754	-0.339005	-0.526474
C40	C	1.498028	-0.338924	-0.800472
C41	C	1.498063	-0.338895	-0.917247
C42	C	1.509106	-0.155414	-0.515511
C43	C	1.513862	-0.077184	-0.510853
C44	C	1.568001	-0.293875	-0.969435
C45	C	1.568021	-0.293845	-1.079158
C46	C	1.428160	-0.383861	-1.084494
C47	C	1.428136	-0.383887	-0.974774
C48	C	1.497926	-0.339008	-0.253476
C49	C	1.498106	-0.338839	-0.136690
H50	H	1.093112	-0.420761	-0.653015
C51	C	1.352136	-0.432741	-1.146767
C52	C	1.290862	-0.472160	-1.077574
C53	C	1.220809	-0.517192	-1.134898
H54	H	1.390350	-0.463461	-1.191407
H55	H	1.307948	-0.405822	-1.187939
H56	H	1.335044	-0.499077	-1.036419
H57	H	1.252625	-0.441459	-1.032933
H58	H	1.176621	-0.490273	-1.176070
H59	H	1.259032	-0.547907	-1.179536
H60	H	1.179220	-0.543938	-1.087959
H61	H	0.894064	-0.420764	-0.653052
C62	C	1.118724	-0.245021	-0.381036
C63	C	1.225979	-0.254649	-0.395976
C64	C	1.283756	-0.209604	-0.326327
H65	H	1.100220	-0.255220	-0.310987
H66	H	1.103679	-0.197730	-0.393720
H67	H	1.241018	-0.301930	-0.383285
H68	H	1.244515	-0.244446	-0.466011
H69	H	1.268710	-0.162313	-0.339011
H70	H	1.265243	-0.219806	-0.256283
H71	H	1.356534	-0.216126	-0.336461
H72	H	1.400236	-0.937014	-0.624217
C73	C	1.352367	-0.432812	-0.917972
C74	C	1.409098	-0.477926	-0.857653
C75	C	1.339337	-0.522994	-0.805302
H76	H	1.310701	-0.459674	-0.967828
H77	H	1.308237	-0.405913	-0.873501
H78	H	1.453210	-0.504823	-0.902121
H79	H	1.450760	-0.451083	-0.807779
H80	H	1.295206	-0.496095	-0.760830
H81	H	1.297674	-0.549852	-0.855165
H82	H	1.377817	-0.553605	-0.764362
H83	H	0.903834	-0.257239	-0.399902
C84	C	1.333041	-0.750118	-0.691236
C85	C	1.277040	-0.702200	-0.747163
C86	C	1.207589	-0.738815	-0.816638
H87	H	1.285482	-0.778842	-0.652854
H88	H	1.371483	-0.778730	-0.738826
H89	H	1.238600	-0.673601	-0.699579
H90	H	1.324572	-0.673475	-0.785566
H91	H	1.246032	-0.767427	-0.864228
H92	H	1.160037	-0.767538	-0.778248
H93	H	1.169592	-0.706309	-0.854600
H94	H	1.624937	-0.257238	-0.922600
H95	H	1.603761	-0.606911	-0.420670
C96	C	1.644075	-0.244940	-1.135628
C97	C	1.705321	-0.205558	-1.061761
C98	C	1.775404	-0.160504	-1.113742
H99	H	1.605883	-0.214196	-1.176595
H100	H	1.688278	-0.271840	-1.180019
H101	H	1.661123	-0.178660	-1.017388
H102	H	1.743535	-0.236283	-1.020790
H103	H	1.819607	-0.187404	-1.158133
H104	H	1.737203	-0.129765	-1.154707
H105	H	1.816974	-0.133783	-1.063631
H106	H	1.595840	-0.740255	-0.428707
H107	H	1.644155	-0.936998	-0.380615
H108	H	1.636226	-1.070356	-0.388644
H109	H	1.392316	-1.070361	-0.632256
H110	H	1.359843	-0.606918	-0.664277
