data_functionalizedCrystal
_audit_creation_method	'MofGen! by Chris Wilmer'
_symmetry_space_group_name_H-M	'P1'
_symmetry_Int_Tables_number	1
_symmetry_cell_setting	triclinic
loop_
_symmetry_equiv_pos_as_xyz
  x,y,z
_cell_length_a	13.635800
_cell_length_b	12.095381
_cell_length_c	21.878179
_cell_angle_alpha	110.688357
_cell_angle_beta	60.535557
_cell_angle_gamma	148.803823
loop_
_atom_site_label
_atom_site_type_symbol
_atom_site_fract_x
_atom_site_fract_y
_atom_site_fract_z
V1	V	2.488323	0.666032	-0.096061
O2	O	2.426873	0.652280	0.005769
O3	O	2.505234	0.662510	-0.191581
O4	O	2.651005	0.956041	-0.094077
O5	O	2.280093	0.356717	-0.092410
V6	V	2.700595	0.628910	-0.083941
O7	O	2.683642	0.747462	-0.122648
O8	O	2.730375	0.547480	-0.057354
O9	O	2.572080	0.632433	0.011580
O10	O	2.820744	0.642662	-0.185770
O11	O	2.967523	0.938225	-0.087592
O12	O	2.426310	0.338902	-0.085924
V13	V	2.988323	0.666032	-0.096061
O14	O	2.926873	0.652280	0.005769
O15	O	3.005234	0.662510	-0.191581
O16	O	3.151005	0.956041	-0.094077
O17	O	2.780093	0.356717	-0.092410
V18	V	3.200595	0.628910	-0.083941
O19	O	3.183642	0.747462	-0.122648
O20	O	3.230375	0.547480	-0.057354
O21	O	3.072080	0.632433	0.011580
O22	O	3.320744	0.642662	-0.185770
O23	O	3.467523	0.938225	-0.087592
O24	O	2.926310	0.338902	-0.085924
C25	C	2.431689	0.652269	-0.214883
C26	C	2.487405	0.651322	-0.292969
C27	C	2.362480	0.455427	-0.319928
C28	C	2.414823	0.454472	-0.393296
C29	C	2.592077	0.649420	-0.439702
C30	C	2.717022	0.845342	-0.412736
C31	C	2.664687	0.846293	-0.339369
N32	N	2.724529	0.786719	-0.559920
N33	N	2.774233	0.785802	-0.629614
C34	C	2.749773	0.646568	-0.660753
N35	N	2.673692	0.508250	-0.619562
N36	N	2.623974	0.509160	-0.549860
C37	C	2.648844	0.648411	-0.519257
C38	C	2.681596	0.449624	-0.767266
C39	C	2.733953	0.448677	-0.840636
C40	C	3.036144	0.839552	-0.860074
C41	C	2.983795	0.840494	-0.786705
C42	C	2.806513	0.645523	-0.740305
C43	C	2.617636	1.026694	-0.090504
C44	C	2.794827	1.268240	-0.089494
C45	C	2.291340	0.268236	-0.089496
C46	C	2.103572	0.026689	-0.090504
C47	C	2.477294	0.642667	0.034878
C48	C	2.411206	0.643628	0.112963
C49	C	2.931689	0.652269	-0.214883
C50	C	2.987405	0.651322	-0.292969
C51	C	2.977294	0.642667	0.034878
C52	C	2.911206	0.643628	0.112963
C53	C	2.457928	0.633384	0.153196
C54	C	2.395816	0.634251	0.226568
C55	C	2.286996	0.645379	0.259704
C56	C	2.240267	0.655617	0.219466
C57	C	2.302366	0.654734	0.146096
C58	C	3.113182	0.661572	-0.333202
C59	C	3.165573	0.660715	-0.406575
C60	C	3.092173	0.649593	-0.439711
C61	C	2.966390	0.639348	-0.399472
C62	C	2.914013	0.640221	-0.326102
H63	H	2.218136	0.296667	-0.282153
O64	O	2.251989	0.665820	0.102708
H65	H	2.313435	0.663332	0.046121
H66	H	3.172956	0.670616	-0.306232
O67	O	2.908201	1.055607	-0.462786
H68	H	3.045060	1.157470	-0.456016
H69	H	2.811587	0.631863	-0.293349
O70	O	2.446275	0.623246	0.269947
H71	H	2.301496	0.477005	0.310793
H72	H	3.267987	0.669052	-0.439327
O73	O	2.220039	0.646342	0.338839
H74	H	2.136507	0.655788	0.355129
H75	H	3.134837	0.648884	-0.499454
H76	H	2.151657	0.664675	0.246457
O77	O	2.887231	0.627356	-0.435216
H78	H	2.944781	0.628454	-0.492992
H79	H	2.313089	0.294946	-0.415251
O80	O	2.799414	1.057585	-0.310284
H81	H	2.931460	1.192991	-0.354876
O82	O	2.490400	0.239352	-0.717212
H83	H	2.502456	0.153453	-0.729270
O84	O	2.599191	0.237373	-0.869714
H85	H	2.591109	0.151799	-0.853609
O86	O	3.227326	1.049829	-0.910115
H87	H	3.242730	1.016261	-0.965661
O88	O	3.118510	1.051779	-0.757620
H89	H	3.250551	1.187182	-0.802212
H90	H	2.546536	0.624325	0.126226
