data_functionalizedCrystal
_audit_creation_method	'MofGen! by Chris Wilmer'
_symmetry_space_group_name_H-M	'P1'
_symmetry_Int_Tables_number	1
_symmetry_cell_setting	triclinic
loop_
_symmetry_equiv_pos_as_xyz
  x,y,z
_cell_length_a	14.853566
_cell_length_b	10.868271
_cell_length_c	14.853576
_cell_angle_alpha	90.000357
_cell_angle_beta	83.636449
_cell_angle_gamma	90.001499
loop_
_atom_site_label
_atom_site_type_symbol
_atom_site_fract_x
_atom_site_fract_y
_atom_site_fract_z
O1	O	1.196369	0.102238	0.117694
O2	O	0.933910	0.102258	0.131716
O3	O	1.072146	0.102243	-0.006524
O4	O	1.058133	0.102253	0.255934
O5	O	1.072134	-0.102402	-0.006520
O6	O	0.933898	-0.102387	0.131721
O7	O	1.196357	-0.102407	0.117698
Zn8	Zn	1.065125	-0.134888	0.124710
Zn9	Zn	1.065142	0.134740	0.124704
O10	O	1.058121	-0.102391	0.255939
C11	C	0.900315	-0.000062	0.131084
C12	C	0.800231	-0.000054	0.129180
N13	N	1.065121	-0.318903	0.124714
C14	C	1.065128	-0.430240	0.124714
C15	C	1.065139	-0.569918	0.124706
C16	C	0.377053	0.111476	0.121127
C17	C	0.377061	-0.111636	0.121133
C18	C	0.471095	-0.111632	0.122920
C19	C	0.518112	-0.000073	0.123812
C20	C	0.471096	0.111483	0.122917
C21	C	0.518117	-0.223185	0.123824
C22	C	0.612157	-0.223186	0.125613
C23	C	0.659177	-0.111625	0.126499
C24	C	0.612155	-0.000065	0.125603
C25	C	0.659172	0.111494	0.126495
C26	C	0.612152	0.223055	0.125592
C27	C	0.518115	0.223044	0.123803
C28	C	0.753214	-0.111614	0.128288
C29	C	0.753215	0.111501	0.128285
C30	C	1.229952	-0.000084	0.118331
C31	C	1.330036	-0.000084	0.120235
N32	N	1.065154	0.318754	0.124694
C33	C	1.071504	-0.000078	-0.040110
C34	C	1.069597	-0.000074	-0.140194
C35	C	1.068706	0.111483	-0.187211
C36	C	1.068703	-0.111628	-0.187220
C37	C	1.066916	-0.111628	-0.281254
C38	C	1.066026	-0.000071	-0.328271
C39	C	1.066922	0.111487	-0.281254
C40	C	1.066029	-0.223184	-0.328279
C41	C	1.064243	-0.223188	-0.422319
C42	C	1.063346	-0.111629	-0.469337
C43	C	1.064241	-0.000067	-0.422314
C44	C	1.063351	0.111490	-0.469332
C45	C	1.064240	0.223054	-0.422310
C46	C	1.066025	0.223046	-0.328272
C47	C	1.061561	-0.111621	-0.563374
C48	C	1.061567	0.111494	-0.563375
C49	C	1.058763	-0.000068	0.289525
C50	C	1.060670	-0.000064	0.389608
H51	H	0.791490	0.202348	0.129009
F52	F	0.662202	0.341781	0.126548
H53	H	0.338773	-0.202462	0.120412
F54	F	0.662191	-0.341918	0.126572
F55	F	1.060623	-0.230346	-0.613415
F56	F	1.069658	-0.230348	-0.137179
H57	H	1.063519	-0.314030	-0.460596
F58	F	0.468072	0.341764	0.122815
F59	F	1.067004	0.341768	-0.278227
H60	H	0.338766	0.202306	0.120389
F61	F	1.063302	0.341777	-0.472361
F62	F	0.468073	-0.341906	0.122884
H63	H	1.069427	0.202316	-0.148921
H64	H	1.066761	-0.314007	-0.289991
H65	H	0.791492	-0.202445	0.129032
H66	H	1.060835	0.202339	-0.601649
