data_functionalizedCrystal
_audit_creation_method	'MofGen! by Chris Wilmer'
_symmetry_space_group_name_H-M	'P1'
_symmetry_Int_Tables_number	1
_symmetry_cell_setting	triclinic
loop_
_symmetry_equiv_pos_as_xyz
  x,y,z
_cell_length_a	12.594517
_cell_length_b	18.215406
_cell_length_c	18.215399
_cell_angle_alpha	89.984834
_cell_angle_beta	89.989849
_cell_angle_gamma	89.996684
loop_
_atom_site_label
_atom_site_type_symbol
_atom_site_fract_x
_atom_site_fract_y
_atom_site_fract_z
Zn1	Zn	1.627366	-0.293073	-0.415991
Zn2	Zn	1.627308	-0.416144	-0.292952
Zn3	Zn	1.449374	-0.293087	-0.292959
Zn4	Zn	1.449399	-0.416093	-0.415998
O5	O	1.538362	-0.354599	-0.354475
O6	O	1.776304	-0.309414	-0.399664
O7	O	1.603670	-0.399847	-0.189969
O8	O	1.472998	-0.190101	-0.309280
O9	O	1.776262	-0.399833	-0.309268
O10	O	1.603768	-0.190090	-0.399671
O11	O	1.472942	-0.309438	-0.189974
O12	O	1.300431	-0.309389	-0.309286
O13	O	1.473042	-0.399747	-0.518981
O14	O	1.300450	-0.399761	-0.399682
O15	O	1.603793	-0.309364	-0.518976
O16	O	1.603695	-0.519121	-0.309275
O17	O	1.472986	-0.519084	-0.399676
C18	C	1.261821	-0.354571	-0.354486
C19	C	1.143515	-0.354577	-0.354509
C20	C	1.074303	-0.403827	-0.403580
C21	C	1.003468	-0.336728	-0.421670
C22	C	1.003551	-0.421731	-0.336403
C23	C	1.074239	-0.287443	-0.372633
C24	C	1.074328	-0.372491	-0.287335
C25	C	1.003525	-0.305346	-0.305399
C26	C	1.538366	-0.545805	-0.354491
C27	C	1.538465	-0.627604	-0.354523
C28	C	1.538427	-0.354548	-0.546428
C29	C	1.538454	-0.354527	-0.628227
C30	C	1.815983	-0.354628	-0.354464
C31	C	1.934288	-0.354640	-0.354460
C32	C	1.538387	-0.162646	-0.354475
C33	C	1.538398	-0.080847	-0.354475
C34	C	1.470339	0.107342	-0.307435
C35	C	1.470348	0.184201	-0.307444
C36	C	1.606526	0.184201	-0.401568
C37	C	1.606511	0.107343	-0.401562
C38	C	1.538419	0.068916	-0.354492
C39	C	1.538443	0.222632	-0.354506
C40	C	1.538453	0.305966	-0.354516
C41	C	1.538408	-0.014423	-0.354482
C42	C	1.606561	-0.307421	-0.816420
C43	C	1.606574	-0.307399	-0.893278
C44	C	1.470423	-0.401519	-0.893272
C45	C	1.470406	-0.401536	-0.816415
C46	C	1.538481	-0.354488	-0.777991
C47	C	1.538511	-0.354449	-0.931707
C48	C	1.538524	-0.354427	-1.015041
C49	C	1.538466	-0.354510	-0.694652
C50	C	1.538358	-0.354597	-0.163269
C51	C	1.538537	-0.354411	-0.081470
H52	H	0.972644	-0.263676	-0.263881
O53	O	0.962437	-0.496926	-0.316144
H54	H	0.874316	-0.496144	-0.315802
O55	O	1.397002	-0.452264	-0.934715
H56	H	1.408456	-0.444350	-0.994615
H57	H	1.414892	0.076057	-0.269109
H58	H	1.105476	-0.387640	-0.230565
O59	O	1.679941	0.065895	-0.452324
H60	H	1.668479	0.005996	-0.444418
H61	H	1.661989	-0.269109	-0.785137
H62	H	1.414910	0.215486	-0.269128
O63	O	1.396942	-0.452283	-0.774958
H64	H	1.349608	-0.484995	-0.814587
H65	H	1.661966	0.215496	-0.439891
H66	H	1.105383	-0.445395	-0.445131
H67	H	1.662010	-0.269071	-0.924564
H68	H	1.105160	-0.230662	-0.387991
O69	O	0.962065	-0.316759	-0.496862
H70	H	0.990344	-0.357720	-0.537511
