data_functionalizedCrystal
_audit_creation_method	'MofGen! by Chris Wilmer'
_symmetry_space_group_name_H-M	'P1'
_symmetry_Int_Tables_number	1
_symmetry_cell_setting	triclinic
loop_
_symmetry_equiv_pos_as_xyz
  x,y,z
_cell_length_a	17.038272
_cell_length_b	14.044191
_cell_length_c	13.101039
_cell_angle_alpha	86.337551
_cell_angle_beta	86.388703
_cell_angle_gamma	87.848334
loop_
_atom_site_label
_atom_site_type_symbol
_atom_site_fract_x
_atom_site_fract_y
_atom_site_fract_z
O1	O	-0.185617	1.277886	-0.085138
O2	O	0.147716	1.611220	0.248195
O3	O	0.481049	1.944553	0.581528
O4	O	-0.178770	1.001365	-0.085152
O5	O	0.154563	1.334699	0.248181
O6	O	0.487896	1.668032	0.581514
O7	O	-0.068263	1.137983	-0.085154
O8	O	0.265070	1.471316	0.248179
O9	O	0.598404	1.804650	0.581512
O10	O	-0.296125	1.141269	-0.085136
O11	O	0.037209	1.474602	0.248197
O12	O	0.370542	1.807935	0.581530
O13	O	-0.076206	1.128182	0.085276
O14	O	0.257127	1.461515	0.418609
O15	O	0.590460	1.794849	0.751942
O16	O	-0.186714	0.991564	0.085278
O17	O	0.146620	1.324898	0.418611
O18	O	0.479953	1.658231	0.751944
O19	O	-0.193560	1.268085	0.085292
O20	O	0.139773	1.601419	0.418625
O21	O	0.473106	1.934752	0.751958
Zn22	Zn	-0.191398	1.128269	0.112344
Zn23	Zn	0.141935	1.461602	0.445677
Zn24	Zn	0.475269	1.794935	0.779011
Zn25	Zn	-0.180933	1.141182	-0.112205
Zn26	Zn	0.152401	1.474515	0.221129
Zn27	Zn	0.485734	1.807849	0.554462
O28	O	-0.304068	1.131468	0.085294
O29	O	0.029266	1.464801	0.418627
O30	O	0.362599	1.798134	0.751960
C31	C	-0.179747	0.960909	0.000061
C32	C	0.153586	1.294242	0.333394
C33	C	0.486920	1.627576	0.666727
C34	C	-0.170813	0.854963	0.000055
C35	C	0.162520	1.188296	0.333388
C36	C	0.495854	1.521630	0.666721
C37	C	-0.217840	0.608468	0.000069
C38	C	0.115493	0.941801	0.333402
C39	C	0.448826	1.275135	0.666735
C40	C	-0.154494	0.660989	0.000062
C41	C	0.178840	0.994322	0.333395
C42	C	0.512173	1.327656	0.666728
C43	C	-0.163576	0.768926	0.000058
C44	C	0.169757	1.102260	0.333391
C45	C	0.503091	1.435593	0.666724
C46	C	-0.208759	0.500521	0.000073
C47	C	0.124574	0.833854	0.333406
C48	C	0.457907	1.167188	0.666739
C49	C	-0.329434	1.139358	0.000081
C50	C	0.003900	1.472691	0.333414
C51	C	0.337233	1.806024	0.666748
C52	C	-0.416851	1.148276	0.000088
C53	C	-0.083518	1.481610	0.333421
C54	C	0.249815	1.814943	0.666755
C55	C	-0.461235	1.066388	0.000084
C56	C	-0.127901	1.399722	0.333417
C57	C	0.205432	1.733055	0.666750
C58	C	-0.543372	1.074775	0.000071
C59	C	-0.210038	1.408108	0.333404
C60	C	0.123295	1.741442	0.666738
C61	C	-0.581124	1.165051	0.000071
C62	C	-0.247790	1.498384	0.333404
C63	C	0.085543	1.831717	0.666737
C64	C	-0.536734	1.246945	0.000072
C65	C	-0.203401	1.580279	0.333405
C66	C	0.129933	1.913612	0.666739
C67	C	-0.454598	1.238558	0.000077
C68	C	-0.121265	1.571891	0.333411
C69	C	0.212068	1.905225	0.666744
C70	C	-0.828954	1.194682	0.000049
C71	C	-0.495621	1.528015	0.333382
C72	C	-0.162287	1.861349	0.666715
C73	C	-0.911096	1.203063	0.000047
C74	C	-0.577762	1.536396	0.333380
C75	C	-0.244429	1.869730	0.666713
C76	C	-0.917728	1.030892	0.000044
C77	C	-0.584394	1.364225	0.333377
C78	C	-0.251061	1.697559	0.666710
C79	C	-0.835590	1.022512	0.000055
C80	C	-0.502257	1.355846	0.333388
C81	C	-0.168924	1.689179	0.666722
C82	C	-0.791208	1.104407	0.000051
C83	C	-0.457874	1.437741	0.333384
C84	C	-0.124541	1.771074	0.666718
C85	C	-0.665081	1.173625	0.000061
C86	C	-0.331747	1.506959	0.333395
C87	C	0.001586	1.840292	0.666728
C88	C	-0.707252	1.095832	0.000053
C89	C	-0.373918	1.429165	0.333387
C90	C	-0.040585	1.762499	0.666720
C91	C	-0.042897	1.130093	0.000056
C92	C	0.290436	1.463427	0.333389
C93	C	0.623770	1.796760	0.666723
C94	C	0.044521	1.121175	0.000042
C95	C	0.377854	1.454508	0.333375
C96	C	0.711187	1.787841	0.666709
C97	C	-0.192584	1.308542	0.000076
C98	C	0.140750	1.641875	0.333410
C99	C	0.474083	1.975208	0.666743
C100	C	-0.201517	1.414488	0.000076
C101	C	0.131816	1.747822	0.333409
C102	C	0.465149	2.081155	0.666742
N103	N	-0.198540	1.119463	0.265593
N104	N	0.134793	1.452796	0.598926
N105	N	0.468126	1.786129	0.932259
N106	N	-0.173785	1.149995	-0.265453
N107	N	0.159549	1.483328	0.067880
N108	N	0.492882	1.816662	0.401213
C109	C	-0.208265	1.107482	0.474636
C110	C	0.125068	1.440816	0.807969
C111	C	0.458402	1.774149	1.141302
C112	C	-0.164062	1.161973	0.525510
C113	C	0.169271	1.495306	0.858844
C114	C	0.502604	1.828639	1.192177
C115	C	-0.169473	1.155307	0.641829
C116	C	0.163860	1.488640	0.975162
C117	C	0.497193	1.821973	1.308496
C118	C	-0.202855	1.114147	0.358306
C119	C	0.130478	1.447481	0.691640
C120	C	0.463812	1.780814	1.024973
H121	H	-0.430504	0.992875	0.000096
H122	H	-0.097170	1.326209	0.333429
H123	H	0.236163	1.659542	0.666763
H124	H	-0.093436	0.624895	-0.000015
H125	H	0.239897	0.958228	0.333318
H126	H	0.573231	1.291562	0.666651
H127	H	-0.278890	0.644564	0.000070
H128	H	0.054444	0.977898	0.333404
H129	H	0.387777	1.311231	0.666737
H130	H	-0.579505	1.008093	0.000064
H131	H	-0.246172	1.341426	0.333398
H132	H	0.087162	1.674759	0.666731
H133	H	-0.804858	0.949001	0.000044
H134	H	-0.471525	1.282335	0.333377
H135	H	-0.138191	1.615668	0.666710
H136	H	-0.953873	0.964218	0.000046
H137	H	-0.620539	1.297552	0.333379
H138	H	-0.287206	1.630885	0.666712
H139	H	-0.941831	1.276580	0.000047
H140	H	-0.608497	1.609913	0.333380
H141	H	-0.275164	1.943247	0.666714
H142	H	-0.676510	1.022330	0.000048
H143	H	-0.343177	1.355664	0.333382
H144	H	-0.009844	1.688997	0.666715
H145	H	-0.792828	1.261367	0.000052
H146	H	-0.459494	1.594700	0.333385
H147	H	-0.126161	1.928034	0.666719
H148	H	-0.695829	1.247126	0.000095
H149	H	-0.362496	1.580460	0.333428
H150	H	-0.029163	1.913793	0.666762
H151	H	-0.122156	1.213630	0.481707
H152	H	0.211177	1.546963	0.815041
H153	H	0.544510	1.880297	1.148374
H154	H	-0.567478	1.320450	0.000074
H155	H	-0.234145	1.653783	0.333407
H156	H	0.099188	1.987116	0.666740
H157	H	-0.418462	1.305241	0.000077
H158	H	-0.085128	1.638574	0.333410
H159	H	0.248205	1.971907	0.666743
H160	H	-0.250170	1.055830	0.518433
H161	H	0.083164	1.389163	0.851767
H162	H	0.416497	1.722496	1.185100
