data_functionalizedCrystal
_audit_creation_method	'MofGen! by Chris Wilmer'
_symmetry_space_group_name_H-M	'P1'
_symmetry_Int_Tables_number	1
_symmetry_cell_setting	triclinic
loop_
_symmetry_equiv_pos_as_xyz
  x,y,z
_cell_length_a	19.377625
_cell_length_b	21.606444
_cell_length_c	21.606444
_cell_angle_alpha	59.991153
_cell_angle_beta	75.511454
_cell_angle_gamma	52.467158
loop_
_atom_site_label
_atom_site_type_symbol
_atom_site_fract_x
_atom_site_fract_y
_atom_site_fract_z
Zr1	Zr	0.686664	0.677488	-0.235413
O2	O	0.572846	0.806626	-0.308723
O3	O	0.721555	0.548355	-0.212925
O4	O	0.721549	0.677490	-0.342068
O5	O	0.572859	0.677486	-0.077727
O6	O	0.838848	0.677486	-0.368388
O7	O	0.572853	0.677490	-0.179580
O8	O	0.838860	0.446486	-0.137375
O9	O	0.572847	0.908486	-0.308740
O10	O	0.823976	0.601463	-0.222995
O11	O	0.736441	0.601463	-0.127341
O12	O	0.736433	0.753504	-0.279389
O13	O	0.648898	0.753504	-0.183735
Zr14	Zr	0.873754	0.677473	-0.114948
Zr15	Zr	0.873744	0.677480	-0.277391
Zr16	Zr	0.686674	0.677481	-0.072970
Zr17	Zr	0.686665	0.839943	-0.235441
Zr18	Zr	0.873753	0.515018	-0.114920
O19	O	0.838863	0.806606	-0.137436
O20	O	0.838849	0.806616	-0.368410
O21	O	0.572860	0.806616	-0.077749
O22	O	0.987572	0.548335	-0.041639
O23	O	0.987558	0.548345	-0.272612
O24	O	0.721569	0.548345	0.018049
O25	O	0.987559	0.677475	-0.272634
O26	O	0.838869	0.677471	-0.008293
O27	O	0.721570	0.677475	0.018027
O28	O	0.987565	0.677471	-0.170781
O29	O	0.721550	0.908481	-0.342107
O30	O	0.838868	0.446480	-0.008255
O31	O	0.987571	0.446475	-0.041621
O32	O	0.987564	0.446480	-0.170742
O33	O	0.572854	0.908481	-0.179619
O34	O	0.721558	0.908475	-0.212986
O35	O	0.823985	0.601457	-0.070972
O36	O	0.911520	0.601457	-0.166626
O37	O	0.823977	0.753498	-0.223020
O38	O	0.736442	0.753498	-0.127366
C39	C	0.780208	0.474274	-0.175146
C40	C	0.780207	0.405307	-0.175135
C41	C	0.715580	0.429047	-0.216761
C42	C	0.715582	0.364258	-0.216778
C43	C	0.780209	0.275729	-0.175163
C44	C	0.844843	0.251990	-0.133534
C45	C	0.844843	0.316779	-0.133523
C46	C	0.844842	-0.009297	-0.133582
C47	C	0.844835	-0.074085	-0.133595
C48	C	0.715581	0.038182	-0.216837
C49	C	0.715582	0.102971	-0.216825
C50	C	0.780218	0.079226	-0.175200
C51	C	0.780216	0.149479	-0.175184
C52	C	0.780208	0.205478	-0.175174
C53	C	0.546201	0.677489	-0.122673
C54	C	0.466781	0.677492	-0.104852
C55	C	0.205553	0.677479	-0.326757
C56	C	0.130930	0.677475	-0.309989
C57	C	0.130957	0.677471	-0.197773
C58	C	0.205580	0.677479	-0.214534
C59	C	0.242872	0.677482	-0.279026
C60	C	0.242899	0.677482	-0.166803
C61	C	0.317517	0.677485	-0.183560
C62	C	0.354817	0.677486	-0.248049
C63	C	0.317491	0.677486	-0.295784
C64	C	0.205608	0.677472	-0.102308
C65	C	0.242927	0.677475	-0.054577
C66	C	0.317543	0.677485	-0.071337
C67	C	0.354843	0.677486	-0.135825
C68	C	0.354869	0.677485	-0.023602
C69	C	0.429488	0.677489	-0.040359
C70	C	0.429462	0.677489	-0.152583
C71	C	1.014217	0.677472	-0.227688
C72	C	1.093637	0.677469	-0.245509
C73	C	0.780197	0.677489	-0.378373
C74	C	0.780193	0.677492	-0.447334
C75	C	0.780210	0.880687	-0.175215
C76	C	0.780211	0.949654	-0.175226
C77	C	0.734496	0.756855	-0.509170
C78	C	0.734504	0.756853	-0.573967
C79	C	0.780204	0.677486	-0.576924
C80	C	0.825906	0.598117	-0.515082
C81	C	0.825903	0.598121	-0.450288
C82	C	0.825920	0.598102	-0.776388
C83	C	0.825917	0.598105	-0.841188
C84	C	0.734520	0.756834	-0.900067
C85	C	0.734517	0.756838	-0.835273
C86	C	0.780224	0.677469	-0.773437
C87	C	0.780216	0.677473	-0.703178
C88	C	0.780206	0.677482	-0.647181
C89	C	0.780221	0.677472	0.028011
C90	C	0.780225	0.677469	0.096973
C91	C	1.014216	0.474265	-0.227654
C92	C	1.093636	0.405296	-0.245463
C93	C	0.780220	0.474265	0.028046
C94	C	0.780223	0.405296	0.097019
C95	C	1.014228	0.474256	-0.024462
C96	C	1.093652	0.405284	0.026690
C97	C	0.546190	0.880705	-0.325899
C98	C	0.466766	0.949677	-0.377051
C99	C	0.546202	0.880696	-0.122707
C100	C	0.466782	0.949665	-0.104898
C101	C	0.780198	0.880696	-0.378407
C102	C	0.780195	0.949665	-0.447380
C103	C	1.085235	0.372910	-0.283257
C104	C	1.159851	0.308115	-0.300005
C105	C	1.242867	0.275702	-0.278952
C106	C	1.251266	0.308094	-0.241157
C107	C	1.176651	0.372892	-0.224415
C108	C	0.825922	0.372903	0.158840
C109	C	0.825922	0.308108	0.223655
C110	C	0.780228	0.275702	0.226645
C111	C	0.734524	0.308101	0.164817
C112	C	0.734519	0.372899	0.100006
C113	C	1.176650	0.372894	0.000780
C114	C	1.251284	0.308096	0.048835
C115	C	1.242918	0.275685	0.122800
C116	C	1.159911	0.308081	0.148711
C117	C	1.085278	0.372883	0.100656
C118	C	0.383768	0.982075	-0.351141
C119	C	0.309134	1.046893	-0.399196
C120	C	0.317500	1.079308	-0.473162
C121	C	0.400507	1.046907	-0.499073
C122	C	0.475139	0.982094	-0.451018
C123	C	0.475183	0.982058	-0.067110
C124	C	0.400567	1.046871	-0.050381
C125	C	0.317551	1.079286	-0.071436
C126	C	0.309152	1.046891	-0.109228
C127	C	0.383767	0.982084	-0.125961
C128	C	0.825898	0.982051	-0.450348
C129	C	0.825911	1.046846	-0.515153
C130	C	0.780217	1.079260	-0.576988
C131	C	0.734512	1.046868	-0.574018
C132	C	0.734504	0.982069	-0.509215
H133	H	0.662945	0.501129	-0.250640
H134	H	0.697294	0.821478	-0.624314
C135	C	1.342586	0.272426	-0.217996
H136	H	1.385814	0.229190	-0.233376
H137	H	1.349149	0.318934	-0.239059
H138	H	1.349138	0.247129	-0.167256
H139	H	0.697300	0.821466	-0.832870
H140	H	1.153112	0.281683	0.208940
H141	H	1.318866	0.281725	0.027725
C142	C	1.325019	0.204398	0.175653
H143	H	1.375645	0.189748	0.149622
H144	H	1.325038	0.225626	0.204965
H145	H	1.325032	0.153829	0.204969
H146	H	0.376939	0.955687	-0.290916
H147	H	1.017700	0.399246	0.121764
H148	H	0.697309	1.073269	-0.624373
C149	C	0.684254	0.408518	0.032005
H150	H	0.657051	0.379928	0.043074
H151	H	0.641007	0.469700	0.014761
H152	H	0.723700	0.397882	-0.003767
H153	H	0.697284	0.955708	-0.506807
H154	H	1.183503	0.399252	-0.193636
H155	H	0.459822	0.677501	-0.205103
C156	C	0.876163	0.510824	-0.382265
H157	H	0.869622	0.522192	-0.343254
H158	H	0.853599	0.478214	-0.371512
H159	H	0.936286	0.478212	-0.390063
H160	H	0.324501	0.677474	0.028911
C161	C	0.217837	1.082515	-0.370683
H162	H	0.223551	1.053913	-0.319750
H163	H	0.186820	1.143693	-0.387348
H164	H	0.186824	1.071895	-0.387352
C165	C	0.235399	1.150588	-0.526014
H166	H	0.184773	1.165227	-0.499983
H167	H	0.235377	1.201157	-0.555341
H168	H	0.235389	1.129339	-0.555316
C169	C	0.993927	0.408558	-0.306425
H170	H	0.999623	0.379990	-0.331339
H171	H	0.962914	0.397936	-0.265222
H172	H	0.962920	0.469743	-0.337026
C173	C	0.876168	0.946402	-0.382338
H174	H	0.869619	0.903175	-0.343311
H175	H	0.936285	0.921117	-0.390141
H176	H	0.853602	0.992927	-0.371599
H177	H	0.256801	1.132056	-0.057806
H178	H	0.407309	1.073307	-0.559301
H179	H	0.542719	0.955716	-0.472124
C180	C	0.217832	1.082548	-0.132378
H181	H	0.174604	1.125775	-0.116989
H182	H	0.211266	1.107834	-0.183113
H183	H	0.211282	1.036026	-0.111295
H184	H	0.697307	0.821460	-0.950423
H185	H	0.415578	0.677485	-0.261690
C186	C	0.915928	-0.171470	-0.087821
H187	H	0.906662	-0.206652	-0.093785
H188	H	0.971714	-0.183910	-0.102662
H189	H	0.913251	-0.183927	-0.038770
H190	H	0.662956	0.383595	-0.250674
H191	H	0.459874	0.677490	-0.001491
C192	C	0.566491	0.946412	-0.043944
H193	H	0.560795	0.974999	-0.019050
H194	H	0.597503	0.885231	-0.013341
H195	H	0.597500	0.957034	-0.085156
H196	H	0.897473	-0.028641	-0.099688
C197	C	0.780227	1.150539	-0.648268
H198	H	0.746473	1.165205	-0.684674
H199	H	0.755769	1.201093	-0.642785
H200	H	0.838454	1.129282	-0.661324
C201	C	0.374516	0.946448	-0.167517
H202	H	0.314386	0.975033	-0.177649
H203	H	0.401720	0.957059	-0.211175
H204	H	0.401718	0.885266	-0.139354
C205	C	0.409821	1.082485	-0.008803
H206	H	0.469950	1.053883	0.001349
H207	H	0.382623	1.143664	-0.036949
H208	H	0.382612	1.071860	0.034855
C209	C	0.876179	1.082475	-0.518409
H210	H	0.869653	1.125703	-0.565859
H211	H	0.853606	1.107756	-0.486428
H212	H	0.936300	1.035942	-0.504959
C213	C	0.644493	0.200350	-0.262598
H214	H	0.653746	0.235535	-0.256624
H215	H	0.647167	0.212808	-0.311646
H216	H	0.588706	0.212785	-0.247753
C217	C	0.644488	0.064300	-0.262632
H218	H	0.653746	0.013038	-0.256687
H219	H	0.588704	0.097972	-0.247788
H220	H	0.647169	0.097993	-0.311677
H221	H	0.897466	0.179904	-0.099655
C222	C	0.876191	0.510798	-0.844440
H223	H	0.903418	0.463528	-0.798335
H224	H	0.836750	0.507498	-0.859215
H225	H	0.919434	0.507502	-0.877772
H226	H	0.897469	0.297443	-0.099625
H227	H	0.347851	0.677498	-0.348304
H228	H	0.863143	0.281737	0.273990
H229	H	0.235913	0.677491	-0.379277
H230	H	0.100549	0.677472	-0.348862
H231	H	1.183479	0.399273	-0.059445
H232	H	0.697321	0.281706	0.167263
H233	H	0.697276	0.821485	-0.506769
H234	H	0.100587	0.677465	-0.145262
H235	H	0.144851	0.677465	-0.088666
H236	H	0.212556	0.677469	-0.002066
C237	C	0.876185	0.510800	-0.708376
H238	H	0.903392	0.463535	-0.719419
H239	H	0.919428	0.507494	-0.691148
H240	H	0.836736	0.507505	-0.672602
H241	H	0.863132	0.399281	0.156419
H242	H	0.780239	0.222939	0.279424
C243	C	0.876173	0.510816	-0.518334
H244	H	0.869623	0.522179	-0.565777
H245	H	0.936292	0.478202	-0.504894
H246	H	0.853600	0.478211	-0.486341
H247	H	1.152995	0.281750	-0.330779
C248	C	1.324936	0.204418	-0.297365
H249	H	1.308036	0.189770	-0.322883
H250	H	1.358702	0.225646	-0.326188
H251	H	1.358694	0.153847	-0.254376
