data_functionalizedCrystal
_audit_creation_method	'MofGen! by Chris Wilmer'
_symmetry_space_group_name_H-M	'P1'
_symmetry_Int_Tables_number	1
_symmetry_cell_setting	triclinic
loop_
_symmetry_equiv_pos_as_xyz
  x,y,z
_cell_length_a	12.759401
_cell_length_b	18.050589
_cell_length_c	12.759393
_cell_angle_alpha	89.969379
_cell_angle_beta	89.981504
_cell_angle_gamma	90.028382
loop_
_atom_site_label
_atom_site_type_symbol
_atom_site_fract_x
_atom_site_fract_y
_atom_site_fract_z
Zn1	Zn	1.606157	-0.295612	-0.593988
Zn2	Zn	2.106157	0.204388	-0.093988
Zn3	Zn	1.606010	-0.419823	-0.418311
Zn4	Zn	2.106010	0.080177	0.081689
Zn5	Zn	1.430459	-0.295651	-0.418328
Zn6	Zn	1.930459	0.204349	0.081672
Zn7	Zn	1.430406	-0.419766	-0.593953
Zn8	Zn	1.930406	0.080234	-0.093953
O9	O	1.518258	-0.357713	-0.506145
O10	O	2.018258	0.142287	-0.006145
O11	O	1.753158	-0.312097	-0.570692
O12	O	2.253158	0.187903	-0.070692
O13	O	1.582683	-0.403391	-0.271292
O14	O	2.082683	0.096609	0.228708
O15	O	1.453849	-0.191722	-0.441651
O16	O	1.953849	0.308278	0.058349
O17	O	1.753050	-0.403354	-0.441623
O18	O	2.253050	0.096646	0.058377
O19	O	1.582934	-0.191693	-0.570708
O20	O	2.082934	0.308307	-0.070708
O21	O	1.453706	-0.312163	-0.271304
O22	O	1.953706	0.187837	0.228696
O23	O	1.283431	-0.312108	-0.441617
O24	O	1.783431	0.187892	0.058383
O25	O	1.453759	-0.403256	-0.740979
O26	O	1.953759	0.096744	-0.240979
O27	O	1.283392	-0.403294	-0.570648
O28	O	1.783392	0.096706	-0.070648
O29	O	1.582882	-0.312041	-0.741005
O30	O	2.082882	0.187959	-0.241005
O31	O	1.582632	-0.523740	-0.441589
O32	O	2.082632	-0.023740	0.058411
O33	O	1.453616	-0.523698	-0.570632
O34	O	1.953616	-0.023698	-0.070632
C35	C	1.245290	-0.357699	-0.506131
C36	C	1.745290	0.142301	-0.006131
C37	C	1.128514	-0.357711	-0.506149
C38	C	1.628514	0.142289	-0.006149
C39	C	1.073659	-0.405268	-0.573225
C40	C	1.573659	0.094732	-0.073225
C41	C	0.963935	-0.405277	-0.573236
C42	C	1.463935	0.094723	-0.073236
C43	C	0.963930	-0.310171	-0.439088
C44	C	1.463930	0.189829	0.060912
C45	C	1.073652	-0.310159	-0.439083
C46	C	1.573652	0.189841	0.060917
C47	C	1.128521	-0.452820	-0.640292
C48	C	1.628521	0.047180	-0.140292
C49	C	1.073666	-0.500382	-0.707372
C50	C	1.573666	-0.000382	-0.207372
C51	C	0.963942	-0.500391	-0.707383
C52	C	1.463942	-0.000391	-0.207383
C53	C	0.909072	-0.452839	-0.640314
C54	C	1.409072	0.047161	-0.140314
C55	C	1.518131	-0.550665	-0.506127
C56	C	2.018131	-0.050665	-0.006127
C57	C	1.518173	-0.633211	-0.506155
C58	C	2.018173	-0.133211	-0.006155
C59	C	1.448083	-0.832666	-0.576304
C60	C	1.948083	-0.332666	-0.076304
C61	C	1.422469	-0.882114	-0.480436
C62	C	1.922469	-0.382114	0.019564
C63	C	1.518276	-0.784341	-0.506169
C64	C	2.018276	-0.284341	-0.006169
C65	C	1.543942	-0.881974	-0.602048
C66	C	2.043942	-0.381974	-0.102048
C67	C	1.518374	-0.930326	-0.506191
C68	C	2.018374	-0.430326	-0.006191
C69	C	1.492611	-0.832703	-0.410250
C70	C	1.992611	-0.332703	0.089750
C71	C	1.614129	-0.832558	-0.531927
C72	C	2.114129	-0.332558	-0.031927
C73	C	1.588551	-0.881985	-0.435992
C74	C	2.088551	-0.381985	0.064008
C75	C	1.518217	-0.700243	-0.506158
C76	C	2.018217	-0.200243	-0.006158
C77	C	1.518433	-1.014423	-0.506191
C78	C	2.018433	-0.514423	-0.006191
C79	C	1.792291	-0.357727	-0.506160
C80	C	2.292291	0.142273	-0.006160
C81	C	1.909068	-0.357733	-0.506166
C82	C	2.409068	0.142267	-0.006166
C83	C	1.518331	-0.357638	-0.780178
C84	C	2.018331	0.142362	-0.280178
C85	C	1.518363	-0.357606	-0.896955
C86	C	2.018363	0.142394	-0.396955
C87	C	1.518414	-0.164007	-0.506185
C88	C	2.018414	0.335993	-0.006185
C89	C	1.518480	-0.081462	-0.506203
C90	C	2.018480	0.418538	-0.006203
C91	C	1.585606	-0.310106	-0.951832
C92	C	2.085606	0.189894	-0.451832
C93	C	1.585631	-0.310079	-1.061557
C94	C	2.085631	0.189921	-0.561557
C95	C	1.451166	-0.405059	-1.061516
C96	C	1.951166	0.094941	-0.561516
C97	C	1.451136	-0.405081	-0.951794
C98	C	1.951136	0.094919	-0.451794
C99	C	1.652833	-0.262631	-0.896993
C100	C	2.152833	0.237369	-0.396993
C101	C	1.720083	-0.215128	-0.951871
C102	C	2.220083	0.284872	-0.451871
C103	C	1.720108	-0.215101	-1.061595
C104	C	2.220108	0.284899	-0.561595
C105	C	1.652883	-0.262577	-1.116442
C106	C	2.152883	0.237423	-0.616442
C107	C	1.518245	-0.357734	-0.233178
C108	C	2.018245	0.142266	0.266822
C109	C	1.518417	-0.357557	-0.116401
C110	C	2.018417	0.142443	0.383599
H111	H	1.118347	-0.539092	-0.761983
H112	H	1.618347	-0.039092	-0.261983
N113	N	1.315150	-0.910940	-0.451579
N114	N	1.815150	-0.410940	0.048421
H115	H	1.287108	-0.942512	-0.510587
H116	H	1.787108	-0.442512	-0.010587
H117	H	1.320300	-0.941717	-0.385658
H118	H	1.820300	-0.441717	0.114342
N119	N	1.378676	-0.456263	-1.120683
N120	N	1.878676	0.043737	-0.620683
H121	H	1.394941	-0.509331	-1.101576
H122	H	1.894941	-0.009331	-0.601576
H123	H	1.303640	-0.444665	-1.101573
H124	H	1.803640	0.055335	-0.601573
N125	N	1.463788	-0.804161	-0.302823
N126	N	1.963788	-0.304161	0.197177
H127	H	1.463898	-0.748209	-0.303484
H128	H	1.963898	-0.248209	0.196516
H129	H	1.391674	-0.822680	-0.283279
H130	H	1.891674	-0.322680	0.216721
H131	H	1.565611	-0.903618	-0.683124
H132	H	2.065611	-0.403618	-0.183124
H133	H	1.647952	-0.903503	-0.376622
H134	H	2.147952	-0.403503	0.123378
N135	N	1.132822	-0.258872	-0.366730
N136	N	1.632822	0.241128	0.133270
H137	H	1.210655	-0.266079	-0.376907
H138	H	1.710655	0.233921	0.123093
H139	H	1.113676	-0.205848	-0.383211
H140	H	1.613676	0.294152	0.116789
H141	H	1.396364	-0.443749	-0.907112
H142	H	1.896364	0.056251	-0.407112
H143	H	1.774858	-0.176416	-1.106273
H144	H	2.274858	0.323584	-0.606273
H145	H	0.919282	-0.539112	-0.762010
H146	H	1.419282	-0.039112	-0.262010
H147	H	1.695124	-0.810777	-0.553739
H148	H	2.195124	-0.310777	-0.053739
H149	H	0.819728	-0.452844	-0.640338
H150	H	1.319728	0.047156	-0.140338
H151	H	1.652822	-0.262649	-0.807650
H152	H	2.152822	0.237351	-0.307650
H153	H	0.919247	-0.271458	-0.384483
H154	H	1.419247	0.228542	0.115517
H155	H	1.774808	-0.176469	-0.907207
H156	H	2.274808	0.323531	-0.407207
N157	N	1.652905	-0.262540	-1.234787
N158	N	2.152905	0.237460	-0.734787
H159	H	1.724971	-0.276188	-1.261221
H160	H	2.224971	0.223812	-0.761221
H161	H	1.600073	-0.299817	-1.261120
H162	H	2.100073	0.200183	-0.761120
N163	N	1.246864	-0.452815	-0.640271
N164	N	1.746864	0.047185	-0.140271
H165	H	1.273297	-0.490155	-0.692933
H166	H	1.773297	0.009845	-0.192933
H167	H	1.273250	-0.401860	-0.659676
H168	H	1.773250	0.098140	-0.159676
N169	N	1.369350	-0.803976	-0.654763
N170	N	1.869350	-0.303976	-0.154763
H171	H	1.296999	-0.822006	-0.635172
H172	H	1.796999	-0.322006	-0.135172
H173	H	1.370430	-0.748030	-0.654641
H174	H	1.870430	-0.248030	-0.154641
