data_functionalizedCrystal
_audit_creation_method	'MofGen! by Chris Wilmer'
_symmetry_space_group_name_H-M	'P1'
_symmetry_Int_Tables_number	1
_symmetry_cell_setting	triclinic
loop_
_symmetry_equiv_pos_as_xyz
  x,y,z
_cell_length_a	11.169417
_cell_length_b	21.295417
_cell_length_c	11.169409
_cell_angle_alpha	89.958601
_cell_angle_beta	89.980176
_cell_angle_gamma	90.031386
loop_
_atom_site_label
_atom_site_type_symbol
_atom_site_fract_x
_atom_site_fract_y
_atom_site_fract_z
Zn1	Zn	1.834794	-0.250543	-0.678467
Zn2	Zn	1.834613	-0.355832	-0.477752
Zn3	Zn	1.634080	-0.250582	-0.477802
Zn4	Zn	1.634017	-0.355780	-0.678397
O5	O	1.734376	-0.303184	-0.578105
O6	O	2.002720	-0.264516	-0.651851
O7	O	1.807962	-0.341908	-0.309809
O8	O	1.660807	-0.162487	-0.504470
O9	O	2.002587	-0.341870	-0.504386
O10	O	1.808271	-0.162459	-0.651898
O11	O	1.660632	-0.264581	-0.309845
O12	O	1.466122	-0.264531	-0.504402
O13	O	1.660700	-0.341783	-0.846356
O14	O	1.466076	-0.341820	-0.651779
O15	O	1.808210	-0.264466	-0.846408
O16	O	1.807901	-0.443914	-0.504318
O17	O	1.660524	-0.443877	-0.651731
C18	C	1.422551	-0.303175	-0.578089
C19	C	1.289151	-0.303186	-0.578111
C20	C	1.734219	-0.466736	-0.578038
C21	C	1.734261	-0.536704	-0.578050
C22	C	1.811069	-0.569569	-0.501371
C23	C	1.811125	-0.635312	-0.501398
C24	C	1.734352	-0.668187	-0.578091
C25	C	1.657539	-0.635313	-0.654785
C26	C	1.657494	-0.569572	-0.654765
N27	N	1.629362	-0.771452	-0.587235
N28	N	1.629409	-0.833904	-0.587248
C29	C	1.734487	-0.866261	-0.578160
N30	N	1.839518	-0.833808	-0.569035
N31	N	1.839470	-0.771351	-0.569016
C32	C	1.734394	-0.739472	-0.578123
C33	C	1.811362	-0.970412	-0.501506
C34	C	1.811420	-1.036156	-0.501541
C35	C	1.657824	-1.036156	-0.654923
C36	C	1.657776	-0.970413	-0.654894
C37	C	1.734543	-0.937546	-0.578179
C38	C	2.047418	-0.303194	-0.578121
C39	C	2.180818	-0.303199	-0.578128
C40	C	1.734468	-0.303114	-0.891147
C41	C	1.734507	-0.303085	-1.024547
C42	C	1.734567	-0.138994	-0.578198
C43	C	1.734648	-0.069026	-0.578237
C44	C	1.734353	-0.303209	-0.266280
C45	C	1.734547	-0.303061	-0.132880
H46	H	1.873675	-0.662076	-0.438956
C47	C	1.972753	-0.896405	-0.484940
C48	C	1.895751	-0.934278	-0.417194
H49	H	2.024845	-0.874097	-0.432886
H50	H	2.018649	-0.922003	-0.537271
H51	H	1.926981	-0.867422	-0.530593
H52	H	1.941523	-0.963265	-0.371547
H53	H	1.849850	-0.908678	-0.364842
C54	C	1.495997	-0.495711	-0.671275
C55	C	1.573057	-0.533441	-0.739050
H56	H	1.443874	-0.473402	-0.723311
H57	H	1.450136	-0.521406	-0.618968
H58	H	1.541724	-0.466728	-0.625594
H59	H	1.527330	-0.562426	-0.784724
H60	H	1.618923	-0.507743	-0.791377
C61	C	1.963213	-1.029548	-0.349908
C62	C	1.895852	-1.072284	-0.417247
H63	H	2.015332	-1.051854	-0.297863
H64	H	2.009079	-1.003860	-0.402223
H65	H	1.910908	-1.003953	-0.303954
H66	H	1.948157	-1.097876	-0.463208
H67	H	1.849983	-1.097983	-0.364925
C68	C	1.640831	-0.709183	-0.816218
C69	C	1.573149	-0.671448	-0.739086
H70	H	1.588730	-0.731493	-0.868261
H71	H	1.693069	-0.683491	-0.862162
H72	H	1.686579	-0.738165	-0.770538
H73	H	1.527407	-0.642464	-0.784766
H74	H	1.520889	-0.697142	-0.693138
H75	H	1.595319	-1.062922	-0.717374
C76	C	1.599179	-0.950109	-0.858057
C77	C	1.573330	-0.934286	-0.739171
H78	H	1.547037	-0.927808	-0.910087
H79	H	1.679789	-0.939283	-0.875683
H80	H	1.588219	-0.993968	-0.869030
H81	H	1.584299	-0.890427	-0.728196
H82	H	1.492701	-0.945107	-0.721539
C83	C	1.962902	-0.576178	-0.349771
C84	C	1.895467	-0.533442	-0.417064
H85	H	2.015014	-0.553872	-0.297733
H86	H	1.910652	-0.601861	-0.303822
H87	H	2.008791	-0.601777	-0.402124
H88	H	1.849572	-0.507845	-0.364710
H89	H	1.947724	-0.507748	-0.463016
