data_functionalizedCrystal
_audit_creation_method	'MofGen! by Chris Wilmer'
_symmetry_space_group_name_H-M	'P1'
_symmetry_Int_Tables_number	1
_symmetry_cell_setting	triclinic
loop_
_symmetry_equiv_pos_as_xyz
  x,y,z
_cell_length_a	17.699083
_cell_length_b	15.538191
_cell_length_c	16.176319
_cell_angle_alpha	89.995479
_cell_angle_beta	89.998611
_cell_angle_gamma	65.277554
loop_
_atom_site_label
_atom_site_type_symbol
_atom_site_fract_x
_atom_site_fract_y
_atom_site_fract_z
O1	O	0.971508	0.119201	-0.068626
O2	O	1.471508	0.619201	0.431374
O3	O	0.746892	0.134709	-0.068653
O4	O	1.246892	0.634709	0.431347
O5	O	0.902923	-0.010274	-0.068638
O6	O	1.402923	0.489726	0.431362
O7	O	0.815476	0.264185	-0.068641
O8	O	1.315476	0.764185	0.431359
O9	O	0.902910	-0.010284	0.068855
O10	O	1.402910	0.489716	0.568855
O11	O	0.746878	0.134700	0.068840
O12	O	1.246878	0.634700	0.568840
O13	O	0.971494	0.119192	0.068867
O14	O	1.471494	0.619192	0.568867
Cu15	Cu	0.859185	0.126945	0.081408
Cu16	Cu	1.359185	0.626945	0.581408
Cu17	Cu	0.859201	0.126956	-0.081194
Cu18	Cu	1.359201	0.626956	0.418806
O19	O	0.815463	0.264175	0.068852
O20	O	1.315463	0.764175	0.568852
C21	C	0.718840	0.134149	0.000090
C22	C	1.218840	0.634149	0.500090
C23	C	0.635277	0.132482	0.000080
C24	C	1.135277	0.632482	0.500080
C25	C	0.563403	0.217584	0.000079
C26	C	1.063403	0.717584	0.500079
C27	C	0.484889	0.216012	0.000090
C28	C	0.984889	0.716012	0.500090
C29	C	0.478252	0.129337	0.000095
C30	C	0.978252	0.629337	0.500095
C31	C	0.550134	0.044228	0.000098
C32	C	1.050134	0.544228	0.500098
C33	C	0.628646	0.045801	0.000094
C34	C	1.128646	0.545801	0.500094
C35	C	0.233505	0.037882	0.000119
C36	C	0.733505	0.537882	0.500119
C37	C	0.154985	0.036316	0.000121
C38	C	0.654985	0.536316	0.500121
C39	C	0.089748	0.208094	0.000115
C40	C	0.589748	0.708094	0.500115
C41	C	0.168260	0.209667	0.000111
C42	C	0.668260	0.709667	0.500111
C43	C	0.240135	0.124558	0.000118
C44	C	0.740135	0.624558	0.500118
C45	C	0.325269	0.126264	0.000108
C46	C	0.825269	0.626264	0.500108
C47	C	0.393120	0.127630	0.000100
C48	C	0.893120	0.627630	0.500100
C49	C	0.912066	-0.045395	0.000107
C50	C	1.412066	0.454605	0.500107
C51	C	0.939318	-0.150032	0.000102
C52	C	1.439318	0.349968	0.500102
C53	C	0.668571	-0.437202	0.000087
C54	C	1.168571	0.062798	0.500087
C55	C	0.694198	-0.535527	0.000092
C56	C	1.194198	-0.035527	0.500092
C57	C	0.838344	-0.558300	0.000109
C58	C	1.338344	-0.058300	0.500109
C59	C	0.812729	-0.459975	0.000100
C60	C	1.312729	0.040025	0.500100
C61	C	0.727842	-0.399434	0.000090
C62	C	1.227842	0.100566	0.500090
C63	C	0.872000	-0.422207	0.000103
C64	C	1.372000	0.077793	0.500103
C65	C	0.846387	-0.323891	0.000098
C66	C	1.346387	0.176109	0.500098
C67	C	0.761503	-0.263343	0.000091
C68	C	1.261503	0.236657	0.500091
C69	C	0.702229	-0.301118	0.000085
C70	C	1.202229	0.198882	0.500085
C71	C	0.956887	-0.482750	0.000118
C72	C	1.456887	0.017250	0.500118
C73	C	1.016158	-0.444981	0.000121
C74	C	1.516158	0.055019	0.500121
C75	C	0.990545	-0.346663	0.000111
C76	C	1.490545	0.153337	0.500111
C77	C	0.905661	-0.286116	0.000103
C78	C	1.405661	0.213884	0.500103
C79	C	1.049819	-0.308889	0.000116
C80	C	1.549819	0.191111	0.500116
C81	C	1.024206	-0.210573	0.000111
C82	C	1.524206	0.289427	0.500111
C83	C	0.880048	-0.187800	0.000099
C84	C	1.380048	0.312200	0.500099
C85	C	0.999546	0.119752	0.000122
C86	C	1.499546	0.619752	0.500122
C87	C	1.083109	0.121419	0.000127
C88	C	1.583109	0.621419	0.500127
C89	C	0.806321	0.299297	0.000106
C90	C	1.306321	0.799297	0.500106
C91	C	0.779068	0.403933	0.000105
C92	C	1.279068	0.903933	0.500105
N93	N	0.859180	0.126937	0.195773
N94	N	1.359180	0.626937	0.695773
N95	N	0.859215	0.126957	-0.195559
N96	N	1.359215	0.626957	0.304441
C97	C	0.928279	0.062764	0.239044
C98	C	1.428279	0.562764	0.739044
C99	C	0.928283	0.062763	0.325591
C100	C	1.428283	0.562763	0.825591
C101	C	0.859189	0.126940	0.368866
C102	C	1.359189	0.626940	0.868866
C103	C	0.790084	0.191116	0.325589
C104	C	1.290084	0.691116	0.825589
C105	C	0.790078	0.191111	0.239043
C106	C	1.290078	0.691111	0.739043
C107	C	0.790105	0.191133	0.674617
C108	C	1.290105	0.691133	1.174617
C109	C	0.790117	0.191135	0.761169
C110	C	1.290117	0.691135	1.261169
C111	C	0.928310	0.062785	0.761164
C112	C	1.428310	0.562785	1.261164
C113	C	0.928304	0.062781	0.674619
C114	C	1.428304	0.562781	1.174619
C115	C	0.859197	0.126953	0.631350
C116	C	1.359197	0.626953	1.131350
C117	C	0.859193	0.126952	0.537506
C118	C	1.359193	0.626952	1.037506
C119	C	0.859195	0.126946	0.462708
C120	C	1.359195	0.626946	0.962708
H121	H	0.687169	-0.023498	0.000094
H122	H	1.187169	0.476502	0.500094
Br123	Br	-0.007803	0.323600	0.000106
Br124	Br	0.492197	0.823600	0.500106
Br125	Br	0.696342	0.278239	0.819899
Br126	Br	1.196342	0.778239	1.319899
Br127	Br	0.553365	-0.355030	0.000062
Br128	Br	1.053365	0.144970	0.500062
Br129	Br	0.726738	-0.129912	0.000096
Br130	Br	1.226738	0.370088	0.500096
H131	H	0.645927	-0.566272	0.000102
H132	H	1.145927	-0.066272	0.500102
H133	H	0.568797	0.288165	0.000074
H134	H	1.068797	0.788165	0.500074
H135	H	0.544725	-0.026345	0.000115
H136	H	1.044725	0.473655	0.500115
Br137	Br	0.177262	0.327301	0.000096
Br138	Br	0.677262	0.827301	0.500096
H139	H	0.810924	-0.138503	0.000085
H140	H	1.310924	0.361497	0.500085
H141	H	0.633105	-0.251821	0.000071
H142	H	1.133105	0.248179	0.500071
Br143	Br	1.022078	-0.024313	0.615891
Br144	Br	1.522078	0.475687	1.115891
H145	H	1.072470	-0.179822	0.000115
H146	H	1.572470	0.320178	0.500115
Br147	Br	0.696308	0.278209	0.384316
Br148	Br	1.196308	0.778209	0.884316
Br149	Br	1.131358	-0.527152	0.000144
Br150	Br	1.631358	-0.027152	0.500144
H151	H	0.733837	0.243386	0.639394
H152	H	1.233837	0.743386	1.139394
H153	H	0.907460	-0.607605	0.000120
H154	H	1.407460	-0.107605	0.500120
Br155	Br	0.696294	0.278201	0.180319
Br156	Br	1.196294	0.778201	0.680319
Br157	Br	1.165019	-0.391062	0.000150
Br158	Br	1.665019	0.108938	0.500150
H159	H	0.149589	-0.034270	0.000127
H160	H	0.649589	0.465730	0.500127
H161	H	0.977738	-0.562804	0.000115
H162	H	1.477738	-0.062804	0.500115
H163	H	0.984544	0.010508	0.203815
H164	H	1.484544	0.510508	0.703815
Br165	Br	1.022059	-0.024333	0.384318
Br166	Br	1.522059	0.475667	0.884318
Br167	Br	1.022099	-0.024309	0.819891
Br168	Br	1.522099	0.475691	1.319891
H169	H	0.292019	-0.031418	0.000126
H170	H	0.792019	0.468582	0.500126
Br171	Br	0.387345	0.331514	0.000087
Br172	Br	0.887345	0.831514	0.500087
