data_functionalizedCrystal
_audit_creation_method	'MofGen! by Chris Wilmer'
_symmetry_space_group_name_H-M	'P1'
_symmetry_Int_Tables_number	1
_symmetry_cell_setting	triclinic
loop_
_symmetry_equiv_pos_as_xyz
  x,y,z
_cell_length_a	29.839134
_cell_length_b	12.759399
_cell_length_c	12.759393
_cell_angle_alpha	89.969094
_cell_angle_beta	89.967527
_cell_angle_gamma	90.009978
loop_
_atom_site_label
_atom_site_type_symbol
_atom_site_fract_x
_atom_site_fract_y
_atom_site_fract_z
Zn1	Zn	0.686848	-0.418359	-0.594340
Zn2	Zn	1.186848	0.081641	-0.094340
Zn3	Zn	0.686801	-0.594075	-0.418659
Zn4	Zn	1.186801	-0.094075	0.081341
Zn5	Zn	0.611717	-0.418395	-0.418640
Zn6	Zn	1.111717	0.081605	0.081360
Zn7	Zn	0.611713	-0.593981	-0.594261
Zn8	Zn	1.111713	-0.093981	-0.094261
O9	O	0.649270	-0.506203	-0.506475
O10	O	1.149270	-0.006203	-0.006475
O11	O	0.749709	-0.441693	-0.571077
O12	O	1.249709	0.058307	-0.071077
O13	O	0.676823	-0.570825	-0.271636
O14	O	1.176823	-0.070825	0.228364
O15	O	0.621705	-0.271369	-0.441972
O16	O	1.121705	0.228631	0.058028
O17	O	0.749675	-0.570790	-0.442005
O18	O	1.249675	-0.070790	0.057995
O19	O	0.676903	-0.271343	-0.571059
O20	O	1.176903	0.228657	-0.071059
O21	O	0.621659	-0.441753	-0.271622
O22	O	1.121659	0.058247	0.228378
O23	O	0.548850	-0.441662	-0.441896
O24	O	1.048850	0.058338	0.058104
O25	O	0.621698	-0.570630	-0.741293
O26	O	1.121698	-0.070630	-0.241293
O27	O	0.548847	-0.570665	-0.570923
O28	O	1.048847	-0.070665	-0.070923
O29	O	0.676900	-0.441602	-0.741351
O30	O	1.176900	0.058398	-0.241351
O31	O	0.676819	-0.741083	-0.441928
O32	O	1.176819	-0.241083	0.058072
O33	O	0.621652	-0.741015	-0.570942
O34	O	1.121652	-0.241015	-0.070942
C35	C	0.649243	-0.779170	-0.506451
C36	C	1.149243	-0.279170	-0.006451
C37	C	0.649272	-0.895947	-0.506476
C38	C	1.149272	-0.395947	-0.006476
C39	C	0.532547	-0.506158	-0.506399
C40	C	1.032547	-0.006158	-0.006399
C41	C	0.482613	-0.506164	-0.506392
C42	C	0.982613	-0.006164	-0.006392
C43	C	0.678030	-0.950809	-0.439375
C44	C	1.178030	-0.450809	0.060625
C45	C	0.678059	-1.060533	-0.439410
C46	C	1.178059	-0.560533	0.060590
C47	C	0.620568	-1.060522	-0.573651
C48	C	1.120568	-0.560522	-0.073651
C49	C	0.620541	-0.950800	-0.573620
C50	C	1.120541	-0.450800	-0.073620
C51	C	0.172978	-0.573474	-0.573578
C52	C	0.672978	-0.073474	-0.073578
C53	C	-0.014695	-0.573503	-0.573624
C54	C	0.485305	-0.073503	-0.073624
O55	O	-0.038954	-0.630682	-0.630703
O56	O	0.461046	-0.130682	-0.130703
N57	N	-0.038172	-0.506241	-0.506554
N58	N	0.461828	-0.006241	-0.006554
C59	C	-0.014727	-0.438962	-0.439473
C60	C	0.485273	0.061038	0.060527
O61	O	-0.039002	-0.381745	-0.382434
O62	O	0.460998	0.118255	0.117566
C63	C	0.172945	-0.438928	-0.439432
C64	C	0.672945	0.061072	0.060568
C65	C	0.196419	-0.506202	-0.506499
C66	C	0.696419	-0.006202	-0.006499
C67	C	0.196452	-0.640741	-0.640640
C68	C	0.696452	-0.140741	-0.140640
C69	C	0.243367	-0.640737	-0.640624
C70	C	0.743367	-0.140737	-0.140624
C71	C	0.266809	-0.573465	-0.573545
C72	C	0.766809	-0.073465	-0.073545
C73	C	0.243334	-0.506198	-0.506483
C74	C	0.743334	-0.006198	-0.006483
C75	C	0.196388	-0.371644	-0.372356
C76	C	0.696388	0.128356	0.127644
C77	C	0.243309	-0.371640	-0.372354
C78	C	0.743309	0.128360	0.127646
C79	C	0.266784	-0.438914	-0.439421
C80	C	0.766784	0.061086	0.060579
C81	C	0.313691	-0.438922	-0.439387
C82	C	0.813691	0.061078	0.060613
N83	N	0.337168	-0.506184	-0.506458
N84	N	0.837168	-0.006184	-0.006458
C85	C	0.313726	-0.573456	-0.573536
C86	C	0.813726	-0.073456	-0.073536
C87	C	-0.113258	-0.438986	-0.439497
C88	C	0.386742	0.061014	0.060503
C89	C	-0.160176	-0.438996	-0.439506
C90	C	0.339824	0.061004	0.060494
C91	C	-0.160141	-0.573536	-0.573659
C92	C	0.339859	-0.073536	-0.073659
C93	C	-0.113222	-0.573531	-0.573645
C94	C	0.386778	-0.073531	-0.073645
C95	C	-0.089782	-0.506248	-0.506567
C96	C	0.410218	-0.006248	-0.006567
C97	C	0.412252	-0.573443	-0.573496
C98	C	0.912252	-0.073443	-0.073496
C99	C	0.459172	-0.573436	-0.573471
C100	C	0.959172	-0.073436	-0.073471
C101	C	0.459132	-0.438892	-0.439322
C102	C	0.959132	0.061108	0.060678
C103	C	0.412217	-0.438903	-0.439343
C104	C	0.912217	0.061097	0.060657
C105	C	0.388778	-0.506182	-0.506438
C106	C	0.888778	-0.006182	-0.006438
O107	O	0.337978	-0.381764	-0.382347
O108	O	0.837978	0.118236	0.117653
O109	O	0.338009	-0.630648	-0.630583
O110	O	0.838009	-0.130648	-0.130583
C111	C	0.126062	-0.573478	-0.573594
C112	C	0.626062	-0.073478	-0.073594
C113	C	0.102588	-0.506210	-0.506532
C114	C	0.602588	-0.006210	-0.006532
C115	C	0.126029	-0.438938	-0.439453
C116	C	0.626029	0.061062	0.060547
C117	C	0.055670	-0.506220	-0.506540
C118	C	0.555670	-0.006220	-0.006540
C119	C	0.032229	-0.573491	-0.573619
C120	C	0.532229	-0.073491	-0.073619
C121	C	0.055705	-0.640753	-0.640689
C122	C	0.555705	-0.140753	-0.140689
C123	C	0.102621	-0.640749	-0.640673
C124	C	0.602621	-0.140749	-0.140673
C125	C	0.102553	-0.371676	-0.372383
C126	C	0.602553	0.128324	0.127617
C127	C	0.055637	-0.371687	-0.372404
C128	C	0.555637	0.128313	0.127596
C129	C	0.032196	-0.438958	-0.439483
C130	C	0.532196	0.061042	0.060517
C131	C	0.766448	-0.506248	-0.506552
C132	C	1.266448	-0.006248	-0.006552
C133	C	0.816383	-0.506267	-0.506585
C134	C	1.316383	-0.006267	-0.006585
C135	C	0.649304	-0.506102	-0.780509
C136	C	1.149304	-0.006102	-0.280509
C137	C	0.649318	-0.506059	-0.897285
C138	C	1.149318	-0.006059	-0.397285
C139	C	0.649310	-0.232169	-0.506522
C140	C	1.149310	0.267831	-0.006522
C141	C	0.649327	-0.115393	-0.506542
C142	C	1.149327	0.384607	-0.006542
C143	C	0.678063	-0.438863	-0.952179
C144	C	1.178063	0.061137	-0.452179
C145	C	0.678071	-0.438818	-1.061904
C146	C	1.178071	0.061182	-0.561904
C147	C	0.620586	-0.573173	-1.061830
C148	C	1.120586	-0.073173	-0.561830
C149	C	0.620577	-0.573212	-0.952108
C150	C	1.120577	-0.073212	-0.452108
C151	C	0.649262	-0.506227	-0.233508
C152	C	1.149262	-0.006227	0.266492
C153	C	0.649335	-0.505974	-0.116732
C154	C	1.149335	-0.005974	0.383268
H155	H	0.701425	-0.906150	-0.384704
H156	H	1.201425	-0.406150	0.115296
F157	F	-0.185096	-0.645127	-0.645054
F158	F	0.314904	-0.145127	-0.145054
F159	F	0.590002	-0.644642	-1.120185
F160	F	1.090002	-0.144642	-0.620185
H161	H	0.701465	-0.384179	-0.907546
H162	H	1.201465	0.115821	-0.407546
H163	H	-0.094177	-0.384195	-0.384870
H164	H	0.405823	0.115805	0.115130
F165	F	0.589978	-0.644730	-0.893682
F166	F	1.089978	-0.144730	-0.393682
F167	F	0.708668	-1.118918	-0.367995
F168	F	1.208668	-0.618918	0.132005
F169	F	0.589991	-1.118910	-0.645104
F170	F	1.089991	-0.618910	-0.145104
F171	F	0.484089	-0.367301	-0.367935
F172	F	0.984089	0.132699	0.132065
F173	F	0.589933	-0.892407	-0.645047
F174	F	1.089933	-0.392407	-0.145047
H175	H	0.478282	-0.628222	-0.628086
H176	H	0.978282	-0.128222	-0.128086
H177	H	0.121729	-0.695530	-0.695286
H178	H	0.621729	-0.195530	-0.195286
F179	F	0.387313	-0.645048	-0.644907
F180	F	0.887313	-0.145048	-0.144907
F181	F	0.268344	-0.712335	-0.712011
F182	F	0.768344	-0.212335	-0.212011
H183	H	-0.094112	-0.628310	-0.628258
H184	H	0.405888	-0.128310	-0.128258
F185	F	0.171511	-0.712346	-0.712042
F186	F	0.671511	-0.212346	-0.212042
H187	H	0.177284	-0.316865	-0.317740
H188	H	0.677284	0.183135	0.182260
H189	H	-0.179285	-0.384225	-0.384883
H190	H	0.320715	0.115775	0.115117
H191	H	0.262392	-0.316843	-0.317737
H192	H	0.762392	0.183157	0.182263
F193	F	0.387233	-0.367319	-0.367947
F194	F	0.887233	0.132681	0.132053
F195	F	0.030749	-0.712354	-0.712075
F196	F	0.530749	-0.212354	-0.212075
H197	H	0.036529	-0.316905	-0.317780
H198	H	0.536529	0.183095	0.182220
F199	F	0.127494	-0.300070	-0.300987
F200	F	0.627494	0.199930	0.199013
F201	F	0.708669	-0.367305	-1.120321
F202	F	1.208669	0.132695	-0.620321
