data_functionalizedCrystal
_audit_creation_method	'MofGen! by Chris Wilmer'
_symmetry_space_group_name_H-M	'P1'
_symmetry_Int_Tables_number	1
_symmetry_cell_setting	triclinic
loop_
_symmetry_equiv_pos_as_xyz
  x,y,z
_cell_length_a	14.971486
_cell_length_b	10.489741
_cell_length_c	8.965430
_cell_angle_alpha	89.992413
_cell_angle_beta	90.001754
_cell_angle_gamma	84.076651
loop_
_atom_site_label
_atom_site_type_symbol
_atom_site_fract_x
_atom_site_fract_y
_atom_site_fract_z
O1	O	1.187889	0.166225	-0.123867
O2	O	0.927602	0.186131	-0.123907
O3	O	1.063668	-0.009488	-0.123877
O4	O	1.051822	0.361845	-0.123897
O5	O	1.063660	-0.009507	0.124202
O6	O	0.927594	0.186113	0.124172
O7	O	1.187881	0.166207	0.124212
Cu8	Cu	1.057737	0.176158	0.146843
Cu9	Cu	1.057746	0.176180	-0.146539
O10	O	1.051815	0.361826	0.124182
C11	C	0.894268	0.185232	0.000127
C12	C	0.794956	0.182564	0.000112
C13	C	0.738385	0.297485	0.000108
C14	C	0.645071	0.294971	0.000130
C15	C	0.608330	0.177534	0.000146
C16	C	0.664909	0.062604	0.000154
C17	C	0.758221	0.065120	0.000142
C18	C	0.470416	0.057369	0.000175
C19	C	0.377098	0.054853	0.000184
C20	C	0.357267	0.287220	0.000163
C21	C	0.450579	0.289736	0.000151
C22	C	0.507151	0.174805	0.000157
C23	C	1.062769	-0.057019	0.000161
C24	C	1.060093	-0.198617	0.000158
C25	C	0.973518	-0.265755	0.000134
C26	C	1.014411	-0.358360	0.122456
C27	C	1.014439	-0.358317	-0.122131
C28	C	1.101022	-0.289357	0.122581
C29	C	1.101038	-0.289304	-0.122115
C30	C	1.141994	-0.381882	0.000237
C31	C	1.221215	0.167106	0.000174
C32	C	1.320527	0.169774	0.000180
C33	C	1.052713	0.409357	0.000140
C34	C	1.055390	0.550955	0.000134
N35	N	1.057737	0.176142	0.353192
N36	N	1.057753	0.176186	-0.352888
C37	C	1.120170	0.084973	0.549877
C38	C	1.138986	0.199903	0.450397
C39	C	1.038961	0.061222	0.450465
C40	C	1.076610	0.291174	0.549821
C41	C	0.976548	0.152417	0.549898
C42	C	0.995331	0.267430	0.450463
H43	H	0.311201	0.380801	0.000165
H44	H	0.804281	-0.028461	0.000145
H45	H	0.480489	0.385363	0.000124
N46	N	0.968482	-0.396620	-0.251880
N47	N	0.997180	-0.373121	-0.378822
H48	H	0.964718	-0.400166	-0.470454
N49	N	0.775895	0.417457	0.000078
N50	N	0.725370	0.520055	0.000078
H51	H	0.751858	0.604790	0.000060
N52	N	1.146923	-0.251252	0.252481
N53	N	1.177597	-0.333578	0.344988
H54	H	1.210012	-0.306665	0.436732
H55	H	0.942538	0.344631	0.407088
H56	H	1.207652	0.219998	0.406691
N57	N	0.587280	0.412356	0.000163
N58	N	0.533020	0.436864	0.104761
H59	H	0.492206	0.519774	0.104798
H60	H	0.902336	-0.215280	0.000246
H61	H	0.977776	-0.388955	0.225859
N62	N	0.339581	-0.065114	0.000203
N63	N	0.390099	-0.167719	0.000223
H64	H	0.363603	-0.252449	0.000239
N65	N	0.528192	-0.060040	0.000201
N66	N	0.495379	-0.164887	0.000216
H67	H	0.536183	-0.247806	0.000232
H68	H	0.634987	-0.033015	0.000188
H69	H	1.213239	-0.432131	0.000316
N70	N	1.146953	-0.250890	-0.251850
N71	N	1.117457	-0.272601	-0.378768
H72	H	1.149879	-0.245470	-0.470406
H73	H	1.172997	0.007942	0.593524
H74	H	1.092572	0.388402	0.593283
H75	H	0.907903	0.132286	0.593637
N76	N	1.019037	-0.060725	0.395716
N77	N	1.069344	-0.159554	0.427599
H78	H	1.055280	-0.245683	0.388938
