data_functionalizedCrystal
_audit_creation_method	'MofGen! by Chris Wilmer'
_symmetry_space_group_name_H-M	'P1'
_symmetry_Int_Tables_number	1
_symmetry_cell_setting	triclinic
loop_
_symmetry_equiv_pos_as_xyz
  x,y,z
_cell_length_a	18.215407
_cell_length_b	29.839131
_cell_length_c	18.215399
_cell_angle_alpha	89.969127
_cell_angle_beta	89.980167
_cell_angle_gamma	90.041868
loop_
_atom_site_label
_atom_site_type_symbol
_atom_site_fract_x
_atom_site_fract_y
_atom_site_fract_z
Zn1	Zn	1.124987	-0.178853	-0.416101
Zn2	Zn	1.124860	-0.253982	-0.293028
Zn3	Zn	1.001920	-0.178867	-0.293048
Zn4	Zn	1.001850	-0.253957	-0.416053
O5	O	1.063404	-0.216415	-0.354558
O6	O	1.227955	-0.188823	-0.399787
O7	O	1.108528	-0.244034	-0.190047
O8	O	1.018327	-0.115998	-0.309400
O9	O	1.227861	-0.244020	-0.309366
O10	O	1.108745	-0.115987	-0.399806
O11	O	1.018204	-0.188848	-0.190061
O12	O	0.898926	-0.188824	-0.309354
O13	O	1.018209	-0.243978	-0.519044
O14	O	0.898875	-0.243992	-0.399725
O15	O	1.108677	-0.188799	-0.519079
O16	O	1.108460	-0.316846	-0.309320
O17	O	1.018086	-0.316827	-0.399705
C18	C	0.872198	-0.216407	-0.354537
C19	C	0.790399	-0.216414	-0.354545
C20	C	0.602198	-0.245186	-0.401542
C21	C	0.525339	-0.245187	-0.401551
C22	C	0.525363	-0.187652	-0.307589
C23	C	0.602220	-0.187648	-0.307584
C24	C	0.640636	-0.216418	-0.354560
C25	C	0.486920	-0.216423	-0.354574
C26	C	0.403586	-0.216424	-0.354583
C27	C	0.723975	-0.216416	-0.354551
C28	C	1.063272	-0.333137	-0.354521
C29	C	1.063282	-0.383072	-0.354530
C30	C	1.110548	-0.692712	-0.307563
C31	C	1.110639	-0.880385	-0.307591
O32	O	1.150721	-0.904647	-0.267629
N33	N	1.063557	-0.903857	-0.354613
C34	C	1.016452	-0.880407	-0.401635
O35	O	0.976414	-0.904678	-0.441636
C36	C	1.016366	-0.692735	-0.401609
C37	C	1.063446	-0.669266	-0.354579
C38	C	1.157625	-0.669243	-0.260536
C39	C	1.157599	-0.622327	-0.260527
C40	C	1.110496	-0.598881	-0.307544
C41	C	1.063420	-0.622350	-0.354570
C42	C	0.969265	-0.669287	-0.448634
C43	C	0.969249	-0.622365	-0.448625
C44	C	1.016329	-0.598896	-0.401595
C45	C	1.016291	-0.551989	-0.401577
N46	N	1.063373	-0.528517	-0.354554
C47	C	1.110476	-0.551963	-0.307538
C48	C	1.016500	-0.978938	-0.401644
C49	C	1.016521	-1.025856	-0.401649
C50	C	1.110709	-1.025830	-0.307606
C51	C	1.110684	-0.978911	-0.307598
C52	C	1.063582	-0.955466	-0.354622
C53	C	1.110417	-0.453437	-0.307521
C54	C	1.110385	-0.406518	-0.307514
C55	C	1.016200	-0.406547	-0.401559
C56	C	1.016229	-0.453463	-0.401564
C57	C	1.063344	-0.476907	-0.354543
O58	O	0.976236	-0.527698	-0.441523
O59	O	1.150520	-0.527685	-0.267554
C60	C	1.110574	-0.739627	-0.307572
C61	C	1.063498	-0.763097	-0.354598
C62	C	1.016395	-0.739651	-0.401615
C63	C	1.063518	-0.810015	-0.354604
C64	C	1.110621	-0.833461	-0.307587
C65	C	1.157703	-0.809989	-0.260565
C66	C	1.157677	-0.763074	-0.260555
C67	C	0.969313	-0.763122	-0.448637
C68	C	0.969342	-0.810038	-0.448642
C69	C	1.016445	-0.833484	-0.401625
C70	C	1.255357	-0.216423	-0.354579
C71	C	1.337156	-0.216426	-0.354589
C72	C	1.063449	-0.216384	-0.546511
C73	C	1.063468	-0.216370	-0.628310
C74	C	1.063558	-0.099236	-0.354610
C75	C	1.063623	-0.049302	-0.354633
C76	C	1.110592	-0.187612	-0.816523
C77	C	1.110601	-0.187599	-0.893382
C78	C	1.016397	-0.245059	-0.893334
C79	C	1.016385	-0.245070	-0.816477
C80	C	1.063487	-0.216347	-0.778073
C81	C	1.063507	-0.216323	-0.931789
C82	C	1.063517	-0.216309	-1.015123
C83	C	1.063477	-0.216360	-0.694734
C84	C	1.063402	-0.216413	-0.163351
C85	C	1.063526	-0.216300	-0.081553
H86	H	0.633474	-0.268610	-0.439794
C87	C	0.965331	-0.276346	-0.774763
C88	C	0.981315	-0.320794	-0.793421
C89	C	0.934307	-0.349615	-0.755001
H90	H	0.915867	-0.269828	-0.787320
H91	H	0.972076	-0.272267	-0.723483
H92	H	0.974564	-0.324871	-0.844689
H93	H	1.030770	-0.327326	-0.780862
H94	H	0.941052	-0.345536	-0.703721
H95	H	0.884846	-0.343094	-0.767561
H96	H	0.945150	-0.379777	-0.767650
C97	C	0.483739	-0.276471	-0.452588
C98	C	0.533836	-0.301671	-0.493710
C99	C	0.495541	-0.330500	-0.540728
H100	H	0.453788	-0.259362	-0.484773
H101	H	0.453739	-0.296049	-0.424397
H102	H	0.563824	-0.282096	-0.521899
H103	H	0.563788	-0.318789	-0.461544
H104	H	0.465541	-0.350077	-0.512538
H105	H	0.465591	-0.313387	-0.572909
H106	H	0.529525	-0.347604	-0.568631
H107	H	0.494076	-0.164229	-0.269342
H108	H	1.195937	-0.603221	-0.222233
H109	H	0.633517	-0.164220	-0.269325
C110	C	0.918124	-0.694678	-0.499781
C111	C	0.876893	-0.664094	-0.540966
C112	C	0.829779	-0.687467	-0.588101
H113	H	0.886011	-0.713015	-0.471695
H114	H	0.946251	-0.712939	-0.531917
H115	H	0.848768	-0.645840	-0.508834
H116	H	0.908986	-0.645757	-0.569067
H117	H	0.857906	-0.705728	-0.620237
H118	H	0.797671	-0.705803	-0.560008
H119	H	0.801803	-0.666719	-0.616055
C120	C	1.161585	-0.381118	-0.256423
C121	C	1.202854	-0.411698	-0.215267
C122	C	1.250033	-0.388318	-0.168205
H123	H	1.133526	-0.362845	-0.224261
H124	H	1.193665	-0.362793	-0.284584
H125	H	1.170778	-0.430015	-0.187108
H126	H	1.230928	-0.429972	-0.247410
H127	H	1.282113	-0.369993	-0.196365
H128	H	1.221968	-0.370046	-0.136047
H129	H	1.278045	-0.409062	-0.140280
H130	H	1.148958	-0.164199	-0.924684
H131	H	0.930894	-0.603279	-0.486920
C132	C	1.208878	-0.737677	-0.209469
C133	C	1.250142	-0.768261	-0.168315
C134	C	1.297326	-0.744886	-0.121252
H135	H	1.180823	-0.719403	-0.177305
H136	H	1.240961	-0.719354	-0.237629
H137	H	1.218063	-0.786576	-0.140157
H138	H	1.278212	-0.786536	-0.200460
H139	H	1.329409	-0.726562	-0.149413
H140	H	1.269265	-0.726612	-0.089093
H141	H	1.325334	-0.765633	-0.093329
H142	H	1.148944	-0.164223	-0.785257
C143	C	1.161454	-0.478948	-0.256437
C144	C	1.119838	-0.505942	-0.209243
C145	C	1.166828	-0.529455	-0.162184
H146	H	1.189507	-0.458301	-0.228361
H147	H	1.193500	-0.497242	-0.284609
H148	H	1.087805	-0.487650	-0.181074
H149	H	1.091787	-0.526597	-0.237299
H150	H	1.198873	-0.547749	-0.190356
H151	H	1.194878	-0.508805	-0.134113
H152	H	1.138599	-0.547776	-0.130162
C153	C	1.161883	-0.953514	-0.256511
C154	C	1.203144	-0.984095	-0.215351
C155	C	1.250326	-0.960718	-0.168288
H156	H	1.133826	-0.935238	-0.224351
H157	H	1.193967	-0.935192	-0.284672
H158	H	1.171064	-1.002409	-0.187193
H159	H	1.231216	-1.002372	-0.247492
H160	H	1.282410	-0.942396	-0.196449
H161	H	1.222263	-0.942443	-0.136134
H162	H	1.278332	-0.981463	-0.140361
C163	C	1.161875	-1.051372	-0.256692
C164	C	1.151846	-1.097483	-0.266806
C165	C	1.198998	-1.121028	-0.219953
H166	H	1.151234	-1.043782	-0.207184
H167	H	1.211310	-1.043660	-0.267570
H168	H	1.102422	-1.105192	-0.255923
H169	H	1.162492	-1.105086	-0.316304
H170	H	1.248433	-1.113316	-0.230831
H171	H	1.188353	-1.113435	-0.170448
H172	H	1.192205	-1.152316	-0.226814
H173	H	1.195985	-0.688328	-0.222250
C174	C	0.965344	-0.276229	-0.935164
C175	C	0.975450	-0.270079	-1.010703
C176	C	0.928440	-0.298790	-1.049257
H177	H	0.915873	-0.269683	-0.922652
H178	H	0.976082	-0.306425	-0.922596
H179	H	0.964707	-0.239889	-1.023265
H180	H	1.024911	-0.276628	-1.023237
H181	H	0.939178	-0.328987	-1.036689
H182	H	0.878973	-0.292242	-1.036739
H183	H	0.935296	-0.294624	-1.100514
H184	H	0.978177	-1.044960	-0.439939
H185	H	0.978143	-0.959852	-0.439938
H186	H	0.977895	-0.472573	-0.439862
C187	C	0.965144	-0.381005	-0.452578
C188	C	0.975221	-0.334894	-0.442514
C189	C	0.928212	-0.311349	-0.489511
H190	H	0.915674	-0.388672	-0.441817
H191	H	0.975902	-0.388641	-0.502052
H192	H	0.964458	-0.327261	-0.393052
H193	H	1.024680	-0.327214	-0.453281
H194	H	0.938970	-0.318985	-0.538985
H195	H	0.878745	-0.319020	-0.478746
H196	H	0.935047	-0.280061	-0.482694
H197	H	1.196053	-0.829087	-0.222280
H198	H	0.930998	-0.829142	-0.486939
H199	H	0.930957	-0.744036	-0.486924
