data_functionalizedCrystal
_audit_creation_method	'MofGen! by Chris Wilmer'
_symmetry_space_group_name_H-M	'P1'
_symmetry_Int_Tables_number	1
_symmetry_cell_setting	triclinic
loop_
_symmetry_equiv_pos_as_xyz
  x,y,z
_cell_length_a	10.723024
_cell_length_b	9.198806
_cell_length_c	10.723024
_cell_angle_alpha	89.997723
_cell_angle_beta	95.532131
_cell_angle_gamma	90.003661
loop_
_atom_site_label
_atom_site_type_symbol
_atom_site_fract_x
_atom_site_fract_y
_atom_site_fract_z
O1	O	1.657188	0.120879	-0.175025
O2	O	1.294035	0.120884	-0.191778
O3	O	1.483988	0.120876	-0.001825
O4	O	1.467235	0.120887	-0.364978
O5	O	1.483973	-0.120909	-0.001824
O6	O	1.294020	-0.120901	-0.191777
O7	O	1.657173	-0.120906	-0.175023
Cu8	Cu	1.475595	-0.142981	-0.183400
Cu9	Cu	1.475613	0.142958	-0.183402
O10	O	1.467220	-0.120898	-0.364976
C11	C	1.247528	-0.000008	-0.190558
C12	C	1.108974	-0.000007	-0.186911
N13	N	1.475592	-0.344095	-0.183398
C14	C	1.033991	-0.000002	-0.293198
C15	C	0.890788	-0.000001	-0.289431
C16	C	1.548356	-0.416291	-0.255759
C17	C	1.548376	-0.583703	-0.255758
C18	C	1.703680	-0.000011	-0.176243
C19	C	1.842234	-0.000003	-0.179891
C20	C	1.482762	-0.000015	0.044675
C21	C	1.479114	-0.000010	0.183229
N22	N	1.475626	0.344072	-0.183394
C23	C	1.468447	-0.000004	-0.411477
C24	C	1.472094	0.000000	-0.550031
C25	C	1.585401	-0.000009	0.258212
C26	C	1.581634	-0.000004	0.401415
H27	H	0.826355	0.000009	-0.380421
C28	C	0.929260	-0.000008	-0.056955
C29	C	1.022599	-0.125562	-0.028192
C30	C	1.109636	-0.125567	0.094743
C31	C	1.103334	-0.000018	0.188917
C32	C	1.009991	0.125546	0.160158
C33	C	0.922954	0.125551	0.037222
H34	H	1.027268	-0.218510	-0.097908
H35	H	1.178735	-0.218519	0.116033
H36	H	1.167764	-0.000021	0.279922
H37	H	1.005323	0.218494	0.229873
H38	H	0.853856	0.218502	0.015932
C39	C	1.632540	-0.667566	-0.339455
C40	C	1.716808	-0.584026	-0.423277
C41	C	1.800976	-0.667892	-0.506978
C42	C	1.800875	-0.835297	-0.506857
C43	C	1.716604	-0.918847	-0.423032
C44	C	1.632436	-0.834981	-0.339331
H45	H	1.716886	-0.460094	-0.423370
H46	H	1.863359	-0.606042	-0.569031
H47	H	1.863181	-0.897380	-0.568818
H48	H	1.716526	-1.042779	-0.422940
H49	H	1.570053	-0.896830	-0.277279
H50	H	1.672624	-0.000010	0.465848
C51	C	1.352407	-0.000005	0.239713
C52	C	1.259160	-0.125557	0.210470
C53	C	1.132448	-0.125552	0.266950
C54	C	1.098984	0.000004	0.352673
C55	C	1.192233	0.125565	0.381920
C56	C	1.318945	0.125560	0.325440
H57	H	1.283930	-0.218509	0.147009
H58	H	1.063419	-0.218502	0.245299
H59	H	1.005185	0.000007	0.394483
H60	H	1.167463	0.218517	0.445381
H61	H	1.387974	0.218510	0.347092
H62	H	1.413313	-0.406225	-0.121443
C63	C	1.391458	-0.572075	-0.099693
C64	C	1.408222	-0.592864	0.043442
C65	C	1.324054	-0.508999	0.127142
C66	C	1.223123	-0.404344	0.067709
C67	C	1.206355	-0.383550	-0.075433
C68	C	1.290523	-0.467415	-0.159134
H69	H	1.482941	-0.670340	0.087445
H70	H	1.336467	-0.524392	0.233106
H71	H	1.160817	-0.342262	0.129669
H72	H	1.131636	-0.306074	-0.119437
H73	H	1.278110	-0.452022	-0.265098
H74	H	1.075814	-0.000008	-0.386984
H75	H	1.067152	0.000028	-0.093125
H76	H	1.610644	-0.354161	-0.317706
H77	H	1.679187	-0.000019	0.216390
H78	H	1.381099	-0.000010	0.385544
