data_functionalizedCrystal
_audit_creation_method	'MofGen! by Chris Wilmer'
_symmetry_space_group_name_H-M	'P1'
_symmetry_Int_Tables_number	1
_symmetry_cell_setting	triclinic
loop_
_symmetry_equiv_pos_as_xyz
  x,y,z
_cell_length_a	10.723024
_cell_length_b	10.723023
_cell_length_c	17.766277
_cell_angle_alpha	89.994693
_cell_angle_beta	89.990957
_cell_angle_gamma	84.467709
loop_
_atom_site_label
_atom_site_type_symbol
_atom_site_fract_x
_atom_site_fract_y
_atom_site_fract_z
O1	O	1.657197	0.175029	-0.062588
O2	O	1.294044	0.191783	-0.062590
O3	O	1.483998	0.001830	-0.062586
O4	O	1.467243	0.364982	-0.062592
O5	O	1.483964	0.001820	0.062603
O6	O	1.294010	0.191773	0.062599
O7	O	1.657163	0.175019	0.062601
Cu8	Cu	1.475584	0.183395	0.074030
Cu9	Cu	1.475623	0.183407	-0.074019
O10	O	1.467209	0.364972	0.062597
C11	C	1.247528	0.190558	0.000004
C12	C	1.108973	0.186911	0.000003
C13	C	1.033991	0.293198	0.000001
C14	C	0.890787	0.289431	-0.000000
C15	C	1.482762	-0.044675	0.000008
C16	C	1.479114	-0.183229	0.000005
C17	C	1.477506	-0.244990	-0.064847
C18	C	1.473736	-0.388193	-0.064851
C19	C	1.703679	0.176243	0.000005
C20	C	1.842234	0.179891	0.000001
C21	C	1.468445	0.411477	0.000002
C22	C	1.472093	0.550031	-0.000001
N23	N	1.475565	0.183386	0.178161
N24	N	1.475652	0.183406	-0.178150
C25	C	1.559704	0.099317	0.217550
C26	C	1.559711	0.099311	0.296351
C27	C	1.475591	0.183396	0.335761
C28	C	1.391436	0.267472	0.296363
C29	C	1.391423	0.267467	0.217563
C30	C	1.460213	0.296909	0.460597
C31	C	1.460235	0.296915	0.539396
C32	C	1.475624	0.183411	0.578808
C33	C	1.491019	0.069896	0.539411
C34	C	1.491006	0.069891	0.460610
C35	C	1.475595	0.183410	0.421207
C36	C	1.559776	0.099329	0.703642
C37	C	1.559775	0.099322	0.782446
C38	C	1.391505	0.267493	0.782456
C39	C	1.391501	0.267490	0.703654
C40	C	1.475643	0.183409	0.664252
H41	H	1.075812	0.386984	0.000003
H42	H	0.906659	0.088896	-0.000001
Br43	Br	1.471446	-0.476710	-0.157398
H44	H	1.628286	0.030861	0.671560
Br45	Br	1.277328	0.381597	0.835934
Br46	Br	0.783403	0.441098	-0.000013
H47	H	1.067152	0.093125	-0.000015
Br48	Br	1.479890	-0.156433	-0.157389
Br49	Br	1.474413	-0.361463	0.092549
H50	H	1.477693	-0.236370	0.055525
Br51	Br	1.673889	-0.014793	0.164075
Br52	Br	1.673908	-0.014795	0.349817
Br53	Br	1.511885	-0.084157	0.407145
Br54	Br	1.511922	-0.084156	0.592887
H55	H	1.628287	0.030856	0.814517
Br56	Br	1.277311	0.381593	0.650192
H57	H	1.447708	0.389346	0.571467
Br58	Br	1.439450	0.450969	0.407118
H59	H	1.322942	0.335933	0.328454
H60	H	1.322905	0.335927	0.185492
