data_functionalizedCrystal
_audit_creation_method	'MofGen! by Chris Wilmer'
_symmetry_space_group_name_H-M	'P1'
_symmetry_Int_Tables_number	1
_symmetry_cell_setting	triclinic
loop_
_symmetry_equiv_pos_as_xyz
  x,y,z
_cell_length_a	13.033291
_cell_length_b	13.033915
_cell_length_c	12.759393
_cell_angle_alpha	82.792275
_cell_angle_beta	82.789850
_cell_angle_gamma	89.100621
loop_
_atom_site_label
_atom_site_type_symbol
_atom_site_fract_x
_atom_site_fract_y
_atom_site_fract_z
Zn1	Zn	1.624468	-0.209847	-0.775060
Zn2	Zn	1.646228	-0.381863	-0.580220
Zn3	Zn	1.452476	-0.231724	-0.574602
Zn4	Zn	1.474311	-0.403596	-0.731092
O5	O	1.549371	-0.306757	-0.665244
O6	O	1.771282	-0.214415	-0.769965
O7	O	1.620494	-0.362008	-0.432442
O8	O	1.457047	-0.084904	-0.617243
O9	O	1.787268	-0.340794	-0.626817
O10	O	1.583409	-0.068831	-0.764518
O11	O	1.478146	-0.251701	-0.428315
O12	O	1.311446	-0.272774	-0.574609
O13	O	1.494261	-0.377834	-0.883958
O14	O	1.327488	-0.399047	-0.689582
O15	O	1.604581	-0.235488	-0.916260
O16	O	1.641667	-0.528664	-0.584184
O17	O	1.515360	-0.544631	-0.695029
C18	C	1.282148	-0.340643	-0.626716
C19	C	1.167832	-0.355165	-0.610255
C20	C	0.990819	-0.314203	-0.656829
C21	C	1.108971	-0.299197	-0.673840
C22	C	1.583272	-0.573961	-0.635472
C23	C	1.597869	-0.688259	-0.622784
C24	C	1.556908	-0.865294	-0.658787
C25	C	1.541827	-0.747159	-0.671910
C26	C	1.817637	-0.272740	-0.703922
C27	C	1.931956	-0.258244	-0.720405
C28	C	1.549430	-0.306645	-0.939299
C29	C	1.549455	-0.306596	-1.056085
C30	C	1.515365	-0.038507	-0.695159
C31	C	1.500874	0.075805	-0.707907
C32	C	1.606907	-0.232469	-1.127771
C33	C	1.606926	-0.232429	-1.237503
C34	C	1.492041	-0.380652	-1.203852
C35	C	1.492016	-0.380687	-1.094122
C36	C	1.673239	-0.146896	-1.147200
C37	C	1.673258	-0.146856	-1.256932
C38	C	1.549362	-0.306788	-0.392271
C39	C	1.549499	-0.306521	-0.275547
H40	H	0.969032	-0.199221	-0.787425
H41	H	1.657010	-0.725284	-0.571010
C42	C	1.441069	-0.446415	-1.357119
C43	C	1.428916	-0.462098	-1.245667
H44	H	1.402103	-0.496704	-1.382929
H45	H	1.417258	-0.379227	-1.380636
H46	H	1.512089	-0.452698	-1.383376
H47	H	1.357896	-0.455807	-1.219409
H48	H	1.452721	-0.529303	-1.222140
H49	H	0.953742	-0.373217	-0.589801
H50	H	1.616042	-0.902325	-0.607014
C51	C	1.010440	-0.434300	-0.520433
C52	C	1.117800	-0.434851	-0.519771
H53	H	0.979555	-0.483501	-0.464578
H54	H	0.984106	-0.367408	-0.510353
H55	H	0.994850	-0.451636	-0.586815
H56	H	1.133390	-0.417508	-0.453392
H57	H	1.144143	-0.501759	-0.529844
H58	H	1.146042	-0.240170	-0.740865
C59	C	1.363435	-0.736092	-0.701492
C60	C	1.461986	-0.697186	-0.741803
H61	H	1.314148	-0.705234	-0.744639
H62	H	1.363103	-0.808914	-0.701848
H63	H	1.346213	-0.720497	-0.630654
H64	H	1.479212	-0.712788	-0.812639
H65	H	1.462321	-0.624347	-0.741458
H66	H	1.441732	-0.887166	-0.759670
C67	C	1.605070	0.019986	-1.204963
C68	C	1.630795	-0.043040	-1.114838
H69	H	1.578860	0.084096	-1.184980
H70	H	1.664971	0.031995	-1.255515
H71	H	1.553917	-0.013388	-1.235504
H72	H	1.681953	-0.009670	-1.084301
H73	H	1.570886	-0.055047	-1.064268
C74	C	1.851862	-0.171267	-1.231522
C75	C	1.784446	-0.162022	-1.309434
H76	H	1.920499	-0.180637	-1.263936
H77	H	1.848532	-0.110295	-1.197536
H78	H	1.832283	-0.229152	-1.180266
H79	H	1.804020	-0.104132	-1.360687
H80	H	1.787780	-0.223001	-1.343437
C81	C	1.378436	-0.527175	-1.071886
C82	C	1.428844	-0.462155	-1.015323
H83	H	1.339436	-0.577472	-1.023236
H84	H	1.333440	-0.487330	-1.114020
H85	H	1.428249	-0.560831	-1.116750
H86	H	1.379031	-0.428493	-0.970464
H87	H	1.473844	-0.502005	-0.973170
H88	H	1.752513	-0.165850	-1.120889
H89	H	1.635139	-0.074798	-1.295295
