data_functionalizedCrystal
_audit_creation_method	'MofGen! by Chris Wilmer'
_symmetry_space_group_name_H-M	'P1'
_symmetry_Int_Tables_number	1
_symmetry_cell_setting	triclinic
loop_
_symmetry_equiv_pos_as_xyz
  x,y,z
_cell_length_a	13.339070
_cell_length_b	9.065215
_cell_length_c	7.540329
_cell_angle_alpha	90.002218
_cell_angle_beta	89.998761
_cell_angle_gamma	79.677971
loop_
_atom_site_label
_atom_site_type_symbol
_atom_site_fract_x
_atom_site_fract_y
_atom_site_fract_z
O1	O	0.148875	-2.018450	-0.147446
O2	O	0.161090	-1.593927	-0.147455
O3	O	0.007273	-1.757467	-0.147446
O4	O	0.302692	-1.854910	-0.147455
O5	O	0.007271	-1.757453	0.147519
O6	O	0.161088	-1.593913	0.147510
O7	O	0.148873	-2.018435	0.147519
Cu8	Cu	0.154980	-1.806173	0.174447
Cu9	Cu	0.154983	-1.806190	-0.174383
O10	O	0.302690	-1.854896	0.147510
C11	C	0.159916	-1.538476	0.000026
C12	C	0.156407	-1.373265	0.000023
C13	C	-0.030568	-1.741000	0.000034
C14	C	-0.143319	-1.691937	0.000025
C15	C	-0.504619	-2.073427	0.000035
C16	C	-0.398684	-2.119530	0.000052
C17	C	-0.334838	-2.012635	0.000045
C18	C	-0.376937	-1.859631	0.000021
C19	C	-0.482882	-1.813524	0.000017
C20	C	-0.313101	-1.752732	0.000028
C21	C	-0.355199	-1.599728	0.000004
C22	C	-0.461134	-1.553629	-0.000001
C23	C	-0.524981	-1.660523	0.000006
C24	C	-0.207155	-1.798839	0.000031
C25	C	-0.185418	-1.538935	0.000014
C26	C	-0.291353	-1.492833	-0.000004
C27	C	0.340531	-1.871363	0.000027
C28	C	0.453282	-1.920426	0.000023
C29	C	0.150047	-1.073887	0.000033
C30	C	0.153555	-1.239098	0.000022
N31	N	0.154978	-1.806172	0.419796
N32	N	0.154977	-1.806200	-0.419731
H33	H	-0.172890	-1.923415	0.000051
O34	O	-0.123367	-1.435141	-0.000314
C35	C	0.008906	-1.336433	-0.153084
C36	C	-0.061330	-1.454022	-0.152959
H37	H	0.059096	-1.351677	-0.276465
H38	H	-0.039330	-1.219122	-0.153202
H39	H	0.059000	-1.351512	-0.029586
H40	H	-0.111437	-1.439082	-0.276436
H41	H	-0.013035	-1.571288	-0.152749
O42	O	-0.502147	-1.405045	-0.000252
C43	C	-0.609080	-1.202154	-0.153143
C44	C	-0.562724	-1.370454	-0.153056
H45	H	-0.658049	-1.174129	-0.276690
H46	H	-0.658205	-1.174006	-0.029788
H47	H	-0.545235	-1.133708	-0.153065
H48	H	-0.626503	-1.439014	-0.153196
H49	H	-0.513573	-1.398484	-0.276400
H50	H	-0.325645	-1.368254	-0.000022
H51	H	-0.364416	-2.244105	0.000074
O52	O	-0.231949	-2.057602	0.000289
C53	C	-0.085885	-2.194982	0.153165
C54	C	-0.202421	-2.144178	0.153098
H55	H	-0.061973	-2.264962	0.276717
H56	H	-0.061894	-2.265206	0.029815
H57	H	-0.047506	-2.092282	0.153063
H58	H	-0.240883	-2.246791	0.153263
H59	H	-0.226337	-2.073903	0.276438
H60	H	-0.556612	-2.160444	0.000055
H61	H	-0.611243	-1.622994	-0.000015
