data_functionalizedCrystal
_audit_creation_method	'MofGen! by Chris Wilmer'
_symmetry_space_group_name_H-M	'P1'
_symmetry_Int_Tables_number	1
_symmetry_cell_setting	triclinic
loop_
_symmetry_equiv_pos_as_xyz
  x,y,z
_cell_length_a	16.109301
_cell_length_b	12.503552
_cell_length_c	16.109301
_cell_angle_alpha	93.517221
_cell_angle_beta	96.538519
_cell_angle_gamma	93.519472
loop_
_atom_site_label
_atom_site_type_symbol
_atom_site_fract_x
_atom_site_fract_y
_atom_site_fract_z
O1	O	1.107930	0.089256	-0.102063
O2	O	1.607930	0.589256	0.397937
O3	O	0.865869	0.089273	-0.115362
O4	O	1.365869	0.589273	0.384638
O5	O	0.993548	0.089253	0.012318
O6	O	1.493548	0.589253	0.512318
O7	O	0.980250	0.089276	-0.229743
O8	O	1.480250	0.589276	0.270257
O9	O	0.983935	-0.089388	0.002707
O10	O	1.483935	0.410612	0.502707
O11	O	0.856255	-0.089368	-0.124972
O12	O	1.356255	0.410632	0.375028
O13	O	1.098316	-0.089385	-0.111674
O14	O	1.598316	0.410615	0.388326
Cu15	Cu	0.976408	-0.105688	-0.119201
Cu16	Cu	1.476408	0.394312	0.380799
Cu17	Cu	0.987777	0.105576	-0.107835
Cu18	Cu	1.487777	0.605576	0.392165
O19	O	0.970637	-0.089365	-0.239354
O20	O	1.470637	0.410635	0.260646
C21	C	0.830087	-0.000045	-0.119628
C22	C	1.330087	0.499955	0.380372
C23	C	0.737792	-0.000039	-0.118013
C24	C	1.237792	0.499961	0.381987
N25	N	0.968418	-0.254279	-0.127194
N26	N	1.468418	0.245721	0.372806
C27	C	0.515519	-0.000044	-0.190021
C28	C	1.015519	0.499956	0.309979
C29	C	0.428799	-0.000051	-0.188497
C30	C	0.928799	0.499949	0.311503
C31	C	0.448672	-0.000061	-0.037009
C32	C	0.948672	0.499939	0.462991
C33	C	0.535391	-0.000062	-0.038534
C34	C	1.035391	0.499938	0.461466
C35	C	0.568812	-0.000048	-0.115042
C36	C	1.068812	0.499952	0.384958
C37	C	0.395373	-0.000054	-0.111993
C38	C	0.895373	0.499946	0.388007
C39	C	0.301346	-0.000062	-0.110341
C40	C	0.801346	0.499938	0.389659
C41	C	0.662845	-0.000042	-0.116695
C42	C	1.162845	0.499958	0.383305
C43	C	1.007523	-0.526718	-0.088073
C44	C	1.507523	-0.026718	0.411927
C45	C	0.956671	-0.473386	-0.138953
C46	C	1.456671	0.026614	0.361047
C47	C	0.963209	-0.351464	-0.132409
C48	C	1.463209	0.148536	0.367591
C49	C	1.000987	-0.648652	-0.094617
C50	C	1.500987	-0.148652	0.405383
C51	C	1.134098	-0.000064	-0.107407
C52	C	1.634098	0.499936	0.392593
C53	C	1.226393	-0.000064	-0.109022
C54	C	1.726393	0.499936	0.390978
C55	C	0.988203	-0.000068	0.038487
C56	C	1.488203	0.499932	0.538487
C57	C	0.986587	-0.000069	0.130783
C58	C	1.486587	0.499931	0.630783
N59	N	0.995774	0.254168	-0.099835
N60	N	1.495774	0.754168	0.400165
C61	C	0.975982	-0.000042	-0.265523
C62	C	1.475982	0.499958	0.234477
C63	C	0.977598	-0.000033	-0.357818
C64	C	1.477598	0.499967	0.142182
C65	C	1.058596	-0.000057	0.353056
C66	C	1.558596	0.499943	0.853056
C67	C	1.057072	-0.000048	0.439777
C68	C	1.557072	0.499952	0.939777
C69	C	0.905584	-0.000042	0.419903
C70	C	1.405584	0.499958	0.919903
C71	C	0.907109	-0.000043	0.333184
C72	C	1.407109	0.499957	0.833184
C73	C	0.983617	-0.000056	0.299763
C74	C	1.483617	0.499944	0.799763
C75	C	0.980568	-0.000046	0.473202
C76	C	1.480568	0.499954	0.973202
C77	C	0.978916	-0.000036	0.567229
C78	C	1.478916	0.499964	1.067229
C79	C	0.985270	-0.000064	0.205730
C80	C	1.485270	0.499936	0.705730
H81	H	0.542727	-0.000041	-0.252319
H82	H	1.042727	0.499959	0.247681
C83	C	1.032252	-0.400061	0.031747
C84	C	1.532252	0.099939	0.531747
C85	C	1.072935	-0.464739	-0.022660
C86	C	1.572935	0.035261	0.477340
H87	H	1.072640	-0.361781	0.072119
H88	H	1.572640	0.138219	0.572119
H89	H	0.995342	-0.443928	0.059347
H90	H	1.495342	0.056072	0.559347
H91	H	1.001193	-0.350596	0.000673
H92	H	1.501193	0.149404	0.500673
H93	H	1.103990	-0.514210	0.008414
H94	H	1.603990	-0.014210	0.508414
H95	H	1.109860	-0.420868	-0.050262
H96	H	1.609860	0.079132	0.449738
H97	H	0.908226	-0.519294	-0.187428
H98	H	1.408226	-0.019294	0.312572
H99	H	1.118128	-0.000047	0.483165
H100	H	1.618128	0.499953	0.983165
C101	C	0.677152	-0.000070	0.026391
C102	C	1.177152	0.499930	0.526391
C103	C	0.593979	-0.000065	0.043889
C104	C	1.093979	0.499935	0.543889
H105	H	0.713319	-0.000082	0.077273
H106	H	1.213319	0.499918	0.577273
H107	H	0.690625	0.062223	-0.001625
H108	H	1.190625	0.562223	0.498375
H109	H	0.683918	-0.062369	-0.008332
H110	H	1.183918	0.437631	0.491668
H111	H	0.587211	0.062238	0.078607
H112	H	1.087211	0.562238	0.578607
H113	H	0.580502	-0.062365	0.071918
H114	H	1.080502	0.437635	0.571918
H115	H	1.120894	-0.000066	0.325847
H116	H	1.620894	0.499934	0.825847
C117	C	0.417872	-0.000025	-0.338386
C118	C	0.917872	0.499975	0.161614
C119	C	0.370219	-0.000040	-0.270916
C120	C	0.870219	0.499960	0.229084
H121	H	0.381706	-0.000012	-0.389269
H122	H	0.881706	0.499988	0.110731
H123	H	0.448758	-0.062317	-0.339183
H124	H	0.948758	0.437683	0.160817
H125	H	0.455460	0.062276	-0.332470
H126	H	0.955460	0.562276	0.167530
H127	H	0.332635	-0.062345	-0.276829
H128	H	0.832635	0.437655	0.223171
H129	H	0.339319	0.062258	-0.270121
H130	H	0.839319	0.562258	0.229879
C131	C	0.835981	-0.000050	0.544012
C132	C	1.335981	0.499950	1.044012
C133	C	0.821488	-0.000043	0.456642
C134	C	1.321488	0.499957	0.956642
H135	H	0.784061	-0.000061	0.566689
H136	H	1.284061	0.499939	1.066689
H137	H	0.870194	0.062242	0.565650
H138	H	1.370194	0.562242	1.065650
H139	H	0.863505	-0.062350	0.558948
H140	H	1.363505	0.437650	1.058948
H141	H	0.793969	0.062262	0.441705
H142	H	1.293969	0.562262	0.941705
H143	H	0.787261	-0.062342	0.434996
H144	H	1.287261	0.437658	0.934996
C145	C	0.783391	0.091790	0.294479
C146	C	1.283391	0.591790	0.794479
C147	C	0.824684	-0.000043	0.274599
C148	C	1.324684	0.499957	0.774599
H149	H	0.732506	0.091787	0.258314
H150	H	1.232506	0.591787	0.758314
H151	H	0.818113	0.154072	0.287694
H152	H	1.318113	0.654072	0.787694
H153	H	0.771538	0.091777	0.350910
H154	H	1.271538	0.591777	0.850910
H155	H	0.836543	-0.000026	0.218169
H156	H	1.336543	0.499974	0.718169
H157	H	0.789954	-0.062341	0.281376
H158	H	1.289954	0.437659	0.781376
C159	C	0.324563	-0.000053	0.032594
C160	C	0.824563	0.499947	0.532594
C161	C	0.411933	-0.000062	0.047087
C162	C	0.911933	0.499938	0.547087
H163	H	0.301886	-0.000045	0.084514
H164	H	0.801886	0.499955	0.584514
H165	H	0.302923	-0.062344	-0.001619
H166	H	0.802923	0.437656	0.498381
H167	H	0.309629	0.062248	0.005070
H168	H	0.809629	0.562248	0.505070
H169	H	0.426867	-0.062368	0.074606
H170	H	0.926867	0.437632	0.574606
H171	H	0.433581	0.062235	0.081314
H172	H	0.933581	0.562235	0.581314
