data_functionalizedCrystal
_audit_creation_method	'MofGen! by Chris Wilmer'
_symmetry_space_group_name_H-M	'P1'
_symmetry_Int_Tables_number	1
_symmetry_cell_setting	triclinic
loop_
_symmetry_equiv_pos_as_xyz
  x,y,z
_cell_length_a	19.077212
_cell_length_b	13.031981
_cell_length_c	19.076919
_cell_angle_alpha	84.787276
_cell_angle_beta	89.885058
_cell_angle_gamma	99.167303
loop_
_atom_site_label
_atom_site_type_symbol
_atom_site_fract_x
_atom_site_fract_y
_atom_site_fract_z
Zn1	Zn	1.027259	-0.379268	-0.406872
Zn2	Zn	1.527259	0.120732	0.093128
Zn3	Zn	1.018199	-0.546697	-0.274483
Zn4	Zn	1.518199	-0.046697	0.225517
Zn5	Zn	0.914519	-0.378718	-0.284696
Zn6	Zn	1.414519	0.121282	0.215304
Zn7	Zn	0.894878	-0.560632	-0.385977
Zn8	Zn	1.394878	-0.060632	0.114023
O9	O	0.963714	-0.466329	-0.338007
O10	O	1.463714	0.033671	0.161993
O11	O	1.124849	-0.395876	-0.393780
O12	O	1.624849	0.104124	0.106220
O13	O	1.008874	-0.518351	-0.178046
O14	O	1.508874	-0.018351	0.321954
O15	O	0.941486	-0.232590	-0.313922
O16	O	1.441486	0.267410	0.186078
O17	O	1.118193	-0.518885	-0.296515
O18	O	1.618193	-0.018885	0.203485
O19	O	1.024315	-0.232994	-0.403684
O20	O	1.524315	0.267006	0.096316
O21	O	0.932701	-0.394938	-0.185550
O22	O	1.432701	0.105062	0.314450
O23	O	0.813122	-0.408451	-0.293661
O24	O	1.313122	0.091549	0.206339
O25	O	0.908010	-0.542636	-0.486541
O26	O	1.408010	-0.042636	0.013459
O27	O	0.798691	-0.542103	-0.368072
O28	O	1.298691	-0.042103	0.131928
O29	O	1.005270	-0.409389	-0.501892
O30	O	1.505270	0.090611	-0.001892
O31	O	0.989829	-0.694746	-0.276254
O32	O	1.489829	-0.194746	0.223746
O33	O	0.899225	-0.704985	-0.358169
O34	O	1.399225	-0.204985	0.141831
C35	C	0.780291	-0.476730	-0.329708
C36	C	1.280291	0.023270	0.170292
C37	C	0.701819	-0.481206	-0.326172
C38	C	1.201819	0.018794	0.173828
C39	C	0.941431	-0.737774	-0.313852
C40	C	1.441431	-0.237774	0.186148
C41	C	0.931962	-0.853897	-0.303545
C42	C	1.431962	-0.353897	0.196455
C43	C	0.259732	-0.513267	-0.300848
C44	C	0.759732	-0.013267	0.199152
C45	C	0.333465	-0.509055	-0.304165
C46	C	0.833465	-0.009055	0.195835
C47	C	0.373787	-0.443019	-0.356528
C48	C	0.873787	0.056981	0.143472
C49	C	0.340373	-0.381183	-0.405572
C50	C	0.840373	0.118817	0.094428
C51	C	0.266641	-0.385390	-0.402251
C52	C	0.766641	0.114610	0.097749
C53	C	0.594673	-0.423577	-0.371895
C54	C	1.094673	0.076423	0.128105
C55	C	0.668409	-0.419377	-0.375214
C56	C	1.168409	0.080623	0.124786
C57	C	0.661496	-0.547249	-0.273806
C58	C	1.161496	-0.047249	0.226194
C59	C	0.587763	-0.551454	-0.270492
C60	C	1.087763	-0.051454	0.229508
C61	C	0.554356	-0.489614	-0.319533
C62	C	1.054356	0.010386	0.180467
N63	N	0.449155	-0.438715	-0.359922
N64	N	0.949155	0.061285	0.140078
N65	N	0.478990	-0.493913	-0.316136
N66	N	0.978990	0.006087	0.183864
C67	C	0.968693	-0.905789	-0.343402
C68	C	1.468693	-0.405789	0.156598
C69	C	0.958907	-1.025808	-0.332750
C70	C	1.458907	-0.525808	0.167250
C71	C	1.147853	-0.455887	-0.346339
C72	C	1.647853	0.044113	0.153661
C73	C	1.226322	-0.451438	-0.349889
C74	C	1.726322	0.048562	0.150111
C75	C	0.955459	-0.477628	-0.520282
C76	C	1.455459	0.022372	-0.020282
C77	C	0.951942	-0.482443	-0.597956
C78	C	1.451942	0.017557	-0.097956
C79	C	0.986102	-0.193823	-0.362273
C80	C	1.486102	0.306177	0.137727
C81	C	0.995643	-0.077698	-0.372613
C82	C	1.495643	0.422302	0.127387
C83	C	1.000925	-0.415334	-0.642441
C84	C	1.500925	0.084666	-0.142441
C85	C	0.997612	-0.419855	-0.715425
C86	C	1.497612	0.080145	-0.215425
C87	C	0.945318	-0.491491	-0.743921
C88	C	1.445318	0.008509	-0.243921
C89	C	0.896330	-0.558604	-0.699431
C90	C	1.396330	-0.058604	-0.199431
C91	C	0.899641	-0.554077	-0.626449
C92	C	1.399641	-0.054077	-0.126449
C93	C	0.929984	-0.512464	-0.961336
C94	C	1.429984	-0.012464	-0.461336
C95	C	0.926678	-0.516988	-1.034323
C96	C	1.426678	-0.016988	-0.534323
C97	C	1.027959	-0.378237	-1.050312
C98	C	1.527959	0.121763	-0.550312
C99	C	1.031268	-0.373721	-0.977328
C100	C	1.531268	0.126279	-0.477328
C101	C	0.982278	-0.440829	-0.932844
C102	C	1.482278	0.059171	-0.432844
N103	N	0.941931	-0.496116	-0.818522
N104	N	1.441931	0.003884	-0.318522
N105	N	0.985662	-0.436199	-0.858245
N106	N	1.485662	0.063801	-0.358245
C107	C	0.971983	-0.454995	-0.156450
C108	C	1.471983	0.045005	0.343550
C109	C	0.975661	-0.449878	-0.078808
C110	C	1.475661	0.050122	0.421192
H111	H	0.360664	-0.559402	-0.264229
H112	H	0.860664	-0.059402	0.235771
H113	H	0.567481	-0.373227	-0.411831
H114	H	1.067481	0.126773	0.088169
C115	C	1.131123	-0.348671	-0.900820
C116	C	1.631123	0.151329	-0.400820
C117	C	1.088721	-0.294949	-0.945991
C118	C	1.588721	0.205051	-0.445991
H119	H	1.166587	-0.300032	-0.881474
H120	H	1.666587	0.199968	-0.381474
H121	H	1.102421	-0.388006	-0.863897
H122	H	1.602421	0.111994	-0.363897
H123	H	1.153126	-0.394396	-0.926462
H124	H	1.653126	0.105604	-0.426462
H125	H	1.066714	-0.249228	-0.920349
H126	H	1.566714	0.250772	-0.420349
H127	H	1.117427	-0.255596	-0.982921
H128	H	1.617427	0.244404	-0.482921
C129	C	0.180655	-0.381660	-0.493802
C130	C	0.680655	0.118340	0.006198
C131	C	0.229912	-0.317429	-0.456159
C132	C	0.729912	0.182571	0.043841
H133	H	0.157978	-0.339698	-0.527079
H134	H	0.657978	0.160302	-0.027079
H135	H	0.204479	-0.427244	-0.517723
H136	H	0.704479	0.072756	-0.017723
H137	H	0.146094	-0.421586	-0.462133
H138	H	0.646094	0.078414	0.037867
H139	H	0.264475	-0.277508	-0.487828
H140	H	0.764475	0.222492	0.012172
H141	H	0.206087	-0.271826	-0.432238
H142	H	0.706087	0.228174	0.067762
C143	C	0.900280	-0.882424	-0.180644
C144	C	1.400280	-0.382424	0.319356
C145	C	0.879726	-0.913859	-0.246831
C146	C	1.379726	-0.413859	0.253169
H147	H	0.868028	-0.919437	-0.145633
H148	H	1.368028	-0.419437	0.354367
H149	H	0.946738	-0.896882	-0.171040
H150	H	1.446738	-0.396882	0.328960
H151	H	0.900003	-0.809634	-0.180370
H152	H	1.400003	-0.309634	0.319630
H153	H	0.880009	-0.986648	-0.247107
H154	H	1.380009	-0.486648	0.252893
H155	H	0.833256	-0.899409	-0.256438
H156	H	1.333256	-0.399409	0.243562
H157	H	1.007382	-0.861365	-0.385415
H158	H	1.507382	-0.361365	0.114585
C159	C	0.165740	-0.657905	-0.274741
C160	C	0.665740	-0.157905	0.225259
C161	C	0.215413	-0.585860	-0.243289
C162	C	0.715413	-0.085860	0.256711
H163	H	0.138385	-0.702724	-0.239203
H164	H	0.638385	-0.202724	0.260797
H165	H	0.135291	-0.621686	-0.303466
H166	H	0.635291	-0.121686	0.196534
H167	H	0.189860	-0.698179	-0.302875
H168	H	0.689860	-0.198179	0.197125
H169	H	0.191293	-0.545581	-0.215159
H170	H	0.691293	-0.045581	0.284841
H171	H	0.245866	-0.622083	-0.214552
H172	H	0.745866	-0.122083	0.285448
H173	H	1.067843	-0.323600	-1.086538
H174	H	1.567843	0.176400	-0.586538
C175	C	0.829528	-0.650043	-0.952875
C176	C	1.329528	-0.150043	-0.452875
C177	C	0.876127	-0.586216	-0.912447
C178	C	1.376127	-0.086216	-0.412447
H179	H	0.796278	-0.695575	-0.922689
H180	H	1.296278	-0.195575	-0.422689
H181	H	0.804989	-0.607812	-0.984178
H182	H	1.304989	-0.107812	-0.484178
H183	H	0.855717	-0.690043	-0.979167
H184	H	1.355717	-0.190043	-0.479167
H185	H	0.849938	-0.546211	-0.886158
H186	H	1.349938	-0.046211	-0.386158
H187	H	0.900668	-0.628453	-0.881131
H188	H	1.400668	-0.128453	-0.381131
C189	C	0.838182	-1.064454	-0.290211
C190	C	1.338182	-0.564454	0.209789
C191	C	0.906668	-1.085768	-0.276035
C192	C	1.406668	-0.585768	0.223965
H193	H	0.805933	-1.101477	-0.255200
H194	H	1.305933	-0.601477	0.244800
H195	H	0.837911	-0.991674	-0.289924
H196	H	1.337911	-0.491674	0.210076
H197	H	0.824252	-1.085774	-0.335118
H198	H	1.324252	-0.585774	0.164882
H199	H	0.920600	-1.064441	-0.231129
H200	H	1.420600	-0.564441	0.268871
H201	H	0.906941	-1.158565	-0.276314
H202	H	1.406941	-0.658565	0.223686
C203	C	0.784505	-0.356159	-0.425332
C204	C	1.284505	0.143841	0.074668
C205	C	0.712734	-0.346781	-0.432773
C206	C	1.212734	0.153219	0.067227
H207	H	0.811867	-0.311349	-0.460869
H208	H	1.311867	0.188651	0.039131
H209	H	0.799961	-0.337162	-0.380314
H210	H	1.299961	0.162838	0.119686
H211	H	0.790360	-0.426324	-0.429780
H212	H	1.290360	0.073676	0.070220
H213	H	0.706878	-0.276617	-0.428320
H214	H	1.206878	0.223383	0.071680
H215	H	0.697274	-0.365771	-0.477802
H216	H	1.197274	0.134229	0.022198
C217	C	1.047466	-0.910450	-0.428906
C218	C	1.547466	-0.410450	0.071094
C219	C	1.047880	-1.017740	-0.429330
C220	C	1.547880	-0.517740	0.070670
H221	H	1.079718	-0.873437	-0.463918
H222	H	1.579718	-0.373437	0.036082
H223	H	1.001006	-0.896007	-0.438517
H224	H	1.501006	-0.396007	0.061483
H225	H	1.061406	-0.889142	-0.383998
H226	H	1.561406	-0.389142	0.116002
H227	H	1.033936	-1.039049	-0.474237
H228	H	1.533936	-0.539049	0.025763
H229	H	1.094350	-1.032190	-0.419724
H230	H	1.594350	-0.532190	0.080276
H231	H	0.554937	-0.605227	-0.227851
H232	H	1.054937	-0.105227	0.272149
H233	H	0.373210	-0.327410	-0.448205
H234	H	0.873210	0.172590	0.051795
H235	H	0.853749	-0.616928	-0.722639
H236	H	1.353749	-0.116928	-0.222639
C237	C	1.100698	-0.278633	-0.665584
C238	C	1.600698	0.221367	-0.165584
C239	C	1.058407	-0.336586	-0.611121
C240	C	1.558407	0.163414	-0.111121
H241	H	1.136181	-0.230010	-0.646249
H242	H	1.636181	0.269990	-0.146249
H243	H	1.122671	-0.324386	-0.691217
H244	H	1.622671	0.175614	-0.191217
H245	H	1.071921	-0.242185	-0.696215
H246	H	1.571921	0.257815	-0.196215
H247	H	1.087183	-0.373040	-0.580493
H248	H	1.587183	0.126960	-0.080493
H249	H	1.036433	-0.290826	-0.585477
H250	H	1.536433	0.209174	-0.085477
H251	H	1.037500	-0.365210	-0.751642
H252	H	1.537500	0.134790	-0.251642
C253	C	0.799215	-0.691707	-0.617969
C254	C	1.299215	-0.191707	-0.117969
C255	C	0.845808	-0.627863	-0.577547
C256	C	1.345808	-0.127863	-0.077547
H257	H	0.765984	-0.737266	-0.587778
H258	H	1.265984	-0.237266	-0.087778
H259	H	0.774652	-0.649489	-0.649258
H260	H	1.274652	-0.149489	-0.149258
H261	H	0.825411	-0.731677	-0.644277
H262	H	1.325411	-0.231677	-0.144277
H263	H	0.819613	-0.587887	-0.551243
H264	H	1.319613	-0.087887	-0.051243
H265	H	0.870373	-0.670086	-0.546246
H266	H	1.370373	-0.170086	-0.046246
H267	H	0.688705	-0.597595	-0.233878
H268	H	1.188705	-0.097595	0.266122
H269	H	0.884092	-0.575325	-1.057522
H270	H	1.384092	-0.075325	-0.557522
