data_functionalizedCrystal
_audit_creation_method	'MofGen! by Chris Wilmer'
_symmetry_space_group_name_H-M	'P1'
_symmetry_Int_Tables_number	1
_symmetry_cell_setting	triclinic
loop_
_symmetry_equiv_pos_as_xyz
  x,y,z
_cell_length_a	21.295418
_cell_length_b	21.295411
_cell_length_c	12.759394
_cell_angle_alpha	89.985231
_cell_angle_beta	90.030652
_cell_angle_gamma	89.956262
loop_
_atom_site_label
_atom_site_type_symbol
_atom_site_fract_x
_atom_site_fract_y
_atom_site_fract_z
Zn1	Zn	0.962424	-0.356264	-0.417943
Zn2	Zn	0.962355	-0.251002	-0.593608
Zn3	Zn	0.857147	-0.250974	-0.417992
Zn4	Zn	0.857146	-0.356198	-0.593629
O5	O	0.909768	-0.303609	-0.505793
O6	O	1.050505	-0.342340	-0.441216
O7	O	0.948371	-0.162909	-0.570324
O8	O	0.871142	-0.264956	-0.270964
O9	O	1.050454	-0.265004	-0.570276
O10	O	0.948489	-0.342312	-0.270928
O11	O	0.871076	-0.162888	-0.441300
O12	O	0.769058	-0.264893	-0.441320
O13	O	0.871139	-0.444296	-0.570312
O14	O	0.769056	-0.342201	-0.570360
O15	O	0.948487	-0.444344	-0.441236
O16	O	0.948370	-0.264941	-0.740632
O17	O	0.871072	-0.342228	-0.740647
C18	C	0.746217	-0.303537	-0.505848
C19	C	0.676248	-0.303521	-0.505897
C20	C	0.643398	-0.343715	-0.573177
C21	C	0.577655	-0.343743	-0.573151
C22	C	0.544766	-0.303566	-0.505856
C23	C	0.577625	-0.263369	-0.438563
C24	C	0.643366	-0.263346	-0.438584
N25	N	0.441489	-0.248508	-0.497633
N26	N	0.379037	-0.248531	-0.497620
C27	C	0.346691	-0.303633	-0.505789
N28	N	0.379156	-0.358712	-0.513993
N29	N	0.441613	-0.358687	-0.514012
C30	C	0.473481	-0.303586	-0.505826
C31	C	0.242555	-0.343861	-0.573045
C32	C	0.176811	-0.343890	-0.573011
C33	C	0.176782	-0.263511	-0.438429
C34	C	0.242525	-0.263487	-0.438457
C35	C	0.275407	-0.303661	-0.505770
C36	C	0.909820	-0.467800	-0.505771
C37	C	0.909843	-0.537768	-0.505761
C38	C	0.950116	-0.570660	-0.438548
C39	C	0.950115	-0.636403	-0.438503
C40	C	0.909848	-0.669250	-0.505689
C41	C	0.869567	-0.636350	-0.572906
C42	C	0.869564	-0.570608	-0.572943
N43	N	0.905006	-0.772471	-0.597599
N44	N	0.905012	-0.834922	-0.597562
C45	C	0.909852	-0.867325	-0.505582
N46	N	0.914697	-0.834917	-0.413640
N47	N	0.914695	-0.772460	-0.413678
C48	C	0.909845	-0.740536	-0.505657
C49	C	0.950126	-0.971503	-0.438314
C50	C	0.950121	-1.037247	-0.438267
C51	C	0.869575	-1.037193	-0.572680
C52	C	0.869577	-0.971450	-0.572718
C53	C	0.909856	-0.938609	-0.505537
C54	C	1.073959	-0.303682	-0.505738
C55	C	1.143927	-0.303714	-0.505715
C56	C	0.909730	-0.303594	-0.778760
C57	C	0.909772	-0.303609	-0.895537
C58	C	0.909752	-0.140058	-0.505739
C59	C	0.909852	-0.070090	-0.505453
C60	C	0.990322	-0.223190	-0.895468
C61	C	1.030613	-0.182987	-0.950294
C62	C	1.030650	-0.183005	-1.060015
C63	C	0.990393	-0.223229	-1.114913
C64	C	0.950101	-0.263432	-1.060087
C65	C	0.950067	-0.263409	-0.950363
C66	C	0.869555	-0.343853	-1.060157
C67	C	0.869514	-0.343834	-0.950435
C68	C	0.829298	-0.384078	-1.115054
C69	C	0.789002	-0.424278	-1.060228
C70	C	0.788967	-0.424258	-0.950500
C71	C	0.829223	-0.384036	-0.895609
C72	C	0.909823	-0.303638	-0.231759
C73	C	0.909847	-0.303651	-0.114983
H74	H	0.550842	-0.230658	-0.383770
N75	N	0.678803	-0.219997	-0.366007
H76	H	0.647995	-0.194551	-0.323365
H77	H	0.706029	-0.190809	-0.408704
H78	H	0.836766	-0.543827	-0.627674
N79	N	0.993566	-0.936071	-0.365867
H80	H	0.983810	-0.947490	-0.290790
H81	H	0.987432	-0.889446	-0.376197
N82	N	0.993559	-1.072734	-0.365775
H83	H	0.967986	-1.099986	-0.317079
H84	H	1.019068	-1.041917	-0.323292
N85	N	0.745504	-0.467620	-0.891379
H86	H	0.716326	-0.441997	-0.845934
H87	H	0.771101	-0.496807	-0.845840
H88	H	0.982909	-0.663190	-0.383764
H89	H	0.982913	-0.543926	-0.383843
H90	H	0.550903	-0.376477	-0.627938
N91	N	0.745583	-0.467654	-1.119440
H92	H	0.720049	-0.493116	-1.068062
H93	H	0.771211	-0.496825	-1.164887
N94	N	0.826124	-0.671773	-0.645355
H95	H	0.832235	-0.718412	-0.635132
H96	H	0.835897	-0.660295	-0.720398
H97	H	0.829333	-0.384092	-1.204396
H98	H	0.269329	-0.376577	-0.627850
N99	N	0.826138	-1.072611	-0.645138
H100	H	0.832248	-1.119250	-0.634915
H101	H	0.835918	-1.061132	-0.720177
H102	H	0.150065	-0.376625	-0.627797
H103	H	1.063392	-0.150238	-0.905586
N104	N	1.074105	-0.139638	-1.119144
H105	H	1.048545	-0.110447	-1.164737
H106	H	1.103274	-0.165303	-1.164535
N107	N	0.990433	-0.223256	-1.233255
H108	H	1.033620	-0.234884	-1.259593
H109	H	0.978862	-0.180056	-1.259667
N110	N	0.826130	-0.935968	-0.645195
H111	H	0.800615	-0.966750	-0.687745
H112	H	0.851730	-0.908705	-0.693830
N113	N	0.990273	-0.223163	-0.777126
H114	H	1.021887	-0.191581	-0.750668
H115	H	1.001800	-0.266374	-0.750712
H116	H	0.829194	-0.384012	-0.806268
N117	N	0.678868	-0.387052	-0.645757
H118	H	0.706097	-0.361412	-0.694389
H119	H	0.648041	-0.412514	-0.688305
N120	N	0.141322	-0.220176	-0.365839
H121	H	0.114097	-0.245818	-0.317206
H122	H	0.114031	-0.190976	-0.408526
N123	N	0.277962	-0.220138	-0.365884
H124	H	0.247153	-0.194692	-0.323244
H125	H	0.305191	-0.190951	-0.408576
