data_functionalizedCrystal
_audit_creation_method	'MofGen! by Chris Wilmer'
_symmetry_space_group_name_H-M	'P1'
_symmetry_Int_Tables_number	1
_symmetry_cell_setting	triclinic
loop_
_symmetry_equiv_pos_as_xyz
  x,y,z
_cell_length_a	16.109302
_cell_length_b	11.792254
_cell_length_c	15.186229
_cell_angle_alpha	89.996078
_cell_angle_beta	89.994701
_cell_angle_gamma	83.830189
loop_
_atom_site_label
_atom_site_type_symbol
_atom_site_fract_x
_atom_site_fract_y
_atom_site_fract_z
O1	O	1.103822	0.145888	-0.073269
O2	O	1.437155	0.479222	0.260065
O3	O	1.770488	0.812555	0.593398
O4	O	0.861846	0.164042	-0.073262
O5	O	1.195179	0.497376	0.260072
O6	O	1.528512	0.830709	0.593405
O7	O	0.988700	-0.010256	-0.073259
O8	O	1.322034	0.323078	0.260074
O9	O	1.655367	0.656411	0.593408
O10	O	0.976967	0.320186	-0.073271
O11	O	1.310300	0.653520	0.260062
O12	O	1.643634	0.986853	0.593395
O13	O	0.988692	-0.010258	0.073198
O14	O	1.322025	0.323075	0.406532
O15	O	1.655358	0.656409	0.739865
O16	O	0.861837	0.164040	0.073196
O17	O	1.195171	0.497373	0.406529
O18	O	1.528504	0.830707	0.739862
O19	O	1.103813	0.145886	0.073189
O20	O	1.437146	0.479219	0.406522
O21	O	1.770480	0.812552	0.739855
Zn22	Zn	0.982824	0.154963	0.096445
Zn23	Zn	1.316157	0.488296	0.429779
Zn24	Zn	1.649491	0.821629	0.763112
Zn25	Zn	0.982835	0.154966	-0.096518
Zn26	Zn	1.316168	0.488299	0.236815
Zn27	Zn	1.649502	0.821632	0.570148
O28	O	0.976959	0.320184	0.073186
O29	O	1.310292	0.653517	0.406519
O30	O	1.643625	0.986851	0.739853
C31	C	0.830863	0.163306	-0.000032
C32	C	1.164197	0.496639	0.333301
C33	C	1.497530	0.829972	0.666635
C34	C	0.738557	0.161101	-0.000029
C35	C	1.071891	0.494434	0.333304
C36	C	1.405224	0.827767	0.666637
C37	C	0.526188	0.156000	0.079796
C38	C	0.859521	0.489334	0.413129
C39	C	1.192854	0.822667	0.746463
C40	C	0.439458	0.153916	0.079793
C41	C	0.772791	0.487249	0.413126
C42	C	1.106124	0.820583	0.746460
C43	C	0.439478	0.153925	-0.079883
C44	C	0.772811	0.487258	0.253451
C45	C	1.106144	0.820591	0.586784
C46	C	0.526207	0.156001	-0.079879
C47	C	0.859540	0.489334	0.253454
C48	C	1.192873	0.822667	0.586788
C49	C	0.569559	0.157044	-0.000037
C50	C	0.902892	0.490378	0.333296
C51	C	1.236226	0.823711	0.666630
C52	C	0.396100	0.152884	-0.000044
C53	C	0.729433	0.486217	0.333290
C54	C	1.062767	0.819551	0.666623
C55	C	0.302064	0.150624	-0.000048
C56	C	0.635397	0.483958	0.333286
C57	C	0.968730	0.817291	0.666619
C58	C	0.663602	0.159302	-0.000033
C59	C	0.996935	0.492635	0.333301
C60	C	1.330268	0.825969	0.666634
C61	C	0.987957	-0.052541	-0.000031
C62	C	1.321290	0.280792	0.333303
C63	C	1.654624	0.614126	0.666636
C64	C	0.985745	-0.178535	-0.000031
C65	C	1.319078	0.154799	0.333302
C66	C	1.652411	0.488132	0.666635
C67	C	0.983947	-0.280856	-0.000034
C68	C	1.317281	0.052478	0.333299
C69	C	1.650614	0.385811	0.666632
C70	C	0.981700	-0.409222	-0.000043
C71	C	1.315033	-0.075889	0.333291
C72	C	1.648366	0.257444	0.666624
C73	C	1.134796	0.146623	-0.000043
C74	C	1.468129	0.479956	0.333291
C75	C	1.801462	0.813289	0.666624
C76	C	1.227102	0.148828	-0.000051
C77	C	1.560435	0.482161	0.333282
C78	C	1.893768	0.815494	0.666615
C79	C	0.977702	0.362469	-0.000044
C80	C	1.311035	0.695803	0.333289
C81	C	1.644369	1.029136	0.666622
C82	C	0.979914	0.488463	-0.000049
C83	C	1.313248	0.821796	0.333284
C84	C	1.646581	1.155130	0.666617
N85	N	0.982822	0.154960	0.228138
N86	N	1.316156	0.488293	0.561471
N87	N	1.649489	0.821626	0.894805
N88	N	0.982843	0.154960	-0.228211
N89	N	1.316177	0.488293	0.105122
N90	N	1.649510	0.821626	0.438456
C91	C	1.039013	0.077806	0.453862
C92	C	1.372346	0.411140	0.787195
C93	C	1.705679	0.744473	1.120529
C94	C	1.039015	0.077804	0.546052
C95	C	1.372349	0.411137	0.879385
C96	C	1.705682	0.744470	1.212718
C97	C	0.926647	0.232117	0.546059
C98	C	1.259980	0.565450	0.879392
C99	C	1.593313	0.898783	1.212725
C100	C	0.926641	0.232113	0.453871
C101	C	1.259974	0.565446	0.787204
C102	C	1.593307	0.898780	1.120537
C103	C	0.982828	0.154959	0.407775
C104	C	1.316162	0.488293	0.741108
C105	C	1.649495	0.821626	1.074441
C106	C	0.982837	0.154960	0.592152
C107	C	1.316170	0.488293	0.925486
C108	C	1.649504	0.821627	1.258819
C109	C	0.982839	0.154958	0.692108
C110	C	1.316173	0.488291	1.025442
C111	C	1.649506	0.821624	1.358775
C112	C	0.982825	0.154960	0.307812
C113	C	1.316159	0.488293	0.641146
C114	C	1.649492	0.821626	0.974479
H115	H	0.404169	0.153076	-0.144887
H116	H	0.737503	0.486410	0.188446
H117	H	1.070836	0.819743	0.521779
H118	H	1.084763	0.014982	0.416333
H119	H	1.418096	0.348315	0.749666
H120	H	1.751430	0.681648	1.083000
C121	C	1.100816	-0.007080	0.596744
C122	C	1.434149	0.326254	0.930077
C123	C	1.767483	0.659587	1.263410
N124	N	1.147364	-0.071022	0.634924
N125	N	1.480697	0.262311	0.968258
N126	N	1.814031	0.595645	1.301591
H127	H	0.561521	0.156848	-0.144892
H128	H	0.894854	0.490181	0.188441
H129	H	1.228187	0.823514	0.521774
H130	H	0.880901	0.294935	0.583599
H131	H	1.214234	0.628268	0.916932
H132	H	1.547568	0.961602	1.250266
H133	H	0.561483	0.156850	0.144808
H134	H	0.894816	0.490183	0.478142
H135	H	1.228149	0.823517	0.811475
C136	C	0.864868	0.317043	0.403171
C137	C	1.198202	0.650376	0.736505
C138	C	1.531535	0.983710	1.069838
N139	N	0.818356	0.381026	0.364985
N140	N	1.151689	0.714360	0.698318
N141	N	1.485022	1.047693	1.031651
H142	H	0.404149	0.153066	0.144801
H143	H	0.737482	0.486400	0.478134
H144	H	1.070815	0.819733	0.811468
