data_functionalizedCrystal
_audit_creation_method	'MofGen! by Chris Wilmer'
_symmetry_space_group_name_H-M	'P1'
_symmetry_Int_Tables_number	1
_symmetry_cell_setting	triclinic
loop_
_symmetry_equiv_pos_as_xyz
  x,y,z
_cell_length_a	6.817900
_cell_length_b	9.514063
_cell_length_c	9.514088
_cell_angle_alpha	83.787405
_cell_angle_beta	118.843545
_cell_angle_gamma	118.843314
loop_
_atom_site_label
_atom_site_type_symbol
_atom_site_fract_x
_atom_site_fract_y
_atom_site_fract_z
V1	V	-4.303769	-0.225060	-0.502027
O2	O	-4.198339	0.007885	-0.491166
O3	O	-4.337709	-0.443439	-0.499849
O4	O	-4.337712	-0.222884	-0.720406
O5	O	-4.198336	-0.214197	-0.269082
V6	V	-4.766057	-0.197045	-0.474013
O7	O	-4.611606	-0.286513	-0.563480
O8	O	-4.908417	-0.135593	-0.412560
O9	O	-4.508910	0.021333	-0.476191
O10	O	-4.988884	-0.429991	-0.484874
O11	O	-4.988887	-0.207909	-0.706958
O12	O	-4.508907	-0.199222	-0.255634
C13	C	-4.200076	-0.496635	-0.492253
C14	C	-4.309662	-0.675170	-0.491928
C15	C	-4.200078	-0.215293	-0.773594
C16	C	-4.309659	-0.214959	-0.952128
C17	C	-4.309886	0.074521	-0.483783
C18	C	-4.179543	0.253054	-0.484119
C19	C	-4.309882	-0.206818	-0.202438
C20	C	-4.179536	-0.207144	-0.023902
H21	H	-4.504885	-0.750303	-0.498344
C22	C	-3.919352	-0.647004	-0.475784
C23	C	-3.930082	-0.705197	-0.609761
C24	C	-3.690438	-0.613185	-0.602125
H25	H	-3.877571	-0.536273	-0.477222
H26	H	-3.791288	-0.655870	-0.378286
H27	H	-4.058105	-0.696314	-0.707233
H28	H	-3.971819	-0.815915	-0.608350
H29	H	-3.562374	-0.622052	-0.504627
H30	H	-3.648677	-0.502458	-0.603559
H31	H	-3.697679	-0.652665	-0.693016
C32	C	-3.919447	-0.198872	-0.923599
C33	C	-3.948995	-0.337534	-0.849257
C34	C	-3.709457	-0.329977	-0.756829
H35	H	-3.852312	-0.194012	-0.992404
H36	H	-3.804052	-0.104549	-0.842498
H37	H	-4.064349	-0.431831	-0.930347
H38	H	-4.016089	-0.342421	-0.780425
H39	H	-3.594062	-0.235655	-0.675729
H40	H	-3.642340	-0.325113	-0.825646
H41	H	-3.729469	-0.424048	-0.706365
C42	C	-4.570153	-0.223780	-1.052551
C43	C	-4.739552	-0.362981	-1.171811
C44	C	-4.979526	-0.371151	-1.264366
H45	H	-4.637445	-0.228819	-0.983793
H46	H	-4.550736	-0.129859	-1.103223
H47	H	-4.758975	-0.456878	-1.121142
H48	H	-4.672343	-0.357973	-1.240605
H49	H	-4.960109	-0.277230	-1.315037
H50	H	-5.046793	-0.376185	-1.195595
H51	H	-5.094485	-0.465589	-1.345303
