data_functionalizedCrystal
_audit_creation_method	'MofGen! by Chris Wilmer'
_symmetry_space_group_name_H-M	'P1'
_symmetry_Int_Tables_number	1
_symmetry_cell_setting	triclinic
loop_
_symmetry_equiv_pos_as_xyz
  x,y,z
_cell_length_a	11.169417
_cell_length_b	18.215405
_cell_length_c	11.169417
_cell_angle_alpha	90.012063
_cell_angle_beta	90.000551
_cell_angle_gamma	90.023981
loop_
_atom_site_label
_atom_site_type_symbol
_atom_site_fract_x
_atom_site_fract_y
_atom_site_fract_z
Zn1	Zn	1.834634	-0.293080	0.678495
Zn2	Zn	1.834547	-0.416118	0.477796
Zn3	Zn	1.633987	-0.293072	0.477831
Zn4	Zn	1.633884	-0.416112	0.678442
O5	O	1.734263	-0.354595	0.578141
O6	O	2.002572	-0.309407	0.651880
O7	O	1.807948	-0.399795	0.309851
O8	O	1.660682	-0.190089	0.504486
O9	O	2.002508	-0.399802	0.504427
O10	O	1.808097	-0.190094	0.651913
O11	O	1.660598	-0.309394	0.309876
O12	O	1.466023	-0.309388	0.504434
O13	O	1.660508	-0.399792	0.846399
O14	O	1.465948	-0.399785	0.651823
O15	O	1.807998	-0.309401	0.846438
O16	O	1.807849	-0.519101	0.504376
O17	O	1.660423	-0.519097	0.651790
C18	C	1.422438	-0.354585	0.578127
C19	C	1.289038	-0.354599	0.578150
C20	C	1.734148	-0.545802	0.578100
C21	C	1.734209	-0.627601	0.578122
C22	C	1.811004	-0.815736	0.654991
C23	C	1.811048	-0.892595	0.655014
C24	C	1.657670	-0.892702	0.501365
C25	C	1.657622	-0.815845	0.501350
C26	C	1.734295	-0.777364	0.578161
C27	C	1.734388	-0.931080	0.578199
C28	C	1.734434	-1.014414	0.578223
C29	C	1.734247	-0.694025	0.578139
C30	C	2.047305	-0.354606	0.578156
C31	C	2.180705	-0.354610	0.578162
C32	C	1.734252	-0.354597	0.891183
C33	C	1.734247	-0.354597	1.024583
C34	C	1.734411	-0.162642	0.578209
C35	C	1.734474	-0.080844	0.578238
C36	C	1.734260	-0.354608	1.266316
C37	C	1.734250	-0.354598	1.132916
H38	H	1.873435	-0.784407	0.717538
H39	H	1.595247	-0.924043	0.438826
O40	O	1.885678	-0.929756	0.729684
C41	C	1.953313	-0.879307	0.797494
H42	H	1.957478	-0.824530	0.748323
H43	H	2.047876	-0.901465	0.810386
H44	H	1.909278	-0.871133	0.888604
H45	H	1.595150	-0.784600	0.438785
