data_functionalizedCrystal
_audit_creation_method	'MofGen! by Chris Wilmer'
_symmetry_space_group_name_H-M	'P1'
_symmetry_Int_Tables_number	1
_symmetry_cell_setting	triclinic
loop_
_symmetry_equiv_pos_as_xyz
  x,y,z
_cell_length_a	16.625539
_cell_length_b	12.759401
_cell_length_c	12.759399
_cell_angle_alpha	90.016641
_cell_angle_beta	90.026183
_cell_angle_gamma	90.018781
loop_
_atom_site_label
_atom_site_type_symbol
_atom_site_fract_x
_atom_site_fract_y
_atom_site_fract_z
Zn1	Zn	-0.455883	-1.606241	0.418222
Zn2	Zn	-0.321055	-1.606137	0.593923
Zn3	Zn	-0.321068	-1.430546	0.418263
Zn4	Zn	-0.455849	-1.430530	0.593864
O5	O	-0.388464	-1.518364	0.506068
O6	O	-0.438006	-1.753248	0.441536
O7	O	-0.208224	-1.582808	0.570663
O8	O	-0.338970	-1.453903	0.271237
O9	O	-0.338949	-1.753172	0.570623
O10	O	-0.438019	-1.582985	0.271206
O11	O	-0.208233	-1.453802	0.441607
O12	O	-0.338938	-1.283523	0.441550
O13	O	-0.568686	-1.453875	0.570523
O14	O	-0.437961	-1.283511	0.570563
O15	O	-0.568711	-1.582969	0.441479
O16	O	-0.338916	-1.582793	0.740936
O17	O	-0.437949	-1.453775	0.740893
C18	C	-0.388448	-1.245396	0.506055
C19	C	-0.388460	-1.128620	0.506075
C20	C	-0.388445	-1.518299	0.779035
C21	C	-0.388464	-1.518368	0.895812
C22	C	-0.598773	-1.518432	0.505990
C23	C	-0.688394	-1.518461	0.505956
C24	C	-1.016570	-1.518510	0.505839
C25	C	-0.925261	-1.518493	0.505875
C26	C	-0.852485	-1.518486	0.505898
C27	C	-0.761170	-1.518468	0.505933
C28	C	-0.178973	-1.518356	0.506070
C29	C	-0.089352	-1.518531	0.505807
C30	C	-0.388480	-1.792397	0.506082
C31	C	-0.388487	-1.909174	0.506087
C32	C	-0.439940	-1.073779	0.573354
C33	C	-0.439956	-0.964055	0.573358
C34	C	-0.337005	-0.964022	0.438801
C35	C	-0.336993	-1.073744	0.438792
C36	C	-0.535014	-0.814154	0.611067
C37	C	-0.586487	-0.759310	0.678363
C38	C	-0.598726	-0.794906	0.780895
C39	C	-0.559479	-0.885345	0.816152
C40	C	-0.508000	-0.940184	0.748862
C41	C	-0.495777	-0.904589	0.646315
C42	C	-0.241935	-1.223647	0.401094
C43	C	-0.190451	-1.278487	0.333809
C44	C	-0.178204	-1.242893	0.231275
C45	C	-0.217436	-1.152451	0.196021
C46	C	-0.268920	-1.097610	0.263307
C47	C	-0.281168	-1.133212	0.365840
C48	C	-0.388500	-1.518457	0.232035
C49	C	-0.388515	-1.518497	0.115258
C50	C	-0.336957	-1.585624	0.950661
C51	C	-0.336984	-1.585692	1.060385
C52	C	-0.440028	-1.451238	1.060401
C53	C	-0.440005	-1.451176	0.950679
C54	C	-0.308290	-1.709701	1.210258
C55	C	-0.256770	-1.776949	1.265111
C56	C	-0.178098	-1.793115	1.229562
C57	C	-0.150930	-1.742019	1.139162
C58	C	-0.202446	-1.674765	1.084314
C59	C	-0.281129	-1.658618	1.119861
C60	C	-0.468690	-1.327165	0.800804
C61	C	-0.520202	-1.259904	0.745955
C62	C	-0.598876	-1.243727	0.781502
C63	C	-0.626041	-1.294804	0.871906
C64	C	-0.574528	-1.362065	0.926755
C65	C	-0.495856	-1.378244	0.891201
H66	H	-0.481850	-1.118456	0.628138
H67	H	-0.498079	-1.218320	0.672338
H68	H	-0.690104	-1.281632	0.900849
H69	H	-0.476046	-1.013817	0.777568
H70	H	-0.596654	-1.403659	1.000364
H71	H	-0.158505	-1.352130	0.362521
H72	H	-0.372354	-1.696555	1.239204
H73	H	-0.640816	-1.188954	0.736834
H74	H	-0.207451	-1.123457	0.112536
H75	H	-0.404629	-1.340340	0.771847
H76	H	-0.294991	-1.640337	0.905991
H77	H	-0.136274	-1.287550	0.176495
H78	H	-0.295101	-0.919329	0.384023
H79	H	-0.136150	-1.847871	1.274231
H80	H	-0.300870	-1.023972	0.234591
H81	H	-0.481990	-1.396531	1.105087
H82	H	-0.180327	-1.633166	1.010710
H83	H	-0.569442	-0.914314	0.899649
H84	H	-0.278898	-1.818551	1.338715
H85	H	-0.640637	-0.750245	0.835687
H86	H	-0.086864	-1.755180	1.110231
H87	H	-0.618442	-0.685675	0.649646
H88	H	-0.525062	-0.785170	0.527574
H89	H	-0.251909	-1.252643	0.484583
