data_functionalizedCrystal
_audit_creation_method	'MofGen! by Chris Wilmer'
_symmetry_space_group_name_H-M	'P1'
_symmetry_Int_Tables_number	1
_symmetry_cell_setting	triclinic
loop_
_symmetry_equiv_pos_as_xyz
  x,y,z
_cell_length_a	11.169416
_cell_length_b	11.169417
_cell_length_c	17.077396
_cell_angle_alpha	89.986007
_cell_angle_beta	89.976500
_cell_angle_gamma	90.011219
loop_
_atom_site_label
_atom_site_type_symbol
_atom_site_fract_x
_atom_site_fract_y
_atom_site_fract_z
Zn1	Zn	-0.477769	1.834893	-0.443806
Zn2	Zn	0.022231	2.334893	0.056194
Zn3	Zn	-0.678484	1.834803	-0.312554
Zn4	Zn	-0.178484	2.334803	0.187446
Zn5	Zn	-0.477816	1.634200	-0.312562
Zn6	Zn	0.022184	2.134200	0.187438
Zn7	Zn	-0.678412	1.634187	-0.443785
Zn8	Zn	-0.178412	2.134187	0.056215
O9	O	-0.578120	1.734521	-0.378177
O10	O	-0.078120	2.234521	0.121823
O11	O	-0.504405	2.002831	-0.426401
O12	O	-0.004405	2.502831	0.073599
O13	O	-0.651915	1.808160	-0.202708
O14	O	-0.151915	2.308160	0.297292
O15	O	-0.309861	1.660865	-0.329984
O16	O	0.190139	2.160865	0.170016
O17	O	-0.651869	2.002765	-0.329970
O18	O	-0.151869	2.502765	0.170030
O19	O	-0.309826	1.808314	-0.426409
O20	O	0.190174	2.308314	0.073591
O21	O	-0.504485	1.660778	-0.202714
O22	O	-0.004485	2.160778	0.297286
O23	O	-0.504416	1.466248	-0.329963
O24	O	-0.004416	1.966248	0.170037
O25	O	-0.651746	1.660843	-0.553635
O26	O	-0.151746	2.160843	-0.053635
O27	O	-0.651792	1.466239	-0.426372
O28	O	-0.151792	1.966239	0.073628
O29	O	-0.504335	1.808301	-0.553650
O30	O	-0.004335	2.308301	-0.053650
O31	O	-0.846424	1.808148	-0.329949
O32	O	-0.346424	2.308148	0.170051
O33	O	-0.846371	1.660756	-0.426364
O34	O	-0.346371	2.160756	0.073636
C35	C	-0.578102	1.422696	-0.378167
C36	C	-0.078102	1.922696	0.121833
C37	C	-0.578123	1.289296	-0.378181
C38	C	-0.078123	1.789296	0.121819
C39	C	-0.889945	1.734473	-0.378171
C40	C	-0.389945	2.234473	0.121829
C41	C	-1.023345	1.734562	-0.378194
C42	C	-0.523345	2.234562	0.121806
C43	C	-0.265078	1.734601	-0.378200
C44	C	0.234922	2.234601	0.121800
C45	C	-0.131678	1.734635	-0.378210
C46	C	0.368322	2.234635	0.121790
C47	C	-0.578027	1.734581	-0.582921
C48	C	-0.078027	2.234581	-0.082921
C49	C	-0.577988	1.734607	-0.670171
C50	C	-0.077988	2.234607	-0.170171
C51	C	-0.578140	2.047563	-0.378187
C52	C	-0.078140	2.547563	0.121813
C53	C	-0.578148	2.180963	-0.378192
C54	C	-0.078148	2.680963	0.121808
C55	C	-0.501212	1.657888	-0.711163
C56	C	-0.001212	2.157888	-0.211163
C57	C	-0.501185	1.657907	-0.793144
C58	C	-0.001185	2.157907	-0.293144
C59	C	-0.577928	1.734653	-0.834130
C60	C	-0.077928	2.234653	-0.334130
C61	C	-0.654712	1.811375	-0.793132
C62	C	-0.154712	2.311375	-0.293132
C63	C	-0.654745	1.811348	-0.711153
C64	C	-0.154745	2.311348	-0.211153
C65	C	-0.654637	1.811427	-0.964002
C66	C	-0.154637	2.311427	-0.464002
C67	C	-0.654604	1.811455	-1.045987
C68	C	-0.154604	2.311455	-0.545987
C69	C	-0.501077	1.657986	-1.045993
C70	C	-0.001077	2.157986	-0.545993
C71	C	-0.501110	1.657959	-0.964014
C72	C	-0.001110	2.157959	-0.464014
C73	C	-0.577893	1.734683	-0.923021
C74	C	-0.077893	2.234683	-0.423021
C75	C	-0.578126	1.734530	-0.174229
C76	C	-0.078126	2.234530	0.325771
C77	C	-0.577828	1.734736	-0.086979
C78	C	-0.077828	2.234736	0.413021
H79	H	-0.438712	1.595400	-0.677798
H80	H	0.061288	2.095400	-0.177798
H81	H	-0.717152	1.873914	-0.930628
H82	H	-0.217152	2.373914	-0.430628
C83	C	-0.349420	1.506227	-0.784916
C84	C	0.150580	2.006227	-0.284916
C85	C	-0.416782	1.573584	-0.838203
C86	C	0.083218	2.073584	-0.338203
H87	H	-0.297306	1.454173	-0.812735
H88	H	0.202694	1.954173	-0.312735
H89	H	-0.401715	1.460293	-0.752936
H90	H	0.098285	1.960293	-0.252936
H91	H	-0.303536	1.558540	-0.752946
H92	H	0.196464	2.058540	-0.252946
H93	H	-0.462673	1.521271	-0.870169
H94	H	0.037327	2.021271	-0.370169
H95	H	-0.364480	1.619522	-0.870196
H96	H	0.135520	2.119522	-0.370196
H97	H	-0.717254	1.873830	-0.677778
H98	H	-0.217254	2.373830	-0.177778
H99	H	-0.717204	1.873856	-0.826510
H100	H	-0.217204	2.373856	-0.326510
C101	C	-0.432889	1.589834	-1.171660
C102	C	0.067111	2.089834	-0.671660
C103	C	-0.416699	1.573624	-1.091049
C104	C	0.083301	2.073624	-0.591049
H105	H	-0.380806	1.537746	-1.199476
H106	H	0.119194	2.037746	-0.699476
H107	H	-0.415309	1.670466	-1.185103
H108	H	0.084691	2.170466	-0.685103
H109	H	-0.513531	1.572262	-1.185071
H110	H	-0.013531	2.072262	-0.685071
H111	H	-0.336059	1.591204	-1.077638
H112	H	0.163941	2.091204	-0.577638
H113	H	-0.434271	1.492973	-1.077601
H114	H	0.065729	1.992973	-0.577601
C115	C	-0.806382	1.963131	-1.037751
C116	C	-0.306382	2.463131	-0.537751
C117	C	-0.738969	1.895805	-1.091041
C118	C	-0.238969	2.395805	-0.591041
H119	H	-0.858471	2.015199	-1.065567
H120	H	-0.358471	2.515199	-0.565567
H121	H	-0.754117	2.009050	-1.005783
H122	H	-0.254117	2.509050	-0.505783
H123	H	-0.852294	1.910801	-1.005769
H124	H	-0.352294	2.410801	-0.505769
H125	H	-0.693050	1.948135	-1.123019
H126	H	-0.193050	2.448135	-0.623019
H127	H	-0.791241	1.849883	-1.123022
H128	H	-0.291241	2.349883	-0.623022
H129	H	-0.438613	1.595472	-0.930645
H130	H	0.061387	2.095472	-0.430645
