data_functionalizedCrystal
_audit_creation_method	'MofGen! by Chris Wilmer'
_symmetry_space_group_name_H-M	'P1'
_symmetry_Int_Tables_number	1
_symmetry_cell_setting	triclinic
loop_
_symmetry_equiv_pos_as_xyz
  x,y,z
_cell_length_a	10.489711
_cell_length_b	10.489741
_cell_length_c	9.730217
_cell_angle_alpha	89.997012
_cell_angle_beta	89.997050
_cell_angle_gamma	84.533091
loop_
_atom_site_label
_atom_site_type_symbol
_atom_site_fract_x
_atom_site_fract_y
_atom_site_fract_z
O1	O	1.694070	0.179785	-0.114339
O2	O	1.322870	0.196717	-0.114331
O3	O	1.516916	0.002653	-0.114327
O4	O	1.500023	0.373850	-0.114343
O5	O	1.516911	0.002651	0.114253
O6	O	1.322864	0.196716	0.114249
O7	O	1.694064	0.179783	0.114241
Zn8	Zn	1.508463	0.188249	0.150537
Zn9	Zn	1.508471	0.188252	-0.150627
O10	O	1.500017	0.373848	0.114237
C11	C	1.275334	0.195446	-0.000040
C12	C	1.133703	0.191644	-0.000036
C13	C	0.951317	0.308348	-0.000057
C14	C	1.043465	0.250054	-0.112754
C15	C	1.043432	0.250021	0.112608
C16	C	0.973514	0.126511	-0.112856
C17	C	0.973472	0.126495	0.112608
C18	C	1.065593	0.068111	-0.000117
C19	C	1.515638	-0.044880	-0.000038
C20	C	1.511820	-0.186509	-0.000040
C21	C	1.388354	-0.254636	-0.000047
C22	C	1.446675	-0.346766	0.112653
C23	C	1.446711	-0.346738	-0.112709
C24	C	1.570193	-0.276773	0.112754
C25	C	1.570211	-0.276737	-0.112710
C26	C	1.628622	-0.368839	0.000018
C27	C	1.741600	0.181055	-0.000053
C28	C	1.883231	0.184857	-0.000065
C29	C	1.501296	0.421381	-0.000055
C30	C	1.505114	0.563010	-0.000062
N31	N	1.508467	0.188247	0.356074
N32	N	1.508477	0.188244	-0.356163
C33	C	1.680366	0.016453	0.356068
C34	C	1.766324	-0.069440	0.428005
C35	C	1.766337	-0.069441	0.571885
C36	C	1.680380	0.016458	0.643831
C37	C	1.594422	0.102351	0.571894
C38	C	1.594421	0.102345	0.428011
C39	C	1.422519	0.274137	0.571900
C40	C	1.422510	0.274146	0.428020
C41	C	1.336562	0.360036	0.643846
C42	C	1.250608	0.445938	0.571909
C43	C	1.250599	0.445936	0.428020
C44	C	1.336552	0.360039	0.356083
H45	H	0.901626	0.409850	-0.000173
H46	H	1.730226	-0.418274	0.000079
F47	F	1.159102	0.537351	0.351471
H48	H	1.394432	-0.377772	0.207936
F49	F	1.083968	0.318348	-0.237300
H50	H	1.115050	-0.033484	-0.000170
H51	H	1.286841	-0.204974	0.000069
F52	F	1.680383	0.016440	0.796961
F53	F	0.932916	0.058252	0.237155
F54	F	1.378403	-0.387230	-0.237239
F55	F	1.638418	-0.236487	0.237429
H56	H	1.336557	0.360035	0.238929
F57	F	0.933255	0.058266	-0.237529
F58	F	1.638441	-0.236162	-0.237257
F59	F	1.083895	0.318344	0.237141
H60	H	1.680375	0.016455	0.238913
F61	F	1.336569	0.360030	0.796976
H62	H	1.836308	-0.139381	0.369414
H63	H	1.836327	-0.139387	0.630456
H64	H	1.180622	0.515865	0.630496
