data_functionalizedCrystal
_audit_creation_method	'MofGen! by Chris Wilmer'
_symmetry_space_group_name_H-M	'P1'
_symmetry_Int_Tables_number	1
_symmetry_cell_setting	triclinic
loop_
_symmetry_equiv_pos_as_xyz
  x,y,z
_cell_length_a	12.837943
_cell_length_b	14.750779
_cell_length_c	12.811442
_cell_angle_alpha	107.958476
_cell_angle_beta	89.413727
_cell_angle_gamma	75.993872
loop_
_atom_site_label
_atom_site_type_symbol
_atom_site_fract_x
_atom_site_fract_y
_atom_site_fract_z
O1	O	1.346896	0.105938	0.300223
O2	O	1.045367	0.104743	0.286431
O3	O	1.207523	0.091800	0.137812
O4	O	1.184741	0.118881	0.448842
O5	O	1.253362	-0.071509	0.095804
O6	O	1.091207	-0.058566	0.244423
O7	O	1.392735	-0.057371	0.258215
Zn8	Zn	1.249249	-0.083897	0.244650
Zn9	Zn	1.188854	0.131269	0.299997
O10	O	1.230580	-0.044427	0.406835
C11	C	1.029760	0.022684	0.260768
C12	C	0.914963	0.021477	0.246871
N13	N	1.290475	-0.230743	0.206877
C14	C	0.670634	0.036009	0.413939
C15	C	0.562772	0.034875	0.400887
C16	C	0.591375	0.018065	0.207713
C17	C	0.699238	0.019200	0.220766
C18	C	0.738863	0.028174	0.323882
C19	C	0.846725	0.029316	0.336935
C20	C	0.875328	0.012499	0.143761
C21	C	0.767466	0.011364	0.130709
C22	C	1.032500	-0.561978	0.443208
C23	C	1.061396	-0.664782	0.416748
C24	C	1.205012	-0.676201	0.285202
C25	C	1.176125	-0.573397	0.311648
C26	C	1.089869	-0.516293	0.390653
C27	C	1.233494	-0.527711	0.259092
C28	C	1.204612	-0.424916	0.285541
C29	C	1.118362	-0.367805	0.364545
C30	C	1.060987	-0.413497	0.417101
C31	C	1.319755	-0.584816	0.180093
C32	C	1.377124	-0.539131	0.127538
C33	C	1.348238	-0.436334	0.153980
C34	C	1.261987	-0.379224	0.232984
C35	C	1.405612	-0.390642	0.101424
C36	C	1.376731	-0.287846	0.127872
C37	C	1.233106	-0.276428	0.259432
C38	C	1.408342	0.024690	0.283879
C39	C	1.523137	0.025904	0.297777
C40	C	1.230569	0.006657	0.076722
C41	C	1.230935	-0.003737	-0.042724
N42	N	1.147637	0.278114	0.337762
C43	C	1.256441	-0.107405	-0.233979
C44	C	1.256094	-0.097641	-0.121750
C45	C	1.206117	0.080409	-0.075935
C46	C	1.206464	0.070645	-0.188165
C47	C	1.231629	-0.023265	-0.267184
C48	C	1.231983	-0.033028	-0.379416
C49	C	1.181999	0.145021	-0.333600
C50	C	1.181652	0.154785	-0.221370
C51	C	1.207533	0.040717	0.467925
C52	C	1.207165	0.051118	0.587373
H53	H	0.878986	0.036621	0.420897
Br54	Br	1.147529	0.282227	-0.114123
H55	H	1.447357	-0.585636	0.063214
Br56	Br	1.172040	0.207847	0.031318
Br57	Br	1.522684	-0.468147	-0.005778
H58	H	1.423448	-0.250649	0.085076
Br59	Br	1.148326	0.259218	-0.378667
H60	H	1.252475	-0.109494	-0.443753
Br61	Br	0.724412	0.048206	0.553882
H62	H	1.276290	-0.166156	-0.094720
Br63	Br	0.470179	0.045502	0.523110
H64	H	1.276938	-0.183870	-0.298319
H65	H	0.962254	-0.515482	0.507534
Br66	Br	0.537583	0.005870	0.067776
H67	H	0.930891	0.006125	0.070432
H68	H	0.735191	0.004047	0.046751
Br69	Br	1.116027	-0.198926	0.366640
H70	H	1.094851	-0.284102	0.386081
Br71	Br	0.983529	-0.726775	0.488092
H72	H	0.990742	-0.367001	0.481427
Br73	Br	1.322075	-0.753704	0.177989
H74	H	1.343270	-0.668519	0.158566
