data_functionalizedCrystal
_audit_creation_method	'MofGen! by Chris Wilmer'
_symmetry_space_group_name_H-M	'P1'
_symmetry_Int_Tables_number	1
_symmetry_cell_setting	triclinic
loop_
_symmetry_equiv_pos_as_xyz
  x,y,z
_cell_length_a	11.026607
_cell_length_b	15.944551
_cell_length_c	10.065875
_cell_angle_alpha	98.788968
_cell_angle_beta	79.302338
_cell_angle_gamma	96.042377
loop_
_atom_site_label
_atom_site_type_symbol
_atom_site_fract_x
_atom_site_fract_y
_atom_site_fract_z
O1	O	1.627949	0.342077	-0.113512
O2	O	2.127949	0.842077	0.386488
O3	O	1.274640	0.302024	-0.113511
O4	O	1.774640	0.802024	0.386489
O5	O	1.460941	0.201235	-0.113499
O6	O	1.960941	0.701235	0.386501
O7	O	1.441648	0.442866	-0.113524
O8	O	1.941648	0.942866	0.386476
O9	O	1.425416	0.220553	0.113487
O10	O	1.925416	0.720553	0.613487
O11	O	1.239115	0.321342	0.113475
O12	O	1.739115	0.821342	0.613475
O13	O	1.592424	0.361394	0.113475
O14	O	2.092424	0.861394	0.613475
Zn15	Zn	1.410129	0.344435	0.149514
Zn16	Zn	1.910129	0.844435	0.649514
Zn17	Zn	1.456935	0.318983	-0.149550
Zn18	Zn	1.956935	0.818983	0.350450
O19	O	1.406123	0.462183	0.113463
O20	O	1.906123	0.962183	0.613463
C21	C	1.211666	0.304294	-0.000018
C22	C	1.711666	0.804294	0.499982
C23	C	1.076950	0.282267	-0.000017
C24	C	1.576950	0.782267	0.499983
C25	C	1.003150	0.343086	-0.000024
C26	C	1.503150	0.843086	0.499976
C27	C	0.863914	0.320322	-0.000024
C28	C	1.363914	0.820322	0.499976
C29	C	1.442377	0.179479	-0.000006
C30	C	1.942377	0.679479	0.499994
C31	C	1.439975	0.085870	-0.000005
C32	C	1.939975	0.585870	0.499995
C33	C	1.318759	-0.147313	-0.000024
C34	C	1.818759	0.352687	0.499976
C35	C	1.357533	-0.190296	0.111894
C36	C	1.857533	0.309704	0.611894
C37	C	1.435632	-0.085514	-0.000015
C38	C	1.935632	0.414486	0.499985
C39	C	1.392586	-0.209321	-0.111896
C40	C	1.892586	0.290679	0.388104
C41	C	1.431429	-0.251063	-0.000031
C42	C	1.931429	0.248937	0.499969
C43	C	1.474424	-0.127256	0.111995
C44	C	1.974424	0.372744	0.611995
C45	C	1.509476	-0.146286	-0.111896
C46	C	2.009476	0.353714	0.388104
C47	C	1.548331	-0.189236	0.000049
C48	C	2.048331	0.310764	0.500049
C49	C	1.438050	0.009855	-0.000005
C50	C	1.938050	0.509855	0.499995
C51	C	1.429019	-0.346429	-0.000032
C52	C	1.929019	0.153571	0.499968
C53	C	1.655399	0.359124	-0.000022
C54	C	2.155399	0.859124	0.499978
C55	C	1.790116	0.381150	-0.000031
C56	C	2.290116	0.881150	0.499969
C57	C	1.424687	0.483939	-0.000034
C58	C	1.924687	0.983939	0.499966
C59	C	1.427090	0.577548	-0.000043
C60	C	1.927090	1.077548	0.499957
N61	N	1.378194	0.361806	0.353617
N62	N	1.878194	0.861806	0.853617
N63	N	1.488879	0.301607	-0.353654
N64	N	1.988879	0.801607	0.146346
C65	C	1.445816	0.325021	0.421401
C66	C	1.945816	0.825021	0.921401
C67	C	1.421248	0.338398	0.578566
C68	C	1.921248	0.838398	1.078566
H69	H	0.824027	0.251392	-0.000052
H70	H	1.324027	0.751392	0.499948
H71	H	0.830005	0.450078	-0.000029
H72	H	1.330005	0.950078	0.499971
H73	H	1.521895	0.283620	0.363081
H74	H	2.021895	0.783620	0.863081
H75	H	1.037057	0.213342	-0.000045
H76	H	1.537057	0.713342	0.499955
H77	H	1.221730	-0.128661	0.000088
H78	H	1.721730	0.371339	0.500088
N79	N	1.320451	0.393231	0.655798
N80	N	1.820451	0.893231	1.155798
H81	H	1.317185	0.395013	0.757124
H82	H	1.817185	0.895013	1.257124
H83	H	1.338586	0.452828	0.630887
H84	H	1.838586	0.952828	1.130887
N85	N	1.272453	-0.216155	0.237239
N86	N	1.772453	0.283845	0.737239
H87	H	1.185755	-0.201106	0.237162
H88	H	1.685755	0.298894	0.737162
H89	H	1.272184	-0.279567	0.236702
H90	H	1.772184	0.220433	0.736702
H91	H	1.043047	0.412009	-0.000024
H92	H	1.543047	0.912009	0.499976
H93	H	1.573676	-0.126742	-0.206519
H94	H	2.073676	0.373258	0.293481
H95	H	1.508991	-0.091738	0.206717
H96	H	2.008991	0.408262	0.706717
N97	N	1.676931	-0.213716	0.000119
N98	N	2.176931	0.286284	0.500119
H99	H	1.707670	-0.183398	0.084688
H100	H	2.207670	0.316602	0.584688
H101	H	1.674649	-0.277282	-0.000736
H102	H	2.174649	0.222718	0.499264
N103	N	1.346701	-0.256505	-0.237220
N104	N	1.846701	0.243495	0.262780
H105	H	1.259976	-0.241438	-0.237114
H106	H	1.759976	0.258562	0.262886
H107	H	1.403278	-0.239826	-0.321684
H108	H	1.903278	0.260174	0.178316
N109	N	1.589661	0.246761	0.569117
N110	N	2.089661	0.746761	1.069117
H111	H	1.592927	0.244975	0.467791
H112	H	2.092927	0.744975	0.967791
H113	H	1.671943	0.271462	0.594000
H114	H	2.171943	0.771462	1.094000
H115	H	1.302107	0.403200	0.411939
H116	H	1.802107	0.903200	0.911939
