data_functionalizedCrystal
_audit_creation_method	'MofGen! by Chris Wilmer'
_symmetry_space_group_name_H-M	'P1'
_symmetry_Int_Tables_number	1
_symmetry_cell_setting	triclinic
loop_
_symmetry_equiv_pos_as_xyz
  x,y,z
_cell_length_a	31.640172
_cell_length_b	14.446369
_cell_length_c	14.446369
_cell_angle_alpha	59.995508
_cell_angle_beta	90.002632
_cell_angle_gamma	59.999358
loop_
_atom_site_label
_atom_site_type_symbol
_atom_site_fract_x
_atom_site_fract_y
_atom_site_fract_z
Zr1	Zr	0.407186	1.013134	-0.121407
O2	O	0.339698	1.206277	-0.269243
O3	O	0.427875	0.820007	-0.076081
O4	O	0.427876	1.013134	-0.269209
O5	O	0.339696	1.013145	0.076221
O6	O	0.497433	1.013115	-0.269189
O7	O	0.339697	1.013151	-0.076115
O8	O	0.497431	0.667647	0.076282
O9	O	0.339698	1.358613	-0.269250
O10	O	0.488608	0.899423	-0.056742
O11	O	0.436698	0.899433	0.056929
O12	O	0.436700	1.126814	-0.170454
O13	O	0.384790	1.126824	-0.056783
Zr14	Zr	0.518121	1.013094	0.121584
Zr15	Zr	0.518122	1.013103	-0.121374
Zr16	Zr	0.407186	1.013125	0.121551
Zr17	Zr	0.407187	1.256092	-0.121418
Zr18	Zr	0.518120	0.770136	0.121595
O19	O	0.497433	1.206221	0.076258
O20	O	0.497434	1.206234	-0.269197
O21	O	0.339697	1.206264	0.076212
O22	O	0.585610	0.819951	0.269420
O23	O	0.585611	0.819964	-0.076035
O24	O	0.427874	0.819994	0.269374
O25	O	0.585611	1.013083	-0.076044
O26	O	0.497432	1.013094	0.269386
O27	O	0.427875	1.013113	0.269366
O28	O	0.585611	1.013077	0.076292
O29	O	0.427877	1.358589	-0.269225
O30	O	0.497430	0.667639	0.269402
O31	O	0.585609	0.667615	0.269427
O32	O	0.585610	0.667622	0.076308
O33	O	0.339698	1.358606	-0.076131
O34	O	0.427877	1.358581	-0.076105
O35	O	0.488608	0.899414	0.170631
O36	O	0.540518	0.899404	0.056960
O37	O	0.488609	1.126795	-0.056752
O38	O	0.436699	1.126805	0.056919
C39	C	0.462653	0.709211	0.000102
C40	C	0.462652	0.606069	0.000107
C41	C	0.430069	0.459065	0.072128
C42	C	0.429892	0.566685	0.071837
C43	C	0.438769	0.655076	-0.123440
C44	C	0.438525	0.547843	-0.123067
C45	C	0.519141	0.372593	0.050571
C46	C	0.519058	0.478744	0.053092
C47	C	0.323891	1.013152	0.000048
C48	C	0.276796	1.013165	0.000034
C49	C	0.011885	0.894406	0.059468
C50	C	-0.165100	0.894383	0.059490
O51	O	-0.164942	0.793436	0.110012
N52	N	-0.214325	1.013078	0.000132
C53	C	-0.219304	1.131787	-0.059229
O54	O	-0.265234	1.232744	-0.109707
C55	C	-0.042319	1.131809	-0.059245
C56	C	0.006906	1.013106	0.000108
C57	C	0.061108	0.775712	0.118817
C58	C	0.105351	0.775719	0.118805
C59	C	0.100372	0.894419	0.059445
C60	C	0.051149	1.013113	0.000097
C61	C	-0.047298	1.250517	-0.118599
C62	C	-0.003047	1.250511	-0.118595
C63	C	0.046178	1.131808	-0.059243
C64	C	0.090413	1.131820	-0.059275
N65	N	0.139639	1.013124	0.000084
C66	C	0.144618	0.894424	0.059444
C67	C	-0.312221	1.131768	-0.059219
C68	C	-0.356467	1.131763	-0.059217
C69	C	-0.302260	0.894358	0.059505
C70	C	-0.258014	0.894364	0.059495
C71	C	-0.262996	1.013073	0.000139
C72	C	0.237530	0.894448	0.059415
C73	C	0.281775	0.894465	0.059394
C74	C	0.227564	1.131869	-0.059322
C75	C	0.183323	1.131853	-0.059307
C76	C	0.188310	1.013131	0.000070
O77	O	0.090294	1.232714	-0.109760
O78	O	0.190552	0.793482	0.109934
C79	C	-0.032358	0.894399	0.059479
C80	C	-0.081581	1.013092	0.000130
C81	C	-0.086560	1.131792	-0.059230
C82	C	-0.125827	1.013087	0.000132
C83	C	-0.120848	0.894387	0.059492
C84	C	-0.071622	0.775692	0.118850
C85	C	-0.027379	0.775699	0.118839
C86	C	-0.135786	1.250487	-0.118588
C87	C	-0.180027	1.250471	-0.118573
C88	C	-0.175047	1.131771	-0.059213
C89	C	0.601417	1.013076	0.000129
C90	C	0.648512	1.013063	0.000143
C91	C	0.462655	1.013126	-0.303815
C92	C	0.462655	1.013130	-0.406957
C93	C	0.462655	1.317017	0.000075
C94	C	0.462656	1.420159	0.000070
C95	C	0.429911	1.156560	-0.517969
C96	C	0.429735	1.156611	-0.625275
C97	C	0.438945	0.941464	-0.518086
C98	C	0.438698	0.942418	-0.411249
C99	C	0.519125	0.940291	-0.410074
C100	C	0.519038	0.942955	-0.518727
C101	C	0.462653	1.013102	0.303992
C102	C	0.462653	1.013098	0.407134
C103	C	0.601416	0.709172	0.000143
C104	C	0.648510	0.606017	0.000161
C105	C	0.462652	0.709199	0.304006
C106	C	0.462651	0.606053	0.407153
C107	C	0.601415	0.709161	0.304046
C108	C	0.648510	0.606002	0.407207
C109	C	0.323892	1.317067	-0.303869
C110	C	0.276798	1.420226	-0.407030
C111	C	0.323892	1.317056	0.000034
C112	C	0.276797	1.420211	0.000016
C113	C	0.462656	1.317029	-0.303829
C114	C	0.462656	1.420175	-0.406976
C115	C	0.643530	0.557584	-0.059191
C116	C	0.687777	0.460673	-0.059197
C117	C	0.737002	0.412189	0.000158
C118	C	0.741981	0.460632	0.059512
C119	C	0.697736	0.557548	0.059511
C120	C	0.697727	0.557552	0.396317
C121	C	0.741981	0.460637	0.493238
C122	C	0.737017	0.412166	0.601048
C123	C	0.687795	0.460626	0.611936
C124	C	0.643542	0.557546	0.515016
C125	C	0.227581	1.468688	-0.396140
C126	C	0.183327	1.565633	-0.493061
C127	C	0.188291	1.614109	-0.600871
C128	C	0.237513	1.565643	-0.611759
C129	C	0.281766	1.468706	-0.514839
C130	C	0.281777	1.468654	0.059358
C131	C	0.237531	1.565592	0.059337
C132	C	0.188305	1.614079	-0.000021
C133	C	0.183326	1.565632	-0.059371
C134	C	0.227572	1.468702	-0.059356
C135	C	0.429753	0.459741	0.482136
C136	C	0.429893	0.566671	0.374797
C137	C	0.519056	0.479178	0.481732
C138	C	0.518878	0.371793	0.588601
C139	C	0.439610	0.546787	0.590156
C140	C	0.438466	0.655267	0.481474
H141	H	0.543534	0.346614	-0.001664
H142	H	0.396912	0.745776	0.430036
N143	N	0.242860	1.617925	-0.728044
H144	H	0.280754	1.572521	-0.720249
H145	H	0.225680	1.715216	-0.770843
H146	H	-0.316286	1.228440	-0.107562
N147	N	0.130243	1.617867	-0.481298
H148	H	0.102958	1.686635	-0.559050
H149	H	0.126147	1.657978	-0.438426
N150	N	0.140589	1.718611	-0.000011
H151	H	0.119292	1.684888	0.033766
H152	H	0.119326	1.799016	-0.080411
H153	H	0.152252	1.693041	-0.679780
H154	H	0.321840	1.429249	-0.523719
H155	H	0.773055	0.333248	0.679957
H156	H	0.396959	0.588554	-0.163494
H157	H	0.545475	0.838287	-0.493189
H158	H	0.241595	1.605021	0.107671
N159	N	0.795075	0.408322	0.123545
H160	H	0.799231	0.482243	0.092430
H161	H	0.822313	0.339553	0.114523
H162	H	-0.007109	1.347181	-0.166917
H163	H	0.782056	0.421191	0.484353
H164	H	0.445715	1.213166	-0.520480
H165	H	0.701798	0.596970	0.107849
H166	H	0.143241	1.605125	-0.107699
H167	H	0.223510	1.429262	-0.107676
H168	H	0.603468	0.596981	0.523899
H169	H	0.701778	0.597002	0.308541
N170	N	0.242911	0.766402	0.123456
H171	H	0.280810	0.691221	0.161045
H172	H	0.225732	0.761226	0.068972
N173	N	0.374704	0.684340	0.025457
H174	H	0.350397	0.666418	0.005114
H175	H	0.370104	0.763048	-0.044454
H176	H	0.321855	1.429183	0.107702
H177	H	0.460726	0.525871	-0.179673
H178	H	0.388358	0.656036	0.320511
H179	H	0.683761	0.421147	0.699728
N180	N	0.383663	1.009095	-0.411443
H181	H	0.382952	1.010385	-0.342186
H182	H	0.369488	0.959671	-0.410334
H183	H	0.388112	0.496992	0.479787
N184	N	0.222220	1.416410	-0.279867
H185	H	0.184323	1.461836	-0.287692
H186	H	0.239402	1.433260	-0.237064
N187	N	0.468684	0.693211	-0.197671
H188	H	0.483101	0.637580	-0.227528
H189	H	0.498061	0.679069	-0.151767
N190	N	0.450730	0.340975	0.480757
H191	H	0.481454	0.261625	0.551711
H192	H	0.461832	0.355726	0.411946
N193	N	0.451168	0.341300	0.192911
H194	H	0.423498	0.326096	0.211481
H195	H	0.462097	0.357342	0.246025
H196	H	0.388502	1.212297	-0.518883
N197	N	0.451060	0.517041	0.303552
H198	H	0.487551	0.435231	0.348948
H199	H	0.451203	0.586453	0.233449
H200	H	0.537328	0.281034	0.588336
H201	H	0.544726	0.341826	0.667193
N202	N	0.552944	0.508621	0.517814
H203	H	0.532008	0.604718	0.486085
H204	H	0.582941	0.486071	0.488211
N205	N	0.466908	0.697814	0.515297
H206	H	0.496007	0.685731	0.482781
H207	H	0.481589	0.643068	0.600696
N208	N	0.543672	0.428090	0.413390
H209	H	0.518382	0.486921	0.334137
H210	H	0.553284	0.336412	0.450782
H211	H	0.397601	0.747396	-0.164143
N212	N	0.385426	0.599222	0.595600
H213	H	0.375269	0.541395	0.600044
H214	H	0.360537	0.691204	0.525402
N215	N	0.471202	0.513950	0.693767
H216	H	0.500299	0.417536	0.742415
H217	H	0.448313	0.535643	0.738677
H218	H	0.445912	0.529967	0.162813
H219	H	0.461659	0.835930	-0.490802
N220	N	0.375209	0.506416	0.026160
H221	H	0.358908	0.585352	-0.055254
H222	H	0.354580	0.531137	0.072998
H223	H	0.536900	0.439134	0.144110
N224	N	0.545563	0.248444	0.169247
H225	H	0.525234	0.265067	0.219570
H226	H	0.581741	0.219723	0.199931
N227	N	0.553932	0.507204	-0.009189
H228	H	0.533570	0.603466	-0.072921
H229	H	0.567923	0.453968	-0.041343
H230	H	0.145429	0.679059	0.167132
N231	N	0.334866	0.766424	0.123411
H232	H	0.339017	0.714527	0.206436
H233	H	0.362112	0.784533	0.114311
N234	N	0.066485	0.647675	0.182848
H235	H	0.104385	0.572497	0.220438
H236	H	0.049309	0.642499	0.128359
H237	H	-0.217935	0.797706	0.107836
N238	N	-0.296893	0.766328	0.123526
H239	H	-0.332394	0.784348	0.114515
H240	H	-0.277326	0.714497	0.206523
H241	H	-0.396545	1.228423	-0.107563
H242	H	0.388078	1.212550	-0.678930
N243	N	-0.100384	1.378546	-0.182604
H244	H	-0.104536	1.430455	-0.265628
H245	H	-0.104486	1.430312	-0.151374
N246	N	0.130226	1.259870	-0.123328
H247	H	0.126071	1.311770	-0.206355
H248	H	0.126115	1.311660	-0.092118
N249	N	0.222199	1.259891	-0.123350
H250	H	0.257700	1.241873	-0.114342
H251	H	0.202636	1.311720	-0.092191
H252	H	0.012699	0.679038	0.167173
N253	N	-0.066261	0.647670	0.182864
H254	H	-0.083410	0.642385	0.242581
H255	H	-0.028356	0.572537	0.220397
N256	N	-0.233119	1.378509	-0.182597
H257	H	-0.229554	1.453699	-0.220196
H258	H	-0.252651	1.383671	-0.128098
H259	H	-0.139848	1.347149	-0.166929
N260	N	0.545379	1.001535	-0.404865
H261	H	0.555251	1.034497	-0.475133
H262	H	0.577522	0.933974	-0.335509
H263	H	0.445625	1.212782	-0.679706
N264	N	0.468261	0.803008	-0.307097
H265	H	0.481394	0.741208	-0.330726
H266	H	0.444622	0.791369	-0.262515
H267	H	0.773026	0.333272	0.000151
N268	N	0.384438	1.006564	-0.586250
H269	H	0.375015	1.082442	-0.665552
H270	H	0.359649	1.039650	-0.548805
N271	N	0.542507	1.012136	-0.587049
H272	H	0.516726	1.088594	-0.665698
H273	H	0.574783	0.949060	-0.592461
H274	H	0.543632	0.834629	-0.331831
H275	H	0.603452	0.597059	-0.107539
H276	H	0.683712	0.421243	-0.107530
