data_functionalizedCrystal
_audit_creation_method	'MofGen! by Chris Wilmer'
_symmetry_space_group_name_H-M	'P1'
_symmetry_Int_Tables_number	1
_symmetry_cell_setting	triclinic
loop_
_symmetry_equiv_pos_as_xyz
  x,y,z
_cell_length_a	14.853567
_cell_length_b	14.853567
_cell_length_c	13.930277
_cell_angle_alpha	89.999243
_cell_angle_beta	89.995755
_cell_angle_gamma	83.634930
loop_
_atom_site_label
_atom_site_type_symbol
_atom_site_fract_x
_atom_site_fract_y
_atom_site_fract_z
O1	O	-1.196368	-0.117704	0.079756
O2	O	-0.933909	-0.131725	0.079772
O3	O	-1.072149	0.006516	0.079767
O4	O	-1.058128	-0.255944	0.079762
O5	O	-1.072130	0.006519	-0.079895
O6	O	-0.933890	-0.131722	-0.079890
O7	O	-1.196349	-0.117701	-0.079905
Zn8	Zn	-1.065116	-0.124711	-0.105247
Zn9	Zn	-1.065142	-0.124715	0.105114
O10	O	-1.058109	-0.255941	-0.079900
C11	C	-0.900311	-0.131088	-0.000057
C12	C	-0.800227	-0.129184	-0.000051
C13	C	-1.071504	0.040106	-0.000061
C14	C	-1.069601	0.140189	-0.000053
C15	C	-1.229947	-0.118337	-0.000075
C16	C	-1.330031	-0.120241	-0.000075
C17	C	-0.387693	-0.039019	-0.000070
C18	C	-0.366412	-0.203251	-0.000073
C19	C	-0.460446	-0.205042	-0.000070
C20	C	-0.518108	-0.123819	-0.000066
C21	C	-0.481736	-0.040806	-0.000065
C22	C	-0.496825	-0.288053	-0.000061
C23	C	-0.590864	-0.289846	-0.000057
C24	C	-0.648528	-0.208623	-0.000060
C25	C	-0.612150	-0.125607	-0.000060
C26	C	-0.669812	-0.044384	-0.000056
C27	C	-0.633437	0.038633	-0.000063
C28	C	-0.539399	0.040417	-0.000067
C29	C	-0.742565	-0.210407	-0.000055
C30	C	-0.763855	-0.046172	-0.000050
C31	C	-1.058754	-0.289531	-0.000070
C32	C	-1.060657	-0.389615	-0.000072
N33	N	-1.065106	-0.124708	-0.248814
C34	C	-0.979435	0.552723	-0.000066
C35	C	-1.143668	0.574004	-0.000076
C36	C	-1.145458	0.479971	-0.000070
C37	C	-1.064235	0.422309	-0.000064
C38	C	-0.981223	0.458680	-0.000063
C39	C	-1.228469	0.443591	-0.000080
C40	C	-1.230262	0.349552	-0.000076
C41	C	-1.149039	0.291889	-0.000063
C42	C	-1.066023	0.328266	-0.000061
C43	C	-0.984800	0.270604	-0.000055
C44	C	-0.901783	0.306979	-0.000047
C45	C	-0.899999	0.401017	-0.000050
C46	C	-1.150823	0.197851	-0.000059
C47	C	-0.986588	0.176561	-0.000052
C48	C	-1.003926	-0.185904	-0.701081
C49	C	-1.126382	-0.063519	-0.701055
C50	C	-1.126371	-0.063516	-0.600559
C51	C	-1.065138	-0.124709	-0.550319
C52	C	-1.003916	-0.185904	-0.600576
C53	C	-1.187598	-0.002328	-0.550295
C54	C	-1.187591	-0.002323	-0.449793
C55	C	-1.126353	-0.063512	-0.399552
C56	C	-1.065127	-0.124710	-0.449814
C57	C	-1.003894	-0.185902	-0.399575
C58	C	-0.942664	-0.247096	-0.449835
C59	C	-0.942677	-0.247094	-0.550334
C60	C	-1.126339	-0.063515	-0.299053
C61	C	-1.003883	-0.185903	-0.299070
N62	N	-1.065160	-0.124711	0.248680
H63	H	-0.810798	0.019971	-0.000050
H64	H	-0.620472	-0.357443	-0.000051
H65	H	-1.237457	0.047489	-0.591203
C66	C	-0.812442	0.243550	-0.000041
H67	H	-0.762743	0.278676	-0.000042
H68	H	-0.809737	0.206420	0.055633
H69	H	-0.809723	0.206428	-0.055729
H70	H	-0.680397	0.104764	-0.000053
H71	H	-1.294596	0.490546	-0.000094
H72	H	-0.449870	-0.354180	-0.000054
C73	C	-0.875312	-0.314409	-0.394570
H74	H	-0.838851	-0.350858	-0.438891
H75	H	-0.837749	-0.281909	-0.355365
H76	H	-0.907795	-0.352000	-0.355365
H77	H	-0.954071	-0.235724	-0.742005
H78	H	-0.892827	-0.296916	-0.591263
H79	H	-1.297860	0.319944	-0.000082
H80	H	-0.319459	-0.269379	-0.000068
C81	C	-0.808691	0.441032	-0.000055
H82	H	-0.819262	0.505295	-0.000070
H83	H	-0.775244	0.421256	0.055623
H84	H	-0.775244	0.421244	-0.055739
C85	C	-1.193733	0.003787	-0.756315
H86	H	-1.184968	-0.004975	-0.823367
H87	H	-1.253909	-0.006110	-0.739831
H88	H	-1.183859	0.063977	-0.739851
C89	C	-1.193682	0.003786	-0.243766
H90	H	-1.184910	-0.004980	-0.176717
H91	H	-1.183830	0.063975	-0.260241
H92	H	-1.253863	-0.006128	-0.260222
H93	H	-0.772178	-0.277998	-0.000051
C94	C	-0.499389	0.131727	-0.000063
H95	H	-0.547196	0.179846	-0.000068
H96	H	-0.463150	0.135833	0.055615
H97	H	-0.463144	0.135840	-0.055747
C98	C	-0.347685	0.052293	-0.000074
H99	H	-0.283422	0.041730	-0.000073
H100	H	-0.367473	0.085743	-0.055748
H101	H	-0.367469	0.085735	0.055614
C102	C	-0.897241	0.113140	-0.000047
H103	H	-0.847548	0.148274	-0.000048
H104	H	-0.894531	0.076011	0.055629
H105	H	-0.894517	0.076017	-0.055733
C106	C	-0.888123	0.592731	-0.000061
H107	H	-0.898687	0.656995	-0.000068
H108	H	-0.854681	0.572944	0.055617
H109	H	-0.854674	0.572946	-0.055745
C110	C	-1.242127	0.157836	-0.000072
H111	H	-1.231560	0.093573	-0.000074
H112	H	-1.275588	0.177624	0.055599
H113	H	-1.275560	0.177616	-0.055764
C114	C	-1.233005	0.637428	-0.000085
H115	H	-1.220051	0.698643	-0.000082
H116	H	-1.267034	0.626387	-0.055761
H117	H	-1.267041	0.626395	0.055601
C118	C	-0.936527	-0.253218	-0.243814
H119	H	-0.900071	-0.289664	-0.288142
H120	H	-0.898960	-0.220721	-0.204611
H121	H	-0.969004	-0.290814	-0.204608
C122	C	-1.254932	0.064994	-0.394515
H123	H	-1.291396	0.101441	-0.438831
H124	H	-1.292494	0.032500	-0.355296
H125	H	-1.222443	0.102586	-0.355325
