data_functionalizedCrystal
_audit_creation_method	'MofGen! by Chris Wilmer'
_symmetry_space_group_name_H-M	'P1'
_symmetry_Int_Tables_number	1
_symmetry_cell_setting	triclinic
loop_
_symmetry_equiv_pos_as_xyz
  x,y,z
_cell_length_a	13.032831
_cell_length_b	17.637651
_cell_length_c	13.032268
_cell_angle_alpha	95.517745
_cell_angle_beta	89.113023
_cell_angle_gamma	92.682084
loop_
_atom_site_label
_atom_site_type_symbol
_atom_site_fract_x
_atom_site_fract_y
_atom_site_fract_z
Zn1	Zn	1.381839	-0.508243	0.630045
Zn2	Zn	1.377848	-0.620370	0.424798
Zn3	Zn	1.238912	-0.476804	0.445613
Zn4	Zn	1.185030	-0.616301	0.576130
O5	O	1.295908	-0.555429	0.519147
O6	O	1.521820	-0.537977	0.616670
O7	O	1.380298	-0.589871	0.287041
O8	O	1.282092	-0.375669	0.501353
O9	O	1.518888	-0.620356	0.465876
O10	O	1.387099	-0.398767	0.636854
O11	O	1.278222	-0.484394	0.302334
O12	O	1.091255	-0.480449	0.449074
O13	O	1.190258	-0.613421	0.723801
O14	O	1.051668	-0.582936	0.544965
O15	O	1.334852	-0.534031	0.763411
O16	O	1.328051	-0.725135	0.413598
O17	O	1.186388	-0.722146	0.524781
C18	C	1.035028	-0.527840	0.493428
C19	C	0.923415	-0.516057	0.482444
C20	C	0.854092	-0.561579	0.524879
C21	C	0.738734	-0.549402	0.513528
C22	C	1.250963	-0.750950	0.461105
C23	C	1.231823	-0.834607	0.436317
C24	C	1.441920	-1.169577	0.707838
C25	C	1.423906	-1.248181	0.684525
C26	C	1.314665	-1.224235	0.543312
C27	C	1.332675	-1.145628	0.566610
C28	C	1.396302	-1.118306	0.648875
C29	C	1.287057	-1.094357	0.507647
C30	C	1.305061	-1.015756	0.530946
C31	C	1.368683	-0.988427	0.613209
C32	C	1.414306	-1.039705	0.672174
C33	C	1.223424	-1.121681	0.425387
C34	C	1.177806	-1.070409	0.366424
C35	C	1.195815	-0.991807	0.389718
C36	C	1.259437	-0.964478	0.471981
C37	C	1.150192	-0.940529	0.330753
C38	C	1.168196	-0.861929	0.354052
C39	C	1.277441	-0.885878	0.495280
C40	C	1.557805	-0.583127	0.544966
C41	C	1.669411	-0.594930	0.555968
C42	C	1.256990	-0.576779	0.781060
C43	C	1.240405	-0.585877	0.892671
C44	C	1.341051	-0.359150	0.577440
C45	C	1.360289	-0.275508	0.602281
C46	C	1.334744	-0.534115	0.258274
C47	C	1.351572	-0.524825	0.146745
C48	C	1.304554	-0.550652	0.962030
C49	C	1.287414	-0.560055	1.077387
H50	H	1.329262	-0.863632	0.562262
Br51	Br	1.127708	-0.647737	0.936031
Br52	Br	1.464279	-0.462966	1.103394
H53	H	0.897362	-0.468067	0.437716
Br54	Br	1.500677	-1.002618	0.783806
Br55	Br	1.228305	-1.261323	0.431681
H56	H	0.712686	-0.501408	0.468796
H57	H	1.383341	-0.924425	0.632177
Br58	Br	1.417219	-0.488759	0.918675
Br59	Br	0.897503	-0.641567	0.599438
H60	H	0.695457	-0.642917	0.600712
Br61	Br	1.091445	-1.107497	0.254792
H62	H	1.493741	-1.147331	0.774819
H63	H	1.461042	-1.289925	0.732559
Br64	Br	1.063822	-0.977620	0.219130
Br65	Br	1.174712	-0.621918	1.120741
H66	H	1.208756	-1.185683	0.406428
H67	H	1.131047	-0.820183	0.306039
