data_functionalizedCrystal
_audit_creation_method	'MofGen! by Chris Wilmer'
_symmetry_space_group_name_H-M	'P1'
_symmetry_Int_Tables_number	1
_symmetry_cell_setting	triclinic
loop_
_symmetry_equiv_pos_as_xyz
  x,y,z
_cell_length_a	18.215407
_cell_length_b	21.295417
_cell_length_c	18.215399
_cell_angle_alpha	89.965438
_cell_angle_beta	89.983176
_cell_angle_gamma	90.030955
loop_
_atom_site_label
_atom_site_type_symbol
_atom_site_fract_x
_atom_site_fract_y
_atom_site_fract_z
Zn1	Zn	1.125021	-0.250593	-0.416094
Zn2	Zn	1.124924	-0.355869	-0.293019
Zn3	Zn	1.001960	-0.250618	-0.293042
Zn4	Zn	1.001908	-0.355829	-0.416044
O5	O	1.063453	-0.303227	-0.354550
O6	O	1.227993	-0.264564	-0.399780
O7	O	1.108594	-0.341934	-0.190038
O8	O	1.018347	-0.162525	-0.309396
O9	O	1.227921	-0.341910	-0.309357
O10	O	1.108760	-0.162507	-0.399802
O11	O	1.018253	-0.264607	-0.190054
O12	O	0.898969	-0.264569	-0.309347
O13	O	1.018258	-0.341843	-0.519035
O14	O	0.898930	-0.341867	-0.399716
O15	O	1.108709	-0.264526	-0.519072
O16	O	1.108543	-0.443953	-0.309308
O17	O	1.018163	-0.443924	-0.399694
C18	C	0.872247	-0.303217	-0.354529
C19	C	0.790448	-0.303227	-0.354537
C20	C	0.602253	-0.343540	-0.401533
C21	C	0.525395	-0.343542	-0.401542
C22	C	0.525405	-0.262927	-0.307582
C23	C	0.602263	-0.262922	-0.307577
C24	C	0.640685	-0.303232	-0.354552
C25	C	0.486969	-0.303239	-0.354566
C26	C	0.403635	-0.303240	-0.354575
C27	C	0.724024	-0.303229	-0.354543
C28	C	1.063357	-0.466779	-0.354509
C29	C	1.063383	-0.536747	-0.354516
C30	C	1.110485	-0.569608	-0.307500
C31	C	1.110520	-0.635350	-0.307517
C32	C	1.063439	-0.668230	-0.354542
C33	C	1.016333	-0.635361	-0.401566
C34	C	1.016305	-0.569620	-0.401554
N35	N	0.999060	-0.771496	-0.360145
N36	N	0.999088	-0.833947	-0.360153
C37	C	1.063521	-0.866304	-0.354584
N38	N	1.127926	-0.833851	-0.348993
N39	N	1.127896	-0.771394	-0.348981
C40	C	1.063464	-0.739515	-0.354561
C41	C	1.110665	-0.970451	-0.307584
C42	C	1.110701	-1.036194	-0.307605
C43	C	1.016507	-1.036203	-0.401651
C44	C	1.016478	-0.970461	-0.401633
C45	C	1.063556	-0.937589	-0.354595
C46	C	1.255406	-0.303239	-0.354571
C47	C	1.337205	-0.303243	-0.354581
C48	C	1.063488	-0.303177	-0.546503
C49	C	1.063503	-0.303156	-0.628302
C50	C	1.063570	-0.139037	-0.354607
C51	C	1.063620	-0.069069	-0.354631
C52	C	1.016502	-0.262864	-0.816505
C53	C	1.016515	-0.262852	-0.893364
C54	C	1.110592	-0.343372	-0.893336
C55	C	1.110575	-0.343387	-0.816479
C56	C	1.063531	-0.303130	-0.778065
C57	C	1.063561	-0.303102	-0.931781
C58	C	1.063575	-0.303088	-1.015115
C59	C	1.063516	-0.303144	-0.694726
C60	C	1.063461	-0.303232	-0.163344
C61	C	1.063589	-0.303076	-0.081545
H62	H	0.633554	-0.230095	-0.269319
C63	C	0.964720	-1.072360	-0.453381
H64	H	0.936664	-1.043370	-0.481383
H65	H	0.932683	-1.098051	-0.425208
H66	H	0.992869	-1.097959	-0.485480
C67	C	1.162516	-1.072342	-0.255885
H68	H	1.190542	-1.043346	-0.227866
H69	H	1.194578	-1.097943	-0.284067
H70	H	1.134387	-1.098030	-0.223799
C71	C	0.644515	-0.387873	-0.453209
H72	H	0.610616	-0.411874	-0.481196
H73	H	0.674474	-0.415271	-0.425002
H74	H	0.674520	-0.363818	-0.485326
H75	H	0.978120	-0.943704	-0.439914
C76	C	1.162342	-0.387645	-0.935593
H77	H	1.155624	-0.381865	-0.986872
H78	H	1.151544	-0.429944	-0.922980
H79	H	1.211794	-0.378430	-0.923003
C80	C	1.162310	-0.387681	-0.774192
H81	H	1.190338	-0.411648	-0.808076
H82	H	1.134133	-0.415112	-0.744195
H83	H	1.194387	-0.363602	-0.744223
H84	H	0.494113	-0.230108	-0.269336
C85	C	0.483123	-0.387878	-0.453224
H86	H	0.517016	-0.411885	-0.481195
H87	H	0.453169	-0.363832	-0.485343
H88	H	0.453114	-0.415281	-0.425015
C89	C	0.964753	-0.218589	-0.774249
H90	H	0.971482	-0.224359	-0.722970
H91	H	0.915304	-0.227798	-0.786838
H92	H	0.975559	-0.176289	-0.786866
C93	C	1.162277	-0.533452	-0.255770
H94	H	1.190340	-0.562442	-0.227776
H95	H	1.134139	-0.507846	-0.223673
H96	H	1.194318	-0.507766	-0.283953
H97	H	0.978219	-0.230064	-0.924659
H98	H	1.148879	-0.662111	-0.269231
H99	H	0.978001	-0.662135	-0.439855
H100	H	1.149001	-0.943685	-0.269285
C101	C	0.964486	-0.533471	-0.453269
H102	H	0.936448	-0.562466	-0.481277
H103	H	0.992605	-0.507779	-0.485353
H104	H	0.932424	-0.507872	-0.425076
