data_functionalizedCrystal
_audit_creation_method	'MofGen! by Chris Wilmer'
_symmetry_space_group_name_H-M	'P1'
_symmetry_Int_Tables_number	1
_symmetry_cell_setting	triclinic
loop_
_symmetry_equiv_pos_as_xyz
  x,y,z
_cell_length_a	17.639181
_cell_length_b	19.805405
_cell_length_c	19.805399
_cell_angle_alpha	90.027486
_cell_angle_beta	101.207130
_cell_angle_gamma	101.164711
loop_
_atom_site_label
_atom_site_type_symbol
_atom_site_fract_x
_atom_site_fract_y
_atom_site_fract_z
Zn1	Zn	1.208182	0.478433	-0.173132
Zn2	Zn	1.208080	0.591604	-0.059961
Zn3	Zn	1.076023	0.455595	-0.082882
Zn4	Zn	1.075978	0.568721	-0.196024
O5	O	1.142066	0.523588	-0.128000
O6	O	1.318763	0.512580	-0.138946
O7	O	1.190538	0.573581	0.031711
O8	O	1.093617	0.363919	-0.094866
O9	O	1.318687	0.595726	-0.055800
O10	O	1.190713	0.380698	-0.161172
O11	O	1.093517	0.473656	0.014871
O12	O	0.965423	0.451467	-0.117064
O13	O	1.093539	0.556725	-0.287700
O14	O	0.965390	0.534580	-0.200189
O15	O	1.190669	0.490391	-0.270881
O16	O	1.190494	0.683274	-0.077999
O17	O	1.093439	0.666462	-0.177964
C18	C	0.936731	0.488063	-0.163598
C19	C	0.848888	0.472881	-0.178844
C20	C	0.559815	0.639072	-0.012192
C21	C	0.477273	0.624797	-0.026523
C22	C	0.477351	0.538357	-0.113231
C23	C	0.559894	0.552622	-0.098905
C24	C	0.601120	0.602981	-0.048385
C25	C	0.601199	0.516531	-0.135099
C26	C	0.683736	0.530798	-0.120776
C27	C	0.724967	0.581156	-0.070260
C28	C	0.683657	0.617248	-0.034063
C29	C	0.559972	0.466176	-0.185622
C30	C	0.601277	0.430085	-0.221815
C31	C	0.683815	0.444348	-0.207489
C32	C	0.725046	0.494706	-0.156973
C33	C	0.725125	0.408256	-0.243686
C34	C	0.807662	0.422522	-0.229363
C35	C	0.807583	0.508972	-0.142650
C36	C	1.141972	0.699428	-0.127989
C37	C	1.142004	0.774666	-0.127994
C38	C	1.192589	0.818750	-0.075981
C39	C	1.192620	0.889444	-0.075993
C40	C	1.142063	0.916051	-0.128016
C41	C	1.091476	0.871962	-0.180035
C42	C	1.091449	0.801270	-0.180025
C43	C	1.091585	1.157054	-0.180075
C44	C	1.091615	1.227751	-0.180079
C45	C	1.192757	1.245228	-0.076042
C46	C	1.192729	1.174536	-0.076033
C47	C	1.142146	1.130453	-0.128053
C48	C	1.142113	1.053799	-0.128041
C49	C	1.142091	0.992703	-0.128026
C50	C	1.348202	0.559253	-0.092263
C51	C	1.436046	0.574451	-0.077034
C52	C	1.142110	0.523553	-0.304535
C53	C	1.142129	0.523539	-0.379764
C54	C	1.142175	1.347064	-0.128031
C55	C	1.142204	1.271837	-0.128068
C56	C	1.192706	0.488996	-0.406351
C57	C	1.192714	0.488978	-0.477038
C58	C	1.142149	0.523507	-0.521136
C59	C	1.091566	0.558050	-0.494545
C60	C	1.091555	0.558063	-0.423860
C61	C	1.091611	0.557994	-0.779610
C62	C	1.091628	0.557980	-0.850300
C63	C	1.192770	0.488909	-0.832789
C64	C	1.192758	0.488923	-0.762104
C65	C	1.142174	0.523463	-0.735519
C66	C	1.142164	0.523481	-0.658872
C67	C	1.142161	0.523493	-0.597781
C68	C	1.142067	0.523582	0.047856
C69	C	1.142201	0.523433	0.123111
H70	H	0.717225	0.658250	0.007080
H71	H	0.567699	0.389085	-0.262950
H72	H	1.050392	0.586160	-0.530456
O73	O	1.042550	0.591653	-0.753816
C74	C	1.004037	0.700119	-0.738881
C75	C	1.059670	0.662092	-0.768110
H76	H	1.017848	0.757073	-0.750439
H77	H	1.012698	0.694260	-0.680778
H78	H	0.940334	0.677160	-0.763831
H79	H	1.123394	0.685025	-0.743213
H80	H	1.050942	0.667949	-0.826215
O81	O	0.437234	0.659967	0.008620
C82	C	0.411875	0.770677	0.037246
C83	C	0.457283	0.730935	-0.002569
H84	H	0.428054	0.828061	0.028202
H85	H	0.428095	0.761583	0.094630
H86	H	0.345806	0.751796	0.018343
H87	H	0.523362	0.749792	0.016276
H88	H	0.440996	0.740030	-0.059946
H89	H	0.593384	0.680075	0.028951
H90	H	1.233900	0.460853	-0.498681
O91	O	1.042390	0.897916	-0.230502
C92	C	0.997633	0.999077	-0.276648
C93	C	1.053254	0.969777	-0.219444
H94	H	1.006410	1.057182	-0.267735
H95	H	0.933893	0.974256	-0.275764
H96	H	1.011460	0.987484	-0.328828
H97	H	1.039499	0.981361	-0.167235
H98	H	1.116978	0.994598	-0.220389
H99	H	1.233936	0.460809	-0.726201
O100	O	0.437178	0.489440	-0.162260
C101	C	0.310062	0.429175	-0.222784
C102	C	0.355456	0.484582	-0.167232
H103	H	0.243981	0.425239	-0.226832
H104	H	0.326248	0.377366	-0.208180
H105	H	0.326360	0.443936	-0.274505
H106	H	0.339182	0.469885	-0.115490
H107	H	0.339265	0.536376	-0.181895
O108	O	1.241705	0.932382	-0.025532
C109	C	1.252629	1.014266	0.067588
C110	C	1.196910	0.965637	0.010511
H111	H	1.216433	1.041155	0.096754
H112	H	1.293858	1.054434	0.043535
H113	H	1.288851	0.983168	0.104763
H114	H	1.160636	0.996678	-0.026684
H115	H	1.155733	0.925469	0.034612
O116	O	0.847913	0.387548	-0.264475
C117	C	0.975103	0.371188	-0.280805
C118	C	0.929618	0.410857	-0.240999
H119	H	1.041170	0.390009	-0.261831
H120	H	0.958957	0.380352	-0.338180
H121	H	0.958848	0.313793	-0.271843
H122	H	0.945848	0.468264	-0.249905
H123	H	0.945768	0.401636	-0.183638
O124	O	1.241889	1.288154	-0.025589
C125	C	1.286760	1.404804	0.020513
C126	C	1.231088	1.356272	-0.036668
H127	H	1.278036	1.459885	0.011584
H128	H	1.350484	1.401913	0.019620
H129	H	1.272937	1.388529	0.072704
H130	H	1.244840	1.372513	-0.088887
H131	H	1.167381	1.359169	-0.035714
O132	O	0.684952	0.359343	-0.292719
C133	C	0.557833	0.299090	-0.353250
C134	C	0.603229	0.354490	-0.297692
H135	H	0.491753	0.295159	-0.357299
H136	H	0.574014	0.247278	-0.338653
H137	H	0.574134	0.313857	-0.404969
H138	H	0.586953	0.339788	-0.245952
H139	H	0.587045	0.406287	-0.312348
H140	H	1.233895	1.152874	-0.033669
H141	H	0.841151	0.549975	-0.101508
H142	H	1.050397	1.121167	-0.222431
H143	H	0.492765	0.454564	-0.197283
H144	H	0.792174	0.592765	-0.058593
H145	H	1.233755	0.797091	-0.033615
H146	H	1.233956	0.460782	-0.854443
H147	H	1.050446	1.249413	-0.222448
H148	H	1.233884	0.460882	-0.370450
H149	H	1.050259	0.765377	-0.222380
O150	O	1.042616	0.591613	-0.893148
C151	C	1.031937	0.681103	-0.974813
C152	C	1.087526	0.643083	-0.926305
H153	H	1.068223	0.722716	-1.001644
H154	H	0.995794	0.705843	-0.943697
H155	H	0.990628	0.642858	-1.015047
H156	H	1.128883	0.681284	-0.886061
H157	H	1.123613	0.618331	-0.957466
O158	O	1.042409	0.591687	-0.398138
C159	C	0.942073	0.660182	-0.422964
C160	C	0.997702	0.622140	-0.452182
H161	H	0.905901	0.684801	-0.466647
H162	H	0.978300	0.701891	-0.383606
H163	H	0.900794	0.621969	-0.397009
H164	H	1.038992	0.660300	-0.478172
H165	H	0.961425	0.580421	-0.491506
