data_functionalizedCrystal
_audit_creation_method	'MofGen! by Chris Wilmer'
_symmetry_space_group_name_H-M	'P1'
_symmetry_Int_Tables_number	1
_symmetry_cell_setting	triclinic
loop_
_symmetry_equiv_pos_as_xyz
  x,y,z
_cell_length_a	34.408637
_cell_length_b	34.407814
_cell_length_c	34.404193
_cell_angle_alpha	60.004510
_cell_angle_beta	60.009006
_cell_angle_gamma	59.994604
loop_
_atom_site_label
_atom_site_type_symbol
_atom_site_fract_x
_atom_site_fract_y
_atom_site_fract_z
O1	O	0.053973	-0.567860	0.474801
O2	O	0.020377	-0.442124	0.382567
O3	O	0.100004	-0.521670	0.382483
O4	O	-0.025653	-0.488314	0.474886
O5	O	0.126426	-0.495253	0.408816
O6	O	0.046800	-0.415707	0.408900
O7	O	0.080396	-0.541443	0.501134
Zn8	Zn	0.067793	-0.474381	0.459198
Zn9	Zn	0.032980	-0.509186	0.424503
O10	O	0.000769	-0.461897	0.501219
N11	N	0.091552	-0.450631	0.482879
N12	N	0.009225	-0.532940	0.400823
C13	C	0.142848	-0.268847	0.534081
C14	C	0.142979	-0.399386	0.664559
C15	C	0.142862	-0.399365	0.534081
C16	C	0.273409	-0.399338	0.533986
C17	C	0.157225	-0.311914	0.548422
C18	C	0.157300	-0.385019	0.621491
C19	C	0.230339	-0.384991	0.548370
C20	C	0.157235	-0.385007	0.548422
C21	C	0.124548	-0.214028	0.515827
C22	C	0.124571	-0.417639	0.515827
C23	C	0.175526	-0.366733	0.566676
C24	C	0.353121	-0.385580	0.491988
C25	C	0.402952	-0.402180	0.475348
C26	C	0.402981	-0.482812	0.506096
C27	C	0.353151	-0.466211	0.522737
C28	C	0.136544	-0.189099	0.466839
C29	C	0.119905	-0.139265	0.450247
C30	C	0.079280	-0.139291	0.531632
C31	C	0.095918	-0.189125	0.548224
C32	C	0.075577	-0.405615	0.527900
C33	C	0.058953	-0.422228	0.511301
C34	C	0.140315	-0.462889	0.470566
C35	C	0.156941	-0.446276	0.487159
C36	C	0.075772	-0.405653	0.744326
C37	C	0.059206	-0.422280	0.794159
C38	C	0.140607	-0.462951	0.794094
C39	C	0.157172	-0.446325	0.744260
C40	C	0.124753	-0.417674	0.719377
C41	C	0.328223	-0.417595	0.515681
C42	C	-0.172390	-0.583988	0.349141
C43	C	-0.041751	-0.584138	0.218783
C44	C	-0.041941	-0.584130	0.349402
C45	C	-0.041957	-0.714607	0.349338
C46	C	-0.129326	-0.598388	0.334853
C47	C	-0.056165	-0.598473	0.261852
C48	C	-0.056282	-0.671535	0.334962
C49	C	-0.056272	-0.598469	0.334999
C50	C	-0.227205	-0.565659	0.367327
C51	C	-0.023703	-0.565882	0.367734
C52	C	-0.074511	-0.616717	0.316667
C53	C	-0.055754	-0.794298	0.391257
C54	C	-0.039181	-0.844132	0.407888
C55	C	0.041447	-0.844215	0.377269
C56	C	0.024873	-0.794381	0.360637
C57	C	-0.252183	-0.577666	0.416302
C58	C	-0.302014	-0.561001	0.432833
C59	C	-0.301886	-0.520329	0.351410
C60	C	-0.252055	-0.536994	0.334880
C61	C	-0.035709	-0.516892	0.355682
C62	C	-0.019129	-0.500308	0.372353
C63	C	0.021465	-0.581700	0.413115
C64	C	0.004884	-0.598286	0.396450
C65	C	-0.035389	-0.516907	0.139026
C66	C	-0.018707	-0.500324	0.089193
C67	C	0.021949	-0.581721	0.089240
C68	C	0.005268	-0.598303	0.139074
C69	C	-0.023402	-0.565894	0.163965
C70	C	-0.023728	-0.769425	0.367633
N71	N	0.427173	-0.450553	0.482630
O72	O	0.589997	-0.458460	0.365361
O73	O	0.590185	-0.550997	0.490963
O74	O	0.590104	-0.550786	0.411309
O75	O	0.590077	-0.458671	0.445016
O76	O	0.510940	-0.524462	0.437777
O77	O	0.511020	-0.524674	0.517432
O78	O	0.510832	-0.432136	0.391830
Zn79	Zn	0.498357	-0.474225	0.458833
Zn80	Zn	0.602660	-0.508908	0.423960
O81	O	0.510913	-0.432348	0.471484
N82	N	0.673844	-0.532580	0.400158
N83	N	0.091520	-0.115070	0.482873
O84	O	-0.025663	0.047841	0.474857
O85	O	0.099940	0.047877	0.382299
O86	O	0.020247	0.047844	0.382560
O87	O	0.054030	0.047874	0.474596
O88	O	0.046674	-0.031326	0.408942
O89	O	0.126367	-0.031293	0.408680
O90	O	0.000764	-0.031329	0.501238
Zn91	Zn	0.067761	-0.043881	0.459148
Zn92	Zn	0.032943	0.060429	0.424389
O93	O	0.080457	-0.031296	0.500977
N94	N	0.009178	0.131618	0.400665
N95	N	0.091852	-0.450680	0.818332
O96	O	0.083862	-0.567845	0.981235
O97	O	-0.008657	-0.442198	0.981276
O98	O	-0.008441	-0.521875	0.981252
O99	O	0.083646	-0.488168	0.981258
O100	O	0.017919	-0.495468	0.902085
O101	O	0.017703	-0.415791	0.902109
O102	O	0.110222	-0.541438	0.902067
Zn103	Zn	0.068148	-0.474422	0.889518
Zn104	Zn	0.033417	-0.509214	0.993825
O105	O	0.110006	-0.461761	0.902091
N106	N	0.009712	-0.532961	1.065011
C107	C	0.030439	-0.413071	0.383027
C108	C	0.129046	-0.511580	0.382922
C109	C	0.070334	-0.570496	0.500675
C110	C	-0.028274	-0.471987	0.500780
C111	C	0.550625	-0.550579	0.520021
C112	C	0.550527	-0.550317	0.421379
C113	C	0.550389	-0.432554	0.362773
C114	C	0.550491	-0.432816	0.461414
C115	C	0.128944	0.008394	0.382712
C116	C	0.030287	0.008256	0.383068
C117	C	-0.028273	0.008252	0.500793
C118	C	0.070417	0.008292	0.500470
C119	C	-0.008218	-0.413165	0.941698
C120	C	-0.007945	-0.511830	0.941653
C121	C	0.109783	-0.570471	0.941646
C122	C	0.109516	-0.471800	0.941673
H123	H	0.019320	-0.412483	0.814467
O124	O	-0.071271	0.008221	0.535519
C125	C	-0.120005	0.008247	0.615764
C126	C	-0.071285	0.008271	0.576484
H127	H	-0.120036	0.008298	0.648890
H128	H	-0.126980	-0.024901	0.624804
H129	H	-0.149081	0.041364	0.602661
H130	H	-0.042179	-0.024823	0.589554
H131	H	-0.064351	0.041441	0.567449
O132	O	0.078816	-0.613587	0.535253
C133	C	0.055867	-0.683587	0.587233
C134	C	0.046202	-0.634791	0.548084
H135	H	0.029511	-0.700749	0.597612
H136	H	0.051582	-0.678662	0.619725
H137	H	0.093690	-0.707491	0.573320
H138	H	0.008381	-0.610861	0.561952
H139	H	0.050518	-0.639752	0.515600
O140	O	0.172066	-0.519984	0.348244
C141	C	0.220895	-0.488627	0.267997
C142	C	0.172151	-0.479049	0.307223
H143	H	0.220982	-0.455534	0.234826
H144	H	0.227850	-0.519748	0.259022
H145	H	0.249953	-0.497681	0.281119
H146	H	0.143062	-0.469973	0.294133
H147	H	0.165236	-0.447941	0.316192
H148	H	0.077653	0.008301	0.529384
H149	H	-0.037264	-0.377079	0.941710
O150	O	-0.071349	-0.463562	0.535384
C151	C	-0.141239	-0.486678	0.587461
C152	C	-0.092471	-0.496265	0.548266
H153	H	-0.158326	-0.513118	0.597895
H154	H	-0.165245	-0.448884	0.573629
H155	H	-0.136232	-0.490952	0.619901
H156	H	-0.097432	-0.492017	0.515813
H157	H	-0.068482	-0.534055	0.562136
H158	H	-0.036863	-0.519031	0.941619
H159	H	0.138832	-0.606554	0.941627
H160	H	0.550485	-0.403881	0.468626
O161	O	0.143987	-0.463112	0.941647
C162	C	0.165748	-0.406566	0.941683
C163	C	0.126672	-0.416338	0.941702
H164	H	0.151760	-0.368753	0.941737
H165	H	0.198228	-0.410786	0.908536
H166	H	0.176177	-0.432944	0.974799
H167	H	0.116203	-0.389969	0.908608
H168	H	0.094218	-0.412135	0.974870
H169	H	0.049370	-0.382321	0.724071
H170	H	0.019058	-0.412426	0.521121
H171	H	0.550674	-0.579628	0.556096
O172	O	0.021913	-0.370023	0.348405
C173	C	0.017472	-0.327405	0.269126
C174	C	0.027151	-0.376187	0.308289
H175	H	0.021693	-0.332371	0.236687
H176	H	0.043856	-0.310237	0.258661
H177	H	-0.020336	-0.303486	0.283055
H178	H	0.064945	-0.400144	0.294394
H179	H	0.000737	-0.393317	0.318749
O180	O	0.550518	-0.584781	0.412706
C181	C	0.550503	-0.606568	0.356158
C182	C	0.550502	-0.567491	0.365919
H183	H	0.550499	-0.592606	0.318328
H184	H	0.517393	-0.617000	0.382505
H185	H	0.583654	-0.639041	0.360407
H186	H	0.517373	-0.534992	0.361664
H187	H	0.583633	-0.557099	0.339574
H188	H	0.550329	-0.403500	0.326702
O189	O	0.171869	0.008640	0.347915
C190	C	0.220458	0.009046	0.267527
C191	C	0.171826	0.008762	0.306893
H192	H	0.220436	0.009155	0.234348
H193	H	0.249686	-0.024016	0.280428
H194	H	0.227246	0.042248	0.258652
H195	H	0.164993	-0.024417	0.315785
H196	H	0.142625	0.041847	0.293971
O197	O	0.172163	-0.490791	0.818192
C198	C	0.254650	-0.529357	0.812868
C199	C	0.218966	-0.497827	0.785519
H200	H	0.292498	-0.535048	0.786464
H201	H	0.248965	-0.565228	0.836179
H202	H	0.248899	-0.511108	0.836214
H203	H	0.224695	-0.516035	0.762147
H204	H	0.224659	-0.461958	0.762238
O205	O	0.021592	0.008212	0.348634
C206	C	-0.034988	0.008183	0.326907
C207	C	-0.025204	0.008231	0.365945
H208	H	-0.072825	0.008208	0.340885
H209	H	-0.008660	-0.024962	0.316514
H210	H	-0.030728	0.041304	0.294405
H211	H	-0.029470	-0.024868	0.398472
H212	H	-0.051530	0.041397	0.376298
H213	H	0.166679	-0.486211	0.447227
H214	H	0.197059	-0.456117	0.723950
H215	H	0.049217	-0.382297	0.551240
H216	H	0.332881	-0.492283	0.542031
O217	O	0.204545	-0.457928	0.475347
C218	C	0.279128	-0.454057	0.412124
C219	C	0.225226	-0.440844	0.425436
H220	H	0.295864	-0.440242	0.371772
H221	H	0.295985	-0.494407	0.425820
H222	H	0.285434	-0.437275	0.428934
H223	H	0.218878	-0.457595	0.408631
H224	H	0.208397	-0.400490	0.411749
O225	O	0.427144	-0.530039	0.512920
C226	C	0.442411	-0.598776	0.498287
C227	C	0.415005	-0.545292	0.490534
H228	H	0.432614	-0.611122	0.480185
H229	H	0.432638	-0.619661	0.538048
H230	H	0.482300	-0.605131	0.482340
H231	H	0.375109	-0.538892	0.506454
H232	H	0.424818	-0.524434	0.450768
O233	O	0.427068	-0.371013	0.452321
C234	C	0.421786	-0.289290	0.423596
C235	C	0.394414	-0.324531	0.449675
H236	H	0.395397	-0.251702	0.421457
H237	H	0.445074	-0.290772	0.386110
H238	H	0.445155	-0.299315	0.443946
H239	H	0.371020	-0.314530	0.429365
H240	H	0.371156	-0.323043	0.487163
O241	O	0.016467	-0.645871	0.408204
C242	C	-0.012210	-0.711795	0.446453
C243	C	-0.025397	-0.657903	0.433186
H244	H	-0.046050	-0.721538	0.466644
H245	H	0.011048	-0.732133	0.469865
H246	H	0.008137	-0.721606	0.412637
H247	H	-0.045761	-0.648048	0.466975
H248	H	-0.048633	-0.637594	0.409755
H249	H	0.332825	-0.345993	0.486242
H250	H	0.159856	-0.209371	0.440456
H251	H	0.129672	-0.118967	0.410356
H252	H	0.055974	-0.119015	0.558014
H253	H	-0.028474	-0.460433	0.068892
O254	O	0.084321	-0.213305	0.595818
C255	C	0.088158	-0.228500	0.670421
C256	C	0.101334	-0.201103	0.616523
H257	H	0.101898	-0.218638	0.687179
H258	H	0.104974	-0.268405	0.676766
H259	H	0.047811	-0.218715	0.687228
H260	H	0.141674	-0.210848	0.599681
H261	H	0.084483	-0.161205	0.610212
O262	O	-0.063173	-0.485404	0.163180
C263	C	-0.069571	-0.420917	0.178426
C264	C	-0.038054	-0.456575	0.151051
H265	H	-0.049280	-0.397593	0.168622
H266	H	-0.079428	-0.441155	0.218333
H267	H	-0.103358	-0.397582	0.168565
H268	H	-0.004248	-0.479919	0.160873
H269	H	-0.028236	-0.436308	0.111151
O270	O	0.049802	-0.613268	0.065135
C271	C	0.088333	-0.695752	0.070441
C272	C	0.056793	-0.660080	0.097800
H273	H	0.093986	-0.733608	0.096839
H274	H	0.124216	-0.690093	0.047179
H275	H	0.070115	-0.689961	0.047045
H276	H	0.074968	-0.665849	0.121221
H277	H	0.020911	-0.665748	0.121031
H278	H	-0.058984	-0.490504	0.332300
O279	O	0.016827	-0.645881	0.163352
C280	C	-0.011886	-0.711807	0.219550
C281	C	-0.025043	-0.657919	0.192095
H282	H	-0.045730	-0.721559	0.242787
H283	H	0.008334	-0.721656	0.242969
H284	H	0.011484	-0.732110	0.193189
H285	H	-0.048428	-0.637580	0.218421
H286	H	-0.045239	-0.648108	0.168669
H287	H	-0.028907	-0.460416	0.362542
H288	H	0.050956	-0.774133	0.341399
O289	O	0.049287	-0.613226	0.440951
C290	C	0.122595	-0.677734	0.447427
C291	C	0.091129	-0.642068	0.415857
H292	H	0.156436	-0.701055	0.427147
H293	H	0.102298	-0.701069	0.481214
H294	H	0.132358	-0.657454	0.457283
H295	H	0.081357	-0.662309	0.405965
H296	H	0.111444	-0.618733	0.382092
O297	O	0.088676	-0.868384	0.370417
C298	C	0.166897	-0.863210	0.338318
C299	C	0.113425	-0.835777	0.346035
H300	H	0.186921	-0.836859	0.318613
H301	H	0.180976	-0.886536	0.316380
H302	H	0.172376	-0.886552	0.374281
H303	H	0.107906	-0.812410	0.310093
H304	H	0.099372	-0.812482	0.367994
H305	H	-0.095331	-0.773979	0.396956
O306	O	-0.070328	-0.868246	0.430776
C307	C	-0.128853	-0.883461	0.426213
C308	C	-0.093607	-0.856113	0.400238
H309	H	-0.147676	-0.873669	0.401531
H310	H	-0.156299	-0.873629	0.459418
H311	H	-0.108648	-0.923363	0.436913
H312	H	-0.113771	-0.816205	0.389506
H313	H	-0.066162	-0.865985	0.367054
O314	O	-0.228120	-0.605488	0.447887
C315	C	-0.233506	-0.644088	0.530393
C316	C	-0.260820	-0.612566	0.494678
H317	H	-0.259932	-0.649828	0.568231
H318	H	-0.210187	-0.625867	0.524735
H319	H	-0.210173	-0.679935	0.524650
H320	H	-0.284178	-0.576713	0.500400
H321	H	-0.284109	-0.630824	0.500345
H322	H	-0.322118	-0.496994	0.324987
O323	O	-0.326336	-0.572682	0.480397
C324	C	-0.382662	-0.610970	0.546299
C325	C	-0.355156	-0.597764	0.492425
H326	H	-0.405961	-0.631260	0.556042
H327	H	-0.406021	-0.577154	0.556104
H328	H	-0.356335	-0.634304	0.566643
H329	H	-0.381448	-0.574443	0.472045
H330	H	-0.331789	-0.631600	0.482658
H331	H	-0.231721	-0.527215	0.295000
