data_functionalizedCrystal
_audit_creation_method	'MofGen! by Chris Wilmer'
_symmetry_space_group_name_H-M	'P1'
_symmetry_Int_Tables_number	1
_symmetry_cell_setting	triclinic
loop_
_symmetry_equiv_pos_as_xyz
  x,y,z
_cell_length_a	19.288840
_cell_length_b	19.188930
_cell_length_c	18.366186
_cell_angle_alpha	89.988632
_cell_angle_beta	89.983729
_cell_angle_gamma	83.135398
loop_
_atom_site_label
_atom_site_type_symbol
_atom_site_fract_x
_atom_site_fract_y
_atom_site_fract_z
O1	O	0.921370	0.087016	-0.060679
O2	O	1.254704	0.420349	0.272654
O3	O	1.588037	0.753683	0.605987
O4	O	0.719108	0.098784	-0.060655
O5	O	1.052441	0.432117	0.272678
O6	O	1.385775	0.765450	0.606011
O7	O	0.826076	-0.008757	-0.060654
O8	O	1.159409	0.324576	0.272680
O9	O	1.492743	0.657910	0.606013
O10	O	0.814402	0.194556	-0.060681
O11	O	1.147736	0.527890	0.272653
O12	O	1.481069	0.861223	0.605986
O13	O	0.826058	-0.008762	0.060446
O14	O	1.159391	0.324571	0.393779
O15	O	1.492725	0.657905	0.727112
O16	O	0.719090	0.098778	0.060444
O17	O	1.052423	0.432112	0.393777
O18	O	1.385757	0.765445	0.727111
O19	O	0.921352	0.087011	0.060420
O20	O	1.254686	0.420344	0.393753
O21	O	1.588019	0.753677	0.727087
Zn22	Zn	0.820218	0.092894	0.079659
Zn23	Zn	1.153552	0.426227	0.412993
Zn24	Zn	1.486885	0.759560	0.746326
Zn25	Zn	0.820242	0.092901	-0.079894
Zn26	Zn	1.153575	0.426234	0.253439
Zn27	Zn	1.486909	0.759567	0.586772
O28	O	0.814384	0.194551	0.060419
O29	O	1.147718	0.527884	0.393752
O30	O	1.481051	0.861218	0.727085
C31	C	0.693222	0.098405	-0.000102
C32	C	1.026556	0.431739	0.333231
C33	C	1.359889	0.765072	0.666564
C34	C	0.616118	0.097277	-0.000092
C35	C	0.949451	0.430611	0.333241
C36	C	1.282784	0.763944	0.666574
C37	C	0.579924	0.096738	-0.066105
C38	C	0.913257	0.430072	0.267228
C39	C	1.246591	0.763405	0.600561
C40	C	0.507477	0.095671	-0.066114
C41	C	0.840810	0.429004	0.267219
C42	C	1.174144	0.762338	0.600552
C43	C	0.471228	0.095128	-0.000106
C44	C	0.804562	0.428462	0.333227
C45	C	1.137895	0.761795	0.666560
C46	C	0.507430	0.095671	0.065916
C47	C	0.840764	0.429005	0.399249
C48	C	1.174097	0.762338	0.732582
C49	C	0.579875	0.096746	0.065922
C50	C	0.913208	0.430079	0.399256
C51	C	1.246542	0.763413	0.732589
C52	C	0.361890	0.052528	0.050461
C53	C	0.695223	0.385861	0.383794
C54	C	1.028557	0.719195	0.717127
C55	C	0.289447	0.051449	0.050451
C56	C	0.622781	0.384782	0.383784
C57	C	0.956114	0.718116	0.717118
C58	C	0.247784	0.091817	-0.000125
C59	C	0.581118	0.425150	0.333209
C60	C	0.914451	0.758484	0.666542
C61	C	0.278575	0.133255	-0.050703
C62	C	0.611908	0.466588	0.282630
C63	C	0.945241	0.799922	0.615963
C64	C	0.351019	0.134330	-0.050696
C65	C	0.684353	0.467663	0.282637
C66	C	1.017686	0.800996	0.615970
C67	C	0.392674	0.093963	-0.000106
C68	C	0.726008	0.427297	0.333227
C69	C	1.059341	0.760630	0.666560
C70	C	0.133035	0.090121	-0.066152
C71	C	0.466369	0.423455	0.267181
C72	C	0.799702	0.756788	0.600515
C73	C	0.060586	0.089058	-0.066158
C74	C	0.393920	0.422392	0.267175
C75	C	0.727253	0.755725	0.600509
C76	C	0.060542	0.089052	0.065874
C77	C	0.393875	0.422385	0.399207
C78	C	0.727209	0.755718	0.732540
C79	C	0.132989	0.090122	0.065878
C80	C	0.466322	0.423455	0.399211
C81	C	0.799655	0.756789	0.732545
C82	C	0.169231	0.090653	-0.000137
C83	C	0.502565	0.423987	0.333196
C84	C	0.835898	0.757320	0.666530
C85	C	0.825689	-0.034770	-0.000102
C86	C	1.159022	0.298563	0.333231
C87	C	1.492356	0.631896	0.666565
C88	C	0.824554	-0.112275	-0.000096
C89	C	1.157887	0.221059	0.333238
C90	C	1.491221	0.554392	0.666571
C91	C	0.887319	-0.157209	-0.000100
C92	C	1.220653	0.176124	0.333234
C93	C	1.553986	0.509458	0.666567
C94	C	0.886253	-0.230033	-0.000111
C95	C	1.219587	0.103301	0.333222
C96	C	1.552920	0.436634	0.666556
C97	C	0.822418	-0.257919	-0.000104
C98	C	1.155752	0.075415	0.333229
C99	C	1.489085	0.408748	0.666563
C100	C	0.759645	-0.212975	-0.000104
C101	C	1.092978	0.120359	0.333229
C102	C	1.426311	0.453692	0.666563
C103	C	0.760713	-0.140153	-0.000100
C104	C	1.094046	0.193181	0.333233
C105	C	1.427379	0.526514	0.666567
N106	N	0.773618	-0.365917	0.041114
N107	N	1.106951	-0.032584	0.374448
N108	N	1.440285	0.300749	0.707781
N109	N	0.772608	-0.435096	0.041112
N110	N	1.105941	-0.101763	0.374445
N111	N	1.439274	0.231571	0.707778
C112	C	0.819197	-0.477327	-0.000118
C113	C	1.152530	-0.143994	0.333215
C114	C	1.485864	0.189340	0.666548
N115	N	0.866845	-0.447767	-0.041337
N116	N	1.200178	-0.114434	0.291997
N117	N	1.533512	0.218899	0.625330
N118	N	0.867857	-0.378583	-0.041331
N119	N	1.201191	-0.045250	0.292002
N120	N	1.534524	0.288084	0.625336
C121	C	0.821253	-0.336881	-0.000109
C122	C	1.154587	-0.003548	0.333224
C123	C	1.487920	0.329786	0.666558
C124	C	0.880811	-0.601225	-0.000136
C125	C	1.214144	-0.267892	0.333197
C126	C	1.547477	0.065441	0.666531
C127	C	0.879742	-0.674050	-0.000152
C128	C	1.213075	-0.340717	0.333181
C129	C	1.546408	-0.007383	0.666515
C130	C	0.753131	-0.656990	-0.000138
C131	C	1.086465	-0.323657	0.333196
C132	C	1.419798	0.009676	0.666529
C133	C	0.754202	-0.584167	-0.000129
C134	C	1.087535	-0.250834	0.333204
C135	C	1.420869	0.082499	0.666538
C136	C	0.818043	-0.556289	-0.000125
C137	C	1.151377	-0.222956	0.333209
C138	C	1.484710	0.110377	0.666542
C139	C	0.947238	0.087389	-0.000135
C140	C	1.280571	0.420722	0.333199
C141	C	1.613905	0.754056	0.666532
C142	C	1.024343	0.088517	-0.000149
C143	C	1.357676	0.421850	0.333184
C144	C	1.691009	0.755184	0.666517
C145	C	0.814771	0.220565	-0.000135
C146	C	1.148105	0.553898	0.333198
C147	C	1.481438	0.887231	0.666532
C148	C	0.815906	0.298069	-0.000146
C149	C	1.149239	0.631402	0.333187
C150	C	1.482573	0.964736	0.666521
N151	N	0.820207	0.092888	0.188550
N152	N	1.153540	0.426222	0.521884
N153	N	1.486874	0.759555	0.855217
N154	N	0.820259	0.092900	-0.188786
N155	N	1.153592	0.426234	0.144548
N156	N	1.486926	0.759567	0.477881
C157	C	0.867588	0.045293	0.226651
C158	C	1.200921	0.378626	0.559985
C159	C	1.534255	0.711960	0.893318
C160	C	0.867592	0.045290	0.302879
C161	C	1.200926	0.378623	0.636213
C162	C	1.534259	0.711956	0.969546
C163	C	0.820222	0.092894	0.341003
C164	C	1.153556	0.426228	0.674336
C165	C	1.486889	0.759561	1.007670
C166	C	0.772833	0.140494	0.302893
C167	C	1.106166	0.473827	0.636226
C168	C	1.439499	0.807160	0.969560
C169	C	0.772825	0.140491	0.226666
C170	C	1.106158	0.473824	0.560000
C171	C	1.439492	0.807157	0.893333
C172	C	0.810929	0.156512	0.461756
C173	C	1.144262	0.489845	0.795089
C174	C	1.477596	0.823179	1.128422
C175	C	0.810941	0.156516	0.537981
C176	C	1.144275	0.489849	0.871314
C177	C	1.477608	0.823182	1.204647
C178	C	0.820242	0.092903	0.576111
C179	C	1.153575	0.426236	0.909444
C180	C	1.486909	0.759570	1.242777
C181	C	0.829545	0.029284	0.538006
C182	C	1.162878	0.362617	0.871340
C183	C	1.496212	0.695950	1.204673
C184	C	0.829537	0.029281	0.461780
C185	C	1.162871	0.362614	0.795113
C186	C	1.496204	0.695947	1.128447
C187	C	0.820225	0.092902	0.423658
C188	C	1.153559	0.426236	0.756991
C189	C	1.486892	0.759569	1.090324
C190	C	0.867630	0.045300	0.696867
C191	C	1.200964	0.378633	1.030200
C192	C	1.534297	0.711967	1.363533
C193	C	0.867630	0.045296	0.773096
C194	C	1.200963	0.378629	1.106429
C195	C	1.534297	0.711963	1.439762
C196	C	0.772874	0.140506	0.773108
C197	C	1.106207	0.473839	1.106441
C198	C	1.439540	0.807172	1.439775
C199	C	0.772871	0.140504	0.696880
C200	C	1.106204	0.473837	1.030214
C201	C	1.439537	0.807170	1.363547
C202	C	0.820253	0.092902	0.658764
C203	C	1.153586	0.426235	0.992097
C204	C	1.486919	0.759568	1.325431
H205	H	0.244654	0.166129	-0.091885
H206	H	0.577987	0.499463	0.241449
H207	H	0.911320	0.832796	0.574782
H208	H	0.477912	0.095231	0.119660
H209	H	0.811245	0.428564	0.452993
H210	H	1.144578	0.761898	0.786326
Cl211	Cl	0.672881	-0.692040	-0.000133
Cl212	Cl	1.006214	-0.358707	0.333200
Cl213	Cl	1.339547	-0.025373	0.666534
Cl214	Cl	0.250745	-0.000627	0.114049
Cl215	Cl	0.584078	0.332707	0.447382
Cl216	Cl	0.917411	0.666040	0.780716
Cl217	Cl	0.713279	0.200337	0.350818
Cl218	Cl	1.046612	0.533670	0.684152
Cl219	Cl	1.379946	0.867003	1.017485
Cl220	Cl	0.414259	0.001775	0.114049
Cl221	Cl	0.747592	0.335109	0.447382
Cl222	Cl	1.080925	0.668442	0.780716
H223	H	0.478002	0.095233	-0.119872
H224	H	0.811336	0.428566	0.213462
H225	H	1.144669	0.761900	0.546795
H226	H	0.162545	0.090562	-0.119905
H227	H	0.495878	0.423895	0.213428
H228	H	0.829211	0.757228	0.546762
H229	H	0.609343	0.097185	0.119680
H230	H	0.942677	0.430519	0.453013
H231	H	1.276010	0.763852	0.786347
H232	H	0.734292	0.179263	0.665856
H233	H	1.067625	0.512597	0.999190
H234	H	1.400958	0.845930	1.332523
Cl235	Cl	0.799251	0.236493	0.585875
Cl236	Cl	1.132585	0.569826	0.919209
Cl237	Cl	1.465918	0.903160	1.252542
H238	H	0.162458	0.090556	0.119633
H239	H	0.495792	0.423889	0.452966
H240	H	0.829125	0.757223	0.786300
H241	H	0.707670	-0.235684	-0.000100
H242	H	1.041003	0.097649	0.333233
H243	H	1.374336	0.430983	0.666567
Cl244	Cl	0.389725	0.186424	-0.114274
Cl245	Cl	0.723058	0.519757	0.219059
Cl246	Cl	1.056391	0.853090	0.552393
Cl247	Cl	0.841244	-0.050692	0.585932
Cl248	Cl	1.174577	0.282641	0.919266
Cl249	Cl	1.507910	0.615974	1.252599
Cl250	Cl	0.625482	0.097410	-0.149096
Cl251	Cl	0.958815	0.430744	0.184238
Cl252	Cl	1.292149	0.764077	0.517571
H253	H	0.930855	-0.710636	-0.000159
H254	H	1.264188	-0.377302	0.333174
H255	H	1.597522	-0.043969	0.666507
H256	H	0.031118	0.088624	-0.119916
H257	H	0.364452	0.421957	0.213417
H258	H	0.697785	0.755290	0.546751
Cl259	Cl	0.927192	-0.014546	0.648948
Cl260	Cl	1.260525	0.318787	0.982281
Cl261	Cl	1.593859	0.652121	1.315615
H262	H	0.803343	0.208317	0.430716
H263	H	1.136676	0.541650	0.764050
H264	H	1.470010	0.874983	1.097383
Cl265	Cl	0.014978	0.088377	0.148857
Cl266	Cl	0.348312	0.421710	0.482190
Cl267	Cl	0.681645	0.755043	0.815523
Cl268	Cl	0.681801	-0.083660	-0.000094
Cl269	Cl	1.015134	0.249673	0.333239
Cl270	Cl	1.348468	0.583006	0.666572
Cl271	Cl	0.713318	0.200346	0.821030
Cl272	Cl	1.046651	0.533680	1.154363
Cl273	Cl	1.379984	0.867013	1.487696
H274	H	0.837110	-0.022520	0.430758
H275	H	1.170444	0.310813	0.764092
H276	H	1.503777	0.644146	1.097425
H277	H	0.734241	0.179249	0.195644
H278	H	1.067574	0.512583	0.528977
H279	H	1.400908	0.845916	0.862311
Cl280	Cl	0.961066	-0.566176	-0.000126
Cl281	Cl	1.294400	-0.232842	0.333207
Cl282	Cl	1.627733	0.100491	0.666540
Cl283	Cl	0.967577	-0.122167	-0.000115
Cl284	Cl	1.300910	0.211167	0.333219
Cl285	Cl	1.634244	0.544500	0.666552
Cl286	Cl	0.927195	-0.014548	0.820997
Cl287	Cl	1.260529	0.318786	1.154331
Cl288	Cl	1.593862	0.652119	1.487664
Cl289	Cl	0.965164	-0.286532	-0.000117
Cl290	Cl	1.298498	0.046801	0.333217
Cl291	Cl	1.631831	0.380135	0.666550
Cl292	Cl	0.927163	-0.014550	0.350786
Cl293	Cl	1.260496	0.318784	0.684119
Cl294	Cl	1.593829	0.652117	1.017452
Cl295	Cl	0.675292	-0.527675	-0.000121
Cl296	Cl	1.008626	-0.194342	0.333213
Cl297	Cl	1.341959	0.138992	0.666546
Cl298	Cl	0.927149	-0.014552	0.178734
Cl299	Cl	1.260482	0.318781	0.512068
Cl300	Cl	1.593815	0.652115	0.845401
