data_functionalizedCrystal
_audit_creation_method	'MofGen! by Chris Wilmer'
_symmetry_space_group_name_H-M	'P1'
_symmetry_Int_Tables_number	1
_symmetry_cell_setting	triclinic
loop_
_symmetry_equiv_pos_as_xyz
  x,y,z
_cell_length_a	17.699083
_cell_length_b	17.699092
_cell_length_c	15.021413
_cell_angle_alpha	89.993746
_cell_angle_beta	90.000631
_cell_angle_gamma	83.284691
loop_
_atom_site_label
_atom_site_type_symbol
_atom_site_fract_x
_atom_site_fract_y
_atom_site_fract_z
O1	O	-1.004080	-0.095714	0.073895
O2	O	-0.670746	0.237619	0.407228
O3	O	-0.337413	0.570952	0.740562
O4	O	-0.783702	-0.108167	0.073926
O5	O	-0.450368	0.225167	0.407259
O6	O	-0.117035	0.558500	0.740592
O7	O	-0.900114	0.008248	0.073908
O8	O	-0.566780	0.341582	0.407241
O9	O	-0.233447	0.674915	0.740574
O10	O	-0.887668	-0.212129	0.073913
O11	O	-0.554334	0.121204	0.407247
O12	O	-0.221001	0.454537	0.740580
O13	O	-0.900101	0.008259	-0.074157
O14	O	-0.566768	0.341592	0.259177
O15	O	-0.233435	0.674925	0.592510
O16	O	-0.783690	-0.108156	-0.074138
O17	O	-0.450356	0.225177	0.259195
O18	O	-0.117023	0.558510	0.592528
O19	O	-1.004068	-0.095704	-0.074169
O20	O	-0.670734	0.237629	0.259164
O21	O	-0.337401	0.570963	0.592498
Zn22	Zn	-0.893877	-0.101928	-0.097662
Zn23	Zn	-0.560543	0.231405	0.235671
Zn24	Zn	-0.227210	0.564738	0.569004
Zn25	Zn	-0.893893	-0.101942	0.097419
Zn26	Zn	-0.560559	0.231391	0.430752
Zn27	Zn	-0.227226	0.564725	0.764085
O28	O	-0.887656	-0.212119	-0.074151
O29	O	-0.554322	0.121214	0.259182
O30	O	-0.220989	0.454548	0.592516
C31	C	-0.755499	-0.107715	-0.000102
C32	C	-0.422165	0.225618	0.333231
C33	C	-0.088832	0.558951	0.666564
C34	C	-0.671480	-0.106377	-0.000091
C35	C	-0.338147	0.226957	0.333243
C36	C	-0.004814	0.560290	0.666576
C37	C	-0.622862	-0.174710	-0.000089
C38	C	-0.289528	0.158624	0.333245
C39	C	0.043805	0.491957	0.666578
C40	C	-0.543918	-0.173448	-0.000100
C41	C	-0.210585	0.159886	0.333234
C42	C	0.122749	0.493219	0.666567
C43	C	-0.513595	-0.103851	-0.000106
C44	C	-0.180262	0.229482	0.333227
C45	C	0.153071	0.562815	0.666561
C46	C	-0.562220	-0.035513	-0.000111
C47	C	-0.228887	0.297820	0.333223
C48	C	0.104446	0.631154	0.666556
C49	C	-0.641162	-0.036776	-0.000106
C50	C	-0.307829	0.296557	0.333227
C51	C	0.025504	0.629891	0.666561
C52	C	-0.243857	-0.030418	-0.000130
C53	C	0.089476	0.302916	0.333203
C54	C	0.422809	0.636249	0.666537
C55	C	-0.164909	-0.029160	-0.000132
C56	C	0.168424	0.304173	0.333202
C57	C	0.501757	0.637507	0.666535
C58	C	-0.146613	-0.167089	-0.000123
C59	C	0.186720	0.166244	0.333210
C60	C	0.520054	0.499577	0.666543
C61	C	-0.225555	-0.168352	-0.000119
C62	C	0.107778	0.164981	0.333214
C63	C	0.441112	0.498314	0.666548
C64	C	-0.274173	-0.100014	-0.000128
C65	C	0.059160	0.233319	0.333205
C66	C	0.392493	0.566652	0.666539
C67	C	-0.359772	-0.101384	-0.000118
C68	C	-0.026439	0.231950	0.333215
C69	C	0.306894	0.565283	0.666549
C70	C	-0.427998	-0.102481	-0.000110
C71	C	-0.094664	0.230852	0.333224
C72	C	0.238669	0.564186	0.666557
N73	N	-0.893871	-0.101919	-0.230800
N74	N	-0.560538	0.231415	0.102534
N75	N	-0.227205	0.564748	0.435867
C76	C	-0.899661	0.036450	-0.000123
C77	C	-0.566327	0.369784	0.333210
C78	C	-0.232994	0.703117	0.666543
C79	C	-0.898319	0.120468	-0.000119
C80	C	-0.564986	0.453801	0.333214
C81	C	-0.231653	0.787135	0.666548
C82	C	-0.032271	-0.096155	-0.000137
C83	C	0.301063	0.237178	0.333197
C84	C	0.634396	0.570511	0.666530
C85	C	-0.116289	-0.097494	-0.000136
C86	C	0.217045	0.235840	0.333197
C87	C	0.550378	0.569173	0.666531
C88	C	-0.888109	-0.240321	-0.000118
C89	C	-0.554775	0.093012	0.333215
C90	C	-0.221442	0.426346	0.666548
C91	C	-0.889450	-0.324339	-0.000117
C92	C	-0.556116	0.008995	0.333217
C93	C	-0.222783	0.342328	0.666550
C94	C	-0.897698	0.159930	0.080592
C95	C	-0.564364	0.493263	0.413925
C96	C	-0.231031	0.826597	0.747259
C97	C	-0.896433	0.238873	0.080593
C98	C	-0.563100	0.572206	0.413927
C99	C	-0.229766	0.905540	0.747260
C100	C	-0.895795	0.278353	-0.000117
C101	C	-0.562462	0.611687	0.333216
C102	C	-0.229128	0.945020	0.666549
C103	C	-0.896415	0.238886	-0.080835
C104	C	-0.563081	0.572219	0.252499
C105	C	-0.229748	0.905552	0.585832
C106	C	-0.897674	0.159943	-0.080835
C107	C	-0.564341	0.493277	0.252499
C108	C	-0.231007	0.826610	0.585832
C109	C	-0.891334	0.557251	-0.080835
C110	C	-0.558001	0.890584	0.252498
C111	C	-0.224667	1.223917	0.585832
C112	C	-0.890077	0.636199	-0.080829
C113	C	-0.556744	0.969532	0.252505
C114	C	-0.223410	1.302865	0.585838
C115	C	-0.890093	0.636180	0.080593
C116	C	-0.556760	0.969514	0.413926
C117	C	-0.223426	1.302847	0.747260
C118	C	-0.891352	0.557238	0.080593
C119	C	-0.558019	0.890571	0.413926
C120	C	-0.224686	1.223905	0.747259
C121	C	-0.891968	0.517777	-0.000124
C122	C	-0.558635	0.851110	0.333209
C123	C	-0.225301	1.184443	0.666543
C124	C	-0.893338	0.432178	-0.000124
C125	C	-0.560005	0.765511	0.333209
C126	C	-0.226671	1.098844	0.666542
C127	C	-0.894430	0.363952	-0.000118
C128	C	-0.561097	0.697285	0.333215
C129	C	-0.227764	1.030618	0.666549
N130	N	-0.893904	-0.101946	0.230556
N131	N	-0.560571	0.231388	0.563890
N132	N	-0.227237	0.564721	0.897223
C133	C	-0.947837	-0.048191	0.529539
C134	C	-0.614504	0.285142	0.862872
C135	C	-0.281170	0.618475	1.196206
C136	C	-0.879526	-0.033490	0.470181
C137	C	-0.546193	0.299843	0.803515
C138	C	-0.212859	0.633176	1.136848
C139	C	-0.893881	-0.101928	0.587593
C140	C	-0.560547	0.231406	0.920927
C141	C	-0.227214	0.564739	1.254260
C142	C	-0.962201	-0.116602	0.470209
C143	C	-0.628868	0.216731	0.803543
C144	C	-0.295535	0.550064	1.136876
C145	C	-0.893896	-0.101934	0.412169
C146	C	-0.560563	0.231399	0.745503
C147	C	-0.227229	0.564732	1.078836
C148	C	-0.825535	-0.087192	0.529542
C149	C	-0.492201	0.246141	0.862875
C150	C	-0.158868	0.579474	1.196208
C151	C	-0.908255	-0.170334	0.529575
C152	C	-0.574922	0.162999	0.862909
C153	C	-0.241589	0.496333	1.196242
C154	C	-0.839895	-0.155662	0.470244
C155	C	-0.506561	0.177671	0.803577
C156	C	-0.173228	0.511005	1.136911
C157	C	-0.893873	-0.101922	0.688651
C158	C	-0.560540	0.231412	1.021984
C159	C	-0.227206	0.564745	1.355317
C160	C	-0.893896	-0.101941	0.311114
C161	C	-0.560562	0.231392	0.644447
C162	C	-0.227229	0.564726	0.977781
H163	H	-0.504335	-0.229091	-0.000097
H164	H	-0.171002	0.104242	0.333236
H165	H	0.162331	0.437575	0.666570
F166	F	-0.863630	0.042119	0.436088
F167	F	-0.530296	0.375453	0.769421
F168	F	-0.196963	0.708786	1.102754
H169	H	-0.895930	0.271000	0.146316
H170	H	-0.562597	0.604333	0.479649
H171	H	-0.229263	0.937666	0.812983
H172	H	-0.767750	-0.074718	0.555495
H173	H	-0.434417	0.258616	0.888828
H174	H	-0.101083	0.591949	1.222162
H175	H	-0.891875	0.525097	0.146316
H176	H	-0.558542	0.858431	0.479649
H177	H	-0.225209	1.191764	0.812982
H178	H	-0.107018	-0.222733	-0.000121
H179	H	0.226315	0.110600	0.333213
H180	H	0.559648	0.443933	0.666546
H181	H	-0.993408	-0.002716	0.555575
H182	H	-0.660074	0.330618	0.888908
H183	H	-0.326741	0.663951	1.222242
H184	H	-0.889555	0.668341	-0.146557
H185	H	-0.556222	1.001675	0.186777
H186	H	-0.222889	1.335008	0.520110
F187	F	-0.780200	-0.215068	0.436427
F188	F	-0.446866	0.118265	0.769760
F189	F	-0.113533	0.451599	1.103094
H190	H	-0.647544	-0.231383	-0.000083
H191	H	-0.314210	0.101950	0.333251
H192	H	0.019123	0.435284	0.666584
F193	F	-0.924174	-0.245920	0.563705
F194	F	-0.590841	0.087413	0.897038
F195	F	-0.257508	0.420747	1.230372
F196	F	-0.257822	-0.242426	-0.000107
F197	F	0.075511	0.090908	0.333227
F198	F	0.408845	0.424241	0.666560
F199	F	-1.037712	-0.132821	0.436139
F200	F	-0.704378	0.200512	0.769472
F201	F	-0.371045	0.533845	1.102805
F202	F	-0.898382	0.117920	0.166497
F203	F	-0.565049	0.451253	0.499830
F204	F	-0.231715	0.784586	0.833164
H205	H	-0.283433	0.025227	-0.000138
H206	H	0.049900	0.358561	0.333195
H207	H	0.383233	0.691894	0.666528
F208	F	-0.132640	0.044918	-0.000139
F209	F	0.200693	0.378251	0.333195
F210	F	0.534027	0.711584	0.666528
F211	F	-0.895727	0.280905	-0.166733
F212	F	-0.562394	0.614238	0.166600
F213	F	-0.229061	0.947571	0.499933
F214	F	-0.529947	0.038557	-0.000123
F215	F	-0.196613	0.371890	0.333210
F216	F	0.136720	0.705224	0.666543
F217	F	-0.889436	0.678184	0.166500
F218	F	-0.556102	1.011517	0.499833
F219	F	-0.222769	1.344850	0.833166
F220	F	-0.898335	0.117946	-0.166738
F221	F	-0.565001	0.451279	0.166595
F222	F	-0.231668	0.784612	0.499928
F223	F	-0.692906	0.035954	-0.000111
F224	F	-0.359573	0.369287	0.333222
F225	F	-0.026240	0.702620	0.666555
F226	F	-0.891979	0.515262	-0.166741
F227	F	-0.558646	0.848595	0.166592
F228	F	-0.225313	1.181929	0.499926
