data_functionalizedCrystal
_audit_creation_method	'MofGen! by Chris Wilmer'
_symmetry_space_group_name_H-M	'P1'
_symmetry_Int_Tables_number	1
_symmetry_cell_setting	triclinic
loop_
_symmetry_equiv_pos_as_xyz
  x,y,z
_cell_length_a	8.634740
_cell_length_b	10.868271
_cell_length_c	8.597304
_cell_angle_alpha	97.705004
_cell_angle_beta	92.879752
_cell_angle_gamma	90.003825
loop_
_atom_site_label
_atom_site_type_symbol
_atom_site_fract_x
_atom_site_fract_y
_atom_site_fract_z
O1	O	2.053795	0.156687	0.512869
O2	O	2.387128	0.490021	0.846202
O3	O	2.720461	0.823354	1.179536
O4	O	1.604194	0.152130	0.469863
O5	O	1.937528	0.485463	0.803196
O6	O	2.270861	0.818797	1.136530
O7	O	1.837842	0.130327	0.264236
O8	O	2.171175	0.463661	0.597570
O9	O	2.504508	0.796994	0.930903
O10	O	1.820147	0.178490	0.718496
O11	O	2.153481	0.511823	1.051829
O12	O	2.486814	0.845157	1.385162
O13	O	1.837822	-0.074318	0.264224
O14	O	2.171155	0.259015	0.597557
O15	O	2.504489	0.592348	0.930891
O16	O	1.604175	-0.052516	0.469851
O17	O	1.937508	0.280817	0.803184
O18	O	2.270841	0.614151	1.136517
O19	O	2.053775	-0.047959	0.512857
O20	O	2.387108	0.285375	0.846190
O21	O	2.720442	0.618708	1.179523
Zn22	Zn	1.828972	-0.082729	0.491352
Zn23	Zn	2.162305	0.250604	0.824685
Zn24	Zn	2.495638	0.583937	1.158018
Zn25	Zn	1.828998	0.186901	0.491368
Zn26	Zn	2.162331	0.520234	0.824701
Zn27	Zn	2.495664	0.853567	1.158035
O28	O	1.820128	-0.026156	0.718483
O29	O	2.153461	0.307177	1.051817
O30	O	2.486794	0.640511	1.385150
C31	C	1.546587	0.048775	0.460114
C32	C	1.879921	0.382108	0.793448
C33	C	2.213254	0.715441	1.126781
C34	C	1.374966	0.045696	0.431066
C35	C	1.708299	0.379029	0.764399
C36	C	2.041633	0.712363	1.097733
N37	N	1.828965	-0.266744	0.491341
N38	N	2.162299	0.066589	0.824675
N39	N	2.495632	0.399922	1.158008
C40	C	1.828989	-0.517748	0.491363
C41	C	2.162323	-0.184415	0.824697
C42	C	2.495656	0.148919	1.158030
C43	C	1.828971	-0.378071	0.491355
C44	C	2.162304	-0.044738	0.824688
C45	C	2.495638	0.288595	1.158022
C46	C	2.111382	0.055400	0.522605
C47	C	2.444715	0.388733	0.855939
C48	C	2.778049	0.722066	1.189272
C49	C	2.283003	0.058486	0.551654
C50	C	2.616337	0.391820	0.884987
C51	C	2.949670	0.725153	1.218320
C52	C	1.835931	0.021777	0.205471
C53	C	2.169264	0.355111	0.538804
C54	C	2.502598	0.688444	0.872138
C55	C	1.830249	0.003222	0.030384
C56	C	2.163582	0.336555	0.363718
C57	C	2.496915	0.669888	0.697051
N58	N	1.829016	0.370915	0.491368
N59	N	2.162349	0.704248	0.824701
N60	N	2.495683	1.037581	1.158034
C61	C	1.822038	0.082397	0.777249
C62	C	2.155372	0.415730	1.110582
C63	C	2.488705	0.749064	1.443915
C64	C	1.827721	0.100960	0.952335
C65	C	2.161054	0.434294	1.285669
C66	C	2.494387	0.767627	1.619002
H67	H	1.335566	0.071777	0.677117
H68	H	1.668899	0.405110	1.010450
H69	H	2.002232	0.738444	1.343784
Cl70	Cl	1.293814	0.025154	0.237344
Cl71	Cl	1.627148	0.358487	0.570678
Cl72	Cl	1.960481	0.691820	0.904011
Cl73	Cl	1.831092	0.252087	0.055967
Cl74	Cl	2.164425	0.585421	0.389300
Cl75	Cl	2.497758	0.918754	0.722633
H76	H	1.828047	-0.094666	-0.036749
H77	H	2.161381	0.238667	0.296584
H78	H	2.494714	0.572001	0.629918
