data_functionalizedCrystal
_audit_creation_method	'MofGen! by Chris Wilmer'
_symmetry_space_group_name_H-M	'P1'
_symmetry_Int_Tables_number	1
_symmetry_cell_setting	triclinic
loop_
_symmetry_equiv_pos_as_xyz
  x,y,z
_cell_length_a	17.038272
_cell_length_b	15.500215
_cell_length_c	10.489741
_cell_angle_alpha	86.843495
_cell_angle_beta	92.174635
_cell_angle_gamma	92.981713
loop_
_atom_site_label
_atom_site_type_symbol
_atom_site_fract_x
_atom_site_fract_y
_atom_site_fract_z
O1	O	1.042241	0.071835	-0.282782
O2	O	0.814586	0.071861	-0.278383
O3	O	0.933593	0.071842	-0.095469
O4	O	0.923233	0.071854	-0.465696
O5	O	0.927035	-0.072046	-0.084174
O6	O	0.808027	-0.072028	-0.267089
O7	O	1.035682	-0.072053	-0.271487
Cu8	Cu	0.921256	-0.085179	-0.268257
Cu9	Cu	0.929012	0.084986	-0.281614
O10	O	0.916675	-0.072035	-0.454402
C11	C	0.782155	-0.000080	-0.268734
C12	C	0.695294	-0.000071	-0.256793
N13	N	0.915806	-0.204864	-0.258862
C14	C	0.645815	-0.000068	-0.366431
C15	C	0.564198	-0.000080	-0.355202
C16	C	0.532063	-0.000089	-0.234334
C17	C	0.581549	-0.000094	-0.124687
C18	C	0.663163	-0.000088	-0.135917
C19	C	0.286075	-0.000113	-0.194661
C20	C	0.204454	-0.000117	-0.183440
C21	C	0.187109	-0.000104	-0.413956
C22	C	0.268726	-0.000093	-0.425176
C23	C	0.318204	-0.000103	-0.315528
C24	C	0.448639	-0.000099	-0.222854
C25	C	0.401627	-0.000099	-0.327010
C26	C	0.961627	-0.250140	-0.337912
C27	C	0.957516	-0.340713	-0.330800
C28	C	0.907580	-0.386008	-0.244643
C29	C	0.861757	-0.340726	-0.165585
C30	C	0.865873	-0.250154	-0.172691
C31	C	0.892761	-0.659475	-0.219047
C32	C	0.888647	-0.750053	-0.211949
C33	C	0.984407	-0.750033	-0.377164
C34	C	0.988515	-0.659460	-0.384268
C35	C	0.942696	-0.614186	-0.305205
C36	C	0.903374	-0.478588	-0.237374
C37	C	0.946906	-0.521608	-0.312468
C38	C	1.068113	-0.000110	-0.281137
C39	C	1.154975	-0.000114	-0.293079
C40	C	0.929532	-0.000101	-0.042217
C41	C	0.927191	-0.000100	0.099632
N42	N	0.934468	0.204671	-0.290999
C43	C	0.920737	-0.000089	-0.507654
C44	C	0.923078	-0.000085	-0.649503
C45	C	0.851470	-0.000085	0.174853
C46	C	0.884006	-0.071033	0.269199
C47	C	0.890490	0.070830	0.258036
C48	C	0.959755	-0.071107	0.192114
C49	C	0.966232	0.070820	0.180938
C50	C	0.998822	-0.000146	0.275252
H51	H	0.523915	-0.000077	-0.444482
H52	H	0.146816	-0.000098	-0.503224
H53	H	0.178293	-0.000123	-0.085010
N54	N	1.031213	-0.796267	-0.457930
N55	N	1.022974	-0.786141	-0.576639
H56	H	1.056035	-0.818792	-0.633683
H57	H	0.555377	-0.000114	-0.026273
N58	N	0.997926	-0.475340	-0.400449
N59	N	1.051662	-0.424801	-0.360224
H60	H	1.087695	-0.392115	-0.422360
N61	N	0.773363	-0.000168	0.119889
N62	N	0.724890	-0.060986	0.147622
H63	H	0.669728	-0.061048	0.108804
H64	H	1.002286	-0.213267	-0.408077
H65	H	0.989030	-0.131156	0.163001
H66	H	0.847979	-0.786930	-0.141790
N67	N	0.853721	0.146086	0.294733
N68	N	0.882174	0.219714	0.262785
H69	H	0.856201	0.272862	0.288697
N70	N	0.301536	-0.000073	-0.548651
N71	N	0.257349	-0.000065	-0.646536
H72	H	0.280520	-0.000045	-0.733743
H73	H	0.703449	-0.000090	-0.046638
N74	N	0.845934	-0.613250	-0.138312
N75	N	0.801336	-0.653705	-0.061419
H76	H	0.768253	-0.621057	-0.004408
N77	N	0.336597	-0.000120	-0.082651
N78	N	0.307892	-0.000123	0.025256
H79	H	0.343575	-0.000125	0.104370
N80	N	0.434447	-0.000108	-0.450468
N81	N	0.475296	-0.060759	-0.477687
H82	H	0.498483	-0.060765	-0.564881
H83	H	0.994829	-0.377572	-0.395169
N84	N	0.678623	-0.000051	-0.489907
N85	N	0.634432	-0.000050	-0.587787
H86	H	0.657600	-0.000041	-0.674997
H87	H	0.821102	-0.377612	-0.095428
N88	N	0.852362	-0.524874	-0.149393
N89	N	0.798632	-0.575421	-0.189617
H90	H	0.762605	-0.608115	-0.127480
N91	N	0.819080	-0.203917	-0.091909
N92	N	0.774506	-0.244366	-0.014974
H93	H	0.741463	-0.211712	0.042094
N94	N	1.039501	-0.613209	-0.472325
N95	N	1.080392	-0.653645	-0.542926
H96	H	1.116391	-0.620980	-0.605136
H97	H	1.061134	-0.000192	0.318851
N98	N	0.415810	-0.000117	-0.099393
N99	N	0.369449	-0.060776	-0.062655
H100	H	0.346261	-0.060792	0.024540
H101	H	0.849233	-0.131008	0.307915
N102	N	1.009817	0.146067	0.132339
N103	N	0.987371	0.219682	0.151036
H104	H	1.018148	0.272833	0.116712
