data_functionalizedCrystal
_audit_creation_method	'MofGen! by Chris Wilmer'
_symmetry_space_group_name_H-M	'P1'
_symmetry_Int_Tables_number	1
_symmetry_cell_setting	triclinic
loop_
_symmetry_equiv_pos_as_xyz
  x,y,z
_cell_length_a	19.288864
_cell_length_b	14.853559
_cell_length_c	18.366186
_cell_angle_alpha	89.995958
_cell_angle_beta	89.977106
_cell_angle_gamma	83.383851
loop_
_atom_site_label
_atom_site_type_symbol
_atom_site_fract_x
_atom_site_fract_y
_atom_site_fract_z
O1	O	0.921730	0.112465	-0.060780
O2	O	1.255063	0.445798	0.272554
O3	O	1.588396	0.779131	0.605887
O4	O	0.719520	0.127636	-0.060730
O5	O	1.052853	0.460969	0.272604
O6	O	1.386187	0.794303	0.605937
O7	O	0.826029	-0.011211	-0.060755
O8	O	1.159363	0.322123	0.272578
O9	O	1.492696	0.655456	0.605911
O10	O	0.815220	0.251311	-0.060754
O11	O	1.148554	0.584645	0.272579
O12	O	1.481887	0.917978	0.605913
O13	O	0.826011	-0.011217	0.060344
O14	O	1.159344	0.322116	0.393677
O15	O	1.492678	0.655449	0.727011
O16	O	0.719502	0.127629	0.060370
O17	O	1.052835	0.460963	0.393703
O18	O	1.386168	0.794296	0.727037
O19	O	0.921712	0.112458	0.060320
O20	O	1.255045	0.445791	0.393653
O21	O	1.588378	0.779125	0.726986
Zn22	Zn	0.820604	0.120042	0.079572
Zn23	Zn	1.153937	0.453376	0.412905
Zn24	Zn	1.487270	0.786709	0.746239
Zn25	Zn	0.820628	0.120051	-0.079982
Zn26	Zn	1.153961	0.453385	0.253352
Zn27	Zn	1.487294	0.786718	0.586685
O28	O	0.815202	0.251305	0.060345
O29	O	1.148536	0.584638	0.393679
O30	O	1.481869	0.917971	0.727012
C31	C	0.693633	0.127144	-0.000173
C32	C	1.026966	0.460478	0.333160
C33	C	1.360299	0.793811	0.666493
C34	C	0.616524	0.125679	-0.000154
C35	C	0.949858	0.459012	0.333179
C36	C	1.283191	0.792346	0.666512
C37	C	0.572101	0.207148	-0.000165
C38	C	0.905434	0.540481	0.333168
C39	C	1.238768	0.873815	0.666501
C40	C	0.499649	0.205771	-0.000174
C41	C	0.832983	0.539105	0.333160
C42	C	1.166316	0.872438	0.666493
C43	C	0.471624	0.122921	-0.000185
C44	C	0.804957	0.456254	0.333148
C45	C	1.138291	0.789588	0.666482
C46	C	0.516057	0.041441	-0.000170
C47	C	0.849390	0.374775	0.333163
C48	C	1.182724	0.708108	0.666497
C49	C	0.588507	0.042820	-0.000155
C50	C	0.921841	0.376154	0.333179
C51	C	1.255174	0.709487	0.666512
C52	C	0.363150	0.057794	-0.042636
C53	C	0.696484	0.391127	0.290697
C54	C	1.029817	0.724461	0.624030
C55	C	0.290701	0.056418	-0.042656
C56	C	0.624034	0.389752	0.290677
C57	C	0.957368	0.723085	0.624010
C58	C	0.248164	0.118664	-0.000229
C59	C	0.581498	0.451998	0.333104
C60	C	0.914831	0.785331	0.666437
C61	C	0.278084	0.182301	0.042208
C62	C	0.611417	0.515634	0.375542
C63	C	0.944751	0.848968	0.708875
C64	C	0.350534	0.183680	0.042224
C65	C	0.683867	0.517013	0.375557
C66	C	1.017201	0.850347	0.708890
C67	C	0.393065	0.121416	-0.000201
C68	C	0.726398	0.454750	0.333132
C69	C	1.059732	0.788083	0.666465
C70	C	0.125180	0.198646	-0.000248
C71	C	0.458513	0.531979	0.333085
C72	C	0.791847	0.865313	0.666419
C73	C	0.052727	0.197266	-0.000252
C74	C	0.386061	0.530599	0.333082
C75	C	0.719394	0.863932	0.666415
C76	C	0.069137	0.032934	-0.000255
C77	C	0.402470	0.366267	0.333078
C78	C	0.735803	0.699600	0.666411
C79	C	0.141588	0.034316	-0.000244
C80	C	0.474921	0.367649	0.333089
C81	C	0.808255	0.700983	0.666422
C82	C	0.169605	0.117175	-0.000244
C83	C	0.502938	0.450508	0.333089
C84	C	0.836272	0.783841	0.666422
C85	C	0.825531	-0.044800	-0.000207
C86	C	1.158865	0.288533	0.333127
C87	C	1.492198	0.621867	0.666460
C88	C	0.824067	-0.144876	-0.000210
C89	C	1.157400	0.188457	0.333123
C90	C	1.490734	0.521791	0.666456
C91	C	0.817864	-0.568012	-0.066220
C92	C	1.151198	-0.234679	0.267113
C93	C	1.484531	0.098655	0.600446
C94	C	0.817844	-0.568014	0.065807
C95	C	1.151178	-0.234681	0.399140
C96	C	1.484511	0.098653	0.732474
C97	C	0.819226	-0.473989	0.065807
C98	C	1.152559	-0.140655	0.399141
C99	C	1.485893	0.192678	0.732474
C100	C	0.819926	-0.426970	-0.000207
C101	C	1.153259	-0.093637	0.333126
C102	C	1.486593	0.239696	0.666459
C103	C	0.819244	-0.473977	-0.066222
C104	C	1.152577	-0.140644	0.267111
C105	C	1.485911	0.192689	0.600445
C106	C	0.819901	-0.426973	0.131821
C107	C	1.153234	-0.093640	0.465154
C108	C	1.486568	0.239693	0.798487
C109	C	0.821282	-0.332942	0.131824
C110	C	1.154615	0.000391	0.465157
C111	C	1.487949	0.333725	0.798490
C112	C	0.821987	-0.285923	0.065808
C113	C	1.155320	0.047411	0.399142
C114	C	1.488654	0.380744	0.732475
C115	C	0.821306	-0.332936	-0.000209
C116	C	1.154639	0.000398	0.333124
C117	C	1.487972	0.333731	0.666458
C118	C	0.822005	-0.285918	-0.066223
C119	C	1.155339	0.047416	0.267110
C120	C	1.488672	0.380749	0.600443
C121	C	0.821329	-0.332930	-0.132242
C122	C	1.154663	0.000404	0.201092
C123	C	1.487996	0.333737	0.534425
C124	C	0.819949	-0.426958	-0.132237
C125	C	1.153282	-0.093625	0.201096
C126	C	1.486615	0.239708	0.534429
C127	C	0.823367	-0.191894	0.065804
C128	C	1.156701	0.141439	0.399137
C129	C	1.490034	0.474772	0.732471
C130	C	0.823385	-0.191883	-0.066225
C131	C	1.156718	0.141450	0.267108
C132	C	1.490052	0.474784	0.600441
C133	C	0.947599	0.112949	-0.000238
C134	C	1.280932	0.446283	0.333095
C135	C	1.614265	0.779616	0.666429
C136	C	1.024707	0.114415	-0.000262
C137	C	1.358041	0.447748	0.333071
C138	C	1.691374	0.781081	0.666405
C139	C	0.815700	0.284894	-0.000205
C140	C	1.149033	0.618227	0.333129
C141	C	1.482367	0.951561	0.666462
C142	C	0.817164	0.384970	-0.000206
C143	C	1.150498	0.718303	0.333127
C144	C	1.483831	1.051636	0.666461
N145	N	0.820593	0.120036	0.188463
N146	N	1.153926	0.453369	0.521796
N147	N	1.487259	0.786702	0.855130
N148	N	0.820644	0.120051	-0.188873
N149	N	1.153978	0.453384	0.144460
N150	N	1.487311	0.786718	0.477794
C151	C	0.867770	0.058585	0.226552
C152	C	1.201104	0.391918	0.559885
C153	C	1.534437	0.725251	0.893219
C154	C	0.867775	0.058581	0.302780
C155	C	1.201108	0.391914	0.636113
C156	C	1.534441	0.725247	0.969447
C157	C	0.820608	0.120043	0.340916
C158	C	1.153941	0.453377	0.674249
C159	C	1.487275	0.786710	1.007582
C160	C	0.773421	0.181499	0.302818
C161	C	1.106755	0.514832	0.636151
C162	C	1.440088	0.848166	0.969484
C163	C	0.773414	0.181495	0.226591
C164	C	1.106747	0.514829	0.559925
C165	C	1.440080	0.848162	0.893258
C166	C	0.811585	0.202187	0.461678
C167	C	1.144918	0.535520	0.795011
C168	C	1.478252	0.868854	1.128344
C169	C	0.811598	0.202192	0.537903
C170	C	1.144931	0.535525	0.871236
C171	C	1.478264	0.868859	1.204569
C172	C	0.820628	0.120055	0.576023
C173	C	1.153961	0.453388	0.909357
C174	C	1.487294	0.786721	1.242690
C175	C	0.829660	0.037909	0.537909
C176	C	1.162993	0.371242	0.871243
C177	C	1.496327	0.704575	1.204576
C178	C	0.829652	0.037905	0.461683
C179	C	1.162986	0.371238	0.795016
C180	C	1.496319	0.704572	1.128350
C181	C	0.820611	0.120054	0.423570
C182	C	1.153944	0.453387	0.756904
C183	C	1.487277	0.786720	1.090237
C184	C	0.867813	0.058594	0.696767
C185	C	1.201146	0.391927	1.030101
C186	C	1.534480	0.725261	1.363434
C187	C	0.867813	0.058589	0.772996
C188	C	1.201146	0.391922	1.106330
C189	C	1.534479	0.725255	1.439663
C190	C	0.773462	0.181515	0.773033
C191	C	1.106796	0.514848	1.106366
C192	C	1.440129	0.848182	1.439699
C193	C	0.773459	0.181512	0.696805
C194	C	1.106793	0.514846	1.030138
C195	C	1.440126	0.848179	1.363472
C196	C	0.820638	0.120053	0.658677
C197	C	1.153972	0.453386	0.992010
C198	C	1.487305	0.786719	1.325343
H199	H	0.177759	-0.032025	-0.000239
H200	H	0.511092	0.301308	0.333094
H201	H	0.844425	0.634642	0.666427
H202	H	0.837005	-0.028981	0.430654
H203	H	1.170338	0.304352	0.763987
H204	H	1.503671	0.637686	1.097321
H205	H	0.823958	-0.153608	-0.119983
H206	H	1.157292	0.179725	0.213350
H207	H	1.490625	0.513059	0.546684
F208	F	0.817151	-0.618046	-0.136478
F209	F	1.150484	-0.284713	0.196855
F210	F	1.483818	0.048621	0.530189
H211	H	0.804248	0.269080	0.568929
H212	H	1.137581	0.602413	0.902263
H213	H	1.470914	0.935746	1.235596
H214	H	0.493234	-0.026016	-0.000189
H215	H	0.826568	0.307317	0.333144
H216	H	1.159901	0.640651	0.666477
F217	F	0.817089	-0.618055	0.136060
F218	F	1.150423	-0.284721	0.469393
F219	F	1.483756	0.048612	0.802727
H220	H	0.624677	-0.023524	-0.000146
H221	H	0.958011	0.309810	0.333187
H222	H	1.291344	0.643143	0.666521
F223	F	0.258864	-0.011302	-0.087828
F224	F	0.592198	0.322032	0.245505
F225	F	0.925531	0.655365	0.578839
F226	F	0.723249	0.246921	0.656265
F227	F	1.056583	0.580255	0.989598
F228	F	1.389916	0.913588	1.322931
H229	H	0.819328	-0.465262	0.185566
H230	H	1.152661	-0.131928	0.518899
H231	H	1.485994	0.201405	0.852233
H232	H	0.906185	0.008539	0.195510
H233	H	1.239518	0.341872	0.528844
H234	H	1.572851	0.675205	0.862177
H235	H	0.804220	0.269078	0.430646
H236	H	1.137553	0.602411	0.763980
H237	H	1.470886	0.935744	1.097313
H238	H	0.821894	-0.294634	-0.185991
H239	H	1.155227	0.038699	0.147343
H240	H	1.488561	0.372032	0.480676
H241	H	0.046320	-0.034525	-0.000310
H242	H	0.379653	0.298809	0.333024
H243	H	0.712986	0.632142	0.666357
F244	F	0.723221	0.246909	0.343405
F245	F	1.056554	0.580243	0.676738
F246	F	1.389887	0.913576	1.010072
H247	H	0.734995	0.231537	0.195578
H248	H	1.068328	0.564871	0.528912
H249	H	1.401661	0.898204	0.862245
F250	F	0.824085	-0.141864	0.136060
F251	F	1.157418	0.191469	0.469393
F252	F	1.490752	0.524802	0.802727
F253	F	0.601915	0.295334	-0.000163
F254	F	0.935248	0.628667	0.333170
F255	F	1.268581	0.962001	0.666504
H256	H	0.821835	-0.294673	0.185580
H257	H	1.155169	0.038660	0.518913
H258	H	1.488502	0.371994	0.852246
H259	H	0.906194	0.008538	0.333798
H260	H	1.239527	0.341871	0.667131
H261	H	1.572861	0.675204	1.000464
H262	H	0.397779	0.007104	-0.077190
H263	H	0.731112	0.340437	0.256143
H264	H	1.064445	0.673770	0.589477
H265	H	0.819398	-0.465244	-0.185986
H266	H	1.152731	-0.131911	0.147348
H267	H	1.486064	0.201423	0.480681
F268	F	0.005448	0.283981	-0.000260
F269	F	0.338781	0.617315	0.333074
F270	F	0.672115	0.950648	0.666407
F271	F	0.918022	-0.006820	0.656188
F272	F	1.251355	0.326513	0.989521
F273	F	1.584689	0.659846	1.322854
F274	F	0.452362	0.292485	-0.000183
F275	F	0.785695	0.625818	0.333150
F276	F	1.119029	0.959152	0.666483
F277	F	0.232819	0.248554	0.087365
F278	F	0.566152	0.581887	0.420699
F279	F	0.899485	0.915221	0.754032
F280	F	0.839276	-0.049515	0.578474
F281	F	1.172609	0.283818	0.911807
F282	F	1.505942	0.617152	1.245140
F283	F	0.723260	0.246923	0.813616
F284	F	1.056593	0.580256	1.146949
F285	F	1.389926	0.913589	1.480283
F286	F	0.382375	0.251402	0.087389
F287	F	0.715708	0.584736	0.420723
F288	F	1.049041	0.918069	0.754056
F289	F	0.155000	0.286830	-0.000242
F290	F	0.488334	0.620163	0.333091
F291	F	0.821667	0.953497	0.666424
H292	H	0.906228	0.008543	0.804009
H293	H	1.239562	0.341876	1.137342
H294	H	1.572895	0.675210	1.470676
