data_functionalizedCrystal
_audit_creation_method	'MofGen! by Chris Wilmer'
_symmetry_space_group_name_H-M	'P1'
_symmetry_Int_Tables_number	1
_symmetry_cell_setting	triclinic
loop_
_symmetry_equiv_pos_as_xyz
  x,y,z
_cell_length_a	9.065218
_cell_length_b	10.908878
_cell_length_c	7.540329
_cell_angle_alpha	89.996957
_cell_angle_beta	89.996962
_cell_angle_gamma	72.550338
loop_
_atom_site_label
_atom_site_type_symbol
_atom_site_fract_x
_atom_site_fract_y
_atom_site_fract_z
O1	O	1.911445	0.187750	-0.147482
O2	O	1.478145	0.203150	-0.147485
O3	O	1.752234	0.009186	-0.147477
O4	O	1.637356	0.381714	-0.147490
O5	O	1.752221	0.009183	0.147489
O6	O	1.478132	0.203147	0.147481
O7	O	1.911432	0.187747	0.147483
Cu8	Cu	1.694781	0.195447	0.174414
Cu9	Cu	1.694796	0.195450	-0.174416
O10	O	1.637343	0.381711	0.147475
C11	C	1.423538	0.201669	-0.000002
C12	C	1.260849	0.197243	-0.000003
C13	C	1.762964	-0.038532	0.000004
C14	C	1.794936	-0.180713	-0.000002
C15	C	1.678276	-0.231078	-0.000006
C16	C	1.711318	-0.378029	-0.000012
C17	C	1.966039	0.189229	-0.000004
C18	C	2.128728	0.193654	-0.000014
C19	C	1.626613	0.429429	-0.000010
C20	C	1.594641	0.571610	-0.000015
N21	N	1.694781	0.195444	0.419763
N22	N	1.694810	0.195443	-0.419765
H23	H	1.553937	-0.165406	0.000005
H24	H	1.835665	-0.443698	-0.000005
C25	C	1.426656	-0.339691	-0.000027
H26	H	1.426481	-0.252559	-0.000039
H27	H	1.374915	-0.355892	0.102825
H28	H	1.374946	-0.355888	-0.102909
H29	H	1.919275	-0.246385	0.000004
