data_functionalizedCrystal
_audit_creation_method	'MofGen! by Chris Wilmer'
_symmetry_space_group_name_H-M	'P1'
_symmetry_Int_Tables_number	1
_symmetry_cell_setting	triclinic
loop_
_symmetry_equiv_pos_as_xyz
  x,y,z
_cell_length_a	13.262846
_cell_length_b	13.339070
_cell_length_c	12.376717
_cell_angle_alpha	98.994229
_cell_angle_beta	118.174243
_cell_angle_gamma	99.435170
loop_
_atom_site_label
_atom_site_type_symbol
_atom_site_fract_x
_atom_site_fract_y
_atom_site_fract_z
O1	O	-0.544782	-1.358114	-0.073391
O2	O	-0.470007	-1.059040	-0.050416
O3	O	-0.344508	-1.206722	-0.011849
O4	O	-0.670281	-1.210432	-0.111957
O5	O	-0.394324	-1.244335	-0.215161
O6	O	-0.519823	-1.096653	-0.253727
O7	O	-0.594599	-1.395727	-0.276702
Zn8	Zn	-0.565120	-1.252162	-0.297495
Zn9	Zn	-0.499485	-1.202605	-0.029623
O10	O	-0.720097	-1.248045	-0.315269
C11	C	-0.482284	-1.039389	-0.148191
C12	C	-0.444633	-0.924798	-0.136622
C13	C	-0.326868	-1.222274	-0.100428
C14	C	-0.200086	-1.212567	-0.061461
C15	C	-0.113394	-1.187514	0.067679
C16	C	0.005729	-1.178400	0.104317
C17	C	0.038172	-1.194345	0.011819
C18	C	-0.048521	-1.219406	-0.117325
C19	C	-0.167655	-1.228513	-0.153966
C20	C	-0.016089	-1.235344	-0.209826
C21	C	-0.102782	-1.260404	-0.338970
C22	C	-0.221903	-1.269511	-0.375605
C23	C	-0.254346	-1.253565	-0.283107
C24	C	0.103045	-1.226237	-0.173185
C25	C	0.048785	-1.267235	-0.394830
C26	C	-0.070339	-1.276350	-0.431468
C27	C	-0.582321	-1.415378	-0.178925
C28	C	-0.619969	-1.529968	-0.190485
C29	C	0.262262	-1.232488	-0.226698
C30	C	0.135476	-1.242183	-0.265690
N31	N	-0.609916	-1.285991	-0.480310
C32	C	-0.737380	-0.577806	-0.226563
C33	C	-0.772757	-0.685469	-0.237430
C34	C	-0.690729	-0.745307	-0.212229
C35	C	-0.573318	-0.697470	-0.176159
C36	C	-0.537935	-0.589794	-0.165282
C37	C	-0.491284	-0.757295	-0.150948
C38	C	-0.373874	-0.709458	-0.114878
C39	C	-0.338497	-0.601793	-0.104004
C40	C	-0.420525	-0.541956	-0.129204
C41	C	-0.526667	-0.864971	-0.161825
C42	C	-0.327223	-0.876959	-0.100544
C43	C	-0.291846	-0.769296	-0.089678
C44	C	-0.713897	-1.364558	-0.571429
C45	C	-0.745235	-1.388260	-0.699393
C46	C	-0.672600	-1.333393	-0.736253
C47	C	-0.568621	-1.254819	-0.645135
C48	C	-0.537275	-1.231120	-0.517157
C49	C	-0.495978	-1.199955	-0.681981
C50	C	-0.391999	-1.121382	-0.590863
C51	C	-0.360659	-1.097686	-0.462898
C52	C	-0.433294	-1.152553	-0.426039
C53	C	-0.527324	-1.223655	-0.809959
C54	C	-0.350702	-1.090217	-0.755687
C55	C	-0.319364	-1.066514	-0.627723
N56	N	-0.454683	-1.168784	0.153195
H57	H	0.173621	-1.205830	-0.068035
H58	H	-0.773020	-1.409228	-0.541402
O59	O	0.089997	-1.153891	0.229753
C60	C	0.175309	-1.058953	0.262135
H61	H	0.134345	-1.011495	0.191383
H62	H	0.205589	-1.011038	0.362086
H63	H	0.254978	-1.077554	0.259123
H64	H	-0.719540	-0.832970	-0.221076
O65	O	-0.385980	-0.437346	-0.118438
C66	C	-0.293685	-0.385176	0.007308
H67	H	-0.247237	-0.444226	0.054044
H68	H	-0.226798	-0.320468	0.005965
H69	H	-0.332384	-0.348648	0.063596
H70	H	-0.804151	-0.529075	-0.247067
O71	O	-0.306250	-1.293980	-0.501019
C72	C	-0.391519	-1.388943	-0.533379
H73	H	-0.390724	-1.401997	-0.444157
H74	H	-0.483455	-1.384129	-0.605020
H75	H	-0.369333	-1.457491	-0.577127
H76	H	0.075198	-1.280215	-0.470150
H77	H	-0.242890	-0.562846	-0.074620
O78	O	-0.218468	-0.990120	-0.539115
C79	C	-0.247834	-0.910266	-0.479736
H80	H	-0.337408	-0.943926	-0.489546
H81	H	-0.176555	-0.879344	-0.374608
H82	H	-0.253282	-0.842958	-0.527036
H83	H	-0.260427	-0.925678	-0.080018
H84	H	-0.140940	-1.296754	-0.536619
H85	H	-0.622265	-0.903910	-0.191198
H86	H	-0.611984	-1.287630	-0.884136
O87	O	-0.703244	-1.356510	-0.860618
C88	C	-0.810577	-1.437642	-0.933133
H89	H	-0.861809	-1.439055	-0.880685
H90	H	-0.866498	-1.422713	-1.029498
H91	H	-0.790218	-1.516761	-0.947853
O92	O	-0.177754	-0.722732	-0.054419
C93	C	-0.125535	-0.641315	0.058983
H94	H	-0.174750	-0.656750	0.111915
H95	H	-0.028274	-0.638850	0.121552
H96	H	-0.131355	-0.562509	0.035183
H97	H	-0.829893	-1.452237	-0.773572
H98	H	-0.351345	-1.260990	-0.312932
H99	H	-0.291556	-1.045539	-0.785696
H100	H	-0.407785	-1.133256	-0.321842
O101	O	-0.886799	-0.732090	-0.272597
C102	C	-0.939059	-0.813484	-0.386026
H103	H	-0.866390	-0.841308	-0.396183
H104	H	-1.000313	-0.882280	-0.382924
H105	H	-0.992735	-0.782686	-0.470693
H106	H	0.135170	-1.186922	0.041658
O107	O	-0.259681	-1.021410	-0.374218
C108	C	-0.247615	-1.012231	-0.253373
H109	H	-0.299911	-1.089057	-0.253262
H110	H	-0.149720	-0.995417	-0.178291
H111	H	-0.283455	-0.944798	-0.230846
O112	O	-0.145055	-1.171942	0.157395
C113	C	-0.197573	-1.087521	0.147395
H114	H	-0.234024	-1.077165	0.047215
H115	H	-0.273205	-1.105176	0.167471
H116	H	-0.127962	-1.011958	0.219412
