data_functionalizedCrystal
_audit_creation_method	'MofGen! by Chris Wilmer'
_symmetry_space_group_name_H-M	'P1'
_symmetry_Int_Tables_number	1
_symmetry_cell_setting	triclinic
loop_
_symmetry_equiv_pos_as_xyz
  x,y,z
_cell_length_a	10.723023
_cell_length_b	10.723022
_cell_length_c	16.776229
_cell_angle_alpha	89.994545
_cell_angle_beta	89.993021
_cell_angle_gamma	84.467387
loop_
_atom_site_label
_atom_site_type_symbol
_atom_site_fract_x
_atom_site_fract_y
_atom_site_fract_z
O1	O	1.657193	0.175026	-0.066284
O2	O	2.157193	0.675026	0.433716
O3	O	1.294040	0.191780	-0.066286
O4	O	1.794040	0.691780	0.433714
O5	O	1.483994	0.001827	-0.066282
O6	O	1.983994	0.501827	0.433718
O7	O	1.467239	0.364979	-0.066288
O8	O	1.967239	0.864979	0.433712
O9	O	1.483968	0.001814	0.066295
O10	O	1.983968	0.501814	0.566295
O11	O	1.294014	0.191768	0.066291
O12	O	1.794014	0.691768	0.566291
O13	O	1.657167	0.175014	0.066293
O14	O	2.157167	0.675014	0.566293
Zn15	Zn	1.475587	0.183389	0.087341
Zn16	Zn	1.975587	0.683389	0.587341
Zn17	Zn	1.475620	0.183405	-0.087334
Zn18	Zn	1.975620	0.683405	0.412666
O19	O	1.467213	0.364967	0.066289
O20	O	1.967213	0.864967	0.566289
C21	C	1.247528	0.190555	0.000002
C22	C	1.747528	0.690555	0.500002
C23	C	1.108973	0.186908	0.000002
C24	C	1.608973	0.686908	0.500002
C25	C	1.047215	0.185288	-0.068677
C26	C	1.547215	0.685288	0.431323
C27	C	0.904012	0.181518	-0.068680
C28	C	1.404012	0.681518	0.431320
C29	C	1.482762	-0.044679	0.000006
C30	C	1.982762	0.455321	0.500006
C31	C	1.479115	-0.183233	0.000003
C32	C	1.979115	0.316767	0.500003
C33	C	1.369575	-0.231794	0.000001
C34	C	1.869575	0.268206	0.500001
C35	C	1.365804	-0.374997	-0.000002
C36	C	1.865804	0.125003	0.499998
C37	C	1.703679	0.176239	0.000003
C38	C	2.203679	0.676239	0.500003
C39	C	1.842234	0.179886	-0.000002
C40	C	2.342234	0.679886	0.499998
C41	C	1.468445	0.411473	-0.000000
C42	C	1.968445	0.911473	0.500000
C43	C	1.472092	0.550027	-0.000003
C44	C	1.972092	1.050027	0.499997
N45	N	1.475573	0.183377	0.206552
N46	N	1.975573	0.683377	0.706552
N47	N	1.475644	0.183406	-0.206545
N48	N	1.975644	0.683406	0.293455
C49	C	1.559711	0.099301	0.248271
C50	C	2.059711	0.599301	0.748271
C51	C	1.559718	0.099300	0.331723
C52	C	2.059718	0.599300	0.831723
C53	C	1.475592	0.183382	0.373455
C54	C	1.975592	0.683382	0.873455
C55	C	1.391445	0.267463	0.331731
C56	C	1.891445	0.767463	0.831731
C57	C	1.391433	0.267457	0.248280
C58	C	1.891433	0.767457	0.748280
C59	C	1.391490	0.267488	0.668278
C60	C	1.891490	0.767488	1.168278
C61	C	1.391511	0.267490	0.751734
C62	C	1.891511	0.767490	1.251734
C63	C	1.559775	0.099331	0.751721
C64	C	2.059775	0.599331	1.251721
C65	C	1.559763	0.099325	0.668271
C66	C	2.059763	0.599325	1.168271
C67	C	1.475612	0.183400	0.626553
C68	C	1.975612	0.683400	1.126553
C69	C	1.475604	0.183399	0.536065
C70	C	1.975604	0.683399	1.036065
C71	C	1.475605	0.183391	0.463942
C72	C	1.975605	0.683391	0.963942
H73	H	1.278587	-0.167352	0.000005
H74	H	1.778587	0.332648	0.500005
F75	F	1.649257	0.009813	0.203865
F76	F	2.149257	0.509813	0.703865
F77	F	1.039516	0.185082	0.076856
F78	F	1.539516	0.685082	0.576856
F79	F	1.594688	-0.395336	-0.000006
F80	F	2.094688	0.104664	0.499994
H81	H	1.272016	-0.416809	-0.000008
H82	H	1.772016	0.083191	0.499992
H83	H	1.628228	0.030838	0.365690
H84	H	2.128228	0.530838	0.865690
F85	F	0.834598	0.179688	-0.145536
F86	F	1.334598	0.679688	0.354464
H87	H	1.322942	0.335920	0.365713
H88	H	1.822942	0.835920	0.865713
H89	H	1.628270	0.030862	0.634295
H90	H	2.128270	0.530862	1.134295
F91	F	1.598049	-0.267459	0.000008
F92	F	2.098049	0.232541	0.500008
F93	F	1.649333	0.009845	0.796126
F94	F	2.149333	0.509845	1.296126
H95	H	1.323001	0.335962	0.785711
H96	H	1.823001	0.835962	1.285711
F97	F	1.116671	0.187125	-0.145532
F98	F	1.616671	0.687125	0.354468
F99	F	1.301878	0.356939	0.203881
F100	F	1.801878	0.856939	0.703881
F101	F	1.301936	0.356969	0.623885
F102	F	1.801936	0.856969	1.123885
H103	H	0.895337	0.181273	0.058800
H104	H	1.395337	0.681273	0.558800
