data_functionalizedCrystal
_audit_creation_method	'MofGen! by Chris Wilmer'
_symmetry_space_group_name_H-M	'P1'
_symmetry_Int_Tables_number	1
_symmetry_cell_setting	triclinic
loop_
_symmetry_equiv_pos_as_xyz
  x,y,z
_cell_length_a	12.759401
_cell_length_b	17.637651
_cell_length_c	12.759393
_cell_angle_alpha	78.751097
_cell_angle_beta	89.979062
_cell_angle_gamma	101.220604
loop_
_atom_site_label
_atom_site_type_symbol
_atom_site_fract_x
_atom_site_fract_y
_atom_site_fract_z
Zn1	Zn	1.521705	-0.314700	-0.509352
Zn2	Zn	1.486064	-0.446936	-0.298095
Zn3	Zn	1.345992	-0.314742	-0.333676
Zn4	Zn	1.310478	-0.446881	-0.473747
O5	O	1.416060	-0.380814	-0.403718
O6	O	1.663997	-0.332247	-0.481339
O7	O	1.467430	-0.429441	-0.155783
O8	O	1.399080	-0.204094	-0.386772
O9	O	1.637811	-0.429400	-0.326129
O10	O	1.528175	-0.204063	-0.515840
O11	O	1.364520	-0.332318	-0.181924
O12	O	1.194262	-0.332265	-0.352247
O13	O	1.338551	-0.429306	-0.625502
O14	O	1.168170	-0.429347	-0.455156
O15	O	1.493738	-0.332193	-0.651661
O16	O	1.432993	-0.557571	-0.291604
O17	O	1.303991	-0.557530	-0.420655
C18	C	1.143095	-0.380805	-0.403699
C19	C	1.026314	-0.380820	-0.403711
C20	C	0.957873	-0.431447	-0.457170
C21	C	0.848148	-0.431450	-0.457190
C22	C	0.875316	-0.330196	-0.350284
C23	C	0.985040	-0.330190	-0.350271
C24	C	1.360799	-0.586238	-0.348428
C25	C	1.337254	-0.674120	-0.324810
C26	C	1.595609	-0.962775	-0.583473
C27	C	1.573452	-1.045353	-0.561262
C28	C	1.439114	-1.045493	-0.426733
C29	C	1.461264	-0.962913	-0.448929
C30	C	1.539512	-0.921561	-0.527301
C31	C	1.405166	-0.921699	-0.392757
C32	C	1.427311	-0.839126	-0.414956
C33	C	1.505553	-0.797768	-0.493327
C34	C	1.561656	-0.838989	-0.549500
C35	C	1.326914	-0.963052	-0.314391
C36	C	1.270816	-0.921838	-0.258219
C37	C	1.292966	-0.839264	-0.280412
C38	C	1.371207	-0.797906	-0.358783
C39	C	1.236862	-0.798044	-0.224239
C40	C	1.259007	-0.715472	-0.246438
C41	C	1.393352	-0.715334	-0.380981
C42	C	1.690090	-0.380825	-0.403736
C43	C	1.806866	-0.380829	-0.403744
C44	C	1.416159	-0.380739	-0.677772
C45	C	1.416201	-0.380706	-0.794557
C46	C	1.471565	-0.174588	-0.459246
C47	C	1.495218	-0.086707	-0.482910
C48	C	1.497014	-0.330131	-0.863044
C49	C	1.497041	-0.330097	-0.972777
C50	C	1.335437	-0.431220	-0.945525
C51	C	1.335407	-0.431249	-0.835795
C52	C	1.416037	-0.380833	-0.130745
C53	C	1.416258	-0.380643	-0.014020
H54	H	0.792427	-0.472675	-0.500723
H55	H	1.269591	-0.472432	-0.780031
N56	N	1.002388	-0.486053	-0.514810
H57	H	0.986617	-0.473841	-0.593192
H58	H	1.082270	-0.478346	-0.506606
H59	H	0.841697	-0.288976	-0.306774
N60	N	1.058872	-0.275571	-0.292626
H61	H	1.016077	-0.243500	-0.258771
H62	H	1.095737	-0.307702	-0.235280
H63	H	1.207105	-0.955518	-0.194411
H64	H	1.269659	-0.472372	-0.979115
H65	H	1.457077	-0.681663	-0.444792
H66	H	1.562800	-0.288974	-0.829472
H67	H	1.562846	-0.288913	-1.028536
H68	H	1.625381	-0.805318	-0.613311
N69	N	1.529453	-0.708708	-0.517283
H70	H	1.462702	-0.688839	-0.541872
H71	H	1.554164	-0.688906	-0.450540
H72	H	1.659334	-0.929105	-0.647284
N73	N	1.633969	-1.089808	-0.621844
H74	H	1.686899	-1.051079	-0.674855
H75	H	1.673424	-1.124060	-0.569905
H76	H	1.375403	-1.079173	-0.362925
H77	H	1.308877	-1.030288	-0.296330
N78	N	1.152468	-0.842649	-0.139716
H79	H	1.146950	-0.901212	-0.134179
H80	H	1.172728	-0.828249	-0.068568
N81	N	1.198501	-0.671012	-0.185861
H82	H	1.145573	-0.709738	-0.132843
H83	H	1.250481	-0.636753	-0.146492
