data_functionalizedCrystal
_audit_creation_method	'MofGen! by Chris Wilmer'
_symmetry_space_group_name_H-M	'P1'
_symmetry_Int_Tables_number	1
_symmetry_cell_setting	triclinic
loop_
_symmetry_equiv_pos_as_xyz
  x,y,z
_cell_length_a	15.944545
_cell_length_b	23.532357
_cell_length_c	14.421503
_cell_angle_alpha	89.998741
_cell_angle_beta	89.995153
_cell_angle_gamma	83.162232
loop_
_atom_site_label
_atom_site_type_symbol
_atom_site_fract_x
_atom_site_fract_y
_atom_site_fract_z
O1	O	1.113894	0.073427	-0.077063
O2	O	1.447228	0.406760	0.256270
O3	O	1.780561	0.740093	0.589603
O4	O	0.869265	0.082486	-0.077080
O5	O	1.202599	0.415820	0.256254
O6	O	1.535932	0.749153	0.589587
O7	O	0.998979	-0.004949	-0.077052
O8	O	1.332312	0.328385	0.256281
O9	O	1.665645	0.661718	0.589615
O10	O	0.984181	0.160862	-0.077091
O11	O	1.317515	0.494195	0.256242
O12	O	1.650848	0.827528	0.589576
O13	O	0.998957	-0.004936	0.077172
O14	O	1.332290	0.328398	0.410505
O15	O	1.665624	0.661731	0.743838
O16	O	0.869244	0.082499	0.077144
O17	O	1.202577	0.415833	0.410477
O18	O	1.535910	0.749166	0.743810
O19	O	1.113873	0.073440	0.077160
O20	O	1.447206	0.406773	0.410494
O21	O	1.780540	0.740106	0.743827
Cu22	Cu	0.991556	0.077971	0.091234
Cu23	Cu	1.324890	0.411304	0.424567
Cu24	Cu	1.658223	0.744637	0.757900
Cu25	Cu	0.991582	0.077955	-0.091153
Cu26	Cu	1.324915	0.411289	0.242180
Cu27	Cu	1.658248	0.744622	0.575513
O28	O	0.984160	0.160875	0.077132
O29	O	1.317493	0.494208	0.410466
O30	O	1.650826	0.827541	0.743799
C31	C	0.837964	0.082117	0.000030
C32	C	1.171297	0.415451	0.333364
C33	C	1.504630	0.748784	0.666697
C34	C	0.744727	0.080992	0.000025
C35	C	1.078061	0.414325	0.333358
C36	C	1.411394	0.747658	0.666691
C37	C	0.474595	0.023432	0.000048
C38	C	0.807928	0.356765	0.333382
C39	C	1.141261	0.690099	0.666715
C40	C	0.524925	0.051189	0.076084
C41	C	0.858258	0.384522	0.409417
C42	C	1.191591	0.717856	0.742751
C43	C	0.409118	0.076977	0.000042
C44	C	0.742452	0.410311	0.333375
C45	C	1.075785	0.743644	0.666708
C46	C	0.524926	0.051190	-0.075968
C47	C	0.858260	0.384524	0.257365
C48	C	1.191593	0.717857	0.590699
C49	C	0.574015	0.078947	0.000032
C50	C	0.907348	0.412280	0.333365
C51	C	1.240681	0.745613	0.666698
C52	C	0.458220	0.104720	0.076140
C53	C	0.791553	0.438053	0.409474
C54	C	1.124887	0.771387	0.742807
C55	C	0.458218	0.104714	-0.075980
C56	C	0.791552	0.438047	0.257353
C57	C	1.124885	0.771380	0.590686
C58	C	0.508515	0.132510	0.000074
C59	C	0.841848	0.465844	0.333408
C60	C	1.175182	0.799177	0.666741
C61	C	0.314126	0.075841	0.000048
C62	C	0.647459	0.409175	0.333381
C63	C	0.980793	0.742508	0.666715
C64	C	0.669004	0.080087	0.000032
C65	C	1.002337	0.413420	0.333365
C66	C	1.335671	0.746754	0.666699
C67	C	0.998598	-0.026160	0.000063
C68	C	1.331931	0.307173	0.333396
C69	C	1.665264	0.640506	0.666729
C70	C	0.997485	-0.089383	0.000071
C71	C	1.330818	0.243950	0.333405
C72	C	1.664152	0.577284	0.666738
C73	C	0.990511	-0.481428	-0.084046
C74	C	1.323844	-0.148095	0.249287
C75	C	1.657177	0.185238	0.582620
C76	C	0.989453	-0.540832	-0.084052
C77	C	1.322786	-0.207499	0.249282
C78	C	1.656119	0.125835	0.582615
O79	O	0.988887	-0.571557	-0.155548
O80	O	1.322220	-0.238223	0.177786
O81	O	1.655554	0.095110	0.511119
N82	N	0.988916	-0.570538	0.000014
N83	N	1.322250	-0.237205	0.333348
N84	N	1.655583	0.096129	0.666681
C85	C	0.989429	-0.540837	0.084091
C86	C	1.322763	-0.207504	0.417424
C87	C	1.656096	0.125830	0.750758
O88	O	0.988875	-0.571559	0.155595
O89	O	1.322209	-0.238225	0.488929
O90	O	1.655542	0.095108	0.822262
C91	C	0.990481	-0.481434	0.084096
C92	C	1.323815	-0.148101	0.417429
C93	C	1.657148	0.185233	0.750762
C94	C	0.991026	-0.451732	0.000024
C95	C	1.324359	-0.118398	0.333357
C96	C	1.657693	0.214935	0.666691
C97	C	0.991054	-0.451726	-0.168111
C98	C	1.324388	-0.118393	0.165222
C99	C	1.657721	0.214941	0.498556
C100	C	0.992114	-0.392327	-0.168105
C101	C	1.325447	-0.058993	0.165228
C102	C	1.658780	0.274340	0.498561
C103	C	0.992629	-0.362630	-0.084035
C104	C	1.325963	-0.029297	0.249298
C105	C	1.659296	0.304037	0.582632
C106	C	0.992085	-0.392332	0.000030
C107	C	1.325419	-0.058999	0.333363
C108	C	1.658752	0.274334	0.666696
C109	C	0.990988	-0.451733	0.168171
C110	C	1.324322	-0.118400	0.501505
C111	C	1.657655	0.214933	0.834838
C112	C	0.992039	-0.392326	0.168169
C113	C	1.325373	-0.058993	0.501502
C114	C	1.658706	0.274341	0.834835
C115	C	0.992584	-0.362624	0.084097
C116	C	1.325918	-0.029290	0.417430
C117	C	1.659251	0.304043	0.750764
C118	C	0.993660	-0.303236	0.084106
C119	C	1.326994	0.030097	0.417439
C120	C	1.660327	0.363431	0.750772
N121	N	0.994196	-0.273530	0.000040
N122	N	1.327530	0.059803	0.333373
N123	N	1.660863	0.393137	0.666706
C124	C	0.993681	-0.303227	-0.084031
C125	C	1.327014	0.030106	0.249303
C126	C	1.660348	0.363440	0.582636
C127	C	0.987219	-0.665587	0.084075
C128	C	1.320552	-0.332254	0.417409
C129	C	1.653886	0.001080	0.750742
C130	C	0.986173	-0.724989	0.084072
C131	C	1.319507	-0.391656	0.417405
C132	C	1.652840	-0.058323	0.750739
C133	C	0.986195	-0.724980	-0.084071
C134	C	1.319528	-0.391647	0.249262
C135	C	1.652862	-0.058314	0.582596
C136	C	0.987247	-0.665577	-0.084067
C137	C	1.320580	-0.332244	0.249267
C138	C	1.653914	0.001089	0.582600
C139	C	0.987755	-0.635881	0.000009
C140	C	1.321089	-0.302547	0.333343
C141	C	1.654422	0.030786	0.666676
C142	C	0.995906	-0.178484	-0.084012
C143	C	1.329240	0.154849	0.249321
C144	C	1.662573	0.488183	0.582654
C145	C	0.996969	-0.119080	-0.083999
C146	C	1.330303	0.214253	0.249334
C147	C	1.663636	0.547587	0.582668
C148	C	0.996943	-0.119094	0.084144
C149	C	1.330276	0.214239	0.417477
C150	C	1.663610	0.547573	0.750810
C151	C	0.995885	-0.178493	0.084131
C152	C	1.329218	0.154840	0.417464
C153	C	1.662551	0.488173	0.750798
C154	C	0.995364	-0.208187	0.000046
C155	C	1.328697	0.125147	0.333379
C156	C	1.662030	0.458480	0.666712
O157	O	0.994223	-0.272474	0.155565
O158	O	1.327556	0.060860	0.488899
O159	O	1.660890	0.394193	0.822232
O160	O	0.994224	-0.272497	-0.155523
O161	O	1.327557	0.060837	0.177811
O162	O	1.660891	0.394170	0.511144
C163	C	1.145174	0.073809	0.000048
C164	C	1.478508	0.407142	0.333382
C165	C	1.811841	0.740475	0.666715
C166	C	1.238411	0.074934	0.000048
C167	C	1.571744	0.408268	0.333381
C168	C	1.905078	0.741601	0.666714
C169	C	0.984541	0.182086	0.000016
C170	C	1.317874	0.515419	0.333349
C171	C	1.651207	0.848753	0.666682
C172	C	0.985653	0.245309	0.000001
C173	C	1.318987	0.578642	0.333334
C174	C	1.652320	0.911976	0.666668
N175	N	0.991545	0.077981	0.219515
N176	N	1.324878	0.411314	0.552848
N177	N	1.658211	0.744648	0.886182
N178	N	0.991600	0.077940	-0.219434
N179	N	1.324934	0.411274	0.113899
N180	N	1.658267	0.744607	0.447232
C181	C	0.931555	0.118393	0.469156
C182	C	1.264888	0.451726	0.802489
C183	C	1.598222	0.785060	1.135823
C184	C	1.007359	0.129448	0.530961
C185	C	1.340692	0.462782	0.864294
C186	C	1.674026	0.796115	1.197627
C187	C	0.991565	0.077968	0.408676
C188	C	1.324899	0.411301	0.742010
C189	C	1.658232	0.744634	1.075343
C190	C	0.915781	0.066925	0.530966
C191	C	1.249114	0.400259	0.864299
C192	C	1.582447	0.733592	1.197632
C193	C	0.991578	0.077956	0.591398
C194	C	1.324912	0.411289	0.924731
C195	C	1.658245	0.744622	1.258065
C196	C	1.067407	0.089049	0.469120
C197	C	1.400741	0.422382	0.802454
C198	C	1.734074	0.755715	1.135787
C199	C	0.975779	0.026503	0.469120
C200	C	1.309113	0.359837	0.802453
C201	C	1.642446	0.693170	1.135787
C202	C	1.051638	0.037537	0.530897
C203	C	1.384972	0.370870	0.864230
C204	C	1.718305	0.704204	1.197564
C205	C	0.991556	0.077976	0.303415
C206	C	1.324890	0.411309	0.636749
C207	C	1.658223	0.744642	0.970082
C208	C	0.991596	0.077947	0.696657
C209	C	1.324929	0.411280	1.029990
C210	C	1.658262	0.744614	1.363323
H211	H	0.429205	0.127322	0.140492
H212	H	0.762539	0.460656	0.473825
H213	H	1.095872	0.793989	0.807158
Br214	Br	0.985454	-0.765294	0.198174
Br215	Br	1.318788	-0.431961	0.531507
Br216	Br	1.652121	-0.098627	0.864840
Br217	Br	0.987915	-0.625291	0.198190
Br218	Br	1.321248	-0.291958	0.531523
Br219	Br	1.654582	0.041376	0.864857
H220	H	0.459342	-0.022682	0.000133
H221	H	0.792676	0.310651	0.333466
H222	H	1.126009	0.643985	0.666800
Br223	Br	0.990246	-0.492028	0.282276
Br224	Br	1.323579	-0.158695	0.615609
Br225	Br	1.656912	0.174639	0.948943
Br226	Br	0.987986	-0.625273	-0.198167
Br227	Br	1.321319	-0.291940	0.135166
Br228	Br	1.654653	0.041393	0.468499
Br229	Br	1.136320	-0.019455	0.575804
Br230	Br	1.469653	0.313878	0.909137
Br231	Br	1.802986	0.647212	1.242471
H232	H	0.992554	-0.368148	-0.236565
H233	H	1.325888	-0.034815	0.096768
H234	H	1.659221	0.298519	0.430102
H235	H	0.962391	-0.017000	0.441935
H236	H	1.295724	0.316333	0.775269
H237	H	1.629058	0.649667	1.108602
Br238	Br	0.533666	0.209429	0.000121
Br239	Br	0.866999	0.542763	0.333454
Br240	Br	1.200332	0.876096	0.666787
H241	H	0.851685	0.057591	0.558134
H242	H	1.185019	0.390924	0.891468
H243	H	1.518352	0.724258	1.224801
H244	H	1.131516	0.098435	0.442068
H245	H	1.464850	0.431769	0.775402
H246	H	1.798183	0.765102	1.108735
H247	H	0.554043	0.028581	0.140377
H248	H	0.887376	0.361914	0.473711
H249	H	1.220710	0.695247	0.807044
Br250	Br	0.409656	0.142364	-0.183144
Br251	Br	0.742990	0.475697	0.150189
Br252	Br	1.076323	0.809031	0.483522
H253	H	0.992441	-0.368149	0.236635
H254	H	1.325774	-0.034816	0.569969
H255	H	1.659108	0.298517	0.903302
H256	H	0.880857	0.152607	0.442047
H257	H	1.214191	0.485940	0.775381
H258	H	1.547524	0.819273	1.108714
Br259	Br	1.029638	0.201978	0.576234
Br260	Br	1.362971	0.535312	0.909567
Br261	Br	1.696304	0.868645	1.242901
H262	H	0.995449	-0.202679	0.152589
H263	H	1.328782	0.130654	0.485922
H264	H	1.662116	0.463988	0.819255
Br265	Br	0.997714	-0.078774	-0.198104
Br266	Br	1.331047	0.254560	0.135230
Br267	Br	1.664380	0.587893	0.468563
Br268	Br	0.573471	0.013477	-0.183101
Br269	Br	0.906804	0.346810	0.150232
Br270	Br	1.240137	0.680143	0.483565
H271	H	0.995478	-0.202653	-0.152483
H272	H	1.328811	0.130680	0.180851
H273	H	1.662145	0.464013	0.514184
Br274	Br	0.990354	-0.492018	-0.282222
Br275	Br	1.323687	-0.158684	0.051111
Br276	Br	1.657021	0.174649	0.384444
H277	H	0.985773	-0.749170	-0.152526
H278	H	1.319106	-0.415837	0.180807
H279	H	1.652439	-0.082503	0.514141
H280	H	0.997367	-0.094904	0.152592
H281	H	1.330700	0.238429	0.485925
H282	H	1.664033	0.571762	0.819258
