data_functionalizedCrystal
_audit_creation_method	'MofGen! by Chris Wilmer'
_symmetry_space_group_name_H-M	'P1'
_symmetry_Int_Tables_number	1
_symmetry_cell_setting	triclinic
loop_
_symmetry_equiv_pos_as_xyz
  x,y,z
_cell_length_a	21.395362
_cell_length_b	21.395361
_cell_length_c	21.395356
_cell_angle_alpha	90.028219
_cell_angle_beta	90.042977
_cell_angle_gamma	90.046411
loop_
_atom_site_label
_atom_site_type_symbol
_atom_site_fract_x
_atom_site_fract_y
_atom_site_fract_z
Zn1	Zn	-0.957854	0.249189	-0.354583
Zn2	Zn	-0.957759	0.353965	-0.249805
Zn3	Zn	-0.853071	0.249235	-0.249785
Zn4	Zn	-0.853039	0.353962	-0.354510
O5	O	-0.905431	0.301588	-0.302171
O6	O	-1.045520	0.263070	-0.340724
O7	O	-0.943845	0.340094	-0.162124
O8	O	-0.867024	0.161551	-0.263709
O9	O	-1.045449	0.340049	-0.263743
O10	O	-0.944008	0.161517	-0.340704
O11	O	-0.866932	0.263148	-0.162109
O12	O	-0.765389	0.263145	-0.263637
O13	O	-0.866969	0.340042	-0.442197
O14	O	-0.765365	0.340087	-0.340578
O15	O	-0.943977	0.263066	-0.442251
O16	O	-0.943814	0.441643	-0.263672
O17	O	-0.866877	0.441640	-0.340598
C18	C	-0.742643	0.301621	-0.302098
C19	C	-0.673002	0.301650	-0.302082
C20	C	-0.905349	0.464375	-0.302143
C21	C	-0.905371	0.534017	-0.302152
C22	C	-0.905480	0.301549	-0.465594
C23	C	-0.905501	0.301532	-0.535235
C24	C	-1.068854	0.301555	-0.302244
C25	C	-1.138495	0.301541	-0.302275
C26	C	-0.640293	0.341767	-0.342085
C27	C	-0.574857	0.341752	-0.342113
C28	C	-0.542134	0.301626	-0.302126
C29	C	-0.574850	0.261501	-0.262120
C30	C	-0.640285	0.261513	-0.262098
C31	C	-0.438410	0.296587	-0.245721
C32	C	-0.372977	0.296580	-0.245742
C33	C	-0.340313	0.301585	-0.302195
C34	C	-0.373090	0.306611	-0.358629
C35	C	-0.438524	0.306623	-0.358607
C36	C	-0.471181	0.301608	-0.302146
C37	C	-0.236651	0.341687	-0.342232
C38	C	-0.171215	0.341668	-0.342261
C39	C	-0.171209	0.261421	-0.262263
C40	C	-0.236644	0.261437	-0.262240
C41	C	-0.269362	0.301574	-0.302223
C42	C	-0.945468	0.566710	-0.262139
C43	C	-0.945497	0.632146	-0.262156
C44	C	-0.905418	0.664885	-0.302179
C45	C	-0.865318	0.632183	-0.342200
C46	C	-0.865295	0.566749	-0.342186
C47	C	-0.849004	0.768615	-0.307074
C48	C	-0.849026	0.834048	-0.307083
C49	C	-0.905492	0.866706	-0.302224
C50	C	-0.961936	0.833922	-0.297343
C51	C	-0.961912	0.768488	-0.297329
C52	C	-0.905440	0.735837	-0.302198
C53	C	-0.945624	0.970352	-0.262227
C54	C	-0.945654	1.035788	-0.262249
C55	C	-0.865470	1.035825	-0.342289
C56	C	-0.865445	0.970389	-0.342271
C57	C	-0.905521	0.937657	-0.302237
C58	C	-0.905531	1.138164	-0.302223
C59	C	-0.905576	1.068523	-0.302273
C60	C	-0.865463	0.261462	-0.567931
C61	C	-0.865461	0.261451	-0.633366
C62	C	-0.905508	0.301502	-0.666104
C63	C	-0.945549	0.341580	-0.633400
C64	C	-0.945546	0.341595	-0.567966
C65	C	-0.961960	0.306413	-0.769809
C66	C	-0.961965	0.306393	-0.835242
C67	C	-0.905518	0.301460	-0.867924
C68	C	-0.849066	0.296533	-0.835166
C69	C	-0.849062	0.296548	-0.769732
C70	C	-0.905516	0.301491	-0.737056
C71	C	-0.865474	0.261376	-0.971573
C72	C	-0.865471	0.261368	-1.037009
C73	C	-0.945565	0.341494	-1.037042
C74	C	-0.945563	0.341505	-0.971607
C75	C	-0.905518	0.301442	-0.938876
C76	C	-0.905418	0.301581	-0.139383
C77	C	-0.905518	0.301421	-0.069742
H78	H	-0.666927	0.374449	-0.374644
H79	H	-0.978151	0.658770	-0.229572
O80	O	-1.016765	0.311117	-0.737997
C81	C	-1.024873	0.257777	-0.700181
H82	H	-0.977437	0.235622	-0.690349
H83	H	-1.047702	0.271934	-0.654180
H84	H	-1.056037	0.222645	-0.725432
H85	H	-0.144566	0.228746	-0.229708
H86	H	-0.263291	0.374366	-0.374793
H87	H	-0.548220	0.374419	-0.374690
H88	H	-0.465208	0.310714	-0.404557
O89	O	-0.984627	1.067452	-0.223319
C90	C	-1.020002	1.024527	-0.187995
H91	H	-0.994321	0.977916	-0.185783
H92	H	-1.026714	1.043461	-0.138642
H93	H	-1.067575	1.017493	-0.210993
H94	H	-0.978101	0.540061	-0.229542
H95	H	-0.832853	0.228842	-0.541285
O96	O	-0.341402	0.311574	-0.413483
C97	C	-0.357374	0.368245	-0.443040
H98	H	-0.375275	0.402808	-0.406665
H99	H	-0.314349	0.388499	-0.467061
H100	H	-0.395412	0.359253	-0.479295
O101	O	-0.139536	0.380700	-0.381142
C102	C	-0.182448	0.416115	-0.416434
H103	H	-0.229061	0.418257	-0.390750
H104	H	-0.163499	0.465487	-0.423029
H105	H	-0.189483	0.393242	-0.464062
H106	H	-0.832867	0.228755	-0.944922
H107	H	-1.007871	0.741798	-0.293357
H108	H	-1.007916	0.860511	-0.293386
H109	H	-0.978168	0.374133	-0.944986
H110	H	-0.978258	0.943700	-0.229631
H111	H	-0.832840	1.062480	-0.374880
H112	H	-0.832863	0.228741	-1.063629
H113	H	-0.666916	0.228843	-0.229522
H114	H	-1.007932	0.310402	-0.861909
O115	O	-0.984540	0.380454	-0.665129
C116	C	-1.046994	0.366743	-0.649196
H117	H	-1.048303	0.342669	-0.601693
H118	H	-1.075060	0.411957	-0.646965
H119	H	-1.068120	0.334517	-0.686045
H120	H	-0.832792	0.943768	-0.374851
H121	H	-0.978152	0.374224	-0.541346
H122	H	-0.832687	0.658844	-0.374788
H123	H	-0.263276	0.228772	-0.229662
H124	H	-0.346295	0.292491	-0.199791
H125	H	-0.464999	0.292509	-0.199747
O126	O	-0.794092	0.736991	-0.311779
C127	C	-0.744281	0.779955	-0.316103
H128	H	-0.759139	0.826595	-0.295071
H129	H	-0.702172	0.761114	-0.289443
H130	H	-0.731254	0.786898	-0.367290
H131	H	-0.548203	0.228829	-0.229564
O132	O	-0.794208	0.865921	-0.311716
C133	C	-0.786176	0.903830	-0.258385
H134	H	-0.814934	0.884104	-0.218121
H135	H	-0.734677	0.904646	-0.244697
H136	H	-0.802421	0.953394	-0.269212
H137	H	-0.832642	0.540129	-0.374770
H138	H	-0.803097	0.292537	-0.743062
O139	O	-0.826548	0.222464	-0.665039
C140	C	-0.791191	0.187120	-0.622118
H141	H	-0.816850	0.184958	-0.575491
H142	H	-0.784546	0.137751	-0.641034
H143	H	-0.743588	0.210070	-0.615123
O144	O	-0.794231	0.291863	-0.866928
C145	C	-0.786140	0.345195	-0.904759
H146	H	-0.814880	0.385475	-0.885047
H147	H	-0.734631	0.358849	-0.905450
H148	H	-0.802366	0.334387	-0.954369
O149	O	-0.984540	0.380309	-1.068860
C150	C	-1.025020	0.344618	-1.106757
H151	H	-1.028912	0.295273	-1.087055
H152	H	-1.073228	0.367264	-1.107521
H153	H	-1.005657	0.342457	-1.156337
