data_functionalizedCrystal
_audit_creation_method	'MofGen! by Chris Wilmer'
_symmetry_space_group_name_H-M	'P1'
_symmetry_Int_Tables_number	1
_symmetry_cell_setting	triclinic
loop_
_symmetry_equiv_pos_as_xyz
  x,y,z
_cell_length_a	12.645331
_cell_length_b	21.295417
_cell_length_c	12.645323
_cell_angle_alpha	89.966008
_cell_angle_beta	89.977324
_cell_angle_gamma	90.029485
loop_
_atom_site_label
_atom_site_type_symbol
_atom_site_fract_x
_atom_site_fract_y
_atom_site_fract_z
Zn1	Zn	1.620637	-0.250621	-0.599379
Zn2	Zn	1.620479	-0.355896	-0.422091
Zn3	Zn	1.443351	-0.250643	-0.422123
Zn4	Zn	1.443294	-0.355855	-0.599306
O5	O	1.531940	-0.303254	-0.510725
O6	O	1.768963	-0.264595	-0.575878
O7	O	1.596941	-0.341960	-0.273748
O8	O	1.466959	-0.162550	-0.445681
O9	O	1.768847	-0.341939	-0.445625
O10	O	1.597210	-0.162535	-0.575910
O11	O	1.466806	-0.264631	-0.273772
O12	O	1.294996	-0.264591	-0.445610
O13	O	1.466860	-0.341869	-0.747663
O14	O	1.294954	-0.341890	-0.575786
O15	O	1.597154	-0.264555	-0.747717
O16	O	1.596884	-0.443980	-0.445555
O17	O	1.466707	-0.443950	-0.575754
C18	C	1.256510	-0.303239	-0.510694
C19	C	1.138680	-0.303247	-0.510706
C20	C	0.971108	-0.254395	-0.429265
C21	C	1.093667	-0.254521	-0.428906
C22	C	1.094135	-0.369560	-0.480174
C23	C	0.971537	-0.369293	-0.479618
C24	C	0.971537	-0.286418	-0.622995
C25	C	1.094144	-0.284937	-0.622372
C26	C	1.531801	-0.466805	-0.510666
C27	C	1.531839	-0.536773	-0.510677
C28	C	1.599682	-0.569635	-0.442951
C29	C	1.599732	-0.635377	-0.442975
C30	C	1.531919	-0.668256	-0.510713
C31	C	1.464071	-0.635386	-0.578452
C32	C	1.464031	-0.569645	-0.578433
N33	N	1.439183	-0.771521	-0.518784
N34	N	1.439224	-0.833972	-0.518796
C35	C	1.532038	-0.866331	-0.510774
N36	N	1.624811	-0.833879	-0.502720
N37	N	1.624768	-0.771421	-0.502703
C38	C	1.531956	-0.739541	-0.510741
C39	C	1.599941	-0.970478	-0.443071
C40	C	1.599993	-1.036221	-0.443102
C41	C	1.464322	-1.036229	-0.578573
C42	C	1.464280	-0.970487	-0.578547
C43	C	1.532088	-0.937615	-0.510791
C44	C	1.808445	-0.303269	-0.510756
C45	C	1.926275	-0.303276	-0.510770
C46	C	1.532018	-0.303205	-0.787230
C47	C	1.532052	-0.303184	-0.905061
C48	C	1.532109	-0.139063	-0.510807
C49	C	1.532180	-0.069095	-0.510842
C50	C	1.449831	-0.351594	-1.072591
C51	C	1.450046	-0.351833	-0.950031
C52	C	1.643744	-0.321189	-0.949576
C53	C	1.643293	-0.321492	-1.072174
C54	C	1.503635	-0.236500	-1.072276
C55	C	1.501143	-0.236899	-0.949670
C56	C	1.531923	-0.303257	-0.235295
C57	C	1.532096	-0.303100	-0.117466
H58	H	0.942886	-0.383589	-0.397575
H59	H	1.124789	-0.317942	-0.686348
N60	N	1.340331	-0.336906	-0.910179
H61	H	1.313378	-0.373033	-0.865937
H62	H	1.342769	-0.297557	-0.865700
N63	N	1.672832	-0.534183	-0.369888
H64	H	1.662516	-0.487549	-0.380152
H65	H	1.656380	-0.545716	-0.294164
N66	N	1.339785	-0.336808	-1.111604
H67	H	1.342184	-0.298533	-1.158751
H68	H	1.311506	-0.373751	-1.152912
H69	H	1.706680	-0.286986	-0.920449
H70	H	1.668285	-0.369365	-0.918874
N71	N	1.574710	-0.186505	-0.909130
H72	H	1.629364	-0.206016	-0.861061
H73	H	1.611218	-0.165547	-0.970824
H74	H	1.655246	-1.062976	-0.387954
N75	N	1.392271	-0.218904	-0.911127
H76	H	1.339072	-0.251001	-0.936182
H77	H	1.392066	-0.217415	-0.831300
N78	N	1.474487	-0.416592	-1.113356
H79	H	1.538710	-0.414762	-1.160770
H80	H	1.489117	-0.445484	-1.051714
H81	H	1.124785	-0.384101	-0.399012
N82	N	0.933142	-0.333575	-0.703442
H83	H	0.886657	-0.365705	-0.667428
H84	H	0.891283	-0.311212	-0.760077
N85	N	0.932239	-0.419165	-0.554820
H86	H	0.994559	-0.441227	-0.588180
H87	H	0.887916	-0.450643	-0.514688
N88	N	1.474941	-0.417237	-0.911200
H89	H	1.546763	-0.430387	-0.938214
H90	H	1.475116	-0.417635	-0.831334
H91	H	1.409112	-1.062998	-0.633731
H92	H	1.409031	-0.943729	-0.633691
N93	N	1.582997	-0.188639	-1.110714
H94	H	1.637128	-0.209958	-1.157171
H95	H	1.545299	-0.155039	-1.152611
H96	H	1.667420	-0.370178	-1.100771
H97	H	1.123290	-0.406953	-0.537674
H98	H	1.706664	-0.287705	-1.101861
N99	N	0.930636	-0.223487	-0.659783
H100	H	0.882344	-0.205267	-0.604066
H101	H	0.992151	-0.194094	-0.671991
H102	H	1.423608	-0.220088	-1.103185
H103	H	1.123266	-0.236138	-0.645395
H104	H	1.654982	-0.662138	-0.387825
N105	N	0.932092	-0.189063	-0.454327
H106	H	0.994453	-0.160678	-0.468823
H107	H	0.884962	-0.190572	-0.518737
N108	N	1.673074	-0.935017	-0.369997
H109	H	1.716068	-0.965813	-0.327101
H110	H	1.722090	-0.907692	-0.413185
H111	H	1.408859	-0.662160	-0.633606
H112	H	0.940256	-0.265413	-0.346591
N113	N	1.133571	-0.189385	-0.454243
H114	H	1.213441	-0.189343	-0.454054
H115	H	1.107108	-0.176348	-0.526329
N116	N	1.132457	-0.269275	-0.318749
H117	H	1.069914	-0.275726	-0.270236
H118	H	1.176649	-0.308752	-0.320486
H119	H	1.408783	-0.542889	-0.633585
