data_functionalizedCrystal
_audit_creation_method	'MofGen! by Chris Wilmer'
_symmetry_space_group_name_H-M	'P1'
_symmetry_Int_Tables_number	1
_symmetry_cell_setting	triclinic
loop_
_symmetry_equiv_pos_as_xyz
  x,y,z
_cell_length_a	16.625547
_cell_length_b	16.625545
_cell_length_c	12.759393
_cell_angle_alpha	90.033904
_cell_angle_beta	90.025922
_cell_angle_gamma	90.025495
loop_
_atom_site_label
_atom_site_type_symbol
_atom_site_fract_x
_atom_site_fract_y
_atom_site_fract_z
Zn1	Zn	1.232672	-0.320955	0.594172
Zn2	Zn	1.732672	0.179045	1.094172
Zn3	Zn	1.232565	-0.455812	0.418485
Zn4	Zn	1.732565	0.044188	0.918485
Zn5	Zn	1.097831	-0.320997	0.418489
Zn6	Zn	1.597831	0.179003	0.918489
Zn7	Zn	1.097797	-0.455750	0.594104
Zn8	Zn	1.597797	0.044250	1.094104
O9	O	1.165216	-0.388379	0.506313
O10	O	1.665216	0.111621	1.006313
O11	O	1.345490	-0.338853	0.570894
O12	O	1.845490	0.161147	1.070894
O13	O	1.214662	-0.437972	0.271465
O14	O	1.714662	0.062028	0.771465
O15	O	1.115777	-0.208159	0.441824
O16	O	1.615777	0.291841	0.941824
O17	O	1.345412	-0.437932	0.441818
O18	O	1.845412	0.062068	0.941818
O19	O	1.214844	-0.208128	0.570898
O20	O	1.714844	0.291872	1.070898
O21	O	1.115674	-0.338924	0.271467
O22	O	1.615674	0.161076	0.771467
O23	O	0.984994	-0.338864	0.441758
O24	O	1.484994	0.161136	0.941758
O25	O	1.115719	-0.437825	0.741134
O26	O	1.615719	0.062175	1.241134
O27	O	0.984969	-0.437866	0.570781
O28	O	1.484969	0.062134	1.070781
O29	O	1.214811	-0.338792	0.741184
O30	O	1.714811	0.161208	1.241184
O31	O	1.214629	-0.568636	0.441751
O32	O	1.714629	-0.068636	0.941751
O33	O	1.115615	-0.568590	0.570778
O34	O	1.615615	-0.068590	1.070778
C35	C	0.955725	-0.388363	0.506263
C36	C	1.455725	0.111637	1.006263
C37	C	0.866104	-0.388376	0.506267
C38	C	1.366104	0.111624	1.006267
C39	C	0.793322	-0.388377	0.506280
C40	C	1.293322	0.111623	1.006280
C41	C	0.702013	-0.388381	0.506306
C42	C	1.202013	0.111619	1.006306
C43	C	0.629237	-0.388389	0.506333
C44	C	1.129237	0.111611	1.006333
C45	C	0.537923	-0.388394	0.506358
C46	C	1.037923	0.111606	1.006358
C47	C	1.165129	-0.597869	0.506280
C48	C	1.665129	-0.097869	1.006280
C49	C	1.165165	-0.687490	0.506301
C50	C	1.665165	-0.187490	1.006301
C51	C	1.165196	-0.760273	0.506321
C52	C	1.665196	-0.260273	1.006321
C53	C	1.165243	-0.851581	0.506345
C54	C	1.665243	-0.351581	1.006345
C55	C	1.165285	-0.924358	0.506358
C56	C	1.665285	-0.424358	1.006358
C57	C	1.165331	-1.015672	0.506380
C58	C	1.665331	-0.515672	1.006380
C59	C	1.375525	-0.388395	0.506363
C60	C	1.875525	0.111605	1.006363
C61	C	1.465146	-0.388402	0.506385
C62	C	1.965146	0.111598	1.006385
C63	C	1.165273	-0.388297	0.780346
C64	C	1.665273	0.111703	1.280346
C65	C	1.165297	-0.388262	0.897123
C66	C	1.665297	0.111738	1.397123
C67	C	1.165326	-0.178070	0.506369
C68	C	1.665326	0.321930	1.006369
C69	C	1.165373	-0.088448	0.506393
C70	C	1.665373	0.411552	1.006393
C71	C	1.165206	-0.388401	0.233345
C72	C	1.665206	0.111599	0.733345
C73	C	1.165339	-0.388209	0.116569
C74	C	1.665339	0.111791	0.616569
C75	C	1.216901	-0.336691	0.952013
C76	C	1.716901	0.163309	1.452013
C77	C	1.216920	-0.336662	1.061737
C78	C	1.716920	0.163338	1.561737
C79	C	1.113729	-0.439782	1.061672
C80	C	1.613729	0.060218	1.561672
C81	C	1.113706	-0.439807	0.951949
C82	C	1.613706	0.060193	1.451949
C83	C	1.268492	-0.285147	0.897186
C84	C	1.768492	0.214853	1.397186
C85	C	1.320101	-0.233572	0.952076
C86	C	1.820101	0.266428	1.452076
C87	C	1.320121	-0.233543	1.061800
C88	C	1.820121	0.266457	1.561800
C89	C	1.268530	-0.285089	1.116635
C90	C	1.768530	0.214911	1.616635
H91	H	1.268484	-0.285167	0.807843
H92	H	1.768484	0.214833	1.307843
H93	H	1.071726	-0.481748	1.106326
H94	H	1.571726	0.018252	1.606326
H95	H	1.268541	-0.285051	1.205979
H96	H	1.768541	0.214949	1.705979
H97	H	1.362099	-0.191601	0.907423
H98	H	1.862099	0.308399	1.407423
H99	H	1.362137	-0.191542	1.106489
H100	H	1.862137	0.308458	1.606489
H101	H	1.071673	-0.481788	0.907257
H102	H	1.571673	0.018212	1.407257
