data_functionalizedCrystal
_audit_creation_method	'MofGen! by Chris Wilmer'
_symmetry_space_group_name_H-M	'P1'
_symmetry_Int_Tables_number	1
_symmetry_cell_setting	triclinic
loop_
_symmetry_equiv_pos_as_xyz
  x,y,z
_cell_length_a	18.760490
_cell_length_b	14.560438
_cell_length_c	14.560438
_cell_angle_alpha	59.997992
_cell_angle_beta	90.017284
_cell_angle_gamma	60.030188
loop_
_atom_site_label
_atom_site_type_symbol
_atom_site_fract_x
_atom_site_fract_y
_atom_site_fract_z
Zr1	Zr	0.686638	1.005582	-0.120407
O2	O	0.572865	1.197111	-0.267068
O3	O	0.721502	0.814011	-0.075449
O4	O	0.721524	1.005601	-0.267049
O5	O	0.572842	1.005521	0.075671
O6	O	0.838802	1.005664	-0.267032
O7	O	0.572844	1.005521	-0.075468
O8	O	0.838764	0.662944	0.075705
O9	O	0.572880	1.348240	-0.267066
O10	O	0.823911	0.892869	-0.056260
O11	O	0.736385	0.892822	0.056521
O12	O	0.736410	1.118395	-0.169063
O13	O	0.648885	1.118348	-0.056282
Zr14	Zr	0.873680	1.005681	0.120671
Zr15	Zr	0.873683	1.005682	-0.120379
Zr16	Zr	0.686634	1.005582	0.120644
Zr17	Zr	0.686661	1.246616	-0.120403
Zr18	Zr	0.873657	0.764648	0.120668
O19	O	0.838815	1.197252	0.075714
O20	O	0.838820	1.197253	-0.267029
O21	O	0.572860	1.197111	0.075674
O22	O	0.987452	0.814152	0.267333
O23	O	0.987457	0.814153	-0.075410
O24	O	0.721497	0.814011	0.267293
O25	O	0.987475	1.005743	-0.075407
O26	O	0.838794	1.005663	0.267314
O27	O	0.721515	1.005600	0.267296
O28	O	0.987473	1.005742	0.075733
O29	O	0.721556	1.348320	-0.267044
O30	O	0.838761	0.662944	0.267308
O31	O	0.987438	0.663023	0.267331
O32	O	0.987441	0.663024	0.075728
O33	O	0.572877	1.348240	-0.075463
O34	O	0.721553	1.348319	-0.075441
O35	O	0.823907	0.892869	0.169328
O36	O	0.911433	0.892916	0.056547
O37	O	0.823932	1.118441	-0.056256
O38	O	0.736407	1.118394	0.056525
C39	C	0.780130	0.704136	0.000128
C40	C	0.780120	0.601811	0.000126
C41	C	0.844744	0.470529	0.083400
C42	C	0.844781	0.374349	0.083410
C43	C	0.715567	0.540748	-0.083140
C44	C	0.715527	0.636926	-0.083144
C45	C	0.909336	0.435414	0.166670
C46	C	0.973966	0.304125	0.249951
C47	C	0.974003	0.207945	0.249960
C48	C	0.909410	0.243054	0.166688
C49	C	0.546193	1.005507	0.000097
C50	C	0.466787	1.005465	0.000086
C51	C	0.130801	1.005765	-0.083098
C52	C	0.130914	1.005764	0.083438
C53	C	0.205561	1.005700	0.083419
C54	C	0.242831	1.005666	0.000142
C55	C	0.205456	1.005697	-0.083117
C56	C	0.242947	1.005656	0.166684
C57	C	0.317598	1.005590	0.166669
C58	C	0.354867	1.005566	0.083386
C59	C	0.317486	1.005598	0.000123
C60	C	0.354757	1.005564	-0.083155
C61	C	0.317374	1.005605	-0.166424
C62	C	0.242724	1.005672	-0.166401
C63	C	0.429516	1.005499	0.083363
C64	C	0.429412	1.005495	-0.083174
C65	C	1.014124	1.005757	0.000167
C66	C	1.093530	1.005799	0.000179
C67	C	0.780163	1.005632	-0.301385
C68	C	0.780165	1.005633	-0.403717
C69	C	0.780187	1.307128	0.000137
C70	C	0.780197	1.409453	0.000139
C71	C	0.844771	1.005673	-0.451792
C72	C	0.844766	1.005667	-0.547941
C73	C	0.715543	1.005587	-0.547935
C74	C	0.715552	1.005583	-0.451783
C75	C	0.909384	1.005722	-0.403725
C76	C	0.973994	1.005763	-0.451801
C77	C	0.973990	1.005758	-0.547950
C78	C	0.909376	1.005711	-0.596024
C79	C	0.780154	1.005631	0.301650
C80	C	0.780152	1.005631	0.403982
C81	C	1.014096	0.704261	0.000162
C82	C	1.093492	0.601978	0.000173
C83	C	0.780125	0.704135	0.301645
C84	C	0.780114	0.601810	0.403975
C85	C	1.014091	0.704260	0.301680
C86	C	1.093485	0.601977	0.404022
C87	C	0.546226	1.307004	-0.301415
C88	C	0.466832	1.409287	-0.403757
C89	C	0.546222	1.307003	0.000102
C90	C	0.466826	1.409286	0.000092
C91	C	0.780192	1.307129	-0.301380
C92	C	0.780203	1.409454	-0.403711
C93	C	1.085091	0.553921	-0.058717
C94	C	1.159685	0.457828	-0.058730
C95	C	1.242679	0.409789	0.000154
C96	C	1.251077	0.457856	0.059045
C97	C	1.176484	0.553953	0.059051
C98	C	1.176465	0.553968	0.393213
C99	C	1.251072	0.457876	0.489365
C100	C	1.242697	0.409788	0.596326
C101	C	1.159709	0.457806	0.607133
C102	C	1.085104	0.553903	0.510982
C103	C	0.383852	1.457307	-0.392948
C104	C	0.309245	1.553429	-0.489101
C105	C	0.317620	1.601523	-0.596061
C106	C	0.400609	1.553498	-0.606868
C107	C	0.475214	1.457384	-0.510717
C108	C	0.475226	1.457353	0.058971
C109	C	0.400632	1.553472	0.058958
C110	C	0.317639	1.601515	0.000071
C111	C	0.309240	1.553444	-0.058816
C112	C	0.383833	1.457333	-0.058808
C113	C	0.825796	0.553757	0.510935
C114	C	0.825778	0.457616	0.607081
C115	C	0.734396	0.457587	0.489295
C116	C	0.734409	0.553732	0.393151
C117	C	0.871500	0.601834	0.521759
C118	C	0.917186	0.553780	0.628723
C119	C	0.917169	0.457640	0.724869
C120	C	0.871465	0.409554	0.714052
H121	H	1.026550	0.275549	0.317752
H122	H	0.348031	1.005558	0.234470
H123	H	0.376981	1.418199	-0.106752
H124	H	0.954362	0.418526	0.811959
N125	N	0.469843	1.005439	0.173169
H126	H	0.434908	1.005462	0.225932
H127	H	0.469791	1.085472	0.136751
H128	H	1.183301	0.593108	0.306129
N129	N	0.995607	0.605651	0.522653
H130	H	0.949608	0.673822	0.445519
H131	H	0.988696	0.645460	0.565176
H132	H	0.871522	0.680114	0.443478
H133	H	0.662936	1.005551	-0.587084
H134	H	1.318660	0.418728	0.106986
N135	N	1.185555	0.605779	0.122570
H136	H	1.125712	0.673952	0.113643
H137	H	1.218553	0.645608	0.091647
N138	N	0.685146	0.605562	0.277782
H139	H	0.656198	0.560507	0.285512
H140	H	0.727102	0.588848	0.235339
N141	N	0.219742	1.605200	-0.477437
H142	H	0.186753	1.701690	-0.514688
H143	H	0.225833	1.560041	-0.395068
H144	H	0.377016	1.418154	-0.305864
H145	H	1.318638	0.418790	0.480546
H146	H	0.407417	1.592668	-0.693967
N147	N	1.150607	0.406004	-0.122252
H148	H	1.117648	0.366094	-0.091359
H149	H	1.210477	0.337893	-0.113318
N150	N	0.966483	0.605634	0.640390
H151	H	0.995418	0.560603	0.722740
H152	H	0.924550	0.702126	0.603057
H153	H	0.909392	1.005730	-0.325438
N154	N	0.909300	0.539150	0.166654
H155	H	0.960025	0.496989	0.232037
H156	H	0.852826	0.594913	0.173957
H157	H	1.026605	1.005791	-0.412649
H158	H	0.542777	1.418287	-0.519532
H159	H	0.909441	0.164730	0.166709
N160	N	0.219722	1.605253	-0.122308
H161	H	0.225709	1.560223	-0.159610
H162	H	0.186785	1.701751	-0.181500
H163	H	1.026603	1.005779	-0.587085
N164	N	0.090497	1.005804	-0.172910
H165	H	0.072445	1.085852	-0.249355
H166	H	0.037579	1.005808	-0.160179
H167	H	0.256865	1.679784	-0.674345
H168	H	0.100570	1.005783	0.151245
H169	H	0.542796	1.418244	0.106932
H170	H	0.871447	0.331279	0.792345
N171	N	0.409701	1.605306	0.122475
H172	H	0.473598	1.560272	0.159787
H173	H	0.380731	1.588567	0.181661
N174	N	1.323168	0.306140	0.700027
H175	H	1.377003	0.283028	0.676939
H176	H	1.323123	0.226422	0.746264
N177	N	0.237185	1.705160	0.000080
H178	H	0.201276	1.784932	-0.079660
H179	H	0.255174	1.728203	0.046375
H180	H	0.459750	1.005475	-0.150992
H181	H	0.697187	0.418426	0.480498
N182	N	0.909376	1.005687	-0.699719
H183	H	0.960111	1.005713	-0.722878
H184	H	0.852911	1.085732	-0.762854
N185	N	1.150682	0.405932	0.722500
H186	H	1.210540	0.337767	0.781762
H187	H	1.117695	0.366081	0.731408
H188	H	1.026622	0.101048	0.317777
H189	H	1.017521	0.593033	-0.106681
N190	N	0.645906	0.578615	-0.172951
H191	H	0.655739	0.497765	-0.160314
H192	H	0.648759	0.631799	-0.249354
H193	H	0.662894	0.743823	-0.150938
N194	N	0.645874	1.005534	-0.399920
H195	H	0.604937	1.005513	-0.444963
H196	H	0.612001	1.085590	-0.400066
H197	H	0.347731	1.005569	-0.234225
H198	H	0.212283	1.005704	-0.234194
H199	H	0.212602	1.005674	0.234491
N200	N	1.323129	0.306143	0.000141
H201	H	1.305206	0.282994	-0.046102
H202	H	1.359000	0.226443	0.079915
