data_functionalizedCrystal
_audit_creation_method	'MofGen! by Chris Wilmer'
_symmetry_space_group_name_H-M	'P1'
_symmetry_Int_Tables_number	1
_symmetry_cell_setting	triclinic
loop_
_symmetry_equiv_pos_as_xyz
  x,y,z
_cell_length_a	27.732048
_cell_length_b	27.732064
_cell_length_c	16.176319
_cell_angle_alpha	89.997275
_cell_angle_beta	89.998071
_cell_angle_gamma	82.646039
loop_
_atom_site_label
_atom_site_type_symbol
_atom_site_fract_x
_atom_site_fract_y
_atom_site_fract_z
O1	O	0.640932	0.057518	-0.068633
O2	O	1.140932	0.557518	0.431367
O3	O	0.500140	0.066263	-0.068657
O4	O	1.000140	0.566263	0.431343
O5	O	0.574905	-0.008506	-0.068648
O6	O	1.074905	0.491494	0.431352
O7	O	0.566167	0.132287	-0.068643
O8	O	1.066167	0.632287	0.431357
O9	O	0.574894	-0.008510	0.068845
O10	O	1.074894	0.491490	0.568845
O11	O	0.500129	0.066258	0.068836
O12	O	1.000129	0.566258	0.568836
O13	O	0.640922	0.057513	0.068860
O14	O	1.140922	0.557513	0.568860
Cu15	Cu	0.570525	0.061885	0.081402
Cu16	Cu	1.070525	0.561885	0.581402
Cu17	Cu	0.570537	0.061891	-0.081199
Cu18	Cu	1.070537	0.561891	0.418801
O19	O	0.566157	0.132282	0.068850
O20	O	1.066157	0.632282	0.568850
C21	C	0.482127	0.066077	0.000086
C22	C	0.982127	0.566077	0.500086
C23	C	0.428473	0.065524	0.000077
C24	C	0.928473	0.565524	0.500077
C25	C	0.574715	-0.026515	0.000096
C26	C	1.074715	0.473485	0.500096
C27	C	0.574159	-0.080169	0.000088
C28	C	1.074159	0.419831	0.500088
C29	C	0.526192	-0.457242	0.000077
C30	C	1.026192	0.042758	0.500077
C31	C	0.528238	-0.255582	0.000076
C32	C	1.028238	0.244418	0.500076
O33	O	0.491017	-0.224329	0.000037
O34	O	0.991017	0.275671	0.500037
N35	N	0.572572	-0.236454	0.000084
N36	N	1.072572	0.263546	0.500084
C37	C	0.616398	-0.267745	0.000086
C38	C	1.116398	0.232255	0.500086
O39	O	0.654154	-0.246849	0.000084
O40	O	1.154154	0.253151	0.500084
C41	C	0.614351	-0.469405	0.000081
C42	C	1.114351	0.030595	0.500081
C43	C	0.570014	-0.488529	0.000082
C44	C	1.070014	0.011471	0.500082
C45	C	0.481858	-0.476367	0.000077
C46	C	0.981858	0.023633	0.500077
C47	C	0.481347	-0.526779	0.000082
C48	C	0.981347	-0.026779	0.500082
C49	C	0.525169	-0.558066	0.000086
C50	C	1.025169	-0.058066	0.500086
C51	C	0.569503	-0.538941	0.000086
C52	C	1.069503	-0.038941	0.500086
C53	C	0.658177	-0.500695	0.000077
C54	C	1.158177	-0.000695	0.500077
C55	C	0.657661	-0.551112	0.000074
C56	C	1.157661	-0.051112	0.500074
C57	C	0.613324	-0.570237	0.000075
C58	C	1.113324	-0.070237	0.500075
C59	C	0.612814	-0.620640	0.000096
C60	C	1.112814	-0.120640	0.500096
N61	N	0.568480	-0.639768	0.000088
N62	N	1.068480	-0.139768	0.500088
C63	C	0.524658	-0.608481	0.000084
C64	C	1.024658	-0.108481	0.500084
C65	C	0.617469	-0.161871	0.000090
C66	C	1.117469	0.338129	0.500090
C67	C	0.617981	-0.111456	0.000093
C68	C	1.117981	0.388544	0.500093
C69	C	0.529821	-0.099296	0.000082
C70	C	1.029821	0.400704	0.500082
C71	C	0.529310	-0.149712	0.000085
C72	C	1.029310	0.350288	0.500085
C73	C	0.573135	-0.180998	0.000083
C74	C	1.073135	0.319002	0.500083
C75	C	0.523588	-0.714350	0.000094
C76	C	1.023588	-0.214350	0.500094
C77	C	0.523080	-0.764767	0.000102
C78	C	1.023080	-0.264767	0.500102
C79	C	0.611241	-0.776923	0.000109
C80	C	1.111241	-0.276923	0.500109
C81	C	0.611748	-0.726511	0.000105
C82	C	1.111748	-0.226511	0.500105
C83	C	0.567918	-0.695225	0.000095
C84	C	1.067918	-0.195225	0.500095
O85	O	0.650016	-0.651921	0.000126
O86	O	1.150016	-0.151921	0.500126
O87	O	0.486907	-0.629387	0.000068
O88	O	0.986907	-0.129387	0.500068
C89	C	0.526703	-0.406830	0.000072
C90	C	1.026703	0.093170	0.500072
C91	C	0.571036	-0.387705	0.000072
C92	C	1.071036	0.112295	0.500072
C93	C	0.614859	-0.418992	0.000077
C94	C	1.114859	0.081008	0.500077
C95	C	0.571548	-0.337290	0.000075
C96	C	1.071548	0.162710	0.500075
C97	C	0.527726	-0.306003	0.000070
C98	C	1.027726	0.193997	0.500070
C99	C	0.483391	-0.325131	0.000063
C100	C	0.983391	0.174869	0.500063
C101	C	0.482880	-0.375543	0.000068
C102	C	0.982880	0.124457	0.500068
C103	C	0.659193	-0.399865	0.000084
C104	C	1.159193	0.100135	0.500084
C105	C	0.659701	-0.349452	0.000081
C106	C	1.159701	0.150548	0.500081
C107	C	0.615878	-0.318165	0.000076
C108	C	1.115878	0.181835	0.500076
C109	C	0.089660	0.106228	0.000114
C110	C	0.589660	0.606228	0.500114
C111	C	-0.112000	0.104177	0.000121
C112	C	0.388000	0.604177	0.500121
O113	O	-0.143253	0.141397	0.000158
O114	O	0.356747	0.641397	0.500158
N115	N	-0.131126	0.059842	0.000118
N116	N	0.368874	0.559842	0.500118
C117	C	-0.099834	0.016017	0.000119
C118	C	0.400166	0.516017	0.500119
O119	O	-0.120730	-0.021740	0.000125
O120	O	0.379270	0.478260	0.500125
C121	C	0.101825	0.018068	0.000117
C122	C	0.601825	0.518068	0.500117
C123	C	0.120948	0.062406	0.000112
C124	C	0.620948	0.562406	0.500112
C125	C	0.108784	0.150562	0.000110
C126	C	0.608784	0.650562	0.500110
C127	C	0.159196	0.151074	0.000103
C128	C	0.659196	0.651074	0.500103
C129	C	0.190484	0.107252	0.000101
C130	C	0.690484	0.607252	0.500101
C131	C	0.171360	0.062918	0.000106
C132	C	0.671360	0.562918	0.500106
C133	C	0.133116	-0.025756	0.000124
C134	C	0.633116	0.474244	0.500124
C135	C	0.183533	-0.025240	0.000126
C136	C	0.683533	0.474760	0.500126
C137	C	0.202656	0.019098	0.000120
C138	C	0.702656	0.519098	0.500120
C139	C	0.253060	0.019609	0.000098
C140	C	0.753060	0.519609	0.500098
N141	N	0.272186	0.063944	0.000101
N142	N	0.772186	0.563944	0.500101
C143	C	0.240898	0.107765	0.000102
C144	C	0.740898	0.607765	0.500102
C145	C	-0.205708	0.014943	0.000118
C146	C	0.294292	0.514943	0.500118
C147	C	-0.256123	0.014430	0.000117
C148	C	0.243877	0.514430	0.500117
C149	C	-0.268285	0.102590	0.000121
C150	C	0.231715	0.602590	0.500121
C151	C	-0.217870	0.103103	0.000116
C152	C	0.282130	0.603103	0.500116
C153	C	-0.186582	0.059278	0.000121
C154	C	0.313418	0.559278	0.500121
C155	C	0.346768	0.108838	0.000088
C156	C	0.846768	0.608838	0.500088
C157	C	0.397185	0.109346	0.000079
C158	C	0.897185	0.609346	0.500079
C159	C	0.409342	0.021186	0.000079
C160	C	0.909342	0.521186	0.500079
C161	C	0.358930	0.020678	0.000084
C162	C	0.858930	0.520678	0.500084
C163	C	0.327643	0.064507	0.000092
C164	C	0.827643	0.564507	0.500092
O165	O	0.284342	-0.017592	0.000070
O166	O	0.784342	0.482408	0.500070
O167	O	0.261803	0.145516	0.000115
O168	O	0.761803	0.645516	0.500115
C169	C	0.039248	0.105716	0.000120
C170	C	0.539248	0.605716	0.500120
C171	C	0.020124	0.061381	0.000125
C172	C	0.520124	0.561381	0.500125
C173	C	0.051412	0.017560	0.000123
C174	C	0.551412	0.517560	0.500123
C175	C	-0.030290	0.060868	0.000124
C176	C	0.469710	0.560868	0.500124
C177	C	-0.061578	0.104690	0.000126
C178	C	0.438422	0.604690	0.500126
C179	C	-0.042452	0.149025	0.000129
C180	C	0.457548	0.649025	0.500129
C181	C	0.007960	0.149537	0.000122
C182	C	0.507960	0.649537	0.500122
C183	C	0.032286	-0.026775	0.000120
C184	C	0.532286	0.473225	0.500120
C185	C	-0.018127	-0.027284	0.000125
C186	C	0.481873	0.472716	0.500125
C187	C	-0.049415	0.016538	0.000127
C188	C	0.450585	0.516538	0.500127
C189	C	0.658934	0.057699	0.000115
C190	C	1.158934	0.557699	0.500115
C191	C	0.712589	0.058252	0.000119
C192	C	1.212589	0.558252	0.500119
C193	C	0.566347	0.150291	0.000105
C194	C	1.066347	0.650291	0.500105
C195	C	0.566903	0.203945	0.000107
C196	C	1.066903	0.703945	0.500107
N197	N	0.570520	0.061881	0.195767
N198	N	1.070520	0.561881	0.695767
N199	N	0.570546	0.061891	-0.195565
N200	N	1.070546	0.561891	0.304435
C201	C	0.603636	0.028787	0.239036
C202	C	1.103636	0.528787	0.739036
C203	C	0.603638	0.028786	0.325583
C204	C	1.103638	0.528786	0.825583
C205	C	0.570527	0.061883	0.368860
C206	C	1.070527	0.561883	0.868860
C207	C	0.537407	0.094979	0.325586
C208	C	1.037407	0.594979	0.825586
C209	C	0.537403	0.094976	0.239040
C210	C	1.037403	0.594976	0.739040
C211	C	0.537424	0.094988	0.674614
C212	C	1.037424	0.594988	1.174614
C213	C	0.537432	0.094988	0.761165
C214	C	1.037432	0.594988	1.261165
C215	C	0.603659	0.028797	0.761157
C216	C	1.103659	0.528797	1.261157
C217	C	0.603655	0.028795	0.674611
C218	C	1.103655	0.528795	1.174611
C219	C	0.570534	0.061889	0.631344
C220	C	1.070534	0.561889	1.131344
C221	C	0.570531	0.061889	0.537500
C222	C	1.070531	0.561889	1.037500
C223	C	0.570532	0.061886	0.462703
C224	C	1.070532	0.561886	0.962703
H225	H	0.487897	-0.688883	0.000086
H226	H	0.987897	-0.188883	0.500086
N227	N	0.639382	-0.006898	0.807826
N228	N	1.139382	0.493102	1.307826
H229	H	0.621077	-0.028177	0.843740
H230	H	1.121077	0.471823	1.343740
H231	H	0.660350	-0.027829	0.767224
H232	H	1.160350	0.472171	1.267224
H233	H	0.510467	0.121940	0.796400
H234	H	1.010467	0.621940	1.296400
H235	H	0.446171	-0.450897	0.000071
H236	H	0.946171	0.049103	0.500071
N237	N	0.639352	-0.006908	0.192361
N238	N	1.139352	0.493092	0.692361
H239	H	0.660330	-0.027873	0.232908
H240	H	1.160330	0.472127	0.732908
H241	H	0.621005	-0.028152	0.156460
H242	H	1.121005	0.471848	0.656460
H243	H	-0.033692	-0.063392	0.000123
H244	H	0.466308	0.436608	0.500123
H245	H	0.023525	0.185642	0.000119
H246	H	0.523525	0.685642	0.500119
N247	N	0.481490	-0.170337	0.000089
N248	N	0.981490	0.329663	0.500089
H249	H	0.453809	-0.142863	0.000090
H250	H	0.953809	0.357137	0.500090
H251	H	0.479355	-0.190987	-0.050882
H252	H	0.979355	0.309013	0.449118
N253	N	0.639372	-0.006892	0.372252
N254	N	1.139372	0.493108	0.872252
H255	H	0.660355	-0.027850	0.331704
H256	H	1.160355	0.472150	0.831704
H257	H	0.660595	0.011489	0.408137
H258	H	1.160595	0.511489	0.908137
H259	H	0.694879	-0.425334	0.000087
H260	H	1.194879	0.074666	0.500087
N261	N	0.501693	0.130672	0.372265
N262	N	1.001693	0.630672	0.872265
H263	H	0.520006	0.151950	0.408164
H264	H	1.020006	0.651950	0.908164
H265	H	0.480720	0.151604	0.331670
H266	H	0.980720	0.651604	0.831670
H267	H	0.654085	-0.095890	0.000105
H268	H	1.154085	0.404110	0.500105
N269	N	-0.197251	0.150926	0.000118
N270	N	0.302749	0.650926	0.500118
H271	H	-0.176607	0.153105	0.051088
H272	H	0.323393	0.653105	0.551088
H273	H	-0.176627	0.153080	-0.050883
H274	H	0.323373	0.653080	0.449117
H275	H	0.494139	-0.073813	0.000082
H276	H	0.994139	0.426187	0.500082
H277	H	0.117555	-0.061861	0.000129
H278	H	0.617555	0.438139	0.500129
H279	H	0.083313	0.186249	0.000114
H280	H	0.583313	0.686249	0.500114
N281	N	-0.076203	0.196291	0.000125
N282	N	0.423797	0.696291	0.500125
H283	H	-0.111041	0.189234	0.000129
H284	H	0.388959	0.689234	0.500129
H285	H	-0.070050	0.215628	0.051096
H286	H	0.429950	0.715628	0.551096
N287	N	0.313035	0.156115	0.000093
N288	N	0.813035	0.656115	0.500093
H289	H	0.291845	0.157875	-0.050873
H290	H	0.791845	0.657875	0.449127
H291	H	0.291879	0.157846	0.051098
H292	H	0.791879	0.657846	0.551098
H293	H	0.630619	0.001847	0.639378
H294	H	1.130619	0.501847	1.139378
N295	N	-0.276749	-0.033389	0.000113
N296	N	0.223251	0.466611	0.500113
H297	H	-0.265314	-0.052570	-0.050855
H298	H	0.234686	0.447430	0.449145
H299	H	-0.265310	-0.052532	0.051116
H300	H	0.234690	0.447468	0.551116
N301	N	0.664741	-0.195613	0.000094
N302	N	1.164741	0.304387	0.500094
H303	H	0.692901	-0.175841	0.000103
H304	H	1.192901	0.324159	0.500103
H305	H	0.666447	-0.216796	0.051065
H306	H	1.166447	0.283204	0.551065
H307	H	0.693350	-0.576584	0.000067
H308	H	1.193350	-0.076584	0.500067
H309	H	-0.293769	0.138272	0.000123
H310	H	0.206231	0.638272	0.500123
N311	N	-0.171965	-0.032328	0.000127
N312	N	0.328035	0.467672	0.500127
H313	H	-0.191737	-0.060488	0.000124
H314	H	0.308263	0.439512	0.500124
H315	H	-0.150781	-0.034038	-0.050842
H316	H	0.349219	0.465962	0.449158
H317	H	0.647851	-0.710939	0.000117
H318	H	1.147851	-0.210939	0.500117
N319	N	0.435059	-0.396166	0.000075
N320	N	0.935059	0.103834	0.500075
H321	H	0.407380	-0.368690	0.000073
H322	H	0.907380	0.131310	0.500073
H323	H	0.432923	-0.416818	-0.050893
H324	H	0.932923	0.083182	0.449107
N325	N	0.501700	0.130677	0.627954
N326	N	1.001700	0.630677	1.127954
H327	H	0.480727	0.151643	0.668504
H328	H	0.980727	0.651643	1.168504
H329	H	0.520039	0.151922	0.592033
H330	H	1.020039	0.651922	1.092033
N331	N	0.066023	-0.074046	0.000110
N332	N	0.566023	0.425954	0.500110
H333	H	0.087209	-0.075798	-0.050862
H334	H	0.587209	0.424202	0.449138
H335	H	0.087183	-0.075780	0.051109
H336	H	0.587183	0.424220	0.551109
H337	H	0.209006	-0.060928	0.000130
H338	H	0.709006	0.439072	0.500130
N339	N	0.338300	-0.027142	0.000074
N340	N	0.838300	0.472858	0.500074
H341	H	0.365773	-0.054825	0.000068
H342	H	0.865773	0.445175	0.500068
H343	H	0.317651	-0.029278	0.051050
H344	H	0.817651	0.470722	0.551050
N345	N	0.443093	-0.026077	0.000077
N346	N	0.943093	0.473923	0.500077
H347	H	0.477931	-0.019021	0.000078
H348	H	0.977931	0.480979	0.500078
H349	H	0.436938	-0.045414	0.051052
H350	H	0.936938	0.454586	0.551052
H351	H	0.646920	-0.802406	0.000117
H352	H	1.146920	-0.302406	0.500117
N353	N	0.501682	0.130671	0.192374
N354	N	1.001682	0.630671	0.692374
H355	H	0.506992	0.164942	0.207425
H356	H	1.006992	0.664942	0.707425
H357	H	0.506719	0.125605	0.130996
H358	H	1.006719	0.625605	0.630996
N359	N	0.475255	-0.785389	0.000109
N360	N	0.975255	-0.285389	0.500109
H361	H	0.456076	-0.773956	-0.050862
H362	H	0.956076	-0.273956	0.449138
H363	H	0.481615	-0.822071	0.000148
H364	H	0.981615	-0.322071	0.500148
N365	N	0.433526	-0.547403	0.000089
N366	N	0.933526	-0.047403	0.500089
H367	H	0.405846	-0.519927	0.000086
H368	H	0.905846	-0.019927	0.500086
H369	H	0.431390	-0.568054	-0.050880
H370	H	0.931390	-0.068054	0.449120
H371	H	0.694281	-0.485133	0.000076
H372	H	1.194281	0.014867	0.500076
H373	H	0.447710	-0.299648	0.000064
H374	H	0.947710	0.200352	0.500064
H375	H	0.174761	0.187179	0.000099
H376	H	0.674761	0.687179	0.500099
H377	H	0.412752	0.145453	0.000074
H378	H	0.912752	0.645453	0.500074
N379	N	0.707524	-0.328828	0.000088
N380	N	1.207524	0.171172	0.500088
H381	H	0.735206	-0.356302	0.000090
H382	H	1.235206	0.143698	0.500090
H383	H	0.709660	-0.308177	-0.050886
H384	H	1.209660	0.191823	0.449114
