data_functionalizedCrystal
_audit_creation_method	'MofGen! by Chris Wilmer'
_symmetry_space_group_name_H-M	'P1'
_symmetry_Int_Tables_number	1
_symmetry_cell_setting	triclinic
loop_
_symmetry_equiv_pos_as_xyz
  x,y,z
_cell_length_a	12.503572
_cell_length_b	11.026607
_cell_length_c	11.026607
_cell_angle_alpha	108.586017
_cell_angle_beta	94.298318
_cell_angle_gamma	85.706536
loop_
_atom_site_label
_atom_site_type_symbol
_atom_site_fract_x
_atom_site_fract_y
_atom_site_fract_z
O1	O	0.089318	-1.732471	-0.527857
O2	O	0.589318	-1.232471	-0.027857
O3	O	0.089320	-1.365891	-0.467093
O4	O	0.589320	-0.865891	0.032907
O5	O	0.089315	-1.518799	-0.314185
O6	O	0.589315	-1.018799	0.185815
O7	O	0.089323	-1.579563	-0.680765
O8	O	0.589323	-1.079563	-0.180765
O9	O	-0.089326	-1.507305	-0.325709
O10	O	0.410674	-1.007305	0.174291
O11	O	-0.089322	-1.354397	-0.478617
O12	O	0.410678	-0.854397	0.021383
O13	O	-0.089323	-1.720977	-0.539381
O14	O	0.410677	-1.220977	-0.039381
Cu15	Cu	-0.105634	-1.536638	-0.510051
Cu16	Cu	0.394366	-1.036638	-0.010051
Cu17	Cu	0.105630	-1.550231	-0.496423
Cu18	Cu	0.605630	-1.050231	0.003577
O19	O	-0.089319	-1.568069	-0.692289
O20	O	0.410681	-1.068069	-0.192289
C21	C	-0.000001	-1.312485	-0.461645
C22	C	0.499999	-0.812485	0.038355
C23	C	-0.000000	-1.170471	-0.428228
C24	C	0.500000	-0.670471	0.071772
C25	C	-0.000004	-1.501842	-0.272288
C26	C	0.499996	-1.001842	0.227712
C27	C	-0.000000	-1.468426	-0.130273
C28	C	0.500000	-0.968426	0.369727
N29	N	-0.254226	-1.527086	-0.519638
N30	N	0.245774	-1.027086	-0.019638
C31	C	-0.473341	-1.513037	-0.533751
C32	C	0.026659	-1.013037	-0.033751
C33	C	-0.526670	-1.573836	-0.472718
C34	C	-0.026670	-1.073836	0.027282
C35	C	-0.648593	-1.566019	-0.480571
C36	C	-0.148593	-1.066019	0.019429
C37	C	-0.351407	-1.520853	-0.525900
C38	C	0.148593	-1.020853	-0.025900
N39	N	0.254222	-1.559790	-0.486828
N40	N	0.754222	-1.059790	0.013172
C41	C	-0.000001	-1.774384	-0.544829
C42	C	0.499999	-1.274384	-0.044829
C43	C	0.000006	-1.916398	-0.578245
C44	C	0.500006	-1.416398	-0.078245
C45	C	0.000003	-1.116822	-0.520498
C46	C	0.500003	-0.616822	-0.020498
C47	C	0.000003	-0.970043	-0.485962
C48	C	0.500003	-0.470043	0.014038
C49	C	0.000003	-1.585026	-0.734186
C50	C	0.500003	-1.085026	-0.234186
C51	C	0.000006	-1.618443	-0.876200
C52	C	0.500006	-1.118443	-0.376200
C53	C	0.000001	-1.560695	-0.076624
C54	C	0.500001	-1.060695	0.423376
C55	C	0.000005	-1.526160	0.070155
C56	C	0.500005	-1.026160	0.570155
H57	H	-0.480759	-1.631759	-0.414570
H58	H	0.019241	-1.131759	0.085430
Br59	Br	-0.000016	-1.065923	-0.253944
Br60	Br	0.499984	-0.565923	0.246056
H61	H	-0.000006	-1.665258	-0.139358
H62	H	0.499994	-1.165258	0.360642
Br63	Br	-0.000012	-0.865499	-0.311671
Br64	Br	0.499988	-0.365499	0.188329
Br65	Br	-0.000011	-1.020936	-0.752539
Br66	Br	0.499989	-0.520936	-0.252539
H67	H	-0.000001	-1.179554	-0.625061
H68	H	0.499999	-0.679554	-0.125061
H69	H	-0.519246	-1.455120	-0.591898
H70	H	-0.019246	-0.955120	-0.091898
H71	H	0.000086	-1.723019	0.061078
H72	H	0.500086	-1.223019	0.561078
Br73	Br	0.000021	-1.351869	0.174699
Br74	Br	0.500021	-0.851869	0.674699
Br75	Br	0.000016	-1.294142	-0.025726
Br76	Br	0.500016	-0.794142	0.474274
