data_functionalizedCrystal
_audit_creation_method	'MofGen! by Chris Wilmer'
_symmetry_space_group_name_H-M	'P1'
_symmetry_Int_Tables_number	1
_symmetry_cell_setting	triclinic
loop_
_symmetry_equiv_pos_as_xyz
  x,y,z
_cell_length_a	10.654562
_cell_length_b	14.853559
_cell_length_c	9.730223
_cell_angle_alpha	90.000855
_cell_angle_beta	89.996961
_cell_angle_gamma	84.060779
loop_
_atom_site_label
_atom_site_type_symbol
_atom_site_fract_x
_atom_site_fract_y
_atom_site_fract_z
O1	O	1.666503	0.126677	-0.114373
O2	O	1.300901	0.138729	-0.114355
O3	O	1.493474	0.001525	-0.114363
O4	O	1.473931	0.263881	-0.114365
O5	O	1.493471	0.001529	0.114217
O6	O	1.300899	0.138733	0.114225
O7	O	1.666501	0.126681	0.114207
Zn8	Zn	1.483700	0.132707	0.150508
Zn9	Zn	1.483703	0.132703	-0.150656
O10	O	1.473929	0.263884	0.114215
C11	C	1.254112	0.137844	-0.000063
C12	C	1.114697	0.135189	-0.000056
C13	C	1.049178	0.133952	0.124532
C14	C	0.918181	0.131465	0.124509
C15	C	0.918234	0.131455	-0.124702
C16	C	1.049229	0.133935	-0.124677
C17	C	1.049146	0.133962	0.268412
C18	C	0.918149	0.131475	0.268389
C19	C	1.492589	-0.032066	-0.000076
C20	C	1.489941	-0.132165	-0.000083
C21	C	1.478710	-0.555402	-0.124682
C22	C	1.478707	-0.555393	0.124525
C23	C	1.481205	-0.461346	0.124526
C24	C	1.482454	-0.414323	-0.000079
C25	C	1.481204	-0.461346	-0.124685
C26	C	1.482442	-0.414315	0.249129
C27	C	1.484939	-0.320262	0.249136
C28	C	1.486197	-0.273238	0.124529
C29	C	1.484948	-0.320267	-0.000082
C30	C	1.486197	-0.273244	-0.124686
C31	C	1.484958	-0.320272	-0.249299
C32	C	1.482462	-0.414322	-0.249291
C33	C	1.488693	-0.179188	0.124522
C34	C	1.488692	-0.179188	-0.124689
C35	C	1.713291	0.127566	-0.000088
C36	C	1.852705	0.130221	-0.000104
C37	C	1.474813	0.297476	-0.000076
C38	C	1.477461	0.397574	-0.000077
N39	N	1.483707	0.132710	0.356044
N40	N	1.483705	0.132693	-0.356192
C41	C	1.569000	0.071977	0.427967
C42	C	1.568996	0.071966	0.571850
C43	C	1.398403	0.193429	0.571875
C44	C	1.398402	0.193435	0.427995
C45	C	1.667494	0.001853	0.427953
C46	C	1.667491	0.001843	0.571836
H47	H	0.864914	0.130434	-0.226163
H48	H	1.485953	-0.281980	0.350602
H49	H	1.096055	0.071659	0.323665
H50	H	1.102572	0.134928	-0.226129
Cl51	Cl	1.621426	-0.099253	0.640735
H52	H	1.078034	0.199714	0.313054
Cl53	Cl	0.873498	0.030055	0.337613
Cl54	Cl	1.477165	-0.614521	-0.281329
H55	H	1.477682	-0.593684	0.225972
Cl56	Cl	1.635503	-0.105130	0.367649
Cl57	Cl	0.845674	0.227669	0.353663
H58	H	1.481452	-0.452621	-0.350743
Cl59	Cl	1.490271	-0.120082	-0.281345
H60	H	1.481419	-0.452608	0.350576
Cl61	Cl	1.490248	-0.120071	0.281163
Cl62	Cl	1.486532	-0.261147	-0.405938
H63	H	1.328939	0.242880	0.369437
H64	H	1.328949	0.242869	0.630472
H65	H	1.758448	0.023814	0.383323
Cl66	Cl	1.816244	0.025688	0.632131
