data_functionalizedCrystal
_audit_creation_method	'MofGen! by Chris Wilmer'
_symmetry_space_group_name_H-M	'P1'
_symmetry_Int_Tables_number	1
_symmetry_cell_setting	triclinic
loop_
_symmetry_equiv_pos_as_xyz
  x,y,z
_cell_length_a	17.640280
_cell_length_b	19.077105
_cell_length_c	19.077271
_cell_angle_alpha	89.892926
_cell_angle_beta	76.990907
_cell_angle_gamma	76.093206
loop_
_atom_site_label
_atom_site_type_symbol
_atom_site_fract_x
_atom_site_fract_y
_atom_site_fract_z
Zn1	Zn	-0.348276	1.123449	-0.380422
Zn2	Zn	-0.488236	1.154280	-0.238799
Zn3	Zn	-0.348725	1.010750	-0.258136
Zn4	Zn	-0.477408	1.030076	-0.353420
O5	O	-0.415661	1.079639	-0.307694
O6	O	-0.371186	1.226684	-0.364844
O7	O	-0.474450	1.140055	-0.142218
O8	O	-0.236238	1.004709	-0.293750
O9	O	-0.474014	1.249335	-0.260794
O10	O	-0.235908	1.087509	-0.383593
O11	O	-0.371952	1.034604	-0.156424
O12	O	-0.361451	0.914169	-0.267567
O13	O	-0.455558	1.037647	-0.456148
O14	O	-0.455994	0.928368	-0.337572
O15	O	-0.360686	1.106248	-0.475987
O16	O	-0.599228	1.158795	-0.234611
O17	O	-0.591272	1.067543	-0.318822
C18	C	-0.407597	0.895561	-0.301738
C19	C	-0.404165	0.816815	-0.299203
C20	C	-0.451857	0.787249	-0.334376
C21	C	-0.448622	0.713256	-0.331999
C22	C	-0.397699	0.668832	-0.294446
C23	C	-0.350001	0.698402	-0.259273
C24	C	-0.353233	0.772393	-0.261654
C25	C	-0.382743	0.446746	-0.283430
C26	C	-0.379517	0.372751	-0.281050
C27	C	-0.478137	0.387609	-0.353778
C28	C	-0.481367	0.461601	-0.356152
C29	C	-0.433667	0.491165	-0.320982
N30	N	-0.394392	0.593199	-0.292014
N31	N	-0.436969	0.566795	-0.323418
C32	C	-0.624401	1.118630	-0.271704
C33	C	-0.713703	1.135374	-0.256333
C34	C	-0.986834	0.952713	-0.424732
C35	C	-1.070748	0.968450	-0.410266
C36	C	-1.078965	1.063522	-0.322670
C37	C	-0.995050	1.047796	-0.337131
C38	C	-0.948991	0.992390	-0.388162
C39	C	-0.957208	1.087473	-0.300562
C40	C	-0.873301	1.071746	-0.315019
C41	C	-0.827236	1.016341	-0.366046
C42	C	-0.865084	0.976663	-0.402620
C43	C	-1.003268	1.142875	-0.249527
C44	C	-0.965425	1.182552	-0.212958
C45	C	-0.881517	1.166829	-0.227419
C46	C	-0.835452	1.111424	-0.278446
C47	C	-0.843668	1.206507	-0.190845
C48	C	-0.759761	1.190780	-0.205302
C49	C	-0.751545	1.095697	-0.292903
C50	C	-0.206107	1.040514	-0.343841
C51	C	-0.116807	1.023842	-0.359244
C52	C	-0.406864	1.070665	-0.492494
C53	C	-0.403115	1.066840	-0.571244
C54	C	-0.423758	1.264435	-0.313674
C55	C	-0.427209	1.343184	-0.316222
C56	C	-0.376292	1.039424	-1.015320
C57	C	-0.379811	1.043020	-0.941326
C58	C	-0.434940	1.099717	-0.896931
C59	C	-0.486548	1.152826	-0.926534
C60	C	-0.483024	1.149232	-1.000527
C61	C	-0.451199	1.116355	-0.674841
C62	C	-0.454721	1.119944	-0.600842
C63	C	-0.347983	1.010138	-0.615640
C64	C	-0.344467	1.006547	-0.689633
C65	C	-0.396071	1.059657	-0.719231
N66	N	-0.438541	1.103393	-0.821297
N67	N	-0.392466	1.055984	-0.794864
C68	C	-0.424368	1.088608	-0.123625
C69	C	-0.427897	1.092527	-0.044918
H70	H	-0.314393	0.796463	-0.233017
O71	O	-0.514179	1.181102	-0.552955
H72	H	-0.549466	1.217434	-0.585967
O73	O	-1.111555	0.925644	-0.449715
H74	H	-1.149747	0.898332	-0.410212
H75	H	-0.728950	1.223088	-0.175523
O76	O	-0.529598	0.355701	-0.391672
H77	H	-0.593828	0.382270	-0.368987
H78	H	-0.338040	0.336580	-0.250475
H79	H	-0.949331	0.907601	-0.466292
H80	H	-1.116477	1.108631	-0.281119
O81	O	-0.546008	1.213983	-0.878657
H82	H	-0.587105	1.191542	-0.836875
H83	H	-0.343908	0.470808	-0.254785
O84	O	-0.284999	0.945400	-0.737519
H85	H	-0.249699	0.909081	-0.704507
H86	H	-0.337790	0.999776	-0.917231
O87	O	-0.536289	0.509507	-0.396664
H88	H	-0.599283	0.507665	-0.373099
O89	O	-0.538694	1.206504	-1.032449
H90	H	-0.528040	1.260230	-1.022417
O91	O	-0.506778	0.835162	-0.374883
H92	H	-0.539390	0.802167	-0.398948
O93	O	-0.316827	0.978273	-1.063203
H94	H	-0.281529	0.941956	-1.030189
H95	H	-0.881182	1.251613	-0.149291
O96	O	-0.736734	0.999351	-0.381634
H97	H	-0.712655	1.006862	-0.439366
O98	O	-1.093769	1.159844	-0.233926
H99	H	-1.113954	1.175677	-0.284027
H100	H	-0.305968	0.966899	-0.591533
O101	O	-1.015103	1.242328	-0.157939
H102	H	-1.079807	1.246609	-0.154038
O103	O	-0.506878	1.173619	-0.706756
H104	H	-0.545816	1.213637	-0.663450
H105	H	-0.714042	1.050585	-0.334463
H106	H	-0.487458	0.689187	-0.360640
H107	H	-0.308535	0.662225	-0.228700
H108	H	-0.827581	0.931551	-0.444180
