data_functionalizedCrystal
_audit_creation_method	'MofGen! by Chris Wilmer'
_symmetry_space_group_name_H-M	'P1'
_symmetry_Int_Tables_number	1
_symmetry_cell_setting	triclinic
loop_
_symmetry_equiv_pos_as_xyz
  x,y,z
_cell_length_a	13.635800
_cell_length_b	23.752966
_cell_length_c	17.078481
_cell_angle_alpha	83.006983
_cell_angle_beta	99.306161
_cell_angle_gamma	79.933465
loop_
_atom_site_label
_atom_site_type_symbol
_atom_site_fract_x
_atom_site_fract_y
_atom_site_fract_z
V1	V	1.981401	-0.079026	0.247806
O2	O	1.984442	0.003935	0.242631
O3	O	1.949034	-0.156828	0.246552
O4	O	1.947059	-0.077750	0.355682
O5	O	1.986430	-0.075690	0.132745
V6	V	2.225587	-0.069110	0.233990
O7	O	2.106711	-0.100778	0.278112
O8	O	2.325375	-0.047359	0.203685
O9	O	2.146350	0.008691	0.235245
O10	O	2.281244	-0.152071	0.239166
O11	O	2.279256	-0.072446	0.349051
O12	O	2.148325	-0.070386	0.126115
V13	V	2.481401	-0.079026	0.247806
O14	O	2.484442	0.003935	0.242631
O15	O	2.449034	-0.156828	0.246552
O16	O	2.447059	-0.077750	0.355682
O17	O	2.486430	-0.075690	0.132745
V18	V	2.725587	-0.069110	0.233990
O19	O	2.606711	-0.100778	0.278112
O20	O	2.825375	-0.047359	0.203685
O21	O	2.646350	0.008691	0.235245
O22	O	2.781244	-0.152071	0.239166
O23	O	2.779256	-0.072446	0.349051
O24	O	2.648325	-0.070386	0.126115
C25	C	1.869876	-0.175796	0.242757
C26	C	1.883988	-0.239399	0.242450
C27	C	2.061992	-0.636732	0.244613
C28	C	2.075268	-0.696496	0.244337
O29	O	2.158991	-0.729885	0.247603
N30	N	1.991536	-0.723474	0.240219
C31	C	1.894523	-0.690686	0.236385
O32	O	1.824522	-0.719120	0.232858
C33	C	1.881249	-0.630923	0.236666
C34	C	1.964986	-0.603948	0.240776
C35	C	2.145721	-0.609756	0.248723
C36	C	2.132445	-0.549996	0.248997
C37	C	2.035440	-0.517212	0.245161
C38	C	1.951710	-0.544188	0.241050
C39	C	1.784239	-0.598137	0.232838
C40	C	1.770972	-0.538371	0.233120
C41	C	1.854709	-0.511395	0.237230
C42	C	1.841429	-0.451644	0.237488
N43	N	1.925161	-0.424666	0.241606
C44	C	2.022166	-0.457450	0.245442
C45	C	1.922406	-0.816190	0.235796
C46	C	1.935678	-0.875951	0.235509
C47	C	2.116422	-0.881757	0.243462
C48	C	2.103148	-0.821995	0.243744
C49	C	2.006138	-0.789212	0.239914
C50	C	1.994279	-0.331949	0.246016
C51	C	1.980994	-0.272183	0.246287
C52	C	1.800252	-0.266383	0.238337
C53	C	1.813535	-0.326143	0.238063
C54	C	1.910557	-0.358925	0.241905
O55	O	1.757737	-0.418219	0.234227
O56	O	2.092155	-0.429008	0.248979
C57	C	1.867357	-0.074924	0.381962
C58	C	1.879867	-0.074396	0.470153
C59	C	2.057179	0.027657	0.239038
C60	C	2.032686	0.091259	0.239349
C61	C	2.059699	-0.073214	0.099831
C62	C	2.036809	-0.073740	0.011638
C63	C	2.369876	-0.175796	0.242757
C64	C	2.383988	-0.239399	0.242450
C65	C	1.976110	-0.077003	0.515644
C66	C	1.987859	-0.076507	0.598509
C67	C	1.903363	-0.073406	0.635883
C68	C	1.807112	-0.070796	0.590387
C69	C	1.795364	-0.071289	0.507522
C70	C	1.928809	-0.071623	0.883277
C71	C	1.940565	-0.071132	0.966148
C72	C	2.121311	-0.076841	0.974265
C73	C	2.109555	-0.077337	0.891399
C74	C	2.013304	-0.074724	0.845908
N75	N	1.915371	-0.072900	0.720585
N76	N	2.001298	-0.075226	0.761207
C77	C	2.367357	-0.074924	0.381962
C78	C	2.379867	-0.074396	0.470153
C79	C	2.557179	0.027657	0.239038
C80	C	2.532686	0.091259	0.239349
C81	C	2.559699	-0.073214	0.099831
C82	C	2.536809	-0.073740	0.011638
C83	C	2.480994	-0.272183	0.246287
C84	C	2.494270	-0.331947	0.246011
C85	C	2.410538	-0.358925	0.241893
C86	C	2.313525	-0.326137	0.238059
C87	C	2.300251	-0.266375	0.238340
C88	C	2.476117	-0.076998	0.515629
C89	C	2.487883	-0.076494	0.598494
C90	C	2.403400	-0.073392	0.635882
C91	C	2.307141	-0.070788	0.590400
C92	C	2.295375	-0.071287	0.507536
C93	C	2.608174	0.124043	0.235515
C94	C	2.585169	0.183807	0.235794
C95	C	2.486678	0.210785	0.239914
C96	C	2.411184	0.177997	0.243746
C97	C	2.434187	0.118235	0.243461
C98	C	2.439061	-0.076835	-0.025729
C99	C	2.417536	-0.077322	-0.108597
C100	C	2.493762	-0.074718	-0.154094
C101	C	2.591518	-0.071620	-0.116721
C102	C	2.613039	-0.071129	-0.033856
H103	H	2.049186	-0.250222	0.249631
H104	H	2.544919	-0.079525	0.485200
H105	H	2.692638	-0.068612	-0.003438
H106	H	2.238360	-0.068262	0.620854
N107	N	2.598897	-0.367294	0.250079
H108	H	2.594609	-0.409247	0.249263
H109	H	2.644482	-0.363655	0.301285
H110	H	2.421360	-0.407588	0.241665
H111	H	2.376980	-0.078956	0.011304
H112	H	2.467960	0.259447	0.240145
H113	H	2.330991	0.199972	0.247099
H114	H	2.566269	-0.078617	0.635515
H115	H	1.745350	-0.348108	0.234721
H116	H	2.199675	-0.078967	1.011311
H117	H	2.549183	-0.250225	0.249635
H118	H	2.073282	-0.358634	0.249147
H119	H	2.412995	-0.072986	0.703356
H120	H	2.216996	-0.069170	0.470515
N121	N	1.695630	-0.231017	0.234210
H122	H	1.644593	-0.257171	0.231565
H123	H	1.677793	-0.200567	0.184713
H124	H	2.200636	-0.528038	0.252349
H125	H	2.245356	-0.348112	0.234707
H126	H	1.871753	-0.068605	0.996575
H127	H	2.337934	-0.079844	-0.139013
N128	N	2.195615	-0.231023	0.234199
H129	H	2.150036	-0.234632	0.182970
H130	H	2.199983	-0.189084	0.235035
N131	N	2.091660	-0.079325	0.647584
H132	H	2.091423	-0.043619	0.674240
H133	H	2.143355	-0.081388	0.611294
N134	N	1.691557	-0.068480	0.458457
H135	H	1.696935	-0.069260	0.400291
H136	H	1.645010	-0.031519	0.463267
N137	N	2.352769	0.082875	0.247611
H138	H	2.343419	0.063477	0.198233
H139	H	2.286939	0.109070	0.250295
H140	H	2.178362	-0.079861	0.860975
N141	N	2.714408	0.094953	0.231073
H142	H	2.758727	0.124797	0.228684
H143	H	2.712737	0.075814	0.181339
H144	H	2.646653	0.210494	0.232675
N145	N	2.470533	-0.075247	-0.243469
H146	H	2.446946	-0.112113	-0.253925
H147	H	2.533680	-0.073105	-0.266573
N148	N	2.673726	-0.068807	-0.165799
H149	H	2.645250	-0.069590	-0.223961
H150	H	2.731229	-0.103106	-0.145190
H151	H	2.224717	-0.636443	0.251850
H152	H	2.195410	-0.908460	0.246580
N153	N	2.193463	-0.792901	0.248187
H154	H	2.226895	-0.799045	0.200437
H155	H	2.243594	-0.810117	0.299346
N156	N	1.845355	-0.905038	0.231060
H157	H	1.811924	-0.898890	0.278808
H158	H	1.868548	-0.947862	0.231439
H159	H	1.843405	-0.789502	0.232671
H160	H	1.716047	-0.620090	0.229485
H161	H	1.691975	-0.511683	0.230005
H162	H	2.044919	-0.079532	0.485221
H163	H	1.738314	-0.068268	0.620822
N164	N	1.825001	-0.068803	0.834218
H165	H	1.773260	-0.066765	0.870471
H166	H	1.825322	-0.104509	0.807559
