data_functionalizedCrystal
_audit_creation_method	'MofGen! by Chris Wilmer'
_symmetry_space_group_name_H-M	'P1'
_symmetry_Int_Tables_number	1
_symmetry_cell_setting	triclinic
loop_
_symmetry_equiv_pos_as_xyz
  x,y,z
_cell_length_a	17.699083
_cell_length_b	14.971486
_cell_length_c	14.048226
_cell_angle_alpha	89.998499
_cell_angle_beta	90.007326
_cell_angle_gamma	96.551428
loop_
_atom_site_label
_atom_site_type_symbol
_atom_site_fract_x
_atom_site_fract_y
_atom_site_fract_z
O1	O	0.098633	-1.186608	0.079053
O2	O	0.110445	-0.926167	0.079079
O3	O	-0.005632	-1.063746	0.079057
O4	O	0.214710	-1.049030	0.079075
O5	O	-0.005639	-1.063729	-0.079264
O6	O	0.110438	-0.926151	-0.079242
O7	O	0.098626	-1.186591	-0.079268
Zn8	Zn	0.104531	-1.056368	-0.104392
Zn9	Zn	0.104540	-1.056390	0.104203
O10	O	0.214703	-1.049013	-0.079246
C11	C	0.109913	-0.892836	-0.000078
C12	C	0.108330	-0.793544	-0.000068
C13	C	-0.033834	-1.063210	-0.000104
C14	C	-0.117856	-1.061628	-0.000104
C15	C	0.099158	-1.219923	-0.000109
C16	C	0.100741	-1.319214	-0.000112
C17	C	-0.166278	-1.142384	-0.000113
C18	C	-0.245225	-1.140892	-0.000105
C19	C	-0.275748	-1.058644	-0.000094
C20	C	-0.227320	-0.977882	-0.000081
C21	C	-0.148374	-0.979375	-0.000083
C22	C	-0.545698	-0.971860	-0.000073
C23	C	-0.624649	-0.970374	-0.000074
C24	C	-0.642548	-1.133378	-0.000095
C25	C	-0.563603	-1.134871	-0.000096
C26	C	-0.515181	-1.054109	-0.000079
C27	C	-0.429578	-1.055728	-0.000087
C28	C	-0.361350	-1.057024	-0.000093
C29	C	0.242905	-1.049549	-0.000083
C30	C	0.326927	-1.051131	-0.000077
N31	N	0.104524	-1.056360	-0.246753
C32	C	0.176522	-0.736085	-0.000064
C33	C	0.175030	-0.642790	-0.000078
C34	C	0.105346	-0.606958	-0.000090
C35	C	0.037148	-0.664425	-0.000097
C36	C	0.038641	-0.757717	-0.000090
C37	C	0.034042	-0.469973	-0.000111
C38	C	0.032549	-0.376674	-0.000117
C39	C	0.170431	-0.355046	-0.000099
C40	C	0.171924	-0.448339	-0.000092
C41	C	0.103726	-0.505799	-0.000097
C42	C	0.053147	-1.117299	-0.296581
C43	C	0.053146	-1.117305	-0.396238
C44	C	0.104528	-1.056376	-0.446066
C45	C	0.155908	-0.995431	-0.396231
C46	C	0.155904	-0.995421	-0.296576
C47	C	0.155913	-0.995456	-0.603946
C48	C	0.155918	-0.995467	-0.703608
C49	C	0.053156	-1.117340	-0.703608
C50	C	0.053152	-1.117331	-0.603953
C51	C	0.104533	-1.056386	-0.554125
N52	N	0.104541	-1.056406	0.246564
H53	H	-0.284648	-1.206652	-0.000115
H54	H	-0.021492	-0.516756	-0.000117
H55	H	0.197751	-0.945826	-0.563379
O56	O	0.239680	-0.483000	-0.000121
C57	C	0.299553	-0.412281	-0.000095
H58	H	0.278283	-0.348948	-0.030076
H59	H	0.348197	-0.431678	-0.046053
H60	H	0.320595	-0.399032	0.075861
O61	O	0.003347	-1.176540	-0.444751
C62	C	0.043968	-1.231639	-0.502362
H63	H	0.103142	-1.195877	-0.517279
H64	H	0.012401	-1.245865	-0.572448
H65	H	0.049206	-1.297727	-0.463949
H66	H	-0.649498	-0.903394	-0.000067
O67	O	0.205845	-0.936153	-0.444484
C68	C	0.251203	-0.882377	-0.379131
H69	H	0.220167	-0.881433	-0.308099
H70	H	0.262645	-0.810925	-0.407931
H71	H	0.307471	-0.911286	-0.368515
O72	O	0.003318	-1.176664	-0.751966
C73	C	0.015742	-1.265170	-0.727583
H74	H	0.076340	-1.265461	-0.700173
H75	H	0.007107	-1.310082	-0.793118
H76	H	-0.026173	-1.291536	-0.669745
H77	H	-0.538756	-1.201846	-0.000110
H78	H	0.197740	-0.945797	-0.256007
O79	O	-0.027550	-0.813628	0.000037
C80	C	-0.030818	-0.868222	0.082047
H81	H	0.029262	-0.872804	0.109392
H82	H	-0.058945	-0.938404	0.063606
H83	H	-0.065414	-0.837605	0.139458
O84	O	-0.030590	-0.629724	0.000019
C85	C	-0.072153	-0.659082	0.082025
H86	H	-0.051467	-0.723743	0.109365
H87	H	-0.135171	-0.672168	0.063580
H88	H	-0.063432	-0.605076	0.139441
H89	H	0.197757	-0.945851	-0.744173
O90	O	0.244262	-0.770781	0.000076
C91	C	0.285832	-0.741415	0.082085
H92	H	0.265145	-0.676754	0.109414
H93	H	0.348848	-0.728325	0.063648
H94	H	0.277121	-0.795418	0.139505
O95	O	0.003161	-1.176521	-0.248330
C96	C	-0.042174	-1.230321	-0.313684
H97	H	-0.043076	-1.193659	-0.384727
H98	H	-0.102600	-1.244099	-0.284904
H99	H	-0.017505	-1.296710	-0.324269
H100	H	-0.141433	-1.209360	-0.000128
H101	H	0.225960	-0.308257	-0.000099
H102	H	-0.252178	-0.910914	-0.000066
O103	O	-0.035207	-0.342013	-0.000172
C104	C	-0.095080	-0.412731	-0.000158
H105	H	-0.073811	-0.476065	-0.030128
H106	H	-0.143726	-0.393335	-0.046131
H107	H	-0.116120	-0.425979	0.075793
O108	O	-0.689695	-1.211750	-0.000058
C109	C	-0.765920	-1.192803	-0.000074
H110	H	-0.769008	-1.122559	0.029911
H111	H	-0.801633	-1.244297	0.045885
H112	H	-0.788758	-1.196233	-0.076028
O113	O	-0.498748	-0.893351	0.000060
C114	C	-0.512577	-0.843421	0.082070
H115	H	-0.572438	-0.865523	0.109407
H116	H	-0.507100	-0.768808	0.063632
H117	H	-0.469378	-0.855554	0.139485
O118	O	-0.101443	-0.900846	-0.000116
C119	C	-0.145309	-0.827930	-0.000082
H120	H	-0.204211	-0.850754	-0.030062
H121	H	-0.116241	-0.771350	-0.046035
H122	H	-0.150948	-0.802724	0.075877
H123	H	0.230559	-0.596010	-0.000074
O124	O	0.003061	-1.176427	-0.555700
C125	C	-0.071824	-1.161956	-0.580243
H126	H	-0.072191	-1.090314	-0.607583
H127	H	-0.109900	-1.172344	-0.514807
H128	H	-0.093937	-1.211505	-0.638182
