data_functionalizedCrystal
_audit_creation_method	'MofGen! by Chris Wilmer'
_symmetry_space_group_name_H-M	'P1'
_symmetry_Int_Tables_number	1
_symmetry_cell_setting	triclinic
loop_
_symmetry_equiv_pos_as_xyz
  x,y,z
_cell_length_a	11.169416
_cell_length_b	12.759395
_cell_length_c	11.169409
_cell_angle_alpha	89.980294
_cell_angle_beta	89.969126
_cell_angle_gamma	90.010185
loop_
_atom_site_label
_atom_site_type_symbol
_atom_site_fract_x
_atom_site_fract_y
_atom_site_fract_z
Zn1	Zn	-0.477715	1.606303	-0.678551
Zn2	Zn	-0.678455	1.606207	-0.477873
Zn3	Zn	-0.477784	1.430601	-0.477886
Zn4	Zn	-0.678354	1.430607	-0.678518
O5	O	-0.578077	1.518429	-0.578207
O6	O	-0.504357	1.753312	-0.651939
O7	O	-0.651907	1.582869	-0.309925
O8	O	-0.309826	1.453946	-0.504524
O9	O	-0.651840	1.753240	-0.504502
O10	O	-0.309774	1.583034	-0.651951
O11	O	-0.504475	1.453852	-0.309934
O12	O	-0.504377	1.283580	-0.504492
O13	O	-0.651667	1.453957	-0.846473
O14	O	-0.651735	1.283585	-0.651896
O15	O	-0.504259	1.583040	-0.846497
O16	O	-0.846392	1.582875	-0.504470
O17	O	-0.846317	1.453863	-0.651883
C18	C	-0.578053	1.245462	-0.578192
C19	C	-0.578072	1.128685	-0.578215
C20	C	-0.424746	1.128740	-0.731989
C21	C	-0.348098	1.073907	-0.808886
C22	C	-0.348119	0.964185	-0.808901
C23	C	-0.424794	0.909294	-0.732008
C24	C	-0.501443	0.964128	-0.655111
C25	C	-0.501416	1.073852	-0.655107
C26	C	-0.654761	0.964073	-0.501333
C27	C	-0.654748	1.073795	-0.501322
C28	C	-0.731437	0.909182	-0.424440
C29	C	-0.808093	0.964016	-0.347547
C30	C	-0.808069	1.073744	-0.347536
C31	C	-0.731396	1.128628	-0.424425
C32	C	-0.889902	1.518388	-0.578198
C33	C	-1.023302	1.518466	-0.578234
C34	C	-0.265035	1.518500	-0.578243
C35	C	-0.131635	1.518530	-0.578258
C36	C	-0.577944	1.518510	-0.891250
C37	C	-0.577887	1.518544	-1.024650
C38	C	-0.578102	1.792463	-0.578223
C39	C	-0.578113	1.909240	-0.578229
C40	C	-0.578123	1.518410	-0.266382
C41	C	-0.577842	1.518579	-0.132983
H42	H	-0.424795	0.819953	-0.732017
H43	H	-0.285698	0.919540	-0.871510
C44	C	-0.424732	1.249431	-0.731989
H45	H	-0.368090	1.274268	-0.788791
H46	H	-0.502205	1.274253	-0.752601
H47	H	-0.403868	1.274230	-0.654572
H48	H	-0.731445	0.819841	-0.424454
H49	H	-0.731364	1.217969	-0.424418
H50	H	-0.870511	0.919315	-0.284942
H51	H	-0.870482	1.118383	-0.284913
H52	H	-0.285668	1.118611	-0.871488
