data_functionalizedCrystal
_audit_creation_method	'MofGen! by Chris Wilmer'
_symmetry_space_group_name_H-M	'P1'
_symmetry_Int_Tables_number	1
_symmetry_cell_setting	triclinic
loop_
_symmetry_equiv_pos_as_xyz
  x,y,z
_cell_length_a	10.489746
_cell_length_b	10.489741
_cell_length_c	12.503552
_cell_angle_alpha	86.444084
_cell_angle_beta	93.556370
_cell_angle_gamma	84.540238
loop_
_atom_site_label
_atom_site_type_symbol
_atom_site_fract_x
_atom_site_fract_y
_atom_site_fract_z
O1	O	1.701340	0.172700	0.089248
O2	O	2.201340	0.672700	0.589248
O3	O	1.330147	0.189584	0.089266
O4	O	1.830147	0.689584	0.589266
O5	O	1.524190	-0.004455	0.089250
O6	O	2.024190	0.495545	0.589250
O7	O	1.507298	0.366739	0.089264
O8	O	2.007298	0.866739	0.589264
O9	O	1.509580	0.010150	-0.089391
O10	O	2.009580	0.510150	0.410609
O11	O	1.315537	0.204190	-0.089376
O12	O	1.815537	0.704190	0.410624
O13	O	1.686730	0.187305	-0.089394
O14	O	2.186730	0.687305	0.410606
Cu15	Cu	1.499800	0.197081	-0.105696
Cu16	Cu	1.999800	0.697081	0.394304
Cu17	Cu	1.517078	0.179808	0.105568
Cu18	Cu	2.017078	0.679808	0.605568
O19	O	1.492688	0.381345	-0.089378
O20	O	1.992688	0.881345	0.410622
C21	C	1.275311	0.195610	-0.000053
C22	C	1.775311	0.695610	0.499947
C23	C	1.133682	0.191790	-0.000046
C24	C	1.633682	0.691790	0.499954
C25	C	1.515609	-0.044684	-0.000070
C26	C	2.015609	0.455316	0.499930
C27	C	1.511792	-0.186314	-0.000068
C28	C	2.011792	0.313686	0.499932
C29	C	0.980823	0.066068	-0.000066
C30	C	1.480823	0.566068	0.499934
C31	C	1.051013	0.136125	-0.088140
C32	C	1.551013	0.636125	0.411860
C33	C	1.065373	0.121755	0.087986
C34	C	1.565373	0.621755	0.587986
C35	C	0.951515	0.255113	-0.088219
C36	C	1.451515	0.755113	0.411781
C37	C	0.965876	0.240719	0.087986
C38	C	1.465876	0.740719	0.587986
C39	C	1.036016	0.310865	-0.000110
C40	C	1.536016	0.810865	0.499890
C41	C	1.388328	-0.254458	-0.000054
C42	C	1.888328	0.245542	0.499946
C43	C	1.439448	-0.339377	-0.088136
C44	C	1.939448	0.160623	0.411864
C45	C	1.453882	-0.353752	0.087990
C46	C	1.953882	0.146248	0.587990
C47	C	1.562956	-0.269363	-0.088223
C48	C	2.062956	0.230637	0.411777
C49	C	1.577379	-0.283734	0.087983
C50	C	2.077379	0.216266	0.587983
C51	C	1.628587	-0.368625	-0.000121
C52	C	2.128587	0.131375	0.499879
C53	C	1.741567	0.181279	-0.000073
C54	C	2.241567	0.681279	0.499927
C55	C	1.883196	0.185099	-0.000072
C56	C	2.383196	0.685099	0.499928
C57	C	1.501269	0.421573	-0.000055
C58	C	2.001269	0.921573	0.499945
C59	C	1.505086	0.563202	-0.000051
C60	C	2.005086	1.063202	0.499949
N61	N	1.487657	0.209229	-0.254288
N62	N	1.987657	0.709229	0.245712
C63	C	1.547087	0.149776	-0.526726
C64	C	2.047087	0.649776	-0.026726
C65	C	1.469804	0.227099	-0.473395
C66	C	1.969804	0.727099	0.026605
C67	C	1.479740	0.217154	-0.351473
C68	C	1.979740	0.717154	0.148527
C69	C	1.537153	0.159720	-0.648659
C70	C	2.037153	0.659720	-0.148659
N71	N	1.529231	0.167650	0.254160
N72	N	2.029231	0.667650	0.754160
H73	H	0.956094	-0.037426	-0.000158
H74	H	1.456094	0.462574	0.499842
H75	H	1.286810	-0.204801	-0.000138
H76	H	1.786810	0.295199	0.499862
H77	H	1.381118	-0.364302	-0.162599
H78	H	1.881118	0.135698	0.337401
H79	H	1.620709	0.076113	-0.480821
H80	H	2.120709	0.576113	0.019179
O81	O	1.624013	-0.220464	-0.186981
O82	O	2.124013	0.279536	0.313019
H83	H	1.626320	-0.114954	-0.186235
H84	H	2.126320	0.385046	0.313765
H85	H	1.635666	-0.258777	0.162449
H86	H	2.135666	0.241223	0.662449
O87	O	1.392739	-0.402857	0.186635
O88	O	1.892739	0.097143	0.686635
H89	H	1.293020	-0.356676	0.186445
H90	H	1.793020	0.143324	0.686445
O91	O	1.763157	-0.434107	-0.000186
O92	O	2.263157	0.065893	0.499814
H93	H	1.808096	-0.400091	-0.073373
H94	H	2.308096	0.099909	0.426627
O95	O	1.372287	0.324700	-0.534194
O96	O	1.872287	0.824700	-0.034194
H97	H	1.379695	0.317311	-0.621804
H98	H	1.879695	0.817311	-0.121804
H99	H	1.114906	0.065396	0.162448
H100	H	1.614906	0.565396	0.662448
H101	H	0.902139	0.311422	-0.162766
H102	H	1.402139	0.811422	0.337234
O103	O	1.100595	0.077628	-0.186757
O104	O	1.600595	0.577628	0.313243
H105	H	1.078953	-0.023919	-0.186575
H106	H	1.578953	0.476081	0.313425
O107	O	1.068459	0.448063	-0.000162
O108	O	1.568459	0.948063	0.499838
H109	H	1.022286	0.503146	-0.073347
H110	H	1.522286	1.003146	0.426653
H111	H	0.928466	0.284834	0.162455
H112	H	1.428466	0.784834	0.662455
