data_functionalizedCrystal
_audit_creation_method	'MofGen! by Chris Wilmer'
_symmetry_space_group_name_H-M	'P1'
_symmetry_Int_Tables_number	1
_symmetry_cell_setting	triclinic
loop_
_symmetry_equiv_pos_as_xyz
  x,y,z
_cell_length_a	17.699083
_cell_length_b	17.699083
_cell_length_c	16.176319
_cell_angle_alpha	89.992304
_cell_angle_beta	89.998611
_cell_angle_gamma	83.283015
loop_
_atom_site_label
_atom_site_type_symbol
_atom_site_fract_x
_atom_site_fract_y
_atom_site_fract_z
O1	O	1.004079	0.095713	-0.068632
O2	O	0.783700	0.108166	-0.068660
O3	O	0.900116	-0.008250	-0.068638
O4	O	0.887663	0.212129	-0.068654
O5	O	0.900100	-0.008257	0.068855
O6	O	0.783684	0.108158	0.068834
O7	O	1.004063	0.095706	0.068861
Cu8	Cu	0.893872	0.101931	0.081401
Cu9	Cu	0.893891	0.101940	-0.081200
O10	O	0.887647	0.212121	0.068839
C11	C	0.899662	-0.036451	0.000109
C12	C	0.898323	-0.120469	0.000109
C13	C	0.755495	0.107716	0.000084
C14	C	0.671477	0.106377	0.000073
C15	C	0.966656	-0.169090	0.000119
C16	C	0.965394	-0.248033	0.000111
C17	C	0.895798	-0.278354	0.000100
C18	C	0.827459	-0.229727	0.000088
C19	C	0.828722	-0.150785	0.000089
C20	C	0.822364	-0.548090	0.000080
C21	C	0.821106	-0.627038	0.000081
C22	C	0.959036	-0.645338	0.000102
C23	C	0.960299	-0.566396	0.000104
C24	C	0.891961	-0.517776	0.000087
C25	C	0.893330	-0.432177	0.000094
C26	C	0.894427	-0.363951	0.000099
C27	C	0.622856	0.174710	0.000069
C28	C	0.543913	0.173448	0.000079
C29	C	0.513592	0.103852	0.000089
C30	C	0.562219	0.035513	0.000096
C31	C	0.641161	0.036776	0.000091
C32	C	0.243856	0.030418	0.000117
C33	C	0.164908	0.029160	0.000120
C34	C	0.146608	0.167090	0.000105
C35	C	0.225550	0.168353	0.000100
C36	C	0.274170	0.100015	0.000112
C37	C	0.359769	0.101384	0.000102
C38	C	0.427995	0.102481	0.000093
C39	C	1.032268	0.096156	0.000116
C40	C	1.116286	0.097494	0.000121
C41	C	0.888102	0.240322	0.000091
C42	C	0.889440	0.324340	0.000085
N43	N	0.893864	0.101925	0.195767
N44	N	0.893905	0.101941	-0.195565
C45	C	0.945429	0.050397	0.239040
C46	C	0.945432	0.050396	0.325588
C47	C	0.893875	0.101927	0.368859
C48	C	0.842305	0.153457	0.325579
C49	C	0.842299	0.153454	0.239034
C50	C	0.842331	0.153472	0.674608
C51	C	0.842344	0.153473	0.761159
C52	C	0.945465	0.050414	0.761161
C53	C	0.945458	0.050410	0.674616
C54	C	0.893886	0.101937	0.631344
C55	C	0.893882	0.101937	0.537499
C56	C	0.893883	0.101932	0.462702
H57	H	1.023330	-0.144409	0.000133
O58	O	0.995604	0.000322	0.367495
C59	C	1.097879	-0.101913	0.358364
C60	C	1.041107	-0.045234	0.310802
H61	H	1.134672	-0.138771	0.312548
H62	H	1.135674	-0.069309	0.398845
H63	H	1.065276	-0.139655	0.398920
H64	H	1.073648	-0.007477	0.270201
H65	H	1.003313	-0.077885	0.270373
H66	H	1.016971	-0.541714	0.000117
O67	O	0.255097	0.235910	0.000193
C68	C	0.333579	0.317399	0.071422
C69	C	0.300182	0.240859	0.071411
H70	H	0.370025	0.321432	0.129004
H71	H	0.370126	0.321444	0.013914
H72	H	0.285259	0.366015	0.071378
H73	H	0.348454	0.192199	0.071484
H74	H	0.263615	0.236880	0.128913
H75	H	0.987416	0.008438	0.203814
H76	H	1.014680	-0.684934	0.000111
O77	O	0.099454	0.233526	0.000212
C78	C	0.059632	0.351014	0.071452
C79	C	0.113086	0.275815	0.071428
H80	H	0.070623	0.385218	0.129032
H81	H	0.070647	0.385323	0.013943
H82	H	-0.001993	0.338143	0.071420
H83	H	0.174729	0.288617	0.071489
H84	H	0.102005	0.241528	0.128932
O85	O	0.652181	0.242384	0.000095
C86	C	0.625687	0.379063	0.000036
C87	C	0.592380	0.302475	0.000022
H88	H	0.577355	0.427666	-0.000041
H89	H	0.662163	0.383152	0.057587
H90	H	0.662212	0.383065	-0.057495
H91	H	0.555822	0.298421	0.057513
H92	H	0.555948	0.298418	-0.057567
H93	H	0.800341	0.195428	0.639382
H94	H	0.764429	-0.651721	0.000074
O95	O	0.755931	-0.500946	-0.000036
C96	C	0.638447	-0.461122	-0.071300
C97	C	0.713650	-0.514570	-0.071264
H98	H	0.604248	-0.472107	-0.128890
H99	H	0.604135	-0.472150	-0.013801
H100	H	0.651312	-0.399496	-0.071259
H101	H	0.700854	-0.576215	-0.071334
H102	H	0.747940	-0.503476	-0.128758
H103	H	0.800323	0.195413	0.360816
O104	O	1.031843	-0.295155	0.000163
C105	C	1.168789	-0.304976	0.000148
C106	C	1.093589	-0.251524	0.000108
H107	H	1.218730	-0.269722	0.000086
H108	H	1.171687	-0.342386	0.057701
H109	H	1.171618	-0.342400	-0.057380
H110	H	1.090710	-0.214053	0.057597
H111	H	1.090722	-0.214166	-0.057483
O112	O	0.759834	-0.259143	-0.000072
C113	C	0.641547	-0.267608	-0.071297
C114	C	0.718114	-0.234261	-0.071231
H115	H	0.607787	-0.247492	-0.128814
H116	H	0.652337	-0.332385	-0.071347
H117	H	0.607808	-0.247593	-0.013736
H118	H	0.751891	-0.254218	-0.128783
H119	H	0.707269	-0.169487	-0.071138
H120	H	0.773078	-0.111198	0.000081
H121	H	0.140225	-0.027517	0.000128
H122	H	0.504328	0.229092	0.000075
H123	H	0.800309	0.195412	0.203801
H124	H	0.283434	-0.025228	0.000127
O125	O	0.995524	0.000247	0.803108
C126	C	1.040089	-0.131416	0.829642
C127	C	0.983370	-0.074690	0.782073
H128	H	1.030272	-0.192015	0.812665
H129	H	1.100704	-0.121693	0.812603
H130	H	1.031247	-0.122528	0.898926
H131	H	0.992143	-0.083544	0.712778
H132	H	0.922776	-0.084427	0.799180
H133	H	0.537526	-0.021154	0.000116
O134	O	0.995380	0.000211	0.632560
C135	C	1.011468	-0.103396	0.535124
C136	C	0.954888	-0.046500	0.582639
H137	H	0.978752	-0.141186	0.494765
H138	H	1.049293	-0.070975	0.494469
H139	H	1.048255	-0.140182	0.581015
H140	H	0.918051	-0.009699	0.536808
H141	H	0.917116	-0.078967	0.623307
O142	O	0.792180	0.203557	0.803067
C143	C	0.689912	0.305801	0.793937
C144	C	0.746664	0.249115	0.746374
H145	H	0.653109	0.342660	0.748121
H146	H	0.652124	0.273204	0.834446
H147	H	0.722530	0.343541	0.834465
H148	H	0.714108	0.211360	0.705801
H149	H	0.784451	0.281759	0.705917
H150	H	0.680748	-0.018868	0.000095
