data_functionalizedCrystal
_audit_creation_method	'MofGen! by Chris Wilmer'
_symmetry_space_group_name_H-M	'P1'
_symmetry_Int_Tables_number	1
_symmetry_cell_setting	triclinic
loop_
_symmetry_equiv_pos_as_xyz
  x,y,z
_cell_length_a	14.519709
_cell_length_b	14.519709
_cell_length_c	14.048226
_cell_angle_alpha	89.992623
_cell_angle_beta	89.999158
_cell_angle_gamma	83.680145
loop_
_atom_site_label
_atom_site_type_symbol
_atom_site_fract_x
_atom_site_fract_y
_atom_site_fract_z
O1	O	1.223870	0.120893	-0.079039
O2	O	0.955393	0.135130	-0.079068
O3	O	1.096750	-0.006227	-0.079044
O4	O	1.082513	0.262250	-0.079063
O5	O	1.096733	-0.006235	0.079277
O6	O	0.955376	0.135121	0.079253
O7	O	1.223853	0.120885	0.079283
Zn8	Zn	1.089612	0.128002	0.104405
Zn9	Zn	1.089634	0.128013	-0.104190
O10	O	1.082496	0.262242	0.079259
C11	C	0.921025	0.134462	0.000089
C12	C	0.818643	0.132474	0.000078
C13	C	0.443748	0.125154	0.000122
C14	C	0.548056	0.127187	0.000109
C15	C	0.631192	0.128814	0.000099
C16	C	0.735507	0.130847	0.000088
C17	C	1.096078	-0.040591	0.000117
C18	C	1.094090	-0.142972	0.000117
C19	C	1.086770	-0.517868	0.000091
C20	C	1.088803	-0.413560	0.000099
C21	C	1.090430	-0.330423	0.000105
C22	C	1.092463	-0.226109	0.000111
C23	C	1.258221	0.121553	0.000124
C24	C	1.360602	0.123541	0.000128
C25	C	1.083168	0.296605	0.000096
C26	C	1.085156	0.398987	0.000089
N27	N	1.089603	0.127994	0.246766
N28	N	1.089650	0.128014	-0.246551
C29	C	1.152216	0.065427	0.296594
C30	C	1.152222	0.065426	0.396252
C31	C	1.089619	0.127998	0.446079
C32	C	1.027000	0.190568	0.396243
C33	C	1.026990	0.190563	0.296588
C34	C	1.027027	0.190574	0.603958
C35	C	1.027038	0.190580	0.703620
C36	C	1.152258	0.065438	0.703622
C37	C	1.152248	0.065433	0.603966
C38	C	1.089630	0.128004	0.554137
H39	H	1.203198	0.014478	0.256031
H40	H	0.976033	0.241524	0.563390
H41	H	1.203205	0.014479	0.436822
O42	O	1.213212	0.004747	0.751980
C43	C	1.373481	-0.048952	0.782423
C44	C	1.304552	0.019836	0.727609
H45	H	1.447345	-0.036790	0.762724
H46	H	1.362813	-0.038204	0.862219
H47	H	1.361306	-0.122841	0.762856
H48	H	1.316686	0.093752	0.747096
H49	H	1.315237	0.009006	0.647826
H50	H	0.976059	0.241532	0.744185
O51	O	1.212837	0.004427	0.555567
C52	C	1.231901	-0.121832	0.443466
C53	C	1.163249	-0.052656	0.498128
H54	H	1.191836	-0.168015	0.397028
H55	H	1.278168	-0.082243	0.396621
H56	H	1.276533	-0.166496	0.496341
H57	H	1.118556	-0.007974	0.445322
H58	H	1.117046	-0.092302	0.544987
H59	H	0.976023	0.241512	0.436818
H60	H	0.976004	0.241510	0.256018
