data_functionalizedCrystal
_audit_creation_method	'MofGen! by Chris Wilmer'
_symmetry_space_group_name_H-M	'P1'
_symmetry_Int_Tables_number	1
_symmetry_cell_setting	triclinic
loop_
_symmetry_equiv_pos_as_xyz
  x,y,z
_cell_length_a	18.215407
_cell_length_b	18.101395
_cell_length_c	18.215399
_cell_angle_alpha	89.973573
_cell_angle_beta	89.980167
_cell_angle_gamma	90.031552
loop_
_atom_site_label
_atom_site_type_symbol
_atom_site_fract_x
_atom_site_fract_y
_atom_site_fract_z
Zn1	Zn	1.125040	-0.294828	-0.416124
Zn2	Zn	1.124935	-0.418675	-0.293061
Zn3	Zn	1.001973	-0.294853	-0.293071
Zn4	Zn	1.001925	-0.418634	-0.416086
O5	O	1.063468	-0.356747	-0.354585
O6	O	1.228010	-0.311264	-0.399811
O7	O	1.108600	-0.402277	-0.190078
O8	O	1.018362	-0.191216	-0.309415
O9	O	1.227933	-0.402253	-0.309397
O10	O	1.108779	-0.191199	-0.399821
O11	O	1.018260	-0.311305	-0.190085
O12	O	0.898982	-0.311265	-0.309378
O13	O	1.018281	-0.402183	-0.519075
O14	O	0.898947	-0.402207	-0.399756
O15	O	1.108733	-0.311224	-0.519103
O16	O	1.108554	-0.522302	-0.309360
O17	O	1.018179	-0.522272	-0.399746
C18	C	0.872262	-0.356735	-0.354564
C19	C	0.790463	-0.356747	-0.354572
C20	C	0.602270	-0.404175	-0.401573
C21	C	0.525412	-0.404177	-0.401583
C22	C	0.525418	-0.309333	-0.307613
C23	C	0.602276	-0.309328	-0.307608
C24	C	0.640700	-0.356753	-0.354587
C25	C	0.486984	-0.356761	-0.354601
C26	C	0.403650	-0.356763	-0.354611
C27	C	0.724039	-0.356750	-0.354579
C28	C	1.063370	-0.549158	-0.354564
C29	C	1.063395	-0.631472	-0.354579
C30	C	1.063557	-0.930563	-0.354619
C31	C	1.006827	-0.899249	-0.411628
C32	C	1.006557	-0.813632	-0.411450
C33	C	1.063476	-0.782180	-0.354600
C34	C	1.042479	-0.813331	-0.277038
C35	C	1.042113	-0.898976	-0.277380
C36	C	1.141408	-0.898906	-0.374487
C37	C	1.140950	-0.813255	-0.376188
C38	C	1.063432	-0.698321	-0.354584
C39	C	1.063599	-1.014422	-0.354629
C40	C	1.255421	-0.356761	-0.354607
C41	C	1.337220	-0.356766	-0.354616
C42	C	1.063513	-0.356696	-0.546538
C43	C	1.063532	-0.356675	-0.628337
C44	C	1.063587	-0.163585	-0.354623
C45	C	1.063638	-0.081271	-0.354639
C46	C	1.110648	-0.309268	-0.816547
C47	C	1.110656	-0.309246	-0.893406
C48	C	1.016469	-0.403967	-0.893365
C49	C	1.016457	-0.403984	-0.816508
C50	C	1.063551	-0.356636	-0.778101
C51	C	1.063571	-0.356597	-0.931817
C52	C	1.063580	-0.356574	-1.015151
C53	C	1.063541	-0.356657	-0.694762
C54	C	1.063466	-0.356745	-0.163379
C55	C	1.063590	-0.356558	-0.081580
H56	H	0.494126	-0.442792	-0.439845
C57	C	0.964648	-0.456093	-0.774211
C58	C	0.912853	-0.508181	-0.816454
C59	C	0.861044	-0.560285	-0.774157
C60	C	0.861029	-0.560300	-0.689617
C61	C	0.912826	-0.508210	-0.647369
C62	C	0.964635	-0.456106	-0.689666
H63	H	0.912862	-0.508171	-0.879040
H64	H	0.822701	-0.598845	-0.805432
H65	H	0.822677	-0.598870	-0.658306
H66	H	0.912817	-0.508220	-0.584783
H67	H	1.002978	-0.417546	-0.658391
C68	C	0.483147	-0.257174	-0.255935
C69	C	0.430346	-0.199080	-0.287927
C70	C	0.388075	-0.146922	-0.236247
C71	C	0.398604	-0.152857	-0.152574
C72	C	0.451407	-0.210953	-0.120577
C73	C	0.493678	-0.263112	-0.172258
H74	H	0.422550	-0.194684	-0.349871
H75	H	0.348987	-0.103915	-0.259934
H76	H	0.367313	-0.114246	-0.114317
H77	H	0.459204	-0.215349	-0.058634
H78	H	0.532767	-0.306118	-0.148571
C79	C	0.964680	-0.456065	-0.935609
C80	C	0.881019	-0.450036	-0.925030
C81	C	0.829233	-0.502142	-0.967269
C82	C	0.861109	-0.560278	-1.020087
C83	C	0.944775	-0.566309	-1.030668
C84	C	0.996560	-0.514203	-0.988429
H85	H	0.857418	-0.406998	-0.885930
H86	H	0.767298	-0.497677	-0.959436
H87	H	0.822775	-0.598851	-1.051355
H88	H	0.968375	-0.609347	-1.069769
H89	H	1.058495	-0.518668	-0.996262
C90	C	1.162467	-0.257143	-0.935696
C91	C	1.220232	-0.289222	-0.988540
C92	C	1.272044	-0.237114	-1.030829
C93	C	1.266091	-0.152928	-1.020274
C94	C	1.208323	-0.120845	-0.967428
C95	C	1.156511	-0.172952	-0.925138
H96	H	1.224641	-0.351545	-0.996355
H97	H	1.314808	-0.260865	-1.069950
H98	H	1.304445	-0.114356	-1.051579
H99	H	1.203914	-0.058522	-0.959612
H100	H	1.113748	-0.149201	-0.886018
C101	C	1.162354	-0.785740	-0.453295
C102	C	1.109754	-0.735292	-0.496476
C103	C	1.131156	-0.707770	-0.573582
C104	C	1.205157	-0.730696	-0.607507
C105	C	1.257762	-0.781146	-0.564326
C106	C	1.236360	-0.808668	-0.487220
H107	H	1.054969	-0.718319	-0.471363
H108	H	1.092214	-0.670424	-0.605548
H109	H	1.221000	-0.710323	-0.664586
H110	H	1.312547	-0.798120	-0.589439
H111	H	1.275302	-0.846015	-0.455254
H112	H	0.633553	-0.442789	-0.439829
H113	H	0.633566	-0.270707	-0.269346
C114	C	1.095500	-0.926964	-0.218032
C115	C	1.161265	-0.975731	-0.239711
C116	C	1.214646	-1.003713	-0.180359
C117	C	1.202262	-0.982927	-0.099329
C118	C	1.136494	-0.934157	-0.077646
C119	C	1.083113	-0.906175	-0.136998
H120	H	1.170434	-0.991121	-0.299697
H121	H	1.263331	-1.039816	-0.196410
H122	H	1.241778	-1.003640	-0.055393
H123	H	1.127325	-0.918768	-0.017660
H124	H	1.034428	-0.870072	-0.120947
C125	C	0.928603	-0.786036	-0.393662
C126	C	0.915294	-0.737499	-0.325542
C127	C	0.837336	-0.709906	-0.307749
C128	C	0.772689	-0.730850	-0.358076
C129	C	0.785997	-0.779389	-0.426201
C130	C	0.863954	-0.806983	-0.443993
H131	H	0.963151	-0.721993	-0.288283
H132	H	0.827485	-0.673974	-0.257319
H133	H	0.714980	-0.710424	-0.344905
H134	H	0.738139	-0.794895	-0.463460
H135	H	0.873805	-0.842915	-0.494424
C136	C	1.024269	-0.785187	-0.489156
C137	C	1.097743	-0.805480	-0.525782
C138	C	1.115436	-0.777048	-0.603499
C139	C	1.059656	-0.728324	-0.644589
C140	C	0.986177	-0.708029	-0.607963
C141	C	0.968483	-0.736461	-0.530246
H142	H	1.139040	-0.841550	-0.495364
H143	H	1.169831	-0.792072	-0.630611
H144	H	1.072753	-0.707278	-0.702119
H145	H	0.944880	-0.671959	-0.638381
H146	H	0.914089	-0.721437	-0.503133
C147	C	0.965232	-0.926059	-0.254649
C148	C	0.904598	-0.869758	-0.236312
C149	C	0.827715	-0.896837	-0.213583
C150	C	0.811467	-0.980218	-0.209191
C151	C	0.872103	-1.036524	-0.227528
C152	C	0.948986	-1.009445	-0.250257
H153	H	0.916624	-0.808030	-0.239563
H154	H	0.782828	-0.855154	-0.200009
H155	H	0.754553	-1.000263	-0.192366
H156	H	0.860077	-1.098253	-0.224277
H157	H	0.993873	-1.051128	-0.263831
C158	C	1.024396	-0.927001	-0.489578
C159	C	1.090468	-0.978439	-0.502423
C160	C	1.108041	-1.006192	-0.580376
C161	C	1.059543	-0.982509	-0.645483
C162	C	0.993467	-0.931069	-0.632640
C163	C	0.975893	-0.903315	-0.554687
H164	H	1.126374	-0.995973	-0.454225
H165	H	1.156956	-1.044272	-0.589883
H166	H	1.072552	-1.003054	-0.703188
H167	H	0.957561	-0.913534	-0.680838
H168	H	0.926979	-0.865235	-0.545180
C169	C	1.201065	-0.784388	-0.324142
C170	C	1.180767	-0.731855	-0.260845
C171	C	1.240875	-0.703015	-0.208771
C172	C	1.321280	-0.726709	-0.219993
C173	C	1.341582	-0.779245	-0.283292
C174	C	1.281474	-0.808085	-0.335366
H175	H	1.121243	-0.714313	-0.252536
H176	H	1.225846	-0.664124	-0.161913
H177	H	1.365776	-0.705360	-0.181444
H178	H	1.401106	-0.796787	-0.291601
H179	H	1.296503	-0.846975	-0.382224
C180	C	0.929343	-0.928406	-0.394072
C181	C	0.866981	-0.873856	-0.376306
C182	C	0.789498	-0.903015	-0.358745
C183	C	0.774377	-0.986723	-0.358952
C184	C	0.836740	-1.041278	-0.376719
C185	C	0.914223	-1.012120	-0.394279
H186	H	0.878173	-0.811885	-0.376152
H187	H	0.743333	-0.862629	-0.345593
H188	H	0.717020	-1.008308	-0.345953
H189	H	0.825548	-1.103249	-0.376872
H190	H	0.960388	-1.052506	-0.407432
H191	H	1.082498	-0.792959	-0.233404
H192	H	0.986172	-0.791946	-0.259906
C193	C	1.167273	-0.928009	-0.449593
C194	C	1.238581	-0.973308	-0.455274
C195	C	1.264437	-1.002411	-0.530383
C196	C	1.218985	-0.986214	-0.599810
C197	C	1.147673	-0.940912	-0.594131
C198	C	1.121817	-0.911809	-0.519022
H199	H	1.272231	-0.985301	-0.403878
H200	H	1.317227	-1.035946	-0.534586
H201	H	1.238125	-1.007757	-0.655409
H202	H	1.114023	-0.928920	-0.645527
H203	H	1.069027	-0.878274	-0.514819
H204	H	1.183674	-0.919155	-0.332965
C205	C	1.162443	-0.257180	-0.774298
C206	C	1.214245	-0.205073	-0.816592
C207	C	1.266039	-0.152981	-0.774346
C208	C	1.266032	-0.152997	-0.689806
C209	C	1.214228	-0.205106	-0.647507
C210	C	1.162433	-0.257198	-0.689753
H211	H	1.214252	-0.205059	-0.879178
H212	H	1.304388	-0.114407	-0.805658
H213	H	1.304373	-0.114436	-0.658532
H214	H	1.214220	-0.205120	-0.584921
H215	H	1.124084	-0.295772	-0.658441
