data_functionalizedCrystal
_audit_creation_method	'MofGen! by Chris Wilmer'
_symmetry_space_group_name_H-M	'P1'
_symmetry_Int_Tables_number	1
_symmetry_cell_setting	triclinic
loop_
_symmetry_equiv_pos_as_xyz
  x,y,z
_cell_length_a	25.639242
_cell_length_b	25.639234
_cell_length_c	25.639240
_cell_angle_alpha	89.980112
_cell_angle_beta	90.027587
_cell_angle_gamma	89.970648
loop_
_atom_site_label
_atom_site_type_symbol
_atom_site_fract_x
_atom_site_fract_y
_atom_site_fract_z
Zn1	Zn	0.799286	-0.295760	-0.208245
Zn2	Zn	0.799209	-0.208332	-0.295673
Zn3	Zn	0.711852	-0.208325	-0.208247
Zn4	Zn	0.711818	-0.295722	-0.295644
O5	O	0.755541	-0.252035	-0.251952
O6	O	0.872441	-0.284182	-0.219854
O7	O	0.787603	-0.135166	-0.284089
O8	O	0.723497	-0.219936	-0.135081
O9	O	0.872384	-0.219949	-0.284087
O10	O	0.787734	-0.284175	-0.135080
O11	O	0.723421	-0.135160	-0.219857
O12	O	0.638682	-0.219899	-0.219829
O13	O	0.723439	-0.368893	-0.284038
O14	O	0.638657	-0.284110	-0.284040
O15	O	0.787702	-0.368921	-0.219826
O16	O	0.787570	-0.219912	-0.368835
O17	O	0.723364	-0.284117	-0.368813
C18	C	0.619699	-0.252000	-0.251932
C19	C	0.561585	-0.251997	-0.251935
C20	C	0.201217	-0.285438	-0.285443
C21	C	0.146613	-0.285446	-0.285446
O22	O	0.118373	-0.313849	-0.313909
N23	N	0.119302	-0.252069	-0.251967
C24	C	0.146598	-0.218685	-0.218478
O25	O	0.118354	-0.190297	-0.190002
C26	C	0.201201	-0.218680	-0.218473
C27	C	0.228510	-0.252056	-0.251958
C28	C	0.228526	-0.318811	-0.318925
C29	C	0.283126	-0.318802	-0.318922
C30	C	0.310418	-0.285420	-0.285437
C31	C	0.283110	-0.252047	-0.251955
C32	C	0.228497	-0.185300	-0.184982
C33	C	0.283104	-0.185297	-0.184980
C34	C	0.310412	-0.218673	-0.218465
C35	C	0.365003	-0.218655	-0.218468
N36	N	0.392314	-0.252032	-0.251947
C37	C	0.365022	-0.285415	-0.285432
C38	C	0.031928	-0.218700	-0.218492
C39	C	-0.022675	-0.218702	-0.218499
C40	C	-0.022656	-0.285463	-0.285466
C41	C	0.031947	-0.285458	-0.285461
C42	C	0.059239	-0.252077	-0.251971
C43	C	0.479687	-0.285393	-0.285424
C44	C	0.534292	-0.285379	-0.285420
C45	C	0.534269	-0.218620	-0.218451
C46	C	0.479668	-0.218631	-0.218457
C47	C	0.452379	-0.252022	-0.251945
O48	O	0.393278	-0.190268	-0.190018
O49	O	0.393273	-0.313803	-0.313899
C50	C	0.755575	-0.388408	-0.251928
C51	C	0.755590	-0.446522	-0.251918
C52	C	0.722185	-0.806888	-0.218410
C53	C	0.722188	-0.861492	-0.218401
O54	O	0.693760	-0.889731	-0.189969
N55	N	0.755607	-0.888805	-0.251836
C56	C	0.789022	-0.861510	-0.285287
O57	O	0.817447	-0.889756	-0.313726
C58	C	0.789016	-0.806907	-0.285299
C59	C	0.755598	-0.779597	-0.251857
C60	C	0.688770	-0.779578	-0.184972
C61	C	0.688768	-0.724977	-0.184981
C62	C	0.722181	-0.697687	-0.218428
C63	C	0.755596	-0.724997	-0.251866
C64	C	0.822427	-0.779613	-0.318752
C65	C	0.822418	-0.725006	-0.318761
C66	C	0.789001	-0.697697	-0.285319
C67	C	0.789007	-0.643105	-0.285322
N68	N	0.755588	-0.615793	-0.251887
C69	C	0.722175	-0.643083	-0.218440
C70	C	0.789031	-0.976181	-0.285260
C71	C	0.789039	-1.030783	-0.285246
C72	C	0.722205	-1.030761	-0.218361
C73	C	0.722199	-0.976158	-0.218373
C74	C	0.755612	-0.948868	-0.251825
C75	C	0.722174	-0.528418	-0.218461
C76	C	0.722177	-0.473813	-0.218471
C77	C	0.789009	-0.473839	-0.285358
C78	C	0.789008	-0.528440	-0.285346
C79	C	0.755587	-0.555728	-0.251896
O80	O	0.817419	-0.614832	-0.313741
O81	O	0.693750	-0.614831	-0.190011
C82	C	0.891914	-0.252071	-0.251973
C83	C	0.950028	-0.252086	-0.251982
C84	C	0.755469	-0.252023	-0.387795
C85	C	0.755486	-0.252035	-0.445909
C86	C	0.755537	-0.116192	-0.251938
C87	C	0.755624	-0.058079	-0.251801
C88	C	0.788987	-0.285518	-0.697050
C89	C	0.788971	-0.285514	-0.642446
O90	O	0.817395	-0.313965	-0.614165
N91	N	0.755543	-0.252042	-0.615183
C92	C	0.722132	-0.218567	-0.642527
O93	O	0.693698	-0.190096	-0.614323
C94	C	0.722151	-0.218569	-0.697130
C95	C	0.755578	-0.252048	-0.724390
C96	C	0.822411	-0.318994	-0.724311
C97	C	0.822426	-0.318998	-0.778911
C98	C	0.789017	-0.285527	-0.806251
C99	C	0.755592	-0.252052	-0.778991
C100	C	0.688743	-0.185092	-0.724473
C101	C	0.688765	-0.185097	-0.779080
C102	C	0.722192	-0.218575	-0.806340
C103	C	0.722198	-0.218586	-0.860931
N104	N	0.755626	-0.252058	-0.888195
C105	C	0.789035	-0.285529	-0.860855
C106	C	0.722096	-0.218566	-0.527856
C107	C	0.722074	-0.218566	-0.473254
C108	C	0.788914	-0.285513	-0.473177
C109	C	0.788933	-0.285514	-0.527780
C110	C	0.755524	-0.252038	-0.555119
C111	C	0.789064	-0.285536	-0.975520
C112	C	0.789074	-0.285539	-1.030125
C113	C	0.722237	-0.218591	-1.030197
C114	C	0.722224	-0.218590	-0.975597
C115	C	0.755642	-0.252064	-0.948259
O116	O	0.693790	-0.190148	-0.889247
O117	O	0.817470	-0.313991	-0.889065
C118	C	0.755628	-0.252059	-0.115579
C119	C	0.755665	-0.252069	-0.057465
H120	H	0.457433	-0.191453	-0.191192
C121	C	0.061946	-0.181970	-0.181657
C122	C	0.099448	-0.140877	-0.204253
C123	C	0.129464	-0.104149	-0.167418
C124	C	0.121978	-0.108514	-0.107987
C125	C	0.084474	-0.149609	-0.085388
C126	C	0.054458	-0.186337	-0.122223
H127	H	0.104992	-0.137644	-0.248249
H128	H	0.157227	-0.073728	-0.184147
H129	H	0.144197	-0.081325	-0.080720
H130	H	0.078930	-0.152841	-0.041391
H131	H	0.026695	-0.216758	-0.105493
H132	H	0.816118	-0.312766	-0.450907
C133	C	0.313124	-0.148576	-0.148139
C134	C	0.305641	-0.152951	-0.088709
C135	C	0.335661	-0.116230	-0.051870
C136	C	0.373164	-0.075135	-0.074462
C137	C	0.380648	-0.070759	-0.133895
C138	C	0.350629	-0.107480	-0.170734
H139	H	0.277878	-0.183373	-0.071983
H140	H	0.330121	-0.119470	-0.007874
H141	H	0.395386	-0.047952	-0.047192
H142	H	0.408412	-0.040336	-0.150622
H143	H	0.356169	-0.104240	-0.214731
H144	H	0.816225	-0.550677	-0.312571
H145	H	-0.044905	-0.191519	-0.191238
C146	C	0.685413	-0.443773	-0.181686
C147	C	0.648658	-0.473796	-0.144898
C148	C	0.611895	-0.443759	-0.108115
C149	C	0.611888	-0.383697	-0.108119
C150	C	0.648645	-0.353670	-0.144908
C151	C	0.685408	-0.383708	-0.181691
H152	H	0.648662	-0.518261	-0.144894
H153	H	0.584685	-0.465987	-0.080882
H154	H	0.584674	-0.361461	-0.080890
H155	H	0.648641	-0.309206	-0.144913
H156	H	0.712618	-0.361479	-0.208925
H157	H	0.816276	-0.312793	-0.953268
C158	C	0.685337	-0.181746	-0.557926
C159	C	0.689629	-0.122313	-0.550432
C160	C	0.652870	-0.085493	-0.580499
C161	C	0.611819	-0.108106	-0.618059
C162	C	0.607525	-0.167542	-0.625555
C163	C	0.644284	-0.204362	-0.595488
H164	H	0.720019	-0.105570	-0.522626
H165	H	0.656049	-0.041494	-0.574950
H166	H	0.584608	-0.080849	-0.640317
H167	H	0.577135	-0.184284	-0.653361
H168	H	0.641105	-0.248360	-0.601037
C169	C	0.859203	-0.355820	-0.808891
C170	C	0.918638	-0.351609	-0.801327
C171	C	0.955420	-0.388431	-0.831301
C172	C	0.932766	-0.429466	-0.868840
C173	C	0.873328	-0.433679	-0.876406
C174	C	0.836546	-0.396857	-0.846432
H175	H	0.935411	-0.321231	-0.773537
H176	H	0.999420	-0.385312	-0.825700
H177	H	0.959994	-0.456724	-0.891029
H178	H	0.856555	-0.464057	-0.904196
H179	H	0.792545	-0.399976	-0.852033
H180	H	-0.044887	-0.312647	-0.312730
H181	H	0.816257	-1.053014	-0.312472
H182	H	0.849619	-0.346249	-0.702055
C183	C	0.685447	-1.060789	-0.181571
C184	C	0.689747	-1.053301	-0.122134
C185	C	0.652992	-1.083330	-0.085347
C186	C	0.611936	-1.120847	-0.107996
C187	C	0.607634	-1.128337	-0.167435
C188	C	0.644389	-1.098308	-0.204223
H189	H	0.720141	-1.025526	-0.105366
H190	H	0.656177	-1.077785	-0.041345
H191	H	0.584728	-1.143076	-0.080763
H192	H	0.577240	-1.156111	-0.184204
H193	H	0.641204	-1.103852	-0.248225
C194	C	0.449673	-0.322119	-0.322264
C195	C	0.457160	-0.317742	-0.381693
C196	C	0.427146	-0.354465	-0.418535
C197	C	0.389647	-0.395565	-0.395948
C198	C	0.382158	-0.399943	-0.336515
C199	C	0.412172	-0.363220	-0.299673
H200	H	0.484921	-0.287316	-0.398417
H201	H	0.432690	-0.351223	-0.462532
H202	H	0.367429	-0.422749	-0.423220
H203	H	0.354397	-0.430369	-0.319791
H204	H	0.406628	-0.366462	-0.255676
H205	H	0.849630	-0.702790	-0.345999
H206	H	0.816149	-0.312778	-0.549972
C207	C	0.564330	-0.322096	-0.322254
C208	C	0.556790	-0.317730	-0.381686
C209	C	0.586826	-0.354447	-0.418518
C210	C	0.624401	-0.395529	-0.395918
C211	C	0.631943	-0.399897	-0.336483
C212	C	0.601907	-0.363180	-0.299651
H213	H	0.528973	-0.287317	-0.398418
H214	H	0.581242	-0.351213	-0.462515
H215	H	0.646635	-0.422709	-0.423183
H216	H	0.659760	-0.430310	-0.319751
H217	H	0.607491	-0.366413	-0.255654
H218	H	0.849639	-0.801840	-0.345983
H219	H	0.694959	-0.550630	-0.191222
C220	C	0.685451	-0.181771	-0.945604
C221	C	0.708118	-0.140743	-0.908067
C222	C	0.671347	-0.103921	-0.878078
C223	C	0.611909	-0.108128	-0.885626
C224	C	0.589239	-0.149158	-0.923165
C225	C	0.626010	-0.185979	-0.953154
H226	H	0.752120	-0.137627	-0.902477
H227	H	0.688129	-0.073548	-0.850289
H228	H	0.584689	-0.080870	-0.863426
H229	H	0.545237	-0.152273	-0.928755
H230	H	0.609227	-0.216353	-0.980943
C231	C	0.198511	-0.355534	-0.355764
C232	C	0.206004	-0.351156	-0.415193
C233	C	0.175994	-0.387878	-0.452039
C234	C	0.138491	-0.428978	-0.429455
C235	C	0.130996	-0.433357	-0.370024
C236	C	0.161006	-0.396635	-0.333178
H237	H	0.233768	-0.320731	-0.431913
H238	H	0.181543	-0.384636	-0.496034
H239	H	0.116276	-0.456161	-0.456731
H240	H	0.103233	-0.463782	-0.353303
H241	H	0.155458	-0.399877	-0.289182
H242	H	0.556500	-0.191439	-0.191191
H243	H	0.305356	-0.345981	-0.346188
H244	H	0.816245	-0.953965	-0.312498
C245	C	0.652003	-0.694943	-0.148198
C246	C	0.674673	-0.657423	-0.107153
C247	C	0.637904	-0.627394	-0.070369
C248	C	0.578466	-0.634884	-0.074630
C249	C	0.555794	-0.672405	-0.115677
C250	C	0.592562	-0.702435	-0.152461
H251	H	0.718675	-0.651877	-0.103997
H252	H	0.654689	-0.599618	-0.039983
H253	H	0.551248	-0.612655	-0.047400
H254	H	0.511791	-0.677952	-0.118832
H255	H	0.575778	-0.730211	-0.182847
H256	H	0.661525	-0.157831	-0.702285
H257	H	0.816214	-0.451610	-0.312588
H258	H	0.054178	-0.312636	-0.312727
H259	H	0.661559	-0.801792	-0.157736
H260	H	0.694988	-0.953926	-0.191142
C261	C	0.825847	-0.322366	-1.060111
C262	C	0.885285	-0.318160	-1.052557
C263	C	0.922057	-0.354985	-1.082540
C264	C	0.899393	-0.396016	-1.120076
C265	C	0.839952	-0.400224	-1.127631
C266	C	0.803180	-0.363399	-1.097648
H267	H	0.902065	-0.287785	-1.024769
H268	H	0.966059	-0.351870	-1.076947
H269	H	0.926614	-0.423276	-1.142271
H270	H	0.823172	-0.430599	-1.155419
H271	H	0.759178	-0.366514	-1.103242
C272	C	0.685300	-0.181744	-0.443271
C273	C	0.648552	-0.144929	-0.473352
C274	C	0.611779	-0.108103	-0.443371
C275	C	0.611754	-0.108091	-0.383310
C276	C	0.648504	-0.144907	-0.353225
C277	C	0.685277	-0.181734	-0.383206
H278	H	0.648570	-0.144936	-0.517816
H279	H	0.584575	-0.080849	-0.465642
H280	H	0.584533	-0.080830	-0.361116
H281	H	0.648486	-0.144900	-0.308761
H282	H	0.712481	-0.208987	-0.360935
H283	H	0.206272	-0.158120	-0.157717
H284	H	0.661560	-0.157835	-0.801336
H285	H	0.695034	-0.191341	-1.052467
