data_functionalizedCrystal
_audit_creation_method	'MofGen! by Chris Wilmer'
_symmetry_space_group_name_H-M	'P1'
_symmetry_Int_Tables_number	1
_symmetry_cell_setting	triclinic
loop_
_symmetry_equiv_pos_as_xyz
  x,y,z
_cell_length_a	14.421503
_cell_length_b	14.044220
_cell_length_c	14.044220
_cell_angle_alpha	86.811122
_cell_angle_beta	89.996304
_cell_angle_gamma	89.996554
loop_
_atom_site_label
_atom_site_type_symbol
_atom_site_fract_x
_atom_site_fract_y
_atom_site_fract_z
O1	O	0.077017	-1.277173	0.230155
O2	O	0.077040	-1.000501	0.221849
O3	O	0.077020	-1.134684	0.087666
O4	O	0.077037	-1.142990	0.364338
O5	O	-0.077204	-1.134662	0.087686
O6	O	-0.077183	-1.000479	0.221869
O7	O	-0.077207	-1.277150	0.230175
Cu8	Cu	-0.091277	-1.138812	0.226024
Cu9	Cu	0.091110	-1.138839	0.226000
O10	O	-0.077186	-1.142967	0.364357
C11	C	-0.000069	-0.964868	0.218223
C12	C	-0.000060	-0.858725	0.207379
N13	N	-0.219558	-1.138801	0.226040
C14	C	-0.000092	-1.131037	0.052054
C15	C	-0.000092	-1.120193	-0.054088
C16	C	-0.469202	-1.076740	0.288055
C17	C	-0.531011	-1.164574	0.313879
C18	C	-0.408720	-1.138822	0.226019
C19	C	-0.531005	-1.051012	0.200219
C20	C	-0.591441	-1.138835	0.226001
C21	C	-0.469167	-1.226703	0.251890
C22	C	-0.469156	-1.113082	0.138188
C23	C	-0.530937	-1.200975	0.163981
C24	C	-0.303458	-1.138813	0.226032
C25	C	-0.696700	-1.138854	0.225988
N26	N	0.219391	-1.138858	0.225977
C27	C	-0.000096	-1.312783	0.233800
C28	C	-0.000098	-1.418926	0.244645
C29	C	-0.000080	-0.664388	0.187553
C30	C	-0.000079	-0.613258	0.264467
C31	C	-0.000090	-0.505122	0.253435
C32	C	-0.000069	-0.772534	0.198583
C33	C	-0.000077	-1.100366	-0.248426
C34	C	-0.000081	-1.177281	-0.299556
C35	C	-0.000073	-1.166249	-0.407692
C36	C	-0.000086	-1.111397	-0.140280
C37	C	-0.000072	-1.146614	0.399969
C38	C	-0.000066	-1.157459	0.506112
H39	H	-0.442097	-1.024301	0.340567
O40	O	-0.563121	-1.263548	0.101274
C41	C	-0.616932	-1.214247	0.030692
H42	H	-0.596040	-1.135845	0.025618
H43	H	-0.604810	-1.246431	-0.041014
H44	H	-0.693457	-1.220598	0.050395
H45	H	-0.000070	-0.650697	0.338600
H46	H	-0.000069	-1.026239	-0.285863
H47	H	-0.558180	-1.186357	0.388148
H48	H	-0.441965	-1.091273	0.063940
H49	H	-0.558170	-0.976748	0.178407
H50	H	-0.442119	-1.300991	0.273791
O51	O	-0.000042	-0.619581	0.099186
C52	C	-0.000073	-0.520023	0.107707
H53	H	0.029121	-0.503063	0.180269
H54	H	0.044702	-0.484597	0.048956
H55	H	-0.074063	-0.491904	0.100786
H56	H	-0.000025	-1.251414	-0.262117
