data_functionalizedCrystal
_audit_creation_method	'MofGen! by Chris Wilmer'
_symmetry_space_group_name_H-M	'P1'
_symmetry_Int_Tables_number	1
_symmetry_cell_setting	triclinic
loop_
_symmetry_equiv_pos_as_xyz
  x,y,z
_cell_length_a	17.639617
_cell_length_b	19.121063
_cell_length_c	17.639306
_cell_angle_alpha	104.052388
_cell_angle_beta	65.670249
_cell_angle_gamma	104.083010
loop_
_atom_site_label
_atom_site_type_symbol
_atom_site_fract_x
_atom_site_fract_y
_atom_site_fract_z
Zn1	Zn	1.347478	-0.168671	-0.727857
Zn2	Zn	1.847478	0.331329	-0.227857
Zn3	Zn	1.315563	-0.267801	-0.593974
Zn4	Zn	1.815563	0.232199	-0.093974
Zn5	Zn	1.181802	-0.168644	-0.562148
Zn6	Zn	1.681802	0.331356	-0.062148
Zn7	Zn	1.204027	-0.307788	-0.705432
Zn8	Zn	1.704027	0.192212	-0.205432
O9	O	1.262218	-0.228226	-0.647353
O10	O	1.762218	0.271774	-0.147353
O11	O	1.459259	-0.165097	-0.732801
O12	O	1.959259	0.334903	-0.232801
O13	O	1.275162	-0.237902	-0.473757
O14	O	1.775162	0.262098	0.026243
O15	O	1.207834	-0.068929	-0.580196
O16	O	1.707834	0.431071	-0.080196
O17	O	1.435811	-0.237928	-0.634437
O18	O	1.935811	0.262072	-0.134437
O19	O	1.329556	-0.068948	-0.701941
O20	O	1.829556	0.431052	-0.201941
O21	O	1.176888	-0.165051	-0.450375
O22	O	1.676888	0.334949	0.049625
O23	O	1.068736	-0.203825	-0.558451
O24	O	1.568736	0.296175	-0.058451
O25	O	1.245714	-0.306080	-0.824402
O26	O	1.745714	0.193920	-0.324402
O27	O	1.085065	-0.306054	-0.663721
O28	O	1.585065	0.193946	-0.163721
O29	O	1.351107	-0.203871	-0.840877
O30	O	1.851107	0.296129	-0.340877
O31	O	1.296713	-0.372824	-0.612693
O32	O	1.796713	0.127176	-0.112693
O33	O	1.214768	-0.402202	-0.694581
O34	O	1.714768	0.097798	-0.194581
C35	C	1.046820	-0.259276	-0.605200
C36	C	1.546820	0.240724	-0.105200
C37	C	0.954674	-0.272580	-0.587187
C38	C	1.454674	0.227420	-0.087187
C39	C	0.712689	-0.127175	-0.784398
C40	C	1.212689	0.372825	-0.284398
C41	C	0.626101	-0.139691	-0.767456
C42	C	1.126101	0.360309	-0.267456
C43	C	0.601683	-0.215357	-0.664872
C44	C	1.101683	0.284643	-0.164872
C45	C	0.688272	-0.202850	-0.681808
C46	C	1.188272	0.297150	-0.181808
C47	C	0.743768	-0.158758	-0.741572
C48	C	1.243768	0.341242	-0.241572
C49	C	0.719351	-0.234432	-0.638981
C50	C	1.219351	0.265568	-0.138981
C51	C	0.805931	-0.221923	-0.655913
C52	C	1.305931	0.278077	-0.155913
C53	C	0.861433	-0.177832	-0.715672
C54	C	1.361433	0.322168	-0.215672
C55	C	0.830349	-0.146249	-0.758503
C56	C	1.330349	0.353751	-0.258503
C57	C	0.663852	-0.278520	-0.579214
C58	C	1.163852	0.221480	-0.079214
C59	C	0.694931	-0.310102	-0.536387
C60	C	1.194931	0.189898	-0.036387
C61	C	0.781513	-0.297598	-0.553323
C62	C	1.281513	0.202402	-0.053323
C63	C	0.837015	-0.253506	-0.613082
C64	C	1.337015	0.246494	-0.113082
C65	C	0.812597	-0.329180	-0.510492
C66	C	1.312597	0.170820	-0.010492
C67	C	0.899178	-0.316671	-0.527424
C68	C	1.399178	0.183329	-0.027424
C69	C	0.923595	-0.240997	-0.630014
C70	C	1.423595	0.259003	-0.130014
C71	C	1.254715	-0.413368	-0.654680
C72	C	1.754715	0.086632	-0.154680
C73	C	1.251586	-0.492566	-0.657857
C74	C	1.751586	0.007434	-0.157857
C75	C	1.292831	-0.514455	-0.616767
C76	C	1.792831	-0.014455	-0.116767
C77	C	1.289894	-0.588871	-0.619760
C78	C	1.789894	-0.088871	-0.119760
C79	C	1.245708	-0.641397	-0.663840
C80	C	1.745708	-0.141397	-0.163840
C81	C	1.204463	-0.619504	-0.704935
C82	C	1.704463	-0.119504	-0.204935
C83	C	1.207405	-0.545089	-0.701946
C84	C	1.707405	-0.045089	-0.201946
C85	C	1.234693	-0.866847	-0.675001
C86	C	1.734693	-0.366847	-0.175001
C87	C	1.231752	-0.941266	-0.677985
C88	C	1.731752	-0.441266	-0.177985
C89	C	1.317186	-0.910627	-0.592811
C90	C	1.817186	-0.410627	-0.092811
C91	C	1.320119	-0.836213	-0.589821
C92	C	1.820119	-0.336213	-0.089821
C93	C	1.278878	-0.814326	-0.630920
C94	C	1.778878	-0.314326	-0.130920
C95	C	1.242703	-0.717462	-0.666899
C96	C	1.742703	-0.217462	-0.166899
C97	C	1.281888	-0.738262	-0.627866
C98	C	1.781888	-0.238262	-0.127866
C99	C	1.478457	-0.197055	-0.689670
C100	C	1.978457	0.302945	-0.189670
C101	C	1.570605	-0.183772	-0.707704
C102	C	2.070605	0.316228	-0.207704
C103	C	1.304450	-0.259439	-0.863557
C104	C	1.804450	0.240561	-0.363557
C105	C	1.322446	-0.272740	-0.955690
C106	C	1.822446	0.227260	-0.455690
C107	C	1.269776	-0.042360	-0.640020
C108	C	1.769776	0.457640	-0.140020
C109	C	1.272997	0.036845	-0.636895
C110	C	1.772997	0.536845	-0.136895
C111	C	1.125831	-0.126867	-1.197866
C112	C	1.625831	0.373133	-0.697866
C113	C	1.142760	-0.139377	-1.284444
C114	C	1.642760	0.360623	-0.784444
C115	C	1.245082	-0.215229	-1.308769
C116	C	1.745082	0.284771	-0.808769
C117	C	1.228164	-0.202721	-1.222192
C118	C	1.728164	0.297279	-0.722192
C119	C	1.168538	-0.158540	-1.166747
C120	C	1.668538	0.341460	-0.666747
C121	C	1.270871	-0.234395	-1.191073
C122	C	1.770871	0.265605	-0.691073
C123	C	1.253952	-0.221892	-1.104504
C124	C	1.753952	0.278108	-0.604504
C125	C	1.194326	-0.177715	-1.049053
C126	C	1.694326	0.322285	-0.549053
C127	C	1.151618	-0.146037	-1.080178
C128	C	1.651618	0.353963	-0.580178
C129	C	1.330493	-0.278580	-1.246519
C130	C	1.830493	0.221420	-0.746519
C131	C	1.373200	-0.310254	-1.215400
C132	C	1.873200	0.189746	-0.715400
C133	C	1.356285	-0.297746	-1.128830
C134	C	1.856285	0.202254	-0.628830
C135	C	1.296659	-0.253569	-1.073379
C136	C	1.796659	0.246431	-0.573379
C137	C	1.398993	-0.329424	-1.097705
C138	C	1.898993	0.170576	-0.597705
C139	C	1.382073	-0.316921	-1.011135
C140	C	1.882073	0.183079	-0.511135
C141	C	1.279740	-0.241066	-0.986809
C142	C	1.779740	0.258934	-0.486809
C143	C	1.220200	-0.197076	-0.431997
C144	C	1.720200	0.302924	0.068003
C145	C	1.202372	-0.183551	-0.339887
C146	C	1.702372	0.316449	0.160113
H147	H	0.649734	-0.345999	-0.487726
H148	H	1.149734	0.154001	0.012274
C149	C	0.773745	-0.078680	-0.850141
C150	C	1.273745	0.421320	-0.350141
H151	H	0.829760	-0.075758	-0.854092
H152	H	1.329760	0.424242	-0.354092
H153	H	0.759133	-0.031098	-0.833434
H154	H	1.259133	0.468902	-0.333434
H155	H	0.770019	-0.099276	-0.903461
H156	H	1.270019	0.400724	-0.403461
H157	H	1.206725	-0.760237	-0.702787
H158	H	1.706725	-0.260237	-0.202787
H159	H	0.968785	-0.205096	-0.678682
H160	H	1.468785	0.294904	-0.178682
H161	H	1.323479	-0.606688	-0.586300
H162	H	1.823479	-0.106688	-0.086300
C163	C	1.341428	-0.456680	-0.568273
C164	C	1.841428	0.043320	-0.068273
H165	H	1.337267	-0.409225	-0.572368
H166	H	1.837267	0.090775	-0.072368
H167	H	1.399020	-0.462555	-0.591831
H168	H	1.899020	0.037445	-0.091831
H169	H	1.317966	-0.462611	-0.510692
H170	H	1.817966	0.037389	-0.010692
H171	H	1.416861	-0.342702	-0.985800
H172	H	1.916861	0.157298	-0.485800
H173	H	0.556486	-0.251254	-0.616210
H174	H	1.056486	0.248746	-0.116210
C175	C	1.214158	-0.192463	-0.925812
C176	C	1.714158	0.307537	-0.425812
H177	H	1.210204	-0.189551	-0.869799
H178	H	1.710204	0.310449	-0.369799
H179	H	1.160802	-0.212964	-0.929511
H180	H	1.660802	0.287036	-0.429511
H181	H	1.231021	-0.144880	-0.940488
H182	H	1.731021	0.355120	-0.440488
C183	C	1.086020	-0.097448	-1.019181
C184	C	1.586020	0.402552	-0.519181
H185	H	1.063001	-0.080378	-1.050110
H186	H	1.563001	0.419622	-0.550110
H187	H	1.112385	-0.056950	-0.990381
H188	H	1.612385	0.443050	-0.490381
H189	H	1.042191	-0.125053	-0.979428
H190	H	1.542191	0.374947	-0.479428
H191	H	1.356099	-0.793446	-0.553928
H192	H	1.856099	-0.293446	-0.053928
C193	C	0.751546	-0.377675	-0.444755
C194	C	1.251546	0.122325	0.055245
H195	H	0.695531	-0.380603	-0.440806
H196	H	1.195531	0.119397	0.059194
H197	H	0.755278	-0.357089	-0.391439
H198	H	1.255278	0.142911	0.108561
H199	H	0.766158	-0.425261	-0.461475
H200	H	1.266158	0.074739	0.038525
C201	C	0.956671	-0.164068	-0.734302
C202	C	1.456671	0.335932	-0.234302
H203	H	0.985268	-0.133281	-0.776023
H204	H	1.485268	0.366719	-0.276023
H205	H	0.977195	-0.209294	-0.754203
H206	H	1.477195	0.290706	-0.254203
H207	H	0.966304	-0.141121	-0.684169
H208	H	1.466304	0.358879	-0.184169
C209	C	1.155857	-0.677280	-0.753419
C210	C	1.655857	-0.177280	-0.253419
H211	H	1.160003	-0.724734	-0.749307
H212	H	1.660003	-0.224734	-0.249307
H213	H	1.179306	-0.671357	-0.810998
H214	H	1.679306	-0.171357	-0.310998
H215	H	1.098262	-0.671399	-0.729848
H216	H	1.598262	-0.171399	-0.229848
H217	H	1.180545	-0.167541	-0.978562
H218	H	1.680545	0.332459	-0.478562
C219	C	1.464575	-0.378022	-1.158699
C220	C	1.964575	0.121978	-0.658699
H221	H	1.468536	-0.380930	-1.214714
H222	H	1.968536	0.119070	-0.714714
H223	H	1.447724	-0.425599	-1.144020
H224	H	1.947724	0.074401	-0.644020
H225	H	1.517933	-0.357507	-1.155001
H226	H	2.017933	0.142493	-0.655001
H227	H	1.350764	-0.928456	-0.559352
H228	H	1.850764	-0.428456	-0.059352
H229	H	0.600801	-0.113966	-0.802331
H230	H	1.100801	0.386034	-0.302331
C231	C	0.933370	-0.351420	-0.480326
C232	C	1.433370	0.148580	0.019674
H233	H	0.887920	-0.379479	-0.442317
H234	H	1.387920	0.120521	0.057683
H235	H	0.961198	-0.314034	-0.449783
H236	H	1.461198	0.185966	0.050217
H237	H	0.972078	-0.382200	-0.519828
H238	H	1.472078	0.117800	-0.019828
H239	H	0.593350	-0.288685	-0.565411
H240	H	1.093350	0.211315	-0.065411
H241	H	1.173820	-0.527270	-0.735407
H242	H	1.673820	-0.027270	-0.235407
H243	H	1.293627	-0.251203	-1.353923
H244	H	1.793627	0.248797	-0.853923
C245	C	1.330491	-0.680490	-0.579380
C246	C	1.830491	-0.180490	-0.079380
H247	H	1.354639	-0.704180	-0.555337
H248	H	1.854639	-0.204180	-0.055337
H249	H	1.292890	-0.650848	-0.535878
H250	H	1.792890	-0.150848	-0.035878
H251	H	1.373941	-0.650803	-0.617022
H252	H	1.873941	-0.150803	-0.117022
H253	H	0.875539	-0.110348	-0.807172
H254	H	1.375539	0.389652	-0.307172
H255	H	1.195783	-0.984033	-0.713896
H256	H	1.695783	-0.484033	-0.213896
H257	H	1.077286	-0.090882	-1.152720
H258	H	1.577286	0.409118	-0.652720
C259	C	1.189312	-0.842781	-0.720190
C260	C	1.689312	-0.342781	-0.220190
H261	H	1.162565	-0.884722	-0.746858
H262	H	1.662565	-0.384722	-0.246858
H263	H	1.229195	-0.814363	-0.761369
H264	H	1.729195	-0.314363	-0.261369
H265	H	1.148158	-0.814415	-0.680212
H266	H	1.648158	-0.314415	-0.180212
C267	C	1.349217	-0.292230	-1.341762
C268	C	1.849217	0.207770	-0.841762
H269	H	1.390869	-0.323054	-1.370330
H270	H	1.890869	0.176946	-0.870330
H271	H	1.369266	-0.246961	-1.362237
H272	H	1.869266	0.253039	-0.862237
H273	H	1.299096	-0.315080	-1.351482
H274	H	1.799096	0.184920	-0.851482
H275	H	1.107982	-0.113578	-1.309776
H276	H	1.607982	0.386422	-0.809776
C277	C	1.438788	-0.358846	-1.276393
C278	C	1.938788	0.141154	-0.776393
H279	H	1.442753	-0.361753	-1.332409
H280	H	1.942753	0.138247	-0.832409
H281	H	1.421943	-0.406424	-1.261718
H282	H	1.921943	0.093576	-0.761718
H283	H	1.492143	-0.338327	-1.272690
H284	H	1.992143	0.161673	-0.772690
