data_functionalizedCrystal
_audit_creation_method	'MofGen! by Chris Wilmer'
_symmetry_space_group_name_H-M	'P1'
_symmetry_Int_Tables_number	1
_symmetry_cell_setting	triclinic
loop_
_symmetry_equiv_pos_as_xyz
  x,y,z
_cell_length_a	14.519709
_cell_length_b	17.699083
_cell_length_c	13.596369
_cell_angle_alpha	89.998283
_cell_angle_beta	90.012081
_cell_angle_gamma	96.518421
loop_
_atom_site_label
_atom_site_type_symbol
_atom_site_fract_x
_atom_site_fract_y
_atom_site_fract_z
O1	O	-1.223431	0.099215	0.081649
O2	O	-0.890098	0.432548	0.414982
O3	O	-0.556764	0.765882	0.748315
O4	O	-0.954904	0.110899	0.081677
O5	O	-0.621571	0.444232	0.415011
O6	O	-0.288238	0.777565	0.748344
O7	O	-1.096754	-0.005111	0.081672
O8	O	-0.763421	0.328223	0.415005
O9	O	-0.430088	0.661556	0.748339
O10	O	-1.081581	0.215224	0.081654
O11	O	-0.748248	0.548558	0.414987
O12	O	-0.414915	0.881891	0.748321
O13	O	-1.096772	-0.005117	-0.081911
O14	O	-0.763438	0.328216	0.251422
O15	O	-0.430105	0.661550	0.584756
O16	O	-0.954922	0.110892	-0.081906
O17	O	-0.621589	0.444226	0.251428
O18	O	-0.288255	0.777559	0.584761
O19	O	-1.223448	0.099209	-0.081934
O20	O	-0.890115	0.432542	0.251399
O21	O	-0.556782	0.765875	0.584733
Zn22	Zn	-1.089188	0.105049	-0.107892
Zn23	Zn	-0.755855	0.438383	0.225441
Zn24	Zn	-0.422521	0.771716	0.558774
Zn25	Zn	-1.089165	0.105058	0.107635
Zn26	Zn	-0.755832	0.438391	0.440969
Zn27	Zn	-0.422498	0.771724	0.774302
O28	O	-1.081599	0.215218	-0.081929
O29	O	-0.748265	0.548551	0.251405
O30	O	-0.414932	0.881885	0.584738
C31	C	-0.920556	0.110351	-0.000110
C32	C	-0.587222	0.443684	0.333223
C33	C	-0.253889	0.777018	0.666556
C34	C	-0.818181	0.108719	-0.000099
C35	C	-0.484848	0.442053	0.333234
C36	C	-0.151515	0.775386	0.666568
C37	C	-1.257797	0.099756	-0.000144
C38	C	-0.924464	0.433090	0.333189
C39	C	-0.591131	0.766423	0.666522
C40	C	-1.360171	0.101388	-0.000149
C41	C	-1.026838	0.434721	0.333184
C42	C	-0.693505	0.768055	0.666517
C43	C	-1.096219	-0.033312	-0.000115
C44	C	-0.762886	0.300021	0.333218
C45	C	-0.429553	0.633354	0.666552
C46	C	-1.094588	-0.117335	-0.000101
C47	C	-0.761255	0.215998	0.333232
C48	C	-0.427922	0.549332	0.666565
C49	C	-0.443311	0.102712	-0.000143
C50	C	-0.109978	0.436046	0.333190
C51	C	0.223356	0.769379	0.666524
C52	C	-0.547612	0.104380	-0.000130
C53	C	-0.214279	0.437714	0.333203
C54	C	0.119055	0.771047	0.666536
C55	C	-0.630743	0.105716	-0.000120
C56	C	-0.297410	0.439049	0.333213
C57	C	0.035924	0.772382	0.666547
C58	C	-0.735050	0.107384	-0.000109
C59	C	-0.401717	0.440717	0.333224
C60	C	-0.068384	0.774051	0.666557
C61	C	-1.082134	0.243420	-0.000140
C62	C	-0.748800	0.576753	0.333194
C63	C	-0.415467	0.910086	0.666527
C64	C	-1.083765	0.327442	-0.000147
C65	C	-0.750431	0.660776	0.333186
C66	C	-0.417098	0.994109	0.666520
N67	N	-1.089210	0.105043	-0.254984
N68	N	-0.755877	0.438377	0.078349
N69	N	-0.422544	0.771710	0.411683
C70	C	-1.000502	0.375825	-0.000138
C71	C	-0.667168	0.709158	0.333195
C72	C	-0.333835	1.042492	0.666528
C73	C	-1.002040	0.454773	-0.000127
C74	C	-0.668707	0.788106	0.333206
C75	C	-0.335373	1.121439	0.666540
C76	C	-1.086842	0.485336	-0.000131
C77	C	-0.753508	0.818670	0.333202
C78	C	-0.420175	1.152003	0.666535
C79	C	-1.170111	0.436948	-0.000137
C80	C	-0.836778	0.770281	0.333196
C81	C	-0.503444	1.103614	0.666529
C82	C	-1.168572	0.358001	-0.000142
C83	C	-0.835239	0.691335	0.333192
C84	C	-0.501905	1.024668	0.666525
C85	C	-1.176319	0.755328	-0.000118
C86	C	-0.842986	1.088662	0.333215
C87	C	-0.509653	1.421995	0.666548
C88	C	-1.177852	0.834281	-0.000117
C89	C	-0.844519	1.167614	0.333216
C90	C	-0.511185	1.500947	0.666550
C91	C	-1.009787	0.852100	-0.000104
C92	C	-0.676454	1.185433	0.333230
C93	C	-0.343121	1.518766	0.666563
C94	C	-1.008248	0.773154	-0.000108
C95	C	-0.674915	1.106487	0.333225
C96	C	-0.341582	1.439820	0.666559
C97	C	-1.091517	0.724772	-0.000109
C98	C	-0.758184	1.058105	0.333225
C99	C	-0.424850	1.391438	0.666558
C100	C	-1.089848	0.639168	-0.000119
C101	C	-0.756515	0.972501	0.333214
C102	C	-0.423182	1.305834	0.666547
C103	C	-1.088511	0.570939	-0.000128
C104	C	-0.755178	0.904272	0.333205
C105	C	-0.421845	1.237605	0.666539
N106	N	-1.089150	0.105058	0.254727
N107	N	-0.755816	0.438391	0.588060
N108	N	-0.422483	0.771725	0.921394
C109	C	-1.089153	0.105059	0.343725
C110	C	-0.755820	0.438392	0.677058
C111	C	-0.422486	0.771725	1.010392
C112	C	-1.089166	0.105057	0.455376
C113	C	-0.755833	0.438390	0.788710
C114	C	-0.422500	0.771724	1.122043
C115	C	-1.089182	0.105052	0.544367
C116	C	-0.755849	0.438385	0.877700
C117	C	-0.422516	0.771718	1.211034
C118	C	-1.089195	0.105049	0.656025
C119	C	-0.755861	0.438382	0.989359
C120	C	-0.422528	0.771715	1.322692
H121	H	-0.931446	0.350947	-0.000146
H122	H	-0.598113	0.684280	0.333187
H123	H	-0.264780	1.017614	0.666520
H124	H	-1.239158	0.461838	-0.000143
H125	H	-0.905825	0.795172	0.333191
H126	H	-0.572492	1.128505	0.666524
H127	H	-0.939194	0.748274	-0.000110
H128	H	-0.605861	1.081607	0.333224
H129	H	-0.272527	1.414940	0.666557
H130	H	-0.934239	0.494163	-0.000117
H131	H	-0.600905	0.827497	0.333217
H132	H	-0.267572	1.160830	0.666550
H133	H	-0.941986	0.891502	-0.000100
H134	H	-0.608653	1.224836	0.333234
H135	H	-0.275319	1.558169	0.666567
H136	H	-1.246912	0.859162	-0.000119
H137	H	-0.913579	1.192495	0.333214
H138	H	-0.580245	1.525829	0.666547
H139	H	-1.244122	0.715945	-0.000125
H140	H	-0.910789	1.049278	0.333208
H141	H	-0.577456	1.382611	0.666542
H142	H	-1.236373	0.318608	-0.000145
H143	H	-0.903040	0.651942	0.333189
H144	H	-0.569707	0.985275	0.666522
