data_functionalizedCrystal
_audit_creation_method	'MofGen! by Chris Wilmer'
_symmetry_space_group_name_H-M	'P1'
_symmetry_Int_Tables_number	1
_symmetry_cell_setting	triclinic
loop_
_symmetry_equiv_pos_as_xyz
  x,y,z
_cell_length_a	16.992695
_cell_length_b	16.992694
_cell_length_c	16.053934
_cell_angle_alpha	87.253259
_cell_angle_beta	92.750093
_cell_angle_gamma	90.668223
loop_
_atom_site_label
_atom_site_type_symbol
_atom_site_fract_x
_atom_site_fract_y
_atom_site_fract_z
O1	O	0.170017	1.047750	0.069325
O2	O	0.168187	0.819348	0.069349
O3	O	0.054902	0.932634	0.069331
O4	O	0.283302	0.934464	0.069344
O5	O	0.048687	0.938834	-0.069527
O6	O	0.161972	0.825549	-0.069508
O7	O	0.163802	1.053950	-0.069533
Zn8	Zn	0.161901	0.940734	-0.091567
Zn9	Zn	0.170089	0.932564	0.091384
O10	O	0.277088	0.940665	-0.069514
C11	C	0.162724	0.793088	-0.000076
C12	C	0.155696	0.705603	-0.000067
C13	C	0.223514	0.659612	-0.000064
C14	C	0.216904	0.577412	-0.000076
C15	C	0.142476	0.541204	-0.000085
C16	C	0.074653	0.587202	-0.000091
C17	C	0.081263	0.669400	-0.000085
C18	C	0.115081	0.295891	-0.000109
C19	C	0.108476	0.213686	-0.000112
C20	C	0.250728	0.203902	-0.000099
C21	C	0.257332	0.286103	-0.000088
C22	C	0.189508	0.332093	-0.000098
N23	N	0.135719	0.457182	-0.000094
N24	N	0.196266	0.416114	-0.000094
C25	C	0.022434	0.933378	-0.000098
C26	C	-0.065050	0.926349	-0.000097
C27	C	-0.111042	0.994168	-0.000105
C28	C	-0.193242	0.987558	-0.000096
C29	C	-0.229450	0.913130	-0.000086
C30	C	-0.183452	0.845307	-0.000075
C31	C	-0.101253	0.851917	-0.000078
C32	C	-0.474763	0.885735	-0.000071
C33	C	-0.556969	0.879131	-0.000071
C34	C	-0.566753	1.021383	-0.000091
C35	C	-0.484552	1.027986	-0.000099
C36	C	-0.438561	0.960163	-0.000083
N37	N	-0.313472	0.906373	-0.000079
N38	N	-0.354541	0.966921	-0.000084
C39	C	0.309555	0.939920	-0.000084
C40	C	0.397040	0.946949	-0.000079
C41	C	0.169265	1.080210	-0.000105
C42	C	0.176294	1.167695	-0.000109
N43	N	0.156312	0.946316	-0.216426
C44	C	0.204496	0.898101	-0.260132
C45	C	0.200584	0.902029	-0.347538
C46	C	0.148485	0.954166	-0.391236
C47	C	0.100300	1.002386	-0.347523
C48	C	0.104216	0.998462	-0.260119
C49	C	0.131402	0.971285	-0.652641
C50	C	0.127488	0.975203	-0.740051
C51	C	0.227774	0.874846	-0.740060
C52	C	0.231682	0.870924	-0.652654
C53	C	0.183499	0.919146	-0.608949
N54	N	0.144485	0.958180	-0.480578
N55	N	0.187505	0.915136	-0.519608
N56	N	0.175671	0.926989	0.216242
H57	H	0.047865	0.184208	-0.000119
O58	O	0.247422	0.855114	-0.389865
C59	C	0.294257	0.808267	-0.332554
H60	H	0.264712	0.802558	-0.270253
H61	H	0.301161	0.747290	-0.357819
H62	H	0.354768	0.837071	-0.323247
O63	O	0.329579	0.321379	-0.000171
C64	C	0.334462	0.371856	-0.072079
H65	H	0.272630	0.389482	-0.096082
H66	H	0.369915	0.426869	-0.055872
H67	H	0.364791	0.340038	-0.122430
H68	H	0.246917	0.855642	-0.224559
O69	O	0.316525	0.159112	-0.000133
C70	C	0.294737	0.078796	-0.000119
H71	H	0.231533	0.072951	-0.026411
H72	H	0.335845	0.046239	-0.040434
H73	H	0.299216	0.052252	0.066496
H74	H	0.267003	0.835587	-0.775653
H75	H	0.026038	0.706846	-0.000087
H76	H	-0.455077	1.088593	-0.000108
H77	H	-0.604207	1.076601	-0.000102
H78	H	0.274105	0.828469	-0.617077
H79	H	-0.586447	0.818520	-0.000076
O80	O	0.002415	0.551904	-0.000064
C81	C	0.011120	0.469491	-0.000087
H82	H	0.072519	0.452880	0.026206
H83	H	-0.035012	0.439572	0.040222
H84	H	0.002893	0.449380	-0.066705
H85	H	-0.437328	0.830508	-0.000059
O86	O	-0.218750	0.773069	-0.000101
C87	C	-0.301163	0.781774	-0.000082
H88	H	-0.317774	0.843171	-0.026378
H89	H	-0.331083	0.735639	-0.040391
H90	H	-0.321273	0.773553	0.066535
O91	O	0.049121	0.340440	-0.000078
C92	C	-0.017986	0.290853	-0.000106
H93	H	-0.000666	0.229649	0.026185
H94	H	-0.064020	0.316218	0.040203
H95	H	-0.043536	0.286596	-0.066725
O96	O	-0.075844	1.066458	-0.000262
C97	C	-0.031797	1.077746	-0.072168
H98	H	-0.056042	1.037639	-0.122430
H99	H	-0.036278	1.141805	-0.096312
H100	H	0.032544	1.062923	-0.055909
H101	H	0.064981	1.037724	-0.224534
O102	O	-0.237803	1.053519	-0.000147
C103	C	-0.188218	1.120627	-0.000144
H104	H	-0.129367	1.105657	-0.026430
H105	H	-0.217197	1.170258	-0.040468
H106	H	-0.177993	1.140232	0.066468
O107	O	-0.056693	0.785960	-0.000107
C108	C	-0.106274	0.718848	-0.000075
H109	H	-0.167481	0.736160	-0.026369
H110	H	-0.080906	0.672811	-0.040379
H111	H	-0.110528	0.693306	0.066546
H112	H	0.085060	1.017662	-0.775626
O113	O	0.084514	1.018151	-0.610323
C114	C	0.037704	1.065019	-0.667637
H115	H	0.031985	1.035483	-0.729945
H116	H	-0.023273	1.071959	-0.642386
H117	H	0.066545	1.125513	-0.676926
O118	O	0.049604	1.052919	-0.390009
C119	C	-0.003878	1.009987	-0.440587
H120	H	-0.007952	0.946644	-0.414251
H121	H	-0.064462	1.038229	-0.441579
H122	H	0.017531	1.010373	-0.506828
O123	O	0.295873	0.694656	-0.000091
C124	C	0.354313	0.636432	-0.000071
H125	H	0.327573	0.580451	-0.026365
H126	H	0.404164	0.658564	-0.040380
H127	H	0.378460	0.623199	0.066547
H128	H	0.272129	0.539969	-0.000072
