data_functionalizedCrystal
_audit_creation_method	'MofGen! by Chris Wilmer'
_symmetry_space_group_name_H-M	'P1'
_symmetry_Int_Tables_number	1
_symmetry_cell_setting	triclinic
loop_
_symmetry_equiv_pos_as_xyz
  x,y,z
_cell_length_a	16.992694
_cell_length_b	14.472311
_cell_length_c	16.992695
_cell_angle_alpha	90.009954
_cell_angle_beta	90.668223
_cell_angle_gamma	89.998131
loop_
_atom_site_label
_atom_site_type_symbol
_atom_site_fract_x
_atom_site_fract_y
_atom_site_fract_z
O1	O	1.050850	0.076726	0.166922
O2	O	0.822450	0.076753	0.165091
O3	O	0.935734	0.076732	0.051807
O4	O	0.937565	0.076747	0.280207
O5	O	0.935725	-0.076950	0.051791
O6	O	0.822441	-0.076929	0.165075
O7	O	1.050841	-0.076956	0.166907
Cu8	Cu	0.936640	-0.090975	0.165990
Cu9	Cu	0.936651	0.090772	0.166008
O10	O	0.937556	-0.076935	0.280191
C11	C	0.793085	-0.000084	0.162727
C12	C	0.705600	-0.000074	0.155699
C13	C	0.659610	-0.000071	0.223517
C14	C	0.577409	-0.000084	0.216908
C15	C	0.541201	-0.000094	0.142480
C16	C	0.587198	-0.000100	0.074657
C17	C	0.669397	-0.000094	0.081267
C18	C	0.295886	-0.000120	0.115086
C19	C	0.213681	-0.000124	0.108481
C20	C	0.203898	-0.000109	0.250732
C21	C	0.286099	-0.000097	0.257335
C22	C	0.332089	-0.000108	0.189512
N23	N	0.457178	-0.000104	0.135723
N24	N	0.416110	-0.000105	0.196270
N25	N	0.936638	-0.218806	0.165976
C26	C	0.936651	-0.592897	0.166002
C27	C	0.997491	-0.553713	0.105615
C28	C	0.997307	-0.446625	0.105367
C29	C	0.936645	-0.407306	0.165989
C30	C	0.853392	-0.446188	0.142904
C31	C	0.853748	-0.553310	0.142473
C32	C	0.958336	-0.553399	0.249618
C33	C	0.960166	-0.446271	0.249182
C34	C	0.936637	-0.302418	0.165983
C35	C	0.936654	-0.697785	0.166006
C36	C	1.080205	-0.000116	0.169270
C37	C	1.167690	-0.000121	0.176299
C38	C	0.933374	-0.000108	0.022439
C39	C	0.926345	-0.000107	-0.065046
N40	N	0.936659	0.218603	0.166015
C41	C	0.994163	-0.000116	-0.111037
C42	C	0.987554	-0.000107	-0.193238
C43	C	0.913127	-0.000095	-0.229446
C44	C	0.845303	-0.000083	-0.183449
C45	C	0.851913	-0.000086	-0.101250
C46	C	0.885732	-0.000079	-0.474760
C47	C	0.879127	-0.000079	-0.556966
C48	C	1.021379	-0.000101	-0.566749
C49	C	1.027982	-0.000109	-0.484547
C50	C	0.960159	-0.000092	-0.438558
N51	N	0.906369	-0.000088	-0.313468
N52	N	0.966917	-0.000093	-0.354537
C53	C	0.939917	-0.000093	0.309559
C54	C	0.946945	-0.000088	0.397044
H55	H	0.166444	-0.000102	0.305950
F56	F	0.829796	-0.585985	0.062561
H57	H	0.982918	-0.421011	0.043422
F58	F	0.766091	-0.000060	-0.221987
H59	H	1.059026	-0.420336	0.119875
H60	H	1.059404	-0.579474	0.119963
F61	F	0.175147	-0.000151	0.029261
H62	H	0.796688	-0.000078	-0.063805
H63	H	1.021436	-0.420859	0.266580
F64	F	0.698138	-0.000054	0.302733
F65	F	0.829027	-0.411139	0.063859
F66	F	0.344822	-0.000132	0.042901
F67	F	0.792509	-0.412900	0.198578
H68	H	0.806849	-0.579230	0.184516
F69	F	1.107198	-0.000098	-0.446018
F70	F	0.528465	-0.000076	0.289090
F71	F	0.548660	-0.000117	-0.004555
F72	F	0.978912	-0.588909	0.025113
H73	H	0.818517	-0.000084	-0.586443
F74	F	1.036357	-0.588701	0.276951
H75	H	1.054770	-0.000132	-0.081563
H76	H	0.914031	-0.578743	0.294618
F77	F	0.324628	-0.000082	0.336551
F78	F	0.718344	-0.000101	0.009085
F79	F	0.906516	-0.411286	0.311192
F80	F	1.059736	-0.000118	-0.242181
H81	H	1.076596	-0.000112	-0.604202
H82	H	0.830505	-0.000065	-0.437325
