data_functionalizedCrystal
_audit_creation_method	'MofGen! by Chris Wilmer'
_symmetry_space_group_name_H-M	'P1'
_symmetry_Int_Tables_number	1
_symmetry_cell_setting	triclinic
loop_
_symmetry_equiv_pos_as_xyz
  x,y,z
_cell_length_a	10.654562
_cell_length_b	23.532357
_cell_length_c	9.730223
_cell_angle_alpha	89.993164
_cell_angle_beta	89.996961
_cell_angle_gamma	83.659197
loop_
_atom_site_label
_atom_site_type_symbol
_atom_site_fract_x
_atom_site_fract_y
_atom_site_fract_z
O1	O	1.665258	0.080019	-0.114399
O2	O	1.299537	0.087632	-0.114384
O3	O	1.493459	0.000964	-0.114363
O4	O	1.471337	0.166686	-0.114419
O5	O	1.493456	0.000966	0.114217
O6	O	1.299535	0.087634	0.114196
O7	O	1.665256	0.080021	0.114181
Zn8	Zn	1.482395	0.083828	0.150481
Zn9	Zn	1.482398	0.083825	-0.150683
O10	O	1.471334	0.166689	0.114161
C11	C	1.252756	0.087072	-0.000091
C12	C	1.113368	0.085395	-0.000084
C13	C	1.047861	0.084614	0.124504
C14	C	0.916889	0.083043	0.124482
C15	C	0.916942	0.083036	-0.124728
C16	C	1.047912	0.084603	-0.124705
C17	C	1.113316	0.085406	0.249125
C18	C	1.047809	0.084626	0.373723
C19	C	0.916837	0.083054	0.373701
C20	C	0.851372	0.082264	0.249080
C21	C	1.492904	-0.020255	-0.000069
C22	C	1.491240	-0.083485	-0.000056
C23	C	1.480798	-0.475566	-0.124729
C24	C	1.479216	-0.534975	-0.124737
O25	O	1.478357	-0.565698	-0.230703
N26	N	1.478431	-0.564691	-0.000139
C27	C	1.479214	-0.534992	0.124474
O28	O	1.478399	-0.565722	0.230453
C29	C	1.480786	-0.475583	0.124480
C30	C	1.481584	-0.445872	-0.000125
C31	C	1.481594	-0.445854	-0.249324
C32	C	1.483178	-0.386449	-0.249316
C33	C	1.483965	-0.356755	-0.124712
C34	C	1.483168	-0.386466	-0.000117
C35	C	1.481560	-0.445885	0.249092
C36	C	1.483132	-0.386472	0.249087
C37	C	1.483930	-0.356760	0.124482
C38	C	1.485539	-0.297366	0.124495
N39	N	1.486324	-0.267651	-0.000102
C40	C	1.485537	-0.297345	-0.124706
C41	C	1.475909	-0.659755	0.124451
C42	C	1.474346	-0.719164	0.124446
C43	C	1.474346	-0.719143	-0.124765
C44	C	1.475918	-0.659734	-0.124759
C45	C	1.476695	-0.630040	-0.000146
C46	C	1.488864	-0.172590	-0.124679
C47	C	1.490454	-0.113179	-0.124660
C48	C	1.490447	-0.113205	0.124550
C49	C	1.488865	-0.172610	0.124532
C50	C	1.488069	-0.202301	-0.000094
O51	O	1.486394	-0.266605	0.230407
O52	O	1.486335	-0.266607	-0.230667
C53	C	1.712036	0.080580	-0.000114
C54	C	1.851425	0.082257	-0.000130
C55	C	1.471889	0.187908	-0.000136
C56	C	1.473552	0.251137	-0.000158
N57	N	1.482402	0.083829	0.356017
N58	N	1.482401	0.083819	-0.356220
C59	C	1.568292	0.045466	0.427952
C60	C	1.568289	0.045459	0.571835
C61	C	1.396502	0.122184	0.571835
C62	C	1.396500	0.122188	0.427955
C63	C	1.654194	0.007107	0.356014
C64	C	1.740092	-0.031259	0.427949
C65	C	1.740089	-0.031266	0.571832
C66	C	1.654188	0.007094	0.643780
H67	H	1.491106	-0.088991	-0.226133
H68	H	1.473701	-0.743330	-0.226224
H69	H	1.488211	-0.196756	-0.226161
H70	H	1.810023	-0.062493	0.369362
H71	H	1.491093	-0.089017	0.225999
H72	H	1.480949	-0.470025	-0.350797
Br73	Br	1.484183	-0.346177	0.418214
H74	H	0.863506	0.082415	0.475155
Br75	Br	0.673629	0.080112	0.249053
H76	H	1.654184	0.007081	0.760939
Br77	Br	1.477001	-0.619418	-0.293871
H78	H	0.863629	0.082394	-0.226189
H79	H	1.326559	0.153426	0.369385
H80	H	1.326566	0.153415	0.630425
H81	H	1.483823	-0.362263	-0.350782
Br82	Br	1.476972	-0.619463	0.293584
Br83	Br	1.291061	0.087545	0.249162
Br84	Br	1.473293	-0.759481	0.293560
Br85	Br	1.136824	0.085660	-0.293791
H86	H	1.488226	-0.196803	0.225996
Br87	Br	1.136652	0.085690	0.542843
H88	H	1.480913	-0.470066	0.350559
Br89	Br	1.654210	0.007119	0.160745
Br90	Br	1.856647	-0.083338	0.669458
