data_functionalizedCrystal
_audit_creation_method	'MofGen! by Chris Wilmer'
_symmetry_space_group_name_H-M	'P1'
_symmetry_Int_Tables_number	1
_symmetry_cell_setting	triclinic
loop_
_symmetry_equiv_pos_as_xyz
  x,y,z
_cell_length_a	19.288840
_cell_length_b	17.699092
_cell_length_c	17.766277
_cell_angle_alpha	89.995315
_cell_angle_beta	89.983415
_cell_angle_gamma	83.206192
loop_
_atom_site_label
_atom_site_type_symbol
_atom_site_fract_x
_atom_site_fract_y
_atom_site_fract_z
O1	O	0.921478	0.094327	-0.062717
O2	O	1.421478	0.594327	0.437283
O3	O	0.719231	0.107083	-0.062691
O4	O	1.219231	0.607083	0.437309
O5	O	0.826066	-0.009492	-0.062703
O6	O	1.326066	0.490508	0.437297
O7	O	0.814644	0.210902	-0.062705
O8	O	1.314644	0.710902	0.437295
O9	O	0.826047	-0.009498	0.062486
O10	O	1.326047	0.490502	0.562486
O11	O	0.719212	0.107077	0.062498
O12	O	1.219212	0.607077	0.562498
O13	O	0.921460	0.094321	0.062471
O14	O	1.421460	0.594321	0.562471
Cu15	Cu	0.820334	0.100698	0.073915
Cu16	Cu	1.320334	0.600698	0.573915
Cu17	Cu	0.820356	0.100705	-0.074135
Cu18	Cu	1.320356	0.600705	0.425865
O19	O	0.814625	0.210896	0.062484
O20	O	1.314625	0.710896	0.562484
C21	C	0.693344	0.106673	-0.000093
C22	C	1.193344	0.606673	0.499907
C23	C	0.616238	0.105450	-0.000083
C24	C	1.116238	0.605450	0.499917
C25	C	0.580044	0.104866	-0.068325
C26	C	1.080044	0.604866	0.431675
C27	C	0.507596	0.103709	-0.068334
C28	C	1.007596	0.603709	0.431666
C29	C	0.471346	0.103120	-0.000098
C30	C	0.971346	0.603120	0.499902
C31	C	0.507548	0.103709	0.068154
C32	C	1.007548	0.603709	0.568154
C33	C	0.579994	0.104874	0.068161
C34	C	1.079994	0.604874	0.568161
C35	C	0.361955	0.056941	0.052171
C36	C	0.861955	0.556941	0.552171
C37	C	0.289511	0.055771	0.052161
C38	C	0.789511	0.555771	0.552161
C39	C	0.247898	0.099531	-0.000117
C40	C	0.747898	0.599531	0.499883
C41	C	0.278740	0.144451	-0.052398
C42	C	0.778740	0.644451	0.447602
C43	C	0.351186	0.145615	-0.052391
C44	C	0.851186	0.645615	0.447609
C45	C	0.392791	0.101858	-0.000098
C46	C	0.892791	0.601858	0.499902
C47	C	0.133147	0.097693	-0.068374
C48	C	0.633147	0.597693	0.431626
C49	C	0.060697	0.096541	-0.068380
C50	C	0.560697	0.596541	0.431620
C51	C	0.060652	0.096533	0.068110
C52	C	0.560652	0.596533	0.568110
C53	C	0.133100	0.097693	0.068114
C54	C	0.633100	0.597693	0.568114
C55	C	0.169344	0.098270	-0.000130
C56	C	0.669344	0.598270	0.499870
C57	C	0.825646	-0.037692	-0.000110
C58	C	1.325646	0.462308	0.499890
C59	C	0.824415	-0.121708	-0.000113
C60	C	1.324415	0.378292	0.499887
C61	C	0.823849	-0.161171	-0.068354
C62	C	1.323849	0.338829	0.431646
C63	C	0.822688	-0.240112	-0.068355
C64	C	1.322688	0.259888	0.431645
C65	C	0.822098	-0.279589	-0.000114
C66	C	1.322098	0.220411	0.499886
C67	C	0.822663	-0.240120	0.068132
C68	C	1.322663	0.259880	0.568132
C69	C	0.823819	-0.161180	0.068132
C70	C	1.323819	0.338820	0.568132
C71	C	0.818000	-0.558478	0.068134
C72	C	1.318000	-0.058478	0.568134
C73	C	0.816847	-0.637424	0.068129
C74	C	1.316847	-0.137424	0.568129
C75	C	0.816870	-0.637411	-0.068353
C76	C	1.316870	-0.137411	0.431647
C77	C	0.818025	-0.558470	-0.068353
C78	C	1.318025	-0.058470	0.431647
C79	C	0.818586	-0.519007	-0.000107
C80	C	1.318586	-0.019007	0.499893
C81	C	0.819844	-0.433410	-0.000107
C82	C	1.319844	0.066590	0.499893
C83	C	0.820846	-0.365186	-0.000113
C84	C	1.320846	0.134814	0.499887
C85	C	0.947346	0.094731	-0.000128
C86	C	1.447346	0.594731	0.499872
C87	C	1.024452	0.095954	-0.000143
C88	C	1.524452	0.595954	0.499857
C89	C	0.815044	0.239096	-0.000111
C90	C	1.315044	0.739096	0.499889
C91	C	0.816275	0.323111	-0.000113
C92	C	1.316275	0.823111	0.499887
N93	N	0.820324	0.100693	0.178046
N94	N	1.320324	0.600693	0.678046
N95	N	0.820372	0.100705	-0.178265
N96	N	1.320372	0.600705	0.321735
C97	C	0.867645	0.049099	0.217427
C98	C	1.367645	0.549099	0.717427
C99	C	0.867649	0.049095	0.296229
C100	C	1.367649	0.549095	0.796229
C101	C	0.820338	0.100699	0.335646
C102	C	1.320338	0.600699	0.835646
C103	C	0.773008	0.152297	0.296255
C104	C	1.273008	0.652297	0.796255
C105	C	0.773000	0.152294	0.217455
C106	C	1.273000	0.652294	0.717455
C107	C	0.811123	0.169661	0.460484
C108	C	1.311123	0.669661	0.960484
C109	C	0.811135	0.169665	0.539283
C110	C	1.311135	0.669665	1.039283
C111	C	0.820357	0.100708	0.578693
C112	C	1.320357	0.600708	1.078693
C113	C	0.829581	0.031744	0.539293
C114	C	1.329581	0.531744	1.039293
C115	C	0.829574	0.031741	0.460493
C116	C	1.329574	0.531741	0.960493
C117	C	0.820341	0.100708	0.421092
C118	C	1.320341	0.600708	0.921092
C119	C	0.867685	0.049106	0.703520
C120	C	1.367685	0.549106	1.203520
C121	C	0.867685	0.049101	0.782323
C122	C	1.367685	0.549101	1.282323
C123	C	0.773046	0.152310	0.782348
C124	C	1.273046	0.652310	1.282348
C125	C	0.773044	0.152308	0.703546
C126	C	1.273044	0.652308	1.203546
C127	C	0.820367	0.100707	0.664137
C128	C	1.320367	0.600707	1.164137
H129	H	0.376294	0.182192	-0.094958
H130	H	0.876294	0.682192	0.405042
C131	C	0.824442	-0.117766	0.143195
C132	C	1.324442	0.382234	0.643195
H133	H	0.825207	-0.065098	0.133422
H134	H	1.325207	0.434902	0.633422
H135	H	0.864735	-0.136616	0.171234
H136	H	1.364735	0.363384	0.671234
H137	H	0.783752	-0.124793	0.171236
H138	H	1.283752	0.375207	0.671236
C139	C	0.020880	0.095901	-0.143449
C140	C	0.520880	0.595901	0.356551
H141	H	-0.027459	0.095135	-0.133681
H142	H	0.472541	0.595135	0.366319
H143	H	0.038137	0.051965	-0.171486
H144	H	0.538137	0.551965	0.328514
H145	H	0.027387	0.140224	-0.171488
H146	H	0.527387	0.640224	0.328512
C147	C	0.824497	-0.117753	-0.143421
C148	C	1.324497	0.382247	0.356579
H149	H	0.823987	-0.152564	-0.184062
H150	H	1.323987	0.347436	0.315938
H151	H	0.865437	-0.092870	-0.146265
H152	H	1.365437	0.407130	0.353735
H153	H	0.784453	-0.081046	-0.146251
H154	H	1.284453	0.418954	0.353749
H155	H	0.478029	0.103232	0.123712
H156	H	0.978029	0.603232	0.623712
C157	C	0.255589	0.006349	0.109652
C158	C	0.755589	0.506349	0.609652
H159	H	0.206486	0.011910	0.102152
H160	H	0.706486	0.511910	0.602152
H161	H	0.265538	0.022116	0.159199
H162	H	0.765538	0.522116	0.659199
H163	H	0.273813	-0.045481	0.103060
H164	H	0.773813	0.454519	0.603060
C165	C	0.839730	-0.044115	0.582629
C166	C	1.339730	0.455885	1.082629
H167	H	0.845229	-0.085185	0.547879
H168	H	1.345229	0.414815	1.047879
H169	H	0.800055	-0.048206	0.613387
H170	H	1.300055	0.451794	1.113387
H171	H	0.880184	-0.045757	0.613351
H172	H	1.380184	0.454243	1.113351
H173	H	0.162657	0.098171	-0.123942
H174	H	0.662657	0.598171	0.376058
H175	H	0.803601	0.225818	0.428404
H176	H	1.303601	0.725818	0.928404
C177	C	0.720997	0.209071	0.660224
C178	C	1.220997	0.709071	1.160224
H179	H	0.692824	0.239809	0.694984
H180	H	1.192824	0.739809	1.194984
H181	H	0.692128	0.181929	0.629498
H182	H	1.192128	0.681929	1.129498
H183	H	0.745932	0.240507	0.629473
H184	H	1.245932	0.740507	1.129473
H185	H	0.906177	0.007080	0.185342
H186	H	1.406177	0.507080	0.685342
H187	H	0.031138	0.096059	0.123669
H188	H	0.531138	0.596059	0.623669
H189	H	0.162570	0.098164	0.123684
H190	H	0.662570	0.598164	0.623684
H191	H	0.395830	0.021305	0.094746
H192	H	0.895830	0.521305	0.594746
C193	C	0.816258	-0.680819	-0.143426
C194	C	1.316258	-0.180819	0.356574
H195	H	0.816787	-0.646002	-0.184066
H196	H	1.316787	-0.146002	0.315934
H197	H	0.775322	-0.705706	-0.146271
H198	H	1.275322	-0.205706	0.353729
H199	H	0.856306	-0.717522	-0.146257
H200	H	1.356306	-0.217522	0.353743
H201	H	0.818471	-0.526359	0.123704
H202	H	1.318471	-0.026359	0.623704
C203	C	0.818677	-0.515046	-0.143416
C204	C	1.318677	-0.015046	0.356584
H205	H	0.819453	-0.462381	-0.133642
H206	H	1.319453	0.037619	0.366358
H207	H	0.778004	-0.522067	-0.171453
H208	H	1.278004	-0.022067	0.328547
H209	H	0.858987	-0.533896	-0.171458
H210	H	1.358987	-0.033896	0.328542
H211	H	0.734522	0.194324	0.814441
H212	H	1.234522	0.694324	1.314441
H213	H	0.803628	0.225820	0.571356
H214	H	1.303628	0.725820	1.071356
H215	H	0.734485	0.194313	0.328353
H216	H	1.234485	0.694313	0.828353
C217	C	0.919706	-0.007660	0.339558
C218	C	1.419706	0.492340	0.839558
H219	H	0.947891	-0.038389	0.304801
H220	H	1.447891	0.461611	0.804801
H221	H	0.894781	-0.039094	0.370315
H222	H	1.394781	0.460906	0.870315
H223	H	0.948574	0.019496	0.370280
H224	H	1.448574	0.519496	0.870280
C225	C	0.232976	0.192592	-0.109905
C226	C	0.732976	0.692592	0.390095
H227	H	0.185411	0.185474	-0.102418
H228	H	0.685411	0.685474	0.397582
H229	H	0.246762	0.177200	-0.159446
H230	H	0.746762	0.677200	0.340554
H231	H	0.238510	0.244806	-0.103317
H232	H	0.738510	0.744806	0.396683
H233	H	0.734464	0.194310	0.185390
H234	H	1.234464	0.694310	0.685390
H235	H	0.816365	-0.669564	0.123702
H236	H	1.316365	-0.169564	0.623702
H237	H	0.822230	-0.272240	-0.123924
H238	H	1.322230	0.227760	0.376076
C239	C	0.822017	-0.283543	0.143196
C240	C	1.322017	0.216457	0.643196
H241	H	0.821255	-0.336211	0.133424
H242	H	1.321255	0.163789	0.633424
H243	H	0.781714	-0.264697	0.171244
H244	H	1.281714	0.235303	0.671244
H245	H	0.862697	-0.276519	0.171227
H246	H	1.362697	0.223481	0.671227
H247	H	0.609463	0.105350	0.123734
H248	H	1.109463	0.605350	0.623734
H249	H	0.837083	-0.024412	0.428418
H250	H	1.337083	0.475588	0.928418
C251	C	0.919743	-0.007654	0.825643
C252	C	1.419743	0.492346	1.325643
H253	H	0.947928	-0.038379	0.790883
H254	H	1.447928	0.461621	1.290883
H255	H	0.894819	-0.039093	0.856397
H256	H	1.394819	0.460907	1.356397
H257	H	0.948609	0.019500	0.856367
H258	H	1.448609	0.519500	1.356367
C259	C	0.619909	0.105517	-0.143388
C260	C	1.119909	0.605517	0.356612
H261	H	0.668241	0.106292	-0.133613
H262	H	1.168241	0.606292	0.366387
H263	H	0.602663	0.149456	-0.171425
H264	H	1.102663	0.649456	0.328575
H265	H	0.613428	0.061196	-0.171432
H266	H	1.113428	0.561196	0.328568
C267	C	0.467773	0.103073	-0.143404
C268	C	0.967773	0.603073	0.356596
H269	H	0.499735	0.103583	-0.184045
H270	H	0.999735	0.603583	0.315955
H271	H	0.434136	0.146747	-0.146240
H272	H	0.934136	0.646747	0.353760
H273	H	0.444890	0.058488	-0.146242
H274	H	0.944890	0.558488	0.353758
C275	C	0.919727	-0.007660	0.660163
C276	C	1.419727	0.492340	1.160163
H277	H	0.912951	-0.000267	0.607592
H278	H	1.412951	0.499733	1.107592
H279	H	0.912268	-0.058151	0.673086
H280	H	1.412268	0.441849	1.173086
H281	H	0.966072	0.000427	0.673057
H282	H	1.466072	0.500427	1.173057
