data_functionalizedCrystal
_audit_creation_method	'MofGen! by Chris Wilmer'
_symmetry_space_group_name_H-M	'P1'
_symmetry_Int_Tables_number	1
_symmetry_cell_setting	triclinic
loop_
_symmetry_equiv_pos_as_xyz
  x,y,z
_cell_length_a	14.853566
_cell_length_b	17.699092
_cell_length_c	16.176319
_cell_angle_alpha	89.994879
_cell_angle_beta	89.995436
_cell_angle_gamma	83.460391
loop_
_atom_site_label
_atom_site_type_symbol
_atom_site_fract_x
_atom_site_fract_y
_atom_site_fract_z
O1	O	1.196009	0.098812	-0.068689
O2	O	0.933506	0.110584	-0.068702
O3	O	1.072170	-0.005472	-0.068693
O4	O	1.057345	0.214868	-0.068698
O5	O	1.072151	-0.005479	0.068800
O6	O	0.933487	0.110577	0.068791
O7	O	1.195990	0.098805	0.068804
Cu8	Cu	1.064737	0.104690	0.081352
Cu9	Cu	1.064759	0.104699	-0.081250
O10	O	1.057326	0.214860	0.068796
C11	C	0.899910	0.110047	0.000043
C12	C	0.799832	0.108449	0.000038
C13	C	1.071628	-0.033673	0.000052
C14	C	1.070030	-0.117695	0.000048
C15	C	1.069292	-0.157161	-0.074900
C16	C	1.067786	-0.236108	-0.074901
C17	C	1.067023	-0.275588	0.000047
C18	C	1.067759	-0.236117	0.075001
C19	C	1.069259	-0.157171	0.075002
C20	C	1.061707	-0.554498	0.075002
C21	C	1.060210	-0.633450	0.074996
C22	C	1.060234	-0.633434	-0.074901
C23	C	1.061734	-0.554488	-0.074900
C24	C	1.062465	-0.515024	0.000053
C25	C	1.064097	-0.429420	0.000054
C26	C	1.065398	-0.361191	0.000048
C27	C	0.376682	0.101695	-0.074895
C28	C	0.376683	0.101687	0.075005
C29	C	0.470711	0.103188	0.075003
C30	C	0.517729	0.103943	0.000050
C31	C	0.470719	0.103198	-0.074900
C32	C	0.517727	0.103941	0.149951
C33	C	0.611762	0.105442	0.149952
C34	C	0.658782	0.106192	0.074998
C35	C	0.611766	0.105446	0.000045
C36	C	0.658784	0.106201	-0.074907
C37	C	0.611771	0.105449	-0.149861
C38	C	0.517740	0.103947	-0.149854
C39	C	0.752814	0.107694	0.074990
C40	C	0.752821	0.107704	-0.074912
C41	C	1.229586	0.099341	0.000058
C42	C	1.329664	0.100939	0.000057
C43	C	1.057868	0.243062	0.000048
C44	C	1.059465	0.327084	0.000047
N45	N	1.064727	0.104683	0.195717
N46	N	1.064776	0.104699	-0.195615
C47	C	1.126146	0.053315	0.238985
C48	C	1.126151	0.053314	0.325532
C49	C	1.064740	0.104686	0.368810
C50	C	1.003315	0.156057	0.325536
C51	C	1.003307	0.156053	0.238990
C52	C	1.003346	0.156071	0.674564
C53	C	1.003360	0.156072	0.761115
C54	C	1.126190	0.053332	0.761106
C55	C	1.126181	0.053328	0.674561
C56	C	1.064753	0.104696	0.631294
C57	C	1.064748	0.104695	0.537450
C58	C	1.064749	0.104691	0.462652
H59	H	1.069918	-0.125022	-0.135932
H60	H	1.069847	-0.125038	0.136032
C61	C	0.771497	0.173187	-0.202685
C62	C	0.804503	0.108538	-0.157303
H63	H	0.803408	0.173703	-0.253546
H64	H	0.708776	0.172175	-0.213407
H65	H	0.779938	0.217528	-0.171882
H66	H	0.796056	0.064196	-0.188104
H67	H	0.867239	0.109543	-0.146584
C68	C	0.478518	0.168511	-0.277617
C69	C	0.466058	0.103134	-0.232237
H70	H	0.446612	0.168008	-0.328478
H71	H	0.456142	0.212354	-0.246816
H72	H	0.541251	0.169501	-0.288346
H73	H	0.403325	0.102147	-0.221502
H74	H	0.488430	0.059280	-0.263045
C75	C	1.248873	0.037096	0.422852
C76	C	1.193665	-0.003145	0.373101
H77	H	1.290550	0.002238	0.452222
H78	H	1.281224	0.068644	0.389080
H79	H	1.212284	0.067688	0.461004
H80	H	1.230253	-0.033733	0.334944
H81	H	1.161311	-0.034706	0.406875
H82	H	1.059635	-0.665576	-0.135932
H83	H	0.953292	0.197882	0.203762
C84	C	0.232539	0.099386	0.141566
C85	C	0.325002	0.100860	0.157390
H86	H	0.200634	0.098871	0.192431
H87	H	0.210169	0.143241	0.110776
H88	H	0.224107	0.055039	0.110772
H89	H	0.333435	0.145211	0.188179
H90	H	0.347378	0.057002	0.188194
C91	C	1.247591	-0.048236	0.683247
C92	C	1.193683	-0.003144	0.626991
H93	H	1.289258	-0.083104	0.653878
H94	H	1.279954	-0.016681	0.716989
H95	H	1.210119	-0.075514	0.717016
H96	H	1.231154	0.024139	0.593226
H97	H	1.161318	-0.034702	0.593235
C98	C	1.068040	-0.228171	-0.223071
C99	C	1.067025	-0.279493	-0.157287
H100	H	1.067589	-0.254959	-0.273934
H101	H	1.016063	-0.191677	-0.219986
H102	H	1.121169	-0.203081	-0.219913
H103	H	1.013893	-0.304580	-0.160442
H104	H	1.119007	-0.316001	-0.160374
H105	H	0.338400	0.101080	-0.135921
C106	C	0.881919	0.257620	0.752436
C107	C	0.935844	0.212537	0.808688
H108	H	0.840237	0.292473	0.781808
H109	H	0.919372	0.284908	0.718672
H110	H	0.849566	0.226052	0.718689
H111	H	0.968203	0.244105	0.842432
H112	H	0.898387	0.185247	0.842467
C113	C	0.727774	0.042109	0.236909
C114	C	0.663437	0.106258	0.232338
H115	H	0.759679	0.042614	0.287770
H116	H	0.698054	-0.002567	0.233796
H117	H	0.769230	0.042782	0.192268
H118	H	0.621977	0.105583	0.276976
H119	H	0.693158	0.150945	0.235459
C120	C	0.983550	0.259049	0.577241
C121	C	0.935837	0.212546	0.627016
H122	H	0.941871	0.293915	0.547883
H123	H	1.021018	0.286322	0.610996
H124	H	1.020110	0.228445	0.539078
H125	H	0.899282	0.243149	0.665183
H126	H	0.898354	0.185271	0.593258
C127	C	1.060313	-0.625537	0.223176
C128	C	1.059361	-0.676848	0.157386
H129	H	1.059784	-0.652331	0.274036
H130	H	1.113447	-0.600461	0.220071
H131	H	1.008342	-0.589028	0.220046
H132	H	1.111336	-0.713354	0.160513
H133	H	1.006222	-0.701936	0.160492
H134	H	0.650065	0.106070	-0.210888
H135	H	0.479438	0.103331	0.210974
C136	C	0.948792	0.201689	0.458206
C137	C	0.935812	0.212528	0.373104
H138	H	0.907122	0.236558	0.487570
H139	H	0.939112	0.151168	0.472396
H140	H	1.008944	0.210003	0.472368
H141	H	0.875662	0.204209	0.358942
H142	H	0.945485	0.263061	0.358908
H143	H	1.062359	-0.522347	-0.135931
C144	C	0.868836	0.044375	0.161947
C145	C	0.804495	0.108521	0.157369
H146	H	0.900744	0.044889	0.212805
H147	H	0.839119	-0.000303	0.158844
H148	H	0.910289	0.045043	0.117303
H149	H	0.763037	0.107850	0.202010
H150	H	0.834213	0.153210	0.160480
C151	C	1.179345	-0.077636	0.212397
C152	C	1.193649	-0.003174	0.191440
H153	H	1.221015	-0.112517	0.183048
H154	H	1.188126	-0.084962	0.270131
H155	H	1.119194	-0.085933	0.198213
H156	H	1.253798	0.005124	0.205630
H157	H	1.184875	0.004154	0.133693
H158	H	1.062320	-0.522377	0.136034
H159	H	1.176205	0.011503	0.796343
C160	C	1.065465	-0.357143	0.141562
C161	C	1.066929	-0.279514	0.157387
H162	H	1.064962	-0.383932	0.192426
H163	H	1.012673	-0.364363	0.110773
H164	H	1.117778	-0.375784	0.110764
H165	H	1.014612	-0.260872	0.188180
H166	H	1.119726	-0.272290	0.188189
