data_functionalizedCrystal
_audit_creation_method	'MofGen! by Chris Wilmer'
_symmetry_space_group_name_H-M	'P1'
_symmetry_Int_Tables_number	1
_symmetry_cell_setting	triclinic
loop_
_symmetry_equiv_pos_as_xyz
  x,y,z
_cell_length_a	10.654550
_cell_length_b	9.065218
_cell_length_c	9.730223
_cell_angle_alpha	90.000469
_cell_angle_beta	89.996251
_cell_angle_gamma	84.750394
loop_
_atom_site_label
_atom_site_type_symbol
_atom_site_fract_x
_atom_site_fract_y
_atom_site_fract_z
O1	O	1.668655	0.207228	-0.114397
O2	O	1.303254	0.226972	-0.114374
O3	O	1.493507	0.002417	-0.114383
O4	O	1.478402	0.431784	-0.114388
O5	O	1.493505	0.002422	0.114197
O6	O	1.303252	0.226978	0.114206
O7	O	1.668653	0.207234	0.114183
Zn8	Zn	1.485952	0.217107	0.150486
Zn9	Zn	1.485955	0.217099	-0.150678
O10	O	1.478400	0.431790	0.114192
C11	C	1.256450	0.225525	-0.000082
C12	C	1.116989	0.221188	-0.000073
C13	C	1.492055	-0.052559	-0.000096
C14	C	1.487714	-0.216378	-0.000102
C15	C	1.038027	0.353403	-0.000095
C16	C	0.906990	0.349319	-0.000118
C17	C	0.933890	0.080793	-0.000105
C18	C	1.064925	0.084879	-0.000071
C19	C	1.022496	0.508434	-0.000108
C20	C	0.891459	0.504350	-0.000132
C21	C	1.715457	0.208681	-0.000113
C22	C	1.854918	0.213018	-0.000130
C23	C	1.479852	0.486766	-0.000099
C24	C	1.484193	0.650585	-0.000102
N25	N	1.485959	0.217111	0.356023
N26	N	1.485958	0.217084	-0.356214
C27	C	1.570225	0.117712	0.427945
C28	C	1.570222	0.117694	0.571828
C29	C	1.401682	0.316488	0.571854
C30	C	1.401681	0.316497	0.427973
C31	C	1.667534	0.002944	0.427931
C32	C	1.667531	0.002926	0.571814
H33	H	0.891483	-0.030185	-0.000124
C34	C	1.637950	-0.150251	0.375160
C35	C	1.614095	-0.273762	0.477989
C36	C	1.584509	-0.426951	0.425217
C37	C	1.578780	-0.456629	0.269617
C38	C	1.602637	-0.333114	0.166778
C39	C	1.632222	-0.179925	0.219550
H40	H	1.618335	-0.251796	0.593182
H41	H	1.566849	-0.518385	0.501346
H42	H	1.556879	-0.570029	0.230552
H43	H	1.598396	-0.355081	0.051585
H44	H	1.649882	-0.088492	0.143421
H45	H	1.129212	-0.022783	-0.000034
C46	C	1.798033	0.037086	0.624588
C47	C	1.916031	-0.065605	0.586353
C48	C	2.046524	-0.031441	0.639133
C49	C	2.059018	0.105415	0.730148
C50	C	1.941016	0.208116	0.768388
C51	C	1.810524	0.173952	0.715608
H52	H	1.906786	-0.166923	0.518974
H53	H	2.133877	-0.107468	0.610825
H54	H	2.155617	0.130706	0.769219
H55	H	1.950262	0.309433	0.835767
H56	H	1.723171	0.249978	0.743916
H57	H	1.052066	0.569069	0.095557
H58	H	1.758860	0.038880	0.383298
C59	C	0.835379	0.583235	-0.129376
C60	C	0.876054	0.526043	-0.273110
C61	C	0.819973	0.604918	-0.402349
C62	C	0.723217	0.740985	-0.387855
C63	C	0.682537	0.798184	-0.244115
C64	C	0.738617	0.719309	-0.114875
H65	H	0.947683	0.425312	-0.283845
H66	H	0.850088	0.562575	-0.508755
H67	H	0.681703	0.799374	-0.483526
H68	H	0.610907	0.898916	-0.233380
H69	H	0.708503	0.761652	-0.008469
H70	H	1.333054	0.397423	0.369416
C71	C	1.308985	0.425815	0.651002
C72	C	1.309197	0.426066	0.809265
C73	C	1.216498	0.535398	0.888409
C74	C	1.123586	0.644478	0.809291
C75	C	1.123371	0.644231	0.651020
C76	C	1.216070	0.534899	0.571875
H77	H	1.377979	0.345315	0.867840
H78	H	1.216658	0.535581	1.005572
H79	H	1.054965	0.725412	0.867878
H80	H	1.054589	0.724982	0.592444
H81	H	1.215910	0.534716	0.454712
H82	H	0.845972	0.551205	0.098552
H83	H	1.058348	0.557796	-0.098796
H84	H	1.636593	-0.104243	0.616432
