data_functionalizedCrystal
_audit_creation_method	'MofGen! by Chris Wilmer'
_symmetry_space_group_name_H-M	'P1'
_symmetry_Int_Tables_number	1
_symmetry_cell_setting	triclinic
loop_
_symmetry_equiv_pos_as_xyz
  x,y,z
_cell_length_a	19.188925
_cell_length_b	19.188930
_cell_length_c	15.072220
_cell_angle_alpha	89.993728
_cell_angle_beta	89.986568
_cell_angle_gamma	83.143665
loop_
_atom_site_label
_atom_site_type_symbol
_atom_site_fract_x
_atom_site_fract_y
_atom_site_fract_z
O1	O	0.926156	0.087145	-0.073812
O2	O	1.176156	0.337145	0.176188
O3	O	1.426156	0.587145	0.426188
O4	O	1.676156	0.837145	0.676188
O5	O	0.722844	0.098883	-0.073810
O6	O	0.972844	0.348883	0.176190
O7	O	1.222844	0.598883	0.426190
O8	O	1.472844	0.848883	0.676190
O9	O	0.830367	-0.008642	-0.073794
O10	O	1.080367	0.241358	0.176206
O11	O	1.330367	0.491358	0.426206
O12	O	1.580367	0.741358	0.676206
O13	O	0.818633	0.194670	-0.073828
O14	O	1.068633	0.444670	0.176172
O15	O	1.318633	0.694670	0.426172
O16	O	1.568633	0.944670	0.676172
O17	O	0.830341	-0.008636	0.073771
O18	O	1.080341	0.241364	0.323771
O19	O	1.330341	0.491364	0.573771
O20	O	1.580341	0.741364	0.823771
O21	O	0.722818	0.098889	0.073755
O22	O	0.972818	0.348889	0.323755
O23	O	1.222818	0.598889	0.573755
O24	O	1.472818	0.848889	0.823755
O25	O	0.926129	0.087151	0.073754
O26	O	1.176129	0.337151	0.323754
O27	O	1.426129	0.587151	0.573754
O28	O	1.676129	0.837151	0.823754
Zn29	Zn	0.824469	0.093021	0.097183
Zn30	Zn	1.074469	0.343021	0.347183
Zn31	Zn	1.324469	0.593021	0.597183
Zn32	Zn	1.574469	0.843021	0.847183
Zn33	Zn	0.824504	0.093013	-0.097240
Zn34	Zn	1.074504	0.343013	0.152760
Zn35	Zn	1.324504	0.593013	0.402760
Zn36	Zn	1.574504	0.843013	0.652760
O37	O	0.818606	0.194676	0.073737
O38	O	1.068606	0.444676	0.323737
O39	O	1.318606	0.694676	0.573737
O40	O	1.568606	0.944676	0.823737
C41	C	0.696820	0.098507	-0.000027
C42	C	0.946820	0.348507	0.249973
C43	C	1.196820	0.598507	0.499973
C44	C	1.446820	0.848507	0.749973
C45	C	0.619315	0.097367	-0.000026
C46	C	0.869315	0.347367	0.249974
C47	C	1.119315	0.597367	0.499974
C48	C	1.369315	0.847367	0.749974
C49	C	0.057545	0.152831	-0.000038
C50	C	0.307545	0.402831	0.249962
C51	C	0.557545	0.652831	0.499962
C52	C	0.807545	0.902831	0.749962
C53	C	0.130368	0.153908	-0.000043
C54	C	0.380368	0.403908	0.249957
C55	C	0.630368	0.653908	0.499957
C56	C	0.880368	0.903908	0.749957
C57	C	0.175302	0.090816	-0.000030
C58	C	0.425302	0.340816	0.249970
C59	C	0.675302	0.590816	0.499970
C60	C	0.925302	0.840816	0.749970
C61	C	0.147408	0.026642	-0.000036
C62	C	0.397408	0.276642	0.249964
C63	C	0.647408	0.526642	0.499964
C64	C	0.897408	0.776642	0.749964
C65	C	0.074586	0.025568	-0.000040
C66	C	0.324586	0.275568	0.249960
C67	C	0.574586	0.525568	0.499960
C68	C	0.824586	0.775568	0.749960
N69	N	0.295971	0.045142	0.050210
N70	N	0.545971	0.295142	0.300210
N71	N	0.795971	0.545142	0.550210
N72	N	1.045971	0.795142	0.800210
N73	N	0.365148	0.046167	0.050215
N74	N	0.615148	0.296167	0.300215
N75	N	0.865148	0.546167	0.550215
N76	N	1.115148	0.796167	0.800215
C77	C	0.394712	0.094050	-0.000021
C78	C	0.644712	0.344050	0.249979
C79	C	0.894712	0.594050	0.499979
C80	C	1.144712	0.844050	0.749979
N81	N	0.352483	0.140880	-0.050251
N82	N	0.602483	0.390880	0.199749
N83	N	0.852483	0.640880	0.449749
N84	N	1.102483	0.890880	0.699749
N85	N	0.283299	0.139856	-0.050253
N86	N	0.533299	0.389856	0.199747
N87	N	0.783299	0.639856	0.449747
N88	N	1.033299	0.889856	0.699747
C89	C	0.254267	0.091974	-0.000027
C90	C	0.504267	0.341974	0.249973
C91	C	0.754267	0.591974	0.499973
C92	C	1.004267	0.841974	0.749973
C93	C	0.501561	0.159386	-0.000027
C94	C	0.751561	0.409386	0.249973
C95	C	1.001561	0.659386	0.499973
C96	C	1.251561	0.909386	0.749973
C97	C	0.574385	0.160460	-0.000037
C98	C	0.824385	0.410460	0.249963
C99	C	1.074385	0.660460	0.499963
C100	C	1.324385	0.910460	0.749963
C101	C	0.591425	0.033193	-0.000021
C102	C	0.841425	0.283193	0.249979
C103	C	1.091425	0.533193	0.499979
C104	C	1.341425	0.783193	0.749979
C105	C	0.518601	0.032121	-0.000020
C106	C	0.768601	0.282121	0.249980
C107	C	1.018601	0.532121	0.499980
C108	C	1.268601	0.782121	0.749980
C109	C	0.473673	0.095220	-0.000018
C110	C	0.723673	0.345220	0.249982
C111	C	0.973673	0.595220	0.499982
C112	C	1.223673	0.845220	0.749982
C113	C	0.829974	-0.034650	-0.000009
C114	C	1.079974	0.215350	0.249991
C115	C	1.329974	0.465350	0.499991
C116	C	1.579974	0.715350	0.749991
C117	C	0.828833	-0.112154	-0.000001
C118	C	1.078833	0.137846	0.249999
C119	C	1.328833	0.387846	0.499999
C120	C	1.578833	0.637846	0.749999
C121	C	0.891924	-0.157079	0.000003
C122	C	1.141924	0.092921	0.250003
C123	C	1.391924	0.342921	0.500003
C124	C	1.641924	0.592921	0.750003
C125	C	0.890852	-0.229903	-0.000011
C126	C	1.140852	0.020097	0.249989
C127	C	1.390852	0.270097	0.499989
C128	C	1.640852	0.520097	0.749989
C129	C	0.826686	-0.257799	-0.000012
C130	C	1.076686	-0.007799	0.249988
C131	C	1.326686	0.242201	0.499988
C132	C	1.576686	0.492201	0.749988
C133	C	0.763587	-0.212864	-0.000020
C134	C	1.013587	0.037136	0.249980
C135	C	1.263587	0.287136	0.499980
C136	C	1.513587	0.537136	0.749980
C137	C	0.764660	-0.140041	-0.000015
C138	C	1.014660	0.109959	0.249985
C139	C	1.264660	0.359959	0.499985
C140	C	1.514660	0.609959	0.749985
N141	N	0.777630	-0.365801	0.050208
N142	N	1.027630	-0.115801	0.300208
N143	N	1.277630	0.134199	0.550208
N144	N	1.527630	0.384199	0.800208
N145	N	0.776614	-0.434979	0.050205
N146	N	1.026614	-0.184979	0.300205
N147	N	1.276614	0.065021	0.550205
N148	N	1.526614	0.315021	0.800205
C149	C	0.823448	-0.477207	-0.000029
C150	C	1.073448	-0.227207	0.249971
C151	C	1.323448	0.022793	0.499971
C152	C	1.573448	0.272793	0.749971
N153	N	0.871346	-0.447645	-0.050249
N154	N	1.121346	-0.197645	0.199751
N155	N	1.371346	0.052355	0.449751
N156	N	1.621346	0.302355	0.699751
N157	N	0.872364	-0.378460	-0.050242
N158	N	1.122364	-0.128460	0.199758
N159	N	1.372364	0.121540	0.449758
N160	N	1.622364	0.371540	0.699758
C161	C	0.825515	-0.336761	-0.000018
C162	C	1.075515	-0.086761	0.249982
C163	C	1.325515	0.163239	0.499982
C164	C	1.575515	0.413239	0.749982
C165	C	0.885381	-0.601097	-0.000042
C166	C	1.135381	-0.351097	0.249958
C167	C	1.385381	-0.101097	0.499958
C168	C	1.635381	0.148903	0.749958
C169	C	0.884307	-0.673922	-0.000062
C170	C	1.134307	-0.423922	0.249938
C171	C	1.384307	-0.173922	0.499938
C172	C	1.634307	0.076078	0.749938
C173	C	0.757040	-0.656880	-0.000062
C174	C	1.007040	-0.406880	0.249938
C175	C	1.257040	-0.156880	0.499938
C176	C	1.507040	0.093120	0.749938
C177	C	0.758116	-0.584057	-0.000051
C178	C	1.008116	-0.334057	0.249949
C179	C	1.258116	-0.084057	0.499949
C180	C	1.508116	0.165943	0.749949
C181	C	0.822289	-0.556170	-0.000037
C182	C	1.072289	-0.306170	0.249963
C183	C	1.322289	-0.056170	0.499963
C184	C	1.572289	0.193830	0.749963
C185	C	0.952154	0.087527	-0.000031
C186	C	1.202154	0.337527	0.249969
C187	C	1.452154	0.587527	0.499969
C188	C	1.702154	0.837527	0.749969
C189	C	1.029658	0.088666	-0.000038
C190	C	1.279658	0.338666	0.249962
C191	C	1.529658	0.588666	0.499962
C192	C	1.779658	0.838666	0.749962
C193	C	0.819000	0.220684	-0.000050
C194	C	1.069000	0.470684	0.249950
C195	C	1.319000	0.720684	0.499950
C196	C	1.569000	0.970684	0.749950
C197	C	0.820140	0.298188	-0.000064
C198	C	1.070140	0.548188	0.249936
C199	C	1.320140	0.798188	0.499936
C200	C	1.570140	1.048188	0.749936
N201	N	0.824450	0.093026	0.229872
N202	N	1.074450	0.343026	0.479872
N203	N	1.324450	0.593026	0.729872
N204	N	1.574450	0.843026	0.979872
N205	N	0.824528	0.093002	-0.229929
N206	N	1.074528	0.343002	0.020071
N207	N	1.324528	0.593002	0.270071
N208	N	1.574528	0.843002	0.520071
C209	C	0.824503	0.093010	0.589074
C210	C	1.074503	0.343010	0.839074
C211	C	1.324503	0.593010	1.089074
C212	C	1.574503	0.843010	1.339074
C213	C	0.766777	0.150353	0.551458
C214	C	1.016777	0.400353	0.801458
C215	C	1.266777	0.650353	1.051458
C216	C	1.516777	0.900353	1.301458
C217	C	0.766909	0.150561	0.448632
C218	C	1.016909	0.400561	0.698632
C219	C	1.266909	0.650561	0.948632
C220	C	1.516909	0.900561	1.198632
C221	C	0.824476	0.093018	0.410870
C222	C	1.074476	0.343018	0.660870
C223	C	1.324476	0.593018	0.910870
C224	C	1.574476	0.843018	1.160870
C225	C	0.897279	0.108706	0.448157
C226	C	1.147279	0.358706	0.698157
C227	C	1.397279	0.608706	0.948157
C228	C	1.647279	0.858706	1.198157
C229	C	0.896955	0.109113	0.551015
C230	C	1.146955	0.359113	0.801015
C231	C	1.396955	0.609113	1.051015
C232	C	1.646955	0.859113	1.301015
C233	C	0.810076	0.019808	0.551187
C234	C	1.060076	0.269808	0.801187
C235	C	1.310076	0.519808	1.051187
C236	C	1.560076	0.769808	1.301187
C237	C	0.808403	0.020302	0.448323
C238	C	1.058403	0.270302	0.698323
C239	C	1.308403	0.520302	0.948323
C240	C	1.558403	0.770302	1.198323
C241	C	0.824466	0.093021	0.310156
C242	C	1.074466	0.343021	0.560156
C243	C	1.324466	0.593021	0.810156
C244	C	1.574466	0.843021	1.060156
C245	C	0.824518	0.093009	0.689787
C246	C	1.074518	0.343009	0.939787
C247	C	1.324518	0.593009	1.189787
C248	C	1.574518	0.843009	1.439787
H249	H	0.944179	-0.134379	0.000011
H250	H	1.194179	0.115621	0.250011
H251	H	1.444179	0.365621	0.500011
H252	H	1.694179	0.615621	0.750011
H253	H	0.909702	0.162492	0.574987
H254	H	1.159702	0.412492	0.824987
H255	H	1.409702	0.662492	1.074987
H256	H	1.659702	0.912492	1.324987
H257	H	0.628010	-0.018178	-0.000018
H258	H	0.878010	0.231822	0.249982
H259	H	1.128010	0.481822	0.499982
H260	H	1.378010	0.731822	0.749982
H261	H	0.935686	-0.710500	-0.000064
H262	H	1.185686	-0.460500	0.249936
H263	H	1.435686	-0.210500	0.499936
H264	H	1.685686	0.039500	0.749936
H265	H	0.758153	0.004668	0.577180
H266	H	1.008153	0.254668	0.827180
H267	H	1.258153	0.504668	1.077180
H268	H	1.508153	0.754668	1.327180
H269	H	0.464978	0.210765	-0.000027
H270	H	0.714978	0.460765	0.249973
H271	H	0.964978	0.710765	0.499973
H272	H	1.214978	0.960765	0.749973
H273	H	0.183999	-0.024728	-0.000028
H274	H	0.433999	0.225272	0.249972
H275	H	0.683999	0.475272	0.499972
H276	H	0.933999	0.725272	0.749972
H277	H	0.153078	0.206160	-0.000034
H278	H	0.403078	0.456160	0.249966
H279	H	0.653078	0.706160	0.499966
H280	H	0.903078	0.956160	0.749966
H281	H	0.776098	0.204888	0.424009
H282	H	1.026098	0.454888	0.674009
H283	H	1.276098	0.704888	0.924009
H284	H	1.526098	0.954888	1.174009
H285	H	0.051883	-0.026685	-0.000040
H286	H	0.301883	0.223315	0.249960
H287	H	0.551883	0.473315	0.499960
H288	H	0.801883	0.723315	0.749960
H289	H	0.495896	-0.020129	-0.000015
H290	H	0.745896	0.229871	0.249985
H291	H	0.995896	0.479871	0.499985
H292	H	1.245896	0.729871	0.749985
H293	H	0.704794	-0.679592	-0.000067
H294	H	0.954794	-0.429592	0.249933
H295	H	1.204794	-0.179592	0.499933
H296	H	1.454794	0.070408	0.749933
H297	H	0.942230	-0.266488	-0.000012
H298	H	1.192230	-0.016488	0.249988
H299	H	1.442230	0.233512	0.499988
H300	H	1.692230	0.483512	0.749988
H301	H	0.941240	0.068982	0.575896
H302	H	1.191240	0.318982	0.825896
H303	H	1.441240	0.568982	1.075896
H304	H	1.691240	0.818982	1.325896
H305	H	0.597088	0.212713	-0.000044
H306	H	0.847088	0.462713	0.249956
H307	H	1.097088	0.712713	0.499956
H308	H	1.347088	0.962713	0.749956
H309	H	0.711342	-0.235581	-0.000023
H310	H	0.961342	0.014419	0.249977
H311	H	1.211342	0.264419	0.499977
H312	H	1.461342	0.514419	0.749977
H313	H	0.706740	-0.547478	-0.000050
H314	H	0.956740	-0.297478	0.249950
H315	H	1.206740	-0.047478	0.499950
H316	H	1.456740	0.202522	0.749950
H317	H	0.941251	0.068042	0.423694
H318	H	1.191251	0.318042	0.673694
H319	H	1.441251	0.568042	0.923694
H320	H	1.691251	0.818042	1.173694
H321	H	0.713282	-0.103462	-0.000018
H322	H	0.963282	0.146538	0.249982
H323	H	1.213282	0.396538	0.499982
H324	H	1.463282	0.646538	0.749982
H325	H	0.937635	-0.578390	-0.000035
H326	H	1.187635	-0.328390	0.249965
H327	H	1.437635	-0.078390	0.499965
H328	H	1.687635	0.171610	0.749965
H329	H	0.910336	0.161475	0.422379
H330	H	1.160336	0.411475	0.672379
H331	H	1.410336	0.661475	0.922379
H332	H	1.660336	0.911475	1.172379
H333	H	0.712786	0.141247	0.423423
H334	H	0.962786	0.391247	0.673423
H335	H	1.212786	0.641247	0.923423
H336	H	1.462786	0.891247	1.173423
H337	H	0.712479	0.141196	0.576222
H338	H	0.962479	0.391196	0.826222
H339	H	1.212479	0.641196	1.076222
H340	H	1.462479	0.891196	1.326222
H341	H	0.775839	0.204374	0.577287
H342	H	1.025839	0.454374	0.827287
H343	H	1.275839	0.704374	1.077287
H344	H	1.525839	0.954374	1.327287
H345	H	0.754849	0.008391	0.423954
H346	H	1.004849	0.258391	0.673954
H347	H	1.254849	0.508391	0.923954
H348	H	1.504849	0.758391	1.173954
H349	H	0.852175	-0.022862	0.575512
H350	H	1.102175	0.227138	0.825512
H351	H	1.352175	0.477138	1.075512
H352	H	1.602175	0.727138	1.325512
H353	H	0.020968	0.204211	-0.000041
H354	H	0.270968	0.454211	0.249959
H355	H	0.520968	0.704211	0.499959
H356	H	0.770968	0.954211	0.749959
H357	H	0.847733	-0.024352	0.422622
H358	H	1.097733	0.225648	0.672622
H359	H	1.347733	0.475648	0.922622
H360	H	1.597733	0.725648	1.172622
