data_functionalizedCrystal
_audit_creation_method	'MofGen! by Chris Wilmer'
_symmetry_space_group_name_H-M	'P1'
_symmetry_Int_Tables_number	1
_symmetry_cell_setting	triclinic
loop_
_symmetry_equiv_pos_as_xyz
  x,y,z
_cell_length_a	16.974885
_cell_length_b	16.974885
_cell_length_c	7.540329
_cell_angle_alpha	93.650241
_cell_angle_beta	86.350935
_cell_angle_gamma	96.839790
loop_
_atom_site_label
_atom_site_type_symbol
_atom_site_fract_x
_atom_site_fract_y
_atom_site_fract_z
O1	O	1.049025	-0.100748	-0.017397
O2	O	0.818807	-0.113590	0.013777
O3	O	0.940334	0.007940	0.013772
O4	O	0.927498	-0.222278	-0.017392
O5	O	0.940327	0.007942	-0.281192
O6	O	0.818800	-0.113588	-0.281187
O7	O	1.049018	-0.100746	-0.312360
Cu8	Cu	0.933908	-0.107167	-0.323706
Cu9	Cu	0.933916	-0.107169	0.025123
O10	O	0.927491	-0.222276	-0.312356
C11	C	0.789346	-0.113102	-0.129411
C12	C	0.701571	-0.111639	-0.116613
C13	C	0.207500	-0.103384	-0.027194
C14	C	0.289973	-0.104758	-0.039242
C15	C	0.331197	-0.105450	-0.206053
C16	C	0.289945	-0.104760	-0.360825
C17	C	0.207474	-0.103380	-0.348775
C18	C	0.577848	-0.109570	-0.259335
C19	C	0.660324	-0.110952	-0.271374
C20	C	0.660347	-0.110948	0.050211
C21	C	0.577874	-0.109574	0.062246
C22	C	0.536630	-0.108880	-0.092525
N23	N	0.415498	-0.106856	-0.218373
N24	N	0.452331	-0.107467	-0.080203
C25	C	0.939842	0.037399	-0.129413
C26	C	0.938378	0.125173	-0.116608
C27	C	1.078479	-0.101234	-0.169169
C28	C	1.166253	-0.102696	-0.181954
C29	C	0.927982	-0.251734	-0.169167
C30	C	0.929447	-0.339508	-0.181960
C31	C	0.937684	0.166417	-0.271369
C32	C	0.936313	0.248891	-0.259322
C33	C	0.935630	0.290118	-0.092513
C34	C	0.936327	0.248868	0.062260
C35	C	0.937703	0.166397	0.050211
C36	C	0.931519	0.536770	-0.039237
C37	C	0.930140	0.619247	-0.027199
C38	C	0.930129	0.619264	-0.348783
C39	C	0.931500	0.536791	-0.360816
C40	C	0.932201	0.495549	-0.206045
N41	N	0.934227	0.374419	-0.080195
N42	N	0.933610	0.411250	-0.218365
N43	N	0.933908	-0.107165	-0.569054
N44	N	0.933923	-0.107164	0.270471
H45	H	0.544278	-0.108993	-0.385359
H46	H	0.693886	-0.111521	-0.407220
C47	C	0.335288	-0.105523	-0.544314
H48	H	0.390312	-0.106451	-0.529330
H49	H	0.327851	-0.059213	-0.602682
H50	H	0.315681	-0.151391	-0.614126
H51	H	0.173890	-0.102829	-0.474799
H52	H	0.935776	0.282442	0.198079
C53	C	0.938435	0.121074	-0.454861
H54	H	0.937833	0.157454	-0.545305
H55	H	0.892886	0.082821	-0.460515
H56	H	0.985065	0.094986	-0.471981
C57	C	0.935545	0.294255	-0.429559
H58	H	0.936139	0.257889	-0.530628
H59	H	0.981095	0.332508	-0.437294
H60	H	0.888916	0.320346	-0.425796
C61	C	0.932261	0.491448	-0.544308
H62	H	0.931660	0.527825	-0.634757
H63	H	0.886714	0.453193	-0.549964
H64	H	0.978892	0.465362	-0.561419
H65	H	0.929559	0.652853	-0.474789
C66	C	0.335343	-0.105528	0.130988
H67	H	0.390365	-0.106443	0.099927
H68	H	0.315748	-0.151392	0.193279
H69	H	0.327917	-0.059214	0.204774
C70	C	0.938464	0.121028	0.220448
H71	H	0.937854	0.157390	0.321521
H72	H	0.985088	0.094936	0.216692
H73	H	0.892909	0.082774	0.228171
H74	H	0.932088	0.503201	0.086790
C75	C	0.929433	0.664602	0.156294
H76	H	0.930066	0.628231	0.246744
H77	H	0.882820	0.690707	0.173476
H78	H	0.974999	0.702843	0.161865
H79	H	0.544316	-0.109009	0.198082
C80	C	0.162160	-0.102629	0.156300
H81	H	0.198541	-0.103230	0.246742
H82	H	0.123908	-0.148179	0.161952
H83	H	0.136071	-0.056000	0.173421
H84	H	0.693938	-0.111513	0.176217
