data_functionalizedCrystal
_audit_creation_method	'MofGen! by Chris Wilmer'
_symmetry_space_group_name_H-M	'P1'
_symmetry_Int_Tables_number	1
_symmetry_cell_setting	triclinic
loop_
_symmetry_equiv_pos_as_xyz
  x,y,z
_cell_length_a	25.639242
_cell_length_b	25.639240
_cell_length_c	25.639233
_cell_angle_alpha	89.974071
_cell_angle_beta	89.978417
_cell_angle_gamma	90.027658
loop_
_atom_site_label
_atom_site_type_symbol
_atom_site_fract_x
_atom_site_fract_y
_atom_site_fract_z
Zn1	Zn	0.799247	-0.208286	-0.295708
Zn2	Zn	0.799179	-0.295704	-0.208261
Zn3	Zn	0.711823	-0.208277	-0.208273
Zn4	Zn	0.711777	-0.295684	-0.295652
O5	O	0.755506	-0.251988	-0.251974
O6	O	0.872403	-0.219894	-0.284127
O7	O	0.787582	-0.284112	-0.135098
O8	O	0.723467	-0.135113	-0.219900
O9	O	0.872353	-0.284120	-0.219880
O10	O	0.787697	-0.135119	-0.284138
O11	O	0.723402	-0.219879	-0.135106
O12	O	0.638652	-0.219860	-0.219846
O13	O	0.723389	-0.284085	-0.368825
O14	O	0.638618	-0.284077	-0.284043
O15	O	0.787653	-0.219874	-0.368866
O16	O	0.787538	-0.368867	-0.219826
O17	O	0.723324	-0.368852	-0.284031
C18	C	0.619664	-0.251966	-0.251940
C19	C	0.561550	-0.251969	-0.251937
C20	C	0.755433	-0.387830	-0.251933
C21	C	0.755449	-0.445944	-0.251933
C22	C	0.310365	-0.218494	-0.218604
C23	C	0.364969	-0.218489	-0.218597
O24	O	0.393214	-0.189996	-0.190227
N25	N	0.392276	-0.251975	-0.251964
C26	C	0.364975	-0.285465	-0.285343
O27	O	0.393216	-0.313947	-0.313723
C28	C	0.310372	-0.285467	-0.285352
C29	C	0.283068	-0.251982	-0.251979
C30	C	0.283061	-0.185011	-0.185235
C31	C	0.228461	-0.185017	-0.185241
C32	C	0.201164	-0.218505	-0.218616
C33	C	0.228468	-0.251987	-0.251985
C34	C	0.283072	-0.318953	-0.318733
C35	C	0.228465	-0.318952	-0.318739
C36	C	0.201162	-0.285467	-0.285367
C37	C	0.146570	-0.285481	-0.285367
N38	N	0.119264	-0.251995	-0.252000
C39	C	0.146561	-0.218507	-0.218625
C40	C	0.479646	-0.285458	-0.285322
C41	C	0.534248	-0.285459	-0.285311
C42	C	0.534239	-0.218482	-0.218566
C43	C	0.479635	-0.218484	-0.218575
C44	C	0.452339	-0.251971	-0.251956
C45	C	0.031896	-0.218522	-0.218640
C46	C	-0.022710	-0.218532	-0.218648
C47	C	-0.022695	-0.285506	-0.285394
C48	C	0.031905	-0.285498	-0.285385
C49	C	0.059199	-0.252002	-0.252006
O50	O	0.118292	-0.313958	-0.313724
O51	O	0.118314	-0.190025	-0.190254
C52	C	0.788967	-0.806272	-0.285483
C53	C	0.788983	-0.860876	-0.285493
O54	O	0.817394	-0.889083	-0.313977
N55	N	0.755579	-0.888227	-0.252024
C56	C	0.722154	-0.860970	-0.218546
O57	O	0.693742	-0.889247	-0.190079
C58	C	0.722136	-0.806367	-0.218538
C59	C	0.755546	-0.779019	-0.252006
C60	C	0.822374	-0.778925	-0.318948
C61	C	0.822359	-0.724324	-0.318937
C62	C	0.788938	-0.697071	-0.285460
C63	C	0.755531	-0.724419	-0.251995
C64	C	0.688708	-0.779111	-0.185063
C65	C	0.688693	-0.724504	-0.185059
C66	C	0.722103	-0.697156	-0.218526
C67	C	0.722095	-0.642565	-0.218506
N68	N	0.755498	-0.615215	-0.251975
C69	C	0.788920	-0.642468	-0.285452
C70	C	0.722193	-0.975640	-0.218565
C71	C	0.722213	-1.030243	-0.218570
C72	C	0.789041	-1.030146	-0.285518
C73	C	0.789024	-0.975542	-0.285510
C74	C	0.755597	-0.948290	-0.252034
C75	C	0.788887	-0.527803	-0.285425
C76	C	0.788870	-0.473197	-0.285409
C77	C	0.722040	-0.473299	-0.218463
C78	C	0.722058	-0.527900	-0.218477
C79	C	0.755483	-0.555150	-0.251962
O80	O	0.693697	-0.614323	-0.190039
O81	O	0.817322	-0.614184	-0.313919
C82	C	0.891879	-0.252010	-0.252008
C83	C	0.949993	-0.252020	-0.252023
C84	C	0.755523	-0.251978	-0.388347
C85	C	0.755530	-0.251975	-0.446461
C86	C	0.755595	-0.115615	-0.252026
C87	C	0.755632	-0.057501	-0.252049
C88	C	0.789035	-0.218440	-0.806851
C89	C	0.789041	-0.218426	-0.861455
O90	O	0.817486	-0.189976	-0.889715
N91	N	0.755588	-0.251852	-0.888743
C92	C	0.722122	-0.285291	-0.861424
O93	O	0.693668	-0.313721	-0.889649
C94	C	0.722114	-0.285302	-0.806821
C95	C	0.755573	-0.251878	-0.779536
C96	C	0.822491	-0.185018	-0.779566
C97	C	0.822485	-0.185034	-0.724965
C98	C	0.789023	-0.218471	-0.697650
C99	C	0.755567	-0.251893	-0.724935
C100	C	0.688646	-0.318738	-0.779503
C101	C	0.688640	-0.318747	-0.724896
C102	C	0.722099	-0.285322	-0.697611
C103	C	0.722099	-0.285346	-0.643019
N104	N	0.755552	-0.251920	-0.615731
C105	C	0.789014	-0.218482	-0.643046
C106	C	0.722143	-0.285264	-0.976095
C107	C	0.722154	-0.285255	-1.030697
C108	C	0.789072	-0.218390	-1.030725
C109	C	0.789063	-0.218401	-0.976121
C110	C	0.755596	-0.251838	-0.948807
C111	C	0.789000	-0.218517	-0.528381
C112	C	0.788992	-0.218537	-0.473776
C113	C	0.722072	-0.285401	-0.473754
C114	C	0.722081	-0.285383	-0.528354
C115	C	0.755547	-0.251937	-0.555667
O116	O	0.693668	-0.313780	-0.614725
O117	O	0.817459	-0.190053	-0.614815
C118	C	0.755520	-0.251959	-0.116131
C119	C	0.755614	-0.251816	-0.058017
H120	H	0.054112	-0.191243	-0.191462
H121	H	0.816079	-0.450933	-0.312663
H122	H	0.816228	-0.953279	-0.312763
O123	O	0.309596	-0.152425	-0.152884
C124	C	0.341224	-0.118700	-0.182701
H125	H	0.324801	-0.115529	-0.223892
H126	H	0.382603	-0.134862	-0.184457
C127	C	0.362234	-0.068207	-0.106665
C128	C	0.342060	-0.064309	-0.157255
H129	H	0.362752	-0.034656	-0.090968
H130	H	0.340927	-0.090928	-0.086576
H131	H	0.396715	-0.081677	-0.108135
H132	H	0.307578	-0.050845	-0.155783
H133	H	0.363361	-0.041583	-0.177343
H134	H	0.694857	-0.550167	-0.191221
H135	H	0.694913	-0.312479	-1.052909
H136	H	0.305294	-0.346220	-0.345908
H137	H	0.661503	-0.801368	-0.157810
H138	H	0.816101	-0.549983	-0.312696
O139	O	0.689645	-0.317905	-0.447152
C140	C	0.719392	-0.351691	-0.415577
H141	H	0.759028	-0.333259	-0.407423
H142	H	0.725108	-0.390437	-0.436607
C143	C	0.641941	-0.383791	-0.373706
C144	C	0.690622	-0.361151	-0.363688
H145	H	0.624194	-0.389629	-0.341699
H146	H	0.621900	-0.361031	-0.394980
H147	H	0.646711	-0.416077	-0.391232
H148	H	0.685851	-0.328862	-0.346168
H149	H	0.710663	-0.383906	-0.342410
O150	O	0.854828	-0.697843	-0.351499
C151	C	0.884335	-0.733616	-0.381036
H152	H	0.862925	-0.772553	-0.382824
H153	H	0.924059	-0.739406	-0.361934
C154	C	0.918122	-0.664451	-0.434494
C155	C	0.891824	-0.712272	-0.436694
H156	H	0.922744	-0.651285	-0.468826
H157	H	0.898244	-0.640350	-0.414594
H158	H	0.951222	-0.669282	-0.418573
H159	H	0.858722	-0.707439	-0.452609
H160	H	0.911696	-0.736372	-0.456598
H161	H	0.661400	-0.345956	-0.801709
O162	O	-0.049151	-0.185953	-0.186213
C163	C	-0.013345	-0.156403	-0.156747
H164	H	0.025589	-0.154623	-0.178163
H165	H	-0.007563	-0.175490	-0.117000
C166	C	-0.082453	-0.102933	-0.123017
C167	C	-0.034635	-0.100743	-0.149323
H168	H	-0.095586	-0.068600	-0.118436
H169	H	-0.106577	-0.122842	-0.142867
H170	H	-0.077628	-0.118841	-0.089898
H171	H	-0.039462	-0.084842	-0.182444
H172	H	-0.010513	-0.080830	-0.129479
O173	O	0.656118	-0.351284	-0.698445
C174	C	0.626585	-0.380772	-0.734241
H175	H	0.648003	-0.382567	-0.773170
H176	H	0.586886	-0.361623	-0.740037
C177	C	0.592714	-0.434222	-0.665112
C178	C	0.619022	-0.436431	-0.712924
H179	H	0.588047	-0.468555	-0.651963
H180	H	0.612610	-0.414355	-0.640995
H181	H	0.559635	-0.418262	-0.669949
H182	H	0.652103	-0.452384	-0.708086
H183	H	0.599132	-0.456303	-0.737041
H184	H	0.054137	-0.312768	-0.312555
O185	O	0.689627	-0.446845	-0.185873
C186	C	0.701074	-0.460216	-0.133774
H187	H	0.742849	-0.475195	-0.131171
H188	H	0.673059	-0.491939	-0.120086
C189	C	0.643684	-0.393335	-0.102070
C190	C	0.694994	-0.411728	-0.098872
H191	H	0.639931	-0.363427	-0.080539
H192	H	0.635970	-0.384328	-0.137169
H193	H	0.620344	-0.419776	-0.090663
H194	H	0.718333	-0.385290	-0.110284
H195	H	0.702712	-0.420730	-0.063773
H196	H	0.816308	-0.191183	-0.953909
O197	O	0.202023	-0.152436	-0.152811
C198	C	0.237834	-0.122890	-0.123348
H199	H	0.276767	-0.121117	-0.144765
H200	H	0.243613	-0.141974	-0.083599
C201	C	0.168734	-0.069406	-0.089622
C202	C	0.216552	-0.067226	-0.115929
H203	H	0.155606	-0.035071	-0.085043
H204	H	0.144607	-0.089313	-0.109470
H205	H	0.173556	-0.085312	-0.056501
H206	H	0.211727	-0.051326	-0.149051
H207	H	0.240678	-0.047315	-0.096086
O208	O	0.854769	-0.805416	-0.351525
C209	C	0.825000	-0.837017	-0.385265
H210	H	0.783810	-0.820601	-0.388451
H211	H	0.823230	-0.878413	-0.369108
C212	C	0.901102	-0.857953	-0.435730
C213	C	0.850513	-0.837788	-0.439646
H214	H	0.916840	-0.858432	-0.469274
H215	H	0.921159	-0.836665	-0.412997
H216	H	0.899620	-0.892448	-0.422264
H217	H	0.851996	-0.803292	-0.453105
H218	H	0.830457	-0.859071	-0.462382
H219	H	0.457408	-0.191216	-0.191402
O220	O	0.821430	-1.056648	-0.318098
C221	C	0.791644	-1.088244	-0.351828
H222	H	0.750460	-1.071814	-0.355009
H223	H	0.789863	-1.129637	-0.335664
C224	C	0.867730	-1.109214	-0.402303
C225	C	0.817148	-1.089033	-0.406213
H226	H	0.883462	-1.109703	-0.435850
H227	H	0.887798	-1.087929	-0.379577
H228	H	0.866239	-1.143706	-0.388831
H229	H	0.818640	-1.054539	-0.419678
H230	H	0.797080	-1.110312	-0.428942
H231	H	0.695013	-1.052504	-0.191311
H232	H	0.694974	-0.953454	-0.191300
O233	O	0.656204	-0.698113	-0.152490
C234	C	0.626712	-0.733964	-0.122967
H235	H	0.648143	-0.772870	-0.121186
H236	H	0.586994	-0.739791	-0.142077
C237	C	0.592880	-0.664912	-0.069496
C238	C	0.619203	-0.712696	-0.067305
H239	H	0.588245	-0.651793	-0.035162
H240	H	0.612747	-0.640758	-0.089388
H241	H	0.559784	-0.669775	-0.085424
H242	H	0.652300	-0.707832	-0.051384
H243	H	0.599341	-0.736849	-0.047410
O244	O	0.821559	-0.186014	-0.554827
C245	C	0.851074	-0.156513	-0.519026
H246	H	0.852859	-0.177943	-0.480102
H247	H	0.831954	-0.116801	-0.513220
C248	C	0.904538	-0.122661	-0.588152
C249	C	0.906734	-0.148984	-0.540345
H250	H	0.938872	-0.118014	-0.601303
H251	H	0.884653	-0.142534	-0.612272
H252	H	0.888603	-0.089571	-0.583307
H253	H	0.922663	-0.182076	-0.545192
H254	H	0.926624	-0.129116	-0.516226
H255	H	-0.044930	-0.312773	-0.312565
O256	O	0.560817	-0.186020	-0.186121
C257	C	0.592364	-0.215735	-0.152282
H258	H	0.600532	-0.255387	-0.170643
H259	H	0.571302	-0.221419	-0.113525
C260	C	0.634210	-0.138253	-0.120322
C261	C	0.644246	-0.186952	-0.142874
H262	H	0.666212	-0.120498	-0.114516
H263	H	0.612955	-0.118233	-0.143118
H264	H	0.616656	-0.142997	-0.088027
H265	H	0.661792	-0.182208	-0.175171
H266	H	0.665505	-0.206971	-0.120083
H267	H	0.556474	-0.312731	-0.312480
O268	O	0.453213	-0.318044	-0.317762
C269	C	0.489029	-0.347586	-0.347216
H270	H	0.527938	-0.349358	-0.325787
H271	H	0.494868	-0.328499	-0.386961
C272	C	0.419916	-0.401071	-0.380968
C273	C	0.467704	-0.403251	-0.354646
H274	H	0.406761	-0.435407	-0.385553
H275	H	0.395786	-0.381166	-0.361126
H276	H	0.424788	-0.385163	-0.414086
H277	H	0.462830	-0.419152	-0.321526
H278	H	0.491833	-0.423159	-0.374482
O279	O	0.202032	-0.351530	-0.351185
C280	C	0.237844	-0.381069	-0.380646
H281	H	0.276754	-0.382847	-0.359219
H282	H	0.243682	-0.361975	-0.420388
C283	C	0.168727	-0.434544	-0.414403
C284	C	0.216516	-0.436731	-0.388084
H285	H	0.155571	-0.468878	-0.418994
H286	H	0.144599	-0.414642	-0.394557
H287	H	0.173599	-0.418630	-0.447519
H288	H	0.211643	-0.452639	-0.354967
H289	H	0.240643	-0.456637	-0.407926
H290	H	0.816241	-0.191318	-0.451563
H291	H	0.849730	-0.157815	-0.702754
O292	O	0.855049	-0.152519	-0.806014
C293	C	0.884562	-0.123017	-0.770211
H294	H	0.886342	-0.144446	-0.731286
H295	H	0.865443	-0.083305	-0.764409
C296	C	0.938034	-0.089170	-0.839333
C297	C	0.940225	-0.115491	-0.791525
H298	H	0.972369	-0.084525	-0.852481
H299	H	0.918150	-0.109044	-0.863454
H300	H	0.922100	-0.056079	-0.834491
H301	H	0.956153	-0.148583	-0.796369
H302	H	0.960113	-0.095622	-0.767405
H303	H	0.816317	-0.191162	-1.052975
H304	H	0.694889	-0.312495	-0.953859
O305	O	0.689535	-0.317871	-0.554782
C306	C	0.660012	-0.347399	-0.518960
H307	H	0.658214	-0.325995	-0.480040
H308	H	0.679133	-0.387113	-0.513154
C309	C	0.606569	-0.381208	-0.588053
C310	C	0.604358	-0.354917	-0.540251
H311	H	0.572240	-0.385848	-0.601187
H312	H	0.626461	-0.361316	-0.612187
H313	H	0.622506	-0.414300	-0.583208
H314	H	0.588428	-0.321824	-0.545098
H315	H	0.584462	-0.374804	-0.516119
