data_functionalizedCrystal
_audit_creation_method	'MofGen! by Chris Wilmer'
_symmetry_space_group_name_H-M	'P1'
_symmetry_Int_Tables_number	1
_symmetry_cell_setting	triclinic
loop_
_symmetry_equiv_pos_as_xyz
  x,y,z
_cell_length_a	18.101398
_cell_length_b	19.121063
_cell_length_c	18.101389
_cell_angle_alpha	92.419391
_cell_angle_beta	89.975673
_cell_angle_gamma	92.464489
loop_
_atom_site_label
_atom_site_type_symbol
_atom_site_fract_x
_atom_site_fract_y
_atom_site_fract_z
Zn1	Zn	1.119554	-0.279777	-0.431404
Zn2	Zn	1.619554	0.220223	0.068596
Zn3	Zn	1.114175	-0.397213	-0.312837
Zn4	Zn	1.614175	0.102787	0.187163
Zn5	Zn	0.995713	-0.279770	-0.307565
Zn6	Zn	1.495713	0.220230	0.192435
Zn7	Zn	0.990390	-0.397183	-0.436624
Zn8	Zn	1.490390	0.102817	0.063376
O9	O	1.054958	-0.338486	-0.372107
O10	O	1.554958	0.161514	0.127893
O11	O	1.222473	-0.295371	-0.415698
O12	O	1.722473	0.204629	0.084302
O13	O	1.098437	-0.381644	-0.208505
O14	O	1.598437	0.118356	0.291495
O15	O	1.016620	-0.181486	-0.319601
O16	O	1.516620	0.318514	0.180399
O17	O	1.218521	-0.381651	-0.328587
O18	O	1.718521	0.118349	0.171413
O19	O	1.107605	-0.181491	-0.410586
O20	O	1.607605	0.318509	0.089414
O21	O	1.011404	-0.295359	-0.204632
O22	O	1.511404	0.204641	0.295368
O23	O	0.891375	-0.295330	-0.324663
O24	O	1.391375	0.204670	0.175337
O25	O	1.007547	-0.381599	-0.539564
O26	O	1.507547	0.118401	-0.039564
O27	O	0.887464	-0.381592	-0.419482
O28	O	1.387464	0.118408	0.080518
O29	O	1.102443	-0.295342	-0.535729
O30	O	1.602443	0.204658	-0.035729
O31	O	1.093276	-0.495494	-0.333648
O32	O	1.593276	0.004506	0.166352
O33	O	1.002331	-0.495472	-0.424594
O34	O	1.502331	0.004528	0.075406
C35	C	0.862549	-0.338457	-0.372067
C36	C	1.362549	0.161543	0.127933
C37	C	0.780234	-0.338462	-0.372069
C38	C	1.280234	0.161538	0.127931
C39	C	0.481141	-0.338506	-0.372133
C40	C	0.981141	0.161494	0.127867
C41	C	0.514915	-0.283961	-0.312742
C42	C	1.014915	0.216039	0.187258
C43	C	0.600526	-0.284107	-0.312506
C44	C	1.100526	0.215893	0.187494
C45	C	0.629525	-0.338484	-0.372101
C46	C	1.129525	0.161516	0.127899
C47	C	0.595084	-0.412466	-0.354099
C48	C	1.095084	0.087534	0.145901
C49	C	0.509452	-0.412163	-0.353690
C50	C	1.009452	0.087837	0.146310
C51	C	0.513600	-0.319712	-0.449688
C52	C	1.013600	0.180288	0.050312
C53	C	0.599325	-0.318065	-0.449186
C54	C	1.099325	0.181935	0.050814
C55	C	0.713385	-0.338476	-0.372084
C56	C	1.213385	0.161524	0.127916
C57	C	0.397281	-0.338519	-0.372148
C58	C	0.897281	0.161481	0.127852
C59	C	1.046662	-0.520967	-0.380276
C60	C	1.546662	-0.020967	0.119724
C61	C	1.043181	-0.599034	-0.383795
C62	C	1.543181	-0.099034	0.116205
C63	C	1.088932	-0.635698	-0.338137
C64	C	1.588932	-0.135698	0.161863
C65	C	1.085662	-0.709049	-0.341451
C66	C	1.585662	-0.209049	0.158549
C67	C	1.036637	-0.745735	-0.390420
C68	C	1.536637	-0.245735	0.109580
C69	C	0.990884	-0.709066	-0.436083
C70	C	1.490884	-0.209066	0.063917
C71	C	0.994158	-0.635716	-0.432772
C72	C	1.494158	-0.135716	0.067228
C73	C	1.024385	-0.967206	-0.402788
C74	C	1.524385	-0.467206	0.097212
C75	C	1.021113	-1.040562	-0.406094
C76	C	1.521113	-0.540562	0.093906
C77	C	1.115892	-1.040539	-0.311462
C78	C	1.615892	-0.540539	0.188538
C79	C	1.119159	-0.967188	-0.308152
C80	C	1.619159	-0.467188	0.191848
C81	C	1.073408	-0.930525	-0.353818
C82	C	1.573408	-0.430525	0.146182
C83	C	1.033292	-0.820713	-0.393807
C84	C	1.533292	-0.320713	0.106193
C85	C	1.076758	-0.855549	-0.350434
C86	C	1.576758	-0.355549	0.149566
C87	C	1.248119	-0.338515	-0.372148
C88	C	1.748119	0.161485	0.127852
C89	C	1.330432	-0.338528	-0.372165
C90	C	1.830432	0.161472	0.127835
C91	C	1.055002	-0.338468	-0.565269
C92	C	1.555002	0.161532	-0.065269
C93	C	1.055020	-0.338461	-0.647582
C94	C	1.555020	0.161539	-0.147582
C95	C	1.063306	-0.155292	-0.363923
C96	C	1.563306	0.344708	0.136077
C97	C	1.066864	-0.077226	-0.360436
C98	C	1.566864	0.422774	0.139564
C99	C	1.055069	-0.338329	-0.946668
C100	C	1.555069	0.161671	-0.446668
C101	C	0.995174	-0.392427	-0.917747
C102	C	1.495174	0.107573	-0.417747
C103	C	0.995318	-0.392678	-0.832140
C104	C	1.495318	0.107322	-0.332140
C105	C	1.055044	-0.338394	-0.798288
C106	C	1.555044	0.161606	-0.298288
C107	C	1.132167	-0.358491	-0.830296
C108	C	1.632167	0.141509	-0.330296
C109	C	1.131831	-0.358846	-0.915957
C110	C	1.631831	0.141154	-0.415957
C111	C	1.038526	-0.264013	-0.911754
C112	C	1.538526	0.235987	-0.411754
C113	C	1.036771	-0.264443	-0.826122
C114	C	1.536771	0.235557	-0.326122
C115	C	1.055035	-0.338430	-0.714430
C116	C	1.555035	0.161570	-0.214430
C117	C	1.055084	-0.338295	-1.030526
C118	C	1.555084	0.161705	-0.530526
C119	C	1.054959	-0.338453	-0.179695
C120	C	1.554959	0.161547	0.320305
C121	C	1.055093	-0.338263	-0.097373
C122	C	1.555093	0.161737	0.402627
H123	H	0.620422	-0.296530	-0.254971
H124	H	1.120422	0.203470	0.245029
H125	H	1.177847	-0.320327	-0.808236
H126	H	1.677847	0.179673	-0.308236
Cl127	Cl	1.099628	-0.198907	-0.790176
Cl128	Cl	1.599628	0.301093	-0.290176
Cl129	Cl	0.483976	-0.237869	-0.475945
Cl130	Cl	0.983976	0.262131	0.024055
Cl131	Cl	0.623620	-0.476894	-0.419024
Cl132	Cl	1.123620	0.023106	0.080976
H133	H	1.159079	-0.937319	-0.268278
H134	H	1.659079	-0.437319	0.231722
H135	H	1.116677	-0.825677	-0.310566
H136	H	1.616677	-0.325677	0.189434
H137	H	0.491559	-0.359441	-0.493899
H138	H	0.991559	0.140559	0.006101
H139	H	0.956904	-0.605865	-0.469953
H140	H	1.456904	-0.105865	0.030047
H141	H	1.153140	-1.070398	-0.274285
H142	H	1.653140	-0.570398	0.225715
H143	H	0.981200	-1.070430	-0.445983
H144	H	1.481200	-0.570430	0.054017
H145	H	0.993375	-0.850591	-0.433677
H146	H	1.493375	-0.350591	0.066323
H147	H	0.938024	-0.380101	-0.810543
H148	H	1.438024	0.119899	-0.310543
H149	H	0.492814	-0.296243	-0.255539
H150	H	0.992814	0.203757	0.244461
H151	H	0.488724	-0.428103	-0.297092
H152	H	0.988724	0.071897	0.202908
H153	H	0.615770	-0.428682	-0.298133
H154	H	1.115770	0.071318	0.201867
H155	H	1.082192	-0.223708	-0.930220
H156	H	1.582192	0.276292	-0.430220
H157	H	0.486843	-0.454179	-0.395241
H158	H	0.986843	0.045821	0.104759
Cl159	Cl	0.906433	-0.373207	-0.948660
Cl160	Cl	1.406433	0.126793	-0.448660
H161	H	1.005710	-0.447176	-0.941732
H162	H	1.505710	0.052824	-0.441732
H163	H	1.146245	-0.413172	-0.938380
H164	H	1.646245	0.086828	-0.438380
Cl165	Cl	0.486973	-0.198996	-0.329333
Cl166	Cl	0.986973	0.301004	0.170667
Cl167	Cl	0.636820	-0.199404	-0.329336
Cl168	Cl	1.136820	0.300596	0.170664
Cl169	Cl	0.634523	-0.234016	-0.470248
Cl170	Cl	1.134523	0.265984	0.029752
Cl171	Cl	1.150562	-0.589585	-0.276568
Cl172	Cl	1.650562	-0.089585	0.223432
H173	H	1.005969	-0.447763	-0.814132
H174	H	1.505969	0.052237	-0.314132
H175	H	1.177791	-0.321154	-0.935005
H176	H	1.677791	0.178846	-0.435005
Cl177	Cl	0.629812	-0.374937	-0.520755
Cl178	Cl	1.129812	0.125063	-0.020755
H179	H	1.122917	-0.738898	-0.304271
H180	H	1.622917	-0.238898	0.195729
H181	H	1.146898	-0.412240	-0.811268
H182	H	1.646898	0.087760	-0.311268
Cl183	Cl	0.929257	-0.755187	-0.497649
Cl184	Cl	1.429257	-0.255187	0.002351
Cl185	Cl	0.966868	-0.921126	-0.460195
Cl186	Cl	1.466868	-0.421126	0.039805
Cl187	Cl	0.953477	-0.235747	-0.943807
Cl188	Cl	1.453477	0.264253	-0.443807
Cl189	Cl	0.949165	-0.241045	-0.793691
Cl190	Cl	1.449165	0.258955	-0.293691
