data_functionalizedCrystal
_audit_creation_method	'MofGen! by Chris Wilmer'
_symmetry_space_group_name_H-M	'P1'
_symmetry_Int_Tables_number	1
_symmetry_cell_setting	triclinic
loop_
_symmetry_equiv_pos_as_xyz
  x,y,z
_cell_length_a	10.654550
_cell_length_b	14.044220
_cell_length_c	9.730223
_cell_angle_alpha	89.997406
_cell_angle_beta	89.996251
_cell_angle_gamma	88.836890
loop_
_atom_site_label
_atom_site_type_symbol
_atom_site_fract_x
_atom_site_fract_y
_atom_site_fract_z
O1	O	1.681222	0.133227	-0.114408
O2	O	1.317019	0.145921	-0.114387
O3	O	1.493654	0.001554	-0.114384
O4	O	1.504587	0.277595	-0.114411
O5	O	1.493652	0.001557	0.114196
O6	O	1.317017	0.145925	0.114193
O7	O	1.681220	0.133231	0.114172
Zn8	Zn	1.499118	0.139578	0.150474
Zn9	Zn	1.499121	0.139574	-0.150689
O10	O	1.504585	0.277598	0.114169
C11	C	1.270127	0.144991	-0.000094
C12	C	1.130403	0.142202	-0.000085
C13	C	1.059459	0.227203	-0.000114
C14	C	0.928175	0.224578	-0.000137
C15	C	0.938790	0.051942	-0.000109
C16	C	1.070072	0.054569	-0.000076
C17	C	1.053329	0.326873	-0.000136
C18	C	0.922045	0.324247	-0.000159
C19	C	1.488867	-0.033790	-0.000093
C20	C	1.474592	-0.139110	-0.000090
C21	C	1.448493	-0.331943	-0.000108
C22	C	1.549741	-0.388911	-0.000119
C23	C	1.535219	-0.496210	-0.000129
C24	C	1.463013	-0.224634	-0.000098
C25	C	1.728113	0.134161	-0.000124
C26	C	1.867836	0.136950	-0.000142
C27	C	1.509372	0.312942	-0.000125
C28	C	1.523648	0.418262	-0.000137
N29	N	1.499126	0.139581	0.356011
N30	N	1.499123	0.139563	-0.356226
C31	C	1.577364	0.075677	0.427938
C32	C	1.577359	0.075666	0.571821
C33	C	1.420876	0.203470	0.571837
C34	C	1.420875	0.203477	0.427956
C35	C	1.667713	0.001893	0.427931
C36	C	1.667708	0.001881	0.571814
H37	H	1.086577	0.365855	0.095526
H38	H	1.761218	0.024996	0.383296
N39	N	1.326067	-0.371827	-0.000070
N40	N	1.230861	-0.318334	-0.000039
H41	H	1.144396	-0.346510	-0.000002
H42	H	1.357156	0.255504	0.369394
N43	N	1.340950	0.268725	0.645351
N44	N	1.340953	0.268706	0.773814
H45	H	1.284504	0.314793	0.825734
N46	N	1.102053	0.366682	-0.123947
N47	N	1.028757	0.394299	-0.216692
H48	H	1.063167	0.422412	-0.304137
N49	N	1.631580	-0.089563	0.378958
N50	N	1.606114	-0.154002	0.462447
H51	H	1.580578	-0.218587	0.427861
H52	H	1.647328	-0.357098	-0.000217
N53	N	1.620721	-0.084542	0.627800
N54	N	1.511405	-0.109264	0.600831
H55	H	1.478213	-0.170297	0.640371
N56	N	0.868555	0.362027	0.123643
N57	N	0.938281	0.392518	0.216375
H58	H	0.900503	0.419195	0.303812
N59	N	0.874422	0.371318	-0.120204
N60	N	0.904637	0.341446	-0.236853
H61	H	0.870999	0.374678	-0.321638
N62	N	1.790825	0.022277	0.620792
N63	N	1.840667	0.099166	0.589767
H64	H	1.927615	0.113571	0.624360
N65	N	1.142538	-0.032258	-0.000005
N66	N	1.131399	-0.090333	0.096365
H67	H	1.182579	-0.151659	0.096419
N68	N	0.877140	-0.037561	-0.000091
N69	N	0.759925	-0.039896	-0.000109
H70	H	0.716384	-0.103109	-0.000096
