data_functionalizedCrystal
_audit_creation_method	'MofGen! by Chris Wilmer'
_symmetry_space_group_name_H-M	'P1'
_symmetry_Int_Tables_number	1
_symmetry_cell_setting	triclinic
loop_
_symmetry_equiv_pos_as_xyz
  x,y,z
_cell_length_a	6.817900
_cell_length_b	17.982723
_cell_length_c	9.514088
_cell_angle_alpha	91.869510
_cell_angle_beta	118.843545
_cell_angle_gamma	102.447564
loop_
_atom_site_label
_atom_site_type_symbol
_atom_site_fract_x
_atom_site_fract_y
_atom_site_fract_z
V1	V	-4.212560	-0.106766	-0.501435
O2	O	-4.201534	0.003741	-0.491187
O3	O	-4.157999	-0.210362	-0.498681
O4	O	-4.247385	-0.105733	-0.719819
O5	O	-4.111529	-0.101612	-0.268518
V6	V	-4.686202	-0.093476	-0.473494
O7	O	-4.495493	-0.135918	-0.562725
O8	O	-4.853466	-0.064323	-0.412203
O9	O	-4.517556	0.010120	-0.476247
O10	O	-4.814624	-0.203982	-0.483742
O11	O	-4.904629	-0.098629	-0.706411
O12	O	-4.428170	-0.094508	-0.255109
C13	C	-3.998808	-0.235597	-0.490945
C14	C	-4.036040	-0.320292	-0.490149
C15	C	-4.449594	-0.844065	-0.493211
C16	C	-4.414604	-0.764486	-0.493966
C17	C	-4.212123	-0.720798	-0.486306
C18	C	-4.044611	-0.756691	-0.477874
C19	C	-4.079595	-0.836269	-0.477108
C20	C	-3.903518	-0.435765	-0.480963
C21	C	-3.868549	-0.356183	-0.481735
C22	C	-4.238527	-0.363982	-0.497821
C23	C	-4.273511	-0.443560	-0.497055
C24	C	-4.105992	-0.479446	-0.488614
C25	C	-4.143933	-0.565735	-0.487793
C26	C	-4.174188	-0.634511	-0.487139
C27	C	-4.112827	-0.102132	-0.773027
C28	C	-4.222544	-0.101974	-0.951562
C29	C	-4.340087	0.035352	-0.483979
C30	C	-4.282097	0.120046	-0.484785
C31	C	-4.226066	-0.098112	-0.201893
C32	C	-4.095588	-0.098266	-0.023357
H33	H	-3.943209	-0.865489	-0.470260
H34	H	-3.902964	-0.095221	-0.948241
C35	C	-4.422781	-0.324504	-0.507081
H36	H	-4.372944	-0.270852	-0.506422
H37	H	-4.565775	-0.346365	-0.604397
H38	H	-4.443261	-0.331930	-0.416112
H39	H	-3.703658	-0.320613	-0.475496
C40	C	-4.482779	-0.106092	-1.053036
H41	H	-4.524859	-0.105433	-1.163743
H42	H	-4.571268	-0.152364	-1.043958
H43	H	-4.512745	-0.063006	-1.014020
C44	C	-4.598845	-0.725008	-0.503237
H45	H	-4.549004	-0.671356	-0.502575
H46	H	-4.741839	-0.746868	-0.600553
H47	H	-4.619328	-0.732434	-0.412269
H48	H	-3.767096	-0.464972	-0.474071
H49	H	-4.614480	-0.879632	-0.499459
H50	H	-3.879738	-0.721113	-0.471627
C51	C	-4.496232	-0.491612	-0.505473
H52	H	-4.590968	-0.458839	-0.510584
H53	H	-4.578828	-0.530039	-0.599641
H54	H	-4.456293	-0.515594	-0.411356
