data_functionalizedCrystal
_audit_creation_method	'MofGen! by Chris Wilmer'
_symmetry_space_group_name_H-M	'P1'
_symmetry_Int_Tables_number	1
_symmetry_cell_setting	triclinic
loop_
_symmetry_equiv_pos_as_xyz
  x,y,z
_cell_length_a	14.971486
_cell_length_b	10.654560
_cell_length_c	14.048226
_cell_angle_alpha	89.995382
_cell_angle_beta	89.998499
_cell_angle_gamma	84.051708
loop_
_atom_site_label
_atom_site_type_symbol
_atom_site_fract_x
_atom_site_fract_y
_atom_site_fract_z
O1	O	1.187842	0.163658	-0.079047
O2	O	0.927549	0.183256	-0.079073
O3	O	1.063675	-0.009345	-0.079057
O4	O	1.051716	0.356260	-0.079063
O5	O	1.063659	-0.009357	0.079264
O6	O	0.927533	0.183245	0.079249
O7	O	1.187825	0.163647	0.079274
Zn8	Zn	1.057676	0.173444	0.104398
Zn9	Zn	1.057698	0.173459	-0.104197
O10	O	1.051699	0.356248	0.079259
C11	C	0.894211	0.182374	0.000085
C12	C	0.794900	0.179748	0.000075
C13	C	1.062787	-0.056139	0.000102
C14	C	1.060154	-0.195554	0.000097
C15	C	0.738293	0.292896	0.000075
C16	C	0.644980	0.290421	0.000089
C17	C	0.608276	0.174796	0.000097
C18	C	0.664889	0.061639	0.000100
C19	C	0.758201	0.064115	0.000092
C20	C	0.470399	0.056485	0.000113
C21	C	0.377081	0.054007	0.000118
C22	C	0.357178	0.282790	0.000109
C23	C	0.450490	0.285266	0.000102
C24	C	0.507097	0.172109	0.000103
C25	C	1.056448	-0.392059	0.086398
C26	C	1.058911	-0.261062	0.086399
C27	C	1.058924	-0.261047	-0.086212
C28	C	1.056454	-0.392040	-0.086212
C29	C	1.055214	-0.457562	0.172706
C30	C	1.056442	-0.392078	0.259015
C31	C	1.058905	-0.261082	0.259016
C32	C	1.060140	-0.195569	0.172708
C33	C	1.221163	0.164529	0.000115
C34	C	1.320475	0.167155	0.000118
C35	C	1.052588	0.403042	0.000098
C36	C	1.055221	0.542457	0.000096
N37	N	1.057668	0.173433	0.246759
N38	N	1.057714	0.173460	-0.246558
C39	C	1.117964	0.088184	0.296584
C40	C	1.117970	0.088184	0.396241
C41	C	1.057684	0.173439	0.446072
C42	C	0.997381	0.258692	0.396241
C43	C	0.997372	0.258685	0.296585
C44	C	0.997407	0.258701	0.603955
C45	C	0.997418	0.258709	0.703618
C46	C	1.118005	0.088199	0.703612
C47	C	1.117996	0.088193	0.603956
C48	C	1.057694	0.173448	0.554131
H49	H	0.768170	0.387051	0.000068
H50	H	0.948290	0.328104	0.436819
C51	C	0.820468	-0.060357	0.000090
N52	N	0.867367	-0.154113	0.000090
C53	C	1.055075	-0.464143	0.353948
N54	N	1.054045	-0.518420	0.425454
H55	H	1.167060	0.018765	0.256018
H56	H	1.062130	-0.088900	0.172715
C57	C	1.060250	-0.189052	0.353956
N58	N	1.061267	-0.134802	0.425468
H59	H	1.167067	0.018767	0.436808
C60	C	1.184314	-0.005592	0.549144
N61	N	1.234263	-0.076236	0.507859
C62	C	1.052501	-0.601661	0.172713
N63	N	1.050458	-0.710195	0.172717
H64	H	0.598894	0.382558	0.000088
H65	H	1.059930	-0.207696	-0.156479
H66	H	0.480371	0.379418	0.000087
H67	H	0.516487	-0.035661	0.000115
H68	H	1.055449	-0.445357	-0.156486
H69	H	1.167105	0.018782	0.744185
H70	H	0.948325	0.328131	0.744185
C71	C	0.931062	0.352473	0.549150
N72	N	0.881093	0.423100	0.507871
H73	H	0.311084	0.374927	0.000113
C74	C	0.624511	-0.065550	0.000110
N75	N	0.594099	-0.161352	0.000114
C76	C	0.336708	-0.073186	0.000129
N77	N	0.306300	-0.168990	0.000136
C78	C	0.931048	0.352476	0.241778
N79	N	0.881092	0.423122	0.200499
