data_functionalizedCrystal
_audit_creation_method	'MofGen! by Chris Wilmer'
_symmetry_space_group_name_H-M	'P1'
_symmetry_Int_Tables_number	1
_symmetry_cell_setting	triclinic
loop_
_symmetry_equiv_pos_as_xyz
  x,y,z
_cell_length_a	12.759400
_cell_length_b	12.759401
_cell_length_c	12.759393
_cell_angle_alpha	90.024952
_cell_angle_beta	89.970195
_cell_angle_gamma	89.986081
loop_
_atom_site_label
_atom_site_type_symbol
_atom_site_fract_x
_atom_site_fract_y
_atom_site_fract_z
Zn1	Zn	-0.418236	-1.606267	-0.594138
Zn2	Zn	-0.593951	-1.606158	-0.418460
Zn3	Zn	-0.418285	-1.430566	-0.418461
Zn4	Zn	-0.593871	-1.430558	-0.594085
O5	O	-0.506086	-1.518387	-0.506286
O6	O	-0.441558	-1.753273	-0.570855
O7	O	-0.570703	-1.582823	-0.271439
O8	O	-0.271257	-1.453922	-0.441787
O9	O	-0.570655	-1.753194	-0.441786
O10	O	-0.271221	-1.583008	-0.570856
O11	O	-0.441641	-1.453816	-0.271439
O12	O	-0.441564	-1.283543	-0.441736
O13	O	-0.570518	-1.453908	-0.741113
O14	O	-0.570566	-1.283538	-0.570766
O15	O	-0.441480	-1.583001	-0.741152
O16	O	-0.740962	-1.582815	-0.441735
O17	O	-0.740903	-1.453803	-0.570765
C18	C	-0.506062	-1.245420	-0.506246
C19	C	-0.506077	-1.128643	-0.506254
C20	C	-0.573190	-1.073736	-0.438958
C21	C	-0.573206	-0.964011	-0.438980
C22	C	-0.438987	-0.964112	-0.573596
C23	C	-0.438977	-1.073834	-0.573579
C24	C	-0.697080	-0.814020	-0.401252
C25	C	-0.764184	-0.759109	-0.333940
C26	C	-0.780188	-0.794656	-0.231392
C27	C	-0.729073	-0.885113	-0.196136
C28	C	-0.661961	-0.940019	-0.263443
C29	C	-0.645977	-0.904473	-0.366005
C30	C	-0.315102	-1.223828	-0.611295
C31	C	-0.247985	-1.278735	-0.678597
C32	C	-0.231970	-1.243190	-0.781147
C33	C	-0.283066	-1.152729	-0.816400
C34	C	-0.350184	-1.097822	-0.749097
C35	C	-0.366200	-1.133375	-0.646549
C36	C	-0.779053	-1.518325	-0.506267
C37	C	-0.895830	-1.518394	-0.506294
C38	C	-0.950583	-1.585581	-0.573558
C39	C	-1.060307	-1.585640	-0.573586
C40	C	-1.060515	-1.451323	-0.439079
C41	C	-0.950793	-1.451260	-0.439056
C42	C	-0.232052	-1.518478	-0.506327
C43	C	-0.115276	-1.518517	-0.506345
C44	C	-0.505985	-1.518466	-0.780319
C45	C	-0.505942	-1.518499	-0.897096
C46	C	-0.506106	-0.792420	-0.506314
C47	C	-0.506103	-0.909197	-0.506293
C48	C	-0.438741	-1.585723	-0.951980
C49	C	-0.438695	-1.585741	-1.061704
C50	C	-0.573061	-1.451308	-1.061651
C51	C	-0.573101	-1.451286	-0.951929
C52	C	-0.506110	-1.518369	-0.233318
C53	C	-0.505857	-1.518539	-0.116542
H54	H	-0.805801	-0.685458	-0.362655
H55	H	-0.206372	-1.352388	-0.649883
H56	H	-0.383972	-1.640479	-1.106386
H57	H	-0.270019	-1.123782	-0.899901
H58	H	-0.627742	-1.396588	-1.106309
O59	O	-0.845305	-0.741420	-0.165855
C60	C	-0.922401	-0.731796	0.006323
C61	C	-0.848605	-0.792174	-0.067771
H62	H	-0.925111	-0.772818	0.085633
H63	H	-0.892293	-0.648354	0.016973
H64	H	-1.004499	-0.729553	-0.028819
H65	H	-0.766489	-0.794498	-0.032689
H66	H	-0.878800	-0.875583	-0.078418
O67	O	-0.330625	-1.258178	-0.511606
C68	C	-0.316483	-1.219050	-0.327382
C69	C	-0.298887	-1.180010	-0.440225
H70	H	-0.290812	-1.155879	-0.269639
H71	H	-0.403143	-1.237064	-0.315178
H72	H	-0.268450	-1.293153	-0.313792
H73	H	-0.346857	-1.105885	-0.453894
H74	H	-0.212206	-1.162068	-0.452375
H75	H	-0.905835	-1.640244	-0.628309
H76	H	-1.104882	-1.640347	-0.628361
O77	O	-0.166900	-1.296663	-0.846544
C78	C	-0.130381	-1.460317	-0.933541
C79	C	-0.204165	-1.399882	-0.859483
H80	H	-0.160470	-1.543787	-0.944007
H81	H	-0.127732	-1.419450	-1.012935
H82	H	-0.048262	-1.462471	-0.898443
H83	H	-0.286320	-1.397710	-0.894485
H84	H	-0.206724	-1.440771	-0.780098
O85	O	-1.113746	-1.386019	-0.373727
C86	C	-1.102370	-1.252837	-0.240264
C87	C	-1.041959	-1.326721	-0.314242
H88	H	-1.044357	-1.204891	-0.192136
H89	H	-1.153722	-1.197836	-0.288406
H90	H	-1.153765	-1.301148	-0.185429
H91	H	-0.990506	-1.278494	-0.369092
H92	H	-0.990673	-1.381724	-0.266035
O93	O	-0.638527	-1.126932	-0.373682
C94	C	-0.817176	-1.160395	-0.322339
C95	C	-0.743297	-1.100108	-0.396342
H96	H	-0.901897	-1.138713	-0.340618
H97	H	-0.805733	-1.248261	-0.333887
H98	H	-0.798577	-1.138786	-0.237663
H99	H	-0.761850	-1.121628	-0.481046
H100	H	-0.754753	-1.012256	-0.384703
O101	O	-0.612408	-1.027875	-0.229047
C102	C	-0.584567	-1.146992	-0.085225
C103	C	-0.640776	-1.047498	-0.124057
H104	H	-0.607464	-1.162876	-0.000331
H105	H	-0.608392	-1.216522	-0.136040
H106	H	-0.496163	-1.135192	-0.090542
H107	H	-0.729191	-1.059195	-0.118741
H108	H	-0.616865	-0.978003	-0.073236
O109	O	-0.638536	-1.386095	-0.898654
C110	C	-0.817249	-1.334983	-0.865076
C111	C	-0.743273	-1.408891	-0.925457
H112	H	-0.901944	-1.353372	-0.886740
H113	H	-0.805828	-1.346516	-0.777224
H114	H	-0.798729	-1.250284	-0.886618
H115	H	-0.761748	-1.493619	-0.904002
H116	H	-0.754709	-1.397267	-1.013293
H117	H	-0.384053	-1.640449	-0.907338
H118	H	-0.742100	-0.914042	-0.112627
O119	O	-0.681736	-0.779467	-0.500894
C120	C	-0.760680	-0.738905	-0.667540
C121	C	-0.778209	-0.778035	-0.554717
H122	H	-0.838662	-0.737755	-0.711094
H123	H	-0.726475	-0.656395	-0.665511
H124	H	-0.703902	-0.793671	-0.709561
H125	H	-0.835007	-0.723346	-0.512629
H126	H	-0.812363	-0.860563	-0.556820
H127	H	-0.384356	-0.919473	-0.628409
O128	O	-0.897483	-1.386137	-0.373661
C129	C	-0.773756	-1.372004	-0.231742
C130	C	-0.834046	-1.445872	-0.305743
H131	H	-0.722470	-1.420271	-0.176798
H132	H	-0.722328	-1.317034	-0.279863
H133	H	-0.831904	-1.324014	-0.183732
H134	H	-0.775973	-1.493931	-0.353769
H135	H	-0.885489	-1.500773	-0.257562
H136	H	-0.391778	-1.024156	-0.777804
