data_functionalizedCrystal
_audit_creation_method	'MofGen! by Chris Wilmer'
_symmetry_space_group_name_H-M	'P1'
_symmetry_Int_Tables_number	1
_symmetry_cell_setting	triclinic
loop_
_symmetry_equiv_pos_as_xyz
  x,y,z
_cell_length_a	19.188925
_cell_length_b	19.188924
_cell_length_c	14.586319
_cell_angle_alpha	89.994146
_cell_angle_beta	89.995548
_cell_angle_gamma	83.142256
loop_
_atom_site_label
_atom_site_type_symbol
_atom_site_fract_x
_atom_site_fract_y
_atom_site_fract_z
O1	O	0.926144	0.087149	-0.076264
O2	O	0.722832	0.098887	-0.076262
O3	O	0.830358	-0.008638	-0.076253
O4	O	0.818618	0.194674	-0.076274
O5	O	0.830350	-0.008640	0.076228
O6	O	0.722825	0.098886	0.076219
O7	O	0.926137	0.087147	0.076217
Cu8	Cu	0.824480	0.093016	0.090140
Cu9	Cu	0.824489	0.093018	-0.090186
O10	O	0.818611	0.194673	0.076207
C11	C	0.696817	0.098507	-0.000022
C12	C	0.619313	0.097368	-0.000020
C13	C	0.057541	0.152832	-0.000028
C14	C	0.130364	0.153908	-0.000033
C15	C	0.175300	0.090816	-0.000025
C16	C	0.147408	0.026642	-0.000035
C17	C	0.074586	0.025568	-0.000039
N18	N	0.295976	0.045139	0.051885
N19	N	0.365153	0.046164	0.051891
C20	C	0.394709	0.094050	-0.000015
N21	N	0.352473	0.140883	-0.051915
N22	N	0.283289	0.139859	-0.051917
C23	C	0.254264	0.091974	-0.000021
C24	C	0.501557	0.159387	-0.000016
C25	C	0.574381	0.160461	-0.000027
C26	C	0.591424	0.033193	-0.000020
C27	C	0.518600	0.032121	-0.000018
C28	C	0.473671	0.095220	-0.000012
C29	C	0.829975	-0.034650	-0.000011
C30	C	0.828836	-0.112155	-0.000009
C31	C	0.828308	-0.148553	-0.083126
C32	C	0.827229	-0.221375	-0.083133
C33	C	0.826690	-0.257799	-0.000018
C34	C	0.827214	-0.221392	0.083110
C35	C	0.828287	-0.148570	0.083115
N36	N	0.864735	-0.377464	0.061842
N37	N	0.863717	-0.446642	0.061832
C38	C	0.823456	-0.477208	-0.000027
N39	N	0.784260	-0.435984	-0.061890
N40	N	0.785281	-0.366800	-0.061882
C41	C	0.825526	-0.336763	-0.000014
C42	C	0.821757	-0.592569	-0.083158
C43	C	0.820672	-0.665392	-0.083161
C44	C	0.820665	-0.665408	0.083085
C45	C	0.821742	-0.592585	0.083086
C46	C	0.822291	-0.556170	-0.000038
C47	C	0.952151	0.087528	-0.000026
C48	C	1.029656	0.088667	-0.000033
C49	C	0.818994	0.220684	-0.000036
C50	C	0.820133	0.298189	-0.000045
N51	N	0.824479	0.093015	0.216972
N52	N	0.824495	0.093014	-0.217018
C53	C	0.872107	0.045418	0.451983
C54	C	0.872109	0.045417	0.547964
C55	C	0.776862	0.140613	0.547965
C56	C	0.776857	0.140611	0.451985
C57	C	0.824484	0.093014	0.403997
C58	C	0.824491	0.093015	0.595958
C59	C	0.824492	0.093013	0.700025
C60	C	0.824481	0.093015	0.299923
H61	H	0.153073	0.206161	-0.000021
C62	C	0.640844	-0.036208	-0.000013
H63	H	0.688209	-0.026379	-0.000006
H64	H	0.632414	-0.062527	-0.053185
H65	H	0.632408	-0.062530	0.053169
H66	H	0.051883	-0.026685	-0.000044
H67	H	0.826773	-0.251052	0.150783
H68	H	0.828754	-0.118908	-0.150812
C69	C	0.487925	-0.038462	-0.000008
H70	H	0.525115	-0.075884	0.000004
H71	H	0.459874	-0.041527	-0.053181
H72	H	0.459869	-0.041525	0.053173
H73	H	0.597083	0.212714	-0.000031
H74	H	0.183999	-0.024728	-0.000031
H75	H	0.910886	0.006661	0.412913
H76	H	0.020963	0.204212	-0.000028
H77	H	0.820221	-0.695063	0.150759
H78	H	0.826795	-0.251016	-0.150820
C79	C	0.724476	0.192972	0.399193
H80	H	0.731291	0.186149	0.335158
H81	H	0.731916	0.239552	0.414912
H82	H	0.677900	0.185507	0.414929
C83	C	0.452132	0.228791	-0.000030
H84	H	0.479172	0.267161	-0.000044
H85	H	0.423364	0.231021	0.053141
H86	H	0.423377	0.231013	-0.053213
C87	C	0.828873	-0.108531	0.174548
H88	H	0.828401	-0.140651	0.224050
H89	H	0.788588	-0.074669	0.178006
H90	H	0.870006	-0.085580	0.178003
H91	H	0.910887	0.006659	0.587032
H92	H	0.738087	0.179366	0.587047
C93	C	0.822353	-0.552508	-0.174588
H94	H	0.821873	-0.584617	-0.224092
H95	H	0.863479	-0.529553	-0.178043
H96	H	0.782061	-0.518648	-0.178039
C97	C	0.820089	-0.705430	-0.174595
H98	H	0.820575	-0.673311	-0.224096
H99	H	0.778963	-0.728384	-0.178057
H100	H	0.860380	-0.739291	-0.178048
H101	H	0.822177	-0.562950	0.150770
