data_functionalizedCrystal
_audit_creation_method	'MofGen! by Chris Wilmer'
_symmetry_space_group_name_H-M	'P1'
_symmetry_Int_Tables_number	1
_symmetry_cell_setting	triclinic
loop_
_symmetry_equiv_pos_as_xyz
  x,y,z
_cell_length_a	10.654550
_cell_length_b	10.654550
_cell_length_c	9.730223
_cell_angle_alpha	90.000193
_cell_angle_beta	90.003749
_cell_angle_gamma	84.484903
loop_
_atom_site_label
_atom_site_type_symbol
_atom_site_fract_x
_atom_site_fract_y
_atom_site_fract_z
O1	O	-1.667834	-0.176393	-0.114399
O2	O	-1.302355	-0.193199	-0.114377
O3	O	-1.493498	-0.002057	-0.114383
O4	O	-1.476692	-0.367535	-0.114393
O5	O	-1.493496	-0.002062	0.114197
O6	O	-1.302353	-0.193204	0.114203
O7	O	-1.667832	-0.176398	0.114181
Zn8	Zn	-1.485092	-0.184802	0.150484
Zn9	Zn	-1.485095	-0.184795	-0.150680
O10	O	-1.476689	-0.367540	0.114187
C11	C	-1.255556	-0.191968	-0.000084
C12	C	-1.116113	-0.188276	-0.000075
N13	N	-1.485099	-0.184805	0.356020
C14	C	-1.714631	-0.177630	-0.000115
C15	C	-1.854074	-0.181321	-0.000133
C16	C	-1.036627	-0.300817	-0.000098
C17	C	-0.905607	-0.297341	-0.000122
C18	C	-0.933570	-0.068771	-0.000106
C19	C	-1.064588	-0.072249	-0.000072
C20	C	-1.020482	-0.432780	-0.000114
C21	C	-0.889461	-0.429304	-0.000137
C22	C	-1.492263	0.044739	-0.000095
C23	C	-1.488571	0.184182	-0.000100
C24	C	-1.477925	-0.414336	-0.000104
C25	C	-1.481616	-0.553779	-0.000109
C26	C	-1.601112	0.263668	-0.000102
C27	C	-1.597636	0.394688	-0.000112
C28	C	-1.369066	0.366725	-0.000110
C29	C	-1.372544	0.235707	-0.000110
C30	C	-1.733075	0.279813	-0.000097
C31	C	-1.729599	0.410834	-0.000107
N32	N	-1.485098	-0.184782	-0.356216
C33	C	-1.569759	-0.100197	0.427943
C34	C	-1.569756	-0.100181	0.571826
C35	C	-1.400429	-0.269395	0.571850
C36	C	-1.400427	-0.269403	0.427970
C37	C	-1.667522	-0.002506	0.427931
C38	C	-1.667519	-0.002491	0.571814
H39	H	-1.129302	0.019393	-0.000034
C40	C	-1.789844	0.231674	0.133231
N41	N	-1.832600	0.195414	0.233657
H42	H	-1.779319	0.452592	0.095548
H43	H	-0.891602	0.025694	-0.000124
C44	C	-1.626283	0.120738	0.632100
N45	N	-1.595216	0.213548	0.677510
H46	H	-1.049812	-0.484393	0.095551
H47	H	-1.056138	-0.474797	-0.098802
H48	H	-0.843789	-0.469187	0.098546
H49	H	-0.847729	-0.479023	-0.095806
C50	C	-1.802798	0.240147	-0.129327
N51	N	-1.855310	0.210271	-0.226663
H52	H	-1.280902	0.170993	-0.000127
H53	H	-1.331480	-0.338287	0.369412
C54	C	-1.790710	-0.043821	0.367627
N55	N	-1.883495	-0.074940	0.322206
H56	H	-1.274601	0.408693	-0.000120
C57	C	-1.797868	-0.031657	0.624567
N58	N	-1.896032	-0.053661	0.664300
H59	H	-1.769481	0.456479	-0.098804
H60	H	-1.331490	-0.338271	0.630447
C61	C	-1.638545	0.127900	0.375169
N62	N	-1.616717	0.226118	0.335430
