data_functionalizedCrystal
_audit_creation_method	'MofGen! by Chris Wilmer'
_symmetry_space_group_name_H-M	'P1'
_symmetry_Int_Tables_number	1
_symmetry_cell_setting	triclinic
loop_
_symmetry_equiv_pos_as_xyz
  x,y,z
_cell_length_a	14.044220
_cell_length_b	17.699083
_cell_length_c	16.776229
_cell_angle_alpha	90.004823
_cell_angle_beta	90.008613
_cell_angle_gamma	91.764054
loop_
_atom_site_label
_atom_site_type_symbol
_atom_site_fract_x
_atom_site_fract_y
_atom_site_fract_z
O1	O	0.119852	-1.012339	0.066178
O2	O	0.135445	-0.793037	0.066204
O3	O	-0.010329	-0.899396	0.066183
O4	O	0.265626	-0.905980	0.066198
O5	O	-0.010341	-0.899393	-0.066393
O6	O	0.135432	-0.793034	-0.066372
O7	O	0.119839	-1.012337	-0.066399
Zn8	Zn	0.127634	-0.902685	-0.087435
Zn9	Zn	0.127651	-0.902689	0.087240
O10	O	0.265613	-0.905977	-0.066378
C11	C	0.134880	-0.764800	-0.000081
C12	C	0.133204	-0.680666	-0.000071
C13	C	-0.045643	-0.896513	-0.000105
C14	C	-0.150849	-0.887917	-0.000105
N15	N	0.127655	-0.902691	0.206452
C16	C	-0.343474	-0.872202	-0.000091
C17	C	-0.401248	-0.933168	-0.000096
C18	C	-0.508431	-0.924424	-0.000089
C19	C	-0.236281	-0.880945	-0.000099
C20	C	0.300927	-0.908860	-0.000088
C21	C	0.406133	-0.917456	-0.000083
C22	C	0.120404	-1.040574	-0.000112
C23	C	0.122081	-1.124707	-0.000117
C24	C	0.218769	-0.637948	-0.000067
C25	C	0.217189	-0.558895	-0.000077
C26	C	0.130041	-0.522563	-0.000086
C27	C	0.044469	-0.565287	-0.000093
C28	C	0.046050	-0.644338	-0.000088
C29	C	0.038089	-0.246484	-0.000113
C30	C	0.036514	-0.167427	-0.000115
C31	C	0.209227	-0.161041	-0.000102
C32	C	0.210809	-0.240092	-0.000097
C33	C	0.125237	-0.282809	-0.000108
C34	C	0.126952	-0.368527	-0.000098
C35	C	0.128325	-0.436847	-0.000090
N36	N	0.127621	-0.902688	-0.206646
C37	C	0.063234	-0.949891	0.248159
C38	C	0.063231	-0.949894	0.331612
C39	C	0.127647	-0.902692	0.373354
C40	C	0.192075	-0.855490	0.331641
C41	C	0.192081	-0.855492	0.248190
C42	C	0.192052	-0.855483	0.668188
C43	C	0.192039	-0.855483	0.751644
C44	C	0.063202	-0.949885	0.751610
C45	C	0.063208	-0.949887	0.668159
C46	C	0.127640	-0.902688	0.626452
C47	C	0.127643	-0.902686	0.535964
C48	C	0.127640	-0.902689	0.463841
H49	H	-0.374508	-0.813445	-0.000082
H50	H	0.010775	-0.988329	0.365570
H51	H	-0.370212	-0.991930	-0.000050
O52	O	0.303509	-0.673117	-0.000092
C53	C	0.378692	-0.618457	-0.000072
H54	H	0.352243	-0.563048	-0.025176
H55	H	0.439544	-0.639067	-0.038557
H56	H	0.405083	-0.609058	0.063533
H57	H	0.286865	-0.524117	-0.000073
H58	H	0.281773	-0.269670	-0.000086
O59	O	0.292267	-0.119430	-0.000134
C60	C	0.272192	-0.041867	-0.000123
H61	H	0.197758	-0.033817	-0.025232
H62	H	0.326745	-0.009790	-0.038610
H63	H	0.275839	-0.019272	0.063479
H64	H	-0.034456	-0.137848	-0.000124
O65	O	-0.045120	-0.287859	-0.000085
C66	C	-0.122373	-0.238836	-0.000112
H67	H	-0.098177	-0.181549	0.024991
H68	H	-0.182316	-0.263905	0.038373
H69	H	-0.149097	-0.231415	-0.063718
O70	O	-0.040104	-0.529876	-0.000068
C71	C	-0.023155	-0.450943	-0.000089
H72	H	0.050849	-0.437396	0.025016
H73	H	-0.078906	-0.422936	0.038396
H74	H	-0.027702	-0.428668	-0.063694
H75	H	0.010775	-0.988325	0.214178
H76	H	-0.023626	-0.679119	-0.000091
O77	O	0.000600	-0.995810	0.627735
C78	C	-0.056277	-1.037460	0.682443
H79	H	-0.017418	-1.040876	0.741938
H80	H	-0.070685	-1.096937	0.658324
H81	H	-0.126720	-1.008247	0.691305
O82	O	0.000673	-0.995688	0.792248
C83	C	0.014441	-0.985541	0.874855
H84	H	0.089802	-0.962276	0.886282
H85	H	0.003868	-1.042136	0.906579
H86	H	-0.039211	-0.944007	0.898503
H87	H	0.244498	-0.817044	0.785630
O88	O	0.254752	-0.809749	0.207638
C89	C	0.313256	-0.854130	0.159360
H90	H	0.314902	-0.913911	0.184505
H91	H	0.388579	-0.828228	0.158430
H92	H	0.283598	-0.856140	0.096108
O93	O	0.254673	-0.809564	0.627805
C94	C	0.311538	-0.767917	0.682546
H95	H	0.272660	-0.764495	0.742022
H96	H	0.325961	-0.708441	0.658442
H97	H	0.381973	-0.797135	0.691439
O98	O	0.254557	-0.809659	0.372310
C99	C	0.240753	-0.819789	0.454910
H100	H	0.165409	-0.843100	0.466292
H101	H	0.251249	-0.763178	0.486630
H102	H	0.294437	-0.861279	0.478602
