data_functionalizedCrystal
_audit_creation_method	'MofGen! by Chris Wilmer'
_symmetry_space_group_name_H-M	'P1'
_symmetry_Int_Tables_number	1
_symmetry_cell_setting	triclinic
loop_
_symmetry_equiv_pos_as_xyz
  x,y,z
_cell_length_a	19.805407
_cell_length_b	25.639239
_cell_length_c	19.805399
_cell_angle_alpha	89.971274
_cell_angle_beta	89.980427
_cell_angle_gamma	90.038686
loop_
_atom_site_label
_atom_site_type_symbol
_atom_site_fract_x
_atom_site_fract_y
_atom_site_fract_z
Zn1	Zn	1.034678	-0.208163	-0.382714
Zn2	Zn	1.034569	-0.295597	-0.269524
Zn3	Zn	0.921493	-0.208177	-0.269539
Zn4	Zn	0.921432	-0.295569	-0.382670
O5	O	0.978043	-0.251877	-0.326112
O6	O	1.129380	-0.219767	-0.367711
O7	O	1.019548	-0.284018	-0.174809
O8	O	0.936578	-0.135010	-0.284576
O9	O	1.129300	-0.284004	-0.284551
O10	O	1.019735	-0.135000	-0.367726
O11	O	0.936472	-0.219791	-0.174820
O12	O	0.826768	-0.219764	-0.284534
O13	O	0.936475	-0.283957	-0.477393
O14	O	0.826723	-0.283971	-0.367651
O15	O	1.019676	-0.219740	-0.477425
O16	O	1.019489	-0.368758	-0.284508
O17	O	0.936368	-0.368738	-0.367637
C18	C	0.802187	-0.251867	-0.326090
C19	C	0.726955	-0.251875	-0.326097
C20	C	0.691605	-0.285357	-0.369306
C21	C	0.620917	-0.285358	-0.369315
C22	C	0.585579	-0.251879	-0.326112
C23	C	0.620934	-0.218393	-0.282901
C24	C	0.691621	-0.218390	-0.282895
C25	C	0.335860	-0.218404	-0.282923
C26	C	0.265168	-0.218411	-0.282931
C27	C	0.265156	-0.285373	-0.369343
C28	C	0.335843	-0.285370	-0.369338
C29	C	0.371192	-0.251882	-0.326129
C30	C	0.447840	-0.251881	-0.326121
C31	C	0.508932	-0.251883	-0.326117
C32	C	0.977929	-0.387719	-0.326081
C33	C	0.977942	-0.445833	-0.326090
C34	C	1.021437	-0.806194	-0.282901
C35	C	1.021463	-0.860799	-0.282910
O36	O	1.058326	-0.889034	-0.246154
N37	N	0.978162	-0.888116	-0.326157
C38	C	0.934836	-0.860825	-0.369402
O39	O	0.898008	-0.889075	-0.406189
C40	C	0.934814	-0.806222	-0.369396
C41	C	0.978113	-0.778908	-0.326141
C42	C	1.064733	-0.778880	-0.239650
C43	C	1.064706	-0.724279	-0.239640
C44	C	1.021382	-0.696993	-0.282881
C45	C	0.978086	-0.724307	-0.326132
C46	C	0.891492	-0.778933	-0.412645
C47	C	0.891474	-0.724326	-0.412635
C48	C	0.934773	-0.697012	-0.369381
C49	C	0.934735	-0.642421	-0.369363
N50	N	0.978036	-0.615104	-0.326116
C51	C	1.021360	-0.642390	-0.282875
C52	C	0.934887	-0.975496	-0.369413
C53	C	0.934906	-1.030098	-0.369416
C54	C	1.021533	-1.030068	-0.282924
C55	C	1.021511	-0.975464	-0.282918
C56	C	0.978188	-0.948179	-0.326166
C57	C	1.021299	-0.527725	-0.282857
C58	C	1.021266	-0.473119	-0.282849
C59	C	0.934641	-0.473155	-0.369343
C60	C	0.934671	-0.527756	-0.369349
C61	C	0.978006	-0.555039	-0.326104
O62	O	0.897893	-0.614151	-0.406101
O63	O	1.058188	-0.614134	-0.246101
C64	C	1.154585	-0.251887	-0.326134
C65	C	1.229817	-0.251891	-0.326144
C66	C	0.978081	-0.251844	-0.502655
C67	C	0.978097	-0.251830	-0.577887
C68	C	0.978175	-0.115504	-0.326158
C69	C	0.978232	-0.057389	-0.326177
C70	C	1.021421	-0.218390	-0.613249
C71	C	1.021428	-0.218375	-0.683937
C72	C	0.978114	-0.251802	-0.719262
C73	C	0.934785	-0.285243	-0.683895
C74	C	0.934775	-0.285255	-0.613208
C75	C	0.934823	-0.285194	-0.968969
C76	C	0.934838	-0.285181	-1.039661
C77	C	1.021476	-0.218314	-1.039698
C78	C	1.021466	-0.218326	-0.969011
C79	C	0.978135	-0.251765	-0.933650
C80	C	0.978127	-0.251780	-0.857001
C81	C	0.978125	-0.251790	-0.795909
C82	C	0.978044	-0.251872	-0.150256
C83	C	0.978159	-0.251738	-0.075024
H84	H	0.236399	-0.191145	-0.247749
H85	H	1.099966	-0.702043	-0.204421
O86	O	0.725991	-0.185810	-0.241016
C87	C	0.766934	-0.152086	-0.279626
H88	H	0.745658	-0.148912	-0.332944
H89	H	0.767756	-0.111824	-0.255240
H90	H	0.820495	-0.168250	-0.281914
O91	O	0.892693	-0.317668	-1.073872
C92	C	0.854456	-0.347194	-1.027505
H93	H	0.852124	-0.325788	-0.977123
H94	H	0.801126	-0.352759	-1.047921
H95	H	0.879196	-0.386907	-1.019978
H96	H	0.899489	-0.312480	-0.584417
H97	H	1.056812	-1.052294	-0.247717
O98	O	0.586682	-0.185896	-0.240840
C99	C	0.603904	-0.197260	-0.173351
H100	H	0.655212	-0.217353	-0.171895
H101	H	0.606337	-0.159494	-0.143090
H102	H	0.564090	-0.224120	-0.150494
H103	H	1.056525	-0.450882	-0.247624
H104	H	0.899515	-0.312458	-0.712663
H105	H	1.056708	-0.191146	-0.712726
O106	O	0.370087	-0.185858	-0.240889
C107	C	0.323737	-0.156302	-0.202772
H108	H	0.273334	-0.177722	-0.200378
H109	H	0.344143	-0.150663	-0.149456
H110	H	0.316255	-0.116621	-0.227657
O111	O	1.063412	-0.554142	-0.240783
C112	C	1.101627	-0.518316	-0.202623
H113	H	1.073881	-0.479419	-0.200256
H114	H	1.108885	-0.534106	-0.149301
H115	H	1.153016	-0.512454	-0.227454
H116	H	1.100016	-0.801091	-0.204438
O117	O	0.892501	-0.446724	-0.411374
C118	C	0.854303	-0.482537	-0.449572
H119	H	0.851977	-0.521475	-0.421853
H120	H	0.800969	-0.466792	-0.456754
H121	H	0.879074	-0.488303	-0.500995
H122	H	1.056769	-0.953228	-0.247697
H123	H	0.899415	-0.549996	-0.404573
O124	O	0.725959	-0.317935	-0.411178
C125	C	0.766817	-0.351657	-0.372564
H126	H	0.745491	-0.354835	-0.319249
H127	H	0.767596	-0.391918	-0.396952
H128	H	0.820402	-0.335487	-0.370267
H129	H	0.899641	-1.052333	-0.404632
O130	O	0.849505	-0.805433	-0.454764
C131	C	0.864253	-0.792026	-0.522229
H132	H	0.918320	-0.776977	-0.525682
H133	H	0.858417	-0.827918	-0.555679
H134	H	0.827949	-0.760344	-0.539879
H135	H	0.899603	-0.953283	-0.404628
O136	O	1.063660	-0.185882	-1.074019
C137	C	1.131105	-0.197309	-1.056743
H138	H	1.134477	-0.239082	-1.037301
H139	H	1.164555	-0.192797	-1.103238
H140	H	1.148819	-0.169288	-1.015724
O141	O	0.849485	-0.697797	-0.454718
C142	C	0.887980	-0.666150	-0.498453
H143	H	0.941295	-0.682560	-0.502683
H144	H	0.863472	-0.665527	-0.550521
H145	H	0.890302	-0.624776	-0.477522
H146	H	0.592138	-0.312624	-0.404500
H147	H	0.236367	-0.312639	-0.404528
O148	O	1.063567	-0.185992	-0.578905
C149	C	1.107239	-0.215765	-0.538000
H150	H	1.111388	-0.256940	-0.559287
H151	H	1.159344	-0.196855	-0.537214
H152	H	1.086301	-0.217574	-0.484423
H153	H	1.056739	-0.191108	-0.940252
O154	O	0.892761	-0.317630	-0.934521
C155	C	0.902046	-0.310485	-0.864555
H156	H	0.924248	-0.270138	-0.854915
H157	H	0.851338	-0.314037	-0.837682
H158	H	0.938058	-0.341503	-0.844491
O159	O	0.370065	-0.317908	-0.411370
C160	C	0.323705	-0.347471	-0.449499
H161	H	0.273334	-0.326061	-0.451897
H162	H	0.344148	-0.353099	-0.502813
H163	H	0.316147	-0.387156	-0.424622
