data_functionalizedCrystal
_audit_creation_method	'MofGen! by Chris Wilmer'
_symmetry_space_group_name_H-M	'P1'
_symmetry_Int_Tables_number	1
_symmetry_cell_setting	triclinic
loop_
_symmetry_equiv_pos_as_xyz
  x,y,z
_cell_length_a	19.188905
_cell_length_b	27.731996
_cell_length_c	26.809956
_cell_angle_alpha	90.001656
_cell_angle_beta	90.015923
_cell_angle_gamma	82.877971
loop_
_atom_site_label
_atom_site_type_symbol
_atom_site_fract_x
_atom_site_fract_y
_atom_site_fract_z
O1	O	0.925761	0.060284	0.041568
O2	O	0.722393	0.068421	0.041552
O3	O	0.830412	-0.006027	0.041550
O4	O	0.817742	0.134732	0.041570
O5	O	0.830391	-0.006016	-0.041409
O6	O	0.722372	0.068432	-0.041407
O7	O	0.925740	0.060296	-0.041391
Zn8	Zn	0.824053	0.064366	-0.054571
Zn9	Zn	0.824080	0.064351	0.054732
O10	O	0.817721	0.134744	-0.041389
C11	C	0.696373	0.068165	0.000070
C12	C	0.618873	0.067380	0.000064
C13	C	0.582495	0.066997	0.045286
C14	C	0.509676	0.066254	0.045292
C15	C	0.473240	0.065885	0.000073
C16	C	0.509627	0.066271	-0.045155
C17	C	0.582443	0.067018	-0.045160
N18	N	0.364402	0.037207	-0.033583
N19	N	0.295230	0.036496	-0.033575
C20	C	0.253849	0.063633	0.000085
N21	N	0.284254	0.091502	0.033745
N22	N	0.353433	0.092211	0.033739
C23	C	0.394283	0.065074	0.000073
C24	C	0.138512	0.062445	0.045317
C25	C	0.065691	0.061705	0.045321
C26	C	0.065644	0.061717	-0.045127
C27	C	0.138462	0.062461	-0.045130
C28	C	0.174892	0.062823	0.000093
C29	C	0.830141	-0.024029	0.000068
C30	C	0.829357	-0.077688	0.000063
C31	C	0.824436	-0.410425	0.045308
C32	C	0.821459	-0.612092	0.045317
O33	O	0.821054	-0.638170	0.083776
N34	N	0.821078	-0.637305	0.000096
C35	C	0.821437	-0.612096	-0.045130
O36	O	0.821038	-0.638167	-0.083593
C37	C	0.824409	-0.410430	-0.045138
C38	C	0.824797	-0.385221	0.000086
C39	C	0.824823	-0.385216	0.090528
C40	C	0.825571	-0.334803	0.090526
C41	C	0.825932	-0.309599	0.045303
C42	C	0.825545	-0.334807	0.000083
C43	C	0.824763	-0.385222	-0.090363
C44	C	0.825504	-0.334802	-0.090361
C45	C	0.825892	-0.309593	-0.045138
C46	C	0.826654	-0.259189	-0.045142
N47	N	0.827035	-0.233977	0.000079
C48	C	0.826674	-0.259182	0.045301
C49	C	0.819878	-0.717974	-0.045122
C50	C	0.819137	-0.768391	-0.045121
C51	C	0.819157	-0.768383	0.045326
C52	C	0.819904	-0.717966	0.045324
C53	C	0.820259	-0.692762	0.000098
C54	C	0.828246	-0.153310	0.045292
C55	C	0.828997	-0.102893	0.045286
C56	C	0.828972	-0.102904	-0.045161
C57	C	0.828225	-0.153318	-0.045154
C58	C	0.827859	-0.178519	0.000076
O59	O	0.827052	-0.233081	-0.083581
O60	O	0.827058	-0.233101	0.083758
C61	C	0.823688	-0.460839	0.045311
C62	C	0.823301	-0.486048	0.000091
C63	C	0.823662	-0.460843	-0.045132
C64	C	0.822559	-0.536464	0.000093
C65	C	0.822198	-0.561669	0.045315
C66	C	0.822579	-0.536457	0.090536
C67	C	0.823327	-0.486043	0.090534
C68	C	0.823281	-0.486055	-0.090352
C69	C	0.822534	-0.536469	-0.090346
C70	C	0.822173	-0.561673	-0.045123
C71	C	0.951760	0.060551	0.000092
C72	C	1.029260	0.061336	0.000102
C73	C	0.817992	0.152746	0.000094
C74	C	0.818776	0.206405	0.000102
N75	N	0.824040	0.064376	-0.129167
C76	C	0.871905	0.031393	-0.473794
C77	C	0.871921	0.031386	-0.682671
O78	O	0.912589	0.003346	-0.709676
N79	N	0.824084	0.064340	-0.708794
C80	C	0.776236	0.097296	-0.682694
O81	O	0.735543	0.125322	-0.709705
C82	C	0.776217	0.097301	-0.473817
C83	C	0.824062	0.064348	-0.447697
C84	C	0.919745	-0.001557	-0.447674
C85	C	0.919743	-0.001553	-0.395458
C86	C	0.871900	0.031401	-0.369361
C87	C	0.824060	0.064352	-0.395481
C88	C	0.728366	0.130255	-0.447718
C89	C	0.728364	0.130252	-0.395495
C90	C	0.776209	0.097299	-0.369375
C91	C	0.776215	0.097311	-0.317168
N92	N	0.824052	0.064356	-0.291046
C93	C	0.871895	0.031402	-0.317142
C94	C	0.776250	0.097292	-0.792357
C95	C	0.776256	0.097292	-0.844576
C96	C	0.871941	0.031381	-0.844550
C97	C	0.871938	0.031384	-0.792330
C98	C	0.824088	0.064338	-0.766234
C99	C	0.871887	0.031413	-0.207484
C100	C	0.871883	0.031421	-0.155263
C101	C	0.776196	0.097330	-0.155294
C102	C	0.776203	0.097324	-0.207510
C103	C	0.824051	0.064361	-0.233604
O104	O	0.735563	0.125332	-0.290131
O105	O	0.912572	0.003373	-0.290122
C106	C	0.871907	0.031389	-0.526010
C107	C	0.824066	0.064340	-0.552130
C108	C	0.776223	0.097295	-0.526033
C109	C	0.824071	0.064340	-0.604349
C110	C	0.871914	0.031385	-0.630445
C111	C	0.919752	-0.001569	-0.604323
C112	C	0.919750	-0.001565	-0.552107
C113	C	0.728386	0.130249	-0.552156
C114	C	0.728392	0.130243	-0.604372
C115	C	0.776235	0.097288	-0.630468
N116	N	0.824099	0.064337	0.129328
H117	H	0.827944	-0.173823	0.082124
H118	H	0.036073	0.061396	0.082148
H119	H	0.035978	0.061419	-0.081945
O120	O	0.971345	-0.037101	-0.367292
H121	H	0.963316	-0.031567	-0.326595
O122	O	0.829363	-0.075711	-0.093933
H123	H	0.828974	-0.101708	-0.125382
H124	H	0.737303	0.124130	-0.865839
O125	O	0.676779	0.165798	-0.524017
H126	H	0.643061	0.145516	-0.500236
H127	H	0.168083	0.062770	-0.081955
H128	H	0.958705	-0.028395	-0.468917
O129	O	0.825897	-0.307619	-0.139143
H130	H	0.778145	-0.312885	-0.160832
O131	O	0.923485	-0.004130	-0.127096
H132	H	0.894350	-0.027567	-0.103311
O133	O	0.470443	0.065931	-0.093978
H134	H	0.477921	0.099043	-0.115582
O135	O	0.923504	-0.004134	-0.235622
H136	H	0.915038	-0.041801	-0.225595
O137	O	0.824418	-0.412391	0.139311
H138	H	0.872172	-0.407126	0.161000
H139	H	0.818831	-0.788913	-0.081946
O140	O	0.823683	-0.458874	-0.139130
H141	H	0.823301	-0.484881	-0.170570
O142	O	0.724644	0.132842	-0.764213
H143	H	0.691391	0.155757	-0.791155
O144	O	0.724595	0.132865	-0.127132
H145	H	0.733062	0.170537	-0.137140
H146	H	0.958710	-0.028399	-0.530844
O147	O	0.923545	-0.004167	-0.872698
H148	H	0.894412	-0.027608	-0.896493
O149	O	0.829405	-0.075701	0.094064
H150	H	0.829018	-0.101700	0.125509
O151	O	0.923534	-0.004162	-0.764159
H152	H	0.956797	-0.027078	-0.791083
H153	H	0.822289	-0.556987	0.127358
O154	O	0.621787	0.067394	0.094060
H155	H	0.584252	0.067007	0.125507
H156	H	0.689406	0.157088	-0.468977
O157	O	0.470427	0.065831	0.094069
H158	H	0.507994	0.066203	0.125514
O159	O	0.621685	0.067438	-0.093937
H160	H	0.584119	0.067058	-0.125381
H161	H	0.168174	0.062744	0.082141
H162	H	0.820219	-0.697445	0.082149
H163	H	0.689396	0.157087	-0.374250
H164	H	0.737249	0.124162	-0.228777
O165	O	0.971354	-0.037116	-0.632474
H166	H	0.963308	-0.031581	-0.673172
O167	O	0.676803	0.165800	-0.632542
H168	H	0.643540	0.188716	-0.605618
O169	O	0.825971	-0.307614	0.139303
H170	H	0.825584	-0.333616	0.170745
O171	O	0.818759	-0.795571	0.094104
H172	H	0.818171	-0.834862	0.086503
H173	H	0.820171	-0.697458	-0.081953
O174	O	0.824342	-0.412404	-0.139141
H175	H	0.776865	-0.398311	-0.160821
O176	O	0.827809	-0.180512	-0.093929
H177	H	0.828182	-0.154513	-0.125375
O178	O	0.823733	-0.458855	0.139310
H179	H	0.823348	-0.484857	0.170752
O180	O	0.822114	-0.563657	-0.139126
H181	H	0.822483	-0.537655	-0.170570
