data_functionalizedCrystal
_audit_creation_method	'MofGen! by Chris Wilmer'
_symmetry_space_group_name_H-M	'P1'
_symmetry_Int_Tables_number	1
_symmetry_cell_setting	triclinic
loop_
_symmetry_equiv_pos_as_xyz
  x,y,z
_cell_length_a	19.121241
_cell_length_b	17.077402
_cell_length_c	17.077396
_cell_angle_alpha	89.968612
_cell_angle_beta	87.539368
_cell_angle_gamma	92.457116
loop_
_atom_site_label
_atom_site_type_symbol
_atom_site_fract_x
_atom_site_fract_y
_atom_site_fract_z
Zn1	Zn	1.073745	-0.261404	-0.495123
Zn2	Zn	1.073667	-0.392687	-0.363850
Zn3	Zn	0.956296	-0.267024	-0.358261
Zn4	Zn	0.956263	-0.398222	-0.489466
O5	O	1.014993	-0.329834	-0.426675
O6	O	1.172021	-0.274151	-0.482415
O7	O	1.058079	-0.376052	-0.253260
O8	O	0.971923	-0.156429	-0.376444
O9	O	1.171964	-0.370603	-0.385970
O10	O	1.058212	-0.152301	-0.476996
O11	O	0.971847	-0.283728	-0.249154
O12	O	0.858005	-0.289096	-0.370959
O13	O	0.971866	-0.380038	-0.600064
O14	O	0.857981	-0.385487	-0.467354
O15	O	1.058179	-0.279519	-0.604220
O16	O	1.058046	-0.503270	-0.380485
O17	O	0.971790	-0.507337	-0.472774
C18	C	0.832508	-0.338502	-0.417937
C19	C	0.754441	-0.342229	-0.414217
C20	C	1.014925	-0.533785	-0.426640
C21	C	1.014960	-0.621033	-0.426655
C22	C	1.059920	-0.659878	-0.378656
C23	C	1.059954	-0.741856	-0.378677
C24	C	1.015025	-0.784990	-0.426694
C25	C	0.970063	-0.746140	-0.474699
C26	C	0.970033	-0.664162	-0.474681
C27	C	0.970128	-0.917007	-0.474732
C28	C	0.970158	-0.998990	-0.474749
C29	C	1.060050	-0.994701	-0.378728
C30	C	1.060019	-0.912723	-0.378710
C31	C	1.015057	-0.873879	-0.426714
C32	C	0.717795	-0.293842	-0.462760
C33	C	0.644442	-0.297341	-0.459259
C34	C	0.607736	-0.349230	-0.407217
C35	C	0.644387	-0.397619	-0.358669
C36	C	0.717739	-0.394117	-0.362167
C37	C	0.386260	-0.362311	-0.394135
C38	C	0.312903	-0.365812	-0.390642
C39	C	0.312963	-0.265532	-0.491232
C40	C	0.386316	-0.262037	-0.494729
C41	C	0.422961	-0.310423	-0.446177
C42	C	0.532758	-0.352809	-0.403638
C43	C	0.497938	-0.306840	-0.449753
C44	C	1.198190	-0.321133	-0.435447
C45	C	1.276258	-0.317425	-0.439185
C46	C	1.015028	-0.329769	-0.631421
C47	C	1.015042	-0.329741	-0.718671
C48	C	1.015080	-0.125086	-0.426727
C49	C	1.015117	-0.037834	-0.426750
C50	C	1.060007	-0.377720	-1.096629
C51	C	1.059989	-0.377744	-1.014648
C52	C	1.015088	-0.329684	-0.971522
C53	C	0.970196	-0.281603	-1.010382
C54	C	0.970210	-0.281584	-1.092362
C55	C	0.970169	-0.281644	-0.839511
C56	C	0.970155	-0.281662	-0.757525
C57	C	1.059948	-0.377805	-0.761797
C58	C	1.059963	-0.377785	-0.843777
C59	C	1.015072	-0.329703	-0.882631
C60	C	1.014999	-0.329841	-0.222727
C61	C	1.015120	-0.329641	-0.135483
H62	H	1.096503	-0.624764	-0.339551
F63	F	0.493686	-0.408034	-0.348255
H64	H	0.933633	-0.242475	-0.975262
F65	F	0.922250	-0.792048	-0.525807
H66	H	0.933660	-0.242432	-1.123995
H67	H	0.933423	-0.632536	-0.513767
H68	H	0.933595	-0.242525	-0.722414
H69	H	0.416087	-0.401711	-0.354602
F70	F	0.922399	-0.230460	-0.880860
H71	H	0.527827	-0.264588	-0.492121
H72	H	1.096529	-0.416916	-0.878888
F73	F	1.107723	-0.428980	-0.720445
F74	F	0.922276	-0.875668	-0.525825
H75	H	1.096564	-0.773480	-0.339591
F76	F	1.107802	-0.428868	-1.142520
F77	F	1.107837	-0.866819	-0.327604
H78	H	0.416197	-0.219786	-0.537109
F79	F	0.273958	-0.214039	-0.542899
F80	F	0.605320	-0.452840	-0.303278
F81	F	1.107897	-1.036043	-0.327633
H82	H	0.933585	-1.034106	-0.513864
F83	F	0.605444	-0.245842	-0.510927
F84	F	0.756853	-0.238617	-0.518154
H85	H	1.096532	-0.416904	-0.983017
F86	F	0.273840	-0.421057	-0.335265
H87	H	0.747575	-0.433518	-0.322637
