data_functionalizedCrystal
_audit_creation_method	'MofGen! by Chris Wilmer'
_symmetry_space_group_name_H-M	'P1'
_symmetry_Int_Tables_number	1
_symmetry_cell_setting	triclinic
loop_
_symmetry_equiv_pos_as_xyz
  x,y,z
_cell_length_a	13.635800
_cell_length_b	11.102183
_cell_length_c	11.102315
_cell_angle_alpha	88.052119
_cell_angle_beta	108.606275
_cell_angle_gamma	71.396124
loop_
_atom_site_label
_atom_site_type_symbol
_atom_site_fract_x
_atom_site_fract_y
_atom_site_fract_z
V1	V	2.055764	-0.175845	0.396256
O2	O	2.035286	0.008443	0.388715
O3	O	2.044147	-0.348665	0.393543
O4	O	2.044157	-0.173143	0.569077
O5	O	2.035277	-0.168293	0.211966
V6	V	2.294316	-0.153802	0.374213
O7	O	2.193434	-0.224199	0.444607
O8	O	2.381745	-0.105448	0.325862
O9	O	2.194330	0.019018	0.376926
O10	O	2.373493	-0.338090	0.381754
O11	O	2.373502	-0.161354	0.558503
O12	O	2.194320	-0.156504	0.201392
V13	V	2.555764	-0.175845	0.396256
O14	O	2.535286	0.008443	0.388715
O15	O	2.544147	-0.348665	0.393543
O16	O	2.544157	-0.173143	0.569077
O17	O	2.535277	-0.168293	0.211966
V18	V	2.794316	-0.153802	0.374213
O19	O	2.693434	-0.224199	0.444607
O20	O	2.881745	-0.105448	0.325862
O21	O	2.694330	0.019018	0.376926
O22	O	2.873493	-0.338090	0.381754
O23	O	2.873502	-0.161354	0.558503
O24	O	2.694320	-0.156504	0.201392
C25	C	1.969301	-0.390794	0.387292
C26	C	2.000531	-0.532077	0.386226
C27	C	1.940350	-0.495796	0.153446
C28	C	1.924930	-0.544029	0.036560
C29	C	1.954276	-0.676777	0.035566
C30	C	1.999050	-0.761297	0.151470
C31	C	2.014471	-0.713063	0.268356
C32	C	1.985117	-0.580310	0.269338
C33	C	2.074658	-0.749345	0.501134
C34	C	2.045305	-0.616597	0.502130
C35	C	2.119432	-0.833865	0.617038
C36	C	2.134845	-0.785631	0.733926
C37	C	2.105495	-0.652874	0.734916
C38	C	2.060725	-0.568363	0.619016
C39	C	1.969313	-0.166898	0.611201
C40	C	2.000547	-0.165832	0.752484
C41	C	2.100847	0.061141	0.383174
C42	C	2.059237	0.202422	0.384248
C43	C	2.100835	-0.162753	0.159261
C44	C	2.059219	-0.163813	0.017977
C45	C	2.469301	-0.390794	0.387292
C46	C	2.500531	-0.532077	0.386226
C47	C	2.469313	-0.166898	0.611201
C48	C	2.500547	-0.165832	0.752484
C49	C	2.184574	-0.178533	0.765454
C50	C	2.291258	-0.184387	0.838312
C51	C	2.320599	-0.183384	0.971059
C52	C	2.243246	-0.176523	1.030948
C53	C	2.136562	-0.170669	0.958089
C54	C	2.107231	-0.171677	0.825341
C55	C	1.952535	-0.157959	0.945119
C56	C	1.923194	-0.158971	0.812373
C57	C	1.875182	-0.151098	1.005008
C58	C	1.768498	-0.145253	0.932151
C59	C	1.739159	-0.146258	0.799397
C60	C	1.816510	-0.153117	0.739515
C61	C	2.600847	0.061141	0.383174
C62	C	2.559237	0.202422	0.384248
C63	C	2.600835	-0.162753	0.159261
C64	C	2.559219	-0.163813	0.017977
C65	C	2.684549	-0.545042	0.398895
C66	C	2.791225	-0.617897	0.404726
C67	C	2.820562	-0.750644	0.403726
C68	C	2.743215	-0.810538	0.396899
C69	C	2.636539	-0.737683	0.391069
C70	C	2.607211	-0.604934	0.392066
C71	C	2.452525	-0.724719	0.378409
C72	C	2.423184	-0.591971	0.379399
C73	C	2.375178	-0.784614	0.371582
C74	C	2.268498	-0.711757	0.365743
C75	C	2.239163	-0.579002	0.366741
C76	C	2.316508	-0.519116	0.373569
C77	C	2.560706	-0.398609	0.788808
C78	C	2.605455	-0.514492	0.873343
C79	C	2.634802	-0.513484	1.006089
C80	C	2.619401	-0.396580	1.054301
C81	C	2.574652	-0.280697	0.969767
C82	C	2.545304	-0.281718	0.837020
C83	C	2.514502	-0.047923	0.933444
C84	C	2.485146	-0.048928	0.800697
C85	C	2.499100	0.068980	0.981656
C86	C	2.454344	0.184866	0.897121
C87	C	2.424995	0.183853	0.764367
C88	C	2.440398	0.066954	0.716162
H89	H	1.916422	-0.387701	0.154242
Br90	Br	2.538938	0.070351	1.161813
Br91	Br	2.163545	-0.793050	0.356494
Br92	Br	2.038903	-0.941457	0.150120
Br93	Br	2.276704	-0.338958	0.374917
H94	H	2.036808	-0.460269	0.619810
H95	H	2.767114	-0.918631	0.396101
Br96	Br	2.520853	-0.399984	0.608651
H97	H	1.652280	-0.141462	0.740078
H98	H	2.152300	-0.519692	0.362003
H99	H	2.118067	-0.613614	0.830100
Br100	Br	2.159273	-1.014025	0.615692
H101	H	2.617994	-0.609673	0.834073
Br102	Br	2.195619	-0.900339	0.891209
H103	H	1.899077	-0.150273	1.113096
H104	H	1.792633	-0.153943	0.631428
H105	H	2.441816	0.280039	0.936388
Br106	Br	2.364284	0.341131	0.649653
Br107	Br	1.933360	-0.742243	-0.123064
H108	H	2.160697	-0.179367	0.657368
H109	H	2.643313	-0.395770	1.162393
H110	H	2.416497	0.066119	0.608075
H111	H	1.888475	-0.475199	-0.057806
H112	H	2.354233	-0.189967	0.789534
H113	H	2.267141	-0.175691	1.139035
Br114	Br	1.663531	-0.135933	1.013433
Br115	Br	2.465381	-0.191308	1.069941
H116	H	2.660667	-0.436951	0.399692
H117	H	2.854197	-0.569117	0.410288
H118	H	2.907426	-0.809964	0.408479
H119	H	2.399074	-0.892705	0.370776
H120	H	2.671241	-0.607846	1.074918
