data_functionalizedCrystal
_audit_creation_method	'MofGen! by Chris Wilmer'
_symmetry_space_group_name_H-M	'P1'
_symmetry_Int_Tables_number	1
_symmetry_cell_setting	triclinic
loop_
_symmetry_equiv_pos_as_xyz
  x,y,z
_cell_length_a	18.215407
_cell_length_b	12.827892
_cell_length_c	18.215399
_cell_angle_alpha	90.023838
_cell_angle_beta	90.017368
_cell_angle_gamma	90.012835
loop_
_atom_site_label
_atom_site_type_symbol
_atom_site_fract_x
_atom_site_fract_y
_atom_site_fract_z
Zn1	Zn	1.125120	-0.416115	0.416088
Zn2	Zn	1.125049	-0.590874	0.293031
Zn3	Zn	1.002053	-0.416140	0.293041
Zn4	Zn	1.002039	-0.590807	0.416061
O5	O	1.063566	-0.503484	0.354555
O6	O	1.228095	-0.439315	0.399772
O7	O	1.108710	-0.567734	0.190048
O8	O	1.018414	-0.269901	0.309379
O9	O	1.228043	-0.567710	0.309362
O10	O	1.108831	-0.269882	0.399782
O11	O	1.018345	-0.439358	0.190056
O12	O	0.899067	-0.439292	0.309353
O13	O	1.018390	-0.567595	0.519049
O14	O	0.899057	-0.567619	0.399735
O15	O	1.108818	-0.439250	0.519069
O16	O	1.108696	-0.737101	0.309336
O17	O	1.018321	-0.737052	0.399725
C18	C	0.872359	-0.503452	0.354543
C19	C	0.790560	-0.503463	0.354555
C20	C	0.602393	-0.436746	0.401705
C21	C	0.525534	-0.436755	0.401708
C22	C	0.525490	-0.570252	0.307419
C23	C	0.602348	-0.570237	0.307413
C24	C	0.640797	-0.503485	0.354560
C25	C	0.487081	-0.503509	0.354569
C26	C	0.403747	-0.503519	0.354571
C27	C	0.724136	-0.503473	0.354557
C28	C	1.063519	-0.774994	0.354542
C29	C	1.063567	-0.891147	0.354562
C30	C	1.108341	-0.942922	0.309883
C31	C	1.108391	-1.062972	0.309902
C32	C	1.255518	-0.503517	0.354569
C33	C	1.337317	-0.503531	0.354575
C34	C	1.063610	-0.503412	0.546508
C35	C	1.063629	-0.503381	0.628307
C36	C	1.063632	-0.230914	0.354585
C37	C	1.063660	-0.114761	0.354597
C38	C	1.063563	-0.503480	0.163349
C39	C	1.063687	-0.503217	0.081551
C40	C	1.110732	-0.436489	0.816513
C41	C	1.110741	-0.436459	0.893372
C42	C	1.016579	-0.570112	0.893340
C43	C	1.016567	-0.570136	0.816482
C44	C	1.063648	-0.503327	0.778071
C45	C	1.063668	-0.503272	0.931787
C46	C	1.063678	-0.503239	1.015121
C47	C	1.063638	-0.503357	0.694732
H48	H	1.146639	-0.898374	0.271621
O49	O	0.639545	-0.635171	0.261591
C50	C	0.589130	-0.694079	0.219970
H51	H	0.534353	-0.697767	0.250111
H52	H	0.611332	-0.776394	0.212021
H53	H	0.580937	-0.655712	0.164123
H54	H	1.146721	-1.107497	0.271650
H55	H	1.149066	-0.382086	0.785241
O56	O	1.156444	-0.371389	0.930631
C57	C	1.140370	-0.267240	0.911870
H58	H	1.112070	-0.265095	0.856062
H59	H	1.193493	-0.220391	0.909250
H60	H	1.102549	-0.232018	0.955123
H61	H	0.978249	-0.624508	0.924624
O62	O	1.017821	-1.061707	0.400158
C63	C	0.944477	-1.088422	0.384047
H64	H	0.940786	-1.118550	0.325275
H65	H	0.908131	-1.016632	0.390300
H66	H	0.925206	-1.151683	0.423536
O67	O	0.488026	-0.635063	0.261696
C68	C	0.411954	-0.620751	0.271797
H69	H	0.401480	-0.586628	0.328632
H70	H	0.382738	-0.699024	0.266717
H71	H	0.390129	-0.565029	0.228212
H72	H	0.978220	-0.624562	0.785182
O73	O	0.639629	-0.371804	0.447523
C74	C	0.589247	-0.312919	0.489147
H75	H	0.534451	-0.309258	0.459010
H76	H	0.611462	-0.230593	0.497094
H77	H	0.581090	-0.351288	0.544995
O78	O	0.488148	-0.372073	0.447543
C79	C	0.443717	-0.431664	0.495019
H80	H	0.432185	-0.510812	0.468968
H81	H	0.389679	-0.389123	0.504938
H82	H	0.473357	-0.443244	0.549540
O83	O	1.017982	-0.944400	0.400250
C84	C	1.059922	-1.007422	0.447802
H85	H	1.115726	-1.023624	0.421888
H86	H	1.030022	-1.084245	0.457602
H87	H	1.067931	-0.965361	0.502367
