data_functionalizedCrystal
_audit_creation_method	'MofGen! by Chris Wilmer'
_symmetry_space_group_name_H-M	'P1'
_symmetry_Int_Tables_number	1
_symmetry_cell_setting	triclinic
loop_
_symmetry_equiv_pos_as_xyz
  x,y,z
_cell_length_a	13.339070
_cell_length_b	19.188930
_cell_length_c	12.376457
_cell_angle_alpha	101.232575
_cell_angle_beta	75.589755
_cell_angle_gamma	99.387037
loop_
_atom_site_label
_atom_site_type_symbol
_atom_site_fract_x
_atom_site_fract_y
_atom_site_fract_z
O1	O	1.360197	0.340100	-0.094096
O2	O	1.065870	0.294198	-0.094082
O3	O	1.221523	0.217159	-0.094067
O4	O	1.204545	0.417139	-0.094111
O5	O	1.182624	0.236385	0.093941
O6	O	1.026971	0.313424	0.093926
O7	O	1.321298	0.359326	0.093913
Zn8	Zn	1.167958	0.339428	0.123770
Zn9	Zn	1.219210	0.314097	-0.123939
O10	O	1.165645	0.436365	0.093898
C11	C	1.008765	0.296057	-0.000076
C12	C	0.896565	0.272945	-0.000070
C13	C	0.530988	0.452652	-0.000127
C14	C	0.636407	0.474369	-0.000136
C15	C	0.701451	0.424015	-0.000119
C16	C	0.661067	0.351940	-0.000094
C17	C	0.555640	0.330220	-0.000093
C18	C	0.726103	0.301583	-0.000086
C19	C	0.685719	0.229508	-0.000060
C20	C	0.580302	0.207792	-0.000059
C21	C	0.515258	0.258146	-0.000076
C22	C	0.831530	0.323303	-0.000086
C23	C	0.856182	0.200871	-0.000053
C24	C	0.750763	0.179154	-0.000043
C25	C	1.201522	0.200654	-0.000060
C26	C	1.199869	0.122827	-0.000050
C27	C	1.291202	0.095789	-0.000049
C28	C	1.289655	0.022659	-0.000067
C29	C	1.196764	-0.023428	-0.000063
C30	C	1.105420	0.003617	-0.000071
C31	C	1.106972	0.076744	-0.000064
N32	N	1.112522	-0.138794	0.063923
N33	N	1.111052	-0.208261	0.063919
C34	C	1.192081	-0.243757	-0.000086
N35	N	1.274646	-0.207158	-0.064073
N36	N	1.276118	-0.137684	-0.064064
C37	C	1.195070	-0.102723	-0.000071
C38	C	1.281743	-0.350089	-0.000106
C39	C	1.280193	-0.423221	-0.000131
C40	C	1.095953	-0.442261	-0.000124
C41	C	1.097508	-0.369132	-0.000110
C42	C	1.190404	-0.323049	-0.000096
C43	C	1.378403	0.357467	-0.000096
C44	C	1.490606	0.380578	-0.000110
C45	C	1.185646	0.452870	-0.000112
C46	C	1.187301	0.530696	-0.000130
N47	N	1.132988	0.356716	0.292825
N48	N	1.254188	0.296804	-0.292994
C49	C	1.335365	0.256657	0.647829
C50	C	1.359835	0.244556	0.529492
C51	C	1.303125	0.272595	0.470319
C52	C	1.221942	0.312738	0.529496
C53	C	1.197474	0.324845	0.647845
C54	C	1.165235	0.340783	0.470335
C55	C	1.084051	0.380926	0.529511
C56	C	1.059587	0.393031	0.647849
C57	C	1.116297	0.364992	0.707021
C58	C	1.189702	0.328675	0.351986
C59	C	1.051811	0.396863	0.352001
C60	C	1.027341	0.408964	0.470339
H61	H	0.864399	0.381987	-0.000102
H62	H	0.547428	0.149102	-0.000051
C63	C	1.279000	0.284526	0.286899
H64	H	1.285461	0.281337	0.207944
H65	H	1.264235	0.237823	0.306307
H66	H	1.342411	0.307193	0.306282
C67	C	1.383925	-0.299398	-0.000103
H68	H	1.438104	-0.325979	-0.000122
H69	H	1.374796	-0.263780	0.065464
H70	H	1.401924	-0.277171	-0.065670
H71	H	0.993491	0.425724	0.696030
C72	C	1.006499	0.106488	-0.000055
H73	H	0.950951	0.068570	-0.000050
H74	H	1.016839	0.127927	-0.065610
H75	H	0.989711	0.141313	0.065523
C76	C	1.380664	-0.452962	-0.000128
H77	H	1.436206	-0.415040	-0.000107
H78	H	1.397462	-0.487789	-0.065693
H79	H	1.370312	-0.474397	0.065440
C80	C	0.680820	0.553646	-0.000151
H81	H	0.626984	0.580526	-0.000148
H82	H	0.735002	0.557962	-0.065712
H83	H	0.707860	0.571365	0.065421
C84	C	0.989430	0.427711	0.286924
H85	H	1.015623	0.414747	0.207969
H86	H	0.996193	0.478382	0.306304
H87	H	0.917992	0.409024	0.306334
H88	H	1.020320	-0.479785	-0.000127
H89	H	1.023133	-0.347117	-0.000105
C90	C	0.938051	0.453125	0.535441
H91	H	0.931611	0.456322	0.614394
H92	H	0.874635	0.430475	0.516069
H93	H	0.952835	0.499833	0.516034
H94	H	0.717869	0.120468	-0.000032
H95	H	1.364033	0.000640	-0.000070
H96	H	0.909143	0.159867	-0.000044
C97	C	1.397737	0.225817	0.712914
H98	H	1.449593	0.200177	0.660725
H99	H	1.351962	0.194447	0.759099
H100	H	1.430158	0.263807	0.759058
C101	C	1.449123	0.200397	0.464406
H102	H	1.479387	0.185426	0.516593
H103	H	1.500630	0.228934	0.418221
H104	H	1.422430	0.159576	0.418260
H105	H	1.323053	0.262740	0.373963
C106	C	1.393382	0.146478	-0.000037
H107	H	1.381227	0.193904	-0.000023
H108	H	1.444548	0.131710	-0.065597
H109	H	1.417400	0.145101	0.065536
C110	C	1.089386	0.378306	0.837194
H111	H	1.134790	0.355858	0.863954
H112	H	1.019292	0.358961	0.863987
H113	H	1.097494	0.428318	0.863949
H114	H	0.787288	0.441701	-0.000129
H115	H	0.478023	0.493642	-0.000150
H116	H	0.429416	0.240467	-0.000068
H117	H	1.029788	-0.033912	-0.000071
