data_functionalizedCrystal
_audit_creation_method	'MofGen! by Chris Wilmer'
_symmetry_space_group_name_H-M	'P1'
_symmetry_Int_Tables_number	1
_symmetry_cell_setting	triclinic
loop_
_symmetry_equiv_pos_as_xyz
  x,y,z
_cell_length_a	17.699083
_cell_length_b	10.654541
_cell_length_c	16.776229
_cell_angle_alpha	89.993604
_cell_angle_beta	89.998886
_cell_angle_gamma	83.883472
loop_
_atom_site_label
_atom_site_type_symbol
_atom_site_fract_x
_atom_site_fract_y
_atom_site_fract_z
O1	O	1.005087	0.158809	-0.066176
O2	O	0.784840	0.179470	-0.066202
O3	O	0.900029	-0.013689	-0.066184
O4	O	0.889899	0.351968	-0.066194
O5	O	0.900013	-0.013700	0.066393
O6	O	0.784825	0.179458	0.066374
O7	O	1.005072	0.158797	0.066400
Zn8	Zn	0.894946	0.169126	0.087437
Zn9	Zn	0.894966	0.169142	-0.087238
O10	O	0.889883	0.351956	0.066382
C11	C	0.756631	0.178724	0.000083
C12	C	0.672599	0.176503	0.000073
C13	C	0.624698	0.289883	0.000070
C14	C	0.545741	0.287789	0.000080
C15	C	0.514687	0.172313	0.000088
C16	C	0.562594	0.058924	0.000094
C17	C	0.641549	0.061020	0.000089
C18	C	0.244177	0.050470	0.000114
C19	C	0.165216	0.048383	0.000116
C20	C	0.148369	0.277239	0.000105
C21	C	0.227324	0.279335	0.000100
C22	C	0.275224	0.165946	0.000110
C23	C	0.360838	0.168219	0.000100
C24	C	0.429075	0.170039	0.000092
C25	C	0.899277	-0.060480	0.000104
C26	C	0.897053	-0.199884	0.000103
C27	C	1.034792	-0.230266	0.000129
C28	C	1.102614	-0.310947	0.000144
C29	C	1.100519	-0.441929	0.000141
C30	C	1.030596	-0.492230	0.000121
C31	C	0.962775	-0.411549	0.000106
C32	C	0.964876	-0.280566	0.000111
C33	C	0.825037	-0.381167	0.000074
C34	C	0.827130	-0.250185	0.000083
C35	C	0.755114	-0.431468	0.000054
C36	C	0.687291	-0.350786	0.000045
C37	C	0.689388	-0.219798	0.000049
C38	C	0.759308	-0.169504	0.000068
C39	C	1.033281	0.159543	0.000114
C40	C	1.117313	0.161764	0.000118
C41	C	0.890634	0.398747	0.000093
C42	C	0.892859	0.538151	0.000089
N43	N	0.894937	0.169115	0.206648
N44	N	0.894981	0.169143	-0.206450
C45	C	0.945959	0.083619	0.248373
C46	C	0.945963	0.083618	0.331826
C47	C	0.894949	0.169119	0.373551
C48	C	0.843922	0.254619	0.331820
C49	C	0.843915	0.254613	0.248369
C50	C	0.843950	0.254644	0.668367
C51	C	0.843962	0.254646	0.751824
C52	C	0.945998	0.083648	0.751823
C53	C	0.945990	0.083642	0.668373
C54	C	0.894961	0.169137	0.626649
C55	C	0.894956	0.169136	0.536161
C56	C	0.894957	0.169128	0.464038
H57	H	0.109359	0.369565	0.000101
H58	H	0.649976	0.383917	0.000063
O59	O	0.753175	-0.558724	-0.000055
C60	C	0.790251	-0.610804	-0.068718
H61	H	0.831680	-0.544189	-0.091599
H62	H	0.822701	-0.705901	-0.053267
H63	H	0.746356	-0.624435	-0.116809
H64	H	1.036505	-0.123616	0.000142
H65	H	0.802401	0.324259	0.634402
H66	H	0.634159	-0.154113	0.000034
O67	O	0.794431	0.337840	0.207870
C68	C	0.807369	0.462134	0.228260
H69	H	0.867966	0.462627	0.251193
H70	H	0.798986	0.525172	0.173373
H71	H	0.765617	0.499110	0.276701
O72	O	0.619356	-0.399589	-0.000117
C73	C	0.577976	-0.358296	-0.068776
H74	H	0.618858	-0.331154	-0.116755
H75	H	0.545367	-0.437541	-0.091839
H76	H	0.536244	-0.272807	-0.053254
H77	H	0.802418	0.324274	0.785795
O78	O	0.257396	0.391590	-0.000015
C79	C	0.232987	0.460682	-0.068689
H80	H	0.178057	0.426619	-0.091576
H81	H	0.222573	0.565292	-0.053250
H82	H	0.278590	0.446007	-0.116771
O83	O	0.499136	0.397847	-0.000037
C84	C	0.452973	0.403495	-0.068707
H85	H	0.448454	0.303827	-0.091586
H86	H	0.393888	0.450463	-0.053268
H87	H	0.479246	0.460760	-0.116797
H88	H	0.761023	-0.062854	0.000076
O89	O	0.995439	0.000363	0.207898
C90	C	0.982481	-0.123905	0.228347
H91	H	0.921881	-0.124356	0.251282
H92	H	0.990858	-0.186989	0.173489
H93	H	1.024226	-0.160858	0.276803
O94	O	1.028659	-0.619486	0.000005
C95	C	1.065731	-0.671549	-0.068665
H96	H	1.107156	-0.604927	-0.091543
H97	H	1.098184	-0.766649	-0.053224
H98	H	1.021832	-0.685172	-0.116754
H99	H	0.987533	0.014023	0.634402
O100	O	0.995425	0.000446	0.372389
C101	C	0.954505	-0.076939	0.420686
H102	H	0.894806	-0.078944	0.395550
H103	H	0.984870	-0.176816	0.421632
H104	H	0.950751	-0.037633	0.483931
O105	O	0.995491	0.000634	0.792479
C106	C	0.984573	0.018983	0.875082
H107	H	0.924648	0.066039	0.886485
H108	H	0.992504	-0.076139	0.906803
H109	H	1.027738	0.081884	0.898754
O110	O	0.794439	0.337629	0.372473
C111	C	0.805374	0.319285	0.455077
H112	H	0.865300	0.272225	0.466471
H113	H	0.797452	0.414410	0.486782
H114	H	0.762211	0.256390	0.478772
H115	H	0.283168	-0.041858	0.000122
O116	O	1.166349	-0.520435	0.000261
C117	C	1.169249	-0.597099	0.068933
H118	H	1.109134	-0.603529	0.091812
H119	H	1.196921	-0.695634	0.053495
H120	H	1.204036	-0.554128	0.117021
O121	O	0.135013	-0.063766	-0.000013
C122	C	0.089831	-0.071812	-0.068664
H123	H	0.108847	-0.006251	-0.116662
H124	H	0.096383	-0.173045	-0.091701
H125	H	0.027730	-0.042648	-0.053142
O126	O	0.532305	-0.053141	0.000067
C127	C	0.452345	-0.030681	0.000088
H128	H	0.434319	0.067377	-0.025015
H129	H	0.427719	-0.104557	-0.038398
H130	H	0.430340	-0.036704	0.063693
O131	O	0.688160	-0.049035	-0.000017
C132	C	0.734321	-0.054679	-0.068691
H133	H	0.738831	0.044989	-0.091588
H134	H	0.793409	-0.101635	-0.053248
H135	H	0.708050	-0.111956	-0.116767
O136	O	1.170582	-0.262236	0.000268
C137	C	1.211945	-0.303472	0.068948
H138	H	1.190833	-0.394256	0.091834
H139	H	1.274880	-0.321853	0.053517
H140	H	1.203572	-0.227656	0.117027
