data_functionalizedCrystal
_audit_creation_method	'MofGen! by Chris Wilmer'
_symmetry_space_group_name_H-M	'P1'
_symmetry_Int_Tables_number	1
_symmetry_cell_setting	triclinic
loop_
_symmetry_equiv_pos_as_xyz
  x,y,z
_cell_length_a	14.908783
_cell_length_b	14.908178
_cell_length_c	18.215399
_cell_angle_alpha	93.325522
_cell_angle_beta	93.319871
_cell_angle_gamma	96.402596
loop_
_atom_site_label
_atom_site_type_symbol
_atom_site_fract_x
_atom_site_fract_y
_atom_site_fract_z
Zn1	Zn	1.363071	-0.280644	0.467152
Zn2	Zn	1.354241	-0.432033	0.336540
Zn3	Zn	1.211698	-0.289395	0.336552
Zn4	Zn	1.202943	-0.440700	0.452025
O5	O	1.282988	-0.360693	0.398067
O6	O	1.488568	-0.293436	0.456152
O7	O	1.335301	-0.413147	0.233554
O8	O	1.239137	-0.161556	0.360212
O9	O	1.482081	-0.404660	0.360192
O10	O	1.350350	-0.155126	0.456163
O11	O	1.230575	-0.308352	0.233563
O12	O	1.083868	-0.316756	0.345544
O13	O	1.224216	-0.419433	0.557019
O14	O	1.077436	-0.427920	0.430381
O15	O	1.341861	-0.301840	0.568133
O16	O	1.326812	-0.559861	0.345523
O17	O	1.215654	-0.566229	0.430369
C18	C	1.047808	-0.374229	0.386322
C19	C	0.947196	-0.380041	0.381314
C20	C	0.764879	-0.275304	0.471963
C21	C	0.670344	-0.280762	0.467260
C22	C	0.663592	-0.396411	0.367203
C23	C	0.758126	-0.390953	0.371906
C24	C	0.808766	-0.330398	0.424288
C25	C	0.903302	-0.324945	0.428994
C26	C	0.896548	-0.440589	0.328934
C27	C	0.802014	-0.446047	0.324231
C28	C	1.269350	-0.595890	0.386321
C29	C	1.263598	-0.696504	0.381325
C30	C	1.368508	-0.878727	0.471947
C31	C	1.363106	-0.973262	0.467255
C32	C	1.247390	-0.980111	0.367253
C33	C	1.252791	-0.885576	0.371945
C34	C	1.313353	-0.834887	0.424293
C35	C	1.318758	-0.740350	0.428981
C36	C	1.203038	-0.747201	0.328983
C37	C	1.197636	-0.841736	0.324291
C38	C	1.519087	-0.347105	0.409858
C39	C	1.619698	-0.341314	0.414883
C40	C	1.283047	-0.360627	0.590026
C41	C	1.283072	-0.360599	0.671827
C42	C	1.296705	-0.124576	0.409877
C43	C	1.302550	-0.023957	0.414909
C44	C	1.282986	-0.360690	0.206861
C45	C	1.283151	-0.360453	0.125081
C46	C	1.344354	-0.299313	0.865813
C47	C	1.344366	-0.299286	0.942674
C48	C	1.221863	-0.421742	0.931089
C49	C	1.221847	-0.421764	0.854230
C50	C	1.283097	-0.360551	0.821594
C51	C	1.283126	-0.360502	0.975314
C52	C	1.283138	-0.360473	1.058650
C53	C	1.283084	-0.360578	0.738253
H54	H	0.634615	-0.235896	0.506080
O55	O	0.943885	-0.500009	0.277502
H56	H	0.921638	-0.572123	0.285583
H57	H	1.148327	-0.883020	0.281672
H58	H	1.394246	-0.249419	0.978674
O59	O	1.410410	-0.233292	0.830608
H60	H	1.399007	-0.163134	0.848133
O61	O	1.433834	-0.824046	0.528396
H62	H	1.417236	-0.843043	0.584471
O63	O	1.422596	-1.020551	0.518649
H64	H	1.465618	-0.969418	0.555833
O65	O	0.957920	-0.259632	0.485490
H66	H	1.031029	-0.265095	0.480757
O67	O	1.155802	-0.487765	0.966288
H68	H	1.166107	-0.477468	1.027163
O69	O	1.182086	-1.034787	0.310785
H70	H	1.187607	-1.107888	0.315526
O71	O	0.608968	-0.461709	0.310699
H72	H	0.535860	-0.456244	0.315441
H73	H	1.171958	-0.471630	0.818225
O74	O	1.384076	-0.685675	0.485439
H75	H	1.432622	-0.639944	0.456970
O76	O	1.143544	-0.699924	0.277574
H77	H	1.099916	-0.659525	0.310309
O78	O	0.819507	-0.209996	0.528457
H79	H	0.773106	-0.172598	0.560817
H80	H	0.760770	-0.495346	0.281580
