data_functionalizedCrystal
_audit_creation_method	'MofGen! by Chris Wilmer'
_symmetry_space_group_name_H-M	'P1'
_symmetry_Int_Tables_number	1
_symmetry_cell_setting	triclinic
loop_
_symmetry_equiv_pos_as_xyz
  x,y,z
_cell_length_a	14.908782
_cell_length_b	14.908579
_cell_length_c	14.908308
_cell_angle_alpha	83.636704
_cell_angle_beta	96.759680
_cell_angle_gamma	90.160963
loop_
_atom_site_label
_atom_site_type_symbol
_atom_site_fract_x
_atom_site_fract_y
_atom_site_fract_z
Zn1	Zn	1.325891	0.462150	-0.460102
Zn2	Zn	1.659224	0.795483	-0.126769
Zn3	Zn	1.992557	1.128817	0.206565
Zn4	Zn	1.325784	0.604790	-0.317485
Zn5	Zn	1.659118	0.938123	0.015849
Zn6	Zn	1.992451	1.271456	0.349182
Zn7	Zn	1.184272	0.445733	-0.316501
Zn8	Zn	1.517606	0.779066	0.016832
Zn9	Zn	1.850939	1.112399	0.350165
Zn10	Zn	1.165761	0.604740	-0.477542
Zn11	Zn	1.499094	0.938073	-0.144209
Zn12	Zn	1.832427	1.271407	0.189125
O13	O	1.250427	0.529353	-0.392907
O14	O	1.583760	0.862686	-0.059574
O15	O	1.917094	1.196020	0.273759
O16	O	1.452115	0.487963	-0.434296
O17	O	1.785448	0.821296	-0.100963
O18	O	2.118781	1.154630	0.232370
O19	O	1.314715	0.576841	-0.190272
O20	O	1.648049	0.910174	0.143061
O21	O	1.981382	1.243507	0.476394
O22	O	1.210850	0.321670	-0.327840
O23	O	1.544183	0.655004	0.005493
O24	O	1.877517	0.988337	0.338827
O25	O	1.452037	0.592760	-0.329516
O26	O	1.785370	0.926093	0.003817
O27	O	2.118703	1.259427	0.337151
O28	O	1.314896	0.333732	-0.433343
O29	O	1.648230	0.667065	-0.100009
O30	O	1.981563	1.000399	0.233324
O31	O	1.210747	0.459982	-0.189550
O32	O	1.544080	0.793316	0.143784
O33	O	1.877414	1.126649	0.477117
O34	O	1.055579	0.459934	-0.344751
O35	O	1.388912	0.793267	-0.011418
O36	O	1.722245	1.126600	0.321916
O37	O	1.179300	0.592675	-0.602311
O38	O	1.512633	0.926008	-0.268977
O39	O	1.845966	1.259341	0.064356
O40	O	1.041978	0.576756	-0.463067
O41	O	1.375311	0.910089	-0.129734
O42	O	1.708645	1.243422	0.203600
O43	O	1.296946	0.487915	-0.589497
O44	O	1.630280	0.821248	-0.256164
O45	O	1.963613	1.154581	0.077169
O46	O	1.296765	0.731024	-0.346427
O47	O	1.630099	1.064357	-0.013094
O48	O	1.963432	1.397690	0.320240
O49	O	1.179197	0.730987	-0.464021
O50	O	1.512530	1.064320	-0.130687
O51	O	1.845863	1.397653	0.202646
C52	C	1.016046	0.516558	-0.405695
C53	C	1.349379	0.849892	-0.072362
C54	C	1.682713	1.183225	0.260971
C55	C	0.915774	0.511108	-0.411189
C56	C	1.249108	0.844441	-0.077856
C57	C	1.582441	1.177774	0.255478
C58	C	0.727291	0.609822	-0.312217
C59	C	1.060624	0.943156	0.021116
C60	C	1.393957	1.276489	0.354449
C61	C	0.633076	0.604704	-0.317376
C62	C	0.966410	0.938037	0.015957
C63	C	1.299743	1.271371	0.349290
C64	C	0.633129	0.495757	-0.426670
C65	C	0.966462	0.829091	-0.093337
C66	C	1.299796	1.162424	0.239996
C67	C	0.727343	0.500876	-0.421511
C68	C	1.060677	0.834209	-0.088178
C69	C	1.394010	1.167543	0.245155
C70	C	0.774421	0.557909	-0.364282
C71	C	1.107754	0.891243	-0.030948
C72	C	1.441088	1.224576	0.302385
C73	C	0.868638	0.563023	-0.359118
C74	C	1.201971	0.896356	-0.025785
C75	C	1.535304	1.229689	0.307548
C76	C	0.868688	0.454081	-0.468417
C77	C	1.202021	0.787415	-0.135083
C78	C	1.535355	1.120748	0.198250
C79	C	0.774474	0.448963	-0.473576
C80	C	1.107807	0.782296	-0.140242
C81	C	1.441140	1.115630	0.193091
C82	C	1.235984	0.763740	-0.407241
C83	C	1.569317	1.097074	-0.073908
C84	C	1.902651	1.430407	0.259425
C85	C	1.229886	0.864018	-0.413399
C86	C	1.563219	1.197352	-0.080066
C87	C	1.896552	1.530685	0.253267
C88	C	1.340964	1.052440	-0.302608
C89	C	1.674297	1.385773	0.030725
C90	C	2.007631	1.719106	0.364059
C91	C	1.335237	1.146660	-0.308391
C92	C	1.668571	1.479993	0.024943
C93	C	2.001904	1.813327	0.358276
C94	C	1.212711	1.146681	-0.430752
C95	C	1.546044	1.480014	-0.097418
C96	C	1.879378	1.813347	0.235915
C97	C	1.218438	1.052461	-0.424969
C98	C	1.551771	1.385794	-0.091635
C99	C	1.885104	1.719127	0.241698
C100	C	1.282565	1.005343	-0.360894
C101	C	1.615899	1.338677	-0.027561
C102	C	1.949232	1.672010	0.305773
C103	C	1.288287	0.911121	-0.355107
C104	C	1.621620	1.244454	-0.021774
C105	C	1.954954	1.577788	0.311559
C106	C	1.165766	0.911144	-0.477472
C107	C	1.499099	1.244477	-0.144139
C108	C	1.832432	1.577811	0.189195
C109	C	1.160039	1.005364	-0.483255
C110	C	1.493372	1.338697	-0.149921
C111	C	1.826706	1.672031	0.183412
C112	C	1.485723	0.542198	-0.380070
C113	C	1.819056	0.875532	-0.046737
C114	C	2.152390	1.208865	0.286596
C115	C	1.585992	0.547672	-0.374600
C116	C	1.919326	0.881006	-0.041267
C117	C	2.252659	1.214339	0.292067
C118	C	1.236070	0.542120	-0.629776
C119	C	1.569403	0.875454	-0.296443
C120	C	1.902737	1.208787	0.036890
C121	C	1.229952	0.547561	-0.730716
C122	C	1.563285	0.880894	-0.397382
C123	C	1.896618	1.214228	-0.064049
C124	C	1.264943	1.294053	-0.378548
C125	C	1.598277	1.627387	-0.045215
C126	C	1.931610	1.960720	0.288119
C127	C	1.271112	1.193783	-0.372460
C128	C	1.604446	1.527117	-0.039126
C129	C	1.937779	1.860450	0.294207
C130	C	1.340959	0.448677	-0.907050
C131	C	1.674293	0.782010	-0.573716
C132	C	2.007626	1.115343	-0.240383
C133	C	1.335214	0.453786	-1.001891
C134	C	1.668547	0.787119	-0.668557
C135	C	2.001880	1.120452	-0.335224
C136	C	1.212711	0.562883	-1.015241
C137	C	1.546045	0.896216	-0.681907
C138	C	1.879378	1.229549	-0.348574
C139	C	1.218457	0.557774	-0.920400
C140	C	1.551790	0.891107	-0.587066
C141	C	1.885124	1.224440	-0.253733
C142	C	1.282584	0.500670	-0.866307
C143	C	1.615917	0.834003	-0.532974
C144	C	1.949251	1.167337	-0.199640
C145	C	1.288333	0.495566	-0.771464
C146	C	1.621666	0.828900	-0.438131
C147	C	1.955000	1.162233	-0.104798
C148	C	1.165827	0.604658	-0.784816
C149	C	1.499160	0.937991	-0.451483
C150	C	1.832494	1.271325	-0.118149
C151	C	1.160082	0.609767	-0.879657
C152	C	1.493415	0.943100	-0.546324
C153	C	1.826748	1.276434	-0.212990
C154	C	1.264784	0.516573	-0.156953
C155	C	1.598118	0.849907	0.176380
C156	C	1.931451	1.183240	0.509713
C157	C	1.271093	0.510888	-0.055989
C158	C	1.604426	0.844221	0.277344
C159	C	1.937759	1.177555	0.610677
H160	H	0.594706	0.646978	-0.274981
H161	H	0.928039	0.980312	0.058352
H162	H	1.261373	1.313645	0.391685
H163	H	1.382747	0.411445	-1.035059
H164	H	1.716080	0.744778	-0.701726
H165	H	2.049413	1.078112	-0.368392
Cl166	Cl	0.786477	0.681517	-0.240272
Cl167	Cl	1.119811	1.014850	0.093062
Cl168	Cl	1.453144	1.348184	0.426395
H169	H	0.906967	0.609460	-0.312517
H170	H	1.240300	0.942794	0.020816
H171	H	1.573634	1.276127	0.354149
Cl172	Cl	1.368951	0.423782	-0.703463
Cl173	Cl	1.702284	0.757115	-0.370130
Cl174	Cl	2.035617	1.090448	-0.036797
Cl175	Cl	1.132112	1.205930	-0.511307
Cl176	Cl	1.465445	1.539264	-0.177974
Cl177	Cl	1.798778	1.872597	0.155360
Cl178	Cl	0.573929	0.424081	-0.498626
Cl179	Cl	0.907262	0.757415	-0.165293
Cl180	Cl	1.240595	1.090748	0.168040
Cl181	Cl	1.132096	0.634657	-1.083257
Cl182	Cl	1.465429	0.967991	-0.749924
Cl183	Cl	1.798763	1.301324	-0.416591
H184	H	1.382793	1.185002	-0.260930
H185	H	1.716127	1.518336	0.072404
H186	H	2.049460	1.851669	0.405737
H187	H	1.107870	0.656257	-0.923712
H188	H	1.441203	0.989591	-0.590379
H189	H	1.774536	1.322924	-0.257045
Cl190	Cl	1.368900	0.851889	-0.274554
Cl191	Cl	1.702234	1.185222	0.058779
Cl192	Cl	2.035567	1.518555	0.392113
H193	H	0.736130	0.402531	-0.520173
H194	H	1.069463	0.735864	-0.186840
H195	H	1.402797	1.069197	0.146494
H196	H	0.907072	0.411806	-0.510807
H197	H	1.240405	0.745139	-0.177474
H198	H	1.573739	1.078472	0.155859
H199	H	1.393173	1.014076	-0.250430
H200	H	1.726507	1.347409	0.082904
H201	H	2.059840	1.680742	0.416237
Cl202	Cl	1.079429	1.064606	-0.563804
Cl203	Cl	1.412762	1.397939	-0.230471
Cl204	Cl	1.746095	1.731273	0.102863
H205	H	1.118211	0.872787	-0.524930
H206	H	1.451544	1.206120	-0.191597
H207	H	1.784877	1.539454	0.141737
H208	H	1.393178	0.402185	-0.863006
H209	H	1.726511	0.735519	-0.529673
H210	H	2.059845	1.068852	-0.196340
Cl211	Cl	1.092446	0.670035	-0.733592
Cl212	Cl	1.425779	1.003368	-0.400259
Cl213	Cl	1.759112	1.336701	-0.066925
