data_functionalizedCrystal
_audit_creation_method	'MofGen! by Chris Wilmer'
_symmetry_space_group_name_H-M	'P1'
_symmetry_Int_Tables_number	1
_symmetry_cell_setting	triclinic
loop_
_symmetry_equiv_pos_as_xyz
  x,y,z
_cell_length_a	14.519731
_cell_length_b	13.339070
_cell_length_c	12.376492
_cell_angle_alpha	75.612360
_cell_angle_beta	101.316620
_cell_angle_gamma	99.659063
loop_
_atom_site_label
_atom_site_type_symbol
_atom_site_fract_x
_atom_site_fract_y
_atom_site_fract_z
O1	O	-1.270368	-0.113399	-0.094056
O2	O	-1.005863	-0.129001	-0.094055
O3	O	-1.107754	0.026114	-0.094020
O4	O	-1.168477	-0.268514	-0.094092
O5	O	-1.082279	-0.012613	0.093983
O6	O	-0.980388	-0.167728	0.093948
O7	O	-1.244894	-0.152126	0.093947
Zn8	Zn	-1.108596	-0.166076	0.123797
Zn9	Zn	-1.142160	-0.115051	-0.123905
O10	O	-1.143002	-0.307241	0.093912
C11	C	-0.958580	-0.147633	-0.000053
C12	C	-0.855642	-0.145443	-0.000051
C13	C	-0.772046	-0.143663	-0.000053
C14	C	-0.667171	-0.141439	-0.000051
C15	C	-0.583582	-0.139674	-0.000048
C16	C	-0.478701	-0.137451	-0.000048
C17	C	-1.084760	0.044457	-0.000012
C18	C	-1.054188	0.156813	0.000009
N19	N	-1.085696	-0.200898	0.292847
C20	C	-0.292176	-0.133494	-0.000052
C21	C	-0.395113	-0.135686	-0.000046
C22	C	-0.958860	0.197695	-0.000008
C23	C	-0.930138	0.303265	-0.000024
C24	C	-0.996741	0.367966	-0.000033
C25	C	-1.092072	0.327086	-0.000024
C26	C	-1.120796	0.221504	0.000001
C27	C	-1.158677	0.391775	-0.000024
C28	C	-1.254007	0.350895	-0.000016
C29	C	-1.282727	0.245323	0.000009
C30	C	-1.216123	0.180622	0.000017
C31	C	-1.129953	0.497357	-0.000049
C32	C	-1.291888	0.521166	-0.000041
C33	C	-1.320611	0.415596	-0.000024
C34	C	-1.165994	0.674413	-0.000082
C35	C	-1.196561	0.562048	-0.000057
C36	C	-1.218212	0.000624	0.647878
C37	C	-1.234235	0.024996	0.529544
C38	C	-1.197101	-0.031475	0.470364
C39	C	-1.143943	-0.112323	0.529530
C40	C	-1.127925	-0.136703	0.647876
C41	C	-1.106814	-0.168802	0.470362
C42	C	-1.053656	-0.249650	0.529528
C43	C	-1.037640	-0.274026	0.647862
C44	C	-1.074774	-0.217554	0.707042
C45	C	-1.122832	-0.144422	0.352016
C46	C	-1.032545	-0.281749	0.352013
C47	C	-1.016522	-0.306121	0.470348
N48	N	-1.165061	-0.080227	0.707044
H49	H	-0.973350	0.453926	-0.000049
N50	N	-0.832764	0.345004	-0.000033
N51	N	-0.773306	0.287230	-0.000029
H52	H	-0.704530	0.316707	-0.000038
H53	H	-1.239506	0.094658	0.000022
H54	H	-1.398232	0.382298	-0.000026
N55	N	-1.288651	0.107474	0.469129
N56	N	-1.321879	0.157820	0.521976
H57	H	-1.360358	0.216038	0.479308
H58	H	-1.166114	-0.078596	0.303853
N59	N	-1.058408	-0.242431	0.827921
N60	N	-1.091561	-0.191993	0.880739
H61	H	-1.080003	-0.209558	0.966112
N62	N	-1.359916	0.587257	-0.000036
N63	N	-1.334258	0.681518	-0.000055
H64	H	-1.382297	0.728200	-0.000046
N65	N	-1.213481	-0.006574	0.349489
N66	N	-1.260946	0.065610	0.296677
H67	H	-1.272516	0.083202	0.211304
N68	N	-0.962212	-0.388692	0.530792
N69	N	-0.887779	-0.370029	0.596846
H70	H	-0.849420	-0.428343	0.639537
H71	H	-0.904641	0.145005	0.000007
N72	N	-1.256156	0.058268	0.708345
N73	N	-1.241861	0.036475	0.814004
H74	H	-1.268669	0.077184	0.856712
H75	H	-1.052333	0.530630	-0.000051
N76	N	-0.983358	-0.356628	0.708283
N77	N	-0.950213	-0.407046	0.655437
H78	H	-0.911879	-0.465388	0.698106
H79	H	-1.360349	0.212039	0.000028
H80	H	-1.002310	-0.327735	0.303830
