data_functionalizedCrystal
_audit_creation_method	'MofGen! by Chris Wilmer'
_symmetry_space_group_name_H-M	'P1'
_symmetry_Int_Tables_number	1
_symmetry_cell_setting	triclinic
loop_
_symmetry_equiv_pos_as_xyz
  x,y,z
_cell_length_a	12.811453
_cell_length_b	9.565339
_cell_length_c	12.837942
_cell_angle_alpha	89.999206
_cell_angle_beta	90.587019
_cell_angle_gamma	84.564668
loop_
_atom_site_label
_atom_site_type_symbol
_atom_site_fract_x
_atom_site_fract_y
_atom_site_fract_z
O1	O	-1.406645	0.294600	0.139699
O2	O	-1.102580	0.256052	0.154883
O3	O	-1.247870	0.274463	-0.003641
O4	O	-1.261355	0.276189	0.298223
O5	O	-1.247858	0.041941	-0.003631
O6	O	-1.102568	0.023530	0.154893
O7	O	-1.406633	0.062078	0.139709
Zn8	Zn	-1.254599	0.005887	0.147303
Zn9	Zn	-1.254614	0.312244	0.147290
O10	O	-1.261343	0.043668	0.298233
C11	C	-1.063384	0.134823	0.154036
C12	C	-0.946612	0.120019	0.151486
N13	N	-1.254596	-0.203193	0.147311
C14	C	-0.727193	0.345721	0.146702
C15	C	-0.617474	0.331818	0.144306
C16	C	-0.617454	0.078309	0.144306
C17	C	-0.727172	0.092213	0.146701
C18	C	-0.782038	0.225923	0.147898
C19	C	-0.891759	0.239826	0.150287
C20	C	-0.891736	-0.013682	0.150293
C21	C	-0.782018	-0.027586	0.147897
C22	C	-1.187379	-0.302914	0.220599
C23	C	-1.284280	-0.383807	0.241132
C24	C	-1.157737	-0.399850	0.126785
C25	C	-1.351549	-0.282028	0.167892
C26	C	-1.224939	-0.298072	0.053503
C27	C	-1.321905	-0.378914	0.073998
C28	C	-0.445828	0.183309	0.140556
C29	C	-0.562601	0.198116	0.143106
C30	C	-1.243309	0.157625	-0.042276
C31	C	-1.229723	0.155905	-0.157412
N32	N	-1.254625	0.521325	0.147273
C33	C	-1.393052	0.176640	-0.397663
C34	C	-1.380292	0.175025	-0.505845
C35	C	-1.191442	0.151069	-0.481957
C36	C	-1.204203	0.152684	-0.373776
C37	C	-1.305011	0.165468	-0.331634
C38	C	-1.317771	0.167074	-0.223450
C39	C	-1.128922	0.143128	-0.199565
C40	C	-1.116161	0.141512	-0.307746
C41	C	-1.265904	0.160508	0.336868
C42	C	-1.279490	0.162238	0.452004
H43	H	-0.936429	0.348700	0.151261
H44	H	-1.378829	-0.412300	0.012001
H45	H	-1.199809	-0.260262	-0.025786
N46	N	-1.082721	0.137288	-0.527421
H47	H	-1.043666	0.218530	-0.503372
H48	H	-1.088093	0.137926	-0.605965
H49	H	-1.075813	-0.451201	0.109441
H50	H	-1.451985	0.184127	-0.559603
N51	N	-1.426493	0.180853	-0.177991
H52	H	-1.480330	0.187688	-0.236241
H53	H	-1.435902	0.268241	-0.133624
N54	N	-0.950881	-0.142912	0.151580
H55	H	-0.998484	-0.142528	0.088361
H56	H	-0.994259	-0.142995	0.216823
N57	N	-1.501775	0.190405	-0.352204
H58	H	-1.511290	0.277798	-0.307846
H59	H	-1.511191	0.105338	-0.307907
N60	N	-1.007437	0.127729	-0.353203
H61	H	-1.012711	0.128402	-0.431755
H62	H	-0.968438	0.036579	-0.329080
H63	H	-0.771866	0.454594	0.147672
H64	H	-1.130599	-0.269254	0.282633
N65	N	-0.558318	0.461027	0.143018
H66	H	-0.609727	0.547836	0.144139
H67	H	-0.514882	0.461045	0.077810
H68	H	-1.057232	0.134020	-0.145791
H69	H	-0.572763	-0.030552	0.143341
H70	H	-1.309383	-0.421587	0.320447
N71	N	-0.722839	-0.171795	0.146613
H72	H	-0.644975	-0.162441	0.146333
H73	H	-0.743043	-0.223752	0.082095
N74	N	-1.460107	-0.214253	0.190987
H75	H	-1.459420	-0.108755	0.190889
H76	H	-1.482604	-0.246249	0.261575
