data_functionalizedCrystal
_audit_creation_method	'MofGen! by Chris Wilmer'
_symmetry_space_group_name_H-M	'P1'
_symmetry_Int_Tables_number	1
_symmetry_cell_setting	triclinic
loop_
_symmetry_equiv_pos_as_xyz
  x,y,z
_cell_length_a	19.188930
_cell_length_b	16.109301
_cell_length_c	15.186229
_cell_angle_alpha	90.003114
_cell_angle_beta	89.995250
_cell_angle_gamma	96.696869
loop_
_atom_site_label
_atom_site_type_symbol
_atom_site_fract_x
_atom_site_fract_y
_atom_site_fract_z
O1	O	0.089739	-1.102837	-0.073183
O2	O	0.423073	-0.769504	0.260150
O3	O	0.756406	-0.436170	0.593484
O4	O	0.100908	-0.860738	-0.073198
O5	O	0.434241	-0.527405	0.260135
O6	O	0.767575	-0.194071	0.593468
O7	O	-0.006316	-0.988774	-0.073173
O8	O	0.327018	-0.655440	0.260160
O9	O	0.660351	-0.322107	0.593494
O10	O	0.196963	-0.974801	-0.073208
O11	O	0.530296	-0.641468	0.260125
O12	O	0.863630	-0.308134	0.593458
O13	O	-0.006308	-0.988758	0.073284
O14	O	0.327025	-0.655425	0.406618
O15	O	0.660358	-0.322091	0.739951
O16	O	0.100915	-0.860722	0.073259
O17	O	0.434249	-0.527389	0.406592
O18	O	0.767582	-0.194055	0.739926
O19	O	0.089747	-1.102821	0.073274
O20	O	0.423080	-0.769488	0.406608
O21	O	0.756414	-0.436154	0.739941
Zn22	Zn	0.095332	-0.981769	0.096520
Zn23	Zn	0.428666	-0.648436	0.429853
Zn24	Zn	0.761999	-0.315102	0.763187
Zn25	Zn	0.095322	-0.981790	-0.096444
Zn26	Zn	0.428656	-0.648457	0.236889
Zn27	Zn	0.761989	-0.315123	0.570223
O28	O	0.196970	-0.974785	0.073249
O29	O	0.530304	-0.641452	0.406582
O30	O	0.863637	-0.308119	0.739916
C31	C	0.100459	-0.829757	0.000029
C32	C	0.433793	-0.496423	0.333362
C33	C	0.767126	-0.163090	0.666695
C34	C	0.099103	-0.737466	0.000024
C35	C	0.432436	-0.404132	0.333357
C36	C	0.765770	-0.070799	0.666690
C37	C	-0.032324	-0.988313	0.000058
C38	C	0.301009	-0.654980	0.333391
C39	C	0.634343	-0.321647	0.666725
C40	C	-0.109832	-0.986955	0.000066
C41	C	0.223502	-0.653622	0.333399
C42	C	0.556835	-0.320288	0.666732
C43	C	0.090196	-1.133802	0.000045
C44	C	0.423529	-0.800469	0.333379
C45	C	0.756862	-0.467136	0.666712
C46	C	0.091552	-1.226093	0.000045
C47	C	0.424885	-0.892760	0.333378
C48	C	0.758219	-0.559427	0.666711
C49	C	-0.154580	-1.062082	0.000075
C50	C	0.178753	-0.728749	0.333408
C51	C	0.512087	-0.395416	0.666741
C52	C	-0.227407	-1.060806	0.000060
C53	C	0.105927	-0.727473	0.333394
C54	C	0.439260	-0.394140	0.666727
C55	C	-0.255482	-0.984399	0.000055
C56	C	0.077851	-0.651065	0.333388
C57	C	0.411185	-0.317732	0.666722
C58	C	-0.210724	-0.909261	0.000041
C59	C	0.122610	-0.575928	0.333374
C60	C	0.455943	-0.242595	0.666708
C61	C	-0.137899	-0.910540	0.000046
C62	C	0.195435	-0.577206	0.333380
C63	C	0.528768	-0.243873	0.666713
N64	N	-0.363621	-0.925989	0.049893
N65	N	-0.030288	-0.592655	0.383227
N66	N	0.303046	-0.259322	0.716560
N67	N	-0.432802	-0.924780	0.049890
N68	N	-0.099469	-0.591446	0.383224
N69	N	0.233864	-0.258113	0.716557
C70	C	-0.474900	-0.980543	0.000037
C71	C	-0.141566	-0.647209	0.333370
C72	C	0.191767	-0.313876	0.666704
N73	N	-0.445203	-1.037573	-0.049802
N74	N	-0.111870	-0.704240	0.283531
N75	N	0.221463	-0.370907	0.616865
N76	N	-0.376016	-1.038785	-0.049795
N77	N	-0.042683	-0.705452	0.283538
N78	N	0.290651	-0.372118	0.616872
C79	C	-0.334448	-0.983004	0.000049
C80	C	-0.001114	-0.649671	0.333382
C81	C	0.332219	-0.316337	0.666715
C82	C	-0.598616	-1.054292	0.000029
C83	C	-0.265282	-0.720958	0.333363
C84	C	0.068051	-0.387625	0.666696
C85	C	-0.671443	-1.053012	0.000010
C86	C	-0.338110	-0.719679	0.333343
C87	C	-0.004777	-0.386346	0.666676
C88	C	-0.654759	-0.901465	-0.000001
C89	C	-0.321425	-0.568132	0.333332
C90	C	0.011908	-0.234799	0.666666
C91	C	-0.581933	-0.902747	0.000010
C92	C	-0.248599	-0.569413	0.333343
C93	C	0.084734	-0.236080	0.666676
C94	C	-0.553866	-0.979162	0.000029
C95	C	-0.220532	-0.645829	0.333362
C96	C	0.112801	-0.312495	0.666696
C97	C	0.222979	-0.975246	0.000016
C98	C	0.556312	-0.641912	0.333349
C99	C	0.889645	-0.308579	0.666683
C100	C	0.300486	-0.976604	0.000003
C101	C	0.633820	-0.643271	0.333336
C102	C	0.967153	-0.309937	0.666669
N103	N	0.095339	-0.981761	0.228213
N104	N	0.428672	-0.648428	0.561546
N105	N	0.762005	-0.315094	0.894879
C106	C	0.159573	-0.514993	0.000023
C107	C	0.492907	-0.181660	0.333357
C108	C	0.826240	0.151674	0.666690
C109	C	0.158294	-0.428277	0.000029
C110	C	0.491627	-0.094944	0.333363
C111	C	0.824960	0.238390	0.666696
C112	C	0.031076	-0.448573	0.000048
C113	C	0.364410	-0.115239	0.333381
C114	C	0.697743	0.218094	0.666714
C115	C	0.032357	-0.535287	0.000048
C116	C	0.365690	-0.201954	0.333381
C117	C	0.699024	0.131379	0.666715
C118	C	0.096608	-0.568495	0.000031
C119	C	0.429941	-0.235161	0.333365
C120	C	0.763274	0.098172	0.666698
C121	C	0.094047	-0.395064	0.000037
C122	C	0.427380	-0.061731	0.333370
C123	C	0.760714	0.271602	0.666704
C124	C	0.092659	-0.301043	0.000043
C125	C	0.425992	0.032291	0.333377
C126	C	0.759326	0.365624	0.666710
C127	C	0.097996	-0.662522	0.000027
C128	C	0.431329	-0.329189	0.333360
C129	C	0.764663	0.004144	0.666693
C130	C	0.137689	-1.032043	0.453931
C131	C	0.471023	-0.698710	0.787264
C132	C	0.804356	-0.365377	1.120598
C133	C	0.137685	-1.032052	0.546121
C134	C	0.471018	-0.698719	0.879454
C135	C	0.804352	-0.365385	1.212787
C136	C	0.052965	-0.931515	0.546139
C137	C	0.386298	-0.598182	0.879472
C138	C	0.719631	-0.264849	1.212805
C139	C	0.052966	-0.931512	0.453951
C140	C	0.386299	-0.598178	0.787284
C141	C	0.719632	-0.264845	1.120617
C142	C	0.095332	-0.981774	0.407849
C143	C	0.428665	-0.648441	0.741183
C144	C	0.761999	-0.315108	1.074516
C145	C	0.095327	-0.981786	0.592227
C146	C	0.428660	-0.648453	0.925560
C147	C	0.761994	-0.315120	1.258893
C148	C	0.095322	-0.981795	0.692183
C149	C	0.428655	-0.648462	1.025516
C150	C	0.761989	-0.315129	1.358850
C151	C	0.095336	-0.981767	0.307887
C152	C	0.428669	-0.648433	0.641220
C153	C	0.762003	-0.315100	0.974553
N154	N	0.095320	-0.981800	0.771863
N155	N	0.428653	-0.648466	1.105197
N156	N	0.761987	-0.315133	1.438530
H157	H	-0.263848	-1.121986	0.000064
H158	H	0.069485	-0.788653	0.333397
H159	H	0.402819	-0.455319	0.666731
H160	H	-0.018920	-0.578851	0.000057
H161	H	0.314413	-0.245518	0.333390
H162	H	0.647746	0.087816	0.666724
O163	O	-0.685031	-0.819052	-0.000009
O164	O	-0.351698	-0.485719	0.333325
O165	O	-0.018364	-0.152386	0.666658
H166	H	-0.667056	-0.782957	0.059681
H167	H	-0.333722	-0.449623	0.393014
H168	H	-0.000389	-0.116290	0.726348
O169	O	0.183369	-1.086270	0.595829
O170	O	0.516702	-0.752937	0.929162
O171	O	0.850036	-0.419604	1.262495
H172	H	0.239171	-1.067969	0.578142
H173	H	0.572504	-0.734636	0.911475
H174	H	0.905838	-0.401302	1.244808
O175	O	-0.038219	-0.412753	0.000065
O176	O	0.295114	-0.079419	0.333398
O177	O	0.628448	0.253914	0.666731
H178	H	-0.068480	-0.434271	-0.059620
H179	H	0.264854	-0.100938	0.273714
H180	H	0.598187	0.232395	0.607047
H181	H	0.209567	-0.384719	0.000024
H182	H	0.542900	-0.051385	0.333358
H183	H	0.876234	0.281948	0.666691
O184	O	-0.089627	-0.829507	0.000052
O185	O	0.243707	-0.496174	0.333385
O186	O	0.577040	-0.162840	0.666719
H187	H	-0.121381	-0.776159	0.000052
H188	H	0.211953	-0.442825	0.333386
H189	H	0.545286	-0.109492	0.666719
H190	H	0.211890	-0.542027	0.000016
H191	H	0.545224	-0.208694	0.333350
H192	H	0.878557	0.124639	0.666683
O193	O	0.007270	-0.877311	0.595868
O194	O	0.340603	-0.543977	0.929201
O195	O	0.673936	-0.210644	1.262535
H196	H	-0.022192	-0.842364	0.548334
H197	H	0.311141	-0.509030	0.881667
H198	H	0.644475	-0.175697	1.215000
O199	O	0.007281	-0.877287	0.404238
O200	O	0.340615	-0.543953	0.737571
O201	O	0.673948	-0.210620	1.070904
H202	H	-0.022170	-0.842326	0.451781
H203	H	0.311163	-0.508993	0.785114
H204	H	0.644496	-0.175660	1.118447
O205	O	-0.533661	-0.821716	0.000022
O206	O	-0.200327	-0.488383	0.333355
O207	O	0.133006	-0.155050	0.666689
H208	H	-0.565415	-0.768369	0.000026
H209	H	-0.232082	-0.435036	0.333360
H210	H	0.101251	-0.101702	0.666693
O211	O	0.183376	-1.086258	0.404203
O212	O	0.516710	-0.752925	0.737536
O213	O	0.850043	-0.419592	1.070869
H214	H	0.212824	-1.121221	0.451738
H215	H	0.546157	-0.787887	0.785072
H216	H	0.879491	-0.454554	1.118405
H217	H	-0.575763	-1.116514	0.000041
H218	H	-0.242429	-0.783180	0.333374
H219	H	0.090904	-0.449847	0.666707
O220	O	-0.124306	-1.144498	0.000071
O221	O	0.209028	-0.811164	0.333404
O222	O	0.542361	-0.477831	0.666737
H223	H	-0.167662	-1.196525	0.000062
H224	H	0.165671	-0.863191	0.333395
H225	H	0.499005	-0.529858	0.666728
H226	H	-0.233587	-0.847050	0.000035
H227	H	0.099746	-0.513716	0.333368
H228	H	0.433079	-0.180383	0.666701
H229	H	-0.707878	-1.114193	0.000012
H230	H	-0.374544	-0.780859	0.333345
H231	H	-0.041211	-0.447526	0.666679
