data_functionalizedCrystal
_audit_creation_method	'MofGen! by Chris Wilmer'
_symmetry_space_group_name_H-M	'P1'
_symmetry_Int_Tables_number	1
_symmetry_cell_setting	triclinic
loop_
_symmetry_equiv_pos_as_xyz
  x,y,z
_cell_length_a	6.817900
_cell_length_b	11.102288
_cell_length_c	17.078481
_cell_angle_alpha	95.111737
_cell_angle_beta	99.306161
_cell_angle_gamma	108.605689
loop_
_atom_site_label
_atom_site_type_symbol
_atom_site_fract_x
_atom_site_fract_y
_atom_site_fract_z
V1	V	-4.005700	-0.175542	-0.247362
O2	O	-3.966747	0.008741	-0.242653
O3	O	-3.983201	-0.348365	-0.245670
O4	O	-3.936325	-0.172708	-0.355245
O5	O	-4.013948	-0.168132	-0.132320
V6	V	-4.488690	-0.153516	-0.233602
O7	O	-4.268129	-0.223860	-0.277545
O8	O	-4.676459	-0.105199	-0.203418
O9	O	-4.287983	0.019306	-0.235293
O10	O	-4.645040	-0.337799	-0.238311
O11	O	-4.597839	-0.160927	-0.348644
O12	O	-4.334858	-0.156350	-0.125719
C13	C	-3.835182	-0.390499	-0.241768
C14	C	-3.897933	-0.531783	-0.241104
C15	C	-4.109728	-0.604627	-0.244750
C16	C	-4.168680	-0.737379	-0.244132
C17	C	-3.804019	-0.724430	-0.236219
C18	C	-3.745073	-0.591682	-0.236842
C19	C	-3.775386	-0.166430	-0.381540
C20	C	-3.800119	-0.165257	-0.469735
C21	C	-3.994021	-0.171050	-0.515211
C22	C	-4.017249	-0.169946	-0.598079
C23	C	-3.846575	-0.163058	-0.635471
C24	C	-3.652655	-0.157261	-0.589988
C25	C	-3.629426	-0.158356	-0.507121
C26	C	-3.896497	-0.159097	-0.882874
C27	C	-3.919744	-0.158006	-0.965748
C28	C	-4.284335	-0.170689	-0.973832
C29	C	-4.261092	-0.171790	-0.890964
C30	C	-4.067172	-0.165986	-0.845488
N31	N	-3.870315	-0.161934	-0.720175
N32	N	-4.043431	-0.167101	-0.760784
C33	C	-4.099346	0.061434	-0.239193
C34	C	-4.015832	0.202717	-0.239863
C35	C	-4.159142	-0.162632	-0.099419
C36	C	-4.113646	-0.163799	-0.011224
H37	H	-4.341140	-0.796684	-0.247103
H38	H	-3.738621	-0.154416	-0.845862
H39	H	-3.780748	-0.152394	-0.996189
C40	C	-3.416140	-0.151988	-0.457094
H41	H	-3.426742	-0.153614	-0.402385
H42	H	-3.380430	-0.223651	-0.476258
H43	H	-3.309658	-0.074746	-0.461767
C44	C	-4.230537	-0.176312	-0.648098
H45	H	-4.328862	-0.180583	-0.613962
H46	H	-4.211784	-0.101696	-0.673343
H47	H	-4.282575	-0.250602	-0.687843
C48	C	-3.635888	-0.790321	-0.231521
H49	H	-3.701322	-0.879813	-0.231664
H50	H	-3.569917	-0.777462	-0.276475
H51	H	-3.532708	-0.754347	-0.183511
H52	H	-4.400077	-0.177397	-0.860525
H53	H	-3.513688	-0.151646	-0.620438
H54	H	-4.133011	-0.176666	-0.484774
C55	C	-3.512085	-0.511547	-0.232828
H56	H	-3.429484	-0.566229	-0.230189
H57	H	-3.500120	-0.471045	-0.279385
H58	H	-3.462908	-0.447940	-0.186421
H59	H	-4.234200	-0.555861	-0.248219
H60	H	-4.442218	-0.175412	-1.010867
