data_functionalizedCrystal
_audit_creation_method	'MofGen! by Chris Wilmer'
_symmetry_space_group_name_H-M	'P1'
_symmetry_Int_Tables_number	1
_symmetry_cell_setting	triclinic
loop_
_symmetry_equiv_pos_as_xyz
  x,y,z
_cell_length_a	16.959455
_cell_length_b	16.959454
_cell_length_c	16.959447
_cell_angle_alpha	90.025781
_cell_angle_beta	90.015228
_cell_angle_gamma	90.017705
loop_
_atom_site_label
_atom_site_type_symbol
_atom_site_fract_x
_atom_site_fract_y
_atom_site_fract_z
Zn1	Zn	-1.208368	0.314776	-0.446953
Zn2	Zn	-1.208284	0.446969	-0.314785
Zn3	Zn	-1.076196	0.314796	-0.314788
Zn4	Zn	-1.076155	0.446905	-0.446921
O5	O	-1.142251	0.380861	-0.380862
O6	O	-1.318968	0.332330	-0.429432
O7	O	-1.190745	0.429471	-0.204174
O8	O	-1.093782	0.204183	-0.332335
O9	O	-1.318906	0.429452	-0.332329
O10	O	-1.190888	0.204168	-0.429435
O11	O	-1.093701	0.332364	-0.204177
O12	O	-0.965580	0.332302	-0.332304
O13	O	-1.093711	0.429342	-0.557536
O14	O	-0.965549	0.429362	-0.429382
O15	O	-1.190847	0.332268	-0.557559
O16	O	-1.190704	0.557571	-0.332298
O17	O	-1.093629	0.557524	-0.429378
C18	C	-0.936885	0.380828	-0.380840
C19	C	-0.849028	0.380832	-0.380850
C20	C	-1.142174	0.586228	-0.380852
C21	C	-1.142214	0.674084	-0.380874
C22	C	-0.477544	0.330256	-0.330408
C23	C	-0.477561	0.431482	-0.431339
C24	C	-0.560107	0.431473	-0.431336
C25	C	-0.601375	0.380856	-0.380867
C26	C	-0.560097	0.330248	-0.330402
C27	C	-0.601390	0.482087	-0.481794
C28	C	-0.683941	0.482081	-0.481792
C29	C	-0.725211	0.431460	-0.431327
C30	C	-0.683929	0.380848	-0.380860
C31	C	-0.725197	0.330231	-0.330391
C32	C	-0.683916	0.279615	-0.279928
C33	C	-0.601367	0.279626	-0.279936
C34	C	-0.807760	0.431449	-0.431319
C35	C	-0.807750	0.330223	-0.330385
C36	C	-0.348419	0.380886	-0.380880
C37	C	-0.436276	0.380873	-0.380877
C38	C	-1.091744	1.045565	-0.431417
C39	C	-1.192911	1.045554	-0.330409
C40	C	-1.192888	0.963008	-0.330400
C41	C	-1.142291	0.921737	-0.380900
C42	C	-1.091717	0.963012	-0.431408
C43	C	-1.243455	0.921728	-0.279887
C44	C	-1.243433	0.839177	-0.279876
C45	C	-1.192839	0.797904	-0.330380
C46	C	-1.142264	0.839184	-0.380891
C47	C	-1.091667	0.797912	-0.431391
C48	C	-1.041096	0.839190	-0.481906
C49	C	-1.041124	0.921739	-0.481912
C50	C	-1.192811	0.715356	-0.330374
C51	C	-1.091640	0.715359	-0.431382
C52	C	-1.142284	0.380796	-0.587030
C53	C	-1.142298	0.380768	-0.674887
C54	C	-1.142337	1.174693	-0.380893
C55	C	-1.142341	1.086837	-0.380917
C56	C	-1.091817	0.431227	-1.046353
C57	C	-1.192967	0.330143	-1.046372
C58	C	-1.192946	0.330159	-0.963826
C59	C	-1.142361	0.380711	-0.922540
C60	C	-1.091797	0.431247	-0.963799
C61	C	-1.243515	0.279631	-0.922560
C62	C	-1.243496	0.279646	-0.840009
C63	C	-1.192906	0.330195	-0.798722
C64	C	-1.142340	0.380731	-0.839986
C65	C	-1.091755	0.431283	-0.798700
C66	C	-1.041183	0.481817	-0.839963
C67	C	-1.041207	0.481795	-0.922511
C68	C	-1.192883	0.330216	-0.716173
C69	C	-1.091734	0.431303	-0.716146
C70	C	-1.142263	0.380870	-0.175495
C71	C	-1.142403	0.380675	-0.087639
H72	H	-0.841345	0.289000	-0.289291
H73	H	-0.999895	0.805578	-0.523020
H74	H	-1.050572	1.079178	-0.472548
H75	H	-1.234155	0.288990	-1.079992
H76	H	-1.050533	0.472462	-0.682537
H77	H	-1.234100	1.079162	-0.289290
H78	H	-0.841367	0.472662	-0.472403
H79	H	-1.284642	0.955337	-0.238768
H80	H	-1.284611	0.805573	-0.238745
H81	H	-0.717545	0.523295	-0.522883
H82	H	-1.050441	0.681761	-0.472508
H83	H	-0.567783	0.523302	-0.522877
H84	H	-0.717527	0.238407	-0.238833
H85	H	-0.999950	0.955355	-0.523038
H86	H	-1.050641	0.472367	-1.079953
H87	H	-1.000000	0.522980	-0.806337
H88	H	-1.233982	0.681751	-0.289242
H89	H	-1.284703	0.238479	-0.956182
H90	H	-1.000037	0.522939	-0.956115
H91	H	-0.567749	0.238418	-0.238851
H92	H	-1.284674	0.238498	-0.806420
H93	H	-1.234059	0.289075	-0.682580
H94	H	-0.443929	0.289043	-0.289325
H95	H	-0.443955	0.472696	-0.472424
