data_functionalizedCrystal
_audit_creation_method	'MofGen! by Chris Wilmer'
_symmetry_space_group_name_H-M	'P1'
_symmetry_Int_Tables_number	1
_symmetry_cell_setting	triclinic
loop_
_symmetry_equiv_pos_as_xyz
  x,y,z
_cell_length_a	16.974800
_cell_length_b	13.330367
_cell_length_c	16.992695
_cell_angle_alpha	90.004445
_cell_angle_beta	92.978326
_cell_angle_gamma	93.648618
loop_
_atom_site_label
_atom_site_type_symbol
_atom_site_fract_x
_atom_site_fract_y
_atom_site_fract_z
O1	O	1.055459	0.002297	-0.099873
O2	O	0.826058	-0.016336	-0.112614
O3	O	0.939839	-0.007086	0.007898
O4	O	0.941678	-0.006953	-0.220385
O5	O	0.939820	0.159759	0.007900
O6	O	0.826039	0.150509	-0.112612
O7	O	1.055440	0.169143	-0.099871
Cu8	Cu	0.940738	0.175060	-0.106241
Cu9	Cu	0.940761	-0.022254	-0.106244
O10	O	0.941659	0.159893	-0.220383
C11	C	0.796560	0.064691	-0.112130
C12	C	0.708692	0.057554	-0.110683
N13	N	0.940727	0.313841	-0.106239
C14	C	0.667406	0.145151	-0.110000
C15	C	0.584845	0.138448	-0.108627
C16	C	0.543572	0.044147	-0.107943
C17	C	0.584865	-0.043457	-0.108624
C18	C	0.667424	-0.036752	-0.109991
C19	C	0.296658	0.014344	-0.103850
C20	C	0.214093	0.007646	-0.102485
C21	C	0.214079	0.189552	-0.102487
C22	C	0.296640	0.196247	-0.103859
C23	C	0.337925	0.108644	-0.104535
N24	N	0.459182	0.037293	-0.106543
N25	N	0.422314	0.115499	-0.105930
C26	C	0.890368	0.782370	-0.159588
C27	C	0.991160	0.790532	-0.052899
C28	C	0.991152	0.685513	-0.052896
C29	C	0.940752	0.628917	-0.106241
C30	C	0.890360	0.677341	-0.159589
C31	C	1.041549	0.637082	0.000445
C32	C	1.041543	0.532056	0.000450
C33	C	0.991138	0.475459	-0.052892
C34	C	0.940744	0.523889	-0.106241
C35	C	0.890343	0.467293	-0.159586
C36	C	0.839944	0.515721	-0.212933
C37	C	0.839955	0.620743	-0.212931
C38	C	0.991128	0.370436	-0.052894
C39	C	0.890335	0.362264	-0.159587
C40	C	1.084938	0.088113	-0.100355
C41	C	1.172806	0.095243	-0.101802
C42	C	0.937464	0.076144	0.037109
C43	C	0.930404	0.075570	0.124145
N44	N	0.940768	0.838965	-0.106243
C45	C	0.944035	0.076660	-0.249594
C46	C	0.951094	0.077227	-0.336630
C47	C	0.998519	0.081104	0.174463
C48	C	0.991881	0.080555	0.256242
C49	C	0.917127	0.074480	0.287702
C50	C	0.849007	0.068943	0.237378
C51	C	0.855646	0.069484	0.155600
C52	C	0.889613	0.072231	0.531268
C53	C	0.882979	0.071693	0.613052
C54	C	1.025854	0.083304	0.631911
C55	C	1.032486	0.083851	0.550131
C56	C	0.964366	0.078309	0.499814
N57	N	0.910341	0.073922	0.371293
N58	N	0.971153	0.078859	0.416225
H59	H	0.701004	0.221941	-0.110563
H60	H	1.047348	0.085064	0.297208
N61	N	1.113113	0.090410	0.516200
H62	H	1.155258	0.093833	0.560486
H63	H	1.118989	0.029038	0.482675
N64	N	0.836005	0.834592	-0.217120
H65	H	0.843652	0.909712	-0.209026
H66	H	0.848647	0.817255	-0.272737
H67	H	0.849290	0.316190	-0.203024
H68	H	0.822103	0.066762	0.638663
H69	H	0.551254	-0.120238	-0.108062
N70	N	1.079147	0.087666	0.140534
H71	H	1.121289	0.091087	0.184822
H72	H	1.085022	0.026294	0.107009
H73	H	0.330263	-0.056989	-0.104398
H74	H	0.701038	-0.108083	-0.110548
H75	H	0.788141	0.063990	0.262999
N76	N	0.785589	0.454675	-0.270472
H77	H	0.793238	0.380798	-0.262376
H78	H	0.728930	0.468439	-0.261444
H79	H	0.330239	0.273037	-0.104412
H80	H	0.551235	0.209779	-0.108058
N81	N	1.099323	0.089283	0.686179
H82	H	1.083778	0.088019	0.742759
H83	H	1.131686	0.030061	0.675999
H84	H	0.798922	0.660180	-0.256364
N85	N	0.816144	0.066258	0.477005
H86	H	0.767783	0.062332	0.509346
H87	H	0.815778	0.128080	0.442667
N88	N	0.782186	0.063521	0.101317
H89	H	0.749805	-0.000960	0.111418
H90	H	0.749852	0.122786	0.111450
N91	N	0.169550	0.284033	-0.101756
H92	H	0.110921	0.265481	-0.101868
H93	H	0.186542	0.324533	-0.052867
N94	N	0.169573	-0.094068	-0.101754
H95	H	0.208254	-0.148548	-0.102390
H96	H	0.138657	-0.100534	-0.052610
H97	H	1.082587	0.683165	0.043874
N98	N	1.045524	0.851568	0.004629
H99	H	1.037885	0.925448	-0.003468
H100	H	1.032878	0.832198	0.060246
H101	H	1.082580	0.492633	0.043887
N102	N	1.045485	0.318202	0.004630
H103	H	1.077418	0.369992	0.038420
H104	H	1.013028	0.272007	0.039280
