data_functionalizedCrystal
_audit_creation_method	'MofGen! by Chris Wilmer'
_symmetry_space_group_name_H-M	'P1'
_symmetry_Int_Tables_number	1
_symmetry_cell_setting	triclinic
loop_
_symmetry_equiv_pos_as_xyz
  x,y,z
_cell_length_a	10.654562
_cell_length_b	11.792241
_cell_length_c	10.268362
_cell_angle_alpha	90.005428
_cell_angle_beta	90.007388
_cell_angle_gamma	84.341760
loop_
_atom_site_label
_atom_site_type_symbol
_atom_site_fract_x
_atom_site_fract_y
_atom_site_fract_z
O1	O	1.667381	0.159489	0.108387
O2	O	1.301862	0.174663	0.108370
O3	O	1.493491	0.001926	0.108370
O4	O	1.475751	0.332226	0.108387
O5	O	1.493475	0.001919	-0.108231
O6	O	1.301845	0.174656	-0.108230
O7	O	1.667364	0.159482	-0.108214
Cu8	Cu	1.484603	0.167068	-0.128000
Cu9	Cu	1.484623	0.167077	0.128156
O10	O	1.475734	0.332218	-0.108213
C11	C	1.255059	0.173542	0.000068
C12	C	1.115626	0.170200	0.000062
C13	C	1.050090	0.168637	-0.117997
C14	C	0.919077	0.165505	-0.117976
C15	C	0.919145	0.165505	0.118174
C16	C	1.050157	0.168628	0.118151
C17	C	1.115558	0.170208	-0.236087
C18	C	1.050023	0.168647	-0.354155
C19	C	0.919009	0.165515	-0.354134
C20	C	0.853532	0.163946	-0.236044
C21	C	1.492369	-0.040371	0.000070
C22	C	1.489033	-0.166392	0.000071
C23	C	1.482900	-0.397119	0.000092
C24	C	1.486308	-0.268726	0.000081
C25	C	1.714167	0.160603	0.000091
C26	C	1.853600	0.163945	0.000106
C27	C	1.476857	0.374516	0.000089
C28	C	1.480192	0.500537	0.000097
N29	N	1.484598	0.167061	-0.308165
C30	C	1.484616	0.167074	-0.573836
C31	C	1.484602	0.167070	-0.425998
N32	N	1.484637	0.167074	0.308322
H33	H	1.222236	0.172762	-0.236118
C34	C	1.036797	0.168318	-0.587576
C35	C	1.121990	0.170361	-0.483956
H36	H	1.081229	0.169368	-0.667710
H37	H	0.976585	0.233166	-0.582654
H38	H	0.994815	0.101022	-0.582647
H39	H	1.163965	0.237662	-0.488880
H40	H	1.182225	0.105507	-0.488881
C41	C	0.785098	0.064583	-0.491125
C42	C	0.846977	0.163785	-0.483913
H43	H	0.740639	0.063516	-0.571253
H44	H	0.727354	0.063213	-0.420810
H45	H	0.845343	-0.000257	-0.486223
H46	H	0.786732	0.228626	-0.488804
H47	H	0.904727	0.165166	-0.554247
C48	C	0.652421	0.256831	-0.171699
C49	C	0.709521	0.160483	-0.236005
H50	H	0.563518	0.254686	-0.171667
H51	H	0.672905	0.323601	-0.215317
H52	H	0.682101	0.257536	-0.084491
H53	H	0.679848	0.159783	-0.323216
H54	H	0.689026	0.093696	-0.192389
C55	C	0.718338	0.160731	0.223060
C56	C	0.847172	0.163795	0.247972
H57	H	0.673907	0.159686	0.303195
H58	H	0.705974	0.094149	0.174558
H59	H	0.687755	0.226294	0.174548
H60	H	0.877757	0.098228	0.296476
H61	H	0.859543	0.230384	0.296495
H62	H	1.103517	0.169906	0.214285
