data_functionalizedCrystal
_audit_creation_method	'MofGen! by Chris Wilmer'
_symmetry_space_group_name_H-M	'P1'
_symmetry_Int_Tables_number	1
_symmetry_cell_setting	triclinic
loop_
_symmetry_equiv_pos_as_xyz
  x,y,z
_cell_length_a	20.919309
_cell_length_b	17.052862
_cell_length_c	17.052862
_cell_angle_alpha	118.506848
_cell_angle_beta	89.329401
_cell_angle_gamma	67.963449
loop_
_atom_site_label
_atom_site_type_symbol
_atom_site_fract_x
_atom_site_fract_y
_atom_site_fract_z
Zr1	Zr	0.759004	0.754975	0.160100
O2	O	0.686682	0.888750	0.292074
O3	O	0.765251	0.603746	0.105577
O4	O	0.800345	0.718696	0.264523
O5	O	0.642019	0.808505	0.023748
O6	O	0.908117	0.709933	0.258792
O7	O	0.651588	0.773800	0.133127
O8	O	0.845341	0.504309	-0.025535
O9	O	0.704795	1.014129	0.308074
O10	O	0.867583	0.665874	0.095040
O11	O	0.780012	0.698313	0.017689
O12	O	0.821330	0.833652	0.204828
O13	O	0.733760	0.866091	0.127477
Zr14	Zr	0.915627	0.796351	-0.023488
Zr15	Zr	0.930889	0.741000	0.150959
Zr16	Zr	0.743742	0.810326	-0.014347
Zr17	Zr	0.787893	0.954941	0.185619
Zr18	Zr	0.886738	0.596385	-0.049007
O19	O	0.909380	0.947580	0.031036
O20	O	0.931080	0.868879	0.279076
O21	O	0.664982	0.967451	0.044033
O22	O	0.987949	0.662576	-0.155461
O23	O	1.009649	0.583875	0.092579
O24	O	0.743551	0.682447	-0.142464
O25	O	1.032612	0.742821	0.112864
O26	O	0.874286	0.832630	-0.127911
O27	O	0.766514	0.841393	-0.122180
O28	O	1.023043	0.777526	0.003485
O29	O	0.841421	1.003021	0.300809
O30	O	0.833210	0.548305	-0.164197
O31	O	0.969836	0.537197	-0.171462
O32	O	0.981966	0.493201	-0.032800
O33	O	0.692664	1.058125	0.169412
O34	O	0.829290	1.047017	0.162147
O35	O	0.853300	0.717674	-0.068216
O36	O	0.940871	0.685235	0.009135
O37	O	0.894619	0.853013	0.118923
O38	O	0.807048	0.885452	0.041572
C39	C	0.801180	0.525537	0.036385
C40	C	0.788916	0.440646	0.025551
C41	C	0.937189	0.133627	0.156531
C42	C	0.948710	0.213389	0.166716
C43	C	0.908763	0.270207	0.131425
C44	C	0.857292	0.247256	0.085949
C45	C	0.845765	0.167491	0.075769
C46	C	0.817339	0.304070	0.050663
C47	C	0.765868	0.281119	0.005187
C48	C	0.754344	0.201361	-0.004992
C49	C	0.794291	0.144544	0.030299
C50	C	0.828866	0.383835	0.060843
C51	C	0.737442	0.417699	-0.019919
C52	C	0.725920	0.337937	-0.030104
C53	C	0.622314	0.793143	0.079740
C54	C	0.549344	0.799076	0.083620
C55	C	0.539204	0.714286	0.028140
C56	C	0.470640	0.719867	0.031789
C57	C	0.412216	0.810236	0.090924
C58	C	0.422359	0.895033	0.146406
C59	C	0.490922	0.889453	0.142752
C60	C	0.203992	0.831467	0.104820
C61	C	0.135426	0.837040	0.108472
C62	C	0.183713	0.661873	-0.006147
C63	C	0.252275	0.656300	-0.009792
C64	C	0.262411	0.741098	0.045687
C65	C	0.342132	0.815942	0.094657
C66	C	0.332494	0.735393	0.041948
C67	C	1.052317	0.758183	0.056872
C68	C	1.125287	0.752250	0.052992
C69	C	0.856405	0.706428	0.286512
C70	C	0.862884	0.682931	0.360569
C71	C	0.873451	1.025789	0.100227
C72	C	0.885715	1.110680	0.111061
C73	C	0.784563	0.967017	0.798564
C74	C	0.778472	0.989097	0.728985
C75	C	0.799575	0.912558	0.636879
C76	C	0.826770	0.813933	0.614356
C77	C	0.832857	0.791851	0.683941
C78	C	0.847868	0.737392	0.522256
C79	C	0.875063	0.638768	0.499733
C80	C	0.881149	0.616690	0.569313
C81	C	0.860046	0.693229	0.661419
C82	C	0.841781	0.759474	0.452671
C83	C	0.890074	0.584309	0.338048
C84	C	0.896166	0.562228	0.407626
C85	C	0.818227	0.844898	0.850100
C86	C	0.811753	0.868395	0.776042
C87	C	1.016182	0.508056	0.024951
C88	C	1.076887	0.417233	0.010237
C89	C	0.782090	0.594771	-0.181821
C90	C	0.763347	0.533378	-0.266712
C91	C	0.997092	0.577291	-0.193255
C92	C	1.051318	0.509965	-0.282027
C93	C	0.677539	0.974035	0.329867
C94	C	0.623312	1.041361	0.418639
C95	C	0.658449	1.043270	0.111661
C96	C	0.597744	1.134093	0.126375
C97	C	0.892541	0.956555	0.318433
C98	C	0.911284	1.017948	0.403324
C99	C	1.067140	0.364473	0.048176
C100	C	1.124176	0.279141	0.034368
C101	C	1.190957	0.246567	-0.017384
C102	C	1.200704	0.299336	-0.055323
C103	C	1.143670	0.384670	-0.041510
C104	C	0.792800	0.514656	-0.351427
C105	C	0.775187	0.456984	-0.431196
C106	C	0.728124	0.418030	-0.426249
C107	C	0.698668	0.436758	-0.341525
C108	C	0.716277	0.494435	-0.261757
C109	C	1.122502	0.461415	-0.283339
C110	C	1.173462	0.398164	-0.366741
C111	C	1.153237	0.383459	-0.448831
C112	C	1.082046	0.432017	-0.447516
C113	C	1.031088	0.495273	-0.364114
C114	C	0.552130	1.089920	0.419952
C115	C	0.501173	1.153196	0.503358
C116	C	0.521399	1.167906	0.585448
C117	C	0.592589	1.119342	0.584133
C118	C	0.643545	1.056073	0.500729
C119	C	0.607492	1.186859	0.088444
C120	C	0.550461	1.272207	0.102274
C121	C	0.483681	1.304783	0.154029
C122	C	0.473934	1.252011	0.191965
C123	C	0.530965	1.166669	0.178140
C124	C	0.958349	1.056884	0.398348
C125	C	0.975973	1.114559	0.478103
C126	C	0.946529	1.133303	0.562835
C127	C	0.899461	1.094359	0.567809
C128	C	0.881841	1.036679	0.488053
H129	H	0.990617	0.232073	0.203744
N130	N	0.867703	1.114582	0.659200
H131	H	0.906899	1.087811	0.686148
H132	H	0.839714	1.188333	0.702357
H133	H	0.843515	1.004983	0.492118
N134	N	0.684521	0.514644	-0.170372
H135	H	0.656537	0.588386	-0.127142
H136	H	0.652065	0.481167	-0.179398
N137	N	1.252465	0.154519	-0.032288
H138	H	1.296253	0.141882	-0.070831
H139	H	1.261486	0.164034	0.029001
N140	N	0.921187	0.356235	0.142407
H141	H	0.959856	0.362153	0.176569
H142	H	0.935996	0.344783	0.079853
N143	N	0.990124	1.036672	0.306969
H144	H	1.018111	0.962931	0.263738
H145	H	0.950902	1.063506	0.280089
N146	N	0.749151	1.095462	0.753277
H147	H	0.748496	1.097837	0.695223
H148	H	0.699293	1.133130	0.792613
N149	N	0.925496	0.455860	0.383345
H150	H	0.888721	0.446077	0.411807
H151	H	0.937949	0.410783	0.314434
H152	H	0.870774	0.402515	0.097871
H153	H	1.151615	0.427619	-0.072412
N154	N	1.026740	1.156553	0.472726
H155	H	1.042710	1.135931	0.406946
H156	H	1.002128	1.231186	0.512010
H157	H	0.175451	0.592836	-0.051316
H158	H	0.299843	0.582706	-0.057930
N159	N	0.647917	0.394726	-0.336206
H160	H	0.667852	0.350081	-0.310872
H161	H	0.600674	0.450643	-0.294598
N162	N	0.980258	0.072352	0.194599
H163	H	1.007519	0.001246	0.143058
H164	H	1.014576	0.099066	0.224965
N165	N	0.781866	0.058508	0.019307
H166	H	0.814987	0.025997	0.048559
H167	H	0.731122	0.083264	0.050111
H168	H	0.819637	0.839776	0.471018
N169	N	1.060233	0.416150	-0.536057
H170	H	1.086124	0.437630	-0.566469
H171	H	1.072555	0.343673	-0.578381
N172	N	0.560983	1.329112	0.061353
H173	H	0.611941	1.295514	0.026462
H174	H	0.528611	1.330994	0.018162
H175	H	0.437248	1.374275	0.165279
H176	H	0.831121	0.546368	-0.355472
H177	H	0.712427	0.182685	-0.042013
N178	N	0.995117	0.399593	0.103997
H179	H	0.959376	0.400567	0.064756
H180	H	0.997675	0.353187	0.125922
H181	H	1.138983	0.473376	-0.216506
N182	N	0.520446	1.109747	0.219038
H183	H	0.552772	1.107851	0.262279
H184	H	0.469470	1.143371	0.253869
H185	H	0.799180	0.441744	-0.500174
H186	H	0.212236	0.900510	0.150010
H187	H	0.684011	0.319239	-0.067130
H188	H	0.704912	0.463963	-0.048652
N189	N	0.965547	1.195511	0.648845
H190	H	0.951222	1.263626	0.658583
H191	H	0.939754	1.201407	0.703233
N192	N	0.602213	0.616810	-0.035639
H193	H	0.597248	0.592494	-0.101037
H194	H	0.647157	0.626206	-0.029459
H195	H	1.231425	0.358632	-0.367796
H196	H	0.087856	0.910633	0.156631
N197	N	1.113655	0.222238	0.075293
H198	H	1.062693	0.255823	0.110165
H199	H	1.125285	0.152415	0.024541
N200	N	0.709136	0.355821	-0.512289
H201	H	0.734941	0.349873	-0.566704
H202	H	0.723463	0.287734	-0.521964
N203	N	0.793012	0.936367	0.561830
H204	H	0.772585	1.010458	0.590073
H205	H	0.841424	0.903959	0.520454
N206	N	0.459703	0.628416	-0.028050
H207	H	0.507118	0.570319	-0.066061
H208	H	0.435892	0.613918	0.011952
H209	H	1.255084	0.272801	-0.097460
N210	N	0.466436	1.236133	0.675403
H211	H	0.478888	1.291704	0.717349
H212	H	0.418295	1.264585	0.663693
H213	H	0.374784	0.968615	0.194551
H214	H	0.907255	0.521984	0.263051
N215	N	0.679519	1.151740	0.032633
H216	H	0.694523	1.082815	-0.022083
H217	H	0.676982	1.198195	0.010778
H218	H	1.194737	0.331950	-0.516736
N219	N	0.401901	1.287140	0.247767
H220	H	0.367255	1.349203	0.250754
H221	H	0.384797	1.233834	0.217939
H222	H	0.443211	1.192728	0.504411
H223	H	0.499173	0.958501	0.187920
H224	H	0.973127	0.534796	-0.363059
H225	H	0.535647	1.077949	0.353117
H226	H	0.294556	0.889521	0.142804
N227	N	0.395506	0.637924	-0.021822
H228	H	0.378683	0.585049	-0.056415
H229	H	0.421420	0.644792	-0.066816
N230	N	0.614399	1.135211	0.672676
H231	H	0.571312	1.182657	0.725704
H232	H	0.636472	1.069788	0.669743
N233	N	0.761797	1.049562	0.897899
H234	H	0.769778	1.020605	0.938559
H235	H	0.790565	1.088389	0.908627
N236	N	0.910481	0.510318	0.545021
H237	H	0.911134	0.507944	0.603076
H238	H	0.879584	0.479211	0.509975
N239	N	0.866537	0.669545	0.736553
H240	H	0.818113	0.701964	0.777913
H241	H	0.886969	0.595463	0.708351
N242	N	0.720320	1.003695	0.499318
H243	H	0.725394	1.022617	0.563981
H244	H	0.736662	0.929736	0.460486
