data_functionalizedCrystal
_audit_creation_method	'MofGen! by Chris Wilmer'
_symmetry_space_group_name_H-M	'P1'
_symmetry_Int_Tables_number	1
_symmetry_cell_setting	triclinic
loop_
_symmetry_equiv_pos_as_xyz
  x,y,z
_cell_length_a	10.654550
_cell_length_b	10.489741
_cell_length_c	9.730223
_cell_angle_alpha	89.995878
_cell_angle_beta	89.999957
_cell_angle_gamma	84.512052
loop_
_atom_site_label
_atom_site_type_symbol
_atom_site_fract_x
_atom_site_fract_y
_atom_site_fract_z
O1	O	1.667923	0.179162	-0.114186
O2	O	1.302452	0.196231	-0.114212
O3	O	1.493504	0.002095	-0.114190
O4	O	1.476872	0.373298	-0.114208
O5	O	1.493491	0.002089	0.114390
O6	O	1.302440	0.196226	0.114368
O7	O	1.667911	0.179157	0.114393
Zn8	Zn	1.485173	0.187690	0.150673
Zn9	Zn	1.485190	0.187697	-0.150491
O10	O	1.476859	0.373293	0.114372
C11	C	1.255648	0.194975	0.000075
C12	C	1.116203	0.191225	0.000066
C13	C	1.036771	0.305530	0.000064
C14	C	0.905748	0.301999	0.000088
C15	C	0.933603	0.069849	0.000110
C16	C	1.064623	0.073381	0.000095
C17	C	1.492241	-0.045439	0.000099
C18	C	1.488483	-0.187067	0.000096
C19	C	1.366923	-0.255148	0.000078
C20	C	1.424341	-0.347301	0.112783
C21	C	1.424382	-0.347270	-0.112579
C22	C	1.545951	-0.277354	0.112895
C23	C	1.545975	-0.277314	-0.112568
C24	C	1.603481	-0.369439	0.000165
C25	C	1.714715	0.180413	0.000104
C26	C	1.854160	0.184162	0.000104
C27	C	1.478122	0.420827	0.000080
C28	C	1.481880	0.562454	0.000074
N29	N	1.485171	0.187685	0.356209
N30	N	1.485201	0.187693	-0.356027
C31	C	1.569798	0.101758	0.428145
C32	C	1.569811	0.101758	0.572028
C33	C	1.400566	0.273624	0.572027
C34	C	1.400548	0.273616	0.428147
H35	H	1.078762	0.401486	0.000050
H36	H	0.891590	-0.026096	0.000142
H37	H	1.331669	0.343590	0.630613
H38	H	1.331629	0.343589	0.369573
H39	H	1.266977	-0.205449	0.000184
N40	N	1.145752	-0.043397	0.000111
N41	N	1.099686	-0.148605	0.000130
H42	H	1.156983	-0.231077	0.000148
H43	H	1.638702	0.031785	0.369576
N44	N	1.359800	-0.386170	0.232303
N45	N	1.247298	-0.345000	0.252376
H46	H	1.201707	-0.372448	0.336782
H47	H	1.372936	-0.378207	-0.207872
N48	N	1.728968	-0.431517	0.000215
N49	N	1.802794	-0.411778	-0.095630
H50	H	1.891418	-0.455623	-0.095593
N51	N	0.824614	0.418761	0.000114
N52	N	0.829943	0.496871	0.096462
H53	H	0.772643	0.579341	0.096486
H54	H	1.597336	-0.246549	0.208286
N55	N	1.656236	0.013983	0.645528
N56	N	1.656227	0.013981	0.773992
H57	H	1.717259	-0.048023	0.825904
N58	N	1.610446	-0.238406	-0.232108
N59	N	1.569031	-0.260446	-0.349049
H60	H	1.614556	-0.232965	-0.433486
