data_functionalizedCrystal
_audit_creation_method	'MofGen! by Chris Wilmer'
_symmetry_space_group_name_H-M	'P1'
_symmetry_Int_Tables_number	1
_symmetry_cell_setting	triclinic
loop_
_symmetry_equiv_pos_as_xyz
  x,y,z
_cell_length_a	17.038275
_cell_length_b	15.072220
_cell_length_c	15.995350
_cell_angle_alpha	90.007147
_cell_angle_beta	92.697921
_cell_angle_gamma	90.002892
loop_
_atom_site_label
_atom_site_type_symbol
_atom_site_fract_x
_atom_site_fract_y
_atom_site_fract_z
O1	O	-1.037410	0.073647	0.181831
O2	O	-0.809778	0.073677	0.178944
O3	O	-0.929817	0.073660	0.058943
O4	O	-0.917372	0.073664	0.301832
O5	O	-0.929809	-0.073905	0.058927
O6	O	-0.809771	-0.073888	0.178928
O7	O	-1.037402	-0.073918	0.181815
Zn8	Zn	-0.923585	-0.097332	0.180369
Zn9	Zn	-0.923595	0.097091	0.180390
O10	O	-0.917364	-0.073901	0.301816
C11	C	-0.780646	-0.000102	0.176310
C12	C	-0.693851	-0.000090	0.168475
C13	C	-0.643754	-0.000089	0.240404
C14	C	-0.562202	-0.000100	0.233037
C15	C	-0.530748	-0.000106	0.153742
C16	C	-0.580851	-0.000109	0.081808
C17	C	-0.662401	-0.000105	0.089175
C18	C	-0.284984	-0.000126	0.127715
C19	C	-0.203426	-0.000128	0.120353
C20	C	-0.184783	-0.000120	0.271583
C21	C	-0.266336	-0.000110	0.278944
C22	C	-0.316432	-0.000118	0.207010
C23	C	-0.447388	-0.000114	0.146210
C24	C	-0.399790	-0.000116	0.214542
C25	C	-0.066535	-0.000133	0.184449
C26	C	-0.153330	-0.000127	0.192282
N27	N	-0.923584	-0.230021	0.180354
C28	C	-0.923596	-0.589222	0.180384
C29	C	-0.988034	-0.551597	0.116418
C30	C	-0.987866	-0.448771	0.116153
C31	C	-0.923591	-0.411018	0.180369
C32	C	-0.842019	-0.448351	0.155478
C33	C	-0.842400	-0.551208	0.155021
C34	C	-0.939995	-0.551301	0.269390
C35	C	-0.941846	-0.448437	0.268933
C36	C	-0.923582	-0.310305	0.180362
C37	C	-0.923599	-0.689936	0.180388
C38	C	-0.929298	-0.000120	0.027704
C39	C	-0.927756	-0.000115	-0.065357
N40	N	-0.923603	0.229780	0.180398
C41	C	-0.922216	-0.000117	-0.403499
C42	C	-0.836727	0.000225	-0.362154
C43	C	-0.838270	-0.000108	-0.265354
C44	C	-0.924964	-0.000116	-0.235742
C45	C	-0.967126	-0.084387	-0.273825
C46	C	-0.964978	-0.084457	-0.370614
C47	C	-0.966753	0.083352	-0.370828
C48	C	-0.966733	0.084466	-0.273884
C49	C	-0.926521	-0.000118	-0.140934
C50	C	-0.920662	-0.000121	-0.498307
C51	C	-0.917882	-0.000119	0.333055
C52	C	-0.919425	-0.000118	0.426115
H53	H	-0.555234	-0.000127	0.017243
C54	C	-0.678351	-0.000081	0.327631
C55	C	-0.731860	-0.076702	0.353485
C56	C	-0.766454	-0.076697	0.440714
C57	C	-0.747539	-0.000070	0.502090
C58	C	-0.694027	0.076556	0.476237
C59	C	-0.659433	0.076551	0.389008
H60	H	-0.745864	-0.133430	0.308050
H61	H	-0.806067	-0.133421	0.459852
H62	H	-0.773147	-0.000066	0.566662
H63	H	-0.680023	0.133285	0.521672
H64	H	-0.619820	0.133275	0.369870
H65	H	-0.177820	-0.000131	0.055778
C66	C	-1.069777	-0.414664	0.137348
C67	C	-1.135800	-0.481021	0.154634
C68	C	-1.217713	-0.446919	0.175832
C69	C	-1.233604	-0.346462	0.179744
C70	C	-1.167579	-0.280099	0.162457
C71	C	-1.085666	-0.314201	0.141259
H72	H	-1.124038	-0.555391	0.151738
H73	H	-1.266589	-0.496046	0.188628
H74	H	-1.294241	-0.321218	0.195436
H75	H	-1.179340	-0.205729	0.165353
H76	H	-1.036790	-0.265074	0.128463
H77	H	-0.804899	-0.060611	-0.239873
H78	H	-0.805128	0.060301	-0.239287
C79	C	-0.927558	-0.169103	-0.238323
C80	C	-0.890771	-0.236102	-0.297728
C81	C	-0.851198	-0.320816	-0.262228
C82	C	-0.848412	-0.338532	-0.167321
C83	C	-0.885200	-0.271532	-0.107910
C84	C	-0.924773	-0.186818	-0.143410
H85	H	-0.892832	-0.222989	-0.367989
H86	H	-0.823965	-0.370414	-0.306209
H87	H	-0.819117	-0.401243	-0.141041
H88	H	-0.883138	-0.284645	-0.037649
H89	H	-0.952006	-0.137220	-0.099429
C90	C	-0.790765	-0.080953	-0.391894
C91	C	-0.705054	-0.095627	-0.360027
C92	C	-0.659094	-0.176807	-0.389765
C93	C	-0.698845	-0.243313	-0.451371
C94	C	-0.784561	-0.228640	-0.483242
C95	C	-0.830521	-0.147460	-0.453503
H96	H	-0.675623	-0.046394	-0.314419
H97	H	-0.595642	-0.187668	-0.366172
H98	H	-0.664823	-0.303407	-0.473386
H99	H	-0.813991	-0.277873	-0.528850
H100	H	-0.893973	-0.136599	-0.477096
C101	C	-1.049764	-0.089652	-0.408147
C102	C	-1.119208	-0.093728	-0.350032
C103	C	-1.203991	-0.098934	-0.387561
C104	C	-1.219331	-0.100064	-0.483204
C105	C	-1.149885	-0.095988	-0.541325
C106	C	-1.065102	-0.090782	-0.503796
H107	H	-1.107854	-0.092892	-0.279226
H108	H	-1.255400	-0.101951	-0.344535
H109	H	-1.282093	-0.103917	-0.510985
H110	H	-1.161239	-0.096824	-0.612131
H111	H	-1.013693	-0.087765	-0.546822
H112	H	-0.325762	-0.000133	0.069141
C113	C	-0.507099	-0.000099	0.312163
C114	C	-0.510612	0.076533	0.375560
C115	C	-0.455511	0.076530	0.454691
C116	C	-0.396896	-0.000105	0.470425
C117	C	-0.393381	-0.076742	0.407025
C118	C	-0.448482	-0.076740	0.327894
H119	H	-0.554004	0.133267	0.363915
H120	H	-0.458114	0.133262	0.501623
H121	H	-0.356107	-0.000107	0.529002
H122	H	-0.349989	-0.133477	0.418671
H123	H	-0.445880	-0.133472	0.280962
C124	C	-1.053168	-0.088639	-0.248614
C125	C	-1.086227	-0.015464	-0.193020
C126	C	-1.172269	-0.019715	-0.167806
C127	C	-1.225253	-0.097141	-0.198187
C128	C	-1.192195	-0.170321	-0.253784
C129	C	-1.106153	-0.166070	-0.278997
H130	H	-1.047005	0.041856	-0.170527
H131	H	-1.196740	0.034458	-0.126650
H132	H	-1.288947	-0.100288	-0.179522
H133	H	-1.231417	-0.227641	-0.276276
H134	H	-1.081682	-0.220244	-0.320154
C135	C	-0.925083	0.168664	-0.239991
C136	C	-0.888404	0.234186	-0.300865
C137	C	-0.846719	0.318369	-0.266982
C138	C	-0.841713	0.337031	-0.172224
C139	C	-0.878394	0.271507	-0.111344
C140	C	-0.920078	0.187324	-0.145228
H141	H	-0.892108	0.220373	-0.371015
H142	H	-0.819566	0.366874	-0.312049
H143	H	-0.810856	0.399348	-0.147142
H144	H	-0.874689	0.285320	-0.041194
H145	H	-0.947231	0.138819	-0.100160
C146	C	-1.070230	-0.585006	0.137372
C147	C	-1.079849	-0.646864	0.212819
C148	C	-1.162047	-0.680278	0.233776
C149	C	-1.234626	-0.651834	0.179285
C150	C	-1.225009	-0.589972	0.103833
C151	C	-1.142811	-0.556558	0.082876
H152	H	-1.026120	-0.667924	0.253161
H153	H	-1.169166	-0.726073	0.289630
H154	H	-1.295474	-0.676569	0.194798
H155	H	-1.278738	-0.568913	0.063491
H156	H	-1.135692	-0.510764	0.027021
H157	H	-0.827211	-0.422597	0.091092
H158	H	-1.029784	0.083913	-0.398099
H159	H	-0.703190	-0.000105	0.030603
H160	H	-0.425403	-0.000116	0.279104
H161	H	-0.421769	-0.000144	0.081647
C162	C	-1.022909	-0.415471	0.294274
C163	C	-1.088159	-0.482691	0.311899
C164	C	-1.169223	-0.449718	0.337235
C165	C	-1.185037	-0.349526	0.344946
C166	C	-1.119785	-0.282300	0.327321
C167	C	-1.038721	-0.315273	0.301984
H168	H	-1.076455	-0.556864	0.306191
H169	H	-1.217526	-0.499484	0.350283
H170	H	-1.245045	-0.325118	0.363702
H171	H	-1.131490	-0.208126	0.333028
H172	H	-0.990418	-0.265507	0.288937
H173	H	-0.897954	-0.422736	0.319212
H174	H	-0.977710	-0.577454	0.050867
C175	C	-0.973693	-0.415531	0.027089
C176	C	-0.962487	-0.482579	-0.044015
C177	C	-0.948305	-0.449339	-0.133082
C178	C	-0.945327	-0.349051	-0.151044
C179	C	-0.956532	-0.281998	-0.079938
C180	C	-0.970715	-0.315237	0.009129
H181	H	-0.964692	-0.556823	-0.030721
H182	H	-0.940010	-0.498977	-0.185720
H183	H	-0.934828	-0.324445	-0.216977
H184	H	-0.954328	-0.207753	-0.093233
H185	H	-0.979010	-0.265599	0.061766
H186	H	-0.827947	-0.575207	0.089931
C187	C	-0.775646	-0.584841	0.215114
C188	C	-0.722161	-0.518105	0.263364
C189	C	-0.655391	-0.551733	0.323433
C190	C	-0.642106	-0.652098	0.335251
C191	C	-0.695593	-0.718841	0.287000
C192	C	-0.762363	-0.685213	0.226931
H193	H	-0.731994	-0.443803	0.254616
H194	H	-0.615797	-0.502325	0.359152
H195	H	-0.592679	-0.676992	0.379718
H196	H	-0.685760	-0.793143	0.295747
H197	H	-0.801957	-0.734621	0.191212
H198	H	-0.792912	-0.423897	0.200583
C199	C	-0.876520	-0.584176	0.333796
C200	C	-0.824186	-0.516898	0.382789
C201	C	-0.760711	-0.549779	0.447187
C202	C	-0.749571	-0.649938	0.462592
C203	C	-0.801907	-0.717222	0.413598
C204	C	-0.865382	-0.684341	0.349200
H205	H	-0.832432	-0.442749	0.371386
H206	H	-0.721969	-0.499971	0.483455
H207	H	-0.702583	-0.674278	0.510263
H208	H	-0.793662	-0.791370	0.425001
H209	H	-0.904124	-0.734149	0.312931
H210	H	-0.998205	-0.577242	0.291876
H211	H	-0.802562	0.060658	-0.383114
H212	H	-1.029954	0.089548	-0.254018
H213	H	-0.934227	-0.147445	-0.391113
C214	C	-0.928999	0.169642	-0.401248
C215	C	-0.962994	0.260156	-0.376760
C216	C	-0.925230	0.346440	-0.407180
C217	C	-0.853470	0.342211	-0.462087
C218	C	-0.819471	0.251693	-0.486578
C219	C	-0.857235	0.165409	-0.456158
H220	H	-1.016119	0.263290	-0.336112
H221	H	-0.950399	0.413447	-0.389050
H222	H	-0.825514	0.406083	-0.484605
H223	H	-0.766346	0.248559	-0.527226
H224	H	-0.832066	0.098402	-0.474288
H225	H	-0.291940	-0.000095	0.343514
H226	H	-0.143987	-0.000115	0.330148
