data_functionalizedCrystal
_audit_creation_method	'MofGen! by Chris Wilmer'
_symmetry_space_group_name_H-M	'P1'
_symmetry_Int_Tables_number	1
_symmetry_cell_setting	triclinic
loop_
_symmetry_equiv_pos_as_xyz
  x,y,z
_cell_length_a	19.188933
_cell_length_b	27.732064
_cell_length_c	18.266242
_cell_angle_alpha	89.997719
_cell_angle_beta	89.992377
_cell_angle_gamma	82.897496
loop_
_atom_site_label
_atom_site_type_symbol
_atom_site_fract_x
_atom_site_fract_y
_atom_site_fract_z
O1	O	0.925769	0.060352	-0.060850
O2	O	0.722406	0.068475	-0.060856
O3	O	0.830397	-0.005964	-0.060856
O4	O	0.817778	0.134790	-0.060850
O5	O	0.830379	-0.005967	0.060906
O6	O	0.722388	0.068471	0.060906
O7	O	0.925750	0.060348	0.060912
Zn8	Zn	0.824066	0.064409	0.080241
Zn9	Zn	0.824090	0.064414	-0.080185
O10	O	0.817759	0.134786	0.060912
C11	C	0.696388	0.068210	0.000024
C12	C	0.618889	0.067419	0.000022
C13	C	0.830122	-0.023973	0.000023
C14	C	0.829319	-0.077630	0.000016
C15	C	0.065678	0.061783	-0.066343
C16	C	0.138498	0.062522	-0.066346
C17	C	0.174903	0.062892	0.000026
C18	C	0.138484	0.062510	0.066406
C19	C	0.065667	0.061766	0.066407
N20	N	0.283735	0.091565	0.049431
N21	N	0.352908	0.092273	0.049426
C22	C	0.394297	0.065134	0.000028
N23	N	0.363899	0.037265	-0.049376
N24	N	0.294719	0.036559	-0.049373
C25	C	0.253861	0.063699	0.000033
C26	C	0.509667	0.066314	-0.066351
C27	C	0.582489	0.067050	-0.066351
C28	C	0.582473	0.067043	0.066403
C29	C	0.509653	0.066302	0.066401
C30	C	0.473255	0.065940	0.000022
C31	C	0.760035	-0.454915	0.000011
C32	C	0.762990	-0.253246	0.000010
O33	O	0.709228	-0.222158	-0.000020
N34	N	0.827027	-0.233922	0.000012
C35	C	0.890329	-0.265019	0.000009
O36	O	0.944864	-0.243956	0.000003
C37	C	0.887373	-0.466688	0.000005
C38	C	0.823332	-0.486008	0.000011
C39	C	0.695999	-0.474236	0.000016
C40	C	0.695261	-0.524650	0.000020
C41	C	0.758558	-0.555744	0.000020
C42	C	0.822594	-0.536423	0.000015
C43	C	0.950674	-0.497784	-0.000003
C44	C	0.949930	-0.548204	-0.000006
C45	C	0.885889	-0.567524	-0.000000
C46	C	0.885153	-0.617930	0.000019
N47	N	0.821116	-0.637254	0.000017
C48	C	0.757819	-0.606160	0.000017
C49	C	0.891877	-0.159140	0.000013
C50	C	0.892616	-0.108723	0.000016
C51	C	0.765277	-0.096953	0.000015
C52	C	0.764538	-0.147371	0.000018
C53	C	0.827840	-0.178464	0.000011
C54	C	0.756273	-0.712035	0.000027
C55	C	0.755541	-0.762454	0.000034
C56	C	0.882880	-0.774220	0.000031
C57	C	0.883613	-0.723805	0.000027
C58	C	0.820304	-0.692713	0.000023
O59	O	0.938887	-0.649047	0.000041
O60	O	0.703292	-0.627233	0.000007
C61	C	0.760773	-0.404500	0.000007
C62	C	0.824808	-0.385179	0.000002
C63	C	0.888106	-0.416273	0.000002
C64	C	0.825548	-0.334763	0.000005
C65	C	0.762250	-0.303669	0.000005
C66	C	0.698214	-0.322993	0.000004
C67	C	0.697475	-0.373407	0.000008
C68	C	0.952143	-0.396949	0.000003
C69	C	0.952876	-0.346534	0.000000
C70	C	0.889578	-0.315441	0.000001
C71	C	0.951769	0.060613	0.000030
C72	C	1.029268	0.061403	0.000028
C73	C	0.818035	0.152796	0.000031
C74	C	0.818838	0.206453	0.000033
N75	N	0.824055	0.064405	0.189728
N76	N	0.824107	0.064414	-0.189672
C77	C	0.871889	0.031460	0.228037
C78	C	0.871894	0.031458	0.304682
C79	C	0.824071	0.064409	0.343015
C80	C	0.776228	0.097357	0.304697
C81	C	0.776220	0.097355	0.228054
N82	N	0.814726	0.107199	0.463349
N83	N	0.814738	0.107199	0.536157
C84	C	0.824090	0.064416	0.573938
N85	N	0.833445	0.021631	0.536160
N86	N	0.833437	0.021631	0.463345
C87	C	0.824074	0.064414	0.426122
C88	C	0.871932	0.031466	0.695354
C89	C	0.871931	0.031463	0.772000
C90	C	0.776269	0.097366	0.772013
C91	C	0.776266	0.097365	0.695368
C92	C	0.824101	0.064415	0.657043
H93	H	0.036047	0.061486	-0.120394
H94	H	0.703389	-0.778182	0.000042
Cl95	Cl	0.932020	-0.009964	0.179858
Cl96	Cl	0.463876	0.065833	0.149844
H97	H	0.612133	0.067355	-0.120401
H98	H	0.612113	0.067342	0.120444
Cl99	Cl	0.184280	0.063000	-0.149791
Cl100	Cl	0.676684	-0.672955	0.000024
H101	H	0.168130	0.062810	0.120447
H102	H	0.737267	0.124183	0.196862
Cl103	Cl	0.716133	0.138786	0.647204
Cl104	Cl	0.971465	-0.198222	0.000010
Cl105	Cl	0.019892	0.061291	0.149852
H106	H	0.643112	-0.540376	0.000019
Cl107	Cl	0.932063	-0.009959	0.647172
H108	H	0.480030	0.066017	-0.120401
Cl109	Cl	0.616414	-0.435155	0.000016
Cl110	Cl	0.684027	-0.171654	0.000023
H111	H	0.713738	-0.071628	0.000019
Cl112	Cl	0.973128	-0.084441	0.000019
H113	H	0.910881	0.004632	0.803192
Cl114	Cl	1.031188	-0.473508	-0.000028
H115	H	1.001479	-0.573518	-0.000015
H116	H	0.737328	0.124193	0.803223
H117	H	0.935760	-0.708074	0.000033
H118	H	0.645327	-0.389133	0.000013
H119	H	0.934415	-0.799545	0.000034
H120	H	1.005029	-0.330809	0.000001
Cl121	Cl	0.618641	-0.283895	0.000007
Cl122	Cl	1.031725	-0.436031	0.000006
Cl123	Cl	0.932034	-0.009962	0.352850
Cl124	Cl	0.716105	0.138779	0.352885
