data_functionalizedCrystal
_audit_creation_method	'MofGen! by Chris Wilmer'
_symmetry_space_group_name_H-M	'P1'
_symmetry_Int_Tables_number	1
_symmetry_cell_setting	triclinic
loop_
_symmetry_equiv_pos_as_xyz
  x,y,z
_cell_length_a	16.959455
_cell_length_b	12.645330
_cell_length_c	16.959447
_cell_angle_alpha	89.973930
_cell_angle_beta	89.979626
_cell_angle_gamma	90.014712
loop_
_atom_site_label
_atom_site_type_symbol
_atom_site_fract_x
_atom_site_fract_y
_atom_site_fract_z
Zn1	Zn	1.208397	-0.422103	-0.447060
Zn2	Zn	1.208325	-0.599394	-0.314891
Zn3	Zn	1.076225	-0.422136	-0.314883
Zn4	Zn	1.076196	-0.599315	-0.447016
O5	O	1.142286	-0.510737	-0.380962
O6	O	1.318998	-0.445640	-0.429549
O7	O	1.190784	-0.575928	-0.204279
O8	O	1.093801	-0.273784	-0.332432
O9	O	1.318945	-0.575895	-0.332445
O10	O	1.190907	-0.273760	-0.429541
O11	O	1.093731	-0.445697	-0.204273
O12	O	0.965611	-0.445620	-0.332389
O13	O	1.093750	-0.575761	-0.557632
O14	O	0.965589	-0.575793	-0.429466
O15	O	1.190878	-0.445563	-0.557665
O16	O	1.190755	-0.747731	-0.332402
O17	O	1.093680	-0.747673	-0.429474
C18	C	0.936919	-0.510703	-0.380923
C19	C	0.849063	-0.510713	-0.380924
C20	C	0.477549	-0.578494	-0.330375
C21	C	0.477625	-0.443068	-0.431646
C22	C	0.560171	-0.443051	-0.431627
C23	C	0.601410	-0.510757	-0.380982
C24	C	0.560103	-0.578481	-0.330355
C25	C	0.601485	-0.375336	-0.482258
C26	C	0.684036	-0.375317	-0.482241
C27	C	0.725276	-0.443018	-0.431591
C28	C	0.683963	-0.510744	-0.380963
C29	C	0.725202	-0.578450	-0.330317
C30	C	0.683891	-0.646171	-0.279684
C31	C	0.601343	-0.646183	-0.279705
C32	C	0.807824	-0.443007	-0.431570
C33	C	0.807756	-0.578437	-0.330298
C34	C	1.142228	-0.786167	-0.380951
C35	C	1.142276	-0.903997	-0.380973
C36	C	1.081458	-1.071568	-0.442229
C37	C	1.081147	-0.949009	-0.442032
C38	C	1.119734	-0.948592	-0.297669
C39	C	1.119363	-1.071190	-0.298041
C40	C	1.226007	-1.071091	-0.402346
C41	C	1.225494	-0.948484	-0.404167
C42	C	1.348454	-0.510773	-0.381003
C43	C	1.436310	-0.510788	-0.381020
C44	C	1.142319	-0.510649	-0.587131
C45	C	1.142333	-0.510612	-0.674987
C46	C	1.142365	-0.234232	-0.380991
C47	C	1.142399	-0.116402	-0.381003
C48	C	1.091857	-0.578288	-1.046449
C49	C	1.192997	-0.442712	-1.046478
C50	C	1.192976	-0.442735	-0.963932
C51	C	1.142396	-0.510536	-0.922640
C52	C	1.091836	-0.578315	-0.963895
C53	C	1.243540	-0.374965	-0.922671
C54	C	1.243522	-0.374986	-0.840120
C55	C	1.192937	-0.442782	-0.798827
C56	C	1.142375	-0.510563	-0.840087
C57	C	1.091794	-0.578364	-0.798796
C58	C	1.041227	-0.646140	-0.840054
C59	C	1.041251	-0.646111	-0.922602
C60	C	1.192913	-0.442811	-0.716279
C61	C	1.091773	-0.578391	-0.716242
C62	C	1.142298	-0.510748	-0.175596
C63	C	1.142438	-0.510487	-0.087740
H64	H	0.444044	-0.387951	-0.472884
O65	O	1.037319	-0.651386	-1.090944
H66	H	0.975287	-0.633187	-1.075095
H67	H	1.019862	-1.102465	-0.428269
H68	H	1.234086	-0.387632	-0.682690
O69	O	0.728592	-0.302264	-0.536837
H70	H	0.686047	-0.255179	-0.572050
H71	H	1.000048	-0.701348	-0.806424
H72	H	1.284696	-0.319798	-0.806534
H73	H	0.567902	-0.320220	-0.523496
O74	O	1.175592	-1.110495	-0.235545
H75	H	1.202924	-1.041933	-0.205187
O76	O	1.247528	-0.369556	-1.091007
H77	H	1.239038	-0.380910	-1.155339
H78	H	0.841456	-0.387872	-0.472796
O79	O	1.037203	-0.651515	-0.671719
H80	H	1.072543	-0.705476	-0.634099
O81	O	0.852235	-0.651461	-0.275671
H82	H	0.809639	-0.698553	-0.240472
H83	H	1.000085	-0.701294	-0.956202
O84	O	0.728375	-0.719189	-0.225055
H85	H	0.766002	-0.773172	-0.260357
H86	H	1.095249	-0.918854	-0.503801
O87	O	1.298064	-0.301801	-0.967202
H88	H	1.289564	-0.313146	-1.031534
O89	O	1.099673	-1.111035	-0.524249
H90	H	1.152392	-1.162961	-0.522266
H91	H	1.271410	-1.100084	-0.357752
O92	O	0.556789	-0.719224	-0.225099
H93	H	0.492460	-0.707864	-0.233628
O94	O	0.433001	-0.651534	-0.275762
H95	H	0.368671	-0.640175	-0.284282
O96	O	0.999050	-0.910263	-0.423281
H97	H	0.959417	-0.979093	-0.414313
H98	H	1.162714	-0.919438	-0.250804
O99	O	1.038407	-1.109204	-0.274100
H100	H	0.999890	-1.040022	-0.262371
H101	H	1.059254	-0.917977	-0.279263
O102	O	1.253247	-1.111927	-0.481448
H103	H	1.256716	-1.199543	-0.479572
H104	H	1.242493	-0.919333	-0.465475
O105	O	1.288806	-0.907941	-0.349381
H106	H	1.261827	-0.855214	-0.304564
