data_functionalizedCrystal
_audit_creation_method	'MofGen! by Chris Wilmer'
_symmetry_space_group_name_H-M	'P1'
_symmetry_Int_Tables_number	1
_symmetry_cell_setting	triclinic
loop_
_symmetry_equiv_pos_as_xyz
  x,y,z
_cell_length_a	14.519731
_cell_length_b	14.519709
_cell_length_c	8.140239
_cell_angle_alpha	90.002100
_cell_angle_beta	89.997705
_cell_angle_gamma	96.315502
loop_
_atom_site_label
_atom_site_type_symbol
_atom_site_fract_x
_atom_site_fract_y
_atom_site_fract_z
O1	O	-0.120888	1.223876	-0.136379
O2	O	0.212445	1.557209	0.196954
O3	O	0.545779	1.890542	0.530288
O4	O	-0.135124	0.955400	-0.136427
O5	O	0.198209	1.288733	0.196906
O6	O	0.531542	1.622066	0.530240
O7	O	0.006231	1.096746	-0.136414
O8	O	0.339564	1.430079	0.196920
O9	O	0.672898	1.763412	0.530253
O10	O	-0.262243	1.082530	-0.136392
O11	O	0.071090	1.415863	0.196941
O12	O	0.404423	1.749196	0.530274
O13	O	0.006231	1.096736	0.136814
O14	O	0.339565	1.430069	0.470147
O15	O	0.672898	1.763402	0.803480
O16	O	-0.135124	0.955390	0.136800
O17	O	0.198209	1.288723	0.470134
O18	O	0.531543	1.622056	0.803467
O19	O	-0.120888	1.223866	0.136848
O20	O	0.212446	1.557199	0.470181
O21	O	0.545779	1.890532	0.803515
Zn22	Zn	-0.128006	1.089626	0.180205
Zn23	Zn	0.205328	1.422959	0.513538
Zn24	Zn	0.538661	1.756293	0.846871
Zn25	Zn	-0.128006	1.089639	-0.179784
Zn26	Zn	0.205327	1.422973	0.153550
Zn27	Zn	0.538660	1.756306	0.486883
O28	O	-0.262243	1.082520	0.136835
O29	O	0.071090	1.415853	0.470168
O30	O	0.404424	1.749186	0.803501
C31	C	-0.134461	0.921035	0.000180
C32	C	0.198873	1.254368	0.333514
C33	C	0.532206	1.587702	0.666847
C34	C	-0.132473	0.818654	0.000161
C35	C	0.200861	1.151987	0.333494
C36	C	0.534194	1.485320	0.666828
C37	C	-0.125153	0.443757	0.000235
C38	C	0.208180	0.777091	0.333568
C39	C	0.541514	1.110424	0.666902
C40	C	-0.127186	0.548065	0.000214
C41	C	0.206148	0.881399	0.333547
C42	C	0.539481	1.214732	0.666881
C43	C	-0.128813	0.631202	0.000196
C44	C	0.204521	0.964535	0.333530
C45	C	0.537854	1.297869	0.666863
C46	C	-0.130846	0.735517	0.000178
C47	C	0.202488	1.068850	0.333512
C48	C	0.535821	1.402183	0.666845
C49	C	-0.296603	1.083191	0.000224
C50	C	0.036731	1.416524	0.333558
C51	C	0.370064	1.749858	0.666891
C52	C	-0.398983	1.085187	0.000233
C53	C	-0.065649	1.418520	0.333567
C54	C	0.267684	1.751854	0.666900
C55	C	-0.482127	1.086809	0.000227
C56	C	-0.148794	1.420142	0.333560
C57	C	0.184540	1.753475	0.666894
C58	C	-0.586436	1.088835	0.000212
C59	C	-0.253102	1.422169	0.333545
C60	C	0.080231	1.755502	0.666878
C61	C	-0.669575	1.090444	0.000199
C62	C	-0.336241	1.423777	0.333532
C63	C	-0.002908	1.757110	0.666865
C64	C	-0.773890	1.092470	0.000186
C65	C	-0.440557	1.425803	0.333520
C66	C	-0.107223	1.759137	0.666853
C67	C	0.040591	1.096075	0.000193
C68	C	0.373924	1.429408	0.333527
C69	C	0.707257	1.762741	0.666860
C70	C	0.142971	1.094079	0.000173
C71	C	0.476304	1.427412	0.333507
C72	C	0.809637	1.760745	0.666840
C73	C	-0.121551	1.258230	0.000237
C74	C	0.211782	1.591564	0.333571
C75	C	0.545115	1.924897	0.666904
C76	C	-0.123539	1.360612	0.000246
C77	C	0.209794	1.693945	0.333579
C78	C	0.543127	2.027279	0.666912
N79	N	-0.128005	1.089624	0.425887
N80	N	0.205328	1.422957	0.759221
N81	N	0.538662	1.756290	1.092554
N82	N	-0.128004	1.089641	0.574534
N83	N	0.205329	1.422974	0.907867
N84	N	0.538662	1.756307	1.241200
