data_functionalizedCrystal
_audit_creation_method	'MofGen! by Chris Wilmer'
_symmetry_space_group_name_H-M	'P1'
_symmetry_Int_Tables_number	1
_symmetry_cell_setting	triclinic
loop_
_symmetry_equiv_pos_as_xyz
  x,y,z
_cell_length_a	17.019383
_cell_length_b	17.038272
_cell_length_c	9.130313
_cell_angle_alpha	89.998262
_cell_angle_beta	86.123794
_cell_angle_gamma	87.246883
loop_
_atom_site_label
_atom_site_type_symbol
_atom_site_fract_x
_atom_site_fract_y
_atom_site_fract_z
O1	O	1.053344	0.099652	-0.254526
O2	O	0.824535	0.112341	-0.225699
O3	O	0.937580	-0.007818	-0.239930
O4	O	0.940299	0.219811	-0.240295
O5	O	0.937578	-0.007815	0.003669
O6	O	0.824533	0.112344	0.017900
O7	O	1.053343	0.099655	-0.010927
Cu8	Cu	0.938938	0.106000	0.025729
Cu9	Cu	0.938940	0.105996	-0.262355
O10	O	0.940298	0.219814	0.003304
C11	C	0.795113	0.111859	-0.100192
C12	C	0.707447	0.110410	-0.089147
C13	C	0.666255	0.109730	-0.216733
C14	C	0.583883	0.108381	-0.206333
C15	C	0.542704	0.107707	-0.068346
C16	C	0.583902	0.108390	0.059249
C17	C	0.666273	0.109745	0.048848
C18	C	0.293999	0.103623	-0.030298
C19	C	0.211623	0.102266	-0.019906
C20	C	0.211609	0.102258	-0.285490
C21	C	0.293981	0.103608	-0.295879
C22	C	0.335172	0.104295	-0.168284
C23	C	0.458507	0.106326	-0.057712
C24	C	0.419367	0.105682	-0.178919
C25	C	0.935105	-0.036943	-0.117819
C26	C	0.927725	-0.123730	-0.116889
C27	C	0.995484	-0.173898	-0.125425
C28	C	0.988545	-0.255443	-0.124564
C29	C	0.913846	-0.286818	-0.115158
C30	C	0.846082	-0.236643	-0.106626
C31	C	0.853022	-0.155099	-0.107497
C32	C	0.889328	-0.532556	-0.112089
C33	C	0.882394	-0.614106	-0.111214
C34	C	1.024858	-0.632901	-0.129155
C35	C	1.031791	-0.551355	-0.130017
C36	C	0.964027	-0.501187	-0.121493
C37	C	0.906751	-0.370170	-0.114274
C38	C	0.971122	-0.417837	-0.122387
C39	C	1.082765	0.100136	-0.136437
C40	C	1.170431	0.101585	-0.147492
C41	C	0.942772	0.248938	-0.118811
C42	C	0.950153	0.335725	-0.119750
N43	N	0.938943	0.106002	0.228351
N44	N	0.938941	0.105988	-0.464978
C45	C	0.989014	0.052814	0.298700
C46	C	0.989011	0.052804	0.452037
C47	C	0.888864	0.159179	0.464663
C48	C	0.888863	0.159184	0.311330
C49	C	1.039093	-0.000368	0.215721
C50	C	1.089169	-0.053560	0.286069
C51	C	1.089166	-0.053569	0.439407
C52	C	1.039088	-0.000387	0.522395
H53	H	0.699810	0.110302	0.152743
H54	H	0.550348	0.107827	-0.310227
N55	N	0.461439	0.106360	-0.319853
N56	N	0.510972	0.052031	-0.355703
H57	H	0.540693	0.052506	-0.455239
N58	N	1.039081	-0.000379	0.679027
N59	N	0.994375	0.047114	0.753099
H60	H	0.994373	0.047124	0.863719
H61	H	1.043722	-0.296288	-0.131512
H62	H	1.129937	-0.096864	0.218493
H63	H	0.178096	0.101739	0.092465
H64	H	0.178063	0.101701	-0.389370
H65	H	1.039102	-0.000364	0.090866
H66	H	1.129934	-0.096886	0.496683
N67	N	0.336056	0.104304	0.100047
N68	N	0.299278	0.103687	0.223237
H69	H	0.328983	0.104160	0.315301
N70	N	1.108093	-0.519306	-0.139656
N71	N	1.127858	-0.475897	-0.244827
H72	H	1.181747	-0.453260	-0.251632
N73	N	0.416441	0.105644	0.083234
N74	N	0.366910	0.159971	0.119107
H75	H	0.337197	0.159491	0.218650
N76	N	0.336054	0.104292	-0.436819
N77	N	0.378462	0.160114	-0.471823
H78	H	0.408182	0.160587	-0.571360
N79	N	0.541830	0.107709	0.200190
N80	N	0.468286	0.106498	0.209461
H81	H	0.438572	0.106016	0.309003
H82	H	1.056312	-0.148360	-0.133075
N83	N	0.837723	0.213526	0.239480
N84	N	0.843648	0.285789	0.255860
H85	H	0.807527	0.324170	0.205117
H86	H	0.699777	0.110276	-0.329097
H87	H	0.848093	0.202479	0.532243
N88	N	0.769779	-0.268691	-0.096979
N89	N	0.722865	-0.253292	0.011624
H90	H	0.668975	-0.275926	0.018447
H91	H	0.821562	-0.639647	-0.103530
N92	N	1.094073	-0.684146	-0.137844
N93	N	1.106095	-0.731746	-0.036674
H94	H	1.154982	-0.767939	-0.042812
N95	N	0.820109	-0.481321	-0.103390
N96	N	0.771639	-0.484136	-0.199964
H97	H	0.722749	-0.447949	-0.193818
N98	N	0.783799	-0.103861	-0.098796
N99	N	0.717108	-0.131882	-0.090406
H100	H	0.668216	-0.095696	-0.084271
N101	N	1.047417	-0.385778	-0.131977
N102	N	1.067167	-0.342371	-0.031777
H103	H	1.121051	-0.319722	-0.038542
H104	H	0.845931	-0.395724	-0.106612
