data_functionalizedCrystal
_audit_creation_method	'MofGen! by Chris Wilmer'
_symmetry_space_group_name_H-M	'P1'
_symmetry_Int_Tables_number	1
_symmetry_cell_setting	triclinic
loop_
_symmetry_equiv_pos_as_xyz
  x,y,z
_cell_length_a	10.654550
_cell_length_b	16.109301
_cell_length_c	15.186229
_cell_angle_alpha	90.000638
_cell_angle_beta	89.996404
_cell_angle_gamma	96.026794
loop_
_atom_site_label
_atom_site_type_symbol
_atom_site_fract_x
_atom_site_fract_y
_atom_site_fract_z
O1	O	0.161419	-1.104090	-0.073173
O2	O	0.411419	-0.854090	0.176827
O3	O	0.661419	-0.604090	0.426827
O4	O	0.911419	-0.354090	0.676827
O5	O	0.181507	-0.862148	-0.073187
O6	O	0.431507	-0.612148	0.176813
O7	O	0.681507	-0.362148	0.426813
O8	O	0.931507	-0.112148	0.676813
O9	O	-0.011352	-0.988682	-0.073174
O10	O	0.238648	-0.738682	0.176826
O11	O	0.488648	-0.488682	0.426826
O12	O	0.738648	-0.238682	0.676826
O13	O	0.354278	-0.977556	-0.073185
O14	O	0.604278	-0.727556	0.176815
O15	O	0.854278	-0.477556	0.426815
O16	O	1.104278	-0.227556	0.676815
O17	O	-0.011354	-0.988673	0.073284
O18	O	0.238646	-0.738673	0.323284
O19	O	0.488646	-0.488673	0.573284
O20	O	0.738646	-0.238673	0.823284
O21	O	0.181504	-0.862139	0.073271
O22	O	0.431504	-0.612139	0.323271
O23	O	0.681504	-0.362139	0.573271
O24	O	0.931504	-0.112139	0.823271
O25	O	0.161416	-1.104082	0.073285
O26	O	0.411416	-0.854082	0.323285
O27	O	0.661416	-0.604082	0.573285
O28	O	0.911416	-0.354082	0.823285
Zn29	Zn	0.171460	-0.983109	0.096531
Zn30	Zn	0.421460	-0.733109	0.346531
Zn31	Zn	0.671460	-0.483109	0.596531
Zn32	Zn	0.921460	-0.233109	0.846531
Zn33	Zn	0.171463	-0.983120	-0.096433
Zn34	Zn	0.421463	-0.733120	0.153567
Zn35	Zn	0.671463	-0.483120	0.403567
Zn36	Zn	0.921463	-0.233120	0.653567
O37	O	0.354275	-0.977548	0.073272
O38	O	0.604275	-0.727548	0.323272
O39	O	0.854275	-0.477548	0.573272
O40	O	1.104275	-0.227548	0.823272
C41	C	0.180692	-0.831164	0.000040
C42	C	0.430692	-0.581164	0.250040
C43	C	0.680692	-0.331164	0.500040
C44	C	0.930692	-0.081164	0.750040
C45	C	0.178253	-0.738854	0.000035
C46	C	0.428253	-0.488854	0.250035
C47	C	0.678253	-0.238854	0.500035
C48	C	0.928253	0.011146	0.750035
C49	C	-0.058140	-0.987861	0.000054
C50	C	0.191860	-0.737861	0.250054
C51	C	0.441860	-0.487861	0.500054
C52	C	0.691860	-0.237861	0.750054
C53	C	-0.197550	-0.985417	0.000053
C54	C	0.052450	-0.735417	0.250053
C55	C	0.302450	-0.485417	0.500053
C56	C	0.552450	-0.235417	0.750053
C57	C	0.162231	-1.135066	0.000056
C58	C	0.412231	-0.885066	0.250056
C59	C	0.662231	-0.635066	0.500056
C60	C	0.912231	-0.385066	0.750056
C61	C	0.164671	-1.227376	0.000055
C62	C	0.414671	-0.977376	0.250055
C63	C	0.664671	-0.727376	0.500055
C64	C	0.914671	-0.477376	0.750055
C65	C	-0.278046	-1.059918	0.000057
C66	C	-0.028046	-0.809918	0.250057
C67	C	0.221954	-0.559918	0.500057
C68	C	0.471954	-0.309918	0.750057
C69	C	-0.409036	-1.057616	0.000046
C70	C	-0.159036	-0.807616	0.250046
C71	C	0.090964	-0.557616	0.500046
C72	C	0.340964	-0.307616	0.750046
C73	C	-0.379020	-0.906306	0.000031
C74	C	-0.129020	-0.656306	0.250031
C75	C	0.120980	-0.406306	0.500031
C76	C	0.370980	-0.156306	0.750031
C77	C	-0.248033	-0.908608	0.000035
C78	C	0.001967	-0.658608	0.250035
C79	C	0.251967	-0.408608	0.500035
C80	C	0.501967	-0.158608	0.750035
C81	C	-0.606070	-1.145364	-0.051264
C82	C	-0.356070	-0.895364	0.198736
C83	C	-0.106070	-0.645364	0.448736
C84	C	0.143930	-0.395364	0.698736
C85	C	-0.686572	-1.219869	-0.051245
C86	C	-0.436572	-0.969869	0.198755
C87	C	-0.186572	-0.719869	0.448755
C88	C	0.063428	-0.469869	0.698755
C89	C	-0.657317	-1.287407	0.000083
C90	C	-0.407317	-1.037407	0.250083
C91	C	-0.157317	-0.787407	0.500083
C92	C	0.092683	-0.537407	0.750083
C93	C	-0.547563	-1.280443	0.051414
C94	C	-0.297563	-1.030443	0.301414
C95	C	-0.047563	-0.780443	0.551414
C96	C	0.202437	-0.530443	0.801414
C97	C	-0.467068	-1.205937	0.051402
C98	C	-0.217068	-0.955937	0.301402
C99	C	0.032932	-0.705937	0.551402
C100	C	0.282932	-0.455937	0.801402
C101	C	-0.496322	-1.138402	0.000054
C102	C	-0.246322	-0.888402	0.250054
C103	C	0.003678	-0.638402	0.500054
C104	C	0.253678	-0.388402	0.750054
C105	C	-0.050997	-0.820866	0.051353
C106	C	0.199003	-0.570866	0.301353
C107	C	0.449003	-0.320866	0.551353
C108	C	0.699003	-0.070866	0.801353
C109	C	0.029500	-0.746359	0.051348
C110	C	0.279500	-0.496359	0.301348
C111	C	0.529500	-0.246359	0.551348
C112	C	0.779500	0.003641	0.801348
C113	C	0.000249	-0.678814	0.000025
C114	C	0.250249	-0.428814	0.250025
C115	C	0.500249	-0.178814	0.500025
C116	C	0.750249	0.071186	0.750025
C117	C	-0.109507	-0.685769	-0.051292
C118	C	0.140493	-0.435769	0.198708
C119	C	0.390493	-0.185769	0.448708
C120	C	0.640493	0.064231	0.698708
C121	C	-0.190004	-0.760277	-0.051287
C122	C	0.059996	-0.510277	0.198713
C123	C	0.309996	-0.260277	0.448713
C124	C	0.559996	-0.010277	0.698713
C125	C	-0.160745	-0.827822	0.000034
C126	C	0.089255	-0.577822	0.250034
C127	C	0.339255	-0.327822	0.500034
C128	C	0.589255	-0.077822	0.750034
C129	C	0.401063	-0.978369	0.000042
C130	C	0.651063	-0.728369	0.250042
C131	C	0.901063	-0.478369	0.500042
C132	C	1.151063	-0.228369	0.750042
C133	C	0.540473	-0.980813	0.000037
C134	C	0.790473	-0.730813	0.250037
C135	C	1.040473	-0.480813	0.500037
C136	C	1.290473	-0.230813	0.750037
N137	N	0.171457	-0.983108	0.228224
N138	N	0.421457	-0.733108	0.478224
N139	N	0.671457	-0.483108	0.728224
N140	N	0.921457	-0.233108	0.978224
C141	C	0.287019	-0.517228	0.000042
C142	C	0.537019	-0.267228	0.250042
C143	C	0.787019	-0.017228	0.500042
C144	C	1.037019	0.232772	0.750042
C145	C	0.284717	-0.430494	0.000048
C146	C	0.534717	-0.180494	0.250048
C147	C	0.784717	0.069506	0.500048
C148	C	1.034717	0.319506	0.750048
C149	C	0.055896	-0.449008	0.000051
C150	C	0.305896	-0.199008	0.250051
C151	C	0.555896	0.050992	0.500051
C152	C	0.805896	0.300992	0.750051
C153	C	0.058199	-0.535741	0.000052
C154	C	0.308199	-0.285741	0.250052
C155	C	0.558199	-0.035741	0.500052
C156	C	0.808199	0.214259	0.750052
C157	C	0.173764	-0.569848	0.000043
C158	C	0.423764	-0.319848	0.250043
C159	C	0.673764	-0.069848	0.500043
C160	C	0.923764	0.180152	0.750043
C161	C	0.169159	-0.396382	0.000048
C162	C	0.419159	-0.146382	0.250048
C163	C	0.669159	0.103618	0.500048
C164	C	0.919159	0.353618	0.750048
C165	C	0.166662	-0.302341	0.000054
C166	C	0.416662	-0.052341	0.250054
C167	C	0.666662	0.197659	0.500054
C168	C	0.916662	0.447659	0.750054
C169	C	0.176262	-0.663895	0.000038
C170	C	0.426262	-0.413895	0.250038
C171	C	0.676262	-0.163895	0.500038
C172	C	0.926262	0.086105	0.750038
N173	N	0.171457	-0.983129	-0.228126
N174	N	0.421457	-0.733129	0.021874
N175	N	0.671457	-0.483129	0.271874
N176	N	0.921457	-0.233129	0.521874
C177	C	0.086088	-1.039156	0.453952
C178	C	0.336088	-0.789156	0.703952
C179	C	0.586088	-0.539156	0.953952
C180	C	0.836088	-0.289156	1.203952
C181	C	0.086085	-1.039159	0.546142
C182	C	0.336085	-0.789159	0.796142
C183	C	0.586085	-0.539159	1.046142
C184	C	0.836085	-0.289159	1.296142
C185	C	0.256830	-0.927074	0.546140
C186	C	0.506830	-0.677074	0.796140
C187	C	0.756830	-0.427074	1.046140
C188	C	1.006830	-0.177074	1.296140
C189	C	0.256826	-0.927068	0.453952
C190	C	0.506826	-0.677068	0.703952
C191	C	0.756826	-0.427068	0.953952
C192	C	1.006826	-0.177068	1.203952
C193	C	0.171456	-0.983114	0.407860
C194	C	0.421456	-0.733114	0.657860
C195	C	0.671456	-0.483114	0.907860
C196	C	0.921456	-0.233114	1.157860
C197	C	0.171457	-0.983122	0.592238
C198	C	0.421457	-0.733122	0.842238
C199	C	0.671457	-0.483122	1.092238
C200	C	0.921457	-0.233122	1.342238
C201	C	0.171455	-0.983125	0.692194
C202	C	0.421455	-0.733125	0.942194
C203	C	0.671455	-0.483125	1.192194
C204	C	0.921455	-0.233125	1.442194
C205	C	0.171457	-0.983111	0.307898
C206	C	0.421457	-0.733111	0.557898
C207	C	0.671457	-0.483111	0.807898
C208	C	0.921457	-0.233111	1.057898
H209	H	-0.236948	-1.122460	0.000069
H210	H	0.013052	-0.872460	0.250069
H211	H	0.263052	-0.622460	0.500069
H212	H	0.513052	-0.372460	0.750069
F213	F	-0.062348	-0.591746	0.000058
F214	F	0.187652	-0.341746	0.250058
F215	F	0.437652	-0.091746	0.500058
F216	F	0.687652	0.158254	0.750058
H217	H	-0.133341	-0.630761	-0.093065
H218	H	0.116659	-0.380761	0.156935
H219	H	0.366659	-0.130761	0.406935
H220	H	0.616659	0.119239	0.656935
H221	H	0.016573	-1.084791	0.416427
H222	H	0.266573	-0.834791	0.666427
H223	H	0.516573	-0.584791	0.916427
H224	H	0.766573	-0.334791	1.166427
H225	H	-0.629892	-1.090377	-0.093073
H226	H	-0.379892	-0.840377	0.156927
H227	H	-0.129892	-0.590377	0.406927
H228	H	0.120108	-0.340377	0.656927
H229	H	-0.038193	-0.421227	0.000064
H230	H	0.211807	-0.171227	0.250064
H231	H	0.461807	0.078773	0.500064
H232	H	0.711807	0.328773	0.750064
H233	H	0.381119	-0.544996	0.000041
H234	H	0.631119	-0.294996	0.250041
H235	H	0.881119	-0.044996	0.500041
H236	H	1.131119	0.205004	0.750041
H237	H	0.016568	-1.084793	0.583667
H238	H	0.266568	-0.834793	0.833667
H239	H	0.516568	-0.584793	1.083667
H240	H	0.766568	-0.334793	1.333667
F241	F	0.347686	-0.867414	0.404893
F242	F	0.597686	-0.617414	0.654893
F243	F	0.847686	-0.367414	0.904893
F244	F	1.097686	-0.117414	1.154893
F245	F	-0.432759	-0.824566	0.000012
F246	F	-0.182759	-0.574566	0.250012
F247	F	0.067241	-0.324566	0.500012
F248	F	0.317241	-0.074566	0.750012
F249	F	0.405258	-0.374496	0.000048
F250	F	0.655258	-0.124496	0.250048
F251	F	0.905258	0.125504	0.500048
F252	F	1.155258	0.375504	0.750048
H253	H	-0.377712	-1.200266	0.093198
H254	H	-0.127712	-0.950266	0.343198
H255	H	0.122288	-0.700266	0.593198
H256	H	0.372288	-0.450266	0.843198
F257	F	-0.516443	-1.352326	0.106050
F258	F	-0.266443	-1.102326	0.356050
F259	F	-0.016443	-0.852326	0.606050
F260	F	0.233557	-0.602326	0.856050
H261	H	0.326338	-0.881444	0.583676
H262	H	0.576338	-0.631444	0.833676
H263	H	0.826338	-0.381444	1.083676
H264	H	1.076338	-0.131444	1.333676
F265	F	-0.803375	-1.227278	-0.105876
F266	F	-0.553375	-0.977278	0.144124
F267	F	-0.303375	-0.727278	0.394124
F268	F	-0.053375	-0.477278	0.644124
F269	F	-0.306819	-0.767678	-0.105905
F270	F	-0.056819	-0.517678	0.144095
F271	F	0.193181	-0.267678	0.394095
F272	F	0.443181	-0.017678	0.644095
F273	F	-0.743001	-1.366698	0.000107
F274	F	-0.493001	-1.116698	0.250107
F275	F	-0.243001	-0.866698	0.500107
F276	F	0.006999	-0.616698	0.750107
F277	F	0.085918	-0.599512	0.000034
F278	F	0.335918	-0.349512	0.250034
F279	F	0.585918	-0.099512	0.500034
F280	F	0.835918	0.150488	0.750034
H281	H	0.118862	-0.740696	0.093145
H282	H	0.368862	-0.490696	0.343145
H283	H	0.618862	-0.240696	0.593145
H284	H	0.868862	0.009304	0.843145
H285	H	-0.027152	-0.875873	0.093129
H286	H	0.222848	-0.625873	0.343129
H287	H	0.472848	-0.375873	0.593129
H288	H	0.722848	-0.125873	0.843129
