data_functionalizedCrystal
_audit_creation_method	'MofGen! by Chris Wilmer'
_symmetry_space_group_name_H-M	'P1'
_symmetry_Int_Tables_number	1
_symmetry_cell_setting	triclinic
loop_
_symmetry_equiv_pos_as_xyz
  x,y,z
_cell_length_a	16.109302
_cell_length_b	13.262508
_cell_length_c	15.186229
_cell_angle_alpha	105.914579
_cell_angle_beta	89.994701
_cell_angle_gamma	83.968008
loop_
_atom_site_label
_atom_site_type_symbol
_atom_site_fract_x
_atom_site_fract_y
_atom_site_fract_z
O1	O	1.103625	0.134912	-0.040953
O2	O	0.861624	0.151701	-0.036925
O3	O	0.988714	-0.009484	-0.075531
O4	O	0.976535	0.296097	-0.002348
O5	O	0.988706	-0.009486	0.070926
O6	O	0.861616	0.151698	0.109531
O7	O	1.103616	0.134910	0.105503
Zn8	Zn	0.982615	0.143304	0.130771
Zn9	Zn	0.982626	0.143307	-0.062193
O10	O	0.976526	0.296095	0.144109
C11	C	0.830643	0.151019	0.036141
C12	C	0.738340	0.148980	0.035655
C13	C	0.525977	0.144264	0.114351
C14	C	0.439250	0.142336	0.113886
C15	C	0.439270	0.142344	-0.045788
C16	C	0.525996	0.144264	-0.045324
C17	C	0.569347	0.145229	0.034749
C18	C	0.395894	0.141382	0.033821
C19	C	0.301860	0.139292	0.033317
C20	C	0.663387	0.147317	0.035254
C21	C	0.988028	-0.048588	-0.011669
C22	C	0.985986	-0.165103	-0.039578
C23	C	0.980206	-0.493555	0.201095
C24	C	0.982119	-0.384083	0.227318
C25	C	0.983086	-0.329333	0.160597
C26	C	0.982140	-0.384065	0.067647
C27	C	0.980221	-0.493547	0.041422
C28	C	0.983100	-0.329324	0.000923
C29	C	0.982155	-0.384057	-0.092026
C30	C	0.980237	-0.493528	-0.118247
C31	C	0.979269	-0.548278	-0.051526
C32	C	0.985019	-0.219842	0.027149
C33	C	0.985034	-0.219834	-0.132525
C34	C	0.983122	-0.329306	-0.158748
C35	C	1.134598	0.135591	0.032435
C36	C	1.226901	0.137631	0.032915
C37	C	0.977213	0.335199	0.080245
C38	C	0.979255	0.451713	0.108148
N39	N	0.982613	0.143301	0.262463
N40	N	0.982634	0.143301	-0.193887
C41	C	1.038908	0.071953	0.471097
C42	C	1.038910	0.071950	0.563286
C43	C	0.926333	0.214653	0.597474
C44	C	0.926327	0.214650	0.505285
C45	C	0.982619	0.143301	0.442099
C46	C	0.982628	0.143302	0.626477
C47	C	0.982630	0.143299	0.726433
C48	C	0.982616	0.143301	0.342137
H49	H	0.403963	0.141560	-0.110980
O50	O	0.977270	-0.654599	-0.077088
C51	C	0.904688	-0.679231	-0.126748
H52	H	0.881842	-0.612176	-0.157321
H53	H	0.919552	-0.755168	-0.184165
H54	H	0.853979	-0.690267	-0.078916
H55	H	0.982897	-0.339529	0.302997
O56	O	1.093671	0.002605	0.591308
C57	C	1.143335	-0.060385	0.515763
H58	H	1.144418	-0.017350	0.460354
H59	H	1.209675	-0.076372	0.538560
H60	H	1.116074	-0.138366	0.487288
O61	O	1.093517	0.002700	0.409594
C62	C	1.081413	0.017952	0.321996
H63	H	1.050677	0.101408	0.329378
H64	H	1.144318	0.006215	0.284120
H65	H	1.039458	-0.041431	0.281657
O66	O	0.871625	0.283819	0.658919
C67	C	0.820134	0.227593	0.698777
H68	H	0.852964	0.145473	0.692917
H69	H	0.807140	0.271399	0.774095
H70	H	0.758662	0.220440	0.661549
O71	O	0.871680	0.283865	0.476952
C72	C	0.883761	0.268577	0.382039
H73	H	0.914543	0.185139	0.349468
H74	H	0.820841	0.280233	0.349801
H75	H	0.925665	0.327995	0.370099
H76	H	0.982351	-0.373884	-0.234429
O77	O	0.567966	0.145140	0.192195
C78	C	0.511083	0.143898	0.262358
H79	H	0.452592	0.109325	0.230666
H80	H	0.541236	0.093519	0.306127
H81	H	0.493423	0.227843	0.307016
H82	H	0.561309	0.145047	-0.110150
O83	O	0.396997	0.141347	0.191120
C84	C	0.311152	0.139464	0.173551
H85	H	0.302644	0.106000	0.096921
H86	H	0.283295	0.087799	0.212161
H87	H	0.278101	0.223069	0.197363
O88	O	0.985825	-0.166776	0.117465
C89	C	0.913420	-0.181603	0.162466
H90	H	0.888055	-0.257118	0.121674
H91	H	0.929517	-0.188032	0.233964
H92	H	0.864139	-0.111649	0.168151
O93	O	0.985060	-0.223012	0.185950
C94	C	1.057638	-0.198349	0.148090
H95	H	1.080515	-0.265405	0.085412
H96	H	1.042755	-0.122426	0.127028
H97	H	1.108331	-0.187272	0.201216
O98	O	0.979157	-0.546840	0.265818
C99	C	0.906118	-0.598235	0.258290
H100	H	0.881856	-0.610647	0.185999
H101	H	0.920943	-0.677907	0.272985
H102	H	0.856496	-0.547715	0.309798
H103	H	0.979459	-0.538086	-0.193932
O104	O	0.985825	-0.166547	-0.197275
C105	C	0.914984	-0.091360	-0.184024
H106	H	0.891328	-0.070978	-0.109814
H107	H	0.932468	-0.017054	-0.200052
H108	H	0.863874	-0.125247	-0.231491
