data_functionalizedCrystal
_audit_creation_method	'MofGen! by Chris Wilmer'
_symmetry_space_group_name_H-M	'P1'
_symmetry_Int_Tables_number	1
_symmetry_cell_setting	triclinic
loop_
_symmetry_equiv_pos_as_xyz
  x,y,z
_cell_length_a	12.837942
_cell_length_b	16.974800
_cell_length_c	11.892292
_cell_angle_alpha	81.993181
_cell_angle_beta	86.041594
_cell_angle_gamma	89.097746
loop_
_atom_site_label
_atom_site_type_symbol
_atom_site_fract_x
_atom_site_fract_y
_atom_site_fract_z
O1	O	0.132217	1.059251	-0.002937
O2	O	0.632217	1.559251	0.497063
O3	O	0.147735	0.829205	0.018118
O4	O	0.647735	1.329205	0.518118
O5	O	-0.010948	0.939127	0.008050
O6	O	0.489052	1.439127	0.508050
O7	O	0.290900	0.949329	0.007130
O8	O	0.790900	1.449329	0.507130
O9	O	0.000933	0.949063	-0.180860
O10	O	0.500933	1.449063	0.319140
O11	O	0.159616	0.839141	-0.170793
O12	O	0.659616	1.339141	0.329207
O13	O	0.144098	1.069187	-0.191848
O14	O	0.644098	1.569187	0.308152
Zn15	Zn	0.153743	0.955741	-0.211314
Zn16	Zn	0.653743	1.455741	0.288686
Zn17	Zn	0.138090	0.942650	0.037584
Zn18	Zn	0.638090	1.442650	0.537584
O19	O	0.302781	0.959265	-0.181780
O20	O	0.802781	1.459265	0.318220
C21	C	0.152867	0.804523	-0.073624
C22	C	0.652867	1.304523	0.426376
C23	C	0.150445	0.716177	-0.065538
C24	C	0.650445	1.216177	0.434462
C25	C	0.155781	0.680092	-0.164717
C26	C	0.655781	1.180092	0.335283
C27	C	0.153489	0.597081	-0.157123
C28	C	0.653489	1.097081	0.342877
C29	C	0.145868	0.550157	-0.050349
C30	C	0.645868	1.050157	0.449651
C31	C	0.140529	0.586247	0.048838
C32	C	0.640529	1.086247	0.548838
C33	C	0.142813	0.669256	0.041243
C34	C	0.642813	1.169256	0.541243
C35	C	0.138333	0.301314	-0.016591
C36	C	0.638333	0.801314	0.483409
C37	C	0.136052	0.218299	-0.009003
C38	C	0.636052	0.718299	0.490997
C39	C	0.149010	0.229140	-0.214964
C40	C	0.649010	0.729140	0.285036
C41	C	0.151301	0.312150	-0.222550
C42	C	0.651301	0.812150	0.277450
C43	C	0.145956	0.348233	-0.123364
C44	C	0.645956	0.848233	0.376636
N45	N	0.143528	0.465306	-0.042584
N46	N	0.643528	0.965306	0.457416
N47	N	0.148288	0.433082	-0.131130
N48	N	0.648288	0.933082	0.368870
C49	C	-0.043643	0.940649	-0.086089
C50	C	0.456357	1.440649	0.413911
C51	C	-0.158764	0.930370	-0.085146
C52	C	0.341236	1.430370	0.414854
C53	C	-0.399196	1.053939	-0.096432
C54	C	0.100804	1.553939	0.403568
C55	C	-0.507363	1.044285	-0.095547
C56	C	-0.007363	1.544285	0.404453
C57	C	-0.483268	0.901407	-0.082482
C58	C	0.016732	1.401407	0.417518
C59	C	-0.375101	0.911062	-0.083367
C60	C	0.124899	1.411062	0.416633
C61	C	-0.333069	0.987330	-0.090344
C62	C	0.166931	1.487330	0.409656
C63	C	-0.224899	0.996984	-0.091238
C64	C	0.275101	1.496984	0.408762
C65	C	-0.200806	0.854107	-0.078165
C66	C	0.299194	1.354107	0.421835
C67	C	-0.308974	0.844453	-0.077279
C68	C	0.191026	1.344453	0.422721
C69	C	0.335476	0.957743	-0.087638
C70	C	0.835476	1.457743	0.412362
C71	C	0.450597	0.968021	-0.088574
C72	C	0.950597	1.468021	0.411426
C73	C	0.138966	1.093868	-0.100103
C74	C	0.638966	1.593868	0.399897
C75	C	0.141388	1.182215	-0.108182
C76	C	0.641388	1.682215	0.391818
N77	N	0.127399	0.933716	0.207450
N78	N	0.627399	1.433716	0.707450
C79	C	0.052891	0.871485	0.390642
C80	C	0.552891	1.371485	0.890642
C81	C	0.060386	0.877740	0.271732
C82	C	0.560386	1.377740	0.771732
C83	C	0.186924	0.983439	0.262087
C84	C	0.686924	1.483439	0.762087
C85	C	0.179429	0.977183	0.380997
C86	C	0.679429	1.477183	0.880997
C87	C	0.112409	0.921206	0.445271
C88	C	0.612409	1.421206	0.945271
C89	C	0.104909	0.914955	0.564183
C90	C	0.604909	1.414955	1.064183
C91	C	0.231452	1.020648	0.554537
C92	C	0.731452	1.520648	1.054537
C93	C	0.238947	1.026904	0.435626
C94	C	0.738947	1.526904	0.935626
N95	N	0.164434	0.964677	0.618820
N96	N	0.664434	1.464677	1.118820
H97	H	0.133978	0.330683	0.064174
H98	H	0.633978	0.830683	0.564174
C99	C	0.296930	1.075342	0.614638
C100	C	0.796930	1.575342	1.114638
N101	N	0.346247	1.116535	0.659908
N102	N	0.846247	1.616535	1.159908
C103	C	-0.355221	0.760562	-0.069618
C104	C	0.144779	1.260562	0.430382
N105	N	-0.390052	0.697375	-0.063856
N106	N	0.109948	1.197375	0.436144
C107	C	0.132143	0.534627	0.166291
C108	C	0.632143	1.034627	0.666291
N109	N	0.125830	0.495747	0.254760
N110	N	0.625830	0.995747	0.754760
C111	C	0.031190	0.853376	0.634882
C112	C	0.531190	1.353376	1.134882
N113	N	-0.024334	0.806992	0.688130
N114	N	0.475666	1.306992	1.188130
C115	C	0.159678	0.363761	-0.340010
C116	C	0.659678	0.863761	0.159990
N117	N	0.165990	0.402635	-0.428483
N118	N	0.665990	0.902635	0.071517
C119	C	-0.005090	0.823045	0.211644
C120	C	0.494910	1.323045	0.711644
N121	N	-0.054409	0.781845	0.166387
N122	N	0.445591	1.281845	0.666387
C123	C	-0.020835	0.809913	0.461345
C124	C	0.479165	1.309913	0.961345
N125	N	-0.076366	0.763536	0.514597
N126	N	0.423634	1.263536	1.014597
C127	C	0.312662	1.088478	0.364912
C128	C	0.812662	1.588478	0.864912
N129	N	0.368183	1.134859	0.311651
N130	N	0.868183	1.634859	0.811651
H131	H	0.241492	1.029010	0.209736
H132	H	0.741492	1.529010	0.709736
C133	C	-0.580100	1.117561	-0.102252
C134	C	-0.080100	1.617561	0.397748
N135	N	-0.634885	1.172756	-0.107304
N136	N	-0.134885	1.672756	0.392696
C137	C	-0.178666	1.080880	-0.098909
C138	C	0.321334	1.580880	0.401091
N139	N	-0.143848	1.144072	-0.104683
N140	N	0.356152	1.644072	0.395317
H141	H	0.153360	0.199752	-0.295716
H142	H	0.653360	0.699752	0.204284
C143	C	-0.128057	0.780832	-0.071469
C144	C	0.371943	1.280832	0.428531
N145	N	-0.073261	0.725643	-0.066428
N146	N	0.426739	1.225643	0.433572
H147	H	0.161995	0.718293	-0.251664
H148	H	0.661995	1.218293	0.248336
H149	H	0.138470	0.698635	0.122005
H150	H	0.638470	1.198635	0.622005
H151	H	0.157817	0.567706	-0.237885
H152	H	0.657817	1.067706	0.262115
C153	C	0.127667	0.166683	0.108462
C154	C	0.627667	0.666683	0.608462
N155	N	0.121354	0.127806	0.196933
N156	N	0.621354	0.627806	0.696933
C157	C	-0.352958	1.137834	-0.104113
C158	C	0.147042	1.637834	0.395887
N159	N	-0.318134	1.201025	-0.109898
N160	N	0.181866	1.701025	0.390102
H161	H	-0.517510	0.839312	-0.076789
H162	H	-0.017510	1.339312	0.423211
