data_functionalizedCrystal
_audit_creation_method	'MofGen! by Chris Wilmer'
_symmetry_space_group_name_H-M	'P1'
_symmetry_Int_Tables_number	1
_symmetry_cell_setting	triclinic
loop_
_symmetry_equiv_pos_as_xyz
  x,y,z
_cell_length_a	31.640172
_cell_length_b	21.606444
_cell_length_c	21.606444
_cell_angle_alpha	60.001331
_cell_angle_beta	90.005700
_cell_angle_gamma	59.997094
loop_
_atom_site_label
_atom_site_type_symbol
_atom_site_fract_x
_atom_site_fract_y
_atom_site_fract_z
Zr1	Zr	0.407174	0.677376	-0.081121
O2	O	0.339680	0.806511	-0.179957
O3	O	0.427865	0.548252	-0.050826
O4	O	0.427860	0.677376	-0.179944
O5	O	0.339689	0.677383	0.051015
O6	O	0.497417	0.677363	-0.179931
O7	O	0.339686	0.677387	-0.050839
O8	O	0.497427	0.446384	0.051039
O9	O	0.339680	0.908362	-0.179954
O10	O	0.488599	0.601349	-0.037891
O11	O	0.436692	0.601355	0.038111
O12	O	0.436686	0.753382	-0.113909
O13	O	0.384779	0.753388	-0.037907
Zr14	Zr	0.518115	0.677348	0.081346
Zr15	Zr	0.518110	0.677355	-0.081100
Zr16	Zr	0.407180	0.677369	0.081324
Zr17	Zr	0.407173	0.839816	-0.081116
Zr18	Zr	0.518117	0.514908	0.081341
O19	O	0.497424	0.806472	0.051050
O20	O	0.497416	0.806482	-0.179926
O21	O	0.339688	0.806501	0.051020
O22	O	0.585609	0.548213	0.180182
O23	O	0.585601	0.548223	-0.050795
O24	O	0.427873	0.548242	0.180151
O25	O	0.585600	0.677342	-0.050791
O26	O	0.497430	0.677348	0.180169
O27	O	0.427873	0.677361	0.180155
O28	O	0.585604	0.677337	0.051063
O29	O	0.427858	0.908345	-0.179937
O30	O	0.497431	0.446379	0.180161
O31	O	0.585610	0.446363	0.180178
O32	O	0.585606	0.446368	0.051056
O33	O	0.339684	0.908356	-0.050831
O34	O	0.427863	0.908340	-0.050814
O35	O	0.488604	0.601342	0.114134
O36	O	0.540511	0.601336	0.038131
O37	O	0.488598	0.753369	-0.037887
O38	O	0.436691	0.753375	0.038116
C39	C	0.462646	0.474174	0.000106
C40	C	0.462647	0.405214	0.000103
C41	C	0.489741	0.372813	-0.039570
C42	C	0.489742	0.308013	-0.039565
C43	C	0.462647	0.275620	0.000110
C44	C	0.435553	0.308023	0.039788
C45	C	0.435554	0.372818	0.039787
C46	C	0.435546	0.046714	0.039794
C47	C	0.435546	-0.018083	0.039791
C48	C	0.489735	-0.018091	-0.039558
C49	C	0.489736	0.046704	-0.039559
C50	C	0.462644	0.079098	0.000123
C51	C	0.462643	0.149361	0.000118
C52	C	0.462645	0.205363	0.000111
C53	C	0.323881	0.677388	0.000085
C54	C	0.276786	0.677396	0.000076
C55	C	0.011879	0.597994	0.039808
C56	C	-0.165106	0.597979	0.039823
O57	O	-0.164946	0.530486	0.073598
N58	N	-0.214334	0.677338	0.000142
C59	C	-0.219315	0.756707	-0.039542
O60	O	-0.265248	0.824206	-0.073287
C61	C	-0.042331	0.756721	-0.039553
C62	C	0.006897	0.677357	0.000125
C63	C	0.061104	0.518636	0.079483
C64	C	0.105347	0.518641	0.079476
C65	C	0.100365	0.598003	0.039793
C66	C	0.051140	0.677361	0.000118
C67	C	-0.047312	0.836089	-0.079232
C68	C	-0.003061	0.836085	-0.079229
C69	C	0.046167	0.756721	-0.039551
C70	C	0.090402	0.756728	-0.039573
N71	N	0.139629	0.677369	0.000109
C72	C	0.144611	0.598007	0.039792
C73	C	-0.312233	0.756694	-0.039536
C74	C	-0.356479	0.756690	-0.039534
C75	C	-0.302267	0.597962	0.039833
C76	C	-0.258020	0.597967	0.039826
C77	C	-0.263005	0.677335	0.000146
C78	C	0.237524	0.598022	0.039772
C79	C	0.281768	0.598034	0.039759
C80	C	0.227553	0.756761	-0.039604
C81	C	0.183312	0.756750	-0.039594
C82	C	0.188300	0.677374	0.000100
O83	O	0.090281	0.824186	-0.073322
O84	O	0.190548	0.530517	0.073545
C85	C	-0.032365	0.597990	0.039816
C86	C	-0.081590	0.677347	0.000140
C87	C	-0.086572	0.756710	-0.039542
C88	C	-0.125836	0.677344	0.000142
C89	C	-0.120854	0.597982	0.039824
C90	C	-0.071626	0.518623	0.079506
C91	C	-0.027383	0.518627	0.079498
C92	C	-0.135800	0.836069	-0.079224
C93	C	-0.180041	0.836058	-0.079214
C94	C	-0.175059	0.756695	-0.039531
C95	C	0.601408	0.677337	0.000139
C96	C	0.648503	0.677328	0.000149
C97	C	0.462638	0.677371	-0.203082
C98	C	0.462635	0.677374	-0.272045
C99	C	0.462643	0.880550	0.000119
C100	C	0.462643	0.949510	0.000121
C101	C	0.435537	0.756733	-0.344124
C102	C	0.435541	0.756731	-0.408919
C103	C	0.462642	0.677368	-0.401633
C104	C	0.489743	0.598003	-0.329546
C105	C	0.489742	0.598006	-0.264753
C106	C	0.489752	0.597988	-0.590849
C107	C	0.489750	0.597990	-0.655650
C108	C	0.435551	0.756712	-0.735015
C109	C	0.435550	0.756715	-0.670222
C110	C	0.462653	0.677351	-0.598141
C111	C	0.462649	0.677354	-0.527883
C112	C	0.462643	0.677364	-0.471889
C113	C	0.462652	0.677353	0.203307
C114	C	0.462654	0.677350	0.272269
C115	C	0.601410	0.474149	0.000133
C116	C	0.648505	0.405180	0.000140
C117	C	0.462653	0.474165	0.203300
C118	C	0.462656	0.405202	0.272260
C119	C	0.601417	0.474140	0.203327
C120	C	0.648515	0.405168	0.272297
C121	C	0.323873	0.880585	-0.203103
C122	C	0.276775	0.949556	-0.272072
C123	C	0.323880	0.880576	0.000092
C124	C	0.276785	0.949545	0.000085
C125	C	0.462636	0.880559	-0.203076
C126	C	0.462633	0.949522	-0.272036
C127	C	0.643524	0.372798	-0.039547
C128	C	0.687771	0.308003	-0.039556
C129	C	0.736999	0.275587	0.000127
C130	C	0.741979	0.307975	0.039815
C131	C	0.697732	0.372773	0.039819
C132	C	0.489755	0.372810	0.344335
C133	C	0.489756	0.308021	0.409136
C134	C	0.462660	0.275621	0.401862
C135	C	0.435558	0.308020	0.329780
C136	C	0.435555	0.372812	0.264980
C137	C	0.697732	0.372775	0.265013
C138	C	0.741989	0.307977	0.329811
C139	C	0.737029	0.275570	0.401892
C140	C	0.687806	0.307970	0.409174
C141	C	0.643550	0.372770	0.344377
C142	C	0.227558	0.981957	-0.264788
C143	C	0.183300	1.046775	-0.329586
C144	C	0.188261	1.079186	-0.401667
C145	C	0.237483	1.046782	-0.408949
C146	C	0.281740	0.981970	-0.344152
C147	C	0.281766	0.981933	0.039765
C148	C	0.237519	1.046746	0.039755
C149	C	0.188291	1.079164	0.000070
C150	C	0.183311	1.046773	-0.039614
C151	C	0.227557	0.981966	-0.039609
C152	C	0.489734	0.981901	-0.264737
C153	C	0.489742	1.046691	-0.329526
C154	C	0.462645	1.079104	-0.401614
C155	C	0.435543	1.046719	-0.408911
C156	C	0.435539	0.981926	-0.344122
H157	H	0.511798	0.073080	-0.071869
C158	C	0.519543	-0.053734	-0.083201
C159	C	0.519548	-0.125010	-0.083200
C160	C	0.549354	-0.160649	-0.126845
C161	C	0.579155	-0.125013	-0.170489
C162	C	0.579151	-0.053733	-0.170491
C163	C	0.549345	-0.018094	-0.126847
H164	H	0.497487	-0.151394	-0.050891
H165	H	0.549357	-0.213416	-0.126843
H166	H	0.601219	-0.151396	-0.202797
H167	H	0.601213	-0.027350	-0.202801
H168	H	0.549342	0.034672	-0.126849
C169	C	0.519551	1.082311	-0.321487
C170	C	0.563519	1.073384	-0.355087
C171	C	0.593328	1.109003	-0.347045
C172	C	0.579169	1.153548	-0.305403
C173	C	0.535199	1.162478	-0.271800
C174	C	0.505390	1.126859	-0.279842
H175	H	0.574002	1.040407	-0.385916
H176	H	0.625877	1.102392	-0.371921
H177	H	0.601235	1.179915	-0.299450
H178	H	0.524716	1.195455	-0.240972
H179	H	0.472841	1.133470	-0.254967
H180	H	0.511828	0.281649	0.467822
C181	C	0.682284	0.272378	-0.083207
C182	C	0.653826	0.334756	-0.169395
C183	C	0.648338	0.299132	-0.213045
C184	C	0.671308	0.201130	-0.170506
C185	C	0.699768	0.138745	-0.084312
C186	C	0.705256	0.174369	-0.040663
H187	H	0.636821	0.407309	-0.200890
H188	H	0.627270	0.345314	-0.276851
H189	H	0.667245	0.174758	-0.202817
H190	H	0.716773	0.066192	-0.052817
H191	H	0.726324	0.128188	0.023144
H192	H	-0.139864	0.900697	-0.111540
H193	H	0.143224	1.073178	-0.071925
C194	C	0.222092	0.946319	-0.185505
C195	C	0.167948	0.981980	-0.177509
C196	C	0.162477	0.946352	-0.098227
C197	C	0.211150	0.875063	-0.026942
C198	C	0.265298	0.839398	-0.034936
C199	C	0.270769	0.875027	-0.114217
H200	H	0.131914	1.034756	-0.230281
H201	H	0.122393	0.972753	-0.092310
H202	H	0.207100	0.848688	0.031747
H203	H	0.301332	0.786622	0.017836
H204	H	0.310853	0.848625	-0.120134
H205	H	0.511802	0.399187	-0.071882
H206	H	0.413465	0.821359	-0.350065
C207	C	0.796130	0.272340	0.321789
C208	C	0.844816	0.201064	0.393054
C209	C	0.898954	0.165428	0.385030
C210	C	0.904406	0.201067	0.305740
C211	C	0.855718	0.272347	0.234469
C212	C	0.801580	0.307983	0.242493
H213	H	0.840782	0.174678	0.451754
H214	H	0.934997	0.112662	0.437790
H215	H	0.944482	0.174687	0.299800
H216	H	0.859752	0.298733	0.175769
H217	H	0.765537	0.360749	0.189734
H218	H	0.145427	0.454014	0.111782
H219	H	0.462652	1.131863	-0.454362
H220	H	0.413490	0.399200	0.072091
C221	C	0.405735	1.082387	-0.488211
C222	C	0.434786	1.073487	-0.543666
C223	C	0.404975	1.109163	-0.622969
C224	C	0.346112	1.153738	-0.646817
C225	C	0.317058	1.162640	-0.591361
C226	C	0.346869	1.126965	-0.512058
H227	H	0.478363	1.040487	-0.526014
H228	H	0.426484	1.102572	-0.664021
H229	H	0.324044	1.180148	-0.705522
H230	H	0.273481	1.195640	-0.609013
H231	H	0.325360	1.133555	-0.471006
C232	C	0.519545	0.272373	-0.083208
C233	C	0.549346	0.308008	-0.126854
C234	C	0.579152	0.272366	-0.170497
C235	C	0.579157	0.201089	-0.170493
C236	C	0.549355	0.165450	-0.126845
C237	C	0.519549	0.201092	-0.083203
H238	H	0.549344	0.360775	-0.126858
H239	H	0.601214	0.298749	-0.202808
H240	H	0.601221	0.174705	-0.202800
H241	H	0.549358	0.112683	-0.126842
H242	H	0.497488	0.174709	-0.050892
C243	C	0.405743	-0.053723	0.083441
C244	C	0.375944	-0.018095	0.127092
C245	C	0.346142	-0.053734	0.170739
C246	C	0.346139	-0.125001	0.170734
C247	C	0.375939	-0.160633	0.127081
C248	C	0.405741	-0.124994	0.083434
H249	H	0.375945	0.034665	0.127097
H250	H	0.324082	-0.027357	0.203054
H251	H	0.324078	-0.151384	0.203044
H252	H	0.375938	-0.213393	0.127076
H253	H	0.427800	-0.151372	0.051119
C254	C	0.243005	1.082358	0.083419
C255	C	0.271459	1.126871	0.062722
C256	C	0.276947	1.162479	0.106387
C257	C	0.253982	1.153574	0.170750
C258	C	0.225527	1.109060	0.191451
C259	C	0.220038	1.073452	0.147786
H260	H	0.288461	1.133464	0.015074
H261	H	0.298012	1.195432	0.091063
H262	H	0.258045	1.179934	0.203074
H263	H	0.208525	1.102467	0.239099
H264	H	0.198973	1.040499	0.163110
C265	C	0.405748	0.408433	0.185699
C266	C	0.375948	0.372784	0.177707
C267	C	0.346139	0.408401	0.098427
C268	C	0.346130	0.479668	0.027140
C269	C	0.375931	0.515322	0.035129
C270	C	0.405740	0.479704	0.114409
H271	H	0.375954	0.320024	0.230480
H272	H	0.324079	0.382008	0.092513
H273	H	0.324063	0.506035	-0.031548
H274	H	0.375925	0.568081	-0.017644
H275	H	0.427800	0.506097	0.120323
C276	C	-0.317723	0.844007	-0.083195
C277	C	-0.346176	0.909473	-0.169385
C278	C	-0.351669	0.996787	-0.213049
C279	C	-0.328711	1.018635	-0.170521
C280	C	-0.300257	0.953168	-0.084326
C281	C	-0.294763	0.865854	-0.040662
H282	H	-0.363172	0.893301	-0.200871
H283	H	-0.372733	1.045250	-0.276857
H284	H	-0.332778	1.083271	-0.202843
H285	H	-0.283260	0.969340	-0.052840
H286	H	-0.273699	0.817390	0.023145
C287	C	0.405741	0.082340	0.083442
C288	C	0.419895	0.019961	0.169630
C289	C	0.390088	0.055586	0.213282
C290	C	0.346127	0.153591	0.170744
C291	C	0.331971	0.215976	0.084551
C292	C	0.361778	0.180351	0.040900
H293	H	0.452440	-0.052594	0.201123
H294	H	0.400567	0.009404	0.277088
H295	H	0.324062	0.179963	0.203058
H296	H	0.299427	0.288531	0.053058
H297	H	0.351299	0.226533	-0.022906
C298	C	0.519558	0.408447	0.352350
C299	C	0.519560	0.479720	0.281083
C300	C	0.549361	0.515358	0.289106
C301	C	0.579160	0.479724	0.368395
C302	C	0.579160	0.408448	0.439667
C303	C	0.549359	0.372809	0.431644
H304	H	0.497500	0.506102	0.222384
H305	H	0.549361	0.568122	0.236345
H306	H	0.601221	0.506106	0.374334
H307	H	0.601220	0.382066	0.498366
H308	H	0.549359	0.320046	0.484405
H309	H	0.511820	0.533360	-0.649709
C310	C	0.682358	0.272301	0.488468
C311	C	0.705337	0.281184	0.543940
C312	C	0.699891	0.245504	0.623237
C313	C	0.671467	0.200941	0.647062
C314	C	0.648486	0.192057	0.591589
C315	C	0.653931	0.227737	0.512292
H316	H	0.726380	0.314173	0.526305
H317	H	0.716904	0.252081	0.664302
H318	H	0.667435	0.174529	0.705762
H319	H	0.627442	0.159067	0.609224
H320	H	0.636919	0.221159	0.471227
C321	C	0.519554	0.510699	-0.321523
C322	C	0.505405	0.445236	-0.279877
C323	C	0.535214	0.357928	-0.271849
C324	C	0.579173	0.336084	-0.305468
C325	C	0.593324	0.401549	-0.347117
C326	C	0.563515	0.488857	-0.355145
H327	H	0.472862	0.461405	-0.254988
H328	H	0.524738	0.309467	-0.241018
H329	H	0.601240	0.271454	-0.299525
H330	H	0.625867	0.385380	-0.372006
H331	H	0.573991	0.537318	-0.385976
H332	H	0.143226	1.073147	-0.323642
H333	H	0.462667	0.222863	0.454632
C334	C	0.785715	0.204283	0.473165
C335	C	0.824954	0.115195	0.486969
C336	C	0.873641	0.043905	0.558239
C337	C	0.883090	0.061705	0.615706
C338	C	0.843849	0.150797	0.601904
C339	C	0.795162	0.222086	0.530634
H340	H	0.817961	0.102015	0.444427
H341	H	0.902690	-0.022047	0.568455
H342	H	0.919131	0.008932	0.668465
H343	H	0.850842	0.163977	0.644446
H344	H	0.766114	0.288038	0.520418
H345	H	0.701781	0.399151	0.206327
H346	H	0.321845	0.955543	0.072086
C347	C	0.139575	1.150474	-0.472941
C348	C	0.085438	1.186065	-0.464920
C349	C	0.036751	1.257350	-0.536191
C350	C	0.042200	1.293046	-0.615481
C351	C	0.096339	1.257455	-0.623505
C352	C	0.145026	1.186170	-0.552235
H353	H	0.081403	1.159641	-0.406221
H354	H	-0.003326	1.283696	-0.530250
H355	H	0.006159	1.345816	-0.668240
H356	H	0.100375	1.283879	-0.682204
H357	H	0.185104	1.159824	-0.558175
C358	C	0.405719	0.946322	-0.352158
C359	C	0.375912	0.981988	-0.431456
C360	C	0.346090	0.946389	-0.439498
C361	C	0.346076	0.875123	-0.368244
C362	C	0.375885	0.839453	-0.288941
C363	C	0.405706	0.875053	-0.280898
H364	H	0.375921	1.034747	-0.484208
H365	H	0.324024	0.972795	-0.498204
H366	H	0.324000	0.848770	-0.374197
H367	H	0.375875	0.786694	-0.236189
H368	H	0.427773	0.848647	-0.222192
H369	H	0.413494	0.281639	0.072096
C370	C	0.243014	0.510710	0.083428
C371	C	0.271454	0.445252	0.062698
C372	C	0.276944	0.357940	0.106347
C373	C	0.253995	0.336087	0.170726
C374	C	0.225554	0.401547	0.191459
C375	C	0.220063	0.488858	0.147810
H376	H	0.288444	0.461427	0.015038
H377	H	0.297998	0.309483	0.090998
H378	H	0.258059	0.271454	0.203037
H379	H	0.208564	0.385372	0.239119
H380	H	0.199009	0.537316	0.163159
C381	C	0.139622	1.150446	0.000075
C382	C	0.145108	1.186061	0.043732
C383	C	0.096441	1.257340	0.043743
C384	C	0.042289	1.293004	0.000097
C385	C	0.036802	1.257389	-0.043562
C386	C	0.085468	1.186110	-0.043573
H387	H	0.185196	1.159661	0.076043
H388	H	0.100504	1.283705	0.076063
H389	H	0.006264	1.345769	0.000106
H390	H	-0.003287	1.283789	-0.075874
H391	H	0.081405	1.159745	-0.075893
C392	C	0.785667	0.204302	0.000125
C393	C	0.780182	0.168683	-0.043527
C394	C	0.828848	0.097395	-0.043530
C395	C	0.883000	0.061727	0.000121
C396	C	0.888488	0.097346	0.043776
C397	C	0.839822	0.168634	0.043778
H398	H	0.740093	0.195087	-0.075843
H399	H	0.824786	0.071028	-0.075847
H400	H	0.919026	0.008956	0.000119
H401	H	0.928577	0.070942	0.076092
H402	H	0.843884	0.195001	0.076096
H403	H	0.782066	0.281573	0.072123
H404	H	0.321852	0.533403	0.072072
H405	H	0.065169	0.454006	0.111802
H406	H	-0.217940	0.533341	0.072142
H407	H	-0.298217	0.533342	0.072139
C408	C	0.242933	1.082434	-0.488243
C409	C	0.271359	1.020077	-0.512077
C410	C	0.276807	1.055727	-0.591373
C411	C	0.253829	1.153734	-0.646834
C412	C	0.225401	1.216097	-0.623000
C413	C	0.219953	1.180447	-0.543705
H414	H	0.288371	0.947522	-0.471021
H415	H	0.297851	1.009562	-0.609015
H416	H	0.257862	1.180124	-0.705533
H417	H	0.208390	1.288653	-0.664057
H418	H	0.198909	1.226613	-0.526062
H419	H	-0.396559	0.821317	-0.071854
H420	H	0.321814	0.955590	-0.350092
H421	H	-0.087388	0.900716	-0.111541
H422	H	-0.007125	0.900718	-0.111533
H423	H	0.143227	0.821375	-0.071913
H424	H	0.223505	0.821376	-0.071916
H425	H	0.012697	0.454001	0.111810
H426	H	-0.067577	0.454003	0.111812
H427	H	-0.220123	0.900691	-0.111532
H428	H	0.413476	0.821353	-0.467607
H429	H	0.413480	0.821340	-0.676161
H430	H	0.413483	0.821335	-0.793713
H431	H	0.511822	0.533364	-0.532166
H432	H	0.511808	0.533384	-0.206063
H433	H	0.603444	0.399190	-0.071871
H434	H	0.701795	0.399130	0.072141
H435	H	0.223494	0.955597	-0.071919
H436	H	0.413498	0.281630	0.323868
H437	H	0.603477	0.399136	0.350318
H438	H	0.511800	0.955520	-0.206046
