data_functionalizedCrystal
_audit_creation_method	'MofGen! by Chris Wilmer'
_symmetry_space_group_name_H-M	'P1'
_symmetry_Int_Tables_number	1
_symmetry_cell_setting	triclinic
loop_
_symmetry_equiv_pos_as_xyz
  x,y,z
_cell_length_a	15.995350
_cell_length_b	15.995350
_cell_length_c	15.072220
_cell_angle_alpha	90.008851
_cell_angle_beta	89.998899
_cell_angle_gamma	83.492375
loop_
_atom_site_label
_atom_site_type_symbol
_atom_site_fract_x
_atom_site_fract_y
_atom_site_fract_z
O1	O	-0.107921	-1.110996	-0.073703
O2	O	0.392079	-0.610996	0.426297
O3	O	-0.121249	-0.867221	-0.073721
O4	O	0.378751	-0.367221	0.426279
O5	O	0.007303	-0.995772	-0.073710
O6	O	0.507303	-0.495772	0.426290
O7	O	-0.236472	-0.982444	-0.073713
O8	O	0.263528	-0.482444	0.426287
O9	O	0.007296	-0.995740	0.073855
O10	O	0.507296	-0.495740	0.573855
O11	O	-0.121256	-0.867189	0.073844
O12	O	0.378744	-0.367189	0.573844
O13	O	-0.107928	-1.110964	0.073862
O14	O	0.392072	-0.610964	0.573862
Zn15	Zn	-0.114593	-0.989071	0.097283
Zn16	Zn	0.385407	-0.489071	0.597283
Zn17	Zn	-0.114584	-0.989113	-0.097141
Zn18	Zn	0.385416	-0.489113	0.402859
O19	O	-0.236480	-0.982413	0.073852
O20	O	0.263520	-0.482413	0.573852
C21	C	-0.120701	-0.836010	0.000060
C22	C	0.379299	-0.336010	0.500060
C23	C	-0.119049	-0.743060	0.000053
C24	C	0.380951	-0.243060	0.500053
C25	C	0.038494	-0.995205	0.000070
C26	C	0.538494	-0.495205	0.500070
C27	C	0.131444	-0.993553	0.000065
C28	C	0.631444	-0.493553	0.500065
C29	C	-0.267671	-0.982980	0.000069
C30	C	0.232329	-0.482980	0.500069
C31	C	-0.360621	-0.984631	0.000069
C32	C	0.139379	-0.484631	0.500069
C33	C	0.469192	-0.987621	0.000068
C34	C	0.969192	-0.487621	0.500068
C35	C	0.421758	-0.896069	-0.000270
C36	C	0.921758	-0.396069	0.499730
C37	C	0.325068	-0.897721	0.000063
C38	C	0.825068	-0.397721	0.500063
C39	C	0.301631	-0.990564	0.000066
C40	C	0.801631	-0.490564	0.500066
C41	C	0.342705	-1.035702	0.084335
C42	C	0.842705	-0.535702	0.584335
C43	C	0.439341	-1.033402	0.084405
C44	C	0.939341	-0.533402	0.584405
C45	C	0.439707	-1.035330	-0.083404
C46	C	0.939707	-0.535330	0.416596
C47	C	0.342761	-1.035308	-0.084518
C48	C	0.842761	-0.535308	0.415482
C49	C	0.206934	-0.992231	0.000068
C50	C	0.706934	-0.492231	0.500068
C51	C	0.563890	-0.985956	0.000072
C52	C	1.063890	-0.485956	0.500072
C53	C	-0.108476	-1.142175	0.000080
C54	C	0.391524	-0.642175	0.500080
C55	C	-0.110127	-1.235125	0.000081
C56	C	0.389873	-0.735125	0.500081
N57	N	-0.114599	-0.989049	0.229971
N58	N	0.385401	-0.489049	0.729971
C59	C	-0.113117	-0.405312	0.000071
C60	C	0.386883	0.094688	0.500071
C61	C	-0.021565	-0.452746	0.000401
C62	C	0.478435	0.047254	0.500401
C63	C	-0.023217	-0.549436	0.000063
C64	C	0.476783	-0.049436	0.500063
C65	C	-0.116060	-0.572873	0.000063
C66	C	0.383940	-0.072873	0.500063
C67	C	-0.161212	-0.531804	-0.084201
C68	C	0.338788	-0.031804	0.415799
C69	C	-0.158912	-0.435168	-0.084266
C70	C	0.341088	0.064832	0.415734
C71	C	-0.160812	-0.434793	0.083543
C72	C	0.339188	0.065207	0.583543
C73	C	-0.160790	-0.531738	0.084651
C74	C	0.339210	-0.031738	0.584651
C75	C	-0.117727	-0.667570	0.000055
C76	C	0.382273	-0.167570	0.500055
C77	C	-0.111452	-0.310614	0.000073
C78	C	0.388548	0.189386	0.500073
N79	N	-0.114571	-0.989142	-0.229830
N80	N	0.385429	-0.489142	0.270170
C81	C	-0.114580	-0.989112	0.589173
C82	C	0.385420	-0.489112	1.089173
C83	C	-0.183135	-0.920095	0.551560
C84	C	0.316865	-0.420095	1.051560
C85	C	-0.183385	-0.920254	0.448735
C86	C	0.316615	-0.420254	0.948735
C87	C	-0.114590	-0.989080	0.410969
C88	C	0.385410	-0.489080	0.910969
C89	C	-0.133671	-1.076445	0.448266
C90	C	0.366329	-0.576445	0.948266
C91	C	-0.134159	-1.076058	0.551124
C92	C	0.365841	-0.576058	1.051124
C93	C	-0.026741	-0.971542	0.551272
C94	C	0.473259	-0.471542	1.051272
C95	C	-0.027327	-0.969537	0.448409
C96	C	0.472673	-0.469537	0.948409
C97	C	-0.114593	-0.989067	0.310255
C98	C	0.385407	-0.489067	0.810255
C99	C	-0.114579	-0.989130	0.689886
C100	C	0.385421	-0.489130	1.189886
H101	H	0.296649	-0.862238	-0.060344
H102	H	0.796649	-0.362238	0.439656
H103	H	-0.228494	-0.547102	0.089741
H104	H	0.271506	-0.047102	0.589741
H105	H	-0.008392	-0.909219	0.577258
H106	H	0.491608	-0.409219	1.077258
H107	H	0.012521	-0.577307	-0.060446
H108	H	0.512521	-0.077307	0.439554
H109	H	0.315516	-1.002306	-0.146857
H110	H	0.815516	-0.502306	0.353143
H111	H	-0.085068	-1.129029	0.423801
H112	H	0.414932	-0.629029	0.923801
H113	H	-0.172016	-0.855314	0.423519
H114	H	0.327984	-0.355314	0.923519
H115	H	-0.198219	-1.091540	0.575106
H116	H	0.301781	-0.591540	1.075106
H117	H	-0.012846	-0.905271	0.424032
H118	H	0.487154	-0.405271	0.924032
H119	H	0.297200	-0.861974	0.060568
H120	H	0.797200	-0.361974	0.560568
H121	H	-0.086195	-1.129019	0.576003
H122	H	0.413805	-0.629019	1.076003
H123	H	0.328579	-1.103910	0.087471
H124	H	0.828579	-0.603910	0.587471
H125	H	0.314320	-1.004325	0.147042
H126	H	0.814320	-0.504325	0.647042
H127	H	-0.171953	-0.854945	0.576317
H128	H	0.328047	-0.354945	1.076317
H129	H	0.024275	-1.021872	0.575595
H130	H	0.524275	-0.521872	1.075595
H131	H	0.460250	-1.005411	-0.147274
H132	H	0.960250	-0.505411	0.352726
H133	H	-0.130885	-0.414244	0.147414
H134	H	0.369115	0.085756	0.647414
H135	H	-0.248570	-0.931473	0.424121
H136	H	0.251430	-0.431473	0.924121
H137	H	0.457639	-1.000460	0.147395
H138	H	0.957639	-0.500460	0.647395
H139	H	-0.125979	-0.416873	-0.147255
H140	H	0.374021	0.083127	0.352745
H141	H	0.471588	-1.100617	0.088231
H142	H	0.971588	-0.600617	0.588231
H143	H	0.440293	-0.859490	-0.060701
H144	H	0.940293	-0.359490	0.439299
H145	H	0.327400	-1.103014	-0.089603
H146	H	0.827400	-0.603014	0.410397
H147	H	0.471468	-1.102831	-0.083968
H148	H	0.971468	-0.602831	0.416032
H149	H	-0.129845	-0.560191	-0.146912
H150	H	0.370155	-0.060191	0.353088
H151	H	-0.226128	-0.402920	-0.088090
H152	H	0.273872	0.097080	0.411910
H153	H	0.441349	-0.859626	0.059819
H154	H	0.941349	-0.359626	0.559819
H155	H	0.012275	-0.577852	0.060467
H156	H	0.512275	-0.077852	0.560467
H157	H	-0.247952	-0.931160	0.577399
H158	H	0.252048	-0.431160	1.077399
H159	H	-0.197002	-1.092297	0.422498
H160	H	0.302998	-0.592297	0.922498
H161	H	0.014865	-0.433165	-0.059694
H162	H	0.514865	0.066835	0.440306
H163	H	0.015027	-0.434211	0.060830
H164	H	0.515027	0.065789	0.560830
H165	H	-0.229421	-0.545929	-0.087335
H166	H	0.270579	-0.045929	0.412665
H167	H	0.026078	-1.016540	0.422704
H168	H	0.526078	-0.516540	0.922704
H169	H	-0.228312	-0.403031	0.084113
H170	H	0.271688	0.096969	0.584113
H171	H	-0.127829	-0.559041	0.146989
H172	H	0.372171	-0.059041	0.646989
