data_functionalizedCrystal
_audit_creation_method	'MofGen! by Chris Wilmer'
_symmetry_space_group_name_H-M	'P1'
_symmetry_Int_Tables_number	1
_symmetry_cell_setting	triclinic
loop_
_symmetry_equiv_pos_as_xyz
  x,y,z
_cell_length_a	14.446369
_cell_length_b	23.096457
_cell_length_c	14.446369
_cell_angle_alpha	89.997849
_cell_angle_beta	59.995450
_cell_angle_gamma	60.000829
loop_
_atom_site_label
_atom_site_type_symbol
_atom_site_fract_x
_atom_site_fract_y
_atom_site_fract_z
Zr1	Zr	1.013263	0.557769	-0.121559
O2	O	1.206388	0.465320	-0.269372
O3	O	0.820143	0.586109	-0.076241
O4	O	1.013272	0.586108	-0.269370
O5	O	1.013250	0.465323	0.076095
O6	O	1.013275	0.681388	-0.269376
O7	O	1.013258	0.465321	-0.076242
O8	O	0.667801	0.681390	0.076098
O9	O	1.358724	0.465321	-0.269379
O10	O	0.899576	0.669303	-0.056924
O11	O	0.899568	0.598198	0.056767
O12	O	1.126954	0.598196	-0.170618
O13	O	1.126945	0.527091	-0.056926
Zr14	Zr	1.013254	0.709733	0.121392
Zr15	Zr	1.013267	0.709730	-0.121568
Zr16	Zr	1.013250	0.557772	0.121401
Zr17	Zr	1.256221	0.557770	-0.121570
Zr18	Zr	0.770296	0.709732	0.121403
O19	O	1.206375	0.681393	0.076073
O20	O	1.206394	0.681389	-0.269385
O21	O	1.206369	0.465324	0.076086
O22	O	0.820129	0.802182	0.269205
O23	O	0.820148	0.802178	-0.076253
O24	O	0.820124	0.586113	0.269217
O25	O	1.013268	0.802179	-0.076262
O26	O	1.013245	0.681394	0.269203
O27	O	1.013243	0.586114	0.269209
O28	O	1.013259	0.802181	0.076075
O29	O	1.358727	0.586110	-0.269386
O30	O	0.667790	0.681392	0.269219
O31	O	0.667794	0.802181	0.269212
O32	O	0.667804	0.802179	0.076091
O33	O	1.358713	0.465323	-0.076258
O34	O	1.358717	0.586112	-0.076265
O35	O	0.899564	0.669306	0.170451
O36	O	0.899572	0.740411	0.056759
O37	O	1.126949	0.669304	-0.056935
O38	O	1.126941	0.598199	0.056757
C39	C	0.709355	0.633749	-0.000070
C40	C	0.606213	0.633749	-0.000065
C41	C	0.459199	0.589117	0.071969
C42	C	0.566819	0.588875	0.071678
C43	C	0.655215	0.601032	-0.123605
C44	C	0.547983	0.600696	-0.123231
C45	C	0.372755	0.711128	0.050378
C46	C	0.478905	0.711015	0.052899
C47	C	1.013254	0.443671	-0.000072
C48	C	1.013252	0.379159	-0.000069
C49	C	0.894567	0.385970	0.059267
C50	C	0.894565	0.325355	0.059272
C51	C	1.013255	0.257929	-0.000081
C52	C	1.131956	0.251120	-0.059420
C53	C	1.131954	0.311735	-0.059414
N54	N	1.101605	0.135132	-0.096671
N55	N	1.101599	0.077553	-0.096674
C56	C	1.013267	0.075296	-0.000101
N57	N	0.924922	0.132800	0.096475
N58	N	0.924925	0.190386	0.096476
C59	C	1.013270	0.192197	-0.000094
C60	C	0.894571	0.016383	0.059246
C61	C	0.894575	-0.044235	0.059254
C62	C	1.131969	-0.118470	-0.059449
C63	C	1.131962	-0.057852	-0.059446
C64	C	1.013260	0.009572	-0.000101
C65	C	1.317162	0.633753	-0.000098
C66	C	1.420304	0.633753	-0.000102
C67	C	1.013275	0.633747	-0.303990
C68	C	1.013281	0.633746	-0.407133
C69	C	1.013264	0.823831	-0.000095
C70	C	1.013266	0.888343	-0.000099
C71	C	1.156673	0.588683	-0.625505
C72	C	1.156770	0.588873	-0.518274
C73	C	0.942052	0.711011	-0.410457
C74	C	0.942962	0.710769	-0.518226
C75	C	0.940006	0.602185	-0.516856
C76	C	0.942708	0.600616	-0.410887
C77	C	1.013242	0.633754	0.303822
C78	C	1.013236	0.633756	0.406965
C79	C	0.709361	0.823830	-0.000081
C80	C	0.606220	0.888340	-0.000080
C81	C	0.709339	0.633753	0.303836
C82	C	0.606191	0.633753	0.406984
C83	C	0.709344	0.823833	0.303825
C84	C	0.606198	0.888345	0.406969
C85	C	1.317174	0.443669	-0.303992
C86	C	1.420320	0.379157	-0.407136
C87	C	1.317157	0.443672	-0.000086
C88	C	1.420297	0.379161	-0.000087
C89	C	1.317179	0.633749	-0.304004
C90	C	1.420326	0.633749	-0.407151
C91	C	0.557787	0.881518	-0.059431
C92	C	0.460889	0.942127	-0.059453
C93	C	0.412420	1.009558	-0.000116
C94	C	0.460863	1.016379	0.059237
C95	C	0.557766	0.955771	0.059251
C96	C	0.557764	0.955763	0.396061
C97	C	0.460861	1.016385	0.492966
C98	C	0.412387	1.009587	0.600779
C99	C	0.460831	0.942162	0.611685
C100	C	0.557739	0.881542	0.514781
C101	C	1.468766	0.311739	-0.396228
C102	C	1.565699	0.251117	-0.493133
C103	C	1.614178	0.257915	-0.600946
C104	C	1.565728	0.325340	-0.611852
C105	C	1.468803	0.385960	-0.514948
C106	C	1.468741	0.385984	0.059254
C107	C	1.565666	0.325375	0.059249
C108	C	1.614138	0.257944	-0.000091
C109	C	1.565690	0.251123	-0.059440
C110	C	1.468774	0.311731	-0.059441
C111	C	0.459867	0.588690	0.481980
C112	C	0.566800	0.588879	0.374641
C113	C	0.479332	0.711018	0.481543
C114	C	0.371945	0.710776	0.588413
C115	C	0.546915	0.602193	0.589997
C116	C	0.655397	0.600624	0.481315
H117	H	0.370326	0.610947	0.163166
Br118	Br	0.615810	0.505798	-0.190586
H119	H	0.597188	0.961336	0.107589
Br120	Br	0.518702	0.494565	0.014193
H121	H	1.693053	0.208598	-0.000081
H122	H	1.429334	0.306166	-0.107760
Br123	Br	1.402991	0.302493	-0.249923
Br124	Br	0.715729	0.494050	0.284176
H125	H	1.605172	0.196212	-0.107753
Br126	Br	0.623535	0.965009	0.249756
Br127	Br	0.521934	0.493615	0.478084
H128	H	0.687522	0.630042	0.506835
H129	H	0.655620	0.531801	0.036682
Br130	Br	1.631392	0.334649	0.139802
Br131	Br	1.745721	0.175636	-0.732450
H132	H	0.985900	0.546152	-0.566878
H133	H	0.597249	0.826618	-0.107764
Br134	Br	0.310422	0.624840	0.480255
H135	H	0.500411	0.747074	0.005866
H136	H	0.279004	0.738463	0.139948
H137	H	0.421385	1.071290	0.107546
Br138	Br	0.504372	0.625373	0.284977
H139	H	0.281193	0.736050	0.588141
Br140	Br	0.415066	0.753441	0.395530
Br141	Br	0.321994	0.769797	0.719392
Br142	Br	1.293036	0.159614	-0.139961
H143	H	1.605130	0.196222	-0.484231
H144	H	0.501579	0.746057	0.508772
Br145	Br	0.329474	0.766819	-0.036700
Br146	Br	0.612867	0.508799	0.596866
Br147	Br	0.623453	0.790047	0.529606
Br148	Br	1.631532	0.334554	-0.758179
H149	H	0.797923	-0.038682	0.107581
H150	H	0.745893	0.543703	0.429892
H151	H	0.522121	0.634867	0.668215
H152	H	0.837724	0.746176	-0.491570
H153	H	0.421458	0.936559	-0.107785
H154	H	0.526018	0.631107	-0.179846
Br155	Br	0.703279	0.652586	-0.217001
Br156	Br	0.412885	0.751756	0.204596
Br157	Br	0.809069	0.507039	-0.191427
H158	H	0.530104	0.610821	0.162648
H159	H	0.421428	1.071280	0.484066
H160	H	0.797917	0.071284	0.107592
Br161	Br	0.733472	0.477472	0.139812
H162	H	0.797914	0.330901	0.107592
H163	H	1.228605	0.306184	-0.107730
H164	H	1.429359	0.440854	-0.523843
H165	H	1.429282	0.440884	0.107583
H166	H	1.228608	-0.173368	-0.107777
Br167	Br	1.249796	0.494048	-0.520901
Br168	Br	0.395031	0.932948	0.758011
Br169	Br	1.293044	-0.067095	-0.139983
H170	H	1.212964	0.531641	-0.679457
Br171	Br	0.766204	0.769416	-0.280004
H172	H	1.212693	0.610377	-0.680489
H173	H	0.993586	0.736042	-0.568576
Br174	Br	1.024509	0.753435	-0.406905
H175	H	1.213014	0.610771	-0.520731
Br176	Br	1.029264	0.505742	-0.411745
H177	H	0.838024	0.630033	-0.331726
H178	H	0.834340	0.634858	-0.489405
Br179	Br	0.280907	1.091806	-0.000147
H180	H	0.333478	1.058954	0.679675
