data_functionalizedCrystal
_audit_creation_method	'MofGen! by Chris Wilmer'
_symmetry_space_group_name_H-M	'P1'
_symmetry_Int_Tables_number	1
_symmetry_cell_setting	triclinic
loop_
_symmetry_equiv_pos_as_xyz
  x,y,z
_cell_length_a	23.532361
_cell_length_b	23.532407
_cell_length_c	14.750779
_cell_angle_alpha	77.433997
_cell_angle_beta	102.562763
_cell_angle_gamma	82.839173
loop_
_atom_site_label
_atom_site_type_symbol
_atom_site_fract_x
_atom_site_fract_y
_atom_site_fract_z
O1	O	0.742857	0.081424	-0.079743
O2	O	1.242857	0.581424	0.420257
O3	O	0.576986	0.091459	-0.079767
O4	O	1.076986	0.591459	0.420233
O5	O	0.664926	0.003506	-0.079737
O6	O	1.164926	0.503506	0.420263
O7	O	0.654917	0.169377	-0.079773
O8	O	1.154917	0.669377	0.420227
O9	O	0.689785	-0.021355	0.079922
O10	O	1.189785	0.478645	0.579922
O11	O	0.601845	0.066598	0.079892
O12	O	1.101845	0.566598	0.579892
O13	O	0.767716	0.056563	0.079916
O14	O	1.267716	0.556563	0.579916
Zn15	Zn	0.688728	0.057634	0.105253
Zn16	Zn	1.188728	0.557634	0.605253
Zn17	Zn	0.655974	0.090388	-0.105104
Zn18	Zn	1.155974	0.590388	0.394896
O19	O	0.679776	0.144516	0.079886
O20	O	1.179776	0.644516	0.579886
C21	C	0.568199	0.078778	0.000059
C22	C	1.068199	0.578778	0.500059
C23	C	0.504979	0.078024	0.000051
C24	C	1.004979	0.578024	0.500051
C25	C	0.218185	0.088271	-0.086973
C26	C	0.718185	0.588271	0.413027
C27	C	0.277584	0.088986	-0.086975
C28	C	0.777584	0.588986	0.413025
O29	O	0.296786	0.100861	-0.160989
O30	O	0.796786	0.600861	0.339011
N31	N	0.320841	0.075796	0.000055
N32	N	0.820841	0.575796	0.500055
C33	C	0.304697	0.061883	0.087094
C34	C	0.804697	0.561883	0.587094
O35	O	0.346944	0.050729	0.161120
O36	O	0.846944	0.550729	0.661120
C37	C	0.245299	0.061164	0.087095
C38	C	0.745299	0.561164	0.587095
C39	C	0.202044	0.074361	0.000059
C40	C	0.702044	0.574361	0.500059
C41	C	0.174931	0.101466	-0.174002
C42	C	0.674931	0.601466	0.325998
C43	C	0.115536	0.100752	-0.173999
C44	C	0.615536	0.600752	0.326001
C45	C	0.099394	0.086842	-0.086967
C46	C	0.599394	0.586842	0.413033
C47	C	0.142648	0.073647	0.000062
C48	C	0.642648	0.573647	0.500062
C49	C	0.229156	0.047248	0.174133
C50	C	0.729156	0.547248	0.674133
C51	C	0.169753	0.046529	0.174127
C52	C	0.669753	0.546529	0.674127
C53	C	0.126498	0.059726	0.087091
C54	C	0.626498	0.559726	0.587091
C55	C	0.067112	0.059023	0.087097
C56	C	0.567112	0.559023	0.587097
N57	N	0.023855	0.072213	0.000066
N58	N	0.523855	0.572213	0.500066
C59	C	0.039996	0.086123	-0.086965
C60	C	0.539996	0.586123	0.413035
C61	C	0.429436	0.063394	0.087084
C62	C	0.929436	0.563394	0.587084
C63	C	0.488832	0.064117	0.087083
C64	C	0.988832	0.564117	0.587083
C65	C	0.461715	0.091219	-0.086986
C66	C	0.961715	0.591219	0.413014
C67	C	0.402318	0.090499	-0.086984
C68	C	0.902318	0.590499	0.413016
C69	C	0.386179	0.076584	0.000053
C70	C	0.886179	0.576584	0.500053
C71	C	-0.084737	0.084622	-0.086953
C72	C	0.415263	0.584622	0.413047
C73	C	-0.144137	0.083909	-0.086942
C74	C	0.355863	0.583909	0.413058
C75	C	-0.117015	0.056805	0.087126
C76	C	0.382985	0.556805	0.587126
C77	C	-0.057621	0.057521	0.087116
C78	C	0.442379	0.557521	0.587116
C79	C	-0.041484	0.071429	0.000069
C80	C	0.458516	0.571429	0.500069
O81	O	0.047867	0.047151	0.161073
O82	O	0.547867	0.547151	0.661073
O83	O	-0.002255	0.097268	-0.160979
O84	O	0.497745	0.597268	0.339021
C85	C	0.677101	-0.030141	0.000095
C86	C	1.177101	0.469859	0.500095
C87	C	0.676336	-0.093359	0.000102
C88	C	1.176336	0.406641	0.500102
C89	C	0.723564	-0.492463	0.000057
C90	C	1.223564	0.007537	0.500057
C91	C	0.722851	-0.551862	0.000049
C92	C	1.222851	-0.051862	0.500049
O93	O	0.766634	-0.588609	0.000020
O94	O	1.266634	-0.088609	0.500020
N95	N	0.670573	-0.574478	0.000042
N96	N	1.170573	-0.074478	0.500042
C97	C	0.619002	-0.537690	0.000033
C98	C	1.119002	-0.037690	0.500033
O99	O	0.574469	-0.562381	0.000026
O100	O	1.074469	-0.062381	0.500026
C101	C	0.619714	-0.478291	0.000034
C102	C	1.119714	0.021709	0.500034
C103	C	0.671997	-0.455680	0.000050
C104	C	1.171997	0.044320	0.500050
C105	C	0.775843	-0.469851	0.000072
C106	C	1.275843	0.030149	0.500072
C107	C	0.776556	-0.410456	0.000082
C108	C	1.276556	0.089544	0.500082
C109	C	0.724989	-0.373673	0.000075
C110	C	1.224989	0.126327	0.500075
C111	C	0.672710	-0.396285	0.000059
C112	C	1.172710	0.103715	0.500059
C113	C	0.568143	-0.441504	0.000017
C114	C	1.068143	0.058496	0.500017
C115	C	0.568859	-0.382101	0.000017
C116	C	1.068859	0.117899	0.500017
C117	C	0.621143	-0.359490	0.000034
C118	C	1.121143	0.140510	0.500034
C119	C	0.621856	-0.300108	0.000062
C120	C	1.121856	0.199892	0.500062
N121	N	0.674135	-0.277492	0.000069
N122	N	1.174135	0.222508	0.500069
C123	C	0.725701	-0.314275	0.000076
C124	C	1.225701	0.185725	0.500076
C125	C	0.617510	-0.662432	0.000030
C126	C	1.117510	-0.162432	0.500030
C127	C	0.616798	-0.721831	0.000037
C128	C	1.116798	-0.221831	0.500037
C129	C	0.720648	-0.735998	0.000051
C130	C	1.220648	-0.235998	0.500051
C131	C	0.721360	-0.676599	0.000052
C132	C	1.221360	-0.176599	0.500052
C133	C	0.669789	-0.639816	0.000037
C134	C	1.169789	-0.139816	0.500037
C135	C	0.727194	-0.189541	0.000096
C136	C	1.227194	0.310459	0.500096
C137	C	0.727903	-0.130141	0.000109
C138	C	1.227903	0.369859	0.500109
C139	C	0.624053	-0.115979	0.000089
C140	C	1.124053	0.384021	0.500089
C141	C	0.623345	-0.175374	0.000081
C142	C	1.123345	0.324626	0.500081
C143	C	0.674919	-0.212154	0.000081
C144	C	1.174919	0.287846	0.500081
O145	O	0.578096	-0.263326	0.000087
O146	O	1.078096	0.236674	0.500087
O147	O	0.770225	-0.289573	0.000071
O148	O	1.270225	0.210427	0.500071
C149	C	0.776503	0.069245	0.000087
C150	C	1.276503	0.569245	0.500087
C151	C	0.839722	0.070000	0.000090
C152	C	1.339722	0.570000	0.500090
C153	C	0.667600	0.178163	0.000052
C154	C	1.167600	0.678163	0.500052
C155	C	0.668364	0.241382	0.000038
C156	C	1.168364	0.741382	0.500038
N157	N	0.711085	0.035279	0.248817
N158	N	1.211085	0.535279	0.748817
N159	N	0.633621	0.112739	-0.248668
N160	N	1.133621	0.612739	0.251332
C161	C	0.571180	0.175147	0.600586
C162	C	1.071180	0.675147	1.100586
C163	C	0.586851	0.159486	0.701091
C164	C	1.086851	0.659486	1.201091
C165	C	0.664737	0.081632	0.701081
C166	C	1.164737	0.581632	1.201081
C167	C	0.649071	0.097285	0.600574
C168	C	1.149071	0.597285	1.100574
C169	C	0.602292	0.144043	0.550335
C170	C	1.102292	0.644043	1.050335
C171	C	0.680184	0.066181	0.550322
C172	C	1.180184	0.566181	1.050322
C173	C	0.664520	0.081834	0.449825
C174	C	1.164520	0.581834	0.949825
C175	C	0.617745	0.128592	0.399578
C176	C	1.117745	0.628592	0.899578
C177	C	0.586629	0.159696	0.449837
C178	C	1.086629	0.659696	0.949837
C179	C	0.726965	0.019425	0.600563
C180	C	1.226965	0.519425	1.100563
C181	C	0.758077	-0.011679	0.550312
C182	C	1.258077	0.488321	1.050312
C183	C	0.742412	0.003972	0.449812
C184	C	1.242412	0.503972	0.949812
C185	C	0.695636	0.050729	0.399566
C186	C	1.195636	0.550729	0.899566
C187	C	0.773527	-0.027133	0.399554
C188	C	1.273527	0.472867	0.899554
C189	C	0.757864	-0.011479	0.299056
C190	C	1.257864	0.488521	0.799056
C191	C	0.679973	0.066383	0.299068
C192	C	1.179973	0.566383	0.799068
H193	H	0.188065	0.112792	-0.244877
H194	H	0.688065	0.612792	0.255123
N195	N	-0.068261	0.098843	-0.175868
N196	N	0.431739	0.598843	0.324132
N197	N	-0.043628	0.142422	-0.195303
N198	N	0.456372	0.642422	0.304697
H199	H	-0.031993	0.152469	-0.258099
H200	H	0.468007	0.652469	0.241901
H201	H	0.416300	0.052069	0.157965
H202	H	0.916300	0.552069	0.657965
H203	H	0.548533	0.197767	0.408930
H204	H	1.048533	0.697767	0.908930
H205	H	0.526862	-0.352154	0.000004
H206	H	1.026862	0.147846	0.500004
N207	N	0.805850	-0.059447	0.601638
N208	N	1.305850	0.440553	1.101638
N209	N	0.803617	-0.110338	0.590427
N210	N	1.303617	0.389662	1.090427
H211	H	0.837356	-0.144077	0.626676
H212	H	1.337356	0.355923	1.126676
H213	H	0.580775	-0.193789	0.000094
H214	H	1.080775	0.306211	0.500094
N215	N	0.789649	-0.043288	0.247772
N216	N	1.289649	0.456712	0.747772
N217	N	0.816188	-0.016724	0.191680
N218	N	1.316188	0.483276	0.691680
H219	H	0.838642	-0.039205	0.155485
H220	H	1.338642	0.460795	0.655485
N221	N	0.571388	-0.078393	0.000091
N222	N	1.071388	0.421607	0.500091
N223	N	0.572038	-0.025362	0.000096
N224	N	1.072038	0.474638	0.500096
H225	H	0.534843	0.001186	0.000092
H226	H	1.034843	0.501186	0.500092
N227	N	0.523389	0.222906	0.549274
N228	N	1.023389	0.722906	1.049274
N229	N	0.495609	0.250672	0.594150
N230	N	0.995609	0.750672	1.094150
H231	H	0.461859	0.284402	0.557911
H232	H	0.961859	0.784402	1.057911
N233	N	0.781314	-0.107048	0.000143
N234	N	1.281314	0.392952	0.500143
N235	N	0.826479	-0.128916	0.067451
N236	N	1.326479	0.371084	0.567451
H237	H	0.864200	-0.112609	0.067477
H238	H	1.364200	0.387391	0.567477
H239	H	0.641877	0.104454	0.258162
H240	H	1.141877	0.604454	0.758162
N241	N	0.555058	0.191264	0.752407
N242	N	1.055058	0.691264	1.252407
N243	N	0.513293	0.233008	0.707535
N244	N	1.013293	0.733008	1.207535
H245	H	0.490839	0.255451	0.743776
H246	H	0.990839	0.755451	1.243776
H247	H	0.156618	0.035202	0.245005
H248	H	0.656618	0.535202	0.745005
H249	H	0.769191	-0.219480	0.000092
H250	H	1.269191	0.280520	0.500092
H251	H	0.604994	0.141338	0.317747
H252	H	1.104994	0.641338	0.817747
H253	H	0.367102	0.101246	-0.157857
H254	H	0.867102	0.601246	0.342143
N255	N	0.712524	0.033880	0.752417
N256	N	1.212524	0.533880	1.252417
N257	N	0.726508	0.019912	0.842147
N258	N	1.226508	0.519912	1.342147
H259	H	0.760259	-0.013813	0.878403
H260	H	1.260259	0.486187	1.378403
N261	N	0.828530	-0.507411	0.000094
N262	N	1.328530	-0.007411	0.500094
N263	N	0.873850	-0.515993	0.067406
N264	N	1.373850	-0.015993	0.567406
H265	H	0.911065	-0.542517	0.067429
H266	H	1.411065	-0.042517	0.567429
H267	H	0.739718	0.006684	0.682395
H268	H	1.239718	0.506684	1.182395
H269	H	0.819130	-0.392051	0.000091
H270	H	1.319130	0.107949	0.500091
H271	H	0.763933	-0.658193	0.000065
H272	H	1.263933	-0.158193	0.500065
H273	H	-0.179355	0.094658	-0.157821
H274	H	0.320645	0.594658	0.342179
H275	H	0.474868	0.102544	-0.157852
H276	H	0.974868	0.602544	0.342148
N277	N	0.821303	-0.074898	0.450881
N278	N	1.321303	0.425102	0.950881
N279	N	0.819076	-0.125791	0.439676
N280	N	1.319076	0.374209	0.939676
H281	H	0.852818	-0.159527	0.475926
H282	H	1.352818	0.340473	0.975926
H283	H	0.080321	0.111496	-0.244873
H284	H	0.580321	0.611496	0.255127
H285	H	0.524045	0.053380	0.157957
H286	H	1.024045	0.553380	0.657957
H287	H	0.264366	0.036499	0.245007
H288	H	0.764366	0.536499	0.745007
H289	H	-0.130168	0.045482	0.157986
H290	H	0.369832	0.545482	0.657986
N291	N	-0.013445	0.044069	0.176028
N292	N	0.486555	0.544069	0.676028
N293	N	-0.027870	0.031668	0.253728
N294	N	0.472130	0.531668	0.753728
H295	H	0.003325	0.022170	0.316524
H296	H	0.503325	0.522170	0.816524
H297	H	0.762635	-0.765957	0.000053
H298	H	1.262635	-0.265957	0.500053
H299	H	0.575513	-0.632487	0.000027
H300	H	1.075513	-0.132487	0.500027
H301	H	0.574226	-0.740238	0.000040
H302	H	1.074226	-0.240238	0.500040
N303	N	0.514730	-0.464581	-0.000002
N304	N	1.014730	0.035419	0.499998
N305	N	0.468696	-0.431720	-0.000018
N306	N	0.968696	0.068280	0.499982
H307	H	0.430969	-0.448016	-0.000035
H308	H	0.930969	0.051984	0.499965
