data_functionalizedCrystal
_audit_creation_method	'MofGen! by Chris Wilmer'
_symmetry_space_group_name_H-M	'P1'
_symmetry_Int_Tables_number	1
_symmetry_cell_setting	triclinic
loop_
_symmetry_equiv_pos_as_xyz
  x,y,z
_cell_length_a	12.594516
_cell_length_b	12.827893
_cell_length_c	12.827885
_cell_angle_alpha	89.980918
_cell_angle_beta	89.971946
_cell_angle_gamma	90.016214
loop_
_atom_site_label
_atom_site_type_symbol
_atom_site_fract_x
_atom_site_fract_y
_atom_site_fract_z
Zn1	Zn	-0.423686	1.597665	-0.590856
Zn2	Zn	0.076314	2.097665	-0.090856
Zn3	Zn	-0.601702	1.597557	-0.416122
Zn4	Zn	-0.101702	2.097557	0.083878
Zn5	Zn	-0.423738	1.422906	-0.416130
Zn6	Zn	0.076262	1.922906	0.083870
Zn7	Zn	-0.601623	1.422889	-0.590822
Zn8	Zn	-0.101623	1.922889	-0.090822
O9	O	-0.512687	1.510254	-0.503482
O10	O	-0.012687	2.010254	-0.003482
O11	O	-0.447311	1.743887	-0.567688
O12	O	0.052689	2.243887	-0.067688
O13	O	-0.578150	1.574351	-0.269887
O14	O	-0.078150	2.074351	0.230113
O15	O	-0.274786	1.446140	-0.439326
O16	O	0.225214	1.946140	0.060674
O17	O	-0.578099	1.743807	-0.439311
O18	O	-0.078099	2.243807	0.060689
O19	O	-0.274747	1.574535	-0.567696
O20	O	0.225253	2.074535	-0.067696
O21	O	-0.447400	1.446036	-0.269893
O22	O	0.052600	1.946036	0.230107
O23	O	-0.447324	1.276668	-0.439293
O24	O	0.052676	1.776668	0.060707
O25	O	-0.577965	1.446112	-0.737063
O26	O	-0.077965	1.946112	-0.237063
O27	O	-0.578016	1.276656	-0.567638
O28	O	-0.078016	1.776656	-0.067638
O29	O	-0.447235	1.574519	-0.737088
O30	O	0.052765	2.074519	-0.237088
O31	O	-0.750637	1.574335	-0.439278
O32	O	-0.250637	2.074335	0.060722
O33	O	-0.750580	1.446007	-0.567630
O34	O	-0.250580	1.946007	-0.067630
C35	C	-0.512668	1.238744	-0.503463
C36	C	-0.012668	1.738744	-0.003463
C37	C	-0.512685	1.122591	-0.503480
C38	C	-0.012685	1.622591	-0.003480
C39	C	-0.577473	0.950784	-0.566907
C40	C	-0.077473	1.450784	-0.066907
C41	C	-0.577456	1.070834	-0.566892
C42	C	-0.077456	1.570834	-0.066892
C43	C	-0.789228	1.510186	-0.503472
C44	C	-0.289228	2.010186	-0.003472
C45	C	-0.907534	1.510252	-0.503503
C46	C	-0.407534	2.010252	-0.003503
C47	C	-0.976794	1.440448	-0.573264
C48	C	-0.476794	1.940448	-0.073264
C49	C	-1.047663	1.414986	-0.477909
C50	C	-0.547663	1.914986	0.022091
C51	C	-1.047464	1.535809	-0.598874
C52	C	-0.547464	2.035809	-0.098874
C53	C	-0.976844	1.484740	-0.408097
C54	C	-0.476844	1.984740	0.091903
C55	C	-0.976639	1.605607	-0.529127
C56	C	-0.476639	2.105607	-0.029127
C57	C	-1.047476	1.580182	-0.433706
C58	C	-0.547476	2.080182	0.066294
C59	C	-0.235067	1.510352	-0.503516
C60	C	0.264933	2.010352	-0.003516
C61	C	-0.116761	1.510393	-0.503530
C62	C	0.383239	2.010393	-0.003530
C63	C	-0.512585	1.510325	-0.776053
C64	C	-0.012585	2.010325	-0.276053
C65	C	-0.512542	1.510356	-0.892206
C66	C	-0.012542	2.010356	-0.392206
C67	C	-0.512708	1.782824	-0.503502
C68	C	-0.012708	2.282824	-0.003502
C69	C	-0.512717	1.898978	-0.503510
C70	C	-0.012717	2.398978	-0.003510
C71	C	-0.447840	1.573902	-0.944003
C72	C	0.052160	2.073902	-0.444003
C73	C	-0.447793	1.573935	-1.064053
C74	C	0.052207	2.073935	-0.564053
C75	C	-0.512712	1.510244	-0.231973
C76	C	-0.012712	2.010244	0.268027
C77	C	-0.512456	1.510416	-0.115820
C78	C	-0.012456	2.010416	0.384180
H79	H	-0.457238	1.078046	-0.449205
H80	H	0.042762	1.578046	0.050795
H81	H	-0.567857	1.456012	-1.071282
H82	H	-0.067857	1.956012	-0.571282
Cl83	Cl	-0.663108	0.882052	-0.650712
Cl84	Cl	-0.163108	1.382052	-0.150712
Cl85	Cl	-1.095093	1.671417	-0.342540
Cl86	Cl	-0.595093	2.171417	0.157460
H87	H	-0.945758	1.381312	-0.632173
H88	H	-0.445758	1.881312	-0.132173
Cl89	Cl	-0.598011	1.426386	-0.960950
Cl90	Cl	-0.098011	1.926386	-0.460950
Cl91	Cl	-0.427104	0.967710	-0.419684
Cl92	Cl	0.072896	1.467710	0.080316
Cl93	Cl	-1.095826	1.290580	-0.444453
Cl94	Cl	-0.595826	1.790580	0.055547
Cl95	Cl	-0.362271	1.657942	-1.132820
Cl96	Cl	0.137729	2.157942	-0.632820
H97	H	-0.392477	1.628279	-0.899472
H98	H	0.107523	2.128279	-0.399472
H99	H	-0.632891	1.115386	-0.621173
H100	H	-0.132891	1.615386	-0.121173
H101	H	-0.945422	1.686164	-0.550823
H102	H	-0.445422	2.186164	-0.050823
Cl103	Cl	-1.095363	1.569095	-0.723379
Cl104	Cl	-0.595363	2.069095	-0.223379
Cl105	Cl	-0.929155	1.451311	-0.283553
Cl106	Cl	-0.429155	1.951311	0.216447
