data_functionalizedCrystal
_audit_creation_method	'MofGen! by Chris Wilmer'
_symmetry_space_group_name_H-M	'P1'
_symmetry_Int_Tables_number	1
_symmetry_cell_setting	triclinic
loop_
_symmetry_equiv_pos_as_xyz
  x,y,z
_cell_length_a	17.639181
_cell_length_b	17.640280
_cell_length_c	18.215399
_cell_angle_alpha	101.224603
_cell_angle_beta	78.794169
_cell_angle_gamma	70.392638
loop_
_atom_site_label
_atom_site_type_symbol
_atom_site_fract_x
_atom_site_fract_y
_atom_site_fract_z
Zn1	Zn	1.326088	-0.582493	0.056512
Zn2	Zn	1.826088	-0.082493	0.556512
Zn3	Zn	1.353873	-0.720282	-0.097698
Zn4	Zn	1.853873	-0.220282	0.402302
Zn5	Zn	1.188300	-0.554690	-0.035327
Zn6	Zn	1.688300	-0.054690	0.464673
Zn7	Zn	1.216134	-0.692419	0.056543
Zn8	Zn	1.716134	-0.192419	0.556543
O9	O	1.271099	-0.637471	-0.004993
O10	O	1.771099	-0.137471	0.495007
O11	O	1.445083	-0.624068	0.009940
O12	O	1.945083	-0.124068	0.509940
O13	O	1.331888	-0.698341	-0.192409
O14	O	1.831888	-0.198341	0.307591
O15	O	1.183301	-0.443073	0.002945
O16	O	1.683301	0.056927	0.502945
O17	O	1.465496	-0.725301	-0.103357
O18	O	1.965496	-0.225301	0.396643
O19	O	1.284533	-0.463500	0.070418
O20	O	1.784533	0.036500	0.570418
O21	O	1.210242	-0.576681	-0.146586
O22	O	1.710242	-0.076681	0.353414
O23	O	1.076683	-0.549663	0.002975
O24	O	1.576683	-0.049663	0.502975
O25	O	1.230740	-0.677812	0.159524
O26	O	1.730740	-0.177812	0.659524
O27	O	1.097133	-0.650852	0.070471
O28	O	1.597133	-0.150852	0.570471
O29	O	1.311523	-0.597050	0.159501
O30	O	1.811523	-0.097050	0.659501
O31	O	1.358878	-0.831892	-0.103327
O32	O	1.858878	-0.331892	0.396673
O33	O	1.257682	-0.811421	0.009993
O34	O	1.757682	-0.311421	0.509993
C35	C	1.057010	-0.594218	0.043495
C36	C	1.557010	-0.094218	0.543495
C37	C	0.965425	-0.575733	0.064251
C38	C	1.465425	-0.075733	0.564251
C39	C	0.717305	-0.778076	-0.162707
C40	C	1.217305	-0.278076	0.337293
C41	C	0.631246	-0.760697	-0.143195
C42	C	1.131246	-0.260697	0.356805
C43	C	0.610023	-0.655453	-0.025117
C44	C	1.110023	-0.155453	0.474883
C45	C	0.696082	-0.672821	-0.044621
C46	C	1.196082	-0.172821	0.455379
C47	C	0.749717	-0.734134	-0.113417
C48	C	1.249717	-0.234134	0.386583
C49	C	0.728493	-0.628879	0.004669
C50	C	1.228493	-0.128879	0.504669
C51	C	0.814545	-0.646249	-0.014833
C52	C	1.314545	-0.146249	0.485167
C53	C	0.868186	-0.707561	-0.083624
C54	C	1.368186	-0.207561	0.416376
C55	C	0.835769	-0.751504	-0.132918
C56	C	1.335769	-0.251504	0.367082
C57	C	0.674857	-0.567570	0.073467
C58	C	1.174857	-0.067570	0.573467
C59	C	0.707269	-0.523628	0.122757
C60	C	1.207269	-0.023628	0.622757
C61	C	0.793321	-0.540993	0.103253
C62	C	1.293321	-0.040993	0.603253
C63	C	0.846962	-0.602306	0.034462
C64	C	1.346962	-0.102306	0.534462
C65	C	0.825738	-0.497050	0.152548
C66	C	1.325738	0.002950	0.652548
C67	C	0.911790	-0.514420	0.133047
C68	C	1.411790	-0.014420	0.633047
C69	C	0.933014	-0.619676	0.014961
C70	C	1.433014	-0.119676	0.514961
C71	C	1.314338	-0.851558	-0.053421
C72	C	1.814338	-0.351558	0.446579
C73	C	1.332912	-0.943160	-0.074131
C74	C	1.832912	-0.443160	0.425869
C75	C	1.130336	-1.191231	0.152531
C76	C	1.630336	-0.691231	0.652531
C77	C	1.147790	-1.277306	0.133047
C78	C	1.647790	-0.777306	0.633047
C79	C	1.253231	-1.298570	0.015127
C80	C	1.753231	-0.798570	0.515127
C81	C	1.235789	-1.212496	0.034603
C82	C	1.735789	-0.712496	0.534603
C83	C	1.174340	-1.158832	0.103306
C84	C	1.674340	-0.658832	0.603306
C85	C	1.279792	-1.180097	-0.014622
C86	C	1.779792	-0.680097	0.485378
C87	C	1.262348	-1.094030	0.004851
C88	C	1.762348	-0.594030	0.504851
C89	C	1.200900	-1.040361	0.073549
C90	C	1.700900	-0.540361	0.573549
C91	C	1.156895	-1.072765	0.122779
C92	C	1.656895	-0.572765	0.622779
C93	C	1.341237	-1.233761	-0.083327
C94	C	1.841237	-0.733761	0.416673
C95	C	1.385240	-1.201363	-0.132552
C96	C	1.885240	-0.701363	0.367448
C97	C	1.367800	-1.115295	-0.113077
C98	C	1.867800	-0.615295	0.386923
C99	C	1.306353	-1.061626	-0.044378
C100	C	1.806353	-0.561626	0.455622
C101	C	1.411805	-1.082891	-0.162306
C102	C	1.911805	-0.582891	0.337694
C103	C	1.394361	-0.996824	-0.142833
C104	C	1.894361	-0.496824	0.357167
C105	C	1.288908	-0.975559	-0.024906
C106	C	1.788908	-0.475559	0.475094
C107	C	1.486024	-0.680894	-0.053669
C108	C	1.986024	-0.180894	0.446331
C109	C	1.577612	-0.699398	-0.074412
C110	C	2.077612	-0.199398	0.425588
C111	C	1.271137	-0.637425	0.186962
C112	C	1.771137	-0.137425	0.686962
C113	C	1.271154	-0.637405	0.268761
C114	C	1.771154	-0.137405	0.768761
C115	C	1.227713	-0.422553	0.043635
C116	C	1.727713	0.077447	0.543635
C117	C	1.209224	-0.330968	0.064358
C118	C	1.709224	0.169032	0.564358
C119	C	1.271095	-0.637468	-0.196198
C120	C	1.771095	-0.137468	0.303802
C121	C	1.271192	-0.637288	-0.277981
C122	C	1.771192	-0.137288	0.222019
C123	C	1.313226	-0.595306	0.456951
C124	C	1.813226	-0.095306	0.956951
C125	C	1.313231	-0.595284	0.533813
C126	C	1.813231	-0.095284	1.033813
C127	C	1.229114	-0.679387	0.533825
C128	C	1.729114	-0.179387	1.033825
C129	C	1.229104	-0.679404	0.456966
C130	C	1.729104	-0.179404	0.956966
C131	C	1.271166	-0.637365	0.418530
C132	C	1.771166	-0.137365	0.918530
C133	C	1.271180	-0.637327	0.572251
C134	C	1.771180	-0.137327	1.072251
C135	C	1.271185	-0.637303	0.655588
C136	C	1.771185	-0.137303	1.155588
C137	C	1.271159	-0.637388	0.335188
C138	C	1.771159	-0.137388	0.835188
H139	H	0.879441	-0.801427	-0.188942
H140	H	1.379441	-0.301427	0.311058
Br141	Br	0.790105	-0.861291	-0.256072
Br142	Br	1.290105	-0.361291	0.243928
H143	H	0.604862	-0.796486	-0.183337
H144	H	1.104862	-0.296486	0.316663
H145	H	0.938253	-0.721696	-0.099505
H146	H	1.438253	-0.221696	0.400495
H147	H	1.194847	-0.713651	0.425684
H148	H	1.694847	-0.213651	0.925684
H149	H	0.938179	-0.478636	0.173182
H150	H	1.438179	0.021364	0.673182
H151	H	1.347473	-0.561073	0.425660
H152	H	1.847473	-0.061073	0.925660
H153	H	0.604789	-0.553432	0.089344
H154	H	1.104789	-0.053432	0.589344
Br155	Br	1.454069	-0.952847	-0.209646
Br156	Br	1.954069	-0.452847	0.290354
Br157	Br	1.205522	-0.902724	0.068342
Br158	Br	1.705522	-0.402724	0.568342
H159	H	0.566342	-0.605534	0.030898
H160	H	1.066342	-0.105534	0.530898
Br161	Br	1.073510	-0.999930	0.216026
Br162	Br	1.573510	-0.499930	0.716026
Br163	Br	1.046950	-1.118396	0.245778
Br164	Br	1.546950	-0.618396	0.745778
Br165	Br	0.634473	-0.440426	0.216123
Br166	Br	1.134473	0.059574	0.716123
Br167	Br	1.495189	-1.155727	-0.255546
Br168	Br	1.995189	-0.655727	0.244454
Br169	Br	1.088051	-1.321269	0.199852
Br170	Br	1.588051	-0.821269	0.699852
Br171	Br	1.005813	-0.702890	-0.078404
Br172	Br	1.505813	-0.202890	0.421596
Br173	Br	1.336624	-1.371405	-0.078108
Br174	Br	1.836624	-0.871405	0.421892
Br175	Br	0.752942	-0.413856	0.245918
Br176	Br	1.252942	0.086144	0.745918
H177	H	1.186692	-0.970279	0.089399
H178	H	1.686692	-0.470279	0.589399
Br179	Br	1.468633	-1.274198	-0.225787
Br180	Br	1.968633	-0.774198	0.274213
H181	H	1.355440	-1.303843	-0.099178
H182	H	1.855440	-0.803843	0.400822
H183	H	1.194871	-0.713615	0.565128
H184	H	1.694871	-0.213615	1.065128
H185	H	1.347480	-0.561034	0.565093
H186	H	1.847480	-0.061034	1.065093
