data_functionalizedCrystal
_audit_creation_method	'MofGen! by Chris Wilmer'
_symmetry_space_group_name_H-M	'P1'
_symmetry_Int_Tables_number	1
_symmetry_cell_setting	triclinic
loop_
_symmetry_equiv_pos_as_xyz
  x,y,z
_cell_length_a	12.759401
_cell_length_b	12.759399
_cell_length_c	12.759393
_cell_angle_alpha	89.973195
_cell_angle_beta	90.020938
_cell_angle_gamma	89.984225
loop_
_atom_site_label
_atom_site_type_symbol
_atom_site_fract_x
_atom_site_fract_y
_atom_site_fract_z
Zn1	Zn	1.606270	0.418173	0.594047
Zn2	Zn	1.606162	0.593888	0.418379
Zn3	Zn	1.430568	0.418229	0.418382
Zn4	Zn	1.430562	0.593815	0.594016
O5	O	1.518390	0.506026	0.506206
O6	O	1.753276	0.441489	0.570756
O7	O	1.582827	0.570641	0.271358
O8	O	1.453923	0.271200	0.441699
O9	O	1.753197	0.570587	0.441693
O10	O	1.583010	0.271159	0.570759
O11	O	1.453819	0.441584	0.271361
O12	O	1.283546	0.441513	0.441669
O13	O	1.453912	0.570461	0.741041
O14	O	1.283542	0.570516	0.570706
O15	O	1.583004	0.441418	0.741064
O16	O	1.582821	0.740900	0.441662
O17	O	1.453808	0.740846	0.570702
C18	C	1.245423	0.506013	0.506185
C19	C	1.128646	0.506033	0.506201
C20	C	1.073809	0.573307	0.573285
C21	C	0.964085	0.573311	0.573306
C22	C	0.964045	0.438764	0.439150
C23	C	1.073767	0.438756	0.439135
C24	C	1.518330	0.778994	0.506202
C25	C	1.518401	0.895770	0.506235
C26	C	1.585655	0.950625	0.439124
C27	C	1.585724	1.060349	0.439167
C28	C	1.451275	1.060353	0.573435
C29	C	1.451212	0.950631	0.573396
C30	C	1.792424	0.506040	0.506227
C31	C	1.909200	0.506046	0.506237
C32	C	1.518483	1.231993	0.506251
C33	C	1.518533	1.115216	0.506317
C34	C	1.518469	0.505925	0.780239
C35	C	1.518503	0.505882	0.897016
C36	C	1.518373	0.506051	0.233239
C37	C	1.518543	0.505798	0.116462
C38	C	1.585726	0.438679	0.951892
C39	C	1.585743	0.438633	1.061616
C40	C	1.451312	0.573004	1.061579
C41	C	1.451290	0.573044	0.951857
H42	H	0.919349	0.383991	0.384545
F43	F	1.132132	0.367144	0.367737
F44	F	1.657164	0.892241	0.367647
H45	H	1.640491	1.105007	0.384520
H46	H	1.640452	0.383989	0.907244
H47	H	1.396445	0.905965	0.628051
F48	F	1.379787	0.644482	1.119954
H49	H	1.396541	0.627768	0.907176
F50	F	1.379771	1.118750	0.644906
H51	H	1.640482	0.383908	1.106291
H52	H	1.118489	0.628086	0.627897
H53	H	0.919442	0.628090	0.627934
