data_functionalizedCrystal
_audit_creation_method	'MofGen! by Chris Wilmer'
_symmetry_space_group_name_H-M	'P1'
_symmetry_Int_Tables_number	1
_symmetry_cell_setting	triclinic
loop_
_symmetry_equiv_pos_as_xyz
  x,y,z
_cell_length_a	19.188930
_cell_length_b	17.038272
_cell_length_c	15.500227
_cell_angle_alpha	86.956295
_cell_angle_beta	87.186616
_cell_angle_gamma	92.871831
loop_
_atom_site_label
_atom_site_type_symbol
_atom_site_fract_x
_atom_site_fract_y
_atom_site_fract_z
O1	O	0.148564	-1.040536	0.071852
O2	O	0.648564	-0.540536	0.571852
O3	O	0.146156	-0.812914	0.071877
O4	O	0.646156	-0.312914	0.571877
O5	O	0.046114	-0.933292	0.071847
O6	O	0.546114	-0.433292	0.571847
O7	O	0.248607	-0.920157	0.071882
O8	O	0.748607	-0.420157	0.571882
O9	O	0.052159	-0.925988	-0.072040
O10	O	0.552159	-0.425988	0.427960
O11	O	0.152202	-0.805609	-0.072009
O12	O	0.652202	-0.305609	0.427991
O13	O	0.154610	-1.033231	-0.072035
O14	O	0.654610	-0.533231	0.427965
Cu15	Cu	0.153958	-0.918753	-0.085160
Cu16	Cu	0.653958	-0.418753	0.414840
Cu17	Cu	0.146808	-0.927392	0.085003
Cu18	Cu	0.646808	-0.427392	0.585003
O19	O	0.254653	-0.912852	-0.072004
O20	O	0.754653	-0.412852	0.427996
C21	C	0.023099	-0.929214	-0.000099
C22	C	0.523099	-0.429214	0.499901
C23	C	-0.054485	-0.927937	-0.000106
C24	C	0.445515	-0.427937	0.499894
C25	C	0.146990	-0.780140	-0.000063
C26	C	0.646990	-0.280140	0.499937
C27	C	0.140458	-0.693368	-0.000054
C28	C	0.640458	-0.193368	0.499946
C29	C	0.153776	-1.066004	-0.000092
C30	C	0.653776	-0.566004	0.499908
C31	C	0.160308	-1.152777	-0.000095
C32	C	0.660308	-0.652777	0.499905
C33	C	-0.095020	-0.998572	-0.000118
C34	C	0.404980	-0.498572	0.499882
C35	C	-0.167919	-0.997373	-0.000104
C36	C	0.332081	-0.497373	0.499896
C37	C	-0.200279	-0.925534	-0.000095
C38	C	0.299721	-0.425534	0.499905
C39	C	-0.159734	-0.854890	-0.000079
C40	C	0.340266	-0.354890	0.499921
C41	C	-0.086837	-0.856092	-0.000084
C42	C	0.413163	-0.356092	0.499916
N43	N	-0.309638	-0.868136	-0.049057
N44	N	0.190362	-0.368136	0.450943
N45	N	-0.378887	-0.866999	-0.049053
N46	N	0.121113	-0.366999	0.450947
C47	C	-0.419913	-0.921909	-0.000077
C48	C	0.080087	-0.421909	0.499923
N49	N	-0.389074	-0.978011	0.048884
N50	N	0.110926	-0.478011	0.548884
N51	N	-0.319818	-0.979150	0.048877
N52	N	0.180182	-0.479150	0.548877
C53	C	-0.279323	-0.924223	-0.000089
C54	C	0.220677	-0.424223	0.499911
C55	C	-0.539494	-0.991249	-0.000073
C56	C	-0.039494	-0.491249	0.499927
C57	C	-0.612395	-0.990047	-0.000054
C58	C	-0.112395	-0.490047	0.499946
C59	C	-0.604208	-0.847562	-0.000037
C60	C	-0.104208	-0.347562	0.499963
C61	C	-0.531310	-0.848767	-0.000048
C62	C	-0.031310	-0.348767	0.499952
C63	C	-0.498957	-0.920612	-0.000070
C64	C	0.001043	-0.420612	0.499930
C65	C	0.277667	-0.916930	-0.000057
C66	C	0.777667	-0.416930	0.499943
C67	C	0.355250	-0.918208	-0.000044
C68	C	0.855250	-0.418208	0.499956
C69	C	0.200424	-0.643067	-0.000044
C70	C	0.700424	-0.143067	0.499956
C71	C	0.194283	-0.561535	-0.000057
C72	C	0.694283	-0.061535	0.499943
C73	C	0.128176	-0.530306	-0.000074
C74	C	0.628176	-0.030306	0.499926
C75	C	0.068205	-0.580613	-0.000086
C76	C	0.568205	-0.080613	0.499914
C77	C	0.074347	-0.662143	-0.000080
C78	C	0.574347	-0.162143	0.499920
C79	C	0.106479	-0.284614	-0.000101
C80	C	0.606479	0.215386	0.499899
C81	C	0.100342	-0.203078	-0.000105
C82	C	0.600342	0.296922	0.499895
C83	C	0.226421	-0.184005	-0.000078
C84	C	0.726421	0.315995	0.499922
C85	C	0.232556	-0.265538	-0.000066
C86	C	0.732556	0.234462	0.499934
C87	C	0.172586	-0.315838	-0.000083
C88	C	0.672586	0.184162	0.499917
C89	C	0.121897	-0.446967	-0.000085
C90	C	0.621897	0.053033	0.499915
C91	C	0.178865	-0.399174	-0.000078
C92	C	0.678865	0.100826	0.499922
N93	N	0.158986	-0.912682	-0.204843
N94	N	0.658986	-0.412682	0.295157
C95	C	0.116612	-0.963709	-0.250133
C96	C	0.616612	-0.463709	0.249867
C97	C	0.120422	-0.959125	-0.340705
C98	C	0.620422	-0.459125	0.159295
C99	C	0.166610	-0.903518	-0.385985
C100	C	0.666610	-0.403518	0.114015
C101	C	0.208985	-0.852486	-0.340689
C102	C	0.708985	-0.352486	0.159311
C103	C	0.205171	-0.857067	-0.250119
C104	C	0.705171	-0.357067	0.249881
C105	C	0.180337	-0.887017	-0.659448
C106	C	0.680337	-0.387017	-0.159448
C107	C	0.184149	-0.882442	-0.750024
C108	C	0.684149	-0.382442	-0.250024
C109	C	0.095584	-0.989080	-0.750033
C110	C	0.595584	-0.489080	-0.250033
C111	C	0.091778	-0.993659	-0.659461
C112	C	0.591778	-0.493659	-0.159461
C113	C	0.134150	-0.942624	-0.614174
C114	C	0.634150	-0.442624	-0.114174
C115	C	0.170506	-0.898833	-0.478564
C116	C	0.670506	-0.398833	0.021436
C117	C	0.130250	-0.947306	-0.521596
C118	C	0.630250	-0.447306	-0.021596
N119	N	0.141775	-0.933468	0.204686
N120	N	0.641775	-0.433468	0.704686
H121	H	-0.068683	-1.057074	-0.000133
H122	H	0.431317	-0.557074	0.499867
H123	H	0.025516	-0.703099	-0.000087
H124	H	0.525516	-0.203099	0.499913
H125	H	-0.200929	-1.054894	-0.000110
H126	H	0.299071	-0.554894	0.499890
H127	H	-0.630555	-0.789070	-0.000026
H128	H	-0.130555	-0.289070	0.499974
O129	O	0.252518	-0.512630	-0.000192
O130	O	0.752518	-0.012630	0.499808
C131	C	0.255868	-0.461112	-0.074704
C132	C	0.755868	0.038888	0.425296
H133	H	0.224144	-0.488459	-0.126801
H134	H	0.724144	0.011541	0.373199
H135	H	0.312606	-0.450481	-0.099696
H136	H	0.812606	0.049519	0.400304
H137	H	0.233566	-0.402739	-0.057867
H138	H	0.733566	0.097261	0.442133
O139	O	-0.491850	-0.780197	-0.000160
O140	O	0.008150	-0.280197	0.499840
C141	C	-0.446331	-0.772836	-0.074694
C142	C	0.053669	-0.272836	0.425306
H143	H	-0.437925	-0.833608	-0.099548
H144	H	0.062075	-0.333608	0.400452
H145	H	-0.394039	-0.744384	-0.057933
H146	H	0.105961	-0.244384	0.442067
H147	H	-0.470220	-0.734566	-0.126869
H148	H	0.029780	-0.234566	0.373131
O149	O	0.264697	-0.673267	-0.000066
O150	O	0.764697	-0.173267	0.499934
C151	C	0.316305	-0.611383	-0.000039
C152	C	0.816305	-0.111383	0.499961
H153	H	0.294591	-0.554684	-0.027289
H154	H	0.794591	-0.054684	0.472711
H155	H	0.363924	-0.626153	-0.041804
H156	H	0.863924	-0.126153	0.458196
H157	H	0.332134	-0.603273	0.068993
H158	H	0.832134	-0.103273	0.568993
O159	O	0.085321	-1.001205	-0.477537
O160	O	0.585321	-0.501205	0.022463
C161	C	0.037532	-0.962116	-0.425209
C162	C	0.537532	-0.462116	0.074791
H163	H	0.061117	-0.901551	-0.411632
H164	H	0.561117	-0.401551	0.088368
H165	H	0.025730	-0.997995	-0.361521
H166	H	0.525730	-0.497995	0.138479
H167	H	-0.012892	-0.955194	-0.460157
H168	H	0.487108	-0.455194	0.039843
O169	O	0.215282	-0.844786	-0.522650
O170	O	0.715282	-0.344786	-0.022650
C171	C	0.177209	-0.794034	-0.575041
C172	C	0.677209	-0.294034	-0.075041
H173	H	0.125018	-0.824668	-0.588608
H174	H	0.625018	-0.324668	-0.088608
H175	H	0.208279	-0.778355	-0.638729
H176	H	0.708279	-0.278355	-0.138729
H177	H	0.167543	-0.738041	-0.540151
H178	H	0.667543	-0.238041	-0.040151
O179	O	0.296828	-0.295739	-0.000093
O180	O	0.796828	0.204261	0.499907
C181	C	0.348440	-0.233858	-0.000066
C182	C	0.848440	0.266142	0.499934
H183	H	0.326728	-0.177157	-0.027315
H184	H	0.826728	0.322843	0.472685
H185	H	0.396058	-0.248630	-0.041830
H186	H	0.896058	0.251370	0.458170
H187	H	0.364269	-0.225749	0.068967
H188	H	0.864269	0.274251	0.568967
O189	O	0.243113	-0.429419	0.000055
O190	O	0.743113	0.070581	0.500055
C191	C	0.276819	-0.407487	0.074596
C192	C	0.776819	0.092513	0.574596
H193	H	0.253395	-0.352258	0.099431
H194	H	0.753395	0.147742	0.599431
H195	H	0.334984	-0.395129	0.057854
H196	H	0.834984	0.104871	0.557854
H197	H	0.269335	-0.457338	0.126779
H198	H	0.769335	0.042662	0.626779
H199	H	0.246590	-0.807206	-0.377562
H200	H	0.746590	-0.307206	0.122438
H201	H	0.239676	-0.815515	-0.213246
H202	H	0.739676	-0.315515	0.286754
O203	O	0.003978	-0.550311	-0.000254
O204	O	0.503978	-0.050311	0.499746
C205	C	-0.029747	-0.572279	-0.074768
C206	C	0.470253	-0.072279	0.425232
H207	H	0.011014	-0.586470	-0.126848
H208	H	0.511014	-0.086470	0.373152
H209	H	-0.061331	-0.521723	-0.099788
H210	H	0.438669	-0.021723	0.400212
H211	H	-0.066194	-0.626406	-0.057925
H212	H	0.433806	-0.126406	0.442075
O213	O	0.079366	-1.008721	-0.384798
O214	O	0.579366	-0.508721	0.115202
C215	C	0.121852	-1.054170	-0.437154
C216	C	0.621852	-0.554170	0.062846
H217	H	0.175179	-1.022156	-0.450705
H218	H	0.675179	-0.522156	0.049295
H219	H	0.096141	-1.063415	-0.500852
H220	H	0.596141	-0.563415	-0.000852
H221	H	0.128591	-1.113689	-0.402243
H222	H	0.628591	-0.613689	0.097757
H223	H	0.275245	-0.143042	-0.000066
H224	H	0.775245	0.356958	0.499934
O225	O	-0.191140	-0.785094	0.000082
O226	O	0.308860	-0.285094	0.500082
C227	C	-0.173946	-0.745826	0.074598
C228	C	0.326054	-0.245826	0.574598
H229	H	-0.158481	-0.790485	0.126676
H230	H	0.341519	-0.290485	0.626676
H231	H	-0.221078	-0.713993	0.099619
H232	H	0.278922	-0.213993	0.599619
H233	H	-0.128376	-0.701247	0.057756
H234	H	0.371624	-0.201247	0.557756
O235	O	-0.047434	-0.787502	0.000076
O236	O	0.452566	-0.287502	0.500076
C237	C	-0.008126	-0.787728	0.074580
C238	C	0.491874	-0.287728	0.574580
H239	H	-0.034595	-0.830437	0.126663
H240	H	0.465405	-0.330437	0.626663
H241	H	-0.004725	-0.726004	0.099603
H242	H	0.495275	-0.226004	0.599603
H243	H	0.046726	-0.806923	0.057721
H244	H	0.546726	-0.306923	0.557721
O245	O	0.036070	-0.172869	-0.000159
O246	O	0.536070	0.327131	0.499841
C247	C	-0.015547	-0.234749	-0.000149
C248	C	0.484453	0.265251	0.499851
H249	H	0.008452	-0.288691	-0.027388
H250	H	0.508452	0.211309	0.472612
H251	H	-0.059653	-0.215741	-0.041931
H252	H	0.440347	0.284259	0.458069
H253	H	-0.037178	-0.249851	0.068877
H254	H	0.462822	0.250149	0.568877
H255	H	0.054168	-1.038938	-0.622596
H256	H	0.554168	-0.538938	-0.122596
O257	O	-0.651879	-1.058596	-0.000022
O258	O	-0.151879	-0.558596	0.499978
C259	C	-0.723157	-1.042131	-0.000027
C260	C	-0.223157	-0.542131	0.499973
H261	H	-0.730735	-0.982127	0.027226
H262	H	-0.230735	-0.482127	0.527226
H263	H	-0.755221	-1.089295	0.041744
H264	H	-0.255221	-0.589295	0.541744
H265	H	-0.741154	-1.041660	-0.069054
H266	H	-0.241154	-0.541660	0.430946
H267	H	0.057647	-0.325559	-0.000115
H268	H	0.557647	0.174441	0.499885
H269	H	-0.513151	-1.049750	-0.000087
H270	H	-0.013151	-0.549750	0.499913
H271	H	0.068073	-0.421530	-0.000123
H272	H	0.568073	0.078470	0.499877
H273	H	0.079004	-1.008993	-0.213271
H274	H	0.579004	-0.508993	0.286729
H275	H	0.061085	-1.030629	-0.786915
H276	H	0.561085	-0.530629	-0.286915
O277	O	0.228933	-0.828311	-0.793977
O278	O	0.728933	-0.328311	-0.293977
C279	C	0.212019	-0.752095	-0.771852
C280	C	0.712019	-0.252095	-0.271852
H281	H	0.155061	-0.753174	-0.746965
H282	H	0.655061	-0.253174	-0.246965
H283	H	0.220194	-0.709832	-0.831424
H284	H	0.720194	-0.209832	-0.331424
H285	H	0.247123	-0.731647	-0.719280
H286	H	0.747123	-0.231647	-0.219280
H287	H	0.214840	-0.845464	-0.622582
H288	H	0.714840	-0.345464	-0.122582
