data_functionalizedCrystal
_audit_creation_method	'MofGen! by Chris Wilmer'
_symmetry_space_group_name_H-M	'P1'
_symmetry_Int_Tables_number	1
_symmetry_cell_setting	triclinic
loop_
_symmetry_equiv_pos_as_xyz
  x,y,z
_cell_length_a	14.044220
_cell_length_b	12.503572
_cell_length_c	12.837942
_cell_angle_alpha	93.896304
_cell_angle_beta	85.991091
_cell_angle_gamma	93.835250
loop_
_atom_site_label
_atom_site_type_symbol
_atom_site_fract_x
_atom_site_fract_y
_atom_site_fract_z
O1	O	1.285429	0.089203	-0.246491
O2	O	1.785429	0.589203	0.253509
O3	O	1.008640	0.089230	-0.237395
O4	O	1.508640	0.589230	0.262605
O5	O	1.140897	0.089211	-0.090473
O6	O	1.640897	0.589211	0.409527
O7	O	1.153173	0.089223	-0.393413
O8	O	1.653173	0.589223	0.106587
O9	O	1.130952	-0.089430	-0.101542
O10	O	1.630952	0.410570	0.398458
O11	O	0.998696	-0.089410	-0.248464
O12	O	1.498696	0.410590	0.251536
O13	O	1.275485	-0.089437	-0.257560
O14	O	1.775485	0.410563	0.242440
Cu15	Cu	1.136182	-0.105735	-0.254023
Cu16	Cu	1.636182	0.394265	0.245977
Cu17	Cu	1.147943	0.105528	-0.240932
Cu18	Cu	1.647943	0.605528	0.259068
O19	O	1.143228	-0.089418	-0.404482
O20	O	1.643228	0.410582	0.095518
C21	C	0.967994	-0.000086	-0.238948
C22	C	1.467994	0.499914	0.261052
C23	C	0.861696	-0.000076	-0.227074
C24	C	1.361696	0.499924	0.272926
C25	C	0.667073	-0.000098	-0.205366
C26	C	1.167073	0.499902	0.294634
C27	C	0.617047	-0.000099	-0.289583
C28	C	1.117047	0.499901	0.210417
C29	C	0.508751	-0.000112	-0.277505
C30	C	1.008751	0.499888	0.222495
C31	C	0.775378	-0.000086	-0.217443
C32	C	1.275378	0.499914	0.282557
N33	N	1.127917	-0.254326	-0.263230
N34	N	1.627917	0.245674	0.236770
C35	C	1.115760	-0.473439	-0.276784
C36	C	1.615760	0.026561	0.223216
C37	C	1.168369	-0.526774	-0.218167
C38	C	1.668369	-0.026774	0.281833
C39	C	1.161605	-0.648697	-0.225708
C40	C	1.661605	-0.148697	0.274292
C41	C	1.122523	-0.351506	-0.269244
C42	C	1.622523	0.148494	0.230756
C43	C	1.316131	-0.000118	-0.256006
C44	C	1.816131	0.499882	0.243994
C45	C	1.422429	-0.000121	-0.267881
C46	C	1.922429	0.499879	0.232119
C47	C	1.131778	-0.000108	-0.057003
C48	C	1.631778	0.499892	0.442997
C49	C	1.119411	-0.000105	0.059217
C50	C	1.619411	0.499895	0.559217
N51	N	1.156215	0.254119	-0.231717
N52	N	1.656215	0.754119	0.268283
C53	C	1.152347	-0.000096	-0.437951
C54	C	1.652347	0.499904	0.062049
C55	C	1.164715	-0.000092	-0.554172
C56	C	1.664715	0.499908	-0.054172
C57	C	1.268090	-0.000098	0.286428
C58	C	1.768090	0.499902	0.786428
C59	C	1.256475	-0.000095	0.395628
C60	C	1.756475	0.499905	0.895628
C61	C	1.084565	-0.000089	0.386820
C62	C	1.584565	0.499911	0.886820
C63	C	1.096181	-0.000092	0.277620
C64	C	1.596181	0.499908	0.777620
C65	C	1.187946	-0.000098	0.227428
C66	C	1.687946	0.499902	0.727428
C67	C	1.199561	-0.000108	0.118225
C68	C	1.699561	0.499892	0.618225
C69	C	1.027652	-0.000095	0.109420
C70	C	1.527652	0.499905	0.609420
C71	C	1.016036	-0.000092	0.218620
C72	C	1.516036	0.499908	0.718620
H73	H	0.628572	-0.000107	-0.124201
H74	H	1.128572	0.499893	0.375799
H75	H	1.065643	-0.519339	-0.332627
H76	H	1.565643	-0.019339	0.167373
H77	H	0.962392	-0.000104	0.061370
H78	H	1.462392	0.499896	0.561370
H79	H	0.941324	-0.000083	0.259502
H80	H	1.441324	0.499917	0.759502
O81	O	1.298534	-0.000112	0.064091
O82	O	1.798534	0.499888	0.564091
H83	H	1.293150	-0.000124	-0.021757
H84	H	1.793150	0.499876	0.478243
O85	O	1.367059	-0.000103	0.232281
O86	O	1.867059	0.499897	0.732281
H87	H	1.420839	-0.000097	0.291655
H88	H	1.920839	0.499903	0.791655
O89	O	0.668036	-0.000092	-0.397110
O90	O	1.168036	0.499908	0.102890
H91	H	0.651624	0.072716	-0.435655
H92	H	1.151624	0.572716	0.064345
H93	H	1.218490	-0.480869	-0.162321
H94	H	1.718490	0.019131	0.337679
H95	H	1.321737	-0.000091	0.443663
H96	H	1.821737	0.499909	0.943663
O97	O	0.985594	-0.000090	0.440962
O98	O	1.485594	0.499910	0.940962
H99	H	0.990986	-0.000095	0.526807
H100	H	1.490986	0.499905	1.026807
