data_functionalizedCrystal
_audit_creation_method	'MofGen! by Chris Wilmer'
_symmetry_space_group_name_H-M	'P1'
_symmetry_Int_Tables_number	1
_symmetry_cell_setting	triclinic
loop_
_symmetry_equiv_pos_as_xyz
  x,y,z
_cell_length_a	21.395362
_cell_length_b	19.805405
_cell_length_c	21.395355
_cell_angle_alpha	90.017223
_cell_angle_beta	90.043940
_cell_angle_gamma	90.042604
loop_
_atom_site_label
_atom_site_type_symbol
_atom_site_fract_x
_atom_site_fract_y
_atom_site_fract_z
Zn1	Zn	0.957877	-0.269255	0.354591
Zn2	Zn	1.291210	0.064079	0.687925
Zn3	Zn	1.624543	0.397412	1.021258
Zn4	Zn	0.957787	-0.382425	0.249816
Zn5	Zn	1.291120	-0.049091	0.583149
Zn6	Zn	1.624453	0.284242	0.916483
Zn7	Zn	0.853092	-0.269286	0.249793
Zn8	Zn	1.186425	0.064047	0.583126
Zn9	Zn	1.519758	0.397380	0.916459
Zn10	Zn	0.853068	-0.382438	0.354521
Zn11	Zn	1.186402	-0.049105	0.687854
Zn12	Zn	1.519735	0.284228	1.021187
O13	O	0.905456	-0.325851	0.302180
O14	O	1.238789	0.007482	0.635514
O15	O	1.572123	0.340816	0.968847
O16	O	1.045543	-0.284248	0.340732
O17	O	1.378876	0.049085	0.674065
O18	O	1.712209	0.382419	1.007399
O19	O	0.943871	-0.367424	0.162135
O20	O	1.277204	-0.034091	0.495468
O21	O	1.610537	0.299243	0.828802
O22	O	0.867039	-0.174565	0.263714
O23	O	1.200373	0.158768	0.597047
O24	O	1.533706	0.492101	0.930381
O25	O	1.045476	-0.367393	0.263754
O26	O	1.378810	-0.034060	0.597087
O27	O	1.712143	0.299273	0.930421
O28	O	0.944024	-0.174542	0.340709
O29	O	1.277358	0.158791	0.674042
O30	O	1.610691	0.492124	1.007376
O31	O	0.866952	-0.284302	0.162118
O32	O	1.200285	0.049032	0.495451
O33	O	1.533619	0.382365	0.828784
O34	O	0.765411	-0.284315	0.263646
O35	O	1.098744	0.049018	0.596979
O36	O	1.432077	0.382352	0.930312
O37	O	0.866999	-0.367417	0.442208
O38	O	1.200333	-0.034084	0.775541
O39	O	1.533666	0.299250	1.108875
O40	O	0.765393	-0.367448	0.340589
O41	O	1.098727	-0.034114	0.673922
O42	O	1.432060	0.299219	1.007256
O43	O	0.944002	-0.284261	0.442260
O44	O	1.277335	0.049072	0.775593
O45	O	1.610668	0.382405	1.108926
O46	O	0.943848	-0.477143	0.263686
O47	O	1.277181	-0.143810	0.597019
O48	O	1.610515	0.189524	0.930352
O49	O	0.866912	-0.477153	0.340612
O50	O	1.200245	-0.143820	0.673945
O51	O	1.533578	0.189513	1.007279
C52	C	0.742668	-0.325887	0.302107
C53	C	1.076002	0.007447	0.635441
C54	C	1.409335	0.340780	0.968774
C55	C	0.673027	-0.325918	0.302091
C56	C	1.006360	0.007415	0.635425
C57	C	1.339694	0.340748	0.968758
C58	C	0.640321	-0.369263	0.342096
C59	C	0.973654	-0.035930	0.675429
C60	C	1.306988	0.297404	1.008762
C61	C	0.574886	-0.369246	0.342124
C62	C	0.908219	-0.035913	0.675457
C63	C	1.241552	0.297420	1.008790
C64	C	0.542159	-0.325892	0.302136
C65	C	0.875492	0.007441	0.635469
C66	C	1.208825	0.340774	0.968803
C67	C	0.574872	-0.282539	0.262129
C68	C	0.908206	0.050794	0.595462
C69	C	1.241539	0.384127	0.928795
C70	C	0.640306	-0.282553	0.262106
C71	C	0.973640	0.050781	0.595440
C72	C	1.306973	0.384114	0.928773
C73	C	0.438434	-0.320440	0.245731
C74	C	0.771767	0.012894	0.579064
C75	C	1.105100	0.346227	0.912397
C76	C	0.373001	-0.320431	0.245752
C77	C	0.706334	0.012902	0.579085
C78	C	1.039667	0.346235	0.912418
C79	C	0.340338	-0.325848	0.302205
C80	C	0.673671	0.007485	0.635538
C81	C	1.007005	0.340818	0.968872
C82	C	0.373116	-0.331287	0.358639
C83	C	0.706450	0.002046	0.691972
C84	C	1.039783	0.335379	1.025305
C85	C	0.438550	-0.331301	0.358616
C86	C	0.771884	0.002033	0.691950
C87	C	1.105217	0.335366	1.025283
C88	C	0.471206	-0.325873	0.302156
C89	C	0.804540	0.007460	0.635489
C90	C	1.137873	0.340794	0.968823
C91	C	0.236680	-0.369177	0.342243
C92	C	0.570013	-0.035844	0.675577
C93	C	0.903346	0.297490	1.008910
C94	C	0.171243	-0.369156	0.342272
C95	C	0.504576	-0.035822	0.675605
C96	C	0.837910	0.297511	1.008939
C97	C	0.171231	-0.282452	0.262272
C98	C	0.504564	0.050881	0.595605
C99	C	0.837897	0.384214	0.928938
C100	C	0.236666	-0.282470	0.262248
C101	C	0.569999	0.050863	0.595582
C102	C	0.903333	0.384197	0.928915
C103	C	0.269387	-0.325836	0.302233
C104	C	0.602720	0.007497	0.635566
C105	C	0.936053	0.340831	0.968900
C106	C	0.905384	-0.501707	0.302157
C107	C	1.238718	-0.168374	0.635491
C108	C	1.572051	0.164960	0.968824
C109	C	0.905411	-0.576939	0.302169
C110	C	1.238745	-0.243606	0.635502
C111	C	1.572078	0.089728	0.968835
C112	C	0.945474	-0.612213	0.342292
C113	C	1.278807	-0.278880	0.675625
C114	C	1.612140	0.054454	1.008958
C115	C	0.945496	-0.682901	0.342303
C116	C	1.278830	-0.349568	0.675637
C117	C	1.612163	-0.016235	1.008970
C118	C	0.905459	-0.718315	0.302188
C119	C	1.238792	-0.384981	0.635522
C120	C	1.572126	-0.051648	0.968855
C121	C	0.865392	-0.683036	0.262064
C122	C	1.198726	-0.349702	0.595397
C123	C	1.532059	-0.016369	0.928731
C124	C	0.865367	-0.612349	0.262056
C125	C	1.198700	-0.279015	0.595389
C126	C	1.532034	0.054318	0.928722
C127	C	0.865493	-0.968109	0.262096
C128	C	1.198826	-0.634776	0.595429
C129	C	1.532160	-0.301442	0.928763
C130	C	0.865523	-1.038801	0.262106
C131	C	1.198856	-0.705468	0.595439
C132	C	1.532189	-0.372134	0.928772
C133	C	0.945622	-1.038662	0.342343
C134	C	1.278956	-0.705328	0.675677
C135	C	1.612289	-0.371995	1.009010
C136	C	0.945597	-0.967975	0.342335
C137	C	1.278930	-0.634641	0.675669
C138	C	1.612264	-0.301308	1.009002
C139	C	0.905528	-0.932702	0.302213
C140	C	1.238861	-0.599369	0.635547
C141	C	1.572195	-0.266035	0.968880
C142	C	0.905503	-0.856053	0.302202
C143	C	1.238836	-0.522720	0.635535
C144	C	1.572170	-0.189387	0.968869
C145	C	0.905487	-0.794962	0.302196
C146	C	1.238820	-0.461628	0.635529
C147	C	1.572153	-0.128295	0.968863
C148	C	1.068879	-0.325816	0.302253
C149	C	1.402213	0.007518	0.635587
C150	C	1.735546	0.340851	0.968920
C151	C	1.138520	-0.325800	0.302285
C152	C	1.471854	0.007533	0.635618
C153	C	1.805187	0.340866	0.968951
C154	C	0.905508	-0.325837	0.465604
C155	C	1.238841	0.007496	0.798937
C156	C	1.572175	0.340829	1.132270
C157	C	0.905530	-0.325831	0.535245
C158	C	1.238863	0.007502	0.868578
C159	C	1.572197	0.340835	1.201911
C160	C	0.905545	-0.149308	0.302217
C161	C	1.238878	0.184025	0.635550
C162	C	1.572211	0.517358	0.968883
C163	C	0.905582	-0.074076	0.302232
C164	C	1.238916	0.259257	0.635566
C165	C	1.572249	0.592590	0.968899
C166	C	0.905440	-0.325816	0.139393
C167	C	1.238773	0.007518	0.472726
C168	C	1.572107	0.340851	0.806059
C169	C	0.905539	-0.325631	0.069752
C170	C	1.238873	0.007702	0.403085
C171	C	1.572206	0.341036	0.736418
C172	C	0.945623	-0.282530	0.567986
C173	C	1.278957	0.050803	0.901319
C174	C	1.612290	0.384136	1.234653
C175	C	0.945623	-0.282501	0.633421
C176	C	1.278956	0.050832	0.966755
C177	C	1.612289	0.384165	1.300088
C178	C	0.905535	-0.325785	0.666113
C179	C	1.238868	0.007548	0.999447
C180	C	1.572202	0.340881	1.332780
C181	C	0.865434	-0.369089	0.633364
C182	C	1.198767	-0.035756	0.966698
C183	C	1.532100	0.297577	1.300031
C184	C	0.865431	-0.369112	0.567930
C185	C	1.198765	-0.035779	0.901263
C186	C	1.532098	0.297554	1.234597
C187	C	0.900563	-0.386731	0.769778
C188	C	1.233896	-0.053398	1.103112
C189	C	1.567230	0.279936	1.436445
C190	C	0.900570	-0.386709	0.835211
C191	C	1.233903	-0.053376	1.168545
C192	C	1.567236	0.279958	1.501878
C193	C	0.905539	-0.325714	0.867934
C194	C	1.238872	0.007620	1.201267
C195	C	1.572205	0.340953	1.534601
C196	C	0.910514	-0.264738	0.835216
C197	C	1.243848	0.068595	1.168549
C198	C	1.577181	0.401928	1.501882
C199	C	0.910512	-0.264762	0.769782
C200	C	1.243845	0.068572	1.103115
C201	C	1.577178	0.401905	1.436448
C202	C	0.905533	-0.325765	0.737066
C203	C	1.238866	0.007569	1.070399
C204	C	1.572199	0.340902	1.403732
C205	C	0.945633	-0.282378	0.971628
C206	C	1.278967	0.050956	1.304961
C207	C	1.612300	0.384289	1.638294
C208	C	0.945628	-0.282347	1.037064
C209	C	1.278962	0.050986	1.370398
C210	C	1.612295	0.384319	1.703731
C211	C	0.865443	-0.368941	1.037006
C212	C	1.198776	-0.035608	1.370339
C213	C	1.532109	0.297725	1.703673
C214	C	0.865445	-0.368966	0.971571
C215	C	1.198778	-0.035632	1.304904
C216	C	1.532111	0.297701	1.638237
C217	C	0.905543	-0.325685	0.938885
C218	C	1.238877	0.007649	1.272219
C219	C	1.572210	0.340982	1.605552
H220	H	0.263322	-0.404485	0.374805
H221	H	0.596655	-0.071151	0.708138
H222	H	0.929989	0.262182	1.041471
C223	C	0.821389	-0.721993	0.217899
C224	C	1.154722	-0.388659	0.551232
C225	C	1.488056	-0.055326	0.884566
N226	N	0.788260	-0.751335	0.184618
N227	N	1.121594	-0.418001	0.517951
N228	N	1.454927	-0.084668	0.851284
H229	H	0.144615	-0.404451	0.374852
H230	H	0.477949	-0.071117	0.708186
H231	H	0.811282	0.262216	1.041519
C232	C	0.895096	-0.453783	0.871195
C233	C	1.228430	-0.120449	1.204528
C234	C	1.561763	0.212884	1.537862
N235	N	0.890972	-0.504304	0.898297
N236	N	1.224305	-0.170971	1.231630
N237	N	1.557639	0.162362	1.564963
H238	H	0.978274	-0.247287	0.541378
H239	H	1.311608	0.086046	0.874711
H240	H	1.644941	0.419380	1.208044
H241	H	0.263295	-0.247178	0.229669
H242	H	0.596629	0.086156	0.563002
H243	H	0.929962	0.419489	0.896336
C244	C	0.915976	-0.197689	0.733794
C245	C	1.249309	0.135644	1.067127
C246	C	1.582642	0.468977	1.400461
N247	N	0.920088	-0.147169	0.706688
N248	N	1.253421	0.186164	1.040021
N249	N	1.586754	0.519497	1.373355
H250	H	0.832869	-0.939395	0.229426
H251	H	1.166202	-0.606062	0.562759
H252	H	1.499535	-0.272729	0.896093
C253	C	0.989520	-0.573265	0.386421
C254	C	1.322853	-0.239932	0.719754
C255	C	1.656186	0.093402	1.053087
N256	N	1.022695	-0.543931	0.419662
N257	N	1.356028	-0.210598	0.752995
N258	N	1.689361	0.122736	1.086328
H259	H	0.465022	-0.316026	0.199756
H260	H	0.798355	0.017308	0.533090
H261	H	1.131689	0.350641	0.866423
C262	C	0.821296	-0.573548	0.217917
C263	C	1.154629	-0.240214	0.551250
C264	C	1.487962	0.093119	0.884584
N265	N	0.788098	-0.544324	0.184672
N266	N	1.121432	-0.210990	0.518005
N267	N	1.454765	0.122343	0.851338
C268	C	0.337192	-0.337244	0.420743
C269	C	0.670526	-0.003910	0.754076
C270	C	1.003859	0.329423	1.087410
N271	N	0.310132	-0.341730	0.467518
N272	N	0.643465	-0.008397	0.800851
N273	N	0.976798	0.324936	1.134185
C274	C	0.676310	-0.416964	0.386083
C275	C	1.009643	-0.083631	0.719416
C276	C	1.342977	0.249702	1.052749
N277	N	0.703418	-0.452893	0.419214
N278	N	1.036751	-0.119560	0.752548
N279	N	1.370084	0.213773	1.085881
H280	H	0.978270	-0.247237	0.660084
H281	H	1.311603	0.086096	0.993418
H282	H	1.644937	0.419430	1.326751
H283	H	0.914561	-0.215070	0.861857
H284	H	1.247895	0.118263	1.195190
H285	H	1.581228	0.451596	1.528524
H286	H	0.346318	-0.316007	0.199800
H287	H	0.679651	0.017327	0.533133
H288	H	1.012984	0.350660	0.866467
H289	H	0.978281	-0.247132	0.945014
H290	H	1.311614	0.086201	1.278347
H291	H	1.644947	0.419535	1.611681
H292	H	0.896349	-0.436388	0.743141
H293	H	1.229682	-0.103055	1.076474
H294	H	1.563016	0.230278	1.409808
H295	H	0.978276	-0.247083	1.063721
H296	H	1.311609	0.086251	1.397054
H297	H	1.644943	0.419584	1.730388
C298	C	0.821473	-1.077754	0.217978
C299	C	1.154806	-0.744421	0.551312
C300	C	1.488139	-0.411088	0.884645
N301	N	0.788295	-1.107094	0.184744
N302	N	1.121629	-0.773760	0.518077
N303	N	1.454962	-0.440427	0.851410
H304	H	0.832796	-0.404177	1.063623
H305	H	1.166129	-0.070844	1.396956
H306	H	1.499463	0.262490	1.730290
H307	H	0.978124	-0.711618	0.374970
H308	H	1.311457	-0.378285	0.708304
H309	H	1.644791	-0.044952	1.041637
H310	H	0.548252	-0.404542	0.374702
H311	H	0.881585	-0.071209	0.708036
H312	H	1.214918	0.262124	1.041369
H313	H	0.144585	-0.247150	0.229716
H314	H	0.477918	0.086184	0.563049
H315	H	0.811252	0.419517	0.896382
C316	C	0.538871	-0.234850	0.218142
C317	C	0.872204	0.098483	0.551475
C318	C	1.205538	0.431817	0.884809
N319	N	0.511755	-0.198927	0.185011
N320	N	0.845088	0.134406	0.518345
N321	N	1.178422	0.467739	0.851678
C322	C	0.821334	-0.416699	0.669327
C323	C	1.154668	-0.083365	1.002660
C324	C	1.488001	0.249968	1.335993
N325	N	0.788115	-0.452557	0.696413
N326	N	1.121448	-0.119224	1.029747
N327	N	1.454781	0.214110	1.363080
C328	C	0.821341	-0.416604	0.935554
C329	C	1.154674	-0.083270	1.268887
C330	C	1.488007	0.250063	1.602221
N331	N	0.788118	-0.452485	0.908427
N332	N	1.121451	-0.119152	1.241760
N333	N	1.454784	0.214182	1.575093
C334	C	0.676284	-0.234872	0.218093
C335	C	1.009617	0.098462	0.551426
C336	C	1.342950	0.431795	0.884760
N337	N	0.703383	-0.198959	0.184940
N338	N	1.036716	0.134374	0.518273
N339	N	1.370050	0.467707	0.851607
C340	C	0.989645	-0.929024	0.386461
C341	C	1.322978	-0.595691	0.719794
C342	C	1.656311	-0.262357	1.053127
N343	N	1.022822	-0.899687	0.419697
N344	N	1.356155	-0.566354	0.753031
N345	N	1.689489	-0.233021	1.086364
H346	H	0.832779	-0.404372	0.541273
H347	H	1.166113	-0.071039	0.874606
H348	H	1.499446	0.262294	1.207939
H349	H	0.465236	-0.335727	0.404567
H350	H	0.798569	-0.002394	0.737900
H351	H	1.131903	0.330939	1.071233
C352	C	0.989694	-1.077468	0.386484
C353	C	1.323028	-0.744135	0.719817
C354	C	1.656361	-0.410801	1.053150
N355	N	1.022889	-1.106696	0.419729
N356	N	1.356223	-0.773362	0.753062
N357	N	1.689556	-0.440029	1.086395
