data_functionalizedCrystal
_audit_creation_method	'MofGen! by Chris Wilmer'
_symmetry_space_group_name_H-M	'P1'
_symmetry_Int_Tables_number	1
_symmetry_cell_setting	triclinic
loop_
_symmetry_equiv_pos_as_xyz
  x,y,z
_cell_length_a	12.827893
_cell_length_b	16.625546
_cell_length_c	12.827885
_cell_angle_alpha	89.964876
_cell_angle_beta	89.980538
_cell_angle_gamma	90.022439
loop_
_atom_site_label
_atom_site_type_symbol
_atom_site_fract_x
_atom_site_fract_y
_atom_site_fract_z
Zn1	Zn	1.597620	-0.320963	-0.590810
Zn2	Zn	1.597492	-0.455817	-0.416054
Zn3	Zn	1.422861	-0.321002	-0.416084
Zn4	Zn	1.422825	-0.455757	-0.590754
O5	O	1.510200	-0.388385	-0.503425
O6	O	1.743839	-0.338861	-0.567639
O7	O	1.574288	-0.437976	-0.269822
O8	O	1.446112	-0.208165	-0.439297
O9	O	1.743745	-0.437937	-0.439247
O10	O	1.574507	-0.208136	-0.567668
O11	O	1.445988	-0.338928	-0.269843
O12	O	1.276620	-0.338869	-0.439243
O13	O	1.446051	-0.437835	-0.736997
O14	O	1.276594	-0.437873	-0.567572
O15	O	1.574472	-0.338802	-0.737039
O16	O	1.574254	-0.568642	-0.439192
O17	O	1.445927	-0.568598	-0.567544
C18	C	1.238690	-0.388370	-0.503405
C19	C	1.122537	-0.388382	-0.503422
C20	C	1.070766	-0.437449	-0.566825
C21	C	0.950716	-0.437464	-0.566844
C22	C	1.510101	-0.597876	-0.503382
C23	C	1.510154	-0.687497	-0.503398
C24	C	1.510336	-1.015673	-0.503507
C25	C	1.510282	-0.924364	-0.503479
C26	C	1.510244	-0.851588	-0.503452
C27	C	1.510192	-0.760274	-0.503425
C28	C	1.782770	-0.388401	-0.503446
C29	C	1.898923	-0.388408	-0.503455
C30	C	1.510272	-0.388308	-0.775996
C31	C	1.510302	-0.388275	-0.892149
C32	C	1.510327	-0.178076	-0.503492
C33	C	1.510382	-0.088455	-0.503521
C34	C	1.446835	-0.339253	-0.943944
C35	C	1.446866	-0.339218	-1.063995
C36	C	1.510188	-0.388404	-0.231915
C37	C	1.510360	-0.388210	-0.115763
H38	H	1.115321	-0.479444	-0.621098
C39	C	0.783329	-0.483210	-0.625965
C40	C	0.890623	-0.494175	-0.640130
H41	H	0.746231	-0.518220	-0.671216
H42	H	0.765462	-0.494940	-0.555719
H43	H	0.765528	-0.429036	-0.641371
H44	H	0.908426	-0.548348	-0.624716
H45	H	0.908498	-0.482450	-0.710391
H46	H	1.392534	-0.297245	-1.108538
C47	C	1.524669	-0.496623	-0.992872
C48	C	1.583718	-0.444875	-1.055649
H49	H	1.569958	-0.531609	-0.955760
H50	H	1.484843	-0.465890	-0.944836
H51	H	1.479171	-0.527476	-1.035450
H52	H	1.629210	-0.414018	-1.013069
H53	H	1.623562	-0.475612	-1.103690
C54	C	1.021724	-0.377150	-0.363007
C55	C	0.959012	-0.331695	-0.430169
H56	H	1.058830	-0.342136	-0.317769
H57	H	0.979111	-0.412209	-0.322923
H58	H	1.069774	-0.407922	-0.402786
H59	H	0.910957	-0.300927	-0.390390
H60	H	1.001629	-0.296621	-0.470257
C61	C	1.387627	-0.293620	-0.776545
C62	C	1.373451	-0.282626	-0.883838
H63	H	1.342325	-0.258655	-0.739442
H64	H	1.372307	-0.347805	-0.758698
H65	H	1.457863	-0.281842	-0.758730
H66	H	1.303216	-0.294409	-0.901654
H67	H	1.388763	-0.228428	-0.901692
H68	H	1.077982	-0.346382	-0.449157
H69	H	1.564660	-0.430219	-0.936682
