data_functionalizedCrystal
_audit_creation_method	'MofGen! by Chris Wilmer'
_symmetry_space_group_name_H-M	'P1'
_symmetry_Int_Tables_number	1
_symmetry_cell_setting	triclinic
loop_
_symmetry_equiv_pos_as_xyz
  x,y,z
_cell_length_a	19.805407
_cell_length_b	13.897448
_cell_length_c	19.805399
_cell_angle_alpha	89.974981
_cell_angle_beta	89.980427
_cell_angle_gamma	90.017692
loop_
_atom_site_label
_atom_site_type_symbol
_atom_site_fract_x
_atom_site_fract_y
_atom_site_fract_z
Zn1	Zn	1.034777	-0.384037	-0.382732
Zn2	Zn	1.534777	0.115963	0.117268
Zn3	Zn	1.034709	-0.545343	-0.269549
Zn4	Zn	1.534709	-0.045343	0.230451
Zn5	Zn	0.921591	-0.384064	-0.269556
Zn6	Zn	1.421591	0.115936	0.230444
Zn7	Zn	0.921572	-0.545292	-0.382695
Zn8	Zn	1.421572	-0.045292	0.117305
O9	O	0.978162	-0.464684	-0.326133
O10	O	1.478162	0.035316	0.173867
O11	O	1.129484	-0.405445	-0.367730
O12	O	1.629484	0.094555	0.132270
O13	O	1.019683	-0.523982	-0.174833
O14	O	1.519683	-0.023982	0.325167
O15	O	0.936642	-0.249079	-0.284588
O16	O	1.436642	0.250921	0.215412
O17	O	1.129434	-0.523956	-0.284575
O18	O	1.629434	-0.023956	0.215425
O19	O	1.019799	-0.249059	-0.367737
O20	O	1.519799	0.250941	0.132263
O21	O	0.936576	-0.405490	-0.174839
O22	O	1.436576	0.094510	0.325161
O23	O	0.826872	-0.405441	-0.284552
O24	O	1.326872	0.094559	0.215448
O25	O	0.936609	-0.523869	-0.477417
O26	O	1.436609	-0.023869	0.022583
O27	O	0.826858	-0.523894	-0.367675
O28	O	1.326858	-0.023894	0.132325
O29	O	1.019780	-0.405395	-0.477443
O30	O	1.519780	0.094605	0.022557
O31	O	1.019664	-0.680318	-0.284539
O32	O	1.519664	-0.180318	0.215461
O33	O	0.936543	-0.680280	-0.367668
O34	O	1.436543	-0.180280	0.132332
C35	C	0.802306	-0.464666	-0.326111
C36	C	1.302306	0.035334	0.173889
C37	C	0.727074	-0.464681	-0.326118
C38	C	1.227074	0.035319	0.173882
C39	C	0.691740	-0.526453	-0.369330
C40	C	1.191740	-0.026453	0.130670
C41	C	0.621052	-0.526454	-0.369339
C42	C	1.121052	-0.026454	0.130661
C43	C	0.585699	-0.464688	-0.326133
C44	C	1.085699	0.035312	0.173867
C45	C	0.621037	-0.402910	-0.282919
C46	C	1.121037	0.097090	0.217081
C47	C	0.691725	-0.402904	-0.282913
C48	C	1.191725	0.097096	0.217087
C49	C	0.335964	-0.402931	-0.282941
C50	C	0.835964	0.097069	0.217059
C51	C	0.265272	-0.402944	-0.282949
C52	C	0.765272	0.097056	0.217051
C53	C	0.265292	-0.526481	-0.369367
C54	C	0.765292	-0.026481	0.130633
C55	C	0.335979	-0.526476	-0.369362
C56	C	0.835979	-0.026476	0.130638
C57	C	0.371311	-0.464694	-0.326151
C58	C	0.871311	0.035306	0.173849
C59	C	0.447960	-0.464692	-0.326142
C60	C	0.947960	0.035308	0.173858
C61	C	0.509051	-0.464695	-0.326138
C62	C	1.009051	0.035305	0.173862
C63	C	0.978113	-0.715298	-0.326113
C64	C	1.478113	-0.215298	0.173887
C65	C	0.978154	-0.822512	-0.326128
C66	C	1.478154	-0.322512	0.173872
C67	C	0.978225	-1.018807	-0.326170
C68	C	1.478225	-0.518807	0.173830
C69	C	0.978183	-0.909575	-0.326149
C70	C	1.478183	-0.409575	0.173851
C71	C	1.154705	-0.464703	-0.326155
C72	C	1.654705	0.035297	0.173845
C73	C	1.229937	-0.464711	-0.326165
C74	C	1.729937	0.035289	0.173835
C75	C	0.978200	-0.464623	-0.502676
C76	C	1.478200	0.035377	-0.002676
C77	C	0.978216	-0.464597	-0.577908
C78	C	1.478216	0.035403	-0.077908
C79	C	0.978230	-0.213091	-0.326167
C80	C	1.478230	0.286909	0.173833
C81	C	0.978259	-0.105877	-0.326182
C82	C	1.478259	0.394123	0.173818
C83	C	1.021524	-0.402905	-0.613267
C84	C	1.521524	0.097095	-0.113267
C85	C	1.021531	-0.402877	-0.683955
C86	C	1.521531	0.097123	-0.183955
C87	C	0.978233	-0.464547	-0.719283
C88	C	1.478233	0.035453	-0.219283
C89	C	0.934920	-0.526242	-0.683919
C90	C	1.434920	-0.026242	-0.183919
C91	C	0.934910	-0.526264	-0.613232
C92	C	1.434910	-0.026264	-0.113232
C93	C	0.934958	-0.526152	-0.968993
C94	C	1.434958	-0.026152	-0.468993
C95	C	0.934973	-0.526127	-1.039685
C96	C	1.434973	-0.026127	-0.539685
C97	C	1.021579	-0.402765	-1.039716
C98	C	1.521579	0.097235	-0.539716
C99	C	1.021570	-0.402787	-0.969029
C100	C	1.521570	0.097213	-0.469029
C101	C	0.978255	-0.464478	-0.933671
C102	C	1.478255	0.035522	-0.433671
C103	C	0.978247	-0.464507	-0.857022
C104	C	1.478247	0.035493	-0.357022
C105	C	0.978244	-0.464524	-0.795931
C106	C	1.478244	0.035476	-0.295931
C107	C	0.978163	-0.464675	-0.150277
C108	C	1.478163	0.035325	0.349723
C109	C	0.978278	-0.464429	-0.075045
C110	C	1.478278	0.035571	0.424955
H111	H	0.720492	-0.352598	-0.247729
H112	H	1.220492	0.147402	0.252271
H113	H	1.056785	-0.352690	-0.584508
H114	H	1.556785	0.147310	-0.084508
H115	H	0.236489	-0.352641	-0.247765
H116	H	0.736489	0.147359	0.252235
H117	H	0.899638	-0.576490	-0.584444
H118	H	1.399638	-0.076490	-0.084444
H119	H	0.720520	-0.576753	-0.404511
H120	H	1.220520	-0.076753	0.095489
H121	H	1.056799	-0.352644	-0.712742
H122	H	1.556799	0.147356	-0.212742
H123	H	1.056830	-0.352573	-0.940268
H124	H	1.556830	0.147427	-0.440268
C125	C	0.582188	-0.594462	-0.416831
C126	C	1.082188	-0.094462	0.083169
H127	H	0.613367	-0.631272	-0.442544
H128	H	1.113367	-0.131272	0.057456
H129	H	0.554612	-0.557678	-0.446386
H130	H	1.054612	-0.057678	0.053614
H131	H	0.554615	-0.636426	-0.390847
H132	H	1.054615	-0.136426	0.109153
C133	C	0.374821	-0.334991	-0.235400
C134	C	0.874821	0.165009	0.264600
H135	H	0.343640	-0.298220	-0.209662
H136	H	0.843640	0.201780	0.290338
H137	H	0.402418	-0.293003	-0.261331
H138	H	0.902418	0.206997	0.238669
H139	H	0.402373	-0.371846	-0.205860
H140	H	0.902373	0.128154	0.294140
C141	C	0.374867	-0.594431	-0.416877
C142	C	0.874867	-0.094431	0.083123
H143	H	0.422026	-0.585590	-0.410677
H144	H	0.922026	-0.085590	0.089323
H145	H	0.363310	-0.580415	-0.462375
H146	H	0.863310	-0.080415	0.037625
H147	H	0.363262	-0.659222	-0.406878
H148	H	0.863262	-0.159222	0.093122
H149	H	0.592247	-0.352615	-0.247743
H150	H	1.092247	0.147385	0.252257
C151	C	1.069223	-0.334897	-1.078608
C152	C	1.569223	0.165103	-0.578608
H153	H	1.095013	-0.298182	-1.047443
H154	H	1.595013	0.201818	-0.547443
H155	H	1.043350	-0.292853	-1.106185
H156	H	1.543350	0.207147	-0.606185
H157	H	1.098709	-0.371798	-1.106183
H158	H	1.598709	0.128202	-0.606183
C159	C	0.226424	-0.594431	-0.416906
C160	C	0.726424	-0.094431	0.083094
H161	H	0.179262	-0.585584	-0.410730
H162	H	0.679262	-0.085584	0.089270
H163	H	0.237992	-0.659221	-0.406920
H164	H	0.737992	-0.159221	0.093080
H165	H	0.238034	-0.580393	-0.462401
H166	H	0.738034	-0.080393	0.037599
C167	C	0.887338	-0.593959	-1.078545
C168	C	1.387338	-0.093959	-0.578545
H169	H	0.861534	-0.630697	-1.047363
H170	H	1.361534	-0.130697	-0.547363
H171	H	0.913219	-0.635984	-1.106119
H172	H	1.413219	-0.135984	-0.606119
H173	H	0.857863	-0.557035	-1.106119
H174	H	1.357863	-0.057035	-0.606119
C175	C	0.887300	-0.593989	-0.930108
C176	C	1.387300	-0.093989	-0.430108
H177	H	0.861516	-0.630711	-0.961274
H178	H	1.361516	-0.130711	-0.461274
H179	H	0.857819	-0.557074	-0.902543
H180	H	1.357819	-0.057074	-0.402543
H181	H	0.913162	-0.636043	-0.902522
H182	H	1.413162	-0.136043	-0.402522
C183	C	0.887294	-0.594078	-0.722778
C184	C	1.387294	-0.094078	-0.222778
H185	H	0.893507	-0.585237	-0.769941
H186	H	1.393507	-0.085237	-0.269941
H187	H	0.841818	-0.579962	-0.711188
H188	H	1.341818	-0.079962	-0.211188
H189	H	0.897186	-0.658895	-0.711184
H190	H	1.397186	-0.158895	-0.211184
