data_functionalizedCrystal
_audit_creation_method	'MofGen! by Chris Wilmer'
_symmetry_space_group_name_H-M	'P1'
_symmetry_Int_Tables_number	1
_symmetry_cell_setting	triclinic
loop_
_symmetry_equiv_pos_as_xyz
  x,y,z
_cell_length_a	20.919309
_cell_length_b	16.704494
_cell_length_c	16.704495
_cell_angle_alpha	94.152732
_cell_angle_beta	65.162579
_cell_angle_gamma	53.985832
loop_
_atom_site_label
_atom_site_type_symbol
_atom_site_fract_x
_atom_site_fract_y
_atom_site_fract_z
Zr1	Zr	0.707809	-0.085847	0.803413
O2	O	0.853896	-0.238379	0.674537
O3	O	0.570041	-0.034630	0.838606
O4	O	0.718742	-0.218998	0.836382
O5	O	0.693671	0.086350	0.683423
O6	O	0.717902	-0.208780	0.968956
O7	O	0.705196	-0.054011	0.676761
O8	O	0.451904	0.121020	0.972935
O9	O	0.959669	-0.243450	0.679445
O10	O	0.622999	-0.010547	0.957767
O11	O	0.615025	0.086578	0.863801
O12	O	0.790101	-0.130491	0.861182
O13	O	0.782127	-0.033366	0.767215
Zr14	Zr	0.688090	0.154309	1.025480
Zr15	Zr	0.706470	-0.069552	1.014854
Zr16	Zr	0.689429	0.138013	0.814039
Zr17	Zr	0.876504	-0.093935	0.811241
Zr18	Zr	0.519394	0.162396	1.017652
O19	O	0.825857	0.103092	0.990287
O20	O	0.851992	-0.215209	0.975178
O21	O	0.827761	0.079922	0.689646
O22	O	0.542002	0.306841	1.154357
O23	O	0.568137	-0.011460	1.139248
O24	O	0.543906	0.283671	0.853715
O25	O	0.702228	-0.017888	1.145470
O26	O	0.677157	0.287459	0.992511
O27	O	0.677997	0.277242	0.859937
O28	O	0.690703	0.122473	1.152132
O29	O	0.958605	-0.230497	0.847512
O30	O	0.437294	0.298959	0.981381
O31	O	0.436230	0.311912	1.149449
O32	O	0.450840	0.133973	1.141002
O33	O	0.945059	-0.065511	0.687891
O34	O	0.943994	-0.052558	0.855958
O35	O	0.605798	0.198953	0.967712
O36	O	0.613772	0.101828	1.061678
O37	O	0.780873	-0.018116	0.965093
O38	O	0.772899	0.079009	0.871126
C39	C	0.486937	0.044347	0.904655
C40	C	0.415322	0.047781	0.901332
C41	C	0.699624	0.013848	0.649966
C42	C	0.700193	0.006930	0.560204
C43	C	0.674958	0.314246	0.927738
C44	C	0.667155	0.409281	0.932249
C45	C	0.385839	-0.001305	0.948818
C46	C	0.318543	0.001932	0.945698
C47	C	0.280736	0.054247	0.895087
C48	C	0.310221	0.103339	0.847600
C49	C	0.377511	0.100109	0.850726
C50	C	0.077352	0.066543	0.883200
C51	C	0.010060	0.069767	0.880075
C52	C	0.018385	-0.031640	0.978176
C53	C	0.085680	-0.034871	0.981292
C54	C	0.115155	0.014226	0.933810
C55	C	0.211951	0.057554	0.891894
C56	C	0.183934	0.010926	0.937009
C57	C	0.908961	0.024114	0.924238
C58	C	0.980577	0.020681	0.927561
C59	C	0.720941	-0.245784	0.901155
C60	C	0.728744	-0.340819	0.896644
C61	C	0.826961	0.462628	0.839867
C62	C	0.819634	0.551918	0.844103
C63	C	0.645174	0.677152	0.944950
C64	C	0.652501	0.587862	0.940715
C65	C	0.743398	0.480601	0.888172
C66	C	0.750724	0.391310	0.883943
C67	C	0.576265	0.516544	0.984784
C68	C	0.568938	0.605834	0.989020
C69	C	0.707344	-0.080144	0.430018
C70	C	0.706810	-0.073648	0.514357
C71	C	0.694112	0.081015	0.521705
C72	C	0.694645	0.074518	0.437365
C73	C	0.701260	-0.006062	0.391525
C74	C	0.701787	-0.012553	0.307189
C75	C	0.689096	0.142104	0.314534
C76	C	0.688562	0.148600	0.398873
C77	C	0.696274	0.054614	1.178927
C78	C	0.695706	0.061532	1.268689
C79	C	0.485262	0.064731	1.169135
C80	C	0.413078	0.075082	1.255575
C81	C	0.463946	0.324362	0.917947
C82	C	0.384527	0.422830	0.919135
C83	C	0.462271	0.344746	1.182427
C84	C	0.382284	0.450132	1.273377
C85	C	0.933628	-0.276284	0.646466
C86	C	1.013615	-0.381670	0.555516
C87	C	0.910636	0.003731	0.659758
C88	C	0.982820	-0.006620	0.573319
C89	C	0.931953	-0.255901	0.910946
C90	C	1.011371	-0.354369	0.909758
C91	C	0.383997	0.021275	1.241926
C92	C	0.316184	0.030979	1.323136
C93	C	0.277448	0.094497	1.417994
C94	C	0.306535	0.148305	1.431641
C95	C	0.374352	0.138594	1.350431
C96	C	0.342414	0.527740	0.973934
C97	C	0.267801	0.620269	0.975047
C98	C	0.235297	0.607887	0.921366
C99	C	0.277418	0.502966	0.866561
C100	C	0.352034	0.410438	0.865443
C101	C	0.348884	0.448924	1.365147
C102	C	0.273737	0.547937	1.450612
C103	C	0.231988	0.648156	1.444306
C104	C	0.265395	0.649361	1.352526
C105	C	0.340545	0.550349	1.267063
C106	C	1.047023	-0.380463	0.463747
C107	C	1.122191	-0.479477	0.378282
C108	C	1.163943	-0.579696	0.384589
C109	C	1.130532	-0.580900	0.476368
C110	C	1.055370	-0.481888	0.561831
C111	C	1.011909	0.047177	0.586967
C112	C	1.079743	0.037448	0.505756
C113	C	1.118482	-0.026074	0.410899
C114	C	1.089391	-0.079878	0.397252
C115	C	1.021563	-0.070154	0.478462
C116	C	1.043851	-0.341951	0.963450
C117	C	1.118463	-0.434462	0.962353
C118	C	1.160600	-0.539390	0.907558
C119	C	1.128114	-0.551805	0.853865
C120	C	1.053498	-0.459295	0.854968
H121	H	0.416622	-0.043912	0.990026
H122	H	0.231392	0.730972	1.347406
C123	C	0.484339	0.536311	1.037924
N124	N	0.415103	0.551198	1.077951
C125	C	1.001115	-0.270232	0.456786
N126	N	0.966545	-0.187210	0.451535
C127	C	0.109733	0.120594	0.831004
N128	N	0.134113	0.161323	0.791701
C129	C	0.426601	-0.048610	1.137590
N130	N	0.458691	-0.101256	1.059005
H131	H	0.279428	0.145942	0.806396
C132	C	1.018619	-0.483233	0.662774
N133	N	0.990940	-0.484254	0.738803
H134	H	0.900973	0.375294	0.797092
C135	C	0.149315	0.757064	1.538327
N136	N	0.087042	0.839090	1.609148
C137	C	1.193090	-0.036753	0.321576
N138	N	1.249281	-0.044790	0.254301
C139	C	0.409941	0.154107	0.798487
N140	N	0.434365	0.194783	0.759142
C141	C	0.225536	-0.046636	0.992666
N142	N	0.256884	-0.090001	1.034579
C143	C	0.406324	0.197804	1.365461
N144	N	0.430400	0.242406	1.376789
C145	C	0.850712	0.273323	0.826138
N146	N	0.926025	0.184455	0.782593
H147	H	0.233514	0.705692	1.019679
C148	C	0.202840	0.105177	1.507317
N149	N	0.146643	0.113221	1.574592
C150	C	0.709064	-0.101193	0.256766
N151	N	0.714548	-0.167962	0.218788
C152	C	0.127260	-0.092418	1.036973
N153	N	0.158579	-0.135765	1.078911
H154	H	0.292510	-0.012840	1.312006
C155	C	0.153206	0.709682	0.922617
N156	N	0.091371	0.786360	0.923567
H157	H	0.274986	0.200021	1.508884
H158	H	1.225144	-0.660311	0.314992
H159	H	0.368869	0.537843	1.017647
H160	H	0.367729	0.551347	1.192344
H161	H	0.980372	0.098909	0.664198
H162	H	0.181161	0.100149	0.850686
C163	C	1.158927	-0.478128	0.277335
N164	N	1.186595	-0.477108	0.201305
H165	H	0.683180	0.214205	0.436203
H166	H	1.120943	-0.131596	0.320009
H167	H	0.250942	0.492900	0.822856
H168	H	1.164537	-0.662511	0.481491
H169	H	0.887680	0.537276	0.804765
H170	H	1.103417	0.081267	0.516887
C171	C	0.997509	-0.226537	1.023738
N172	N	0.962604	-0.139609	1.069156
H173	H	1.027062	-0.469422	0.811242
H174	H	0.386314	0.325020	0.820822
H175	H	0.997881	-0.113960	0.467335
H176	H	1.144905	-0.424332	1.006075
H177	H	1.221356	-0.614709	0.906668
H178	H	1.162432	-0.637250	0.809253
H179	H	0.294538	-0.038037	0.984366
C180	C	0.714617	-0.168780	0.379594
N181	N	0.720097	-0.235544	0.341615
C182	C	0.468956	0.723838	1.046963
N183	N	0.393648	0.812723	1.090665
H184	H	-0.005621	-0.071611	1.016835
H185	H	0.382866	0.367331	1.370300
H186	H	0.684138	0.202429	0.283186
H187	H	-0.020720	0.112368	0.838857
C188	C	0.236995	0.546588	1.551559
N189	N	0.209321	0.545569	1.627589
H190	H	0.711766	-0.133973	0.545694
C191	C	0.686840	0.169643	0.572140
N192	N	0.681362	0.236399	0.610129
H193	H	0.571171	0.764494	0.987722
