data_functionalizedCrystal
_audit_creation_method	'MofGen! by Chris Wilmer'
_symmetry_space_group_name_H-M	'P1'
_symmetry_Int_Tables_number	1
_symmetry_cell_setting	triclinic
loop_
_symmetry_equiv_pos_as_xyz
  x,y,z
_cell_length_a	10.654541
_cell_length_b	13.596369
_cell_length_c	10.654545
_cell_angle_alpha	90.001977
_cell_angle_beta	95.515322
_cell_angle_gamma	90.004613
loop_
_atom_site_label
_atom_site_type_symbol
_atom_site_fract_x
_atom_site_fract_y
_atom_site_fract_z
O1	O	1.667848	0.081756	-0.176376
O2	O	1.302369	0.081764	-0.193185
O3	O	1.493511	0.081759	-0.002041
O4	O	1.476706	0.081761	-0.367520
O5	O	1.493487	-0.081824	-0.002052
O6	O	1.302346	-0.081819	-0.193196
O7	O	1.667825	-0.081827	-0.176387
Zn8	Zn	1.485081	-0.107795	-0.184793
Zn9	Zn	1.485112	0.107732	-0.184779
O10	O	1.476683	-0.081822	-0.367531
C11	C	1.255559	-0.000027	-0.191957
C12	C	1.116116	-0.000023	-0.188266
N13	N	1.485069	-0.254887	-0.184802
C14	C	1.088146	-0.000010	-0.416831
C15	C	1.008652	0.000001	-0.529374
C16	C	0.877634	0.000002	-0.525898
C17	C	0.826108	-0.000011	-0.409867
C18	C	0.905602	-0.000022	-0.297324
C19	C	1.036622	-0.000020	-0.300812
C20	C	0.933572	-0.000042	-0.068763
C21	C	1.064590	-0.000036	-0.072235
C22	C	0.882046	-0.000055	0.047269
C23	C	0.961540	-0.000058	0.159814
C24	C	1.092565	-0.000058	0.156334
C25	C	1.144084	-0.000047	0.040308
C26	C	1.485076	-0.343885	-0.184804
C27	C	1.485088	-0.455537	-0.184796
C28	C	1.485104	-0.544527	-0.184782
C29	C	1.485118	-0.656186	-0.184775
C30	C	1.714634	-0.000035	-0.177615
C31	C	1.854078	-0.000031	-0.181306
C32	C	1.492265	-0.000031	0.044751
C33	C	1.488572	-0.000025	0.184195
N34	N	1.485134	0.254824	-0.184760
C35	C	1.477929	-0.000031	-0.414323
C36	C	1.481621	-0.000030	-0.553766
C37	C	1.488613	0.178318	0.184214
C38	C	1.486904	0.267489	0.249734
C39	C	1.483434	0.267491	0.380753
C40	C	1.481671	0.178311	0.446255
C41	C	1.483381	0.089140	0.380735
C42	C	1.486854	0.089148	0.249713
C43	C	1.483331	-0.089201	0.380714
C44	C	1.486809	-0.089204	0.249696
C45	C	1.481568	-0.178381	0.446215
C46	C	1.483286	-0.267554	0.380696
C47	C	1.486757	-0.267551	0.249670
C48	C	1.488519	-0.178376	0.184176
H49	H	1.194826	0.000011	-0.419672
H50	H	1.488130	-0.340166	0.196329
Cl51	Cl	1.477283	0.178316	0.610962
H52	H	0.919576	-0.000068	0.254278
H53	H	0.775363	-0.000060	0.050090
H54	H	0.719425	-0.000022	-0.407048
Cl55	Cl	1.477194	-0.178379	0.610924
Cl56	Cl	1.192490	-0.000079	0.297826
H57	H	0.812909	0.000003	-0.617541
Cl58	Cl	1.073433	0.000017	-0.675234
Cl59	Cl	1.308791	-0.000041	0.035923
H60	H	1.491452	0.178326	0.077534
Cl61	Cl	1.489155	0.379595	0.167389
Cl62	Cl	1.481055	-0.379652	0.463044
Cl63	Cl	1.481275	0.379592	0.463123
Cl64	Cl	1.492889	-0.178365	0.019467
