data_functionalizedCrystal
_audit_creation_method	'MofGen! by Chris Wilmer'
_symmetry_space_group_name_H-M	'P1'
_symmetry_Int_Tables_number	1
_symmetry_cell_setting	triclinic
loop_
_symmetry_equiv_pos_as_xyz
  x,y,z
_cell_length_a	11.026660
_cell_length_b	10.967961
_cell_length_c	7.088929
_cell_angle_alpha	71.682914
_cell_angle_beta	97.576958
_cell_angle_gamma	96.380384
loop_
_atom_site_label
_atom_site_type_symbol
_atom_site_fract_x
_atom_site_fract_y
_atom_site_fract_z
O1	O	1.588179	0.544882	-0.338493
O2	O	1.235938	0.484007	-0.318440
O3	O	1.424925	0.330806	-0.267963
O4	O	1.399193	0.698084	-0.388970
O5	O	1.450182	0.310273	0.056778
O6	O	1.261195	0.463474	0.006300
O7	O	1.613436	0.524349	-0.013752
Cu8	Cu	1.439622	0.492037	0.025925
Cu9	Cu	1.409752	0.516319	-0.358118
O10	O	1.424450	0.677551	-0.064230
C11	C	1.203552	0.462510	-0.152370
C12	C	1.069424	0.429031	-0.141342
C13	C	0.855373	0.486883	-0.160408
C14	C	0.994001	0.521488	-0.171806
C15	C	1.437588	0.272789	-0.089864
C16	C	1.437679	0.130506	-0.042998
C17	C	1.424735	-0.069348	-0.141889
C18	C	1.424636	0.077710	-0.190342
C19	C	1.645822	0.545847	-0.179826
C20	C	1.779949	0.579326	-0.190868
C21	C	1.411786	0.735567	-0.242333
C22	C	1.411694	0.877852	-0.289212
N23	N	1.460639	0.474959	0.296040
N24	N	1.388745	0.533390	-0.628230
H25	H	1.032054	0.626256	-0.206312
O26	O	0.825311	0.704307	-0.231709
C27	C	0.797648	0.754800	-0.083693
H28	H	0.781673	0.672639	0.058484
H29	H	0.711363	0.809516	-0.138960
C30	C	0.925188	0.947939	-0.214033
C31	C	0.905577	0.847028	-0.039403
H32	H	0.991760	1.004834	-0.186717
H33	H	0.943822	0.913924	-0.313759
H34	H	0.853276	0.993521	-0.260071
H35	H	0.977483	0.801438	0.006618
H36	H	0.886958	0.881038	0.060333
O37	O	0.809774	0.361969	-0.119336
C38	C	0.681514	0.355225	-0.117064
H39	H	0.645507	0.451970	-0.209139
H40	H	0.658635	0.331138	0.043422
C41	C	0.665179	0.130884	-0.093907
C42	C	0.620953	0.249705	-0.207009
H43	H	0.627821	0.065791	-0.149380
H44	H	0.751590	0.135425	-0.095430
H45	H	0.646110	0.110829	0.039824
H46	H	0.640035	0.269765	-0.340730
H47	H	0.534543	0.245164	-0.205511
O48	O	1.024168	0.304008	-0.100408
C49	C	1.051781	0.253546	-0.248490
H50	H	1.134302	0.311953	-0.322636
H51	H	0.969418	0.259045	-0.365618
C52	C	0.980376	0.040359	-0.060796
C53	C	1.081737	0.112090	-0.151853
H54	H	0.998849	-0.046899	-0.001190
H55	H	0.961768	0.074356	0.038967
H56	H	0.911750	0.044956	-0.158419
H57	H	1.150356	0.107505	-0.054226
H58	H	1.100357	0.078088	-0.251597
O59	O	1.299971	0.605819	0.250601
C60	C	1.321406	0.733611	0.257304
H61	H	1.422524	0.752952	0.306058
H62	H	1.262958	0.748279	0.368529
C63	C	1.162982	0.803510	-0.011362
C64	C	1.287180	0.827268	0.048502
H65	H	1.141866	0.861282	-0.140157
H66	H	1.148537	0.717413	-0.015874
H67	H	1.114291	0.815732	0.081342
H68	H	1.335869	0.815030	-0.044188
H69	H	1.301633	0.913365	0.052993
O70	O	1.549475	0.402548	0.417091
C71	C	1.527999	0.274741	0.410470
H72	H	1.469929	0.273501	0.265506
H73	H	1.477357	0.214210	0.543047
C74	C	1.722717	0.220096	0.598019
C75	C	1.651402	0.218575	0.419963
H76	H	1.798837	0.185447	0.603883
H77	H	1.737185	0.306201	0.602487
H78	H	1.680501	0.169655	0.708480
H79	H	1.693612	0.269028	0.309506
H80	H	1.636944	0.132477	0.415476
H81	H	1.400446	-0.058482	-0.451210
O82	O	1.410996	0.153556	-0.383657
C83	C	1.297786	0.118057	-0.477463
H84	H	1.232580	0.067917	-0.359569
H85	H	1.312950	0.049709	-0.563146
C86	C	1.321806	0.300922	-0.768245
C87	C	1.241715	0.239348	-0.623446
H88	H	1.287220	0.375738	-0.858302
H89	H	1.398080	0.324836	-0.705050
H90	H	1.334436	0.243952	-0.839626
H91	H	1.229098	0.296312	-0.552052
H92	H	1.165437	0.215446	-0.686633
H93	H	1.435967	-0.133015	0.020109
H94	H	1.448909	0.066844	0.119013
