data_functionalizedCrystal
_audit_creation_method	'MofGen! by Chris Wilmer'
_symmetry_space_group_name_H-M	'P1'
_symmetry_Int_Tables_number	1
_symmetry_cell_setting	triclinic
loop_
_symmetry_equiv_pos_as_xyz
  x,y,z
_cell_length_a	25.639242
_cell_length_b	21.395361
_cell_length_c	21.395356
_cell_angle_alpha	90.030681
_cell_angle_beta	90.026212
_cell_angle_gamma	90.021637
loop_
_atom_site_label
_atom_site_type_symbol
_atom_site_fract_x
_atom_site_fract_y
_atom_site_fract_z
Zn1	Zn	-0.799307	0.249606	-0.354292
Zn2	Zn	-0.299307	0.749606	0.145708
Zn3	Zn	-0.799227	0.354383	-0.249509
Zn4	Zn	-0.299227	0.854383	0.250491
Zn5	Zn	-0.711867	0.249606	-0.249524
Zn6	Zn	-0.211867	0.749606	0.250476
Zn7	Zn	-0.711840	0.354333	-0.354245
Zn8	Zn	-0.211840	0.854333	0.145755
O9	O	-0.755560	0.301982	-0.301892
O10	O	-0.255560	0.801982	0.198108
O11	O	-0.872461	0.263525	-0.340406
O12	O	-0.372461	0.763525	0.159594
O13	O	-0.787616	0.340505	-0.161833
O14	O	-0.287616	0.840505	0.338167
O15	O	-0.723511	0.161928	-0.263448
O16	O	-0.223511	0.661928	0.236552
O17	O	-0.872402	0.340504	-0.263422
O18	O	-0.372402	0.840504	0.236578
O19	O	-0.787752	0.161928	-0.340421
O20	O	-0.287752	0.661928	0.159579
O21	O	-0.723434	0.263526	-0.161844
O22	O	-0.223434	0.763526	0.338156
O23	O	-0.638699	0.263478	-0.263402
O24	O	-0.138699	0.763478	0.236598
O25	O	-0.723465	0.340420	-0.441929
O26	O	-0.223465	0.840420	0.058071
O27	O	-0.638679	0.340420	-0.340339
O28	O	-0.138679	0.840420	0.159661
O29	O	-0.787726	0.263477	-0.441964
O30	O	-0.287726	0.763477	0.058036
O31	O	-0.787590	0.442054	-0.263376
O32	O	-0.287590	0.942054	0.236624
O33	O	-0.723387	0.442018	-0.340325
O34	O	-0.223387	0.942018	0.159675
C35	C	-0.619718	0.301944	-0.301867
C36	C	-0.119718	0.801944	0.198133
C37	C	-0.561604	0.301943	-0.301872
C38	C	-0.061604	0.801943	0.198128
C39	C	-0.755491	0.464770	-0.301858
C40	C	-0.255491	0.964770	0.198142
C41	C	-0.755509	0.534411	-0.301864
C42	C	-0.255509	1.034411	0.198136
C43	C	-0.755601	0.301943	-0.465316
C44	C	-0.255601	0.801943	0.034684
C45	C	-0.755619	0.301927	-0.534957
C46	C	-0.255619	0.801927	-0.034957
C47	C	-0.310449	0.261958	-0.342035
C48	C	0.189551	0.761958	0.157965
C49	C	-0.365053	0.261953	-0.342034
C50	C	0.134947	0.761953	0.157966
O51	O	-0.393323	0.227935	-0.376186
O52	O	0.106677	0.727935	0.123814
N53	N	-0.392330	0.301964	-0.301887
N54	N	0.107670	0.801964	0.198113
C55	C	-0.364999	0.341988	-0.261744
C56	C	0.135001	0.841988	0.238256
O57	O	-0.393214	0.376020	-0.227596
O58	O	0.106786	0.876020	0.272404
C59	C	-0.310396	0.341995	-0.261749
C60	C	0.189604	0.841995	0.238251
C61	C	-0.283122	0.301976	-0.301894
C62	C	0.216878	0.801976	0.198106
C63	C	-0.283175	0.221943	-0.382177
C64	C	0.216825	0.721943	0.117823
C65	C	-0.228574	0.221947	-0.382178
C66	C	0.271426	0.721947	0.117822
C67	C	-0.201248	0.261965	-0.342037
C68	C	0.298752	0.761965	0.157963
C69	C	-0.228522	0.301980	-0.301895
C70	C	0.271478	0.801980	0.198105
C71	C	-0.283066	0.382021	-0.221609
C72	C	0.216934	0.882021	0.278391
C73	C	-0.228459	0.382025	-0.221618
C74	C	0.271541	0.882025	0.278382
C75	C	-0.201186	0.342006	-0.261763
C76	C	0.298814	0.842006	0.238237
C77	C	-0.146594	0.342003	-0.261754
C78	C	0.353406	0.842003	0.238246
N79	N	-0.119318	0.301991	-0.301900
N80	N	0.380682	0.801991	0.198100
C81	C	-0.146644	0.261973	-0.342042
C82	C	0.353356	0.761973	0.157958
C83	C	-0.479670	0.341970	-0.261736
C84	C	0.020330	0.841970	0.238264
C85	C	-0.534272	0.341960	-0.261727
C86	C	-0.034272	0.841960	0.238273
C87	C	-0.534322	0.261926	-0.342019
C88	C	-0.034322	0.761926	0.157981
C89	C	-0.479719	0.261933	-0.342024
C90	C	0.020281	0.761933	0.157976
C91	C	-0.452393	0.301958	-0.301883
C92	C	0.047607	0.801958	0.198117
C93	C	-0.031979	0.261984	-0.342040
C94	C	0.468021	0.761984	0.157960
C95	C	0.022626	0.261989	-0.342035
C96	C	0.522626	0.761989	0.157965
C97	C	0.022671	0.342025	-0.261747
C98	C	0.522671	0.842025	0.238253
C99	C	-0.031929	0.342018	-0.261749
C100	C	0.468071	0.842018	0.238251
C101	C	-0.059253	0.301995	-0.301901
C102	C	0.440747	0.801995	0.198099
O103	O	-0.118290	0.376005	-0.227620
O104	O	0.381710	0.876005	0.272380
O105	O	-0.118423	0.227951	-0.376190
O106	O	0.381577	0.727951	0.123810
C107	C	0.108067	0.302013	-0.301909
C108	C	0.608067	0.802013	0.198091
C109	C	0.049953	0.302008	-0.301894
C110	C	0.549953	0.802008	0.198106
C111	C	-0.755644	0.138559	-0.301941
C112	C	-0.255644	0.638559	0.198059
C113	C	-0.755679	0.068917	-0.301962
C114	C	-0.255679	0.568917	0.198038
C115	C	-0.788969	0.567122	-0.261837
C116	C	-0.288969	1.067122	0.238163
C117	C	-0.788994	0.632558	-0.261852
C118	C	-0.288994	1.132558	0.238148
C119	C	-0.755549	0.665279	-0.301885
C120	C	-0.255549	1.165279	0.198115
C121	C	-0.722087	0.632560	-0.341919
C122	C	-0.222087	1.132560	0.158081
C123	C	-0.722067	0.567126	-0.341908
C124	C	-0.222067	1.067126	0.158092
C125	C	-0.708472	0.768985	-0.306792
C126	C	-0.208472	1.268985	0.193208
C127	C	-0.708491	0.834418	-0.306799
C128	C	-0.208491	1.334418	0.193201
C129	C	-0.755610	0.867100	-0.301922
C130	C	-0.255610	1.367100	0.198078
C131	C	-0.802711	0.834341	-0.297025
C132	C	-0.302711	1.334341	0.202975
C133	C	-0.802692	0.768907	-0.297015
C134	C	-0.302692	1.268907	0.202985
C135	C	-0.755567	0.736232	-0.301901
C136	C	-0.255567	1.236232	0.198099
C137	C	-0.789099	0.970764	-0.261909
C138	C	-0.289099	1.470764	0.238091
C139	C	-0.789124	1.036200	-0.261927
C140	C	-0.289124	1.536200	0.238073
C141	C	-0.722212	1.036202	-0.341991
C142	C	-0.222212	1.536202	0.158009
C143	C	-0.722192	0.970766	-0.341976
C144	C	-0.222192	1.470766	0.158024
C145	C	-0.755634	0.938051	-0.301932
C146	C	-0.255634	1.438051	0.198068
C147	C	-0.722208	0.261839	-0.567666
C148	C	-0.222208	0.761839	-0.067666
C149	C	-0.722206	0.261828	-0.633101
C150	C	-0.222206	0.761828	-0.133101
C151	C	-0.755625	0.301897	-0.665825
C152	C	-0.255625	0.801897	-0.165825
C153	C	-0.789038	0.341992	-0.633109
C154	C	-0.289038	0.841992	-0.133109
C155	C	-0.789035	0.342007	-0.567674
C156	C	-0.289035	0.842007	-0.067674
C157	C	-0.802733	0.306832	-0.769514
C158	C	-0.302733	0.806832	-0.269514
C159	C	-0.802736	0.306812	-0.834947
C160	C	-0.302736	0.806812	-0.334947
C161	C	-0.755633	0.301855	-0.867646
C162	C	-0.255633	0.801855	-0.367646
C163	C	-0.708525	0.296903	-0.834905
C164	C	-0.208525	0.796903	-0.334905
C165	C	-0.708522	0.296918	-0.769470
C166	C	-0.208522	0.796918	-0.269470
C167	C	-0.755631	0.301885	-0.736778
C168	C	-0.255631	0.801885	-0.236778
C169	C	-0.722218	0.261753	-0.971308
C170	C	-0.222218	0.761753	-0.471308
C171	C	-0.722215	0.261745	-1.036745
C172	C	-0.222215	0.761745	-0.536745
C173	C	-0.789051	0.341906	-1.036750
C174	C	-0.289051	0.841906	-0.536750
C175	C	-0.789049	0.341917	-0.971315
C176	C	-0.289049	0.841917	-0.471315
C177	C	-0.755633	0.301837	-0.938598
C178	C	-0.255633	0.801837	-0.438598
C179	C	-0.755549	0.301976	-0.139105
C180	C	-0.255549	0.801976	0.360895
C181	C	-0.755633	0.301816	-0.069464
C182	C	-0.255633	0.801816	0.430536
H183	H	0.044830	0.229398	-0.374726
H184	H	0.544830	0.729398	0.125274
H185	H	-0.457516	0.229346	-0.374713
H186	H	0.042484	0.729346	0.125287
C187	C	-0.825823	0.385995	-0.935334
C188	C	-0.325823	0.885995	-0.435334
N189	N	-0.853526	0.419191	-0.908233
N190	N	-0.353526	0.919191	-0.408233
H191	H	-0.841095	0.310841	-0.861600
H192	H	-0.341095	0.810841	-0.361600
C193	C	-0.685295	0.668555	-0.385954
C194	C	-0.185295	1.168555	0.114046
N195	N	-0.657583	0.695667	-0.419123
N196	N	-0.157583	1.195667	0.080877
C197	C	-0.825894	0.934775	-0.217869
C198	C	-0.325894	1.434775	0.282131
N199	N	-0.853610	0.907670	-0.184699
N200	N	-0.353610	1.407670	0.315301
C201	C	-0.825934	1.072183	-0.217892
C202	C	-0.325934	1.572183	0.282108
N203	N	-0.853659	1.099285	-0.184723
N204	N	-0.353659	1.599285	0.315277
C205	C	-0.685423	1.072192	-0.386030
C206	C	-0.185423	1.572192	0.113970
N207	N	-0.657714	1.099303	-0.419203
N208	N	-0.157714	1.599303	0.080797
C209	C	-0.564392	0.217909	-0.386180
C210	C	-0.064392	0.717909	0.113820
N211	N	-0.587042	0.184758	-0.419441
N212	N	-0.087042	0.684758	0.080559
H213	H	-0.694819	0.540492	-0.374503
H214	H	-0.194819	1.040492	0.125497
H215	H	-0.556474	0.374540	-0.229031
H216	H	-0.056474	0.874540	0.270969
H217	H	-0.816244	0.374650	-0.541043
H218	H	-0.316244	0.874650	-0.041043
C219	C	-0.825752	0.531139	-0.217780
C220	C	-0.325752	1.031139	0.282220
N221	N	-0.853454	0.504036	-0.184593
N222	N	-0.353454	1.004036	0.315407
C223	C	0.052741	0.386045	-0.217594
C224	C	0.552741	0.886045	0.282406
N225	N	0.075391	0.419204	-0.184342
N226	N	0.575391	0.919204	0.315658
C227	C	-0.062028	0.217953	-0.386205
C228	C	0.437972	0.717953	0.113795
N229	N	-0.084660	0.184785	-0.419466
N230	N	0.415340	0.684785	0.080534
H231	H	-0.694943	0.944131	-0.374567
H232	H	-0.194943	1.444131	0.125433
H233	H	-0.816243	0.659196	-0.229258
H234	H	-0.316243	1.159196	0.270742
C235	C	-0.854547	0.870287	-0.291666
C236	C	-0.354547	1.370287	0.208334
N237	N	-0.893588	0.897364	-0.287629
N238	N	-0.393588	1.397364	0.212371
C239	C	-0.198580	0.177929	-0.426347
C240	C	0.301420	0.677929	0.073653
N241	N	-0.175992	0.144775	-0.459620
N242	N	0.324008	0.644775	0.040380
C243	C	-0.313226	0.177911	-0.426336
C244	C	0.186774	0.677911	0.073664
N245	N	-0.335856	0.144739	-0.459595
N246	N	0.164144	0.644739	0.040405
C247	C	-0.854502	0.732875	-0.291629
C248	C	-0.354502	1.232875	0.208371
N249	N	-0.893527	0.705736	-0.287572
N250	N	-0.393527	1.205736	0.212428
H251	H	-0.305263	0.414608	-0.188919
H252	H	0.194737	0.914608	0.311081
H253	H	-0.457425	0.374562	-0.229044
H254	H	0.042575	0.874562	0.270956
C255	C	-0.656678	0.870446	-0.312183
C256	C	-0.156678	1.370446	0.187817
N257	N	-0.617652	0.897581	-0.316240
N258	N	-0.117652	1.397581	0.183760
C259	C	-0.854553	0.312290	-0.733552
C260	C	-0.354553	0.812290	-0.233552
N261	N	-0.893582	0.316401	-0.706465
N262	N	-0.393582	0.816401	-0.206465
C263	C	-0.825836	0.385955	-1.072743
C264	C	-0.325836	0.885955	-0.572743
N265	N	-0.853551	0.419124	-1.099856
N266	N	-0.353551	0.919124	-0.599856
C267	C	-0.685445	0.217755	-0.531681
C268	C	-0.185445	0.717755	-0.031681
N269	N	-0.657753	0.184552	-0.504576
N270	N	-0.157753	0.684552	-0.004576
H271	H	-0.670099	0.742381	-0.310766
H272	H	-0.170099	1.242381	0.189234
C273	C	-0.685453	0.217724	-0.669089
C274	C	-0.185453	0.717724	-0.169089
N275	N	-0.657771	0.184503	-0.696192
N276	N	-0.157771	0.684503	-0.196192
C277	C	-0.198404	0.426055	-0.177457
C278	C	0.301596	0.926055	0.322543
N279	N	-0.175768	0.459216	-0.144193
N280	N	0.324232	0.959216	0.355807
C281	C	-0.061931	0.386037	-0.217585
C282	C	0.438069	0.886037	0.282415
N283	N	-0.084525	0.419198	-0.184325
N284	N	0.415475	0.919198	0.315675
H285	H	-0.816247	0.374617	-0.659757
H286	H	-0.316247	0.874617	-0.159757
H287	H	-0.670165	0.292887	-0.742815
H288	H	-0.170165	0.792887	-0.242815
H289	H	-0.670169	0.292861	-0.861527
H290	H	-0.170169	0.792861	-0.361527
H291	H	-0.695008	0.229117	-0.944668
H292	H	-0.195008	0.729117	-0.444668
H293	H	-0.695004	0.229103	-1.063375
H294	H	-0.195004	0.729103	-0.563375
