data_functionalizedCrystal
_audit_creation_method	'MofGen! by Chris Wilmer'
_symmetry_space_group_name_H-M	'P1'
_symmetry_Int_Tables_number	1
_symmetry_cell_setting	triclinic
loop_
_symmetry_equiv_pos_as_xyz
  x,y,z
_cell_length_a	23.532407
_cell_length_b	10.654550
_cell_length_c	9.730223
_cell_angle_alpha	90.004253
_cell_angle_beta	89.994255
_cell_angle_gamma	96.333196
loop_
_atom_site_label
_atom_site_type_symbol
_atom_site_fract_x
_atom_site_fract_y
_atom_site_fract_z
O1	O	0.756252	-0.152438	-0.114367
O2	O	0.590532	-0.174495	-0.114353
O3	O	0.677202	0.019394	-0.114352
O4	O	0.669582	-0.346326	-0.114368
O5	O	0.677196	0.019399	0.114228
O6	O	0.590526	-0.174490	0.114227
O7	O	0.756246	-0.152433	0.114213
Zn8	Zn	0.673385	-0.163461	0.150512
Zn9	Zn	0.673393	-0.163467	-0.150652
O10	O	0.669576	-0.346321	0.114212
C11	C	0.569310	-0.173931	-0.000061
C12	C	0.506082	-0.172242	-0.000055
C13	C	0.777469	-0.152997	-0.000082
C14	C	0.840697	-0.154686	-0.000097
C15	C	0.676640	0.066176	-0.000062
C16	C	0.674966	0.205567	-0.000064
C17	C	1.239121	-0.050539	-0.000044
C18	C	1.298532	-0.052107	-0.000038
O19	O	1.334647	0.044438	0.000015
N20	N	1.321909	-0.167374	-0.000047
C21	C	1.285872	-0.281079	-0.000049
O22	O	1.311211	-0.379266	-0.000055
C23	C	1.226463	-0.279509	-0.000045
C24	C	1.203089	-0.164235	-0.000050
C25	C	1.215747	0.064726	-0.000047
C26	C	1.156341	0.066294	-0.000056
C27	C	1.120308	-0.047402	-0.000061
C28	C	1.143683	-0.162667	-0.000058
C29	C	1.190427	-0.393213	-0.000036
C30	C	1.131014	-0.391633	-0.000032
C31	C	1.107641	-0.276359	-0.000036
C32	C	1.048244	-0.274795	-0.000072
N33	N	1.024867	-0.159529	-0.000063
C34	C	1.060899	-0.045832	-0.000058
C35	C	1.410636	-0.284368	-0.000054
C36	C	1.470044	-0.285939	-0.000068
C37	C	1.482700	-0.056967	-0.000055
C38	C	1.423290	-0.055397	-0.000051
C39	C	1.387259	-0.169101	-0.000045
C40	C	0.936141	-0.042548	-0.000077
C41	C	0.876729	-0.040989	-0.000091
C42	C	0.864078	-0.269961	-0.000097
C43	C	0.923485	-0.271520	-0.000090
C44	C	0.959516	-0.157803	-0.000075
O45	O	1.012094	-0.371290	-0.000120
O46	O	1.035552	0.052339	-0.000034
C47	C	0.670138	-0.393104	-0.000081
C48	C	0.671812	-0.532494	-0.000088
N49	N	0.673384	-0.163455	0.356048
C50	C	0.725996	0.286669	-0.000069
C51	C	0.724419	0.417640	-0.000086
C52	C	0.620779	0.386393	-0.000087
C53	C	0.622356	0.255425	-0.000080
N54	N	0.673398	-0.163463	-0.356188
C55	C	0.711775	-0.077637	0.427975
C56	C	0.711781	-0.077637	0.571858
C57	C	0.635003	-0.249285	0.571875
C58	C	0.634995	-0.249278	0.427995
H59	H	0.857702	0.052884	-0.000099
H60	H	1.381302	-0.376965	-0.000059
F61	F	1.092670	-0.512657	-0.000019
F62	F	0.974479	0.078483	-0.000062
H63	H	0.577945	0.427004	-0.000097
H64	H	0.580798	0.189387	-0.000080
F65	F	0.752631	0.013706	0.351410
F66	F	0.752640	0.013704	0.648403
H67	H	1.137316	0.160162	-0.000054
F68	F	1.254087	0.185749	-0.000038
F69	F	1.398420	0.067292	-0.000052
F70	F	0.781988	0.233611	-0.000054
H71	H	0.603730	-0.319162	0.369428
H72	H	0.765973	0.483669	-0.000093
F73	F	0.594150	-0.340622	0.648455
H74	H	1.512048	0.035611	-0.000050
H75	H	1.489069	-0.379806	-0.000083
H76	H	0.942517	-0.365385	-0.000088
H77	H	1.209447	-0.487081	-0.000039
F78	F	0.825720	-0.390958	-0.000110
