data_functionalizedCrystal
_audit_creation_method	'MofGen! by Chris Wilmer'
_symmetry_space_group_name_H-M	'P1'
_symmetry_Int_Tables_number	1
_symmetry_cell_setting	triclinic
loop_
_symmetry_equiv_pos_as_xyz
  x,y,z
_cell_length_a	14.519709
_cell_length_b	27.732048
_cell_length_c	12.996460
_cell_angle_alpha	89.988908
_cell_angle_beta	90.000034
_cell_angle_gamma	83.161400
loop_
_atom_site_label
_atom_site_type_symbol
_atom_site_fract_x
_atom_site_fract_y
_atom_site_fract_z
O1	O	1.222766	0.063362	-0.085445
O2	O	0.954160	0.070824	-0.085477
O3	O	1.096805	-0.003264	-0.085440
O4	O	1.080121	0.137450	-0.085482
O5	O	1.096791	-0.003268	0.085693
O6	O	0.954145	0.070820	0.085656
O7	O	1.222752	0.063358	0.085689
Cu8	Cu	1.088447	0.067089	0.101299
Cu9	Cu	1.088464	0.067093	-0.101087
O10	O	1.080106	0.137446	0.085652
C11	C	0.919799	0.070474	0.000086
C12	C	0.817435	0.069432	0.000074
C13	C	0.442606	0.065596	0.000122
C14	C	0.546896	0.066661	0.000108
C15	C	0.630018	0.067514	0.000097
C16	C	0.734314	0.068579	0.000085
C17	C	1.096448	-0.021274	0.000129
C18	C	1.095393	-0.074934	0.000138
C19	C	1.173048	-0.413378	0.000094
C20	C	1.169135	-0.615057	0.000080
O21	O	1.240145	-0.645973	0.000043
N22	N	1.084552	-0.634585	0.000070
C23	C	1.000941	-0.603690	0.000058
O24	O	0.928909	-0.624927	0.000039
C25	C	1.004855	-0.402012	0.000065
C26	C	1.089444	-0.382487	0.000085
C27	C	1.257630	-0.393853	0.000113
C28	C	1.258607	-0.343436	0.000122
C29	C	1.175003	-0.312545	0.000113
C30	C	1.090421	-0.332071	0.000094
C31	C	0.921246	-0.371118	0.000045
C32	C	0.922232	-0.320696	0.000045
C33	C	1.006820	-0.301171	0.000064
C34	C	1.007794	-0.250763	0.000094
N35	N	1.092377	-0.231235	0.000104
C36	C	1.175981	-0.262126	0.000113
C37	C	0.998893	-0.709574	0.000056
C38	C	0.997914	-0.759993	0.000056
C39	C	1.166108	-0.771356	0.000076
C40	C	1.167086	-0.720936	0.000083
C41	C	1.083476	-0.690045	0.000065
C42	C	1.178028	-0.156247	0.000133
C43	C	1.178998	-0.105825	0.000147
C44	C	1.010804	-0.094466	0.000122
C45	C	1.009833	-0.144883	0.000114
C46	C	1.093453	-0.175773	0.000116
O47	O	0.936822	-0.219818	0.000119
O48	O	1.248004	-0.240879	0.000109
C49	C	1.172071	-0.463795	0.000085
C50	C	1.087489	-0.483320	0.000066
C51	C	1.003885	-0.452429	0.000057
C52	C	1.086510	-0.533740	0.000066
C53	C	1.170115	-0.564631	0.000076
C54	C	1.254698	-0.545103	0.000085
C55	C	1.255675	-0.494686	0.000094
C56	C	0.919302	-0.471957	0.000048
C57	C	0.918331	-0.522375	0.000039
C58	C	1.001936	-0.553266	0.000049
C59	C	1.257113	0.063708	0.000124
C60	C	1.359476	0.064750	0.000129
C61	C	1.080464	0.155456	0.000080
C62	C	1.081518	0.209116	0.000065
N63	N	1.088442	0.067085	0.243646
N64	N	1.088477	0.067093	-0.243434
C65	C	1.088463	0.067094	0.663460
C66	C	1.088454	0.067093	0.546655
C67	C	1.088453	0.067090	0.453557
C68	C	1.088443	0.067088	0.336744
H69	H	1.247882	-0.089931	0.000166
O70	O	0.836213	-0.541394	-0.000118
C71	C	0.830615	-0.570194	-0.088774
H72	H	0.903487	-0.582683	-0.118305
H73	H	0.789511	-0.547947	-0.150842
C74	C	0.692086	-0.599500	-0.025610
C75	C	0.781589	-0.614842	-0.061875
H76	H	0.661840	-0.627039	-0.009021
H77	H	0.695854	-0.580095	0.034118
H78	H	0.657844	-0.580960	-0.077340
H79	H	0.815833	-0.633376	-0.010142
H80	H	0.777825	-0.634250	-0.121594
O81	O	0.838994	-0.389996	-0.000024
C82	C	0.765425	-0.351911	-0.000013
H83	H	0.790797	-0.317636	-0.032400
H84	H	0.739658	-0.344807	0.082082
C85	C	0.654434	-0.408298	-0.027372
C86	C	0.685595	-0.366203	-0.067159
H87	H	0.605189	-0.417114	-0.068786
H88	H	0.703998	-0.433958	-0.027376
H89	H	0.632968	-0.402373	0.041040
H90	H	0.707071	-0.372130	-0.135564
H91	H	0.636033	-0.340544	-0.067168
H92	H	1.246119	-0.181392	0.000131
O93	O	1.247384	-0.801319	-0.000059
C94	C	1.298770	-0.792457	-0.088705
H95	H	1.275576	-0.754229	-0.118249
H96	H	1.286550	-0.820037	-0.150771
C97	C	1.431227	-0.844114	-0.025501
C98	C	1.402745	-0.797160	-0.061782
H99	H	1.495364	-0.847016	-0.008896
H100	H	1.396606	-0.850086	0.034220
H101	H	1.421036	-0.867092	-0.077228
H102	H	1.412925	-0.774183	-0.010050
H103	H	1.437369	-0.791184	-0.121494
H104	H	1.235965	-0.705043	0.000098
O105	O	0.841034	-0.290669	-0.000152
C106	C	0.836586	-0.261146	-0.088767
H107	H	0.884023	-0.279557	-0.150709
H108	H	0.859913	-0.224462	-0.068718
C109	C	0.677873	-0.230969	-0.052896
C110	C	0.736130	-0.253583	-0.128978
H111	H	0.615906	-0.226301	-0.077698
H112	H	0.680870	-0.250857	0.006808
H113	H	0.697323	-0.200401	-0.036196
H114	H	0.716686	-0.284152	-0.145667
H115	H	0.733127	-0.233699	-0.188686
H116	H	0.940955	-0.160781	0.000126
H117	H	0.942736	-0.069306	0.000118
H118	H	1.324556	-0.478794	0.000110
O119	O	1.335888	-0.575135	-0.000091
C120	C	1.340337	-0.604636	-0.088715
H121	H	1.292916	-0.586205	-0.150663
H122	H	1.316990	-0.641321	-0.068685
C123	C	1.499035	-0.634841	-0.052813
C124	C	1.440798	-0.612202	-0.128902
H125	H	1.561005	-0.639510	-0.077601
H126	H	1.496038	-0.614967	0.006897
H127	H	1.479568	-0.665409	-0.036129
H128	H	1.460259	-0.581632	-0.145576
H129	H	1.443802	-0.632071	-0.188616
H130	H	0.851220	-0.446810	0.000038
H131	H	0.930803	-0.684426	0.000042
O132	O	1.340802	-0.324498	-0.000051
C133	C	1.391729	-0.340283	-0.088667
H134	H	1.342251	-0.350806	-0.150619
H135	H	1.443584	-0.373099	-0.068626
C136	C	1.504919	-0.286055	-0.052762
C137	C	1.444148	-0.298976	-0.128856
H138	H	1.537257	-0.260576	-0.077551
H139	H	1.470610	-0.275421	0.006942
H140	H	1.548123	-0.313406	-0.036068
H141	H	1.400938	-0.271627	-0.145539
H142	H	1.478451	-0.309604	-0.188564
O143	O	0.915663	-0.778876	0.000002
C144	C	0.842089	-0.740793	0.000018
H145	H	0.867451	-0.706518	-0.032375
H146	H	0.816327	-0.733690	0.082115
C147	C	0.731107	-0.797187	-0.027324
C148	C	0.762256	-0.755090	-0.067117
H149	H	0.681860	-0.806007	-0.068731
H150	H	0.780675	-0.822845	-0.027330
H151	H	0.709646	-0.791262	0.041091
H152	H	0.783727	-0.761018	-0.135525
H153	H	0.712690	-0.729434	-0.067124
O154	O	1.338789	-0.423906	0.000260
C155	C	1.343265	-0.453408	0.088908
H156	H	1.270102	-0.456037	0.118443
H157	H	1.385126	-0.436781	0.150978
C158	C	1.480297	-0.501316	0.025722
C159	C	1.390437	-0.504548	0.061993
H160	H	1.509399	-0.532861	0.009123
H161	H	1.477285	-0.481439	-0.033999
H162	H	1.515169	-0.487458	0.077454
H163	H	1.355563	-0.518400	0.010257
H164	H	1.393445	-0.524429	0.121706
