data_functionalizedCrystal
_audit_creation_method	'MofGen! by Chris Wilmer'
_symmetry_space_group_name_H-M	'P1'
_symmetry_Int_Tables_number	1
_symmetry_cell_setting	triclinic
loop_
_symmetry_equiv_pos_as_xyz
  x,y,z
_cell_length_a	6.817900
_cell_length_b	9.514072
_cell_length_c	10.943624
_cell_angle_alpha	88.513180
_cell_angle_beta	108.838799
_cell_angle_gamma	118.843421
loop_
_atom_site_label
_atom_site_type_symbol
_atom_site_fract_x
_atom_site_fract_y
_atom_site_fract_z
V1	V	-4.173025	-0.222162	-0.403562
O2	O	-4.070428	0.010719	-0.394839
O3	O	-4.207528	-0.440552	-0.401803
O4	O	-4.150098	-0.218726	-0.579113
O5	O	-4.128256	-0.212643	-0.216302
V6	V	-4.642610	-0.194309	-0.381043
O7	O	-4.464858	-0.283260	-0.452961
O8	O	-4.800974	-0.133211	-0.331645
O9	O	-4.384900	0.024081	-0.382802
O10	O	-4.862603	-0.427190	-0.389766
O11	O	-4.804775	-0.203829	-0.568303
O12	O	-4.442331	-0.197745	-0.205492
C13	C	-4.071873	-0.493791	-0.395695
C14	C	-4.181540	-0.672327	-0.395427
C15	C	-3.998612	-0.210828	-0.621870
C16	C	-4.061699	-0.209463	-0.765390
C17	C	-3.904149	-0.200275	-0.842496
C18	C	-4.128826	-0.336665	-0.949107
C19	C	-3.949461	-0.070657	-0.914509
C20	C	-4.285620	-0.345982	-0.870125
C21	C	-4.106143	-0.079853	-0.835503
C22	C	-4.330967	-0.216283	-0.942085
C23	C	-4.183900	0.077311	-0.388907
C24	C	-4.053473	0.255846	-0.389183
C25	C	-4.257159	-0.205648	-0.162729
C26	C	-4.173308	-0.207005	-0.019207
H27	H	-3.859895	-0.669050	-0.383978
H28	H	-3.723243	-0.193689	-0.799017
C29	C	-4.142672	-0.483327	-1.015917
N30	N	-4.153081	-0.593785	-1.066235
C31	C	-4.443074	-0.773795	-0.402458
N32	N	-4.640063	-0.850223	-0.407758
H33	H	-3.807988	0.045674	-0.934742
C34	C	-4.476842	-0.503356	-0.843092
N35	N	-4.620860	-0.621892	-0.822727
C36	C	-4.575606	-0.225499	-1.000601
N37	N	-4.759878	-0.232460	-1.044696
C38	C	-4.092161	0.066829	-0.768648
N39	N	-4.081602	0.177324	-0.718286
