data_functionalizedCrystal
_audit_creation_method	'MofGen! by Chris Wilmer'
_symmetry_space_group_name_H-M	'P1'
_symmetry_Int_Tables_number	1
_symmetry_cell_setting	triclinic
loop_
_symmetry_equiv_pos_as_xyz
  x,y,z
_cell_length_a	19.121102
_cell_length_b	21.295417
_cell_length_c	21.295411
_cell_angle_alpha	89.978356
_cell_angle_beta	87.537204
_cell_angle_gamma	87.584620
loop_
_atom_site_label
_atom_site_type_symbol
_atom_site_fract_x
_atom_site_fract_y
_atom_site_fract_z
Zn1	Zn	1.073733	-0.291809	-0.396911
Zn2	Zn	1.573733	0.208191	0.103089
Zn3	Zn	1.073624	-0.397056	-0.291633
Zn4	Zn	1.573624	0.102944	0.208367
Zn5	Zn	0.956272	-0.287310	-0.287171
Zn6	Zn	1.456272	0.212690	0.212829
Zn7	Zn	0.956238	-0.392544	-0.392382
Zn8	Zn	1.456238	0.107456	0.107618
O9	O	1.014967	-0.342180	-0.342024
O10	O	1.514967	0.157820	0.157976
O11	O	1.172003	-0.309542	-0.386709
O12	O	1.672003	0.190458	0.113291
O13	O	1.058026	-0.382504	-0.202950
O14	O	1.558026	0.117496	0.297050
O15	O	0.971914	-0.199820	-0.301757
O16	O	1.471914	0.300180	0.198243
O17	O	1.171923	-0.386867	-0.309361
O18	O	1.671923	0.113133	0.190639
O19	O	1.058212	-0.203125	-0.382383
O20	O	1.558212	0.296875	0.117617
O21	O	0.971808	-0.301874	-0.199673
O22	O	1.471808	0.198126	0.300327
O23	O	0.857983	-0.297498	-0.297365
O24	O	1.357983	0.202502	0.202635
O25	O	0.971855	-0.379175	-0.481074
O26	O	1.471855	0.120825	0.018926
O27	O	0.857958	-0.374813	-0.374663
O28	O	1.357958	0.125187	0.125337
O29	O	1.058179	-0.305166	-0.484401
O30	O	1.558179	0.194834	0.015599
O31	O	1.057993	-0.484545	-0.304969
O32	O	1.557993	0.015455	0.195031
O33	O	0.971750	-0.481229	-0.378989
O34	O	1.471750	0.018771	0.121011
C35	C	0.832487	-0.335178	-0.335039
C36	C	1.332487	0.164822	0.164961
C37	C	0.754421	-0.332198	-0.332065
C38	C	1.254421	0.167802	0.167935
C39	C	0.717751	-0.371112	-0.370850
C40	C	1.217751	0.128888	0.129150
C41	C	0.644400	-0.368304	-0.368059
C42	C	1.144400	0.131696	0.131941
C43	C	0.607720	-0.326584	-0.326480
C44	C	1.107720	0.173416	0.173520
C45	C	0.644395	-0.287665	-0.287693
C46	C	1.144395	0.212335	0.212307
C47	C	0.717745	-0.290471	-0.290488
C48	C	1.217745	0.209529	0.209512
C49	C	0.386251	-0.316092	-0.316035
C50	C	0.886251	0.183908	0.183965
C51	C	0.312896	-0.313291	-0.313242
C52	C	0.812896	0.186709	0.186758
C53	C	0.312905	-0.393929	-0.393608
C54	C	0.812905	0.106071	0.106392
C55	C	0.386256	-0.396733	-0.396396
C56	C	0.886256	0.103267	0.103604
C57	C	0.422925	-0.357813	-0.357613
C58	C	0.922925	0.142187	0.142387
C59	C	0.532743	-0.323713	-0.323625
C60	C	1.032743	0.176287	0.176375
C61	C	0.497901	-0.360680	-0.360471
C62	C	0.997901	0.139320	0.139529
C63	C	1.014875	-0.505728	-0.341986
C64	C	1.514875	-0.005728	0.158014
C65	C	1.014900	-0.575697	-0.341993
C66	C	1.514900	-0.075697	0.158007
C67	C	1.059847	-0.610271	-0.303494
C68	C	1.559847	-0.110271	0.196506
C69	C	1.059879	-0.676014	-0.303509
C70	C	1.559879	-0.176014	0.196491
C71	C	1.014953	-0.707181	-0.342017
C72	C	1.514953	-0.207181	0.157983
C73	C	0.970003	-0.672600	-0.380524
C74	C	1.470003	-0.172600	0.119476
C75	C	0.969977	-0.606857	-0.380512
C76	C	1.469977	-0.106857	0.119488
N77	N	0.953513	-0.808095	-0.344464
N78	N	1.453513	-0.308095	0.155536
N79	N	0.953540	-0.870547	-0.344471
N80	N	1.453540	-0.370547	0.155529
C81	C	1.015032	-0.905259	-0.342056
C82	C	1.515032	-0.405259	0.157944
N83	N	1.076496	-0.875159	-0.339620
N84	N	1.576496	-0.375159	0.160380
N85	N	1.076468	-0.812701	-0.339609
N86	N	1.576468	-0.312701	0.160391
C87	C	1.014977	-0.778468	-0.342034
C88	C	1.514977	-0.278468	0.157966
C89	C	1.060018	-1.011120	-0.303571
C90	C	1.560018	-0.511120	0.196429
C91	C	1.060052	-1.076865	-0.303591
C92	C	1.560052	-0.576865	0.196409
C93	C	0.970170	-1.073449	-0.380603
C94	C	1.470170	-0.573449	0.119397
C95	C	0.970142	-1.007705	-0.380586
C96	C	1.470142	-0.507705	0.119414
C97	C	1.015065	-0.976545	-0.342067
C98	C	1.515065	-0.476545	0.157933
C99	C	1.198160	-0.349209	-0.349038
C100	C	1.698160	0.150791	0.150962
C101	C	1.276226	-0.352205	-0.352026
C102	C	1.776226	0.147795	0.147974
C103	C	1.015025	-0.342169	-0.506217
C104	C	1.515025	0.157831	-0.006217
C105	C	1.015050	-0.342164	-0.576186
C106	C	1.515050	0.157836	-0.076186
C107	C	1.015079	-0.177994	-0.342077
C108	C	1.515079	0.322006	0.157923
C109	C	1.015126	-0.108027	-0.342100
C110	C	1.515126	0.391973	0.157900
C111	C	1.059997	-0.303625	-0.610786
C112	C	1.559997	0.196375	-0.110786
C113	C	1.059996	-0.303598	-0.676529
C114	C	1.559996	0.196402	-0.176529
C115	C	1.015056	-0.342121	-0.707669
C116	C	1.515056	0.157879	-0.207669
C117	C	0.970100	-0.380662	-0.673060
C118	C	1.470100	0.119338	-0.173060
C119	C	0.970098	-0.380683	-0.607319
C120	C	1.470098	0.119317	-0.107319
N121	N	1.009637	-0.396981	-0.810677
N122	N	1.509637	0.103019	-0.310677
N123	N	1.009644	-0.396959	-0.873129
N124	N	1.509644	0.103041	-0.373129
C125	C	1.015060	-0.342057	-0.905744
C126	C	1.515060	0.157943	-0.405744
N127	N	1.020483	-0.287178	-0.873548
N128	N	1.520483	0.212822	-0.373548
N129	N	1.020480	-0.287201	-0.811091
N130	N	1.520480	0.212799	-0.311091
C131	C	1.015053	-0.342101	-0.778954
C132	C	1.515053	0.157899	-0.278954
C133	C	1.060008	-0.303486	-1.011630
C134	C	1.560008	0.196514	-0.511630
C135	C	1.060002	-0.303457	-1.077373
C136	C	1.560002	0.196543	-0.577373
C137	C	0.970110	-0.380527	-1.073904
C138	C	1.470110	0.119473	-0.573904
C139	C	0.970113	-0.380550	-1.008161
C140	C	1.470113	0.119450	-0.508161
C141	C	1.015065	-0.342030	-0.977028
C142	C	1.515065	0.157970	-0.477028
C143	C	1.014949	-0.342147	-0.178472
C144	C	1.514949	0.157853	0.321528
C145	C	1.015061	-0.341979	-0.108509
C146	C	1.515061	0.158021	0.391491
H147	H	0.416098	-0.284405	-0.284449
H148	H	0.916098	0.215595	0.215551
H149	H	0.933512	-0.411886	-1.099257
H150	H	1.433512	0.088114	-0.599257
Br151	Br	1.120981	-0.968827	-0.251295
Br152	Br	1.620981	-0.468827	0.248705
Br153	Br	1.120883	-0.722946	-0.251256
Br154	Br	1.620883	-0.222946	0.248744
Br155	Br	0.767513	-0.237653	-0.237853
Br156	Br	1.267513	0.262347	0.262147
H157	H	1.096427	-0.584902	-0.272131
H158	H	1.596427	-0.084902	0.227869
Br159	Br	1.121017	-0.251160	-1.124333
Br160	Br	1.621017	0.248840	-0.624333
H161	H	0.614546	-0.399992	-0.399641
H162	H	1.114546	0.100008	0.100359
H163	H	0.283041	-0.425615	-0.425185
H164	H	0.783041	0.074385	0.074815
Br165	Br	0.908974	-0.559932	-0.432767
Br166	Br	1.408974	-0.059932	0.067233
Br167	Br	0.909093	-0.432989	-0.560358
Br168	Br	1.409093	0.067011	-0.060358
Br169	Br	0.909111	-0.432856	-0.961200
Br170	Br	1.409111	0.067144	-0.461200
Br171	Br	1.121011	-0.251209	-0.969374
Br172	Br	1.621011	0.248791	-0.469374
H173	H	1.096658	-1.105014	-0.272241
H174	H	1.596658	-0.605014	0.227759
H175	H	0.747610	-0.405087	-0.404706
H176	H	1.247610	0.094913	0.095294
Br177	Br	0.909037	-0.714896	-0.432790
Br178	Br	1.409037	-0.214896	0.067210
H179	H	0.933593	-1.098824	-0.411959
H180	H	1.433593	-0.598824	0.088041
Br181	Br	0.482958	-0.267093	-0.267199
Br182	Br	0.982958	0.232907	0.232801
Br183	Br	0.263116	-0.256674	-0.256802
Br184	Br	0.763116	0.243326	0.243198
Br185	Br	0.436031	-0.453359	-0.452824
Br186	Br	0.936031	0.046641	0.047176
Br187	Br	0.909137	-0.960780	-0.432837
Br188	Br	1.409137	-0.460780	0.067163
H189	H	1.096600	-0.272259	-0.585442
H190	H	1.596600	0.227741	-0.085442
H191	H	1.096595	-0.272212	-0.704706
H192	H	1.596595	0.227788	-0.204706
H193	H	0.614525	-0.253693	-0.253842
H194	H	1.114525	0.246307	0.246158
H195	H	0.527768	-0.394646	-0.394328
H196	H	1.027768	0.105354	0.105672
Br197	Br	0.909105	-0.432939	-0.715319
Br198	Br	1.409105	0.067061	-0.215319
