data_functionalizedCrystal
_audit_creation_method	'MofGen! by Chris Wilmer'
_symmetry_space_group_name_H-M	'P1'
_symmetry_Int_Tables_number	1
_symmetry_cell_setting	triclinic
loop_
_symmetry_equiv_pos_as_xyz
  x,y,z
_cell_length_a	16.625547
_cell_length_b	13.897448
_cell_length_c	13.897441
_cell_angle_alpha	89.969401
_cell_angle_beta	89.973876
_cell_angle_gamma	90.017629
loop_
_atom_site_label
_atom_site_type_symbol
_atom_site_fract_x
_atom_site_fract_y
_atom_site_fract_z
Zn1	Zn	1.232718	-0.383986	-0.545520
Zn2	Zn	1.566051	-0.050652	-0.212187
Zn3	Zn	1.899384	0.282681	0.121147
Zn4	Zn	1.232629	-0.545307	-0.384221
Zn5	Zn	1.565962	-0.211974	-0.050888
Zn6	Zn	1.899296	0.121359	0.282445
Zn7	Zn	1.097876	-0.384028	-0.384223
Zn8	Zn	1.431210	-0.050694	-0.050890
Zn9	Zn	1.764543	0.282639	0.282444
Zn10	Zn	1.097861	-0.545240	-0.545459
Zn11	Zn	1.431194	-0.211907	-0.212125
Zn12	Zn	1.764528	0.121426	0.121208
O13	O	1.165271	-0.464640	-0.464856
O14	O	1.498604	-0.131307	-0.131522
O15	O	1.831938	0.202026	0.201811
O16	O	1.345538	-0.405396	-0.524148
O17	O	1.678872	-0.072062	-0.190815
O18	O	2.012205	0.261271	0.142519
O19	O	1.214723	-0.523959	-0.249240
O20	O	1.548056	-0.190626	0.084094
O21	O	1.881390	0.142708	0.417427
O22	O	1.115807	-0.249041	-0.405646
O23	O	1.449140	0.084293	-0.072313
O24	O	1.782474	0.417626	0.261021
O25	O	1.345473	-0.523918	-0.405643
O26	O	1.678806	-0.190585	-0.072309
O27	O	2.012140	0.142749	0.261024
O28	O	1.214874	-0.249010	-0.524150
O29	O	1.548207	0.084324	-0.190817
O30	O	1.881541	0.417657	0.142517
O31	O	1.115721	-0.405468	-0.249241
O32	O	1.449054	-0.072134	0.084092
O33	O	1.782388	0.261199	0.417426
O34	O	0.985042	-0.405403	-0.405587
O35	O	1.318375	-0.072069	-0.072253
O36	O	1.651709	0.261264	0.261080
O37	O	1.115781	-0.523804	-0.680449
O38	O	1.449114	-0.190470	-0.347115
O39	O	1.782447	0.142863	-0.013782
O40	O	0.985031	-0.523845	-0.524046
O41	O	1.318364	-0.190511	-0.190712
O42	O	1.651697	0.142822	0.142621
O43	O	1.214859	-0.405331	-0.680494
O44	O	1.548193	-0.071997	-0.347160
O45	O	1.881526	0.261336	-0.013827
O46	O	1.214708	-0.680280	-0.405583
O47	O	1.548042	-0.346947	-0.072250
O48	O	1.881375	-0.013613	0.261083
O49	O	1.115695	-0.680231	-0.524044
O50	O	1.449028	-0.346897	-0.190711
O51	O	1.782362	-0.013564	0.142623
C52	C	0.955780	-0.464622	-0.464810
C53	C	1.289114	-0.131288	-0.131477
C54	C	1.622447	0.202045	0.201856
C55	C	0.866159	-0.464637	-0.464814
C56	C	1.199492	-0.131303	-0.131480
C57	C	1.532826	0.202030	0.201853
C58	C	1.165212	-0.715255	-0.464828
C59	C	1.498546	-0.381921	-0.131495
C60	C	1.831879	-0.048588	0.201839
C61	C	1.165261	-0.822469	-0.464848
C62	C	1.498594	-0.489135	-0.131515
C63	C	1.831927	-0.155802	0.201819
C64	C	1.165345	-1.018764	-0.464909
C65	C	1.498679	-0.685430	-0.131575
C66	C	1.832012	-0.352097	0.201758
C67	C	1.165296	-0.909531	-0.464878
C68	C	1.498629	-0.576198	-0.131545
C69	C	1.831963	-0.242864	0.201789
C70	C	0.793377	-0.464639	-0.464826
C71	C	1.126710	-0.131305	-0.131492
C72	C	1.460043	0.202028	0.201841
C73	C	0.702068	-0.464644	-0.464850
C74	C	1.035402	-0.131310	-0.131516
C75	C	1.368735	0.202023	0.201817
C76	C	0.629292	-0.464653	-0.464874
C77	C	0.962625	-0.131319	-0.131541
C78	C	1.295958	0.202014	0.201792
C79	C	0.537977	-0.464659	-0.464897
C80	C	0.871311	-0.131326	-0.131564
C81	C	1.204644	0.202007	0.201769
C82	C	1.375580	-0.464660	-0.464902
C83	C	1.708913	-0.131326	-0.131569
C84	C	2.042247	0.202007	0.201765
C85	C	1.465201	-0.464668	-0.464922
C86	C	1.798534	-0.131335	-0.131588
C87	C	2.131868	0.201999	0.201745
C88	C	1.165328	-0.464555	-0.716449
C89	C	1.498662	-0.131222	-0.383116
C90	C	1.831995	0.202112	-0.049782
C91	C	1.165353	-0.464519	-0.823663
C92	C	1.498686	-0.131185	-0.490330
C93	C	1.832019	0.202148	-0.156996
C94	C	1.165352	-0.213047	-0.464905
C95	C	1.498685	0.120286	-0.131572
C96	C	1.832019	0.453619	0.201762
C97	C	1.165387	-0.105833	-0.464926
C98	C	1.498720	0.227500	-0.131593
C99	C	1.832053	0.560833	0.201741
C100	C	1.165374	-0.464453	-1.019958
C101	C	1.498708	-0.131120	-0.686625
C102	C	1.832041	0.202213	-0.353292
C103	C	1.165360	-0.464492	-0.910726
C104	C	1.498693	-0.131159	-0.577392
C105	C	1.832027	0.202174	-0.244059
C106	C	1.165260	-0.464656	-0.214241
C107	C	1.498594	-0.131322	0.119092
C108	C	1.831927	0.202011	0.452425
C109	C	1.165392	-0.464420	-0.107028
C110	C	1.498726	-0.131087	0.226305
C111	C	1.832059	0.202246	0.559639
