data_functionalizedCrystal
_audit_creation_method	'MofGen! by Chris Wilmer'
_symmetry_space_group_name_H-M	'P1'
_symmetry_Int_Tables_number	1
_symmetry_cell_setting	triclinic
loop_
_symmetry_equiv_pos_as_xyz
  x,y,z
_cell_length_a	19.077236
_cell_length_b	29.839125
_cell_length_c	19.077432
_cell_angle_alpha	92.312718
_cell_angle_beta	90.072528
_cell_angle_gamma	87.685594
loop_
_atom_site_label
_atom_site_type_symbol
_atom_site_fract_x
_atom_site_fract_y
_atom_site_fract_z
Zn1	Zn	1.085461	-0.275833	0.236788
Zn2	Zn	1.090106	-0.197815	0.354273
Zn3	Zn	0.967965	-0.197576	0.241492
Zn4	Zn	0.972634	-0.269778	0.358968
O5	O	1.029041	-0.235250	0.297880
O6	O	1.184412	-0.268117	0.248439
O7	O	1.073893	-0.134915	0.339316
O8	O	0.979653	-0.210391	0.142536
O9	O	1.187825	-0.210798	0.334755
O10	O	1.065977	-0.267886	0.139079
O11	O	0.984157	-0.134740	0.256456
O12	O	0.870249	-0.204520	0.261009
O13	O	0.987611	-0.333448	0.342757
O14	O	0.873680	-0.257566	0.347319
O15	O	1.070504	-0.337897	0.252991
O16	O	1.078421	-0.204927	0.453228
O17	O	0.992115	-0.257798	0.456678
C18	C	0.846467	-0.230360	0.305184
C19	C	0.768362	-0.228279	0.308326
C20	C	0.729895	-0.257186	0.264933
C21	C	0.656506	-0.255226	0.267882
C22	C	0.621587	-0.224361	0.314227
C23	C	0.660059	-0.195451	0.357622
C24	C	0.733446	-0.197409	0.354669
C25	C	0.402294	-0.215299	0.327866
C26	C	0.328902	-0.213344	0.330816
C27	C	0.325354	-0.273119	0.241075
C28	C	0.398742	-0.275076	0.238130
C29	C	0.437208	-0.246164	0.281522
N30	N	0.546572	-0.222358	0.317244
N31	N	0.512221	-0.248166	0.278501
C32	C	1.029060	-0.352429	0.297873
C33	C	1.029068	-0.402364	0.297870
C34	C	1.072273	-0.714331	0.251010
C35	C	1.072306	-0.902007	0.250948
O36	O	1.108991	-0.928244	0.211174
N37	N	1.029154	-0.923156	0.297678
C38	C	0.985987	-0.897384	0.344424
O39	O	0.949279	-0.919680	0.384164
C40	C	0.985951	-0.709710	0.344481
C41	C	1.029112	-0.688562	0.297753
C42	C	1.115429	-0.693184	0.204285
C43	C	1.115424	-0.646267	0.204303
C44	C	1.072262	-0.620499	0.251046
C45	C	1.029106	-0.641646	0.297771
C46	C	0.942782	-0.683939	0.391223
C47	C	0.942775	-0.637017	0.391232
C48	C	0.985935	-0.615870	0.344503
C49	C	0.985938	-0.568962	0.344533
N50	N	1.029090	-0.547812	0.297803
C51	C	1.072252	-0.573580	0.251060
C52	C	0.986010	-0.995916	0.344391
C53	C	0.986020	-1.042835	0.344378
C54	C	1.072337	-1.047454	0.250901
C55	C	1.072331	-1.000535	0.250919
C56	C	1.029162	-0.974767	0.297661
C57	C	1.072237	-0.475053	0.251102
C58	C	1.072230	-0.428133	0.251127
C59	C	0.985910	-0.423518	0.344600
C60	C	0.985919	-0.470434	0.344579
C61	C	1.029085	-0.496201	0.297824
O62	O	0.949267	-0.542696	0.384281
O63	O	1.108943	-0.551276	0.211315
C64	C	1.072279	-0.761247	0.250991
C65	C	1.029123	-0.782395	0.297716
C66	C	0.985961	-0.756626	0.344459
C67	C	1.029133	-0.829313	0.297703
C68	C	1.072294	-0.855082	0.250959
C69	C	1.115446	-0.833932	0.204230
C70	C	1.115441	-0.787016	0.204248
C71	C	0.942809	-0.777776	0.391189
C72	C	0.942819	-0.824692	0.391168
C73	C	0.985981	-0.850461	0.344424
C74	C	1.212328	-0.240159	0.290548
C75	C	1.290434	-0.242251	0.287424
C76	C	1.036298	-0.230741	0.480449
C77	C	1.039466	-0.228829	0.558550
C78	C	1.029061	-0.118529	0.297835
C79	C	1.029181	-0.068603	0.297635
C80	C	1.021776	-0.239787	0.114598
C81	C	1.018680	-0.241721	0.036494
C82	C	0.995989	-0.255433	0.597065
C83	C	0.998969	-0.253635	0.670449
C84	C	1.045431	-0.225234	0.705316
C85	C	1.088909	-0.198627	0.666796
C86	C	1.085925	-0.200423	0.593414
C87	C	1.059175	-0.216910	0.924591
C88	C	1.062157	-0.215117	0.997979
C89	C	0.972215	-0.270124	1.001627
C90	C	0.969238	-0.271920	0.928242
C91	C	1.012714	-0.245311	0.889729
N92	N	1.048479	-0.223396	0.780327
N93	N	1.009661	-0.247147	0.814720
H94	H	0.764765	-0.173869	0.390004
H95	H	0.907674	-0.841906	0.429226
H96	H	0.907662	-0.756800	0.429255
C97	C	0.951140	-0.282901	0.712812
N98	N	0.915112	-0.304946	0.744720
C99	C	1.119804	-0.977277	0.199510
N100	N	1.155561	-0.959762	0.160784
H101	H	0.950882	-1.060049	0.382436
H102	H	0.433604	-0.191757	0.363199
C103	C	0.918171	-0.303192	0.889892
N104	N	0.879725	-0.326759	0.861005
H105	H	1.121328	-0.178759	0.562055
H106	H	0.958158	-0.278562	0.568680
C107	C	1.140013	-0.167383	0.705154
N108	N	1.178506	-0.143849	0.734044
H109	H	0.936819	-0.291787	1.032992
C110	C	0.283035	-0.304913	0.193335
N111	N	0.251160	-0.328858	0.157371
H112	H	0.427169	-0.300212	0.200393
C113	C	0.290492	-0.179389	0.381802
N114	N	0.261561	-0.153815	0.420204
H115	H	0.625189	-0.278767	0.232548
C116	C	1.162917	-0.721522	0.152861
N117	N	1.198693	-0.742864	0.114130
C118	C	1.113268	-0.183871	1.036332
N119	N	1.151764	-0.160338	1.065220
H120	H	0.631622	-0.170318	0.395354
H121	H	1.107378	-0.410917	0.213074
C122	C	1.119726	-0.503390	0.199673
N123	N	1.155499	-0.524733	0.160941
H124	H	0.950782	-0.487653	0.382635
H125	H	1.094576	-0.195245	0.893239
H126	H	0.758321	-0.282321	0.227195
H127	H	1.150568	-0.629054	0.166251
H128	H	1.107482	-1.068443	0.212842
H129	H	0.907636	-0.701148	0.429274
H130	H	0.907613	-0.616039	0.429289
C131	C	0.938518	-0.967577	0.395816
N132	N	0.902748	-0.946234	0.434551
C133	C	0.938430	-0.395163	0.396012
N134	N	0.902663	-0.373806	0.434731
H135	H	1.150586	-0.769802	0.166197
H136	H	1.150593	-0.854921	0.166172
