data_functionalizedCrystal
_audit_creation_method	'MofGen! by Chris Wilmer'
_symmetry_space_group_name_H-M	'P1'
_symmetry_Int_Tables_number	1
_symmetry_cell_setting	triclinic
loop_
_symmetry_equiv_pos_as_xyz
  x,y,z
_cell_length_a	16.109301
_cell_length_b	10.268362
_cell_length_c	16.109301
_cell_angle_alpha	89.997230
_cell_angle_beta	96.538519
_cell_angle_gamma	90.001892
loop_
_atom_site_label
_atom_site_type_symbol
_atom_site_fract_x
_atom_site_fract_y
_atom_site_fract_z
O1	O	1.103132	0.108222	-0.106863
O2	O	1.603132	0.608222	0.393137
O3	O	0.861071	0.108243	-0.120162
O4	O	1.361071	0.608243	0.379838
O5	O	0.988751	0.108219	0.007518
O6	O	1.488751	0.608219	0.507518
O7	O	0.975452	0.108247	-0.234544
O8	O	1.475452	0.608247	0.265456
O9	O	0.988739	-0.108382	0.007514
O10	O	1.488739	0.391618	0.507514
O11	O	0.861058	-0.108357	-0.120167
O12	O	1.361058	0.391643	0.379833
O13	O	1.103120	-0.108379	-0.106867
O14	O	1.603120	0.391621	0.393133
Cu15	Cu	0.982088	-0.128145	-0.113517
Cu16	Cu	1.482088	0.371855	0.386483
Cu17	Cu	0.982103	0.128010	-0.113512
Cu18	Cu	1.482103	0.628010	0.386488
O19	O	0.975440	-0.108354	-0.234548
O20	O	1.475440	0.391646	0.265452
C21	C	0.830090	-0.000054	-0.119626
C22	C	1.330090	0.499946	0.380374
C23	C	0.737794	-0.000047	-0.118011
C24	C	1.237794	0.499953	0.381989
C25	C	0.515522	-0.000054	-0.190018
C26	C	1.015522	0.499946	0.309982
C27	C	0.428801	-0.000062	-0.188494
C28	C	0.928801	0.499938	0.311506
C29	C	0.448676	-0.000074	-0.037006
C30	C	0.948676	0.499926	0.462994
C31	C	0.535394	-0.000075	-0.038530
C32	C	1.035394	0.499925	0.461470
C33	C	0.568815	-0.000058	-0.115039
C34	C	1.068815	0.499942	0.384961
C35	C	0.395376	-0.000066	-0.111990
C36	C	0.895376	0.499934	0.388010
C37	C	0.301350	-0.000075	-0.110337
C38	C	0.801350	0.499925	0.389663
C39	C	0.662847	-0.000051	-0.116693
C40	C	1.162847	0.499949	0.383307
N41	N	0.982084	-0.308311	-0.113521
N42	N	1.482084	0.191689	0.386479
C43	C	0.982090	-0.426154	-0.113521
C44	C	1.482090	0.073846	0.386479
C45	C	0.982101	-0.573991	-0.113513
C46	C	1.482101	-0.073991	0.386487
C47	C	1.134101	-0.000078	-0.107404
C48	C	1.634101	0.499922	0.392596
C49	C	1.226397	-0.000077	-0.109019
C50	C	1.726397	0.499923	0.390981
C51	C	0.988206	-0.000082	0.038491
C52	C	1.488206	0.499918	0.538491
C53	C	0.986591	-0.000084	0.130786
C54	C	1.486591	0.499916	0.630786
N55	N	0.982113	0.308176	-0.113502
N56	N	1.482113	0.808176	0.386498
C57	C	0.975984	-0.000050	-0.265521
C58	C	1.475984	0.499950	0.234479
C59	C	0.977600	-0.000040	-0.357816
C60	C	1.477600	0.499960	0.142184
C61	C	1.058599	-0.000070	0.353059
C62	C	1.558599	0.499930	0.853059
C63	C	1.057075	-0.000059	0.439779
C64	C	1.557075	0.499941	0.939779
C65	C	0.905586	-0.000050	0.419905
C66	C	1.405586	0.499950	0.919905
C67	C	0.907111	-0.000052	0.333186
C68	C	1.407111	0.499948	0.833186
C69	C	0.983620	-0.000068	0.299766
C70	C	1.483620	0.499932	0.799766
C71	C	0.980571	-0.000056	0.473205
C72	C	1.480571	0.499944	0.973205
C73	C	0.978918	-0.000044	0.567231
C74	C	1.478918	0.499956	1.067231
C75	C	0.985273	-0.000077	0.205734
C76	C	1.485273	0.499923	0.705734
H77	H	0.542730	-0.000050	-0.252317
H78	H	1.042730	0.499950	0.247683
O79	O	0.376998	-0.000280	-0.261306
O80	O	0.876998	0.499720	0.238694
C81	C	0.326225	-0.112443	-0.264954
C82	C	0.826225	0.387557	0.235046
H83	H	0.357996	-0.190858	-0.222435
H84	H	0.857996	0.309142	0.277565
H85	H	0.263172	-0.087086	-0.243448
H86	H	0.763172	0.412914	0.256552
C87	C	0.274000	-0.066981	-0.407647
C88	C	0.774000	0.433019	0.092353
C89	C	0.313024	-0.163296	-0.355430
C90	C	0.813024	0.336704	0.144570
H91	H	0.265853	-0.098348	-0.463457
H92	H	0.765853	0.401652	0.036543
H93	H	0.308203	0.008588	-0.405189
H94	H	0.808203	0.508588	0.094811
H95	H	0.221460	-0.045859	-0.389715
H96	H	0.721460	0.454141	0.110285
H97	H	0.365567	-0.184404	-0.373355
H98	H	0.865567	0.315596	0.126645
H99	H	0.278829	-0.238870	-0.357893
H100	H	0.778829	0.261130	0.142107
H101	H	0.421454	-0.000096	0.025285
H102	H	0.921454	0.499904	0.525285
H103	H	0.578788	-0.000082	0.022530
H104	H	1.078788	0.499918	0.522530
O105	O	1.132989	-0.000011	0.320731
O106	O	1.632989	0.499989	0.820731
C107	C	1.198839	-0.000038	0.386369
C108	C	1.698839	0.499962	0.886369
H109	H	1.175545	0.040966	0.445271
H110	H	1.675545	0.540966	0.945271
H111	H	1.221968	-0.103951	0.398651
H112	H	1.721968	0.396049	0.898651
C113	C	1.299605	0.034550	0.289569
C114	C	1.799605	0.534550	0.789569
C115	C	1.270996	0.084922	0.361911
C116	C	1.770996	0.584922	0.861911
H117	H	1.344116	0.086952	0.274482
H118	H	1.844116	0.586952	0.774482
H119	H	1.255241	0.034563	0.245347
H120	H	1.755241	0.534563	0.745347
H121	H	1.318873	-0.052043	0.299814
H122	H	1.818873	0.447957	0.799814
H123	H	1.251719	0.171507	0.351663
H124	H	1.751719	0.671507	0.851663
H125	H	1.315359	0.084926	0.406132
H126	H	1.815359	0.584926	0.906132
H127	H	0.843295	-0.000040	0.447127
H128	H	1.343295	0.499960	0.947127
O129	O	0.834195	-0.000109	0.281530
O130	O	1.334195	0.499891	0.781530
C131	C	0.766339	-0.000073	0.329621
C132	C	1.266339	0.499927	0.829621
H133	H	0.787451	-0.041083	0.394351
H134	H	1.287451	0.458917	0.894351
H135	H	0.742892	0.103843	0.335785
H136	H	1.242892	0.603843	0.835785
C137	C	0.669442	-0.034640	0.206881
C138	C	1.169442	0.465360	0.706881
C139	C	0.695370	-0.085020	0.286383
C140	C	1.195370	0.414980	0.786383
H141	H	0.625662	-0.087033	0.180210
H142	H	1.125662	0.412967	0.680210
H143	H	0.715156	-0.034659	0.174481
H144	H	1.215156	0.465341	0.674481
H145	H	0.649908	0.051956	0.212029
H146	H	1.149908	0.551956	0.712029
H147	H	0.714912	-0.171607	0.281233
H148	H	1.214912	0.328393	0.781233
H149	H	0.649656	-0.085017	0.318782
H150	H	1.149656	0.414983	0.818782
H151	H	1.118130	-0.000057	0.483168
H152	H	1.618130	0.499943	0.983168
