data_functionalizedCrystal
_audit_creation_method	'MofGen! by Chris Wilmer'
_symmetry_space_group_name_H-M	'P1'
_symmetry_Int_Tables_number	1
_symmetry_cell_setting	triclinic
loop_
_symmetry_equiv_pos_as_xyz
  x,y,z
_cell_length_a	10.685661
_cell_length_b	13.897447
_cell_length_c	10.685314
_cell_angle_alpha	94.335458
_cell_angle_beta	90.318062
_cell_angle_gamma	85.641070
loop_
_atom_site_label
_atom_site_type_symbol
_atom_site_fract_x
_atom_site_fract_y
_atom_site_fract_z
Zn1	Zn	1.863535	-0.543425	-0.856028
Zn2	Zn	2.363535	-0.043425	-0.356028
Zn3	Zn	1.879476	-0.693402	-0.646252
Zn4	Zn	2.379476	-0.193402	-0.146252
Zn5	Zn	1.669824	-0.518885	-0.630228
Zn6	Zn	2.169824	-0.018885	-0.130228
Zn7	Zn	1.653714	-0.691426	-0.839918
Zn8	Zn	2.153714	-0.191426	-0.339918
O9	O	1.766637	-0.611785	-0.743107
O10	O	2.266637	-0.111785	-0.243107
O11	O	2.041200	-0.574417	-0.841648
O12	O	2.541200	-0.074417	-0.341648
O13	O	1.865078	-0.660809	-0.468578
O14	O	2.365078	-0.160809	0.031422
O15	O	1.695592	-0.387165	-0.660217
O16	O	2.195592	0.112835	-0.160217
O17	O	2.052912	-0.684605	-0.687527
O18	O	2.552912	-0.184605	-0.187527
O19	O	1.837910	-0.405194	-0.826111
O20	O	2.337910	0.094806	-0.326111
O21	O	1.711049	-0.532592	-0.456806
O22	O	2.211049	-0.032592	0.043194
O23	O	1.492137	-0.530676	-0.644596
O24	O	1.992137	-0.030676	-0.144596
O25	O	1.668134	-0.681236	-1.017604
O26	O	2.168134	-0.181236	-0.517604
O27	O	1.480301	-0.657441	-0.798655
O28	O	1.980301	-0.157441	-0.298655
O29	O	1.822289	-0.572500	-1.029439
O30	O	2.322289	-0.072500	-0.529439
O31	O	1.849457	-0.828116	-0.671906
O32	O	2.349457	-0.328116	-0.171906
O33	O	1.683591	-0.826664	-0.814192
O34	O	2.183591	-0.326664	-0.314192
C35	C	1.440700	-0.591182	-0.718139
C36	C	1.940700	-0.091182	-0.218139
C37	C	1.301261	-0.582393	-0.707488
C38	C	1.801261	-0.082393	-0.207488
C39	C	1.766538	-0.862391	-0.743070
C40	C	2.266538	-0.362391	-0.243070
C41	C	1.766606	-0.969611	-0.743105
C42	C	2.266606	-0.469611	-0.243105
C43	C	1.766665	-1.056686	-0.743138
C44	C	2.266665	-0.556686	-0.243138
C45	C	1.766750	-1.165926	-0.743177
C46	C	2.266750	-0.665926	-0.243177
C47	C	2.093847	-0.632468	-0.768172
C48	C	2.593847	-0.132468	-0.268172
C49	C	2.233284	-0.641283	-0.778853
C50	C	2.733284	-0.141283	-0.278853
C51	C	1.741636	-0.629385	-1.070312
C52	C	2.241636	-0.129385	-0.570312
C53	C	1.730982	-0.636886	-1.209747
C54	C	2.230982	-0.136886	-0.709747
C55	C	1.766770	-0.360203	-0.743174
C56	C	2.266770	0.139797	-0.243174
C57	C	1.766826	-0.252994	-0.743202
C58	C	2.266826	0.247006	-0.243202
C59	C	1.791614	-0.594187	-0.417180
C60	C	2.291614	-0.094187	0.082820
C61	C	1.802511	-0.586431	-0.277764
C62	C	2.302511	-0.086431	0.222236
H63	H	1.281768	-0.698426	-0.848107
H64	H	1.781768	-0.198426	-0.348107
Cl65	Cl	1.909635	-0.510859	-1.202974
Cl66	Cl	2.409635	-0.010859	-0.702974
Cl67	Cl	1.623849	-0.712443	-1.284531
Cl68	Cl	2.123849	-0.212443	-0.784531
Cl69	Cl	1.226418	-0.494158	-0.600584
Cl70	Cl	1.726418	0.005842	-0.100584
