data_functionalizedCrystal
_audit_creation_method	'MofGen! by Chris Wilmer'
_symmetry_space_group_name_H-M	'P1'
_symmetry_Int_Tables_number	1
_symmetry_cell_setting	triclinic
loop_
_symmetry_equiv_pos_as_xyz
  x,y,z
_cell_length_a	10.685980
_cell_length_b	16.120444
_cell_length_c	16.120256
_cell_angle_alpha	95.616860
_cell_angle_beta	88.280062
_cell_angle_gamma	97.501748
loop_
_atom_site_label
_atom_site_type_symbol
_atom_site_fract_x
_atom_site_fract_y
_atom_site_fract_z
Zn1	Zn	1.864187	-0.266960	-0.579451
Zn2	Zn	2.197520	0.066373	-0.246118
Zn3	Zn	2.530853	0.399706	0.087215
Zn4	Zn	1.864024	-0.399654	-0.446755
Zn5	Zn	2.197358	-0.066321	-0.113422
Zn6	Zn	2.530691	0.267012	0.219912
Zn7	Zn	1.664433	-0.269515	-0.430054
Zn8	Zn	1.997767	0.063819	-0.096720
Zn9	Zn	2.331100	0.397152	0.236613
Zn10	Zn	1.641835	-0.417403	-0.575753
Zn11	Zn	1.975168	-0.084070	-0.242419
Zn12	Zn	2.308502	0.249263	0.090914
O13	O	1.758620	-0.338383	-0.508003
O14	O	2.091953	-0.005050	-0.174670
O15	O	2.425287	0.328283	0.158664
O16	O	2.040750	-0.276065	-0.570386
O17	O	2.374083	0.057268	-0.237053
O18	O	2.707416	0.390601	0.096280
O19	O	1.846938	-0.376032	-0.328030
O20	O	2.180271	-0.042699	0.005303
O21	O	2.513604	0.290635	0.338637
O22	O	1.700456	-0.151751	-0.444430
O23	O	2.033790	0.181582	-0.111097
O24	O	2.367123	0.514916	0.222237
O25	O	2.040630	-0.373555	-0.472895
O26	O	2.373964	-0.040222	-0.139561
O27	O	2.707297	0.293112	0.193772
O28	O	1.847214	-0.149874	-0.554192
O29	O	2.180548	0.183459	-0.220859
O30	O	2.513881	0.516792	0.112475
O31	O	1.700299	-0.280419	-0.315760
O32	O	2.033632	0.052914	0.017573
O33	O	2.366966	0.386248	0.350907
O34	O	1.484851	-0.297630	-0.440844
O35	O	1.818185	0.035704	-0.107510
O36	O	2.151518	0.369037	0.225823
O37	O	1.661941	-0.403806	-0.692753
O38	O	1.995274	-0.070472	-0.359419
O39	O	2.328608	0.262861	-0.026086
O40	O	1.468248	-0.406283	-0.547888
O41	O	1.801582	-0.072949	-0.214555
O42	O	2.134915	0.260384	0.118779
O43	O	1.825302	-0.293276	-0.695470
O44	O	2.158635	0.040057	-0.362137
O45	O	2.491968	0.373391	-0.028803
O46	O	1.825025	-0.519434	-0.469308
O47	O	2.158358	-0.186100	-0.135975
O48	O	2.491692	0.147233	0.197358
O49	O	1.661784	-0.532474	-0.564082
O50	O	1.995117	-0.199140	-0.230749
O51	O	2.328450	0.134193	0.102584
C52	C	1.430763	-0.354160	-0.492153
C53	C	1.764097	-0.020827	-0.158819
C54	C	2.097430	0.312507	0.174514
C55	C	1.290502	-0.360931	-0.485392
C56	C	1.623835	-0.027597	-0.152059
C57	C	1.957168	0.305736	0.181274
C58	C	1.740967	-0.556400	-0.518126
C59	C	2.074301	-0.223067	-0.184793
C60	C	2.407634	0.110267	0.148541
C61	C	1.733529	-0.649664	-0.522490
C62	C	2.066862	-0.316331	-0.189157
C63	C	2.400195	0.017002	0.144177
C64	C	1.797503	-0.855491	-0.485559
C65	C	2.130836	-0.522158	-0.152225
C66	C	2.464169	-0.188825	0.181108
C67	C	1.719970	-0.820413	-0.530468
C68	C	2.053303	-0.487080	-0.197134
C69	C	2.386637	-0.153746	0.136199
C70	C	1.727516	-0.725400	-0.526028
C71	C	2.060850	-0.392066	-0.192694
C72	C	2.394183	-0.058733	0.140639
C73	C	1.789958	-0.950513	-0.489998
C74	C	2.123292	-0.617180	-0.156664
C75	C	2.456625	-0.283847	0.176669
C76	C	2.087757	-0.322545	-0.523916
C77	C	2.421090	0.010788	-0.190583
C78	C	2.754423	0.344121	0.142751
C79	C	2.228015	-0.315796	-0.530697
C80	C	2.561348	0.017537	-0.197364
C81	C	2.894682	0.350870	0.135969
C82	C	1.741119	-0.350236	-0.725166
C83	C	2.074452	-0.016902	-0.391832
C84	C	2.407785	0.316431	-0.058499
C85	C	1.733661	-0.355287	-0.817707
C86	C	2.066994	-0.021953	-0.484374
C87	C	2.400327	0.311380	-0.151041
C88	C	1.776374	-0.119514	-0.497861
C89	C	2.109708	0.213819	-0.164527
C90	C	2.443041	0.547152	0.168806
C91	C	1.783940	-0.026246	-0.493538
C92	C	2.117274	0.307088	-0.160205
C93	C	2.450607	0.640421	0.173128
C94	C	1.797512	-0.312022	-1.029715
C95	C	2.130845	0.021311	-0.696381
C96	C	2.464178	0.354645	-0.363048
C97	C	1.720005	-0.364475	-0.987133
C98	C	2.053338	-0.031142	-0.653800
C99	C	2.386672	0.302191	-0.320466
C100	C	1.727605	-0.359361	-0.892856
C101	C	2.060939	-0.026028	-0.559522
C102	C	2.394272	0.307305	-0.226189
C103	C	1.789913	-0.317135	-1.124001
C104	C	2.123246	0.016198	-0.790667
C105	C	2.456580	0.349532	-0.457334
C106	C	1.776130	-0.326513	-0.291686
C107	C	2.109464	0.006821	0.041647
C108	C	2.442797	0.340154	0.374980
C109	C	1.783852	-0.321214	-0.199146
C110	C	2.117185	0.012120	0.134187
C111	C	2.450519	0.345453	0.467521
H112	H	1.647924	-0.861739	-0.572250
H113	H	1.981258	-0.528406	-0.238917
H114	H	2.314591	-0.195072	0.094417
C115	C	1.622657	-0.430335	-1.033527
C116	C	1.955991	-0.097002	-0.700193
C117	C	2.289324	0.236331	-0.366860
H118	H	1.575023	-0.462571	-0.994410
H119	H	1.908357	-0.129238	-0.661076
H120	H	2.241690	0.204095	-0.327743
H121	H	1.665286	-0.466375	-1.071492
H122	H	1.998619	-0.133042	-0.738158
H123	H	2.331952	0.200291	-0.404825
H124	H	1.567591	-0.402684	-1.063292
H125	H	1.900924	-0.069351	-0.729959
H126	H	2.234257	0.263983	-0.396626
C127	C	1.217815	-0.420139	-0.426003
C128	C	1.551148	-0.086806	-0.092670
C129	C	1.884481	0.246528	0.240664
H130	H	1.129915	-0.417084	-0.429099
H131	H	1.463248	-0.083751	-0.095765
H132	H	1.796582	0.249583	0.237568
H133	H	1.244843	-0.403697	-0.370533
H134	H	1.578177	-0.070364	-0.037200
H135	H	1.911510	0.262970	0.296134
H136	H	1.233829	-0.476172	-0.441752
H137	H	1.567162	-0.142838	-0.108419
H138	H	1.900495	0.190495	0.224914
C139	C	1.894861	-0.246172	-0.983322
C140	C	2.228194	0.087161	-0.649989
C141	C	2.561527	0.420495	-0.316655
H142	H	1.942490	-0.213928	-1.022434
H143	H	2.275824	0.119405	-0.689101
H144	H	2.609157	0.452739	-0.355767
H145	H	1.949912	-0.273825	-0.953554
H146	H	2.283246	0.059508	-0.620220
H147	H	2.616579	0.392842	-0.286887
H148	H	1.852227	-0.210127	-0.945358
H149	H	2.185560	0.123206	-0.612024
H150	H	2.518894	0.456540	-0.278691
C151	C	1.300690	-0.256593	-0.590088
C152	C	1.634024	0.076741	-0.256754
C153	C	1.967357	0.410074	0.076579
H154	H	1.242684	-0.229181	-0.617599
H155	H	1.576017	0.104152	-0.284266
H156	H	1.909350	0.437486	0.049067
H157	H	1.346604	-0.288269	-0.630255
H158	H	1.679937	0.045064	-0.296922
H159	H	2.013271	0.378397	0.036412
H160	H	1.357613	-0.215789	-0.559041
H161	H	1.690947	0.117544	-0.225708
H162	H	2.024280	0.450878	0.107625
C163	C	1.894813	-0.799670	-0.429110
C164	C	2.228147	-0.466337	-0.095777
C165	C	2.561480	-0.133004	0.237557
H166	H	1.887168	-0.742210	-0.433489
H167	H	2.220501	-0.408877	-0.100156
H168	H	2.553834	-0.075544	0.233177
H169	H	1.977495	-0.810499	-0.446081
H170	H	2.310828	-0.477166	-0.112748
H171	H	2.644162	-0.143832	0.220585
H172	H	1.879788	-0.811849	-0.372925
H173	H	2.213121	-0.478516	-0.039591
H174	H	2.546454	-0.145183	0.293742
