data_functionalizedCrystal
_audit_creation_method	'MofGen! by Chris Wilmer'
_symmetry_space_group_name_H-M	'P1'
_symmetry_Int_Tables_number	1
_symmetry_cell_setting	triclinic
loop_
_symmetry_equiv_pos_as_xyz
  x,y,z
_cell_length_a	27.731988
_cell_length_b	19.288865
_cell_length_c	26.809956
_cell_angle_alpha	90.011357
_cell_angle_beta	90.012008
_cell_angle_gamma	82.877306
loop_
_atom_site_label
_atom_site_type_symbol
_atom_site_fract_x
_atom_site_fract_y
_atom_site_fract_z
O1	O	-0.641209	-0.082450	-0.041347
O2	O	-0.307875	0.250883	0.291986
O3	O	0.025458	0.584216	0.625320
O4	O	-0.500449	-0.095060	-0.041379
O5	O	-0.167116	0.238273	0.291954
O6	O	0.166217	0.571606	0.625288
O7	O	-0.574896	0.012402	-0.041352
O8	O	-0.241563	0.345735	0.291981
O9	O	0.091770	0.679068	0.625314
O10	O	-0.566762	-0.189912	-0.041374
O11	O	-0.233428	0.143421	0.291959
O12	O	0.099905	0.476754	0.625293
O13	O	-0.574863	0.012403	0.041607
O14	O	-0.241529	0.345736	0.374940
O15	O	0.091804	0.679069	0.708274
O16	O	-0.500416	-0.095059	0.041580
O17	O	-0.167082	0.238274	0.374913
O18	O	0.166251	0.571608	0.708247
O19	O	-0.641175	-0.082449	0.041612
O20	O	-0.307842	0.250884	0.374946
O21	O	0.025492	0.584218	0.708279
Zn22	Zn	-0.570790	-0.088754	0.054768
Zn23	Zn	-0.237457	0.244579	0.388101
Zn24	Zn	0.095877	0.577913	0.721434
Zn25	Zn	-0.570834	-0.088755	-0.054535
Zn26	Zn	-0.237501	0.244578	0.278799
Zn27	Zn	0.095832	0.577911	0.612132
O28	O	-0.566728	-0.189911	0.041585
O29	O	-0.233395	0.143422	0.374919
O30	O	0.099939	0.476756	0.708252
C31	C	-0.482424	-0.094801	0.000097
C32	C	-0.149091	0.238532	0.333430
C33	C	0.184243	0.571865	0.666763
C34	C	-0.428765	-0.094024	0.000085
C35	C	-0.095432	0.239310	0.333418
C36	C	0.237901	0.572643	0.666751
C37	C	-0.574618	0.038277	0.000129
C38	C	-0.241284	0.371610	0.333462
C39	C	0.092049	0.704944	0.666795
C40	C	-0.573832	0.115375	0.000133
C41	C	-0.240499	0.448709	0.333466
C42	C	0.092835	0.782042	0.666800
N43	N	-0.570763	-0.088752	0.129364
N44	N	-0.237430	0.244581	0.462697
N45	N	0.095904	0.577914	0.796030
C46	C	-0.045606	-0.088386	-0.045114
C47	C	0.287728	0.244947	0.288219
C48	C	0.621061	0.578281	0.621553
C49	C	-0.247272	-0.091351	-0.045127
C50	C	0.086061	0.241982	0.288207
C51	C	0.419394	0.575316	0.621540
O52	O	-0.273362	-0.091707	-0.083586
O53	O	0.059971	0.241626	0.249747
O54	O	0.393304	0.574960	0.583081
N55	N	-0.272476	-0.091721	0.000094
N56	N	0.060858	0.241612	0.333427
N57	N	0.394191	0.574945	0.666760
C58	C	-0.247259	-0.091346	0.045320
C59	C	0.086074	0.241988	0.378654
C60	C	0.419407	0.575321	0.711987
O61	O	-0.273324	-0.091722	0.083782
O62	O	0.060009	0.241612	0.417116
O63	O	0.393343	0.574945	0.750449
C64	C	-0.045594	-0.088376	0.045332
C65	C	0.287740	0.244958	0.378666
C66	C	0.621073	0.578291	0.711999
C67	C	-0.020393	-0.088013	0.000109
C68	C	0.312941	0.245321	0.333442
C69	C	0.646274	0.578654	0.666776
C70	C	-0.020405	-0.088022	-0.090333
C71	C	0.312929	0.245311	0.243000
C72	C	0.646262	0.578645	0.576333
C73	C	0.030010	-0.087285	-0.090330
C74	C	0.363343	0.246049	0.243004
C75	C	0.696676	0.579382	0.576337
C76	C	0.055223	-0.086911	-0.045107
C77	C	0.388556	0.246422	0.288227
C78	C	0.721889	0.579756	0.621560
C79	C	0.030021	-0.087275	0.000113
C80	C	0.363355	0.246058	0.333446
C81	C	0.696688	0.579391	0.666779
C82	C	-0.020379	-0.087995	0.090558
C83	C	0.312954	0.245338	0.423892
C84	C	0.646288	0.578671	0.757225
C85	C	0.030041	-0.087251	0.090557
C86	C	0.363374	0.246082	0.423891
C87	C	0.696707	0.579416	0.757224
C88	C	0.055242	-0.086888	0.045334
C89	C	0.388575	0.246446	0.378667
C90	C	0.721908	0.579779	0.712001
C91	C	0.105648	-0.086164	0.045339
C92	C	0.438982	0.247169	0.378673
C93	C	0.772315	0.580502	0.712006
N94	N	0.130851	-0.085794	0.000119
N95	N	0.464185	0.247539	0.333453
N96	N	0.797518	0.580873	0.666786
C97	C	0.105639	-0.086167	-0.045104
C98	C	0.438972	0.247166	0.288229
C99	C	0.772305	0.580499	0.621563
C100	C	-0.353136	-0.092906	0.045311
C101	C	-0.019803	0.240427	0.378644
C102	C	0.313530	0.573760	0.711977
C103	C	-0.403552	-0.093650	0.045308
C104	C	-0.070219	0.239683	0.378641
C105	C	0.263114	0.573016	0.711974
C106	C	-0.403562	-0.093654	-0.045139
C107	C	-0.070229	0.239679	0.288194
C108	C	0.263104	0.573013	0.621528
C109	C	-0.353145	-0.092915	-0.045136
C110	C	-0.019812	0.240418	0.288198
C111	C	0.313522	0.573751	0.621531
C112	C	-0.327933	-0.092536	0.000090
C113	C	0.005400	0.240797	0.333424
C114	C	0.338733	0.574131	0.666757
C115	C	0.211512	-0.084619	-0.045093
C116	C	0.544845	0.248714	0.288240
C117	C	0.878178	0.582047	0.621574
C118	C	0.261931	-0.083885	-0.045085
C119	C	0.595264	0.249448	0.288248
C120	C	0.928597	0.582782	0.621581
C121	C	0.261936	-0.083877	0.045361
C122	C	0.595269	0.249456	0.378695
C123	C	0.928602	0.582789	0.712028
C124	C	0.211522	-0.084616	0.045354
C125	C	0.544855	0.248718	0.378687
C126	C	0.878188	0.582051	0.712021
C127	C	0.186311	-0.084984	0.000123
C128	C	0.519644	0.248349	0.333456
C129	C	0.852977	0.581682	0.666790
O130	O	0.131769	-0.085800	0.083779
O131	O	0.465102	0.247533	0.417112
O132	O	0.798435	0.580867	0.750445
O133	O	0.131711	-0.085776	-0.083560
O134	O	0.465044	0.247557	0.249773
O135	O	0.798377	0.580891	0.583106
C136	C	-0.096020	-0.089123	-0.045118
C137	C	0.237314	0.244210	0.288216
C138	C	0.570647	0.577543	0.621549
C139	C	-0.121221	-0.089487	0.000102
C140	C	0.212113	0.243846	0.333435
C141	C	0.545446	0.577179	0.666769
C142	C	-0.096008	-0.089114	0.045325
C143	C	0.237326	0.244219	0.378658
C144	C	0.570659	0.577553	0.711992
C145	C	-0.171637	-0.090231	0.000099
C146	C	0.161697	0.243102	0.333432
C147	C	0.495030	0.576436	0.666766
C148	C	-0.196850	-0.090604	-0.045124
C149	C	0.136484	0.242729	0.288209
C150	C	0.469817	0.576062	0.621543
C151	C	-0.171647	-0.090234	-0.090344
C152	C	0.161687	0.243099	0.242989
C153	C	0.495020	0.576433	0.576322
C154	C	-0.121233	-0.089497	-0.090341
C155	C	0.212101	0.243837	0.242993
C156	C	0.545434	0.577170	0.576326
C157	C	-0.121211	-0.089484	0.090545
C158	C	0.212122	0.243849	0.423878
C159	C	0.545456	0.577182	0.757212
C160	C	-0.171625	-0.090223	0.090538
C161	C	0.161708	0.243111	0.423871
C162	C	0.495042	0.576444	0.757205
C163	C	-0.196838	-0.090596	0.045315
C164	C	0.136495	0.242737	0.378648
C165	C	0.469829	0.576071	0.711981
C166	C	0.340800	-0.082714	0.000134
C167	C	0.674134	0.250619	0.333467
C168	C	1.007467	0.583952	0.666801
C169	C	0.287143	-0.083511	0.000138
C170	C	0.620477	0.249822	0.333471
C171	C	0.953810	0.583155	0.666805
C172	C	-0.567007	-0.215786	0.000103
C173	C	-0.233673	0.117547	0.333437
C174	C	0.099660	0.450880	0.666770
C175	C	-0.567792	-0.292885	0.000096
C176	C	-0.234459	0.040449	0.333429
C177	C	0.098874	0.373782	0.666762
C178	C	-0.617514	0.160358	0.000145
C179	C	-0.284181	0.493691	0.333479
C180	C	0.049153	0.827024	0.666812
C181	C	-0.616776	0.232800	0.000137
C182	C	-0.283443	0.566133	0.333471
C183	C	0.049891	0.899466	0.666804
C184	C	-0.572353	0.260257	0.000127
C185	C	-0.239020	0.593590	0.333460
C186	C	0.094314	0.926923	0.666794
C187	C	-0.528665	0.215265	0.000112
C188	C	-0.195332	0.548598	0.333445
C189	C	0.138001	0.881931	0.666778
C190	C	-0.529405	0.142824	0.000115
C191	C	-0.196071	0.476157	0.333448
C192	C	0.137262	0.809491	0.666781
C193	C	-0.537420	0.368316	0.029178
C194	C	-0.204086	0.701649	0.362511
C195	C	0.129247	1.034983	0.695844
C196	C	-0.536682	0.440756	0.029178
C197	C	-0.203349	0.774089	0.362511
C198	C	0.129984	1.107422	0.695844
C199	C	-0.570071	0.483687	0.000115
C200	C	-0.236737	0.817021	0.333449
C201	C	0.096596	1.150354	0.666782
C202	C	-0.604205	0.454172	-0.028941
C203	C	-0.270872	0.787505	0.304392
C204	C	0.062462	1.120839	0.637726
C205	C	-0.604944	0.381731	-0.028938
C206	C	-0.271611	0.715065	0.304395
C207	C	0.061722	1.048398	0.637729
C208	C	-0.571546	0.338805	0.000123
C209	C	-0.238213	0.672139	0.333457
C210	C	0.095120	1.005472	0.666790
C211	C	-0.612956	0.607220	0.000118
C212	C	-0.279622	0.940554	0.333452
C213	C	0.053711	1.273887	0.666785
C214	C	-0.612216	0.679663	0.000107
C215	C	-0.278882	1.012997	0.333440
C216	C	0.054451	1.346330	0.666774
C217	C	-0.524104	0.662127	0.000086
C218	C	-0.190770	0.995460	0.333420
C219	C	0.142563	1.328793	0.666753
C220	C	-0.524845	0.589685	0.000092
C221	C	-0.191512	0.923018	0.333426
C222	C	0.141822	1.256352	0.666759
C223	C	-0.569272	0.562236	0.000111
C224	C	-0.235939	0.895570	0.333444
C225	C	0.097395	1.228903	0.666777
N226	N	-0.570865	-0.088751	-0.129131
N227	N	-0.237532	0.244582	0.204203
N228	N	0.095802	0.577915	0.537536
C229	C	-0.537836	-0.136317	0.526235
C230	C	-0.204503	0.197016	0.859569
C231	C	0.128831	0.530350	1.192902
C232	C	-0.537811	-0.136317	0.317357
C233	C	-0.204477	0.197016	0.650691
C234	C	0.128856	0.530349	0.984024
O235	O	-0.509754	-0.176752	0.290347
O236	O	-0.176421	0.156581	0.623680
O237	O	0.156913	0.489915	0.957013
N238	N	-0.570780	-0.088750	0.291242
N239	N	-0.237447	0.244583	0.624576
N240	N	0.095887	0.577916	0.957909
C241	C	-0.603756	-0.041176	0.317350
C242	C	-0.270422	0.292157	0.650683
C243	C	0.062911	0.625490	0.984016
O244	O	-0.631794	-0.000713	0.290344
O245	O	-0.298461	0.332621	0.623678
O246	O	0.034872	0.665954	0.957011
C247	C	-0.603778	-0.041173	0.526226
C248	C	-0.270445	0.292160	0.859560
C249	C	0.062888	0.625493	1.192893
C250	C	-0.570810	-0.088748	0.552339
C251	C	-0.237477	0.244585	0.885672
C252	C	0.095856	0.577918	1.219006
C253	C	-0.504870	-0.183888	0.552348
C254	C	-0.171537	0.149445	0.885681
C255	C	0.161796	0.482779	1.219014
C256	C	-0.504879	-0.183890	0.604564
C257	C	-0.171545	0.149444	0.937897
C258	C	0.161788	0.482777	1.271231
C259	C	-0.537853	-0.136321	0.630668
C260	C	-0.204519	0.197012	0.964001
C261	C	0.128814	0.530346	1.297334
C262	C	-0.570819	-0.088750	0.604555
C263	C	-0.237485	0.244583	0.937889
C264	C	0.095848	0.577916	1.271222
C265	C	-0.636751	0.006403	0.552333
C266	C	-0.303418	0.339737	0.885666
C267	C	0.029915	0.673070	1.219000
C268	C	-0.636753	0.006401	0.604555
C269	C	-0.303420	0.339734	0.937889
C270	C	0.029913	0.673068	1.271222
C271	C	-0.603785	-0.041174	0.630668
C272	C	-0.270452	0.292159	0.964001
C273	C	0.062881	0.625493	1.297335
C274	C	-0.603801	-0.041184	0.682875
C275	C	-0.270468	0.292150	1.016209
C276	C	0.062865	0.625483	1.349542
N277	N	-0.570832	-0.088751	0.708990
N278	N	-0.237499	0.244582	1.042324
N279	N	0.095835	0.577916	1.375657
C280	C	-0.537858	-0.136320	0.682887
C281	C	-0.204524	0.197014	1.016220
C282	C	0.128809	0.530347	1.349553
C283	C	-0.603742	-0.041182	0.207686
C284	C	-0.270409	0.292151	0.541020
C285	C	0.062924	0.625484	0.874353
C286	C	-0.603737	-0.041184	0.155468
C287	C	-0.270404	0.292150	0.488801
C288	C	0.062929	0.625483	0.822134
C289	C	-0.537792	-0.136324	0.155479
C290	C	-0.204458	0.197009	0.488812
C291	C	0.128875	0.530343	0.822146
C292	C	-0.537799	-0.136325	0.207699
C293	C	-0.204466	0.197008	0.541032
C294	C	0.128867	0.530341	0.874365
C295	C	-0.570773	-0.088750	0.233802
C296	C	-0.237440	0.244584	0.567135
C297	C	0.095894	0.577917	0.900468
C298	C	-0.537878	-0.136321	0.792545
C299	C	-0.204545	0.197013	1.125878
C300	C	0.128789	0.530346	1.459211
C301	C	-0.537891	-0.136320	0.844766
C302	C	-0.204557	0.197013	1.178099
C303	C	0.128776	0.530347	1.511432
C304	C	-0.603835	-0.041178	0.844750
C305	C	-0.270501	0.292156	1.178083
C306	C	0.062832	0.625489	1.511416
C307	C	-0.603824	-0.041180	0.792533
C308	C	-0.270491	0.292153	1.125867
C309	C	0.062843	0.625487	1.459200
C310	C	-0.570842	-0.088754	0.766432
C311	C	-0.237508	0.244579	1.099765
C312	C	0.095825	0.577912	1.433099
O313	O	-0.631840	-0.000765	0.709918
O314	O	-0.298506	0.332568	1.043252
O315	O	0.034827	0.665902	1.376585
O316	O	-0.509816	-0.176767	0.709901
O317	O	-0.176483	0.156566	1.043234
O318	O	0.156850	0.489900	1.376568
C319	C	-0.537828	-0.136315	0.474019
C320	C	-0.204494	0.197018	0.807352
C321	C	0.128839	0.530351	1.140686
C322	C	-0.570793	-0.088744	0.447906
C323	C	-0.237460	0.244589	0.781240
C324	C	0.095873	0.577922	1.114573
C325	C	-0.603768	-0.041176	0.474010
C326	C	-0.270434	0.292158	0.807343
C327	C	0.062899	0.625491	1.140677
C328	C	-0.570788	-0.088746	0.395687
C329	C	-0.237455	0.244587	0.729021
C330	C	0.095878	0.577921	1.062354
C331	C	-0.537814	-0.136315	0.369584
C332	C	-0.204481	0.197019	0.702917
C333	C	0.128852	0.530352	1.036250
C334	C	-0.504845	-0.183882	0.395699
C335	C	-0.171512	0.149451	0.729032
C336	C	0.161822	0.482785	1.062365
C337	C	-0.504853	-0.183884	0.447915
C338	C	-0.171520	0.149449	0.781248
C339	C	0.161813	0.482783	1.114582
C340	C	-0.636737	0.006392	0.447895
C341	C	-0.303404	0.339725	0.781228
C342	C	0.029930	0.673058	1.114562
C343	C	-0.636726	0.006389	0.395679
C344	C	-0.303393	0.339722	0.729012
C345	C	0.029941	0.673056	1.062345
C346	C	-0.603752	-0.041180	0.369575
C347	C	-0.270419	0.292154	0.702908
C348	C	0.062915	0.625487	1.036242
H349	H	0.282447	-0.083591	-0.081913
H350	H	0.615781	0.249742	0.251420
H351	H	0.949114	0.583076	0.584754
H352	H	-0.647788	0.716288	0.000114
H353	H	-0.314455	1.049621	0.333448
H354	H	0.018878	1.382955	0.666781
H355	H	0.191003	-0.084925	0.082178
H356	H	0.524336	0.248408	0.415512
H357	H	0.857670	0.581741	0.748845
F358	F	-0.502801	-0.186959	0.872554
F359	F	-0.169468	0.146374	1.205887
F360	F	0.163866	0.479707	1.539221
H361	H	-0.631393	0.489126	-0.052607
H362	H	-0.298060	0.822459	0.280727
H363	H	0.035274	1.155793	0.614060
F364	F	-0.641269	0.350321	-0.059863
F365	F	-0.307936	0.683655	0.273470
F366	F	0.025397	1.016988	0.606804
H367	H	0.190991	-0.084921	-0.081924
H368	H	0.524324	0.248413	0.251409
H369	H	0.857658	0.581746	0.584742
F370	F	-0.198440	-0.090615	0.138674
F371	F	0.134894	0.242719	0.472007
F372	F	0.468227	0.576052	0.805341
H373	H	-0.478008	-0.222624	0.469172
H374	H	-0.144674	0.110709	0.802505
H375	H	0.188659	0.444043	1.135839
H376	H	-0.511020	-0.175059	0.771299
H377	H	-0.177687	0.158274	1.104632
H378	H	0.155646	0.491608	1.437966
F379	F	-0.469787	-0.234522	0.632350
F380	F	-0.136454	0.098811	0.965683
F381	F	0.196879	0.432145	1.299017
H382	H	0.050524	-0.086986	-0.127155
H383	H	0.383857	0.246348	0.206178
H384	H	0.717190	0.579681	0.539512
F385	F	-0.660238	0.578005	0.000140
F386	F	-0.326905	0.911338	0.333473
F387	F	0.006428	1.244672	0.666807
F388	F	-0.476825	0.691343	0.000073
F389	F	-0.143492	1.024677	0.333406
F390	F	0.189842	1.358010	0.666739
F391	F	-0.638918	0.009448	0.764743
F392	F	-0.305585	0.342782	1.098077
F393	F	0.027749	0.676115	1.431410
H394	H	-0.652348	0.269431	0.000145
H395	H	-0.319015	0.602765	0.333479
H396	H	0.014318	0.936098	0.666812
F397	F	-0.664798	0.131149	0.000154
F398	F	-0.331464	0.464482	0.333487
F399	F	0.001869	0.797816	0.666821
H400	H	-0.663577	0.045129	0.374421
H401	H	-0.330244	0.378463	0.707755
H402	H	0.003090	0.711796	1.041088
H403	H	-0.100718	-0.089201	-0.127166
H404	H	0.232615	0.244132	0.206167
H405	H	0.565948	0.577466	0.539501
F406	F	-0.500356	0.472161	0.060103
F407	F	-0.167022	0.805495	0.393437
F408	F	0.166311	1.138828	0.726770
H409	H	-0.489274	0.553059	0.000085
H410	H	-0.155941	0.886393	0.333419
H411	H	0.177393	1.219726	0.666752
H412	H	-0.332629	-0.092619	-0.081960
H413	H	0.000704	0.240714	0.251373
H414	H	0.334037	0.574047	0.584706
H415	H	-0.510230	0.333366	0.052847
H416	H	-0.176896	0.666699	0.386180
H417	H	0.156437	1.000032	0.719513
H418	H	-0.478016	-0.222624	0.531099
H419	H	-0.144683	0.110709	0.864432
H420	H	0.188650	0.444043	1.197765
F421	F	-0.481387	0.244487	0.000097
F422	F	-0.148054	0.577820	0.333431
F423	F	0.185279	0.911154	0.666764
F424	F	-0.482910	0.094949	0.000101
F425	F	-0.149577	0.428282	0.333435
F426	F	0.183757	0.761615	0.666768
H427	H	-0.040928	-0.088324	-0.127161
H428	H	0.292406	0.245010	0.206172
H429	H	0.625739	0.578343	0.539505
H430	H	-0.510954	-0.175065	0.228956
H431	H	-0.177620	0.158269	0.562290
H432	H	0.155713	0.491602	0.895623
F433	F	-0.638928	0.009445	0.872539
F434	F	-0.305594	0.342779	1.205873
F435	F	0.027739	0.676112	1.539206
F436	F	-0.430404	-0.094054	-0.093269
F437	F	-0.097071	0.239280	0.240064
F438	F	0.236263	0.572613	0.573398
H439	H	-0.100688	-0.089177	0.127372
H440	H	0.232645	0.244157	0.460705
H441	H	0.565979	0.577490	0.794039
H442	H	-0.510943	-0.175058	0.134216
H443	H	-0.177610	0.158276	0.467550
H444	H	0.155723	0.491609	0.800883
F445	F	-0.671849	0.057041	0.632333
F446	F	-0.338516	0.390374	0.965666
F447	F	-0.005182	0.723708	1.298999
F448	F	-0.198489	-0.090634	-0.138474
F449	F	0.134845	0.242699	0.194859
F450	F	0.468178	0.576032	0.528193
H451	H	-0.477998	-0.222617	0.374437
H452	H	-0.144664	0.110716	0.707770
H453	H	0.188669	0.444050	1.041103
H454	H	-0.040889	-0.088289	0.127384
H455	H	0.292444	0.245044	0.460717
H456	H	0.625777	0.578378	0.794051
F457	F	-0.638832	0.009443	0.127682
F458	F	-0.305499	0.342777	0.461015
F459	F	0.027834	0.676110	0.794349
H460	H	-0.332614	-0.092595	0.082141
H461	H	0.000719	0.240738	0.415475
H462	H	0.334053	0.574071	0.748808
H463	H	-0.630595	-0.002439	0.228936
H464	H	-0.297261	0.330894	0.562269
H465	H	0.036072	0.664227	0.895603
F466	F	-0.671834	0.057023	0.475671
F467	F	-0.338501	0.390356	0.809004
F468	F	-0.005167	0.723690	1.142337
F469	F	-0.430367	-0.094050	0.093440
F470	F	-0.097033	0.239283	0.426774
F471	F	0.236300	0.572617	0.760107
F472	F	0.056869	-0.086843	0.138695
F473	F	0.390202	0.246490	0.472028
F474	F	0.723536	0.579823	0.805361
H475	H	0.282473	-0.083576	0.082181
H476	H	0.615807	0.249757	0.415514
H477	H	0.949140	0.583090	0.748847
F478	F	-0.671840	0.057040	0.524552
F479	F	-0.338507	0.390373	0.857885
F480	F	-0.005173	0.723707	1.191218
