data_functionalizedCrystal
_audit_creation_method	'MofGen! by Chris Wilmer'
_symmetry_space_group_name_H-M	'P1'
_symmetry_Int_Tables_number	1
_symmetry_cell_setting	triclinic
loop_
_symmetry_equiv_pos_as_xyz
  x,y,z
_cell_length_a	6.817900
_cell_length_b	11.102289
_cell_length_c	16.418042
_cell_angle_alpha	93.889356
_cell_angle_beta	103.389568
_cell_angle_gamma	108.605707
loop_
_atom_site_label
_atom_site_type_symbol
_atom_site_fract_x
_atom_site_fract_y
_atom_site_fract_z
V1	V	-4.051821	-0.176872	-0.261154
O2	O	-4.011990	0.007436	-0.256182
O3	O	-4.029006	-0.349685	-0.259367
O4	O	-4.002561	-0.174618	-0.375052
O5	O	-4.038619	-0.168843	-0.139697
V6	V	-4.532245	-0.154771	-0.246626
O7	O	-4.319877	-0.225351	-0.293020
O8	O	-4.714386	-0.106292	-0.214760
O9	O	-4.331853	0.018042	-0.248413
O10	O	-4.689473	-0.339080	-0.251598
O11	O	-4.662844	-0.162801	-0.368083
O12	O	-4.358299	-0.157026	-0.132728
C13	C	-3.880259	-0.391799	-0.255247
C14	C	-3.942887	-0.533079	-0.254546
C15	C	-4.155361	-0.605942	-0.258395
C16	C	-4.214198	-0.738691	-0.257743
C17	C	-3.848063	-0.725700	-0.249390
C18	C	-3.789233	-0.592955	-0.250048
C19	C	-4.366745	-0.613443	-0.263214
C20	C	-4.425582	-0.746192	-0.262562
C21	C	-3.846524	-0.168481	-0.402813
C22	C	-3.887701	-0.167782	-0.495926
C23	C	-4.165424	-0.172509	-0.714412
C24	C	-4.204093	-0.171841	-0.801899
C25	C	-3.837997	-0.159128	-0.793356
C26	C	-3.799326	-0.159787	-0.705870
C27	C	-3.963050	-0.166484	-0.666400
C28	C	-4.040390	-0.165157	-0.841374
C29	C	-4.082316	-0.164432	-0.936232
C30	C	-3.921121	-0.167207	-0.571536
C31	C	-4.143943	0.060149	-0.252530
C32	C	-4.060554	0.201427	-0.253237
C33	C	-4.177678	-0.163166	-0.104962
C34	C	-4.115739	-0.163860	-0.011849
H35	H	-3.722972	-0.774468	-0.245729
H36	H	-3.634517	-0.154871	-0.666776
H37	H	-4.368882	-0.176745	-0.840986
Cl38	Cl	-3.632198	-0.150726	-0.842983
H39	H	-3.616226	-0.533636	-0.246924
H40	H	-4.298739	-0.177961	-0.682278
H41	H	-4.464684	-0.594463	-0.324130
Cl42	Cl	-4.606920	-0.835926	-0.358411
Cl43	Cl	-4.387684	-0.530893	-0.172036
H44	H	-4.489971	-0.770935	-0.205347
