data_functionalizedCrystal
_audit_creation_method	'MofGen! by Chris Wilmer'
_symmetry_space_group_name_H-M	'P1'
_symmetry_Int_Tables_number	1
_symmetry_cell_setting	triclinic
loop_
_symmetry_equiv_pos_as_xyz
  x,y,z
_cell_length_a	14.971491
_cell_length_b	17.699092
_cell_length_c	13.448316
_cell_angle_alpha	89.995078
_cell_angle_beta	89.991393
_cell_angle_gamma	83.451302
loop_
_atom_site_label
_atom_site_type_symbol
_atom_site_fract_x
_atom_site_fract_y
_atom_site_fract_z
O1	O	1.186609	0.098652	-0.082731
O2	O	0.926169	0.110459	-0.082723
O3	O	1.063743	-0.005615	-0.082725
O4	O	1.049035	0.214726	-0.082729
O5	O	1.063726	-0.005622	0.082659
O6	O	0.926152	0.110452	0.082661
O7	O	1.186592	0.098644	0.082653
Cu8	Cu	1.056370	0.104547	0.097758
Cu9	Cu	1.056391	0.104556	-0.097828
O10	O	1.049018	0.214719	0.082655
C11	C	0.892838	0.109927	-0.000030
C12	C	0.793546	0.108342	-0.000027
C13	C	0.365873	0.101509	-0.090201
C14	C	0.459169	0.102995	-0.090197
C15	C	0.505802	0.103740	-0.000043
C16	C	0.459137	0.102990	0.090114
C17	C	0.365845	0.101498	0.090109
C18	C	0.653589	0.106101	0.090117
C19	C	0.746887	0.107595	0.090122
C20	C	0.746912	0.107599	-0.090189
C21	C	0.653620	0.106107	-0.090193
C22	C	0.606961	0.105358	-0.000037
C23	C	1.063206	-0.033817	-0.000034
C24	C	1.061622	-0.117839	-0.000039
C25	C	1.060888	-0.157304	-0.090191
C26	C	1.059393	-0.236251	-0.090192
C27	C	1.058638	-0.275731	-0.000040
C28	C	1.059369	-0.236260	0.090119
C29	C	1.060857	-0.157314	0.090119
C30	C	1.053365	-0.554640	0.090120
C31	C	1.051879	-0.633592	0.090113
C32	C	1.051901	-0.633577	-0.090190
C33	C	1.053390	-0.554631	-0.090190
C34	C	1.054115	-0.515166	-0.000032
C35	C	1.055734	-0.429563	-0.000032
C36	C	1.057025	-0.361334	-0.000039
C37	C	1.219923	0.099177	-0.000042
C38	C	1.319215	0.100761	-0.000051
C39	C	1.049554	0.242920	-0.000038
C40	C	1.051139	0.326942	-0.000040
N41	N	1.056362	0.104541	0.235322
N42	N	1.056406	0.104556	-0.235392
C43	C	1.117299	0.053164	0.287362
C44	C	1.117305	0.053164	0.391465
C45	C	1.056377	0.104544	0.443527
C46	C	0.995434	0.155923	0.391480
C47	C	0.995425	0.155919	0.287379
C48	C	0.995459	0.155928	0.608460
C49	C	0.995469	0.155933	0.712569
C50	C	1.117339	0.053173	0.712546
C51	C	1.117329	0.053169	0.608445
C52	C	1.056387	0.104549	0.556405
H53	H	0.327855	0.100897	0.163518
N54	N	1.054160	-0.512085	0.187360
H55	H	1.110202	-0.485413	0.191376
H56	H	0.999314	-0.473288	0.191328
H57	H	1.166923	0.011329	0.433835
N58	N	0.929723	0.211339	0.447637
H59	H	0.939903	0.265071	0.429505
H60	H	0.866290	0.202466	0.429522
H61	H	1.061508	-0.125165	-0.163603
H62	H	1.166959	0.011337	0.754923
H63	H	0.945803	0.197754	0.245009
H64	H	1.166917	0.011328	0.244980
N65	N	0.929765	0.211355	0.768725
H66	H	0.891155	0.243902	0.719964
H67	H	0.890296	0.182327	0.811942
H68	H	1.061441	-0.125181	0.163530
N69	N	0.315578	0.100711	-0.187439
H70	H	0.359297	0.101408	-0.244547
H71	H	0.284223	0.053209	-0.191365
H72	H	0.497155	0.103599	-0.163606
H73	H	0.615652	0.105506	-0.163605
H74	H	0.945830	0.197765	0.566093
H75	H	1.058748	-0.268411	0.163522
N76	N	1.058642	-0.278857	-0.187400
H77	H	1.113460	-0.317689	-0.191355
H78	H	1.002574	-0.305493	-0.191358
N79	N	0.797230	0.108409	-0.187432
H80	H	0.863407	0.109464	-0.173752
H81	H	0.788280	0.061270	-0.226803
N82	N	0.797189	0.108395	0.187357
H83	H	0.753478	0.107688	0.244470
H84	H	0.843251	0.062131	0.191277
N85	N	1.183048	-0.002241	0.552289
H86	H	1.221655	-0.034791	0.601050
H87	H	1.148875	-0.035750	0.509112
N88	N	1.051120	-0.676140	-0.187438
H89	H	0.995079	-0.702810	-0.191474
H90	H	1.051867	-0.639100	-0.244484
N91	N	0.603265	0.105289	0.187358
H92	H	0.647046	0.105452	0.244467
H93	H	0.557635	0.151827	0.191585
H94	H	0.497115	0.103591	0.163519
H95	H	1.054009	-0.522490	-0.163601
H96	H	1.051262	-0.665734	0.163530
