data_functionalizedCrystal
_audit_creation_method	'MofGen! by Chris Wilmer'
_symmetry_space_group_name_H-M	'P1'
_symmetry_Int_Tables_number	1
_symmetry_cell_setting	triclinic
loop_
_symmetry_equiv_pos_as_xyz
  x,y,z
_cell_length_a	11.792241
_cell_length_b	10.540539
_cell_length_c	10.868271
_cell_angle_alpha	89.997005
_cell_angle_beta	89.999893
_cell_angle_gamma	84.359454
loop_
_atom_site_label
_atom_site_type_symbol
_atom_site_fract_x
_atom_site_fract_y
_atom_site_fract_z
O1	O	1.507361	0.173992	-0.102197
O2	O	1.177067	0.191924	-0.102225
O3	O	1.349750	-0.001773	-0.102208
O4	O	1.334679	0.367689	-0.102213
O5	O	1.349735	-0.001781	0.102436
O6	O	1.177053	0.191916	0.102420
O7	O	1.507347	0.173984	0.102448
Zn8	Zn	1.342198	0.182949	0.134926
Zn9	Zn	1.342216	0.182959	-0.134702
O10	O	1.334664	0.367681	0.102432
C11	C	1.134766	0.190793	0.000094
C12	C	1.008743	0.187422	0.000083
C13	C	0.778015	0.181223	0.000119
C14	C	0.906409	0.184667	0.000099
C15	C	1.348612	-0.049076	0.000112
C16	C	1.345231	-0.190014	0.000105
C17	C	1.215660	-0.373018	-0.000366
C18	C	1.219087	-0.226411	0.000095
C19	C	1.405929	-0.251873	0.116972
C20	C	1.401623	-0.398404	0.117070
C21	C	1.404205	-0.398922	-0.115649
C22	C	1.405367	-0.251943	-0.117194
C23	C	1.549648	0.175114	0.000127
C24	C	1.675671	0.178486	0.000130
C25	C	1.335802	0.414984	0.000109
C26	C	1.339183	0.555921	0.000108
N27	N	1.342193	0.182941	0.318940
N28	N	1.342230	0.182957	-0.318716
C29	C	1.342211	0.182956	0.569946
C30	C	1.342197	0.182952	0.430268
H31	H	1.171327	-0.183649	-0.083680
H32	H	1.497336	-0.228021	-0.124243
H33	H	1.360955	-0.210937	-0.203649
H34	H	1.492344	-0.446668	0.122379
H35	H	1.363385	-0.430338	-0.204226
C36	C	1.429377	-0.136136	0.304051
C37	C	1.348992	-0.194199	0.234372
H38	H	1.394217	-0.100526	0.376522
H39	H	1.490123	-0.197915	0.325960
H40	H	1.458291	-0.070573	0.256929
H41	H	1.320084	-0.259768	0.281491
H42	H	1.288226	-0.132414	0.212465
C43	C	1.051916	-0.469094	0.072481
C44	C	1.148654	-0.413578	0.112127
H45	H	1.010559	-0.494143	0.141932
H46	H	1.004977	-0.409035	0.025211
H47	H	1.074611	-0.541770	0.023428
H48	H	1.125959	-0.340896	0.161173
H49	H	1.195602	-0.473641	0.159418
H50	H	1.356753	-0.426460	0.204423
C51	C	1.525466	-0.595638	-0.121147
C52	C	1.527202	-0.463079	-0.116718
H53	H	1.601396	-0.635247	-0.121809
H54	H	1.486614	-0.623278	-0.051004
H55	H	1.487226	-0.618289	-0.193647
H56	H	1.565435	-0.440427	-0.044213
H57	H	1.566071	-0.435428	-0.186868
H58	H	1.170980	-0.184502	0.084002
C59	C	1.204772	-0.379447	-0.220845
C60	C	1.148393	-0.411413	-0.113498
H61	H	1.163247	-0.403167	-0.290689
H62	H	1.210231	-0.290155	-0.222399
H63	H	1.279071	-0.423359	-0.222255
H64	H	1.074096	-0.367493	-0.112083
H65	H	1.142921	-0.500721	-0.111943
C66	C	1.555116	-0.147595	0.021273
C67	C	1.530982	-0.222100	0.122865
H68	H	1.632316	-0.129207	0.024916
H69	H	1.542882	-0.192857	-0.052345
H70	H	1.506525	-0.070180	0.022364
H71	H	1.579567	-0.299520	0.121769
H72	H	1.543227	-0.176838	0.196502
