data_functionalizedCrystal
_audit_creation_method	'MofGen! by Chris Wilmer'
_symmetry_space_group_name_H-M	'P1'
_symmetry_Int_Tables_number	1
_symmetry_cell_setting	triclinic
loop_
_symmetry_equiv_pos_as_xyz
  x,y,z
_cell_length_a	21.295419
_cell_length_b	29.839132
_cell_length_c	21.295411
_cell_angle_alpha	89.977422
_cell_angle_beta	90.024539
_cell_angle_gamma	89.939935
loop_
_atom_site_label
_atom_site_type_symbol
_atom_site_fract_x
_atom_site_fract_y
_atom_site_fract_z
Zn1	Zn	0.962291	0.178727	0.355907
Zn2	Zn	0.962166	0.253843	0.250631
Zn3	Zn	0.857014	0.178747	0.250652
Zn4	Zn	0.856956	0.253850	0.355862
O5	O	0.909607	0.216292	0.303263
O6	O	1.050364	0.188680	0.341952
O7	O	0.948190	0.243886	0.162544
O8	O	0.871056	0.115877	0.264642
O9	O	1.050272	0.243867	0.264606
O10	O	0.948402	0.115863	0.341972
O11	O	0.870935	0.188714	0.162560
O12	O	0.768917	0.188721	0.264599
O13	O	0.870957	0.243880	0.443958
O14	O	0.768875	0.243899	0.341896
O15	O	0.948346	0.188687	0.443991
O16	O	0.948134	0.316711	0.264562
O17	O	0.870836	0.316716	0.341876
C18	C	0.746055	0.216313	0.303245
C19	C	0.676087	0.216333	0.303253
C20	C	0.643291	0.187644	0.343589
C21	C	0.577548	0.187632	0.343592
C22	C	0.544605	0.216317	0.303264
C23	C	0.577409	0.245008	0.262920
C24	C	0.643150	0.245016	0.262914
N25	N	0.441315	0.255624	0.298344
N26	N	0.378864	0.255616	0.298353
C27	C	0.346530	0.216294	0.303278
N28	N	0.379007	0.176981	0.308206
N29	N	0.441464	0.176990	0.308201
C30	C	0.473319	0.216311	0.303266
C31	C	0.242448	0.187590	0.343619
C32	C	0.176704	0.187577	0.343617
C33	C	0.176567	0.244957	0.262949
C34	C	0.242309	0.244965	0.262948
C35	C	0.275246	0.216282	0.303286
C36	C	0.909482	0.333014	0.303226
C37	C	0.909487	0.382949	0.303231
C38	C	0.949884	0.692577	0.263039
C39	C	0.949944	0.880250	0.263053
O40	O	0.984224	0.904501	0.228870
N41	N	0.909673	0.903734	0.303273
C42	C	0.869387	0.880297	0.343495
O43	O	0.835140	0.904578	0.377710
C44	C	0.869330	0.692625	0.343484
C45	C	0.909600	0.669143	0.303257
C46	C	0.990151	0.669095	0.222816
C47	C	0.990133	0.622179	0.222810
C48	C	0.949848	0.598746	0.263028
C49	C	0.909582	0.622227	0.303251
C50	C	0.829048	0.669189	0.383709
C51	C	0.829038	0.622268	0.383704
C52	C	0.869308	0.598786	0.343476
C53	C	0.869280	0.551878	0.343463
N54	N	0.909551	0.528394	0.303243
C55	C	0.949835	0.551828	0.263026
C56	C	0.869418	0.978827	0.343498
C57	C	0.869432	1.025745	0.343500
C58	C	0.949990	1.025695	0.263059
C59	C	0.949973	0.978776	0.263054
C60	C	0.909690	0.955343	0.303278
C61	C	0.949794	0.453302	0.263017
C62	C	0.949771	0.406382	0.263013
C63	C	0.869215	0.406437	0.343456
C64	C	0.869236	0.453352	0.343458
C65	C	0.909531	0.476784	0.303236
O66	O	0.835023	0.527598	0.377634
O67	O	0.984087	0.527539	0.228826
C68	C	0.949902	0.739492	0.263045
C69	C	0.909635	0.762974	0.303268
C70	C	0.869351	0.739540	0.343486
C71	C	0.909649	0.809892	0.303270
C72	C	0.949933	0.833325	0.263052
C73	C	0.990204	0.809841	0.222832
C74	C	0.990186	0.762926	0.222827
C75	C	0.829080	0.763024	0.383706
C76	C	0.829100	0.809940	0.383708
C77	C	0.869385	0.833373	0.343490
C78	C	1.073797	0.216270	0.303281
C79	C	1.143765	0.216261	0.303289
C80	C	0.909726	1.099113	0.303301
C81	C	0.909716	1.049179	0.303282
C82	C	0.909659	0.216282	0.467453
C83	C	0.909682	0.216278	0.537422
C84	C	0.909591	0.216269	0.139711
C85	C	0.909691	0.216146	0.069744
C86	C	0.949976	0.187538	0.570306
C87	C	0.949975	0.187519	0.636049
C88	C	0.909686	0.216247	0.668904
C89	C	0.869384	0.244989	0.636011
C90	C	0.869382	0.245005	0.570270
N91	N	0.904816	0.255549	0.772119
N92	N	0.904822	0.255533	0.834570
C93	C	0.909690	0.216202	0.866979
N94	N	0.914565	0.176886	0.834577
N95	N	0.914563	0.176903	0.772120
C96	C	0.909684	0.216233	0.740190
C97	C	0.949986	0.187438	0.971149
C98	C	0.949981	0.187418	1.036893
C99	C	0.869393	0.244893	1.036854
C100	C	0.869395	0.244909	0.971112
C101	C	0.909695	0.216182	0.938263
H102	H	0.982563	0.387265	0.230253
H103	H	0.150003	0.164212	0.376463
Br104	Br	0.814569	0.485222	0.398037
Br105	Br	1.004666	0.148550	0.525729
H106	H	0.982793	0.164012	1.063667
Br107	Br	0.131865	0.283882	0.208211
H108	H	0.982787	0.164113	0.662829
Br109	Br	0.533029	0.148693	0.398335
Br110	Br	0.286822	0.283899	0.208198
Br111	Br	1.044796	0.590319	0.168222
Br112	Br	1.004675	0.148452	0.926565
Br113	Br	1.004480	0.485094	0.208429
Br114	Br	1.044831	0.700889	0.168228
Br115	Br	0.814769	1.057608	0.398087
Br116	Br	1.004626	0.946913	0.208457
Br117	Br	0.532702	0.283935	0.208185
Br118	Br	0.814691	0.284012	0.525638
Br119	Br	0.814706	0.283877	1.081437
Br120	Br	0.814742	0.947032	0.398093
Br121	Br	0.774400	0.701045	0.438313
Br122	Br	0.814707	0.283916	0.926479
H123	H	0.982791	1.044782	0.230312
H124	H	0.796303	0.829055	0.416465
H125	H	0.669853	0.268379	0.230067
H126	H	0.796235	0.603191	0.416461
H127	H	0.836414	0.387350	0.376199
H128	H	1.022978	0.743810	0.190070
Br129	Br	0.287152	0.148661	0.398359
H130	H	0.670104	0.164288	0.376435
Br131	Br	1.044873	0.841653	0.168249
H132	H	0.796276	0.743948	0.416457
H133	H	0.836579	0.268379	0.662766
