data_functionalizedCrystal
_audit_creation_method	'MofGen! by Chris Wilmer'
_symmetry_space_group_name_H-M	'P1'
_symmetry_Int_Tables_number	1
_symmetry_cell_setting	triclinic
loop_
_symmetry_equiv_pos_as_xyz
  x,y,z
_cell_length_a	15.538191
_cell_length_b	14.519709
_cell_length_c	14.750779
_cell_angle_alpha	77.332886
_cell_angle_beta	97.572172
_cell_angle_gamma	65.476119
loop_
_atom_site_label
_atom_site_type_symbol
_atom_site_fract_x
_atom_site_fract_y
_atom_site_fract_z
O1	O	1.229003	-0.272518	-0.079831
O2	O	0.954923	-0.166092	-0.079833
O3	O	1.099232	-0.355991	-0.079824
O4	O	1.084694	-0.082619	-0.079841
O5	O	1.140026	-0.409668	0.079829
O6	O	0.995717	-0.219769	0.079820
O7	O	1.269797	-0.326196	0.079821
Zn8	Zn	1.139234	-0.281505	0.105169
Zn9	Zn	1.085486	-0.210782	-0.105181
O10	O	1.125488	-0.136297	0.079812
C11	C	0.940243	-0.181796	-0.000007
C12	C	0.835725	-0.148628	-0.000007
C13	C	0.547381	-0.478139	-0.000001
C14	C	0.449167	-0.446949	-0.000004
C15	C	0.427017	-0.271514	-0.000015
C16	C	0.525232	-0.302691	-0.000007
C17	C	0.585407	-0.406004	-0.000002
C18	C	0.563258	-0.230557	-0.000008
C19	C	0.661464	-0.261730	-0.000005
C20	C	0.721643	-0.365037	-0.000003
C21	C	0.683612	-0.437177	0.000001
C22	C	0.503080	-0.127242	-0.000020
C23	C	0.541106	-0.055108	-0.000021
C24	C	0.639315	-0.086282	-0.000012
C25	C	0.699494	-0.189590	-0.000009
C26	C	0.677346	-0.014142	-0.000015
C27	C	0.775551	-0.045315	-0.000013
C28	C	0.797700	-0.220763	-0.000006
C29	C	1.118952	-0.416961	0.000003
C30	C	1.116922	-0.518660	0.000004
C31	C	1.109444	-0.891034	-0.000021
C32	C	1.111521	-0.787427	-0.000014
C33	C	1.113183	-0.704851	-0.000008
C34	C	1.115260	-0.601236	-0.000003
C35	C	1.284476	-0.310491	-0.000007
C36	C	1.388993	-0.343656	-0.000013
C37	C	1.105768	-0.075325	-0.000017
C38	C	1.107796	0.026375	-0.000024
N39	N	1.175923	-0.329774	0.248727
N40	N	1.048805	-0.162523	-0.248739
C41	C	0.946338	-0.027755	0.600530
C42	C	0.972054	-0.061575	0.701031
C43	C	1.099866	-0.229693	0.701002
C44	C	1.074158	-0.195889	0.600499
C45	C	0.997394	-0.094918	0.550271
C46	C	1.125213	-0.263052	0.550240
C47	C	1.099510	-0.229248	0.449746
C48	C	1.022751	-0.128281	0.399511
C49	C	0.971690	-0.061114	0.449777
C50	C	1.201982	-0.364019	0.600470
C51	C	1.253037	-0.431183	0.550211
C52	C	1.227330	-0.397382	0.449715
C53	C	1.150571	-0.296415	0.399480
C54	C	1.278390	-0.464549	0.399449
C55	C	1.252687	-0.430745	0.298955
C56	C	1.124867	-0.262611	0.298986
H57	H	0.596381	-0.562268	0.000009
Br58	Br	0.397568	-0.544862	0.000011
Br59	Br	0.345342	-0.131306	-0.000032
Br60	Br	1.321984	-0.521895	0.230744
H61	H	0.930472	-0.006872	0.741947
Br62	Br	0.595665	0.126070	-0.000044
Br63	Br	0.879379	-0.360981	0.000017
H64	H	0.423115	-0.101863	-0.000025
Br65	Br	0.987873	-0.082397	0.263124
Br66	Br	0.459431	0.085101	-0.000038
Br67	Br	1.204048	-0.366718	0.769174
H68	H	0.806514	0.013421	-0.000004
H69	H	0.909175	0.021102	0.408880
H70	H	0.801605	-0.390412	-0.000014
H71	H	1.062352	-0.180395	0.258089
Br72	Br	0.842143	0.109272	0.532358
Br73	Br	1.357219	-0.568208	0.618383
H74	H	1.222909	-0.391537	0.682299
H75	H	0.732612	-0.521307	0.000011
Br76	Br	1.382580	-0.601568	0.467625
