data_functionalizedCrystal
_audit_creation_method	'MofGen! by Chris Wilmer'
_symmetry_space_group_name_H-M	'P1'
_symmetry_Int_Tables_number	1
_symmetry_cell_setting	triclinic
loop_
_symmetry_equiv_pos_as_xyz
  x,y,z
_cell_length_a	17.019383
_cell_length_b	17.038272
_cell_length_c	15.186229
_cell_angle_alpha	89.995962
_cell_angle_beta	86.120670
_cell_angle_gamma	87.246883
loop_
_atom_site_label
_atom_site_type_symbol
_atom_site_fract_x
_atom_site_fract_y
_atom_site_fract_z
O1	O	1.053352	0.099657	-0.153028
O2	O	0.824541	0.112345	-0.135696
O3	O	0.937586	-0.007813	-0.144252
O4	O	0.940306	0.219815	-0.144472
O5	O	0.937578	-0.007815	0.002206
O6	O	0.824533	0.112344	0.010762
O7	O	1.053343	0.099655	-0.006570
Zn8	Zn	0.938937	0.105999	0.025349
Zn9	Zn	0.938948	0.106001	-0.167615
O10	O	0.940298	0.219814	0.001986
C11	C	0.795116	0.111861	-0.060238
C12	C	0.707450	0.110412	-0.053597
C13	C	0.935109	-0.036940	-0.070836
C14	C	0.927728	-0.123727	-0.070277
C15	C	0.666261	0.109734	-0.130305
C16	C	0.583889	0.108385	-0.124053
C17	C	0.542706	0.107708	-0.041091
C18	C	0.583901	0.108389	0.035622
C19	C	0.666271	0.109744	0.029369
C20	C	0.294000	0.103623	-0.018216
C21	C	0.211623	0.102266	-0.011968
C22	C	0.211617	0.102264	-0.171644
C23	C	0.293990	0.103614	-0.177890
C24	C	0.335176	0.104299	-0.101176
C25	C	0.458508	0.106327	-0.034698
C26	C	0.419372	0.105686	-0.107570
C27	C	0.995488	-0.173896	-0.075408
C28	C	0.988549	-0.255441	-0.074891
C29	C	0.913849	-0.286816	-0.069236
C30	C	0.846085	-0.236640	-0.064106
C31	C	0.853025	-0.155097	-0.064630
C32	C	0.889332	-0.532554	-0.067391
C33	C	0.882397	-0.614104	-0.066865
C34	C	1.024861	-0.632898	-0.077651
C35	C	1.031795	-0.551353	-0.078169
C36	C	0.964030	-0.501185	-0.073044
C37	C	0.906754	-0.370167	-0.068704
C38	C	0.971126	-0.417834	-0.073582
C39	C	1.082769	0.100139	-0.082029
C40	C	1.170435	0.101588	-0.088676
C41	C	0.942776	0.248941	-0.071432
C42	C	0.950156	0.335728	-0.071997
N43	N	0.938935	0.105997	0.157042
N44	N	0.938955	0.105997	-0.299308
C45	C	0.989011	0.052809	0.378975
C46	C	0.989014	0.052807	0.471165
C47	C	0.888874	0.159188	0.478753
C48	C	0.888868	0.159186	0.386565
C49	C	0.938941	0.105997	0.336678
C50	C	0.938949	0.105997	0.521055
C51	C	0.938951	0.105996	0.621011
C52	C	0.938938	0.105997	0.236716
H53	H	0.550356	0.107833	-0.186516
H54	H	0.178094	0.101737	0.055592
H55	H	0.550363	0.107843	0.103171
O56	O	0.840201	0.210749	0.527316
C57	C	0.788723	0.168907	0.584540
H58	H	0.816034	0.107713	0.596282
H59	H	0.730068	0.163625	0.553467
C60	C	0.741288	0.288155	0.658737
C61	C	0.774835	0.212998	0.673165
H62	H	0.732718	0.315353	0.713404
H63	H	0.775967	0.316346	0.620182
H64	H	0.692412	0.283743	0.632840
H65	H	0.823714	0.217411	0.699051
H66	H	0.740163	0.184809	0.711726
O67	O	0.459454	0.106449	-0.188106
C68	C	0.502698	0.174918	-0.196180
H69	H	0.513571	0.197689	-0.127690
H70	H	0.467883	0.221783	-0.232948
C71	C	0.568922	0.127680	-0.331970
C72	C	0.582283	0.155642	-0.247849
H73	H	0.618013	0.115791	-0.363845
H74	H	0.539786	0.081552	-0.326533
H75	H	0.539908	0.166738	-0.362598
H76	H	0.611288	0.116581	-0.217218
H77	H	0.611426	0.201764	-0.253283
H78	H	0.848091	0.202498	0.352126
O79	O	1.037586	0.001183	0.330383
C80	C	1.026815	0.012553	0.239947
H81	H	1.001553	0.074740	0.229251
H82	H	0.984237	-0.031648	0.217056
C83	C	1.137717	-0.075701	0.199667
C84	C	1.106696	0.000680	0.186529
H85	H	1.186991	-0.083028	0.166715
H86	H	1.144973	-0.083365	0.260595
H87	H	1.102228	-0.112527	0.180591
H88	H	1.142181	0.037504	0.205615
H89	H	1.099449	0.008350	0.125603
H90	H	1.043726	-0.296286	-0.079068
O91	O	0.834237	-0.400741	-0.063323
C92	C	0.825960	-0.447324	-0.138561
H93	H	0.886768	-0.467689	-0.168461
H94	H	0.793477	-0.411259	-0.189210
C95	C	0.703970	-0.494407	-0.075213
C96	C	0.778656	-0.519424	-0.111933
H97	H	0.674788	-0.538880	-0.058790
H98	H	0.709544	-0.463021	-0.024526
H99	H	0.676911	-0.464351	-0.117427
H100	H	0.805717	-0.549470	-0.069716
H101	H	0.773085	-0.550817	-0.162613
O102	O	0.171562	0.101746	-0.246131
C103	C	0.119516	0.168629	-0.246950
H104	H	0.141278	0.216336	-0.203298
H105	H	0.058081	0.152302	-0.220838
C106	C	0.089528	0.140705	-0.395700
C107	C	0.116260	0.199302	-0.342091
H108	H	0.087516	0.159624	-0.454387
H109	H	0.124590	0.095643	-0.395148
H110	H	0.038335	0.127104	-0.373929
H111	H	0.167455	0.212895	-0.363856
H112	H	0.081206	0.244368	-0.342649
H113	H	1.092623	-0.525814	-0.082774
O114	O	0.418531	0.105802	0.045911
C115	C	0.434291	0.173795	0.093296
H116	H	0.453869	0.221472	0.045099
H117	H	0.483095	0.159276	0.139375
C118	C	0.335084	0.144717	0.207113
C119	C	0.359124	0.203278	0.147916
H120	H	0.288720	0.162902	0.240809
H121	H	0.324468	0.098907	0.175191
H122	H	0.375761	0.132623	0.245504
H123	H	0.318452	0.215364	0.109520
H124	H	0.369732	0.249091	0.179833
H125	H	1.056316	-0.148358	-0.080008
O126	O	0.823567	-0.483746	-0.062294
C127	C	0.823302	-0.436031	0.013586
H128	H	0.886185	-0.431977	0.034113
H129	H	0.785473	-0.462821	0.069566
C130	C	0.711938	-0.358179	-0.032084
C131	C	0.789172	-0.353193	-0.006877
H132	H	0.690881	-0.307081	-0.044704
H133	H	0.712113	-0.390326	-0.083205
H134	H	0.680423	-0.380507	0.014571
H135	H	0.820688	-0.330875	-0.053535
H136	H	0.789001	-0.321040	0.044236
H137	H	0.699806	0.110299	0.091833
O138	O	0.333868	0.104301	-0.258549
C139	C	0.279851	0.103389	-0.324914
H140	H	0.219533	0.127170	-0.296938
H141	H	0.275147	0.040553	-0.349092
C142	C	0.382761	0.125944	-0.436903
C143	C	0.308680	0.155158	-0.402543
H144	H	0.400545	0.157874	-0.484790
H145	H	0.419154	0.126555	-0.392192
H146	H	0.378832	0.073581	-0.457044
H147	H	0.312612	0.207516	-0.382393
H148	H	0.272287	0.154557	-0.447253
O149	O	0.787227	-0.106328	-0.059800
C150	C	0.786996	-0.058580	-0.135624
H151	H	0.825331	-0.088486	-0.191542
H152	H	0.811392	0.000693	-0.120323
C153	C	0.654923	-0.009363	-0.094904
C154	C	0.702000	-0.046097	-0.163586
H155	H	0.602493	-0.001659	-0.112151
H156	H	0.655079	-0.041529	-0.043819
H157	H	0.675262	0.040028	-0.082160
H158	H	0.681666	-0.095490	-0.176322
H159	H	0.701839	-0.013939	-0.214675
H160	H	1.031946	-0.392286	-0.078206
H161	H	0.327524	0.104176	0.044250
H162	H	0.699786	0.110283	-0.197861
O163	O	0.809889	-0.644712	-0.061339
C164	C	0.818299	-0.727442	-0.061992
H165	H	0.878567	-0.746653	-0.038826
H166	H	0.812962	-0.750137	-0.131850
C167	C	0.679262	-0.737609	-0.028086
C168	C	0.753281	-0.761204	0.000374
H169	H	0.639154	-0.758436	0.010381
H170	H	0.673595	-0.681872	-0.027649
H171	H	0.674825	-0.756523	-0.086301
H172	H	0.757720	-0.742282	0.058583
H173	H	0.758947	-0.816939	-0.000052
O174	O	1.090740	-0.681553	-0.082760
C175	C	1.135761	-0.667350	-0.162034
H176	H	1.120544	-0.605469	-0.186166
H177	H	1.121983	-0.711935	-0.214106
C178	C	1.242795	-0.751201	-0.116051
C179	C	1.224110	-0.675195	-0.145686
H180	H	1.297293	-0.756044	-0.105969
H181	H	1.212463	-0.760773	-0.062644
H182	H	1.231307	-0.788347	-0.159449
H183	H	1.235589	-0.638052	-0.102283
H184	H	1.254446	-0.665618	-0.199086
O185	O	0.773478	-0.267021	-0.058495
C186	C	0.731841	-0.241396	0.020520
H187	H	0.757133	-0.184866	0.043894
H188	H	0.737802	-0.288597	0.073182
C189	C	0.613075	-0.295440	-0.024592
C190	C	0.644135	-0.226004	0.004113
H191	H	0.558974	-0.285949	-0.034709
H192	H	0.641127	-0.312707	-0.077824
H193	H	0.618051	-0.334767	0.019298
H194	H	0.639168	-0.186682	-0.039781
H195	H	0.616080	-0.208730	0.057338
O196	O	1.037727	0.001112	0.512109
C197	C	1.081903	-0.045845	0.448307
H198	H	1.084941	-0.013790	0.382359
H199	H	1.052397	-0.103910	0.440745
C200	C	1.162183	-0.101371	0.558909
C201	C	1.165919	-0.061998	0.477913
H202	H	1.214007	-0.111339	0.577173
H203	H	1.132420	-0.069738	0.601895
H204	H	1.137591	-0.149754	0.552597
H205	H	1.190502	-0.013612	0.484229
H206	H	1.195689	-0.093624	0.434929
