data_functionalizedCrystal
_audit_creation_method	'MofGen! by Chris Wilmer'
_symmetry_space_group_name_H-M	'P1'
_symmetry_Int_Tables_number	1
_symmetry_cell_setting	triclinic
loop_
_symmetry_equiv_pos_as_xyz
  x,y,z
_cell_length_a	12.759401
_cell_length_b	25.639239
_cell_length_c	25.639233
_cell_angle_alpha	89.981253
_cell_angle_beta	89.989669
_cell_angle_gamma	90.039113
loop_
_atom_site_label
_atom_site_type_symbol
_atom_site_fract_x
_atom_site_fract_y
_atom_site_fract_z
Zn1	Zn	1.605994	-0.208208	-0.295577
Zn2	Zn	2.105994	0.291792	0.204423
Zn3	Zn	1.605840	-0.295627	-0.208142
Zn4	Zn	2.105840	0.204373	0.291858
Zn5	Zn	1.430322	-0.208208	-0.208159
Zn6	Zn	1.930322	0.291792	0.291841
Zn7	Zn	1.430211	-0.295615	-0.295549
Zn8	Zn	1.930211	0.204385	0.204451
O9	O	1.518092	-0.251915	-0.251857
O10	O	2.018092	0.248085	0.248143
O11	O	1.752995	-0.219810	-0.283983
O12	O	2.252995	0.280190	0.216017
O13	O	1.582539	-0.284036	-0.134979
O14	O	2.082539	0.215964	0.365021
O15	O	1.453736	-0.135043	-0.219774
O16	O	1.953736	0.364957	0.280226
O17	O	1.752882	-0.284036	-0.219744
O18	O	2.252882	0.215964	0.280256
O19	O	1.582801	-0.135043	-0.284000
O20	O	2.082801	0.364957	0.216000
O21	O	1.453586	-0.219810	-0.134992
O22	O	1.953586	0.280190	0.365008
O23	O	1.283286	-0.219798	-0.219748
O24	O	1.783286	0.280202	0.280252
O25	O	1.453548	-0.284016	-0.368718
O26	O	1.953548	0.215984	0.131282
O27	O	1.283205	-0.284016	-0.283953
O28	O	1.783205	0.215984	0.216047
O29	O	1.582694	-0.219798	-0.368739
O30	O	2.082694	0.280202	0.131261
O31	O	1.582432	-0.368791	-0.219717
O32	O	2.082432	0.131209	0.280283
O33	O	1.453398	-0.368782	-0.283936
O34	O	1.953398	0.131218	0.216064
C35	C	1.245125	-0.251906	-0.251849
C36	C	1.745125	0.248094	0.248151
C37	C	1.128348	-0.251915	-0.251859
C38	C	1.628348	0.248085	0.248141
C39	C	1.073545	-0.218532	-0.285359
C40	C	1.573545	0.281468	0.214641
C41	C	0.963821	-0.218538	-0.285363
C42	C	1.463821	0.281462	0.214637
C43	C	0.963712	-0.285312	-0.218364
C44	C	1.463712	0.214688	0.281636
C45	C	1.073434	-0.285304	-0.218358
C46	C	1.573434	0.214696	0.281642
C47	C	1.517915	-0.387757	-0.251833
C48	C	2.017915	0.112243	0.248167
C49	C	1.517936	-0.445871	-0.251840
C50	C	2.017936	0.054129	0.248160
C51	C	1.585455	-0.806226	-0.218475
C52	C	2.085455	-0.306226	0.281525
C53	C	1.585496	-0.860831	-0.218482
C54	C	2.085496	-0.360831	0.281518
O55	O	1.642720	-0.889061	-0.190088
O56	O	2.142720	-0.389061	0.309912
N57	N	1.518277	-0.888154	-0.251892
N58	N	2.018277	-0.388154	0.248108
C59	C	1.451020	-0.860870	-0.285300
C60	C	1.951020	-0.360870	0.214700
O61	O	1.393849	-0.889124	-0.313718
O62	O	1.893849	-0.389124	0.186282
C63	C	1.450985	-0.806267	-0.285295
C64	C	1.950985	-0.306267	0.214705
C65	C	1.518201	-0.778946	-0.251880
C66	C	2.018201	-0.278946	0.248120
C67	C	1.652667	-0.778906	-0.185063
C68	C	2.152667	-0.278906	0.314937
C69	C	1.652624	-0.724306	-0.185056
C70	C	2.152624	-0.224306	0.314944
C71	C	1.585370	-0.697025	-0.218460
C72	C	2.085370	-0.197025	0.281540
C73	C	1.518159	-0.724346	-0.251872
C74	C	2.018159	-0.224346	0.248128
C75	C	1.383734	-0.778984	-0.318705
C76	C	1.883734	-0.278984	0.181295
C77	C	1.383706	-0.724376	-0.318698
C78	C	1.883706	-0.224376	0.181302
C79	C	1.450922	-0.697056	-0.285283
C80	C	1.950922	-0.197056	0.214717
C81	C	1.450863	-0.642465	-0.285269
C82	C	1.950863	-0.142465	0.214731
N83	N	1.518082	-0.615142	-0.251860
N84	N	2.018082	-0.115142	0.248140
C85	C	1.585336	-0.642422	-0.218456
C86	C	2.085336	-0.142422	0.281544
C87	C	1.451099	-0.975540	-0.285308
C88	C	1.951099	-0.475540	0.214692
C89	C	1.451127	-1.030143	-0.285310
C90	C	1.951127	-0.530143	0.214690
C91	C	1.585605	-1.030100	-0.218493
C92	C	2.085605	-0.530100	0.281507
C93	C	1.585571	-0.975497	-0.218489
C94	C	2.085571	-0.475497	0.281511
C95	C	1.518318	-0.948217	-0.251899
C96	C	2.018318	-0.448217	0.248101
C97	C	1.585241	-0.527757	-0.218442
C98	C	2.085241	-0.027757	0.281558
C99	C	1.585190	-0.473152	-0.218436
C100	C	2.085190	0.026848	0.281564
C101	C	1.450716	-0.473199	-0.285254
C102	C	1.950716	0.026801	0.214746
C103	C	1.450763	-0.527800	-0.285259
C104	C	1.950763	-0.027800	0.214741
C105	C	1.518034	-0.555077	-0.251851
C106	C	2.018034	-0.055077	0.248149
O107	O	1.393671	-0.614200	-0.313650
O108	O	1.893671	-0.114200	0.186350
O109	O	1.642507	-0.614161	-0.190047
O110	O	2.142507	-0.114161	0.309953
C111	C	1.792125	-0.251924	-0.251865
C112	C	2.292125	0.248076	0.248135
C113	C	1.908902	-0.251928	-0.251868
C114	C	2.408902	0.248072	0.248132
C115	C	1.518126	-0.251906	-0.388230
C116	C	2.018126	0.248094	0.111770
C117	C	1.518140	-0.251902	-0.446344
C118	C	2.018140	0.248098	0.053656
C119	C	1.518298	-0.115542	-0.251892
C120	C	2.018298	0.384458	0.248108
C121	C	1.518386	-0.057428	-0.251907
C122	C	2.018386	0.442572	0.248093
C123	C	1.585472	-0.218364	-0.806723
C124	C	2.085472	0.281636	-0.306723
C125	C	1.585485	-0.218350	-0.861328
C126	C	2.085485	0.281650	-0.361328
O127	O	1.642649	-0.189897	-0.889578
O128	O	2.142649	0.310103	-0.389578
N129	N	1.518256	-0.251779	-0.888627
N130	N	2.018256	0.248221	-0.388627
C131	C	1.451002	-0.285221	-0.861318
C132	C	1.951002	0.214779	-0.361318
O133	O	1.393819	-0.313654	-0.889552
O134	O	1.893819	0.186346	-0.389552
C135	C	1.450984	-0.285233	-0.806715
C136	C	1.950984	0.214767	-0.306715
C137	C	1.518226	-0.251805	-0.779419
C138	C	2.018226	0.248195	-0.279419
C139	C	1.652707	-0.184939	-0.779427
C140	C	2.152707	0.315061	-0.279427
C141	C	1.652695	-0.184954	-0.724827
C142	C	2.152695	0.315046	-0.224827
C143	C	1.585449	-0.218395	-0.697522
C144	C	2.085449	0.281605	-0.197522
C145	C	1.518214	-0.251820	-0.724818
C146	C	2.018214	0.248180	-0.224818
C147	C	1.383726	-0.318672	-0.779408
C148	C	1.883726	0.181328	-0.279408
C149	C	1.383714	-0.318680	-0.724801
C150	C	1.883714	0.181320	-0.224801
C151	C	1.450955	-0.285252	-0.697505
C152	C	1.950955	0.214748	-0.197505
C153	C	1.450955	-0.285276	-0.642913
C154	C	1.950955	0.214724	-0.142913
N155	N	1.518184	-0.251847	-0.615614
N156	N	2.018184	0.248153	-0.115614
C157	C	1.585431	-0.218406	-0.642919
C158	C	2.085431	0.281594	-0.142919
C159	C	1.451043	-0.285194	-0.975989
C160	C	1.951043	0.214806	-0.475989
C161	C	1.451065	-0.285186	-1.030591
C162	C	1.951065	0.214814	-0.530591
C163	C	1.585547	-0.218314	-1.030597
C164	C	2.085547	0.281686	-0.530597
C165	C	1.585529	-0.218325	-0.975994
C166	C	2.085529	0.281675	-0.475994
C167	C	1.518272	-0.251765	-0.948690
C168	C	2.018272	0.248235	-0.448690
C169	C	1.585402	-0.218441	-0.528254
C170	C	2.085402	0.281559	-0.028254
C171	C	1.585387	-0.218461	-0.473648
C172	C	2.085387	0.281539	0.026352
C173	C	1.450901	-0.285331	-0.473648
C174	C	1.950901	0.214669	0.026352
C175	C	1.450920	-0.285314	-0.528248
C176	C	1.950920	0.214686	-0.028248
C177	C	1.518173	-0.251864	-0.555550
C178	C	2.018173	0.248136	-0.055550
O179	O	1.393818	-0.313713	-0.614628
O180	O	1.893818	0.186287	-0.114628
O181	O	1.642595	-0.189974	-0.614678
O182	O	2.142595	0.310026	-0.114678
C183	C	1.518119	-0.251886	-0.116014
C184	C	2.018119	0.248114	0.383986
C185	C	1.518308	-0.251743	-0.057901
C186	C	2.018308	0.248257	0.442099
H187	H	1.118253	-0.191343	-0.312636
H188	H	1.618253	0.308657	0.187364
F189	F	0.905501	-0.183007	-0.321018
F190	F	1.405501	0.316993	0.178982
H191	H	1.328932	-0.345906	-0.702573
H192	H	1.828932	0.154094	-0.202573
F193	F	1.379146	-0.444156	-0.320805
F194	F	1.879146	0.055844	0.179195
F195	F	1.131763	-0.320831	-0.182696
F196	F	1.631763	0.179169	0.317304
H197	H	1.640281	-0.191104	-0.953773
H198	H	2.140281	0.308896	-0.453773
H199	H	1.640147	-0.191240	-0.451426
H200	H	2.140147	0.308760	0.048574
H201	H	1.396176	-0.312538	-0.550474
H202	H	1.896176	0.187462	-0.050474
F203	F	0.905260	-0.320846	-0.182713
F204	F	1.405260	0.179154	0.317287
H205	H	1.639925	-0.450909	-0.191223
H206	H	2.139925	0.049091	0.308777
H207	H	1.396383	-1.052382	-0.312515
H208	H	1.896383	-0.552382	0.187485
H209	H	1.396154	-0.312559	-0.451406
H210	H	1.896154	0.187441	0.048594
F211	F	1.379507	-0.946512	-0.320866
F212	F	1.879507	-0.446512	0.179134
F213	F	1.312201	-0.808048	-0.354275
F214	F	1.812201	-0.308048	0.145725
F215	F	1.656976	-0.182839	-0.557303
F216	F	2.156976	0.317161	-0.057303
F217	F	1.312161	-0.354253	-0.808447
F218	F	1.812161	0.145747	-0.308447
H219	H	1.640022	-0.549960	-0.191239
H220	H	2.140022	-0.049960	0.308761
H221	H	1.707439	-0.801112	-0.157861
H222	H	2.207439	-0.301112	0.342139
F223	F	1.312126	-0.695347	-0.354259
F224	F	1.812126	-0.195347	0.145741
F225	F	1.724178	-0.695236	-0.149497
F226	F	2.224178	-0.195236	0.350503
H227	H	1.640304	-0.953256	-0.191280
H228	H	2.140304	-0.453256	0.308720
H229	H	1.640371	-1.052321	-0.191296
H230	H	2.140371	-0.552321	0.308704
F231	F	1.379512	-0.320771	-1.059636
F232	F	1.879512	0.179229	-0.559636
H233	H	1.396034	-0.550045	-0.312469
H234	H	1.896034	-0.050045	0.187531
F235	F	1.724258	-0.149373	-0.695783
F236	F	2.224258	0.350627	-0.195783
H237	H	1.707468	-0.157705	-0.801653
H238	H	2.207468	0.342295	-0.301653
F239	F	1.657116	-0.182722	-1.059666
F240	F	2.157116	0.317278	-0.559666
F241	F	1.379460	-0.320791	-0.946935
F242	F	1.879460	0.179209	-0.446935
