data_functionalizedCrystal
_audit_creation_method	'MofGen! by Chris Wilmer'
_symmetry_space_group_name_H-M	'P1'
_symmetry_Int_Tables_number	1
_symmetry_cell_setting	triclinic
loop_
_symmetry_equiv_pos_as_xyz
  x,y,z
_cell_length_a	8.497374
_cell_length_b	12.827893
_cell_length_c	12.827885
_cell_angle_alpha	89.980728
_cell_angle_beta	89.982760
_cell_angle_gamma	90.001063
loop_
_atom_site_label
_atom_site_type_symbol
_atom_site_fract_x
_atom_site_fract_y
_atom_site_fract_z
Zn1	Zn	0.627981	-1.597773	0.590940
Zn2	Zn	0.891830	-1.597711	0.416238
Zn3	Zn	0.628058	-1.423015	0.416213
Zn4	Zn	0.891713	-1.423044	0.590938
O5	O	0.759895	-1.510386	0.503582
O6	O	0.662998	-1.744001	0.567776
O7	O	0.856921	-1.574499	0.269999
O8	O	0.407285	-1.446211	0.439381
O9	O	0.856847	-1.743955	0.439424
O10	O	0.407229	-1.574605	0.567752
O11	O	0.663129	-1.446151	0.269981
O12	O	0.663015	-1.276783	0.439380
O13	O	0.856647	-1.446260	0.737175
O14	O	0.856721	-1.276804	0.567750
O15	O	0.662884	-1.574633	0.737176
O16	O	1.112577	-1.574527	0.439423
O17	O	1.112490	-1.446200	0.567774
C18	C	0.759865	-1.238876	0.503563
C19	C	0.759890	-1.122723	0.503579
C20	C	0.759744	-1.510457	0.776153
C21	C	0.759679	-1.510487	0.892306
C22	C	0.759927	-1.782956	0.503603
C23	C	0.759940	-1.899109	0.503612
C24	C	1.169775	-1.510373	0.503598
C25	C	1.348419	-1.510400	0.503580
C26	C	0.759932	-1.510375	0.232073
C27	C	0.759552	-1.510547	0.115920
C28	C	0.855891	-1.070976	0.567002
C29	C	0.855919	-0.950926	0.567021
C30	C	0.663781	-1.574017	0.944091
C31	C	0.663712	-1.574050	1.064142
H32	H	0.938056	-1.115551	0.621292
O33	O	0.661661	-0.952067	0.438876
C34	C	0.504435	-0.925492	0.461864
H35	H	0.501143	-0.846238	0.501983
H36	H	0.433561	-0.921823	0.386510
H37	H	0.451465	-0.986923	0.515685
H38	H	0.938115	-0.906425	0.621317
O39	O	0.662090	-1.069515	0.438691
C40	C	0.751900	-1.006341	0.371194
H41	H	0.876088	-1.039305	0.364598
H42	H	0.694720	-1.004961	0.290823
H43	H	0.757513	-0.923674	0.403578
O44	O	0.857741	-1.445771	1.062850
C45	C	1.014992	-1.468570	1.089477
H46	H	1.022982	-1.552032	1.119563
H47	H	1.092876	-1.459619	1.017653
H48	H	1.056278	-1.412497	1.152745
O49	O	0.565925	-1.639089	1.117216
C50	C	0.600361	-1.743256	1.090611
H51	H	0.726366	-1.748547	1.060544
H52	H	0.586834	-1.794839	1.162441
H53	H	0.515731	-1.770616	1.027336
O54	O	0.565817	-1.638736	0.890847
C55	C	0.464011	-1.579174	0.827720
H56	H	0.519666	-1.499954	0.811476
H57	H	0.443032	-1.621650	0.750924
H58	H	0.347015	-1.567756	0.869711
O59	O	0.857623	-1.445527	0.945272
C60	C	0.946834	-1.386471	0.873814
H61	H	0.882370	-1.382764	0.795978
H62	H	0.963594	-1.304171	0.905426
H63	H	1.066674	-1.424720	0.862254
