data_functionalizedCrystal
_audit_creation_method	'MofGen! by Chris Wilmer'
_symmetry_space_group_name_H-M	'P1'
_symmetry_Int_Tables_number	1
_symmetry_cell_setting	triclinic
loop_
_symmetry_equiv_pos_as_xyz
  x,y,z
_cell_length_a	19.077236
_cell_length_b	12.759394
_cell_length_c	19.077174
_cell_angle_alpha	92.276241
_cell_angle_beta	85.294282
_cell_angle_gamma	92.306804
loop_
_atom_site_label
_atom_site_type_symbol
_atom_site_fract_x
_atom_site_fract_y
_atom_site_fract_z
Zn1	Zn	1.093786	-0.379333	-0.441992
Zn2	Zn	1.593786	0.120667	0.058008
Zn3	Zn	1.088993	-0.548246	-0.324112
Zn4	Zn	1.588993	-0.048246	0.175888
Zn5	Zn	0.971168	-0.379349	-0.319375
Zn6	Zn	1.471168	0.120651	0.180625
Zn7	Zn	0.975885	-0.561739	-0.437217
Zn8	Zn	1.475885	-0.061739	0.062783
O9	O	1.032458	-0.467167	-0.380674
O10	O	1.532458	0.032833	0.119326
O11	O	1.191803	-0.396085	-0.430336
O12	O	1.691803	0.103915	0.069664
O13	O	1.069383	-0.520201	-0.224833
O14	O	1.569383	-0.020201	0.275167
O15	O	0.987465	-0.232324	-0.335656
O16	O	1.487465	0.267676	0.164344
O17	O	1.188281	-0.520185	-0.343730
O18	O	1.688281	-0.020185	0.156270
O19	O	1.077553	-0.232313	-0.425742
O20	O	1.577553	0.267687	0.074258
O21	O	0.982817	-0.396113	-0.221353
O22	O	1.482817	0.103887	0.278647
O23	O	0.873141	-0.409197	-0.331026
O24	O	1.373141	0.090803	0.168974
O25	O	0.995505	-0.543183	-0.536501
O26	O	1.495505	-0.043183	-0.036501
O27	O	0.876607	-0.543199	-0.417604
O28	O	1.376607	-0.043199	0.082396
O29	O	1.082127	-0.409170	-0.540009
O30	O	1.582127	0.090830	-0.040009
O31	O	1.073957	-0.697058	-0.339100
O32	O	1.573957	-0.197058	0.160900
O33	O	0.990857	-0.706972	-0.422198
O34	O	1.490857	-0.206972	0.077802
C35	C	0.849295	-0.477664	-0.373283
C36	C	1.349295	0.022336	0.126717
C37	C	0.770937	-0.482182	-0.370138
C38	C	1.270937	0.017818	0.129862
C39	C	0.735962	-0.419802	-0.413821
C40	C	1.235962	0.080198	0.086179
C41	C	0.662337	-0.424041	-0.410860
C42	C	1.162337	0.075959	0.089140
C43	C	0.623688	-0.490666	-0.364219
C44	C	1.123688	0.009334	0.135781
C45	C	0.658668	-0.553048	-0.320532
C46	C	1.158668	-0.053048	0.179468
C47	C	0.732292	-0.548803	-0.323490
C48	C	1.232292	-0.048803	0.176510
C49	C	0.403299	-0.510274	-0.350527
C50	C	0.903299	-0.010274	0.149473
C51	C	0.329670	-0.514517	-0.347573
C52	C	0.829670	-0.014517	0.152427
C53	C	0.333343	-0.385509	-0.437900
C54	C	0.833343	0.114491	0.062100
C55	C	0.406969	-0.381274	-0.440857
C56	C	0.906969	0.118726	0.059143
C57	C	0.441942	-0.443652	-0.397167
C58	C	0.941942	0.056348	0.102833
N59	N	0.548431	-0.495003	-0.361193
N60	N	1.048431	0.004997	0.138807
N61	N	0.517198	-0.439308	-0.400191
N62	N	1.017198	0.060692	0.099809
C63	C	1.032418	-0.740136	-0.380661
C64	C	1.532418	-0.240136	0.119339
C65	C	1.032467	-0.856911	-0.380681
C66	C	1.532467	-0.356911	0.119319
C67	C	1.126210	-0.856748	-0.474553
C68	C	1.626210	-0.356748	0.025447
C69	C	1.173104	-0.911526	-0.521495
C70	C	1.673104	-0.411526	-0.021495
C71	C	1.173147	-1.021247	-0.521512
C72	C	1.673147	-0.521247	-0.021512
C73	C	1.126289	-1.076191	-0.474583
C74	C	1.626289	-0.576191	0.025417
C75	C	1.079395	-1.021412	-0.427641
C76	C	1.579395	-0.521412	0.072359
C77	C	1.079359	-0.911690	-0.427628
C78	C	1.579359	-0.411690	0.072372
C79	C	0.985649	-1.021575	-0.333774
C80	C	1.485649	-0.521575	0.166226
C81	C	0.985609	-0.911855	-0.333753
C82	C	1.485609	-0.411855	0.166247
C83	C	0.938791	-1.076520	-0.286845
C84	C	1.438791	-0.576520	0.213155
C85	C	0.891899	-1.021741	-0.239899
C86	C	1.391899	-0.521741	0.260101
C87	C	0.891859	-0.912014	-0.239883
C88	C	1.391859	-0.412014	0.260117
C89	C	0.938715	-0.857077	-0.286811
C90	C	1.438715	-0.357077	0.213189
C91	C	1.216337	-0.456629	-0.388094
C92	C	1.716337	0.043371	0.111906
C93	C	1.294695	-0.452138	-0.391256
C94	C	1.794695	0.047862	0.108744
C95	C	1.039877	-0.477680	-0.564549
C96	C	1.539877	0.022320	-0.064549
C97	C	1.043039	-0.482160	-0.642906
C98	C	1.543039	0.017840	-0.142906
C99	C	1.032518	-0.193131	-0.380703
C100	C	1.532518	0.306869	0.119297
C101	C	1.032543	-0.076354	-0.380716
C102	C	1.532543	0.423646	0.119284
C103	C	0.999456	-0.419660	-0.677905
C104	C	1.499456	0.080340	-0.177905
C105	C	1.002424	-0.423878	-0.751530
C106	C	1.502424	0.076122	-0.251530
C107	C	1.048978	-0.490592	-0.790153
C108	C	1.548978	0.009408	-0.290153
C109	C	1.092563	-0.553099	-0.755149
C110	C	1.592563	-0.053099	-0.255149
C111	C	1.089591	-0.548885	-0.681525
C112	C	1.589591	-0.048885	-0.181525
C113	C	1.062696	-0.510126	-1.010537
C114	C	1.562696	-0.010126	-0.510537
C115	C	1.065666	-0.514333	-1.084165
C116	C	1.565666	-0.014333	-0.584165
C117	C	0.975526	-0.385113	-1.080541
C118	C	1.475526	0.114887	-0.580541
C119	C	0.972561	-0.380900	-1.006917
C120	C	1.472561	0.119100	-0.506917
C121	C	1.016143	-0.443412	-0.971919
C122	C	1.516143	0.056588	-0.471919
N123	N	1.052015	-0.494903	-0.865409
N124	N	1.552015	0.005097	-0.365409
N125	N	1.013102	-0.439105	-0.896664
N126	N	1.513102	0.060895	-0.396664
C127	C	1.025109	-0.456616	-0.197516
C128	C	1.525109	0.043384	0.302484
C129	C	1.022084	-0.451833	-0.119165
C130	C	1.522084	0.048167	0.380835
H131	H	0.633863	-0.373248	-0.446432
H132	H	1.133863	0.126752	0.053568
C133	C	0.778472	-0.346519	-0.465126
C134	C	1.278472	0.153481	0.034874
H135	H	0.827330	-0.352930	-0.460638
H136	H	1.327330	0.147070	0.039362
H137	H	0.765996	-0.276015	-0.454407
H138	H	1.265996	0.223985	0.045593
H139	H	0.768322	-0.365416	-0.511992
H140	H	1.268322	0.134584	-0.011992
C141	C	0.449477	-0.307977	-0.492155
C142	C	0.949477	0.192023	0.007845
H143	H	0.418101	-0.271424	-0.517742
H144	H	0.918101	0.228576	-0.017742
H145	H	0.479440	-0.348329	-0.523980
H146	H	0.979440	0.151671	-0.023980
H147	H	0.477106	-0.258941	-0.466385
H148	H	0.977106	0.241059	0.033615
H149	H	1.211325	-1.065848	-0.559743
H150	H	1.711325	-0.565848	-0.059743
C151	C	0.938833	-1.197209	-0.286861
C152	C	1.438833	-0.697209	0.213139
H153	H	0.904208	-1.222084	-0.252194
H154	H	1.404208	-0.722084	0.247806
H155	H	0.983852	-1.218677	-0.276542
H156	H	1.483852	-0.718677	0.223458
H157	H	0.928450	-1.225324	-0.331858
H158	H	1.428450	-0.725324	0.168142
C159	C	0.616157	-0.626335	-0.269230
C160	C	1.116157	-0.126335	0.230770
H161	H	0.567300	-0.619939	-0.273729
H162	H	1.067300	-0.119939	0.226271
H163	H	0.626303	-0.607450	-0.222365
H164	H	1.126303	-0.107450	0.277635
H165	H	0.628636	-0.696842	-0.279957
H166	H	1.128636	-0.196842	0.220043
C167	C	0.954487	-0.355121	-0.790027
C168	C	1.454487	0.144879	-0.290027
H169	H	0.926342	-0.314775	-0.756480
H170	H	1.426342	0.185225	-0.256480
H171	H	0.924917	-0.398708	-0.817503
H172	H	1.424917	0.101292	-0.317503
H173	H	0.982631	-0.309442	-0.819840
H174	H	1.482631	0.190558	-0.319840
H175	H	0.431766	-0.561068	-0.314952
H176	H	0.931766	-0.061068	0.185048
H177	H	0.853748	-1.066485	-0.201696
H178	H	1.353748	-0.566485	0.298304
C179	C	0.770766	-0.617429	-0.275445
C180	C	1.270766	-0.117429	0.224555
H181	H	0.737205	-0.657725	-0.247250
H182	H	1.237205	-0.157725	0.252750
H183	H	0.798248	-0.573764	-0.245929
H184	H	1.298248	-0.073764	0.254071
H185	H	0.800572	-0.663153	-0.303522
H186	H	1.300572	-0.163153	0.196478
C187	C	0.921356	-0.307507	-0.964437
C188	C	1.421356	0.192493	-0.464437
H189	H	0.895823	-0.270890	-0.995826
H190	H	1.395823	0.229110	-0.495826
H191	H	0.947182	-0.258546	-0.936814
H192	H	1.447182	0.241454	-0.436814
H193	H	0.889466	-0.347810	-0.934469
H194	H	1.389466	0.152190	-0.434469
C195	C	0.840275	-0.851766	-0.188246
C196	C	1.340275	-0.351766	0.311754
H197	H	0.812380	-0.900206	-0.160300
H198	H	1.312380	-0.400206	0.339700
H199	H	0.810611	-0.812288	-0.213944
H200	H	1.310611	-0.312288	0.286056
H201	H	0.866013	-0.805647	-0.158627
H202	H	1.366013	-0.305647	0.341373
H203	H	0.961550	-0.365328	-0.646463
H204	H	1.461550	0.134672	-0.146463
C205	C	0.294870	-0.316890	-0.485948
C206	C	0.794870	0.183110	0.014052
H207	H	0.245487	-0.328951	-0.477504
H208	H	0.745487	0.171049	0.022496
H209	H	0.308854	-0.334381	-0.533782
H210	H	0.808854	0.165619	-0.033782
H211	H	0.306528	-0.244992	-0.476188
H212	H	0.806528	0.255008	0.023812
C213	C	1.126166	-0.736059	-0.474536
C214	C	1.626166	-0.236059	0.025464
H215	H	1.160784	-0.711183	-0.509209
H216	H	1.660784	-0.211183	-0.009209
H217	H	1.136542	-0.707941	-0.429542
H218	H	1.636542	-0.207941	0.070458
H219	H	1.081143	-0.714597	-0.484862
H220	H	1.581143	-0.214597	0.015138
H221	H	1.130465	-0.607424	-0.786601
H222	H	1.630465	-0.107424	-0.286601
H223	H	0.940043	-0.334221	-1.109045
H224	H	1.440043	0.165779	-0.609045
C225	C	0.287158	-0.587806	-0.296265
C226	C	0.787158	-0.087806	0.203735
H227	H	0.318531	-0.624342	-0.270665
H228	H	0.818531	-0.124342	0.229335
H229	H	0.259527	-0.636840	-0.322027
H230	H	0.759527	-0.136840	0.177973
H231	H	0.257195	-0.547438	-0.264443
H232	H	0.757195	-0.047438	0.235557
C233	C	1.137532	-0.617635	-0.643026
C234	C	1.637532	-0.117635	-0.143026
H235	H	1.165688	-0.657966	-0.676572
H236	H	1.665688	-0.157966	-0.176572
H237	H	1.109393	-0.663313	-0.613213
H238	H	1.609393	-0.163313	-0.113213
H239	H	1.167101	-0.574039	-0.615549
H240	H	1.667101	-0.074039	-0.115549
C241	C	0.938669	-0.736388	-0.286799
C242	C	1.438669	-0.236388	0.213201
H243	H	0.973287	-0.711516	-0.321475
H244	H	1.473287	-0.211516	0.178525
H245	H	0.949045	-0.708262	-0.241808
H246	H	1.449045	-0.208262	0.258192
H247	H	0.893646	-0.714930	-0.297127
H248	H	1.393646	-0.214930	0.202873
H249	H	1.103580	-0.568660	-1.115611
H250	H	1.603580	-0.068660	-0.615611
H251	H	1.211254	-0.866781	-0.559705
H252	H	1.711254	-0.366781	-0.059705
H253	H	1.098176	-0.561039	-0.982050
H254	H	1.598176	-0.061039	-0.482050
H255	H	1.126322	-1.165531	-0.474607
H256	H	1.626322	-0.665531	0.025393
