data_functionalizedCrystal
_audit_creation_method	'MofGen! by Chris Wilmer'
_symmetry_space_group_name_H-M	'P1'
_symmetry_Int_Tables_number	1
_symmetry_cell_setting	triclinic
loop_
_symmetry_equiv_pos_as_xyz
  x,y,z
_cell_length_a	21.395362
_cell_length_b	25.639239
_cell_length_c	21.395355
_cell_angle_alpha	89.980666
_cell_angle_beta	89.956060
_cell_angle_gamma	90.054564
loop_
_atom_site_label
_atom_site_type_symbol
_atom_site_fract_x
_atom_site_fract_y
_atom_site_fract_z
Zn1	Zn	0.957825	-0.207990	-0.354582
Zn2	Zn	0.957713	-0.295409	-0.249803
Zn3	Zn	0.853040	-0.208014	-0.249783
Zn4	Zn	0.852994	-0.295420	-0.354508
O5	O	0.905393	-0.251708	-0.302169
O6	O	1.045488	-0.219571	-0.340722
O7	O	0.943800	-0.283822	-0.162122
O8	O	0.867006	-0.134846	-0.263708
O9	O	1.045405	-0.283798	-0.263742
O10	O	0.943991	-0.134828	-0.340703
O11	O	0.866897	-0.219613	-0.162108
O12	O	0.765356	-0.219623	-0.263636
O13	O	0.866928	-0.283817	-0.442196
O14	O	0.765322	-0.283840	-0.340576
O15	O	0.943947	-0.219582	-0.442250
O16	O	0.943756	-0.368576	-0.263669
O17	O	0.866820	-0.368584	-0.340596
C18	C	0.742605	-0.251736	-0.302096
C19	C	0.672964	-0.251760	-0.302080
C20	C	0.640250	-0.285243	-0.342083
C21	C	0.574814	-0.285230	-0.342111
C22	C	0.542096	-0.251740	-0.302125
C23	C	0.574818	-0.218252	-0.262119
C24	C	0.640252	-0.218262	-0.262097
C25	C	0.438372	-0.247528	-0.245720
C26	C	0.372939	-0.247522	-0.245741
C27	C	0.340275	-0.251706	-0.302194
C28	C	0.373052	-0.255908	-0.358627
C29	C	0.438486	-0.255918	-0.358605
C30	C	0.471143	-0.251725	-0.302145
C31	C	0.236608	-0.285176	-0.342231
C32	C	0.171172	-0.285160	-0.342260
C33	C	0.171176	-0.218185	-0.262262
C34	C	0.236612	-0.218198	-0.262239
C35	C	0.269324	-0.251697	-0.302222
C36	C	0.905288	-0.387551	-0.302140
C37	C	0.905300	-0.445665	-0.302149
C38	C	0.945558	-0.806011	-0.262182
C39	C	0.945582	-0.860616	-0.262190
O40	O	0.979702	-0.888838	-0.228177
N41	N	0.905503	-0.887947	-0.302211
C42	C	0.865401	-0.860672	-0.342230
O43	O	0.831313	-0.888934	-0.376271
C44	C	0.865381	-0.806069	-0.342224
C45	C	0.905458	-0.778740	-0.302196
C46	C	0.985633	-0.778682	-0.222158
C47	C	0.985608	-0.724082	-0.222149
C48	C	0.945508	-0.696810	-0.262164
C49	C	0.905433	-0.724139	-0.302187
C50	C	0.825282	-0.778794	-0.382246
C51	C	0.825266	-0.724187	-0.382237
C52	C	0.865343	-0.696858	-0.342209
C53	C	0.865308	-0.642267	-0.342193
N54	N	0.905387	-0.614935	-0.302173
C55	C	0.945487	-0.642207	-0.262158
C56	C	0.865448	-0.975343	-0.342239
C57	C	0.865465	-1.029945	-0.342242
C58	C	0.945648	-1.029885	-0.262204
C59	C	0.945627	-0.975281	-0.262198
C60	C	0.905528	-0.948011	-0.302219
C61	C	0.945430	-0.527542	-0.262142
C62	C	0.945400	-0.472937	-0.262134
C63	C	0.865220	-0.473002	-0.342175
C64	C	0.865248	-0.527602	-0.342180
C65	C	0.905358	-0.554871	-0.302162
O66	O	0.831207	-0.614010	-0.376190
O67	O	0.979575	-0.613939	-0.228128
C68	C	1.068816	-0.251681	-0.302242
C69	C	1.138458	-0.251669	-0.302274
C70	C	0.905445	-0.251698	-0.465592
C71	C	0.905467	-0.251693	-0.535234
C72	C	0.905516	-0.115335	-0.302212
C73	C	0.905568	-0.057221	-0.302230
C74	C	0.945569	-0.218245	-0.567976
C75	C	0.945568	-0.218222	-0.633412
C76	C	0.905472	-0.251658	-0.666102
C77	C	0.865362	-0.285108	-0.633352
C78	C	0.865360	-0.285126	-0.567917
C79	C	0.900488	-0.298736	-0.769765
C80	C	0.900495	-0.298719	-0.835198
C81	C	0.905476	-0.251602	-0.867923
C82	C	0.910463	-0.204501	-0.835207
C83	C	0.910461	-0.204519	-0.769773
C84	C	0.905470	-0.251642	-0.737054
C85	C	0.945579	-0.218127	-0.971618
C86	C	0.945574	-0.218103	-1.037055
C87	C	0.865371	-0.284994	-1.036993
C88	C	0.865373	-0.285013	-0.971558
C89	C	0.905480	-0.251580	-0.938874
C90	C	0.905377	-0.251681	-0.139381
C91	C	0.905476	-0.251538	-0.069741
H92	H	0.263248	-0.190936	-0.229661
H93	H	0.978227	-0.191020	-0.541369
N94	N	0.915555	-0.156365	-0.868617
N95	N	0.962541	-0.128004	-0.861347
H96	H	0.966139	-0.094009	-0.884945
N97	N	0.824530	-1.057865	-0.383124
N98	N	0.824552	-1.106618	-0.383133
H99	H	0.795643	-1.126336	-0.412009
H100	H	0.832701	-0.312363	-0.541259
N101	N	0.895395	-0.346824	-0.868623
N102	N	0.895398	-0.346803	-0.927046
H103	H	0.891795	-0.380778	-0.950653
H104	H	0.548173	-0.312495	-0.374689
H105	H	0.978222	-0.190982	-0.660076
N106	N	0.270039	-0.319386	-0.383068
N107	N	0.306482	-0.352682	-0.360938
H108	H	0.330092	-0.376843	-0.389779
H109	H	0.896265	-0.337094	-0.743126
H110	H	0.914520	-0.166167	-0.743138
H111	H	0.346256	-0.244104	-0.199789
N112	N	0.471724	-0.243244	-0.188045
N113	N	0.442454	-0.239495	-0.137665
H114	H	0.466007	-0.236466	-0.096934
N115	N	0.986575	-0.947367	-0.221323
N116	N	1.026483	-0.916851	-0.243412
H117	H	1.055405	-0.897138	-0.214543
H118	H	0.832714	-0.312330	-0.659972
H119	H	0.548174	-0.190984	-0.229563
H120	H	0.792644	-0.801036	-0.414837
H121	H	0.978233	-0.190901	-0.945006
N122	N	0.986605	-1.057747	-0.221322
N123	N	0.964592	-1.088255	-0.181374
H124	H	0.993515	-1.107934	-0.152502
N125	N	0.673654	-0.319462	-0.382928
N126	N	0.644431	-0.349354	-0.418644
H127	H	0.668023	-0.373522	-0.447492
N128	N	0.673662	-0.184054	-0.221231
N129	N	0.644445	-0.154150	-0.185535
H130	H	0.668042	-0.129990	-0.156673
H131	H	0.465171	-0.259338	-0.404555
N132	N	0.339687	-0.260198	-0.416291
N133	N	0.281264	-0.260194	-0.416305
H134	H	0.257696	-0.263230	-0.457027
N135	N	0.986547	-0.183942	-1.070503
N136	N	1.026454	-0.202324	-1.107046
H137	H	1.055394	-0.178197	-1.130670
H138	H	0.832718	-0.312213	-1.063609
N139	N	0.137763	-0.319361	-0.383134
N140	N	0.166981	-0.349264	-0.418829
H141	H	0.143385	-0.373420	-0.447698
H142	H	0.792613	-0.701986	-0.414829
N143	N	0.824479	-0.947497	-0.383125
N144	N	0.788700	-0.971911	-0.418852
H145	H	0.759766	-0.952248	-0.447728
N146	N	0.824297	-0.555513	-0.383059
N147	N	0.788491	-0.531154	-0.418779
H148	H	0.759570	-0.550863	-0.447653
N149	N	0.137753	-0.183973	-0.221427
N150	N	0.079331	-0.183964	-0.221456
H151	H	0.055722	-0.159799	-0.192618
N152	N	0.824270	-0.445129	-0.383047
N153	N	0.846292	-0.414619	-0.422989
H154	H	0.817374	-0.394931	-0.451857
H155	H	0.832722	-0.312253	-0.944899
H156	H	0.978036	-0.450687	-0.229537
H157	H	0.978093	-0.549738	-0.229556
N158	N	1.026542	-0.696177	-0.181251
N159	N	1.022412	-0.702315	-0.123434
H160	H	1.051325	-0.682613	-0.094545
N161	N	1.026605	-0.806526	-0.181280
N162	N	1.062381	-0.782108	-0.145553
H163	H	1.091318	-0.801769	-0.116677
