data_functionalizedCrystal
_audit_creation_method	'MofGen! by Chris Wilmer'
_symmetry_space_group_name_H-M	'P1'
_symmetry_Int_Tables_number	1
_symmetry_cell_setting	triclinic
loop_
_symmetry_equiv_pos_as_xyz
  x,y,z
_cell_length_a	10.685980
_cell_length_b	13.031981
_cell_length_c	10.685880
_cell_angle_alpha	87.686082
_cell_angle_beta	80.918858
_cell_angle_gamma	100.943887
loop_
_atom_site_label
_atom_site_type_symbol
_atom_site_fract_x
_atom_site_fract_y
_atom_site_fract_z
Zn1	Zn	1.938546	-0.344387	-0.809416
Zn2	Zn	1.895168	-0.506768	-0.570162
Zn3	Zn	1.709977	-0.344442	-0.580879
Zn4	Zn	1.695164	-0.531557	-0.761944
O5	O	1.809714	-0.431789	-0.680600
O6	O	2.112151	-0.355530	-0.793060
O7	O	1.858648	-0.474885	-0.395679
O8	O	1.764649	-0.198169	-0.635547
O9	O	2.080282	-0.474831	-0.617282
O10	O	1.932578	-0.198128	-0.803452
O11	O	1.722588	-0.355624	-0.403553
O12	O	1.528652	-0.379661	-0.589516
O13	O	1.739404	-0.517080	-0.944146
O14	O	1.517770	-0.517133	-0.722544
O15	O	1.918215	-0.379566	-0.979024
O16	O	1.844285	-0.656322	-0.571251
O17	O	1.697343	-0.674535	-0.712152
C18	C	1.476705	-0.451094	-0.652042
C19	C	1.334240	-0.459379	-0.639850
C20	C	1.764536	-0.703353	-0.635417
C21	C	1.745329	-0.819525	-0.616140
C22	C	1.819808	-0.871222	-0.690692
C23	C	1.799958	-0.991292	-0.670770
C24	C	2.144023	-0.412409	-0.709271
C25	C	2.286485	-0.404151	-0.721489
C26	C	1.831996	-0.451082	-1.008470
C27	C	1.841491	-0.459304	-1.148189
C28	C	1.855105	-0.159163	-0.725990
C29	C	1.874448	-0.042987	-0.745333
C30	C	1.787605	-0.412491	-0.354025
C31	C	1.778407	-0.403960	-0.214377
H32	H	1.354591	-0.350521	-0.800709
H33	H	1.721487	-1.035920	-0.592194
C34	C	1.640622	-0.879174	-0.511540
C35	C	1.552969	-0.950851	-0.565268
C36	C	1.456502	-1.005824	-0.468947
H37	H	1.596325	-0.831294	-0.467292
H38	H	1.678945	-0.915741	-0.454012
H39	H	1.514649	-0.914287	-0.622774
H40	H	1.597227	-0.998752	-0.609508
H41	H	1.494825	-1.042391	-0.411419
H42	H	1.412215	-0.957936	-0.424705
H43	H	1.397025	-1.054470	-0.505386
C44	C	1.243572	-0.531054	-0.534261
C45	C	1.260723	-0.634230	-0.546951
C46	C	1.177235	-0.700282	-0.449698
H47	H	1.156627	-0.527449	-0.539718
H48	H	1.262271	-0.509484	-0.454215
H49	H	1.242015	-0.655795	-0.626976
H50	H	1.347651	-0.637869	-0.541479
H51	H	1.195934	-0.678712	-0.369653
H52	H	1.090295	-0.696668	-0.455164
H53	H	1.188869	-0.770293	-0.458289
C54	C	1.924403	-0.811529	-0.795359
C55	C	1.923325	-0.704301	-0.794282
C56	C	2.019673	-0.649281	-0.890673
H57	H	1.908496	-0.835288	-0.875331
H58	H	2.006409	-0.823173	-0.781487
H59	H	1.841338	-0.692664	-0.808164
H60	H	1.939248	-0.680512	-0.714333
H61	H	2.101679	-0.660925	-0.876801
H62	H	2.003757	-0.673048	-0.970639
H63	H	2.018962	-0.576521	-0.889949
C64	C	1.696810	-0.332410	-1.147198
C65	C	1.703322	-0.338178	-1.017332
C66	C	1.628185	-0.272270	-0.955402
H67	H	1.609537	-0.353874	-1.158584
H68	H	1.728716	-0.262314	-1.181886
H69	H	1.671411	-0.408259	-0.982655
H70	H	1.790577	-0.316706	-1.005909
H71	H	1.660090	-0.202174	-0.990090
H72	H	1.540917	-0.293740	-0.966797
H73	H	1.632603	-0.276168	-0.867284
H74	H	1.952909	-0.998361	-0.823919
H75	H	1.902773	-0.512981	-1.198418
