data_functionalizedCrystal
_audit_creation_method	'MofGen! by Chris Wilmer'
_symmetry_space_group_name_H-M	'P1'
_symmetry_Int_Tables_number	1
_symmetry_cell_setting	triclinic
loop_
_symmetry_equiv_pos_as_xyz
  x,y,z
_cell_length_a	19.288864
_cell_length_b	15.500227
_cell_length_c	19.288857
_cell_angle_alpha	87.183980
_cell_angle_beta	83.134677
_cell_angle_gamma	92.848448
loop_
_atom_site_label
_atom_site_type_symbol
_atom_site_fract_x
_atom_site_fract_y
_atom_site_fract_z
O1	O	0.924600	0.072226	0.083401
O2	O	0.722336	0.072168	0.095092
O3	O	0.829315	0.072188	-0.011884
O4	O	0.817621	0.072206	0.190377
O5	O	0.822823	-0.071702	-0.005418
O6	O	0.715845	-0.071722	0.101558
O7	O	0.918108	-0.071664	0.089867
Cu8	Cu	0.816384	-0.084831	0.096303
Cu9	Cu	0.824061	0.085335	0.088656
O10	O	0.811130	-0.071684	0.196843
C11	C	0.693214	0.000215	0.097949
C12	C	0.616109	0.000192	0.096821
N13	N	0.810989	-0.204517	0.101681
C14	C	0.571412	0.000211	0.159589
C15	C	0.498965	0.000221	0.158528
C16	C	0.471220	0.000229	0.094695
C17	C	0.515927	0.000205	0.031919
C18	C	0.588371	0.000187	0.032983
C19	C	0.365235	0.050665	0.042249
C20	C	0.292791	0.050688	0.041188
C21	C	0.247777	0.000281	0.091413
C22	C	0.275213	-0.050139	0.142710
C23	C	0.347658	-0.050157	0.143773
C24	C	0.392667	0.000248	0.093535
C25	C	0.124524	0.000309	0.153034
C26	C	0.052076	0.000313	0.151970
C27	C	0.069039	0.000306	0.025360
C28	C	0.141485	0.000293	0.026426
C29	C	0.169223	0.000299	0.090264
C30	C	0.856335	-0.249785	0.056368
C31	C	0.852262	-0.340359	0.060442
C32	C	0.802845	-0.385663	0.109832
C33	C	0.757494	-0.340388	0.155147
C34	C	0.761565	-0.249817	0.151070
C35	C	0.788181	-0.659132	0.124510
C36	C	0.784115	-0.749711	0.128585
C37	C	0.878882	-0.749675	0.033879
C38	C	0.882951	-0.659101	0.029808
C39	C	0.837598	-0.613835	0.075121
C40	C	0.798681	-0.478244	0.113999
C41	C	0.841758	-0.521255	0.070950
C42	C	0.947231	0.000291	0.087009
C43	C	1.024336	0.000319	0.088137
C44	C	0.825694	0.000242	-0.034527
C45	C	0.824567	0.000240	-0.111631
N46	N	0.829461	0.205021	0.083272
C47	C	0.827579	0.078674	-0.151366
C48	C	0.826511	0.078680	-0.223813
C49	C	0.822443	0.000247	-0.256523
C50	C	0.819426	-0.078197	-0.216778
C51	C	0.820488	-0.078201	-0.144332
C52	C	0.858735	-0.059825	-0.374054
C53	C	0.857678	-0.059818	-0.446500
C54	C	0.819166	0.000256	-0.479969
C55	C	0.781721	0.060338	-0.440986
C56	C	0.782783	0.060334	-0.368540
C57	C	0.821292	0.000243	-0.335077
C58	C	0.821020	0.078703	-0.598259
C59	C	0.819947	0.078706	-0.670706
C60	C	0.812869	-0.078174	-0.663670
C61	C	0.813935	-0.078175	-0.591224
C62	C	0.818014	0.000266	-0.558523
C63	C	0.814751	0.000264	0.219486
C64	C	0.815878	0.000272	0.296590
H65	H	0.593991	0.000218	0.211571
H66	H	0.177879	0.000282	-0.024686
N67	N	0.933538	-0.612922	-0.020593
N68	N	0.932471	-0.623056	-0.084354
H69	H	0.968242	-0.590474	-0.119927
N70	N	0.453295	0.000228	0.222645
N71	N	0.452942	-0.060420	0.267880
H72	H	0.420688	-0.060415	0.313163
H73	H	0.881991	-0.484366	0.030734
N74	N	0.040695	0.000298	-0.039838
N75	N	-0.023988	0.000305	-0.040780
H76	H	-0.044010	0.000294	-0.086827
H77	H	0.824336	0.142574	-0.571632
N78	N	0.742362	0.121688	-0.475165
N79	N	0.694031	0.096081	-0.508189
H80	H	0.666231	0.139406	-0.532329
N81	N	0.898584	-0.386585	0.014148
N82	N	0.942705	-0.346125	-0.029946
H83	H	0.975423	-0.378771	-0.062645
N84	N	0.748197	-0.524513	0.164447
N85	N	0.684455	-0.514437	0.163204
H86	H	0.648797	-0.547117	0.198830
H87	H	0.890095	-0.108752	-0.346810
H88	H	0.369994	-0.091213	0.185539
H89	H	0.830898	0.142547	-0.124746
N90	N	0.925201	-0.795927	-0.012399
N91	N	0.921563	-0.876794	-0.008754
H92	H	0.954277	-0.909461	-0.041440
N93	N	0.733625	-0.795976	0.179039
N94	N	0.693132	-0.755551	0.219488
H95	H	0.657473	-0.788225	0.255118
H96	H	0.751253	-0.622284	0.161406
N97	N	0.707014	-0.386676	0.205589
N98	N	0.703385	-0.467543	0.209225
H99	H	0.667734	-0.500233	0.244851
N100	N	0.829586	0.158810	-0.264401
N101	N	0.833224	0.228838	-0.235195
H102	H	0.835397	0.285431	-0.263858
H103	H	0.724638	-0.212960	0.187967
N104	N	0.744533	0.121707	-0.328731
N105	N	0.710151	0.175345	-0.358615
H106	H	0.683135	0.218690	-0.330499
N107	N	0.634022	0.000163	-0.031142
N108	N	0.609245	0.000161	-0.088132
H109	H	0.641487	0.000145	-0.133422
N110	N	0.823016	0.158837	-0.711286
N111	N	0.826655	0.228862	-0.682076
H112	H	0.828822	0.285457	-0.710735
N113	N	0.229231	-0.101603	0.194029
N114	N	0.164549	-0.101572	0.193081
H115	H	0.132070	-0.137907	0.229330
N116	N	0.808705	-0.158285	-0.697083
N117	N	0.807752	-0.158273	-0.761765
H118	H	0.804806	-0.214853	-0.785367
H119	H	0.896578	-0.212904	0.016152
N120	N	0.810859	-0.158303	-0.550641
N121	N	0.807225	-0.228328	-0.579851
H122	H	0.805050	-0.284923	-0.551191
N123	N	0.895938	-0.121184	-0.486307
N124	N	0.930315	-0.174822	-0.456417
H125	H	0.957339	-0.218163	-0.484530
H126	H	0.816113	-0.142058	-0.243414
N127	N	0.817400	-0.158324	-0.103738
N128	N	0.765957	-0.210853	-0.102911
H129	H	0.763776	-0.267441	-0.074240
N130	N	0.152852	0.000292	0.218246
N131	N	0.136326	-0.060361	0.263235
H132	H	0.156330	-0.060376	0.309292
N133	N	0.006425	0.000322	0.216096
N134	N	0.031205	0.000324	0.273086
H135	H	-0.001036	0.000330	0.318377
H136	H	0.270458	0.091746	-0.000578
N137	N	0.411216	0.102143	-0.009066
N138	N	0.411115	0.089433	-0.072548
H139	H	0.443590	0.125786	-0.108789
N140	N	0.487577	0.000204	-0.033278
N141	N	0.422894	0.000221	-0.034219
H142	H	0.402871	0.000216	-0.080267
