data_functionalizedCrystal
_audit_creation_method	'MofGen! by Chris Wilmer'
_symmetry_space_group_name_H-M	'P1'
_symmetry_Int_Tables_number	1
_symmetry_cell_setting	triclinic
loop_
_symmetry_equiv_pos_as_xyz
  x,y,z
_cell_length_a	11.169417
_cell_length_b	13.897441
_cell_length_c	11.169416
_cell_angle_alpha	89.974103
_cell_angle_beta	90.011219
_cell_angle_gamma	89.981458
loop_
_atom_site_label
_atom_site_type_symbol
_atom_site_fract_x
_atom_site_fract_y
_atom_site_fract_z
Zn1	Zn	1.834947	-0.545356	-0.477741
Zn2	Zn	2.168280	-0.212023	-0.144407
Zn3	Zn	2.501614	0.121310	0.188926
Zn4	Zn	1.834841	-0.384071	-0.678464
Zn5	Zn	2.168174	-0.050738	-0.345131
Zn6	Zn	2.501508	0.282596	-0.011797
Zn7	Zn	1.634237	-0.384081	-0.477796
Zn8	Zn	1.967571	-0.050748	-0.144463
Zn9	Zn	2.300904	0.282586	0.188870
Zn10	Zn	1.634240	-0.545330	-0.678384
Zn11	Zn	1.967574	-0.211996	-0.345050
Zn12	Zn	2.300907	0.121337	-0.011717
O13	O	1.734567	-0.464709	-0.578096
O14	O	2.067900	-0.131376	-0.244763
O15	O	2.401233	0.201957	0.088570
O16	O	2.002883	-0.523968	-0.504377
O17	O	2.336216	-0.190635	-0.171044
O18	O	2.669549	0.142698	0.162289
O19	O	1.808185	-0.249091	-0.651902
O20	O	2.141518	0.084243	-0.318568
O21	O	2.474851	0.417576	0.014765
O22	O	1.660905	-0.405490	-0.309839
O23	O	1.994239	-0.072156	0.023494
O24	O	2.327572	0.261177	0.356827
O25	O	2.002805	-0.405473	-0.651848
O26	O	2.336138	-0.072139	-0.318514
O27	O	2.669471	0.261194	0.014819
O28	O	1.808366	-0.523978	-0.309798
O29	O	2.141699	-0.190645	0.023535
O30	O	2.475032	0.142689	0.356868
O31	O	1.660802	-0.249098	-0.504472
O32	O	1.994136	0.084235	-0.171139
O33	O	2.327469	0.417569	0.162194
O34	O	1.466288	-0.405464	-0.504395
O35	O	1.799622	-0.072131	-0.171061
O36	O	2.132955	0.261203	0.162272
O37	O	1.660910	-0.680315	-0.651711
O38	O	1.994244	-0.346982	-0.318378
O39	O	2.327577	-0.013648	0.014956
O40	O	1.466290	-0.523933	-0.651765
O41	O	1.799624	-0.190599	-0.318432
O42	O	2.132957	0.142734	0.014902
O43	O	1.808369	-0.680334	-0.504300
O44	O	2.141702	-0.347001	-0.170966
O45	O	2.475035	-0.013668	0.162367
O46	O	1.808188	-0.405447	-0.846403
O47	O	2.141521	-0.072114	-0.513070
O48	O	2.474854	0.261220	-0.179736
O49	O	1.660807	-0.523923	-0.846344
O50	O	1.994141	-0.190590	-0.513011
O51	O	2.327474	0.142744	-0.179677
C52	C	1.422742	-0.464697	-0.578078
C53	C	1.756075	-0.131364	-0.244745
C54	C	2.089408	0.201970	0.088589
C55	C	1.289342	-0.464715	-0.578099
C56	C	1.622675	-0.131381	-0.244766
C57	C	1.956009	0.201952	0.088568
C58	C	1.734652	-0.716303	-0.577990
C59	C	2.067985	-0.382969	-0.244657
C60	C	2.401318	-0.049636	0.088677
C61	C	1.734688	-0.823517	-0.577945
C62	C	2.068021	-0.490183	-0.244612
C63	C	2.401355	-0.156850	0.088722
C64	C	1.734721	-1.019812	-0.577864
C65	C	2.068054	-0.686478	-0.244530
C66	C	2.401387	-0.353145	0.088803
C67	C	1.734699	-0.910579	-0.577912
C68	C	2.068032	-0.577246	-0.244579
C69	C	2.401365	-0.243913	0.088754
C70	C	2.047609	-0.464722	-0.578115
C71	C	2.380942	-0.131389	-0.244782
C72	C	2.714275	0.201944	0.088551
C73	C	2.181009	-0.464728	-0.578123
C74	C	2.514342	-0.131395	-0.244790
C75	C	2.847675	0.201939	0.088543
C76	C	1.734519	-0.464702	-0.889921
C77	C	2.067852	-0.131369	-0.556588
C78	C	2.401186	0.201965	-0.223254
C79	C	1.734608	-0.464731	-1.023321
C80	C	2.067942	-0.131398	-0.689987
C81	C	2.401275	0.201935	-0.356654
C82	C	1.734551	-0.214095	-0.578115
C83	C	2.067884	0.119238	-0.244782
C84	C	2.401217	0.452572	0.088551
C85	C	1.734747	-0.106882	-0.577822
C86	C	2.068080	0.226452	-0.244489
C87	C	2.401414	0.559785	0.088844
C88	C	1.734647	-0.464738	-0.265054
C89	C	2.067980	-0.131405	0.068280
C90	C	2.401314	0.201929	0.401613
C91	C	1.734681	-0.464750	-0.131654
C92	C	2.068015	-0.131417	0.201680
C93	C	2.401348	0.201917	0.535013
