data_functionalizedCrystal
_audit_creation_method	'MofGen! by Chris Wilmer'
_symmetry_space_group_name_H-M	'P1'
_symmetry_Int_Tables_number	1
_symmetry_cell_setting	triclinic
loop_
_symmetry_equiv_pos_as_xyz
  x,y,z
_cell_length_a	13.897449
_cell_length_b	25.639240
_cell_length_c	25.639233
_cell_angle_alpha	89.974071
_cell_angle_beta	89.985096
_cell_angle_gamma	90.033584
loop_
_atom_site_label
_atom_site_type_symbol
_atom_site_fract_x
_atom_site_fract_y
_atom_site_fract_z
Zn1	Zn	1.474521	-0.208203	-0.295615
Zn2	Zn	1.807854	0.125130	0.037718
Zn3	Zn	2.141187	0.458464	0.371052
Zn4	Zn	1.474396	-0.295622	-0.208168
Zn5	Zn	1.807730	0.037712	0.125165
Zn6	Zn	2.141063	0.371045	0.458498
Zn7	Zn	1.313234	-0.208203	-0.208190
Zn8	Zn	1.646567	0.125130	0.125143
Zn9	Zn	1.979900	0.458463	0.458477
Zn10	Zn	1.313149	-0.295610	-0.295569
Zn11	Zn	1.646483	0.037723	0.037764
Zn12	Zn	1.979816	0.371056	0.371097
O13	O	1.393825	-0.251910	-0.251886
O14	O	1.727158	0.081424	0.081448
O15	O	2.060492	0.414757	0.414781
O16	O	1.609486	-0.219804	-0.284025
O17	O	1.942819	0.113530	0.049308
O18	O	2.276153	0.446863	0.382642
O19	O	1.453001	-0.284030	-0.135006
O20	O	1.786334	0.049303	0.198327
O21	O	2.119668	0.382636	0.531661
O22	O	1.334716	-0.135038	-0.219815
O23	O	1.668050	0.198295	0.113518
O24	O	2.001383	0.531629	0.446851
O25	O	1.609394	-0.284030	-0.219778
O26	O	1.942728	0.049303	0.113555
O27	O	2.276061	0.382637	0.446888
O28	O	1.453213	-0.135038	-0.284046
O29	O	1.786547	0.198296	0.049287
O30	O	2.119880	0.531629	0.382621
O31	O	1.334596	-0.219804	-0.135022
O32	O	1.667929	0.113529	0.198311
O33	O	2.001262	0.446862	0.531645
O34	O	1.178241	-0.219794	-0.219771
O35	O	1.511574	0.113540	0.113562
O36	O	1.844908	0.446873	0.446896
O37	O	1.334572	-0.284011	-0.368741
O38	O	1.667906	0.049323	-0.035407
O39	O	2.001239	0.382656	0.297926
O40	O	1.178179	-0.284011	-0.283968
O41	O	1.511512	0.049322	0.049365
O42	O	1.844845	0.382656	0.382698
O43	O	1.453131	-0.219793	-0.368774
O44	O	1.786465	0.113541	-0.035441
O45	O	2.119798	0.446874	0.297893
O46	O	1.452919	-0.368785	-0.219734
O47	O	1.786252	-0.035452	0.113599
O48	O	2.119586	0.297881	0.446933
O49	O	1.334451	-0.368777	-0.283947
O50	O	1.667785	-0.035444	0.049386
O51	O	2.001118	0.297890	0.382720
C52	C	1.143211	-0.251902	-0.251867
C53	C	1.476544	0.081432	0.081466
C54	C	1.809877	0.414765	0.414799
C55	C	1.035997	-0.251911	-0.251872
C56	C	1.369330	0.081423	0.081461
C57	C	1.702663	0.414756	0.414795
C58	C	1.393689	-0.387752	-0.251845
C59	C	1.727022	-0.054419	0.081489
C60	C	2.060355	0.278915	0.414822
C61	C	1.393719	-0.445866	-0.251845
C62	C	1.727052	-0.112533	0.081489
C63	C	2.060385	0.220800	0.414822
C64	C	0.948927	-0.251912	-0.251881
C65	C	1.282260	0.081421	0.081453
C66	C	1.615594	0.414754	0.414786
C67	C	0.839694	-0.251916	-0.251897
C68	C	1.173028	0.081417	0.081437
C69	C	1.506361	0.414751	0.414770
C70	C	1.455557	-0.806191	-0.285391
C71	C	1.788890	-0.472857	0.047942
C72	C	2.122224	-0.139524	0.381276
C73	C	1.455585	-0.860795	-0.285401
C74	C	1.788919	-0.527462	0.047932
C75	C	2.122252	-0.194128	0.381265
O76	O	1.508000	-0.888999	-0.313882
O77	O	1.841334	-0.555665	0.019452
O78	O	2.174667	-0.222332	0.352785
N79	N	1.393959	-0.888149	-0.251936
N80	N	1.727292	-0.554815	0.081397
N81	N	2.060626	-0.221482	0.414731
C82	C	1.332293	-0.860895	-0.218462
C83	C	1.665626	-0.527562	0.114872
C84	C	1.998960	-0.194229	0.448205
O85	O	1.279877	-0.889176	-0.189998
O86	O	1.613210	-0.555842	0.143335
O87	O	1.946543	-0.222509	0.476668
C88	C	1.332260	-0.806292	-0.218454
C89	C	1.665594	-0.472959	0.114879
C90	C	1.998927	-0.139625	0.448213
C91	C	1.393898	-0.778941	-0.251918
C92	C	1.727231	-0.445608	0.081415
C93	C	2.060564	-0.112274	0.414749
C94	C	1.517189	-0.778840	-0.318852
C95	C	1.850522	-0.445506	0.014481
C96	C	2.183855	-0.112173	0.347814
C97	C	1.517161	-0.724239	-0.318841
C98	C	1.850495	-0.390906	0.014492
C99	C	2.183828	-0.057572	0.347826
C100	C	1.455502	-0.696989	-0.285368
C101	C	1.788835	-0.363656	0.047965
C102	C	2.122169	-0.030323	0.381299
C103	C	1.393870	-0.724340	-0.251906
C104	C	1.727204	-0.391007	0.081427
C105	C	2.060537	-0.057674	0.414760
C106	C	1.270590	-0.779039	-0.184983
C107	C	1.603924	-0.445706	0.148351
C108	C	1.937257	-0.112373	0.481684
C109	C	1.270562	-0.724432	-0.184978
C110	C	1.603896	-0.391099	0.148355
C111	C	1.937229	-0.057766	0.481688
C112	C	1.332200	-0.697082	-0.218442
C113	C	1.665533	-0.363748	0.114891
C114	C	1.998867	-0.030415	0.448225
C115	C	1.332184	-0.642490	-0.218422
C116	C	1.665517	-0.309157	0.114911
C117	C	1.998851	0.024176	0.448245
N118	N	1.393810	-0.615137	-0.251887
N119	N	1.727144	-0.281803	0.081446
N120	N	2.060477	0.051530	0.414779
C121	C	1.455470	-0.642386	-0.285360
C122	C	1.788803	-0.309053	0.047973
C123	C	2.122136	0.024280	0.381306
C124	C	1.332365	-0.975566	-0.218481
C125	C	1.665698	-0.642232	0.114852
C126	C	1.999032	-0.308899	0.448186
C127	C	1.332402	-1.030168	-0.218485
C128	C	1.665735	-0.696835	0.114848
C129	C	1.999068	-0.363501	0.448181
C130	C	1.455693	-1.030064	-0.285426
C131	C	1.789026	-0.696731	0.047907
C132	C	2.122360	-0.363397	0.381241
C133	C	1.455660	-0.975461	-0.285418
C134	C	1.788994	-0.642127	0.047915
C135	C	2.122327	-0.308794	0.381248
C136	C	1.393991	-0.948212	-0.251946
C137	C	1.727325	-0.614879	0.081387
C138	C	2.060658	-0.281545	0.414720
C139	C	1.455408	-0.527721	-0.285333
C140	C	1.788741	-0.194388	0.048000
C141	C	2.122075	0.138946	0.381333
C142	C	1.455378	-0.473116	-0.285318
C143	C	1.788711	-0.139782	0.048016
C144	C	2.122044	0.193551	0.381349
C145	C	1.332083	-0.473225	-0.218379
C146	C	1.665417	-0.139891	0.114954
C147	C	1.998750	0.193442	0.448288
C148	C	1.332116	-0.527825	-0.218393
C149	C	1.665450	-0.194492	0.114940
C150	C	1.998783	0.138841	0.448274
C151	C	1.393782	-0.555072	-0.251874
C152	C	1.727115	-0.221739	0.081459
C153	C	2.060449	0.111595	0.414792
O154	O	1.279793	-0.614252	-0.189958
O155	O	1.613126	-0.280918	0.143375
O156	O	1.946459	0.052415	0.476709
O157	O	1.507868	-0.614099	-0.313824
O158	O	1.841201	-0.280766	0.019509
O159	O	2.174535	0.052568	0.352843
C160	C	1.645418	-0.251918	-0.251904
C161	C	1.978751	0.081415	0.081429
C162	C	2.312085	0.414749	0.414762
C163	C	1.752632	-0.251922	-0.251912
C164	C	2.085965	0.081412	0.081421
C165	C	2.419299	0.414745	0.414755
C166	C	1.393856	-0.251900	-0.388259
C167	C	1.727189	0.081433	-0.054925
C168	C	2.060523	0.414766	0.278408
C169	C	1.393869	-0.251896	-0.446373
C170	C	1.727203	0.081437	-0.113039
C171	C	2.060536	0.414770	0.220294
C172	C	1.393988	-0.115537	-0.251938
C173	C	1.727321	0.217797	0.081395
C174	C	2.060655	0.551130	0.414728
C175	C	1.394058	-0.057422	-0.251961
C176	C	1.727391	0.275911	0.081373
C177	C	2.060724	0.609244	0.414706
C178	C	1.455681	-0.218359	-0.806759
C179	C	1.789015	0.114974	-0.473426
C180	C	2.122348	0.448308	-0.140092
C181	C	1.455693	-0.218344	-0.861363
C182	C	1.789027	0.114989	-0.528030
C183	C	2.122360	0.448322	-0.194697
O184	O	1.508170	-0.189891	-0.889620
O185	O	1.841503	0.143442	-0.556286
O186	O	2.174837	0.476776	-0.222953
N187	N	1.393976	-0.251774	-0.888655
N188	N	1.727309	0.081559	-0.555322
N189	N	2.060642	0.414893	-0.221989
C190	C	1.332235	-0.285216	-0.861340
C191	C	1.665569	0.048117	-0.528007
C192	C	1.998902	0.381450	-0.194674
O193	O	1.279740	-0.313649	-0.889568
O194	O	1.613074	0.019684	-0.556235
O195	O	1.946407	0.353018	-0.222902
C196	C	1.332219	-0.285228	-0.806737
C197	C	1.665553	0.048106	-0.473404
C198	C	1.998886	0.381439	-0.140070
C199	C	1.393948	-0.251800	-0.779448
C200	C	1.727281	0.081534	-0.446114
C201	C	2.060614	0.414867	-0.112781
C202	C	1.517404	-0.184933	-0.779470
C203	C	1.850737	0.148400	-0.446136
C204	C	2.184071	0.481733	-0.112803
C205	C	1.517393	-0.184949	-0.724869
C206	C	1.850726	0.148385	-0.391536
C207	C	2.184060	0.481718	-0.058203
C208	C	1.455660	-0.218389	-0.697558
C209	C	1.788993	0.114944	-0.364225
C210	C	2.122326	0.448277	-0.030891
C211	C	1.393937	-0.251815	-0.724847
C212	C	1.727270	0.081518	-0.391514
C213	C	2.060604	0.414852	-0.058180
C214	C	1.270475	-0.318667	-0.779423
C215	C	1.603808	0.014666	-0.446089
C216	C	1.937141	0.348000	-0.112756
C217	C	1.270464	-0.318675	-0.724816
C218	C	1.603797	0.014658	-0.391482
C219	C	1.937130	0.347991	-0.058149
C220	C	1.332192	-0.285247	-0.697527
C221	C	1.665525	0.048086	-0.364193
C222	C	1.998859	0.381419	-0.030860
C223	C	1.332192	-0.285271	-0.642935
C224	C	1.665526	0.048062	-0.309602
C225	C	1.998859	0.381395	0.023731
N226	N	1.393910	-0.251842	-0.615643
N227	N	1.727243	0.081492	-0.282310
N228	N	2.060577	0.414825	0.051023
C229	C	1.455643	-0.218401	-0.642955
C230	C	1.788977	0.114932	-0.309621
C231	C	2.122310	0.448266	0.023712
C232	C	1.332273	-0.285189	-0.976011
C233	C	1.665606	0.048144	-0.642678
C234	C	1.998939	0.381478	-0.309344
C235	C	1.332293	-0.285181	-1.030613
C236	C	1.665626	0.048153	-0.697280
C237	C	1.998959	0.381486	-0.363947
C238	C	1.455750	-0.218308	-1.030633
C239	C	1.789083	0.115025	-0.697299
C240	C	2.122416	0.448359	-0.363966
C241	C	1.455734	-0.218319	-0.976029
C242	C	1.789067	0.115014	-0.642696
C243	C	2.122400	0.448347	-0.309363
C244	C	1.393990	-0.251760	-0.948719
C245	C	1.727323	0.081574	-0.615386
C246	C	2.060657	0.414907	-0.282052
C247	C	1.455617	-0.218436	-0.528289
C248	C	1.788950	0.114898	-0.194956
C249	C	2.122283	0.448231	0.138377
C250	C	1.455603	-0.218456	-0.473684
C251	C	1.788936	0.114878	-0.140351
C252	C	2.122270	0.448211	0.192983
C253	C	1.332143	-0.285326	-0.473669
C254	C	1.665476	0.048007	-0.140336
C255	C	1.998810	0.381341	0.192997
C256	C	1.332160	-0.285308	-0.528270
C257	C	1.665493	0.048025	-0.194937
C258	C	1.998826	0.381358	0.138397
C259	C	1.393900	-0.251859	-0.555579
C260	C	1.727233	0.081474	-0.222245
C261	C	2.060566	0.414808	0.111088
O262	O	1.279740	-0.313708	-0.614644
O263	O	1.613073	0.019625	-0.281311
O264	O	1.946406	0.352958	0.052022
O265	O	1.508121	-0.189968	-0.614720
O266	O	1.841454	0.143365	-0.281387
O267	O	2.174787	0.476699	0.051947
C268	C	1.393850	-0.251881	-0.116043
C269	C	1.727183	0.081452	0.217290
C270	C	2.060516	0.414786	0.550624
C271	C	1.394023	-0.251738	-0.057929
C272	C	1.727357	0.081596	0.275404
C273	C	2.060690	0.414929	0.608737
H274	H	1.505574	-0.450848	-0.312568
H275	H	1.838907	-0.117515	0.020766
H276	H	2.172240	0.215818	0.354099
H277	H	1.505615	-0.549899	-0.312601
H278	H	1.838948	-0.216566	0.020733
H279	H	2.172282	0.116768	0.354066
Cl280	Cl	1.193031	-0.690180	-0.142896
Cl281	Cl	1.526364	-0.356847	0.190437
Cl282	Cl	1.859697	-0.023514	0.523771
H283	H	1.567349	-0.701973	-0.346091
H284	H	1.900682	-0.368640	-0.012758
H285	H	2.234015	-0.035306	0.320575
Cl286	Cl	1.254573	-0.438958	-0.176301
Cl287	Cl	1.587906	-0.105624	0.157032
Cl288	Cl	1.921239	0.227709	0.490365
Cl289	Cl	1.254924	-1.064545	-0.176408
Cl290	Cl	1.588258	-0.731212	0.156926
Cl291	Cl	1.921591	-0.397879	0.490259
H292	H	1.567399	-0.801020	-0.346113
H293	H	1.900732	-0.467687	-0.012780
H294	H	2.234065	-0.134354	0.320554
H295	H	1.505873	-0.191234	-0.451468
H296	H	1.839207	0.142099	-0.118134
H297	H	2.172540	0.475433	0.215199
Cl298	Cl	1.533229	-0.176382	-0.562612
Cl299	Cl	1.866563	0.156951	-0.229278
Cl300	Cl	2.199896	0.490284	0.104055
Cl301	Cl	1.533148	-0.941082	-0.327490
Cl302	Cl	1.866482	-0.607749	0.005844
Cl303	Cl	2.199815	-0.274416	0.339177
H304	H	1.220173	-0.345901	-0.702582
H305	H	1.553506	-0.012568	-0.369249
H306	H	1.886840	0.320765	-0.035916
Cl307	Cl	1.533207	-1.064331	-0.327508
Cl308	Cl	1.866540	-0.730998	0.005826
Cl309	Cl	2.199873	-0.397664	0.339159
H310	H	1.567675	-0.157699	-0.801701
H311	H	1.901008	0.175635	-0.468368
H312	H	2.234342	0.508968	-0.135034
H313	H	1.281904	-0.312533	-0.550490
H314	H	1.615238	0.020800	-0.217157
H315	H	1.948571	0.354134	0.116177
H316	H	1.220399	-0.801299	-0.157733
H317	H	1.553732	-0.467966	0.175601
H318	H	1.887065	-0.134633	0.508934
Cl319	Cl	1.254837	-0.941316	-0.176393
Cl320	Cl	1.588170	-0.607982	0.156940
Cl321	Cl	1.921503	-0.274649	0.490273
Cl322	Cl	1.254641	-0.562210	-0.176317
Cl323	Cl	1.587974	-0.228877	0.157016
Cl324	Cl	1.921308	0.104457	0.490350
Cl325	Cl	1.254536	-0.327362	-0.439325
Cl326	Cl	1.587870	0.005971	-0.105992
Cl327	Cl	1.921203	0.339304	0.227342
Cl328	Cl	1.594992	-0.142919	-0.690571
Cl329	Cl	1.928325	0.190415	-0.357238
Cl330	Cl	2.261659	0.523748	-0.023904
H331	H	1.282038	-0.312407	-1.052828
H332	H	1.615371	0.020927	-0.719494
H333	H	1.948704	0.354260	-0.386161
H334	H	1.505997	-0.191099	-0.953814
H335	H	1.839330	0.142235	-0.620481
H336	H	2.172663	0.475568	-0.287147
H337	H	1.506014	-0.191077	-1.052879
H338	H	1.839348	0.142256	-0.719546
H339	H	2.172681	0.475589	-0.386213
H340	H	1.281993	-0.312423	-0.953778
H341	H	1.615326	0.020910	-0.620445
H342	H	1.948659	0.354244	-0.287112
H343	H	1.220209	-0.345888	-0.801632
H344	H	1.553542	-0.012554	-0.468299
H345	H	1.886875	0.320779	-0.134966
