data_functionalizedCrystal
_audit_creation_method	'MofGen! by Chris Wilmer'
_symmetry_space_group_name_H-M	'P1'
_symmetry_Int_Tables_number	1
_symmetry_cell_setting	triclinic
loop_
_symmetry_equiv_pos_as_xyz
  x,y,z
_cell_length_a	16.992694
_cell_length_b	16.992695
_cell_length_c	15.455425
_cell_angle_alpha	87.186139
_cell_angle_beta	87.179027
_cell_angle_gamma	90.668223
loop_
_atom_site_label
_atom_site_type_symbol
_atom_site_fract_x
_atom_site_fract_y
_atom_site_fract_z
O1	O	-1.054114	-0.170165	0.072022
O2	O	-0.554114	0.329835	0.572022
O3	O	-0.825715	-0.168335	0.072047
O4	O	-0.325715	0.331665	0.572047
O5	O	-0.938998	-0.055049	0.072028
O6	O	-0.438998	0.444951	0.572028
O7	O	-0.940830	-0.283450	0.072041
O8	O	-0.440830	0.216550	0.572041
O9	O	-0.932452	-0.048539	-0.072232
O10	O	-0.432452	0.451461	0.427768
O11	O	-0.819168	-0.161824	-0.072212
O12	O	-0.319168	0.338176	0.427788
O13	O	-1.047567	-0.163654	-0.072238
O14	O	-0.547567	0.336346	0.427762
Cu15	Cu	-0.932770	-0.162145	-0.085397
Cu16	Cu	-0.432770	0.337855	0.414603
Cu17	Cu	-0.940512	-0.169844	0.085207
Cu18	Cu	-0.440512	0.330156	0.585207
O19	O	-0.934283	-0.276940	-0.072218
O20	O	-0.434283	0.223060	0.427782
C21	C	-0.793081	-0.162724	-0.000079
C22	C	-0.293081	0.337276	0.499921
C23	C	-0.705597	-0.155696	-0.000070
C24	C	-0.205597	0.344304	0.499930
C25	C	-0.933369	-0.022434	-0.000102
C26	C	-0.433369	0.477566	0.499898
C27	C	-0.926341	0.065051	-0.000101
C28	C	-0.426341	0.565051	0.499899
C29	C	-1.080200	-0.169265	-0.000109
C30	C	-0.580200	0.330735	0.499891
C31	C	-1.167685	-0.176294	-0.000113
C32	C	-0.667685	0.323706	0.499887
C33	C	-0.939913	-0.309555	-0.000087
C34	C	-0.439913	0.190445	0.499913
C35	C	-0.946942	-0.397040	-0.000082
C36	C	-0.446942	0.102960	0.499918
C37	C	-0.659607	-0.223514	-0.000066
C38	C	-0.159607	0.276486	0.499934
C39	C	-0.577405	-0.216904	-0.000079
C40	C	-0.077405	0.283096	0.499921
C41	C	-0.541197	-0.142476	-0.000088
C42	C	-0.041197	0.357524	0.499912
C43	C	-0.587193	-0.074653	-0.000094
C44	C	-0.087193	0.425347	0.499906
C45	C	-0.669393	-0.081263	-0.000088
C46	C	-0.169393	0.418737	0.499912
C47	C	-0.295881	-0.115080	-0.000113
C48	C	0.204119	0.384920	0.499887
C49	C	-0.213676	-0.108476	-0.000116
C50	C	0.286324	0.391524	0.499884
C51	C	-0.203893	-0.250728	-0.000103
C52	C	0.296107	0.249272	0.499897
C53	C	-0.286095	-0.257331	-0.000091
C54	C	0.213905	0.242669	0.499909
C55	C	-0.332084	-0.189508	-0.000102
C56	C	0.167916	0.310492	0.499898
N57	N	-0.457174	-0.135718	-0.000098
N58	N	0.042826	0.364282	0.499902
N59	N	-0.416105	-0.196266	-0.000098
N60	N	0.083895	0.303734	0.499902
N61	N	-0.927330	-0.156729	-0.205390
N62	N	-0.427330	0.343271	0.294610
C63	C	-0.994158	0.111042	-0.000109
C64	C	-0.494158	0.611042	0.499891
C65	C	-0.987550	0.193242	-0.000100
C66	C	-0.487550	0.693242	0.499900
C67	C	-0.913122	0.229450	-0.000089
C68	C	-0.413122	0.729450	0.499911
C69	C	-0.845300	0.183452	-0.000078
C70	C	-0.345300	0.683452	0.499922
C71	C	-0.851910	0.101253	-0.000081
C72	C	-0.351910	0.601253	0.499919
C73	C	-0.885729	0.474764	-0.000074
C74	C	-0.385729	0.974764	0.499926
C75	C	-0.879124	0.556969	-0.000074
C76	C	-0.379124	1.056969	0.499926
C77	C	-1.021375	0.566753	-0.000094
C78	C	-0.521375	1.066753	0.499906
C79	C	-1.027977	0.484552	-0.000102
C80	C	-0.527977	0.984552	0.499898
C81	C	-0.960155	0.438561	-0.000087
C82	C	-0.460155	0.938561	0.499913
N83	N	-0.906366	0.313472	-0.000082
N84	N	-0.406366	0.813472	0.499918
N85	N	-0.966913	0.354541	-0.000087
N86	N	-0.466913	0.854541	0.499913
C87	C	-0.897283	-0.126554	-0.749386
C88	C	-0.397283	0.373446	-0.249386
C89	C	-0.901394	-0.130679	-0.658580
C90	C	-0.401394	0.369321	-0.158580
C91	C	-0.954176	-0.183509	-0.613189
C92	C	-0.454176	0.316491	-0.113189
C93	C	-1.002856	-0.232211	-0.658610
C94	C	-0.502856	0.267789	-0.158610
C95	C	-0.998748	-0.228081	-0.749414
C96	C	-0.498748	0.271919	-0.249414
C97	C	-0.971903	-0.201301	-0.341615
C98	C	-0.471903	0.298699	0.158385
C99	C	-0.976005	-0.205429	-0.250804
C100	C	-0.476005	0.294571	0.249196
C101	C	-0.874543	-0.103896	-0.250781
C102	C	-0.374543	0.396104	0.249219
C103	C	-0.870437	-0.099774	-0.341587
C104	C	-0.370437	0.400226	0.158413
C105	C	-0.919120	-0.148473	-0.386999
C106	C	-0.419120	0.351527	0.113001
N107	N	-0.958377	-0.187729	-0.520371
N108	N	-0.458377	0.312271	-0.020371
N109	N	-0.914922	-0.144248	-0.479816
N110	N	-0.414922	0.355752	0.020184
N111	N	-0.945958	-0.175254	0.205200
N112	N	-0.445958	0.324746	0.705200
H113	H	-0.689081	-0.284121	-0.000058
H114	H	-0.189081	0.215879	0.499942
N115	N	-0.822049	-0.051362	-0.201801
N116	N	-0.322049	0.448638	0.298199
H117	H	-0.765031	-0.062541	-0.217609
H118	H	-0.265031	0.437459	0.282391
H119	H	-0.832727	-0.062016	-0.137405
H120	H	-0.332727	0.437984	0.362595
H121	H	-0.557705	-0.014051	-0.000114
H122	H	-0.057705	0.485949	0.499886
H123	H	-1.054764	0.081568	-0.000124
H124	H	-0.554764	0.581568	0.499876
H125	H	-1.018985	-0.248455	-0.213850
H126	H	-0.518985	0.251545	0.286150
H127	H	-0.861760	-0.091020	-0.621608
H128	H	-0.361760	0.408980	-0.121608
H129	H	-0.784700	0.212939	-0.000063
H130	H	-0.284700	0.712939	0.499937
H131	H	-0.796685	0.063808	-0.000073
H132	H	-0.296685	0.563808	0.499927
N133	N	-0.325144	-0.337608	-0.000097
N134	N	0.174856	0.162392	0.499903
H135	H	-0.384195	-0.331504	-0.000093
H136	H	0.115805	0.168496	0.499907
H137	H	-0.311059	-0.369928	0.053381
H138	H	0.188941	0.130072	0.553381
N139	N	-1.060695	0.242848	-0.000114
N140	N	-0.560695	0.742848	0.499886
H141	H	-1.108846	0.207438	-0.000130
H142	H	-0.608846	0.707438	0.499870
H143	H	-1.058617	0.279583	-0.053593
H144	H	-0.558617	0.779583	0.446407
N145	N	-0.718996	-0.008113	-0.000096
N146	N	-0.218996	0.491887	0.499904
H147	H	-0.709252	0.021722	0.053377
H148	H	-0.209252	0.521722	0.553377
H149	H	-0.776543	-0.023653	-0.000128
H150	H	-0.276543	0.476347	0.499872
N151	N	-0.174611	-0.028199	-0.000144
N152	N	0.325389	0.471801	0.499856
H153	H	-0.143143	-0.024696	0.053330
H154	H	0.356857	0.475304	0.553330
H155	H	-0.216256	0.013723	-0.000187
H156	H	0.283744	0.513723	0.499813
H157	H	-0.854298	-0.083538	-0.786336
H158	H	-0.354298	0.416462	-0.286336
N159	N	-0.527796	-0.290046	-0.000173
N160	N	-0.027796	0.209954	0.499827
H161	H	-0.563206	-0.338197	-0.000193
H162	H	-0.063206	0.161803	0.499807
H163	H	-0.495853	-0.292869	0.053270
H164	H	0.004147	0.207131	0.553270
N165	N	-1.108252	0.445501	-0.000120
N166	N	-0.608252	0.945501	0.499880
H167	H	-1.150213	0.487110	-0.000124
H168	H	-0.650213	0.987110	0.499876
H169	H	-1.116522	0.409190	0.053356
H170	H	-0.616522	0.909190	0.553356
H171	H	-0.333316	-0.059853	-0.000122
H172	H	0.166684	0.440147	0.499878
N173	N	-1.094517	0.616363	-0.000101
N174	N	-0.594517	1.116363	0.499899
H175	H	-1.129188	0.601779	0.053372
H176	H	-0.629188	1.101779	0.553372
H177	H	-1.124273	0.606596	-0.053617
H178	H	-0.624273	1.106596	0.446383
H179	H	-0.166440	-0.305945	-0.000096
H180	H	0.333560	0.194055	0.499904
H181	H	-0.818513	0.586447	-0.000079
H182	H	-0.318513	1.086447	0.499921
N183	N	-0.813533	-0.042769	-0.390542
N184	N	-0.313533	0.457231	0.109458
H185	H	-0.783329	-0.012533	-0.347993
H186	H	-0.283329	0.487467	0.152007
H187	H	-0.843772	-0.004757	-0.428186
H188	H	-0.343772	0.495243	0.071814
N189	N	-0.812581	0.425166	-0.000061
N190	N	-0.312581	0.925166	0.499939
H191	H	-0.764431	0.460579	-0.000058
H192	H	-0.264431	0.960579	0.499942
H193	H	-0.809796	0.393264	-0.053539
H194	H	-0.309796	0.893264	0.446461
H195	H	-1.011544	-0.240956	-0.378579
H196	H	-0.511544	0.259044	0.121421
H197	H	-1.045836	-0.275223	-0.621646
H198	H	-0.545836	0.224777	-0.121646
N199	N	-1.051256	-0.280598	-0.798402
N200	N	-0.551256	0.219402	-0.298402
H201	H	-1.085318	-0.314692	-0.755870
H202	H	-0.585318	0.185308	-0.255870
H203	H	-1.017644	-0.315196	-0.836099
H204	H	-0.517644	0.184804	-0.336099
