data_functionalizedCrystal
_audit_creation_method	'MofGen! by Chris Wilmer'
_symmetry_space_group_name_H-M	'P1'
_symmetry_Int_Tables_number	1
_symmetry_cell_setting	triclinic
loop_
_symmetry_equiv_pos_as_xyz
  x,y,z
_cell_length_a	14.044191
_cell_length_b	14.044190
_cell_length_c	16.776229
_cell_angle_alpha	89.988781
_cell_angle_beta	89.995480
_cell_angle_gamma	93.191777
loop_
_atom_site_label
_atom_site_type_symbol
_atom_site_fract_x
_atom_site_fract_y
_atom_site_fract_z
O1	O	1.277182	0.230203	-0.066266
O2	O	1.610515	0.563537	0.267067
O3	O	1.943849	0.896870	0.600400
O4	O	1.000509	0.221891	-0.066276
O5	O	1.333843	0.555224	0.267058
O6	O	1.667176	0.888557	0.600391
O7	O	1.134689	0.087711	-0.066255
O8	O	1.468023	0.421044	0.267078
O9	O	1.801356	0.754377	0.600411
O10	O	1.143002	0.364383	-0.066287
O11	O	1.476335	0.697717	0.267047
O12	O	1.809669	1.031050	0.600380
O13	O	1.134669	0.087700	0.066321
O14	O	1.468002	0.421033	0.399654
O15	O	1.801336	0.754367	0.732988
O16	O	1.000489	0.221880	0.066301
O17	O	1.333822	0.555213	0.399634
O18	O	1.667156	0.888547	0.732967
O19	O	1.277162	0.230193	0.066310
O20	O	1.610495	0.563526	0.399644
O21	O	1.943828	0.896859	0.732977
Zn22	Zn	1.138822	0.226035	0.087355
Zn23	Zn	1.472155	0.559368	0.420688
Zn24	Zn	1.805489	0.892701	0.754022
Zn25	Zn	1.138849	0.226049	-0.087320
Zn26	Zn	1.472182	0.559382	0.246013
Zn27	Zn	1.805515	0.892715	0.579346
O28	O	1.142982	0.364373	0.066290
O29	O	1.476315	0.697706	0.399623
O30	O	1.809648	1.031039	0.732957
C31	C	0.964877	0.218249	0.000012
C32	C	1.298210	0.551582	0.333345
C33	C	1.631544	0.884915	0.666678
C34	C	0.858734	0.207401	0.000009
C35	C	1.192067	0.540735	0.333342
C36	C	1.525400	0.874068	0.666675
C37	C	0.613277	0.264502	0.000010
C38	C	0.946610	0.597835	0.333343
C39	C	1.279943	0.931169	0.666677
C40	C	0.664400	0.187585	0.000017
C41	C	0.997734	0.520919	0.333351
C42	C	1.331067	0.854252	0.666684
C43	C	0.772537	0.198614	0.000013
C44	C	1.105871	0.531947	0.333346
C45	C	1.439204	0.865280	0.666679
C46	C	0.505130	0.253475	0.000015
C47	C	0.838463	0.586809	0.333348
C48	C	1.171796	0.920142	0.666682
C49	C	1.131043	0.052083	0.000035
C50	C	1.464376	0.385416	0.333368
C51	C	1.797709	0.718750	0.666702
C52	C	1.120195	-0.054060	0.000042
C53	C	1.453529	0.279273	0.333375
C54	C	1.786862	0.612606	0.666708
C55	C	1.177296	-0.299517	0.000012
C56	C	1.510629	0.033816	0.333346
C57	C	1.843963	0.367149	0.666679
C58	C	1.100379	-0.248394	0.000015
C59	C	1.433713	0.084940	0.333349
C60	C	1.767046	0.418273	0.666682
C61	C	1.111408	-0.140257	0.000030
C62	C	1.444741	0.193077	0.333363
C63	C	1.778074	0.526410	0.666697
C64	C	1.166269	-0.407664	-0.000002
C65	C	1.499602	-0.074331	0.333331
C66	C	1.832936	0.259002	0.666664
C67	C	1.312794	0.233834	0.000021
C68	C	1.646127	0.567168	0.333355
C69	C	1.979461	0.900501	0.666688
C70	C	1.418937	0.244682	0.000019
C71	C	1.752271	0.578015	0.333352
C72	C	2.085604	0.911348	0.666686
C73	C	1.146628	0.400000	-0.000002
C74	C	1.479962	0.733333	0.333331
C75	C	1.813295	1.066667	0.666664
C76	C	1.157476	0.506143	-0.000014
C77	C	1.490809	0.839477	0.333319
C78	C	1.824142	1.172810	0.666653
N79	N	1.138811	0.226025	0.206566
N80	N	1.472144	0.559358	0.539899
N81	N	1.805478	0.892692	0.873233
N82	N	1.138867	0.226051	-0.206532
N83	N	1.472200	0.559385	0.126802
N84	N	1.805534	0.892718	0.460135
C85	C	1.198248	0.166638	0.248292
C86	C	1.531581	0.499972	0.581626
C87	C	1.864914	0.833305	0.914959
C88	C	1.198253	0.166638	0.331744
C89	C	1.531586	0.499971	0.665078
C90	C	1.864920	0.833305	0.998411
C91	C	1.138826	0.226030	0.373469
C92	C	1.472159	0.559363	0.706802
C93	C	1.805492	0.892697	1.040136
C94	C	1.079382	0.285419	0.331737
C95	C	1.412715	0.618752	0.665070
C96	C	1.746049	0.952086	0.998404
C97	C	1.079373	0.285414	0.248286
C98	C	1.412706	0.618747	0.581620
C99	C	1.746039	0.952080	0.914953
C100	C	1.079418	0.285441	0.668284
C101	C	1.412751	0.618774	1.001618
C102	C	1.746085	0.952107	1.334951
C103	C	1.079434	0.285443	0.751741
C104	C	1.412768	0.618777	1.085074
C105	C	1.746101	0.952110	1.418408
C106	C	1.198299	0.166665	0.751742
C107	C	1.531632	0.499998	1.085076
C108	C	1.864965	0.833332	1.418409
C109	C	1.198289	0.166660	0.668292
C110	C	1.531623	0.499993	1.001625
C111	C	1.864956	0.833326	1.334958
C112	C	1.138842	0.226045	0.626567
C113	C	1.472176	0.559378	0.959900
C114	C	1.805509	0.892711	1.293234
C115	C	1.138836	0.226043	0.536079
C116	C	1.472169	0.559376	0.869412
C117	C	1.805503	0.892710	1.202745
C118	C	1.138836	0.226037	0.463956
C119	C	1.472169	0.559370	0.797289
C120	C	1.805503	0.892704	1.130623
H121	H	0.650720	0.338629	-0.000001
H122	H	0.984053	0.671962	0.333333
H123	H	1.317386	1.005295	0.666666
H124	H	0.626955	0.113453	-0.000030
H125	H	0.960288	0.446786	0.333303
H126	H	1.293622	0.780119	0.666636
H127	H	1.246701	0.118307	0.785723
H128	H	1.580034	0.451640	1.119057
H129	H	1.913367	0.784974	1.452390
F130	F	1.003482	-0.297335	0.000010
F131	F	1.336815	0.035999	0.333343
F132	F	1.670148	0.369332	0.666676
H133	H	1.246650	0.118280	0.365717
H134	H	1.579984	0.451614	0.699051
H135	H	1.913317	0.784947	1.032384
H136	H	1.030990	0.333773	0.365714
H137	H	1.364323	0.667107	0.699047
H138	H	1.697657	1.000440	1.032381
H139	H	1.251423	-0.262074	0.000023
H140	H	1.584756	0.071259	0.333356
H141	H	1.918089	0.404592	0.666690
H142	H	1.246645	0.118279	0.214325
H143	H	1.579978	0.451612	0.547659
H144	H	1.913311	0.784946	0.880992
H145	H	1.031038	0.333809	0.785712
H146	H	1.364371	0.667142	1.119045
H147	H	1.697705	1.000476	1.452378
H148	H	1.246684	0.118301	0.634322
H149	H	1.580017	0.451634	0.967655
H150	H	1.913350	0.784968	1.300989
H151	H	1.031016	0.333796	0.634319
H152	H	1.364350	0.667129	0.967652
H153	H	1.697683	1.000462	1.300985
H154	H	1.030972	0.333771	0.214314
H155	H	1.364305	0.667104	0.547647
H156	H	1.697638	1.000438	0.880981
