data_functionalizedCrystal
_audit_creation_method	'MofGen! by Chris Wilmer'
_symmetry_space_group_name_H-M	'P1'
_symmetry_Int_Tables_number	1
_symmetry_cell_setting	triclinic
loop_
_symmetry_equiv_pos_as_xyz
  x,y,z
_cell_length_a	23.532407
_cell_length_b	23.532357
_cell_length_c	13.596369
_cell_angle_alpha	89.988481
_cell_angle_beta	90.000007
_cell_angle_gamma	82.838485
loop_
_atom_site_label
_atom_site_type_symbol
_atom_site_fract_x
_atom_site_fract_y
_atom_site_fract_z
O1	O	0.755248	0.069137	-0.081680
O2	O	1.255248	0.569137	0.418320
O3	O	0.589383	0.079141	-0.081711
O4	O	1.089383	0.579141	0.418289
O5	O	0.677332	-0.008795	-0.081675
O6	O	1.177332	0.491205	0.418325
O7	O	0.667299	0.157073	-0.081717
O8	O	1.167299	0.657073	0.418283
O9	O	0.677323	-0.008799	0.081908
O10	O	1.177323	0.491201	0.581908
O11	O	0.589374	0.079136	0.081872
O12	O	1.089374	0.579136	0.581872
O13	O	0.755239	0.069133	0.081903
O14	O	1.255239	0.569133	0.581903
Zn15	Zn	0.672305	0.074134	0.107860
Zn16	Zn	1.172305	0.574134	0.607860
Zn17	Zn	0.672316	0.074140	-0.107668
Zn18	Zn	1.172316	0.574140	0.392332
O19	O	0.667290	0.157068	0.081866
O20	O	1.167290	0.657068	0.581866
C21	C	0.568162	0.078884	0.000077
C22	C	1.068162	0.578884	0.500077
C23	C	0.504945	0.078118	0.000066
C24	C	1.004945	0.578118	0.500066
C25	C	0.677076	-0.030013	0.000120
C26	C	1.177076	0.469987	0.500120
C27	C	0.676322	-0.093232	0.000129
C28	C	1.176322	0.406768	0.500129
C29	C	0.105834	0.125353	0.000099
C30	C	0.605834	0.625353	0.500099
C31	C	0.046434	0.124641	0.000105
C32	C	0.546434	0.624641	0.500105
O33	O	0.009681	0.168428	0.000129
O34	O	0.509681	0.668428	0.500129
N35	N	0.023817	0.072364	0.000117
N36	N	0.523817	0.572364	0.500117
C37	C	0.060604	0.020794	0.000132
C38	C	0.560604	0.520794	0.500132
O39	O	0.035912	-0.023737	0.000144
O40	O	0.535912	0.476263	0.500144
C41	C	0.120003	0.021506	0.000133
C42	C	0.620003	0.521506	0.500133
C43	C	0.142616	0.073787	0.000111
C44	C	0.642616	0.573787	0.500111
C45	C	0.128448	0.177629	0.000078
C46	C	0.628448	0.677629	0.500078
C47	C	0.187844	0.178341	0.000070
C48	C	0.687844	0.678341	0.500070
C49	C	0.224626	0.126775	0.000083
C50	C	0.724626	0.626775	0.500083
C51	C	0.202012	0.074498	0.000103
C52	C	0.702012	0.574498	0.500103
C53	C	0.156788	-0.030063	0.000155
C54	C	0.656788	0.469937	0.500155
C55	C	0.216191	-0.029346	0.000157
C56	C	0.716191	0.470654	0.500157
C57	C	0.238804	0.022935	0.000135
C58	C	0.738804	0.522935	0.500135
C59	C	0.298190	0.023644	0.000108
C60	C	0.798190	0.523644	0.500108
N61	N	0.320807	0.075922	0.000096
N62	N	0.820807	0.575922	0.500096
C63	C	0.284025	0.127487	0.000083
C64	C	0.784025	0.627487	0.500083
C65	C	-0.064139	0.019303	0.000132
C66	C	0.435861	0.519303	0.500132
C67	C	-0.123536	0.018590	0.000124
C68	C	0.376464	0.518590	0.500124
C69	C	-0.137702	0.122437	0.000099
C70	C	0.362298	0.622437	0.500099
C71	C	-0.078303	0.123149	0.000100
C72	C	0.421697	0.623149	0.500100
C73	C	-0.041522	0.071580	0.000120
C74	C	0.458478	0.571580	0.500120
C75	C	0.408761	0.128977	0.000066
C76	C	0.908761	0.628977	0.500066
C77	C	0.468163	0.129684	0.000054
C78	C	0.968163	0.629684	0.500054
C79	C	0.482324	0.025836	0.000084
C80	C	0.982324	0.525836	0.500084
C81	C	0.422927	0.025130	0.000091
C82	C	0.922927	0.525130	0.500091
C83	C	0.386147	0.076704	0.000085
C84	C	0.886147	0.576704	0.500085
O85	O	0.334977	-0.020120	0.000087
O86	O	0.834977	0.479880	0.500087
O87	O	0.308725	0.172011	0.000085
O88	O	0.808725	0.672011	0.500085
C89	C	0.671590	-0.485241	-0.089094
C90	C	1.171590	0.014759	0.410906
C91	C	0.670873	-0.544640	-0.089100
C92	C	1.170873	-0.044640	0.410900
O93	O	0.670486	-0.575354	-0.164935
O94	O	1.170486	-0.075354	0.335065
N95	N	0.670512	-0.574354	0.000068
N96	N	1.170512	-0.074354	0.500068
C97	C	0.670863	-0.544664	0.089247
C98	C	1.170863	-0.044664	0.589247
O99	O	0.670490	-0.575392	0.165091
O100	O	1.170490	-0.075392	0.665091
C101	C	0.671576	-0.485265	0.089252
C102	C	1.171576	0.014735	0.589252
C103	C	0.671943	-0.455556	0.000078
C104	C	1.171943	0.044444	0.500078
C105	C	0.671955	-0.455531	-0.178260
C106	C	1.171955	0.044469	0.321740
C107	C	0.672674	-0.396136	-0.178254
C108	C	1.172674	0.103864	0.321746
C109	C	0.673026	-0.366450	-0.089082
C110	C	1.173026	0.133550	0.410918
C111	C	0.672661	-0.396160	0.000085
C112	C	1.172661	0.103840	0.500085
C113	C	0.671923	-0.455576	0.178430
C114	C	1.171923	0.044424	0.678430
C115	C	0.672636	-0.396173	0.178427
C116	C	1.172636	0.103827	0.678427
C117	C	0.673002	-0.366463	0.089254
C118	C	1.173002	0.133537	0.589254
C119	C	0.673732	-0.307080	0.089263
C120	C	1.173732	0.192920	0.589263
N121	N	0.674092	-0.277366	0.000095
N122	N	1.174092	0.222634	0.500095
C123	C	0.673739	-0.307051	-0.089077
C124	C	1.173739	0.192949	0.410923
C125	C	0.669365	-0.669406	0.089231
C126	C	1.169365	-0.169406	0.589231
C127	C	0.668656	-0.728804	0.089227
C128	C	1.168656	-0.228804	0.589227
C129	C	0.668664	-0.728776	-0.089120
C130	C	1.168664	-0.228776	0.410880
C131	C	0.669377	-0.669377	-0.089116
C132	C	1.169377	-0.169377	0.410884
C133	C	0.669725	-0.639692	0.000063
C134	C	1.169725	-0.139692	0.500063
C135	C	0.675248	-0.182317	-0.089057
C136	C	1.175248	0.317683	0.410943
C137	C	0.675969	-0.122917	-0.089043
C138	C	1.175969	0.377083	0.410957
C139	C	0.675958	-0.122950	0.089303
C140	C	1.175958	0.377050	0.589303
C141	C	0.675240	-0.182346	0.089290
C142	C	1.175240	0.317654	0.589290
C143	C	0.674883	-0.212027	0.000102
C144	C	1.174883	0.287973	0.500102
O145	O	0.674116	-0.276328	0.165059
O146	O	1.174116	0.223672	0.665059
O147	O	0.674105	-0.276315	-0.164908
O148	O	1.174105	0.223685	0.335092
C149	C	0.776459	0.069390	0.000113
C150	C	1.276459	0.569390	0.500113
C151	C	0.839676	0.070156	0.000117
C152	C	1.339676	0.570156	0.500117
C153	C	0.667545	0.178287	0.000069
C154	C	1.167545	0.678287	0.500069
C155	C	0.668300	0.241506	0.000054
C156	C	1.168300	0.741506	0.500054
N157	N	0.672301	0.074129	0.254951
N158	N	1.172301	0.574129	0.754951
N159	N	0.672325	0.074140	-0.254760
N160	N	1.172325	0.574140	0.245240
C161	C	0.672316	0.074140	0.656242
C162	C	1.172316	0.574140	1.156242
C163	C	0.672310	0.074139	0.544591
C164	C	1.172310	0.574139	1.044591
C165	C	0.672309	0.074135	0.455600
C166	C	1.172309	0.574135	0.955600
C167	C	0.672303	0.074133	0.343942
C168	C	1.172303	0.574133	0.843942
H169	H	0.486571	0.172259	0.000035
H170	H	0.986571	0.672259	0.500035
Cl171	Cl	0.128375	-0.095792	0.000166
Cl172	Cl	0.628375	0.404208	0.500166
Cl173	Cl	-0.017904	-0.045534	0.000147
Cl174	Cl	0.482096	0.454466	0.500147
Cl175	Cl	0.674801	-0.219623	-0.201181
Cl176	Cl	1.174801	0.280377	0.298819
Cl177	Cl	0.362532	0.193815	0.000057
Cl178	Cl	0.862532	0.693815	0.500057
Cl179	Cl	0.668216	-0.766105	-0.201224
Cl180	Cl	1.168216	-0.266105	0.298776
Cl181	Cl	0.674791	-0.219698	0.201395
Cl182	Cl	1.174791	0.280302	0.701395
Cl183	Cl	-0.049882	0.188876	0.000076
Cl184	Cl	0.450118	0.688876	0.500076
Cl185	Cl	0.216262	0.244069	0.000050
Cl186	Cl	0.716262	0.744069	0.500050
Cl187	Cl	0.082217	0.242464	0.000060
Cl188	Cl	0.582217	0.742464	0.500060
H189	H	-0.167662	0.164425	0.000093
H190	H	0.332338	0.664425	0.500093
Cl191	Cl	0.669835	-0.632034	-0.201224
Cl192	Cl	1.169835	-0.132034	0.298776
H193	H	-0.141942	-0.023982	0.000126
H194	H	0.358058	0.476018	0.500126
Cl195	Cl	0.262427	-0.094180	0.000185
Cl196	Cl	0.762427	0.405820	0.500185
Cl197	Cl	0.394498	-0.040596	0.000123
Cl198	Cl	0.894498	0.459404	0.500123
Cl199	Cl	0.676401	-0.085621	0.201400
Cl200	Cl	1.176401	0.414379	0.701400
Cl201	Cl	0.676431	-0.085572	-0.201156
Cl202	Cl	1.176431	0.414428	0.298844
Cl203	Cl	0.528575	-0.038985	0.000104
Cl204	Cl	1.028575	0.461015	0.500104
H205	H	0.671666	-0.479694	-0.250879
H206	H	1.171666	0.020306	0.249121
H207	H	0.671626	-0.479756	0.251045
H208	H	1.171626	0.020244	0.751045
H209	H	0.672970	-0.371951	-0.250869
H210	H	1.172970	0.128049	0.249131
H211	H	0.668366	-0.752990	0.161841
H212	H	1.168366	-0.252990	0.661841
H213	H	0.669650	-0.645240	0.161855
H214	H	1.169650	-0.145240	0.661855
H215	H	0.672911	-0.372006	0.251049
H216	H	1.172911	0.127994	0.751049
