data_functionalizedCrystal
_audit_creation_method	'MofGen! by Chris Wilmer'
_symmetry_space_group_name_H-M	'P1'
_symmetry_Int_Tables_number	1
_symmetry_cell_setting	triclinic
loop_
_symmetry_equiv_pos_as_xyz
  x,y,z
_cell_length_a	14.044220
_cell_length_b	10.654550
_cell_length_c	9.730223
_cell_angle_alpha	89.999854
_cell_angle_beta	90.001660
_cell_angle_gamma	88.836904
loop_
_atom_site_label
_atom_site_type_symbol
_atom_site_fract_x
_atom_site_fract_y
_atom_site_fract_z
O1	O	1.259697	0.302986	-0.114119
O2	O	1.759697	0.802986	0.385881
O3	O	0.983656	0.292052	-0.114155
O4	O	1.483656	0.792052	0.385845
O5	O	1.128023	0.115418	-0.114142
O6	O	1.628023	0.615418	0.385858
O7	O	1.115330	0.479621	-0.114132
O8	O	1.615330	0.979621	0.385868
O9	O	1.128014	0.115411	0.114438
O10	O	1.628014	0.615411	0.614438
O11	O	0.983646	0.292046	0.114425
O12	O	1.483646	0.792046	0.614425
O13	O	1.259688	0.302980	0.114461
O14	O	1.759688	0.802980	0.614461
Zn15	Zn	1.121665	0.297512	0.150735
Zn16	Zn	1.621665	0.797512	0.650735
Zn17	Zn	1.121678	0.297520	-0.150429
Zn18	Zn	1.621678	0.797520	0.349571
O19	O	1.115320	0.479614	0.114448
O20	O	1.615320	0.979614	0.614448
C21	C	0.948305	0.287263	0.000130
C22	C	1.448305	0.787263	0.500130
C23	C	0.842986	0.272988	0.000116
C24	C	1.342986	0.772988	0.500116
C25	C	1.116257	0.526509	0.000159
C26	C	1.616257	1.026509	0.500159
C27	C	1.119045	0.666233	0.000164
C28	C	1.619045	1.166233	0.500164
C29	C	1.127086	0.068523	0.000143
C30	C	1.627086	0.568523	0.500143
C31	C	1.124298	-0.071201	0.000130
C32	C	1.624298	0.428799	0.500130
C33	C	0.650153	0.246889	0.000142
C34	C	1.150153	0.746889	0.500142
C35	C	0.593185	0.348137	0.000151
C36	C	1.093185	0.848137	0.500151
C37	C	0.485886	0.333615	0.000166
C38	C	0.985886	0.833615	0.500166
C39	C	0.757462	0.261409	0.000128
C40	C	1.257462	0.761409	0.500128
C41	C	1.295038	0.307769	0.000172
C42	C	1.795038	0.807769	0.500172
C43	C	1.400358	0.322044	0.000178
C44	C	1.900358	0.822044	0.500178
N45	N	1.121664	0.297506	0.356271
N46	N	1.621664	0.797506	0.856271
C47	C	1.034044	0.737176	0.000149
C48	C	1.534044	1.237176	0.500149
C49	C	1.036670	0.868461	0.000128
C50	C	1.536670	1.368461	0.500128
C51	C	1.209306	0.857846	0.000140
C52	C	1.709306	1.357846	0.500140
C53	C	1.206679	0.726564	0.000152
C54	C	1.706679	1.226564	0.500152
N55	N	1.121687	0.297517	-0.355966
N56	N	1.621687	0.797517	0.144034
C57	C	1.185612	0.219331	0.428203
C58	C	1.685612	0.719331	0.928203
C59	C	1.185621	0.219332	0.572086
C60	C	1.685621	0.719332	1.072086
C61	C	1.057732	0.375696	0.572093
C62	C	1.557732	0.875696	1.072093
C63	C	1.057719	0.375687	0.428212
C64	C	1.557719	0.875687	0.928212
H65	H	0.618342	0.149310	0.000147
H66	H	1.118342	0.649310	0.500147
N67	N	0.949834	0.940909	0.000103
N68	N	1.449834	1.440909	0.500103
N69	N	0.871602	0.887021	0.000105
N70	N	1.371602	1.387021	0.500105
H71	H	0.810269	0.938186	0.000084
H72	H	1.310269	1.438186	0.500084
N73	N	0.944525	0.675568	0.000168
N74	N	1.444525	1.175568	0.500168
N75	N	0.868638	0.738933	0.000159
N76	N	1.368638	1.238933	0.500159
H77	H	0.805411	0.695427	0.000172
H78	H	1.305411	1.195427	0.500172
H79	H	1.237679	0.155670	0.369632
H80	H	1.737679	0.655670	0.869632
N81	N	1.298808	0.919496	0.000125
N82	N	1.798808	1.419496	0.500125
N83	N	1.301143	1.036711	0.000114
N84	N	1.801143	1.536711	0.500114
H85	H	1.364356	1.080252	0.000105
H86	H	1.864356	1.580252	0.500105
N87	N	1.250944	0.139463	0.645540
N88	N	1.750944	0.639463	1.145540
N89	N	1.308025	0.069664	0.581285
N90	N	1.808025	0.569664	1.081285
H91	H	1.354162	0.013250	0.633160
H92	H	1.854162	0.513250	1.133160
N93	N	0.992409	0.455569	0.354729
N94	N	1.492409	0.955569	0.854729
N95	N	1.023009	0.536970	0.274434
N96	N	1.523009	1.036970	0.774434
H97	H	0.976885	0.593384	0.222535
H98	H	1.476885	1.093384	0.722535
N99	N	1.293519	0.654106	0.000153
N100	N	1.793519	1.154106	0.500153
N101	N	1.371756	0.707985	0.000150
N102	N	1.871756	1.207985	0.500150
H103	H	1.433085	0.656813	0.000144
H104	H	1.933085	1.156813	0.500144
H105	H	1.005671	0.439350	0.630682
H106	H	1.505671	0.939350	1.130682
H107	H	0.624998	0.445725	0.000147
H108	H	1.124998	0.945725	0.500147
