data_functionalizedCrystal
_audit_creation_method	'MofGen! by Chris Wilmer'
_symmetry_space_group_name_H-M	'P1'
_symmetry_Int_Tables_number	1
_symmetry_cell_setting	triclinic
loop_
_symmetry_equiv_pos_as_xyz
  x,y,z
_cell_length_a	10.723023
_cell_length_b	10.723023
_cell_length_c	9.198806
_cell_angle_alpha	89.997827
_cell_angle_beta	89.996513
_cell_angle_gamma	84.467548
loop_
_atom_site_label
_atom_site_type_symbol
_atom_site_fract_x
_atom_site_fract_y
_atom_site_fract_z
O1	O	1.657188	0.175020	-0.120874
O2	O	1.294035	0.191774	-0.120880
O3	O	1.483989	0.001821	-0.120871
O4	O	1.467234	0.364973	-0.120883
O5	O	1.483974	0.001820	0.120914
O6	O	1.294020	0.191774	0.120905
O7	O	1.657173	0.175019	0.120911
Cu8	Cu	1.475595	0.183396	0.142985
Cu9	Cu	1.475613	0.183397	-0.142954
O10	O	1.467219	0.364973	0.120902
C11	C	1.247528	0.190555	0.000012
C12	C	1.108974	0.186908	0.000010
C13	C	1.047194	0.185281	0.125260
C14	C	0.903991	0.181512	0.125261
C15	C	1.482762	-0.044679	0.000020
C16	C	1.479115	-0.183233	0.000015
C17	C	1.703680	0.176239	0.000016
C18	C	1.842234	0.179886	0.000009
C19	C	1.473711	-0.388208	0.125257
C20	C	1.477481	-0.245004	0.125265
N21	N	1.475592	0.183395	0.344099
C22	C	1.468446	0.411473	0.000008
C23	C	1.472093	0.550027	0.000003
N24	N	1.475626	0.183388	-0.344068
C25	C	1.555347	0.103288	0.416300
C26	C	1.555367	0.103283	0.583712
H27	H	1.055849	0.185506	-0.107222
O28	O	1.479335	-0.174653	0.267315
H29	H	1.477577	-0.241694	0.359061
H30	H	1.407345	0.251980	0.593852
O31	O	1.477245	-0.253565	-0.142048
H32	H	1.562807	-0.239049	-0.205297
O33	O	1.473946	-0.379605	-0.142048
H34	H	1.560417	-0.330686	-0.148271
O35	O	1.117545	0.187141	0.267314
H36	H	1.218981	0.189822	0.245021
H37	H	1.623612	0.034702	0.354177
H38	H	1.623654	0.034704	0.645801
O39	O	0.833571	0.180165	0.267314
H40	H	0.732114	0.177671	0.245022
O41	O	1.385165	0.274262	0.426361
H42	H	1.323963	0.221321	0.495736
H43	H	0.895354	0.181292	-0.107229
H44	H	1.472299	-0.441345	0.232485
