data_functionalizedCrystal
_audit_creation_method	'MofGen! by Chris Wilmer'
_symmetry_space_group_name_H-M	'P1'
_symmetry_Int_Tables_number	1
_symmetry_cell_setting	triclinic
loop_
_symmetry_equiv_pos_as_xyz
  x,y,z
_cell_length_a	17.640112
_cell_length_b	17.640280
_cell_length_c	17.637815
_cell_angle_alpha	87.852258
_cell_angle_beta	109.604340
_cell_angle_gamma	87.815931
loop_
_atom_site_label
_atom_site_type_symbol
_atom_site_fract_x
_atom_site_fract_y
_atom_site_fract_z
Zn1	Zn	1.193472	0.110284	-0.183748
Zn2	Zn	1.693472	0.610284	0.316252
Zn3	Zn	1.243953	0.199818	-0.023314
Zn4	Zn	1.743953	0.699818	0.476686
Zn5	Zn	1.083557	0.110323	-0.073770
Zn6	Zn	1.583557	0.610323	0.426230
Zn7	Zn	1.093741	0.260528	-0.173499
Zn8	Zn	1.593741	0.760528	0.326501
O9	O	1.153681	0.170238	-0.113583
O10	O	1.653681	0.670238	0.386417
O11	O	1.309033	0.096737	-0.145639
O12	O	1.809033	0.596737	0.354361
O13	O	1.239541	0.162555	0.078871
O14	O	1.739541	0.662555	0.578871
O15	O	1.072748	0.009987	-0.113764
O16	O	1.572748	0.509987	0.386236
O17	O	1.346121	0.162517	-0.027769
O18	O	1.846121	0.662517	0.472231
O19	O	1.153503	0.009958	-0.194565
O20	O	1.653503	0.509958	0.305435
O21	O	1.121698	0.096804	0.041802
O22	O	1.621698	0.596804	0.541802
O23	O	0.976043	0.155672	-0.103826
O24	O	1.476043	0.655672	0.396174
O25	O	1.090106	0.265988	-0.283737
O26	O	1.590106	0.765988	0.216263
O27	O	0.983526	0.266027	-0.177097
O28	O	1.483526	0.766027	0.322903
O29	O	1.163378	0.155605	-0.291267
O30	O	1.663378	0.655605	0.208733
O31	O	1.249416	0.308202	-0.017831
O32	O	1.749416	0.808202	0.482169
O33	O	1.139056	0.352805	-0.128171
O34	O	1.639056	0.852805	0.371829
C35	C	0.951557	0.217442	-0.144825
C36	C	1.451557	0.717442	0.355175
C37	C	0.865089	0.237658	-0.158204
C38	C	1.365089	0.737658	0.341796
C39	C	1.200837	0.356518	-0.066428
C40	C	1.700837	0.856518	0.433572
C41	C	1.221078	0.436198	-0.046270
C42	C	1.721078	0.936198	0.453730
C43	C	1.122247	0.217564	-0.316523
C44	C	1.622247	0.717564	0.183477
C45	C	1.108852	0.237731	-0.403004
C46	C	1.608852	0.737731	0.096996
C47	C	0.560978	0.016651	-0.011950
C48	C	1.060978	0.516651	0.488050
C49	C	0.479730	0.035664	-0.024529
C50	C	0.979730	0.535664	0.475471
C51	C	0.487635	0.150662	-0.100622
C52	C	0.987635	0.650662	0.399378
C53	C	0.568884	0.131657	-0.088053
C54	C	1.068884	0.631657	0.411947
C55	C	0.605549	0.064651	-0.043715
C56	C	1.105549	0.564651	0.456285
C57	C	0.613455	0.179657	-0.119818
C58	C	1.113455	0.679657	0.380182
C59	C	0.694698	0.160655	-0.107246
C60	C	1.194698	0.660655	0.392754
C61	C	0.731370	0.093653	-0.062909
C62	C	1.231370	0.593653	0.437091
C63	C	0.686792	0.045649	-0.031143
C64	C	1.186792	0.545649	0.468857
C65	C	0.576789	0.246665	-0.164150
C66	C	1.076789	0.746665	0.335850
C67	C	0.621360	0.294665	-0.195915
C68	C	1.121360	0.794665	0.304085
C69	C	0.702603	0.275661	-0.183348
C70	C	1.202603	0.775661	0.316652
C71	C	0.739275	0.208659	-0.139011
C72	C	1.239275	0.708659	0.360989
C73	C	0.747181	0.323665	-0.215113
C74	C	1.247181	0.823665	0.284887
C75	C	0.828424	0.304664	-0.202541
C76	C	1.328424	0.804664	0.297459
C77	C	0.820518	0.189658	-0.126439
C78	C	1.320518	0.689658	0.373561
C79	C	1.356594	0.122850	-0.082219
C80	C	1.856594	0.622850	0.417781
C81	C	1.443063	0.102656	-0.068854
C82	C	1.943063	0.602656	0.431146
C83	C	1.106359	-0.016770	-0.160936
C84	C	1.606359	0.483230	0.339064
C85	C	1.086193	-0.096461	-0.181115
C86	C	1.586193	0.403539	0.318885
C87	C	1.000188	0.814490	-0.266956
C88	C	1.500188	1.314490	0.233044
C89	C	1.019213	0.889356	-0.247989
C90	C	1.519213	1.389356	0.252011
C91	C	1.134177	0.842854	-0.133183
C92	C	1.634177	1.342854	0.366817
C93	C	1.115164	0.767982	-0.152143
C94	C	1.615164	1.267982	0.347857
C95	C	1.048168	0.753807	-0.219029
C96	C	1.548168	1.253807	0.280971
C97	C	1.163144	0.707300	-0.104216
C98	C	1.663144	1.207300	0.395784
C99	C	1.144130	0.632435	-0.123172
C100	C	1.644130	1.132435	0.376828
C101	C	1.077136	0.618253	-0.190054
C102	C	1.577136	1.118253	0.309946
C103	C	1.029154	0.678942	-0.237985
C104	C	1.529154	1.178942	0.262015
C105	C	1.230137	0.721477	-0.037326
C106	C	1.730137	1.221477	0.462674
C107	C	1.278117	0.660794	0.010600
C108	C	1.778117	1.160794	0.510600
C109	C	1.259107	0.585928	-0.008358
C110	C	1.759107	1.085928	0.491642
C111	C	1.192112	0.571746	-0.075241
C112	C	1.692112	1.071746	0.424759
C113	C	1.307088	0.525238	0.039573
C114	C	1.807088	1.025238	0.539573
C115	C	1.288074	0.450373	0.020617
C116	C	1.788074	0.950373	0.520617
C117	C	1.173098	0.496881	-0.094196
C118	C	1.673098	0.996881	0.405804
C119	C	1.255544	0.016725	-0.707026
C120	C	1.755544	0.516725	-0.207026
C121	C	1.242952	0.035693	-0.788285
C122	C	1.742952	0.535693	-0.288285
C123	C	1.166661	0.150626	-0.780435
C124	C	1.666661	0.650626	-0.280435
C125	C	1.179249	0.131669	-0.699172
C126	C	1.679249	0.631669	-0.199172
C127	C	1.223690	0.064717	-0.662475
C128	C	1.723690	0.564717	-0.162475
C129	C	1.147396	0.179661	-0.654621
C130	C	1.647396	0.679661	-0.154621
C131	C	1.159979	0.160703	-0.573366
C132	C	1.659979	0.660703	-0.073366
C133	C	1.204417	0.093753	-0.536663
C134	C	1.704417	0.593753	-0.036663
C135	C	1.236274	0.045759	-0.581220
C136	C	1.736274	0.545759	-0.081220
C137	C	1.102950	0.246610	-0.691321
C138	C	1.602950	0.746610	-0.191321
C139	C	1.071096	0.294602	-0.646770
C140	C	1.571096	0.794602	-0.146770
C141	C	1.083685	0.275647	-0.565512
C142	C	1.583685	0.775647	-0.065512
C143	C	1.128122	0.208697	-0.528809
C144	C	1.628122	0.708697	-0.028809
C145	C	1.051827	0.323641	-0.520955
C146	C	1.551827	0.823641	-0.020955
C147	C	1.064411	0.304683	-0.439701
C148	C	1.564411	0.804683	0.060299
C149	C	1.140706	0.189739	-0.447555
C150	C	1.640706	0.689739	0.052445
C151	C	1.185024	0.123034	0.088561
C152	C	1.685024	0.623034	0.588561
C153	C	1.198518	0.102630	0.175014
C154	C	1.698518	0.602630	0.675014
H155	H	0.850369	0.135087	-0.090350
H156	H	1.350369	0.635087	0.409650
H157	H	1.118548	0.485341	-0.148667
H158	H	1.618548	0.985341	0.351333
N159	N	0.927934	0.799184	-0.339101
N160	N	1.427934	1.299184	0.160899
H161	H	0.934664	0.822345	-0.389549
H162	H	1.434664	1.322345	0.110451
H163	H	0.877589	0.822401	-0.332185
H164	H	1.377589	1.322401	0.167815
H165	H	1.327144	0.400963	0.059645
H166	H	1.827144	0.900963	0.559645
N167	N	0.448089	0.222927	-0.148448
N168	N	0.948089	0.722927	0.351552
H169	H	0.477086	0.267990	-0.121125
H170	H	0.977086	0.767990	0.378875
H171	H	0.389860	0.227615	-0.151583
H172	H	0.889860	0.727615	0.348417
H173	H	1.214662	0.078319	-0.470501
H174	H	1.714662	0.578319	0.029499
H175	H	0.590828	-0.037920	0.024139
H176	H	1.090828	0.462080	0.524139
H177	H	0.716642	-0.008922	0.004946
H178	H	1.216642	0.491078	0.504946
H179	H	1.272467	-0.008758	-0.551338
H180	H	1.772467	0.491242	-0.051338
H181	H	1.061651	0.557292	-0.205482
H182	H	1.561651	1.057292	0.294518
H183	H	0.974604	0.667402	-0.292456
H184	H	1.474604	1.167402	0.207544
N185	N	0.431666	-0.016100	0.009760
N186	N	0.931666	0.483900	0.509760
H187	H	0.374638	0.006109	-0.004920
H188	H	0.874638	0.506109	0.495080
H189	H	0.457291	-0.021276	0.070347
H190	H	0.957291	0.478724	0.570347
H191	H	1.130475	0.205137	-0.810326
H192	H	1.630475	0.705137	-0.310326
H193	H	1.268889	-0.003396	-0.824559
H194	H	1.768889	0.496604	-0.324559
N195	N	0.876501	0.356435	-0.236800
N196	N	1.376501	0.856435	0.263200
H197	H	0.897260	0.327885	-0.275050
H198	H	1.397260	0.827885	0.224950
H199	H	0.923473	0.374331	-0.191456
H200	H	1.423473	0.874331	0.308544
H201	H	0.980144	0.938765	-0.287030
H202	H	1.480144	1.438765	0.212970
H203	H	0.510636	0.262134	-0.174384
H204	H	1.010636	0.762134	0.325616
N205	N	1.303488	-0.055482	-0.667433
N206	N	1.803488	0.444518	-0.167433
H207	H	1.321764	-0.083009	-0.707983
H208	H	1.821764	0.416991	-0.207983
H209	H	1.268646	-0.089132	-0.647019
H210	H	1.768646	0.410868	-0.147019
N211	N	0.581814	0.366936	-0.243729
N212	N	1.081814	0.866936	0.256271
H213	H	0.523584	0.371692	-0.246873
H214	H	1.023584	0.871692	0.253127
H215	H	0.584609	0.365492	-0.299923
H216	H	1.084609	0.865492	0.200077
H217	H	0.797524	0.078185	-0.052671
H218	H	1.297524	0.578185	0.447329
N219	N	1.206427	0.858146	-0.061037
N220	N	1.706427	1.358146	0.438963
H221	H	1.211191	0.914780	-0.056297
H222	H	1.711191	1.414780	0.443703
H223	H	1.256763	0.834879	-0.067928
H224	H	1.756763	1.334879	0.432072
H225	H	1.034910	0.349113	-0.676660
H226	H	1.534910	0.849113	-0.176660
N227	N	1.030065	0.356445	-0.391638
N228	N	1.530065	0.856445	0.108362
H229	H	0.991860	0.327863	-0.370880
H230	H	1.491860	0.827863	0.129120
H231	H	1.000047	0.401727	-0.427256
H232	H	1.500047	0.901727	0.072744
N233	N	0.707635	0.395939	-0.262921
N234	N	1.207635	0.895939	0.237079
H235	H	0.649406	0.400695	-0.266060
H236	H	1.149406	0.900695	0.233940
H237	H	0.710426	0.394502	-0.319116
H238	H	1.210426	0.894502	0.180884
H239	H	1.245617	0.782438	-0.021897
H240	H	1.745617	1.282438	0.478103
H241	H	1.361632	0.536792	0.094036
H242	H	1.861632	1.036792	0.594036
H243	H	1.092696	0.262038	-0.757487
H244	H	1.592696	0.762038	-0.257487
N245	N	1.350367	0.676086	0.082747
N246	N	1.850367	1.176086	0.582747
H247	H	1.355131	0.732721	0.087486
H248	H	1.855131	1.232721	0.587486
H249	H	1.400702	0.652820	0.075856
H250	H	1.900702	1.152820	0.575856
H251	H	1.015637	0.378150	-0.550849
H252	H	1.515637	0.878150	-0.050849
H253	H	1.176899	0.135223	-0.417673
H254	H	1.676899	0.635223	0.082327
