data_functionalizedCrystal
_audit_creation_method	'MofGen! by Chris Wilmer'
_symmetry_space_group_name_H-M	'P1'
_symmetry_Int_Tables_number	1
_symmetry_cell_setting	triclinic
loop_
_symmetry_equiv_pos_as_xyz
  x,y,z
_cell_length_a	10.654549
_cell_length_b	10.723024
_cell_length_c	9.730223
_cell_angle_alpha	89.996766
_cell_angle_beta	89.997731
_cell_angle_gamma	84.476323
loop_
_atom_site_label
_atom_site_type_symbol
_atom_site_fract_x
_atom_site_fract_y
_atom_site_fract_z
O1	O	1.667813	0.175272	-0.114254
O2	O	2.167813	0.675272	0.385746
O3	O	1.302332	0.191972	-0.114264
O4	O	1.802332	0.691972	0.385736
O5	O	1.493503	0.002047	-0.114254
O6	O	1.993503	0.502047	0.385746
O7	O	1.476642	0.365197	-0.114264
O8	O	1.976642	0.865197	0.385736
O9	O	1.493490	0.002042	0.114326
O10	O	1.993490	0.502042	0.614326
O11	O	1.302319	0.191967	0.114316
O12	O	1.802319	0.691967	0.614316
O13	O	1.667801	0.175267	0.114326
O14	O	2.167801	0.675267	0.614326
Zn15	Zn	1.485058	0.183616	0.150613
Zn16	Zn	1.985058	0.683616	0.650613
Zn17	Zn	1.485074	0.183623	-0.150551
Zn18	Zn	1.985074	0.683623	0.349449
O19	O	1.476630	0.365192	0.114316
O20	O	1.976630	0.865192	0.614316
C21	C	1.255528	0.190743	0.000025
C22	C	1.755528	0.690743	0.500025
C23	C	1.116085	0.187075	0.000021
C24	C	1.616085	0.687075	0.500021
C25	C	0.905554	0.295444	0.000024
C26	C	1.405554	0.795444	0.500024
C27	C	1.036574	0.298900	0.000015
C28	C	1.536574	0.798900	0.500015
C29	C	1.064570	0.071787	0.000022
C30	C	1.564570	0.571787	0.500022
C31	C	0.933552	0.068332	0.000020
C32	C	1.433552	0.568332	0.500020
C33	C	1.492270	-0.044455	0.000035
C34	C	1.992270	0.455545	0.500035
C35	C	1.488599	-0.183010	0.000030
C36	C	1.988599	0.316990	0.500030
C37	C	1.595568	-0.257977	0.000030
C38	C	2.095568	0.242023	0.500030
C39	C	1.591776	-0.401181	0.000025
C40	C	2.091776	0.098819	0.500025
C41	C	1.714605	0.176496	0.000034
C42	C	2.214605	0.676496	0.500034
C43	C	1.854047	0.180164	0.000028
C44	C	2.354047	0.680164	0.500028
C45	C	1.477863	0.411694	0.000024
C46	C	1.977863	0.911694	0.500024
C47	C	1.481534	0.550249	0.000020
C48	C	1.981534	1.050249	0.500020
N49	N	1.485056	0.183611	0.356149
N50	N	1.985056	0.683611	0.856149
N51	N	1.485086	0.183619	-0.356087
N52	N	1.985086	0.683619	0.143913
C53	C	1.569736	0.099548	0.428080
C54	C	2.069736	0.599548	0.928080
C55	C	1.569748	0.099548	0.571963
C56	C	2.069748	0.599548	1.071963
C57	C	1.400398	0.267685	0.571972
C58	C	1.900398	0.767685	1.071972
C59	C	1.400380	0.267678	0.428092
C60	C	1.900380	0.767678	0.928092
H61	H	0.840824	0.386505	0.000029
H62	H	1.340824	0.886505	0.500029
H63	H	1.683350	-0.465600	0.000032
H64	H	2.183350	0.034400	0.500032
Cl65	Cl	1.101320	0.443829	0.000004
Cl66	Cl	1.601320	0.943829	0.500004
Cl67	Cl	1.741302	-0.193397	0.000025
Cl68	Cl	2.241302	0.306603	0.500025
Cl69	Cl	0.868796	-0.076603	0.000008
Cl70	Cl	1.368796	0.423397	0.500008
H71	H	1.389955	-0.385339	0.000029
H72	H	1.889955	0.114661	0.500029
H73	H	1.638700	0.031095	0.630524
H74	H	2.138700	0.531095	1.130524
H75	H	1.331418	0.336133	0.369522
H76	H	1.831418	0.836133	0.869522
H77	H	1.331458	0.336133	0.630562
H78	H	1.831458	0.836133	1.130562
H79	H	1.129319	-0.019263	0.000018
H80	H	1.629319	0.480737	0.500018
H81	H	1.394211	-0.224846	0.000018
H82	H	1.894211	0.275154	0.500018
H83	H	1.638682	0.031093	0.369507
H84	H	2.138682	0.531093	0.869507
