data_functionalizedCrystal
_audit_creation_method	'MofGen! by Chris Wilmer'
_symmetry_space_group_name_H-M	'P1'
_symmetry_Int_Tables_number	1
_symmetry_cell_setting	triclinic
loop_
_symmetry_equiv_pos_as_xyz
  x,y,z
_cell_length_a	10.654537
_cell_length_b	15.944551
_cell_length_c	9.130307
_cell_angle_alpha	89.999449
_cell_angle_beta	90.002313
_cell_angle_gamma	96.009642
loop_
_atom_site_label
_atom_site_type_symbol
_atom_site_fract_x
_atom_site_fract_y
_atom_site_fract_z
O1	O	-1.666320	0.117942	-0.121773
O2	O	-1.300695	0.129188	-0.121783
O3	O	-1.493492	0.001348	-0.121764
O4	O	-1.473523	0.245782	-0.121791
O5	O	-1.493478	0.001356	0.121835
O6	O	-1.300681	0.129196	0.121816
O7	O	-1.666306	0.117950	0.121826
Cu8	Cu	-1.483492	0.123574	0.144064
Cu9	Cu	-1.483509	0.123564	-0.144020
O10	O	-1.473509	0.245790	0.121808
C11	C	-1.253900	0.128368	0.000016
C12	C	-1.114488	0.125901	0.000012
C13	C	-1.492656	-0.029947	0.000035
C14	C	-1.490170	-0.123207	0.000036
C15	C	-1.084539	0.278766	-0.000023
C16	C	-1.004071	0.354037	-0.000045
C17	C	-0.873083	0.351714	-0.000045
C18	C	-0.822562	0.274112	-0.000018
C19	C	-0.903030	0.198842	0.000004
C20	C	-1.034020	0.201173	0.000000
C21	C	-0.932978	0.045978	0.000050
C22	C	-1.063967	0.048299	0.000039
C23	C	-0.882457	-0.031624	0.000077
C24	C	-0.962926	-0.106896	0.000089
C25	C	-1.093921	-0.104570	0.000088
C26	C	-1.144435	-0.026971	0.000062
C27	C	-1.364725	-0.338788	0.000013
C28	C	-1.422971	-0.399465	0.120123
C29	C	-1.485674	-0.293959	0.000025
C30	C	-1.423013	-0.399456	-0.120046
C31	C	-1.481322	-0.458897	0.000007
C32	C	-1.543953	-0.353408	0.120234
C33	C	-1.543978	-0.353393	-0.120043
C34	C	-1.602312	-0.414052	0.000097
C35	C	-1.488178	-0.198942	0.000036
C36	C	-1.478828	-0.553913	0.000007
C37	C	-0.713100	0.118773	0.000027
C38	C	-0.852510	0.121248	0.000027
C39	C	-1.474345	0.277085	0.000005
C40	C	-1.476830	0.370345	-0.000006
N41	N	-1.483490	0.123580	0.346686
N42	N	-1.483521	0.123551	-0.346643
C43	C	-1.331207	0.020707	0.653354
C44	C	-1.255035	-0.030704	0.576686
C45	C	-1.255012	-0.030688	0.423352
C46	C	-1.331171	0.020742	0.346684
C47	C	-1.407342	0.072153	0.423352
C48	C	-1.407354	0.072134	0.576689
C49	C	-1.559661	0.174991	0.423355
C50	C	-1.559680	0.174982	0.576688
C51	C	-1.635820	0.226422	0.346686
C52	C	-1.711986	0.277839	0.423354
C53	C	-1.712006	0.277822	0.576697
C54	C	-1.635851	0.226393	0.653356
H55	H	-1.045220	0.417219	-0.000064
H56	H	-1.159433	-0.165864	0.000111
O57	O	-0.913642	-0.182198	0.000053
C58	C	-0.780774	-0.168107	0.000102
H59	H	-0.750019	-0.102740	-0.046030
H60	H	-0.744317	-0.172379	0.116974
C61	C	-0.764204	-0.315530	-0.038744
C62	C	-0.726430	-0.235247	-0.095416
H63	H	-0.730680	-0.356947	-0.097657
H64	H	-0.853719	-0.325024	-0.038771
H65	H	-0.733820	-0.319078	0.058649
H66	H	-0.756827	-0.231697	-0.192799
H67	H	-0.636918	-0.225754	-0.095407
O68	O	-1.244940	-0.299775	0.000403
C69	C	-1.181620	-0.323134	0.127259
H70	H	-1.253706	-0.344706	0.215333
H71	H	-1.122932	-0.376863	0.099854
C72	C	-1.005818	-0.220437	0.075705
C73	C	-1.094355	-0.246925	0.183883
H74	H	-0.951983	-0.173429	0.110631
H75	H	-1.048474	-0.204701	-0.009764
H76	H	-0.956924	-0.265218	0.052877
H77	H	-1.143257	-0.202148	0.206696
H78	H	-1.051704	-0.262651	0.269358
H79	H	-1.192989	-0.072554	0.360929
H80	H	-1.595097	-0.332971	-0.221589
H81	H	-1.371808	-0.419865	0.221664
H82	H	-1.635801	0.226427	0.221834
H83	H	-1.331156	0.020743	0.221831
O84	O	-1.785823	0.327810	0.651329
C85	C	-1.709265	0.384659	0.740024
H86	H	-1.616092	0.357940	0.763012
H87	H	-1.690035	0.447686	0.680947
C88	C	-1.891912	0.430529	0.857430
C89	C	-1.777479	0.397709	0.885673
H90	H	-1.933991	0.438582	0.947271
H91	H	-1.943492	0.392231	0.797671
H92	H	-1.875871	0.483047	0.808195
H93	H	-1.793523	0.345187	0.934891
H94	H	-1.725903	0.435998	0.945444
O95	O	-1.604840	-0.329063	0.241468
C96	C	-1.606424	-0.240757	0.240026
H97	H	-1.525813	-0.211028	0.168841
H98	H	-1.700195	-0.224464	0.193594
C99	C	-1.689386	-0.242977	0.484760
C100	C	-1.590371	-0.206463	0.397340
H101	H	-1.679489	-0.221822	0.581798
H102	H	-1.688323	-0.302471	0.485731
H103	H	-1.767519	-0.229396	0.446050
H104	H	-1.512242	-0.220053	0.436039
H105	H	-1.591420	-0.146970	0.396379
H106	H	-1.251091	-0.025070	0.000043
H107	H	-1.702793	-0.446631	0.000168
O108	O	-1.361805	-0.423663	-0.241145
C109	C	-1.236586	-0.384991	-0.240668
H110	H	-1.230563	-0.325625	-0.170352
H111	H	-1.171451	-0.430617	-0.193794
C112	C	-1.203326	-0.434223	-0.484815
C113	C	-1.195930	-0.361304	-0.398462
H114	H	-1.178244	-0.419615	-0.582149
H115	H	-1.287687	-0.460280	-0.485136
H116	H	-1.149047	-0.472237	-0.445736
H117	H	-1.250221	-0.323296	-0.437531
H118	H	-1.111578	-0.335240	-0.398152
O119	O	-1.785771	0.327888	0.348815
C120	C	-1.709189	0.384716	0.260112
H121	H	-1.609268	0.393109	0.306339
H122	H	-1.707059	0.358751	0.143901
C123	C	-1.886111	0.460219	0.200978
C124	C	-1.763389	0.470533	0.257762
H125	H	-1.919546	0.513154	0.199521
H126	H	-1.937707	0.421931	0.260734
H127	H	-1.884320	0.438579	0.104140
H128	H	-1.765184	0.492162	0.354604
H129	H	-1.711794	0.508827	0.198022
H130	H	-1.191195	0.280666	-0.000055
H131	H	-1.331209	0.020696	0.778206
H132	H	-1.635856	0.226376	0.778208
H133	H	-0.807564	0.413006	-0.000054
H134	H	-0.715903	0.272228	-0.000001
H135	H	-0.775799	-0.033510	0.000085
H136	H	-1.193032	-0.072580	0.639126
