data_functionalizedCrystal
_audit_creation_method	'MofGen! by Chris Wilmer'
_symmetry_space_group_name_H-M	'P1'
_symmetry_Int_Tables_number	1
_symmetry_cell_setting	triclinic
loop_
_symmetry_equiv_pos_as_xyz
  x,y,z
_cell_length_a	19.288864
_cell_length_b	10.868271
_cell_length_c	19.288865
_cell_angle_alpha	90.010362
_cell_angle_beta	83.136245
_cell_angle_gamma	90.018163
loop_
_atom_site_label
_atom_site_type_symbol
_atom_site_fract_x
_atom_site_fract_y
_atom_site_fract_z
O1	O	0.921348	0.102731	0.086648
O2	O	1.421348	0.602731	0.586648
O3	O	0.719087	0.102649	0.098337
O4	O	1.219087	0.602649	0.598337
O5	O	0.826062	0.102668	-0.008638
O6	O	1.326062	0.602668	0.491362
O7	O	0.814373	0.102712	0.193623
O8	O	1.314373	0.602712	0.693623
O9	O	0.826053	-0.101977	-0.008642
O10	O	1.326053	0.398023	0.491358
O11	O	0.719079	-0.101996	0.098333
O12	O	1.219079	0.398004	0.598333
O13	O	0.921339	-0.101914	0.086644
O14	O	1.421339	0.398086	0.586644
Zn15	Zn	0.820208	-0.134447	0.092488
Zn16	Zn	1.320208	0.365553	0.592488
Zn17	Zn	0.820219	0.135181	0.092493
Zn18	Zn	1.320219	0.635181	0.592493
O19	O	0.814365	-0.101933	0.193619
O20	O	1.314365	0.398067	0.693619
C21	C	0.693207	0.000315	0.097959
C22	C	1.193207	0.500315	0.597959
C23	C	0.616103	0.000283	0.096830
C24	C	1.116103	0.500283	0.596830
C25	C	0.571407	0.000316	0.159598
C26	C	1.071407	0.500316	0.659598
C27	C	0.498960	0.000329	0.158537
C28	C	0.998960	0.500329	0.658537
C29	C	0.471212	0.000334	0.094705
C30	C	0.971212	0.500334	0.594705
C31	C	0.515918	0.000294	0.031929
C32	C	1.015918	0.500294	0.531929
C33	C	0.588364	0.000269	0.032991
C34	C	1.088364	0.500269	0.532991
C35	C	0.362953	0.072061	0.044527
C36	C	0.862953	0.572061	0.544527
C37	C	0.290509	0.072094	0.043467
C38	C	0.790509	0.572094	0.543467
C39	C	0.247767	0.000408	0.091425
C40	C	0.747767	0.500408	0.591425
C41	C	0.277476	-0.071295	0.140455
C42	C	0.777476	0.428705	0.640455
C43	C	0.349922	-0.071321	0.141517
C44	C	0.849922	0.428679	0.641517
C45	C	0.392658	0.000361	0.093546
C46	C	0.892658	0.500361	0.593546
C47	C	0.124514	0.000454	0.153047
C48	C	0.624514	0.500454	0.653047
C49	C	0.052066	0.000460	0.151984
C50	C	0.552066	0.500460	0.651984
C51	C	0.069026	0.000437	0.025374
C52	C	0.569026	0.500437	0.525374
C53	C	0.141473	0.000419	0.026439
C54	C	0.641473	0.500419	0.526439
C55	C	0.169212	0.000433	0.090278
C56	C	0.669212	0.500433	0.590278
N57	N	0.820205	-0.318461	0.092484
N58	N	1.320205	0.181539	0.592484
C59	C	0.820216	-0.569467	0.092492
C60	C	1.320216	-0.069467	0.592492
C61	C	0.820207	-0.429789	0.092489
C62	C	1.320207	0.070211	0.592489
C63	C	0.947220	0.000422	0.087022
C64	C	1.447220	0.500422	0.587022
C65	C	1.024324	0.000463	0.088151
C66	C	1.524324	0.500463	0.588151
C67	C	0.825682	0.000342	-0.034516
C68	C	1.325682	0.500342	0.465484
C69	C	0.824553	0.000330	-0.111620
C70	C	1.324553	0.500330	0.388380
N71	N	0.820227	0.319196	0.092492
N72	N	1.320227	0.819196	0.592492
C73	C	0.887321	0.000350	-0.156316
C74	C	1.387321	0.500350	0.343684
C75	C	0.886260	0.000369	-0.228763
C76	C	1.386260	0.500369	0.271237
C77	C	0.822428	0.000344	-0.256511
C78	C	1.322428	0.500344	0.243489
C79	C	0.759652	0.000331	-0.211805
C80	C	1.259652	0.500331	0.288195
C81	C	0.760714	0.000324	-0.139359
C82	C	1.260714	0.500324	0.360641
C83	C	0.772245	-0.071359	-0.364800
C84	C	1.272245	0.428641	0.135200
C85	C	0.771185	-0.071360	-0.437244
C86	C	1.271185	0.428640	0.062756
C87	C	0.819148	0.000370	-0.479956
C88	C	1.319148	0.500370	0.020044
C89	C	0.868183	0.072085	-0.450217
C90	C	1.368183	0.572085	0.049783
C91	C	0.869245	0.072078	-0.377771
C92	C	1.369245	0.572078	0.122229
C93	C	0.821269	0.000352	-0.335065
C94	C	1.321269	0.500352	0.164935
C95	C	0.880770	0.000412	-0.603209
C96	C	1.380770	0.500412	-0.103209
C97	C	0.879707	0.000438	-0.675657
C98	C	1.379707	0.500438	-0.175657
C99	C	0.753097	0.000388	-0.658697
C100	C	1.253097	0.500388	-0.158697
C101	C	0.754162	0.000374	-0.586250
C102	C	1.254162	0.500374	-0.086250
C103	C	0.818000	0.000380	-0.558511
C104	C	1.318000	0.500380	-0.058511
C105	C	0.814745	0.000396	0.219497
C106	C	1.314745	0.500396	0.719497
C107	C	0.815874	0.000415	0.296601
C108	C	1.315874	0.500415	0.796601
H109	H	0.015674	0.000479	0.203099
H110	H	0.515674	0.500479	0.703099
F111	F	0.635935	0.000233	-0.033818
F112	F	1.135935	0.500233	0.466182
H113	H	0.937375	0.000390	-0.265162
H114	H	1.437375	0.500390	0.234838
F115	F	0.258895	0.148418	-0.008708
F116	F	0.758895	0.648418	0.491292
F117	F	0.948712	0.000412	-0.573684
F118	F	1.448712	0.500412	-0.073684
F119	F	0.451382	0.000361	0.225346
F120	F	0.951382	0.500361	0.725346
H121	H	0.177866	0.000399	-0.024674
H122	H	0.677866	0.500399	0.475326
F123	F	0.691717	0.000312	-0.241336
F124	F	1.191717	0.500312	0.258664
F125	F	0.486386	0.000294	-0.036006
F126	F	0.986386	0.500294	0.463994
H127	H	0.733186	-0.129777	-0.330028
H128	H	1.233186	0.370223	0.169972
H129	H	0.374108	-0.129708	0.181437
H130	H	0.874108	0.370292	0.681437
H131	H	0.397749	0.130444	0.005472
H132	H	0.897749	0.630444	0.505472
H133	H	0.939303	0.000359	-0.133736
H134	H	1.439303	0.500359	0.366264
H135	H	0.909169	0.130474	-0.353560
H136	H	1.409169	0.630474	0.146440
H137	H	0.701123	0.000374	-0.681288
H138	H	1.201123	0.500374	-0.181288
H139	H	0.709599	0.000308	-0.102967
H140	H	1.209599	0.500308	0.397033
H141	H	0.046435	0.000518	-0.026600
H142	H	0.546435	0.500518	0.473400
H143	H	0.593987	0.000330	0.211580
H144	H	1.093987	0.500330	0.711580
F145	F	0.946517	0.000467	-0.723227
F146	F	1.446517	0.500467	-0.223227
H147	H	0.242677	-0.129670	0.179506
H148	H	0.742677	0.370330	0.679506
F149	F	0.154039	0.000460	0.220989
F150	F	0.654039	0.500460	0.720989
H151	H	0.907238	0.130495	-0.484992
H152	H	1.407238	0.630495	0.015008
H153	H	0.703049	0.000351	-0.549857
H154	H	1.203049	0.500351	-0.049857
H155	H	0.731256	-0.129748	-0.461452
H156	H	1.231256	0.370252	0.038548
