data_functionalizedCrystal
_audit_creation_method	'MofGen! by Chris Wilmer'
_symmetry_space_group_name_H-M	'P1'
_symmetry_Int_Tables_number	1
_symmetry_cell_setting	triclinic
loop_
_symmetry_equiv_pos_as_xyz
  x,y,z
_cell_length_a	15.944551
_cell_length_b	15.944493
_cell_length_c	9.730223
_cell_angle_alpha	90.004543
_cell_angle_beta	90.004286
_cell_angle_gamma	83.486891
loop_
_atom_site_label
_atom_site_type_symbol
_atom_site_fract_x
_atom_site_fract_y
_atom_site_fract_z
O1	O	1.114497	0.108331	-0.114128
O2	O	0.869944	0.121688	-0.114160
O3	O	0.998924	-0.007268	-0.114155
O4	O	0.985517	0.237288	-0.114134
O5	O	0.998923	-0.007265	0.114425
O6	O	0.869943	0.121691	0.114420
O7	O	1.114495	0.108335	0.114452
Zn8	Zn	0.992219	0.115013	0.150728
Zn9	Zn	0.992221	0.115009	-0.150436
O10	O	0.985516	0.237291	0.114446
C11	C	0.838650	0.121135	0.000125
C12	C	0.745404	0.119473	0.000112
C13	C	0.530565	0.035566	0.000131
C14	C	0.469537	0.074528	-0.112567
C15	C	0.574679	0.116465	0.000128
C16	C	0.469558	0.074550	0.112795
C17	C	0.409767	0.113555	0.000150
C18	C	0.514880	0.155449	-0.112664
C19	C	0.514907	0.155460	0.112800
C20	C	0.453897	0.194481	0.000073
C21	C	0.669681	0.118140	0.000115
C22	C	0.314766	0.111886	0.000153
C23	C	0.998375	-0.038562	0.000129
C24	C	0.996733	-0.131810	0.000111
C25	C	1.072653	-0.367570	0.000147
C26	C	1.031713	-0.418140	-0.112559
C27	C	0.993688	-0.302531	0.000128
C28	C	1.031693	-0.418113	0.112803
C29	C	0.990754	-0.467441	0.000150
C30	C	0.952769	-0.351873	-0.112672
C31	C	0.952761	-0.351842	0.112792
C32	C	0.911763	-0.402379	0.000058
C33	C	0.995381	-0.207531	0.000114
C34	C	0.989055	-0.562438	0.000154
C35	C	1.145790	0.108888	0.000163
C36	C	1.239036	0.110550	0.000167
C37	C	0.986064	0.268584	0.000159
C38	C	0.987707	0.361833	0.000168
N39	N	0.992224	0.115016	0.356264
N40	N	0.992223	0.115000	-0.355973
C41	C	1.049350	0.057933	0.428192
C42	C	1.049348	0.057923	0.572075
C43	C	0.935090	0.172086	0.572089
C44	C	0.935089	0.172091	0.428208
C45	C	1.106485	0.000858	0.356248
C46	C	1.163617	-0.056229	0.428177
C47	C	1.163615	-0.056239	0.572060
C48	C	1.106481	0.000838	0.644014
H49	H	0.563912	-0.031574	-0.000014
H50	H	0.843692	-0.417845	-0.000013
H51	H	0.919441	-0.323054	-0.208058
H52	H	0.919441	-0.322880	0.208072
H53	H	1.065061	-0.447087	-0.207836
H54	H	0.534861	0.189640	-0.208045
H55	H	1.065057	-0.447042	0.208081
H56	H	0.535030	0.189651	0.208089
H57	H	1.210130	-0.102703	0.369584
H58	H	1.106494	0.000863	0.239091
H59	H	0.420724	0.261690	0.000016
H60	H	0.888570	0.218572	0.369644
H61	H	1.210129	-0.102727	0.630622
H62	H	1.106479	0.000819	0.761173
H63	H	0.888574	0.218556	0.630683
H64	H	0.449435	0.040310	-0.207852
H65	H	1.140671	-0.351942	0.000043
H66	H	0.449478	0.040320	0.208069
