data_functionalizedCrystal
_audit_creation_method	'MofGen! by Chris Wilmer'
_symmetry_space_group_name_H-M	'P1'
_symmetry_Int_Tables_number	1
_symmetry_cell_setting	triclinic
loop_
_symmetry_equiv_pos_as_xyz
  x,y,z
_cell_length_a	15.297475
_cell_length_b	17.637651
_cell_length_c	17.639081
_cell_angle_alpha	114.332394
_cell_angle_beta	90.308788
_cell_angle_gamma	89.678268
loop_
_atom_site_label
_atom_site_type_symbol
_atom_site_fract_x
_atom_site_fract_y
_atom_site_fract_z
Zn1	Zn	1.165150	-0.381422	0.546125
Zn2	Zn	1.165116	-0.547117	0.380403
Zn3	Zn	1.046589	-0.394292	0.393404
Zn4	Zn	0.998617	-0.498175	0.497246
O5	O	1.093868	-0.455251	0.454295
O6	O	1.284444	-0.418498	0.539157
O7	O	1.169455	-0.552713	0.269314
O8	O	1.082407	-0.279765	0.439560
O9	O	1.284419	-0.540234	0.417402
O10	O	1.169513	-0.270310	0.551763
O11	O	1.082373	-0.440433	0.278866
O12	O	0.920926	-0.392976	0.392164
O13	O	1.000646	-0.456819	0.616544
O14	O	0.885682	-0.469298	0.468456
O15	O	1.122997	-0.371041	0.652455
O16	O	1.122939	-0.653444	0.370006
O17	O	1.000613	-0.617486	0.455850
C18	C	0.872371	-0.427223	0.426417
C19	C	0.777607	-0.415248	0.414505
C20	C	0.437177	-0.540848	0.539429
C21	C	0.526212	-0.552106	0.550616
C22	C	0.589065	-0.517892	0.516590
C23	C	0.562875	-0.472419	0.471373
C24	C	0.473831	-0.461165	0.460179
C25	C	0.625719	-0.438209	0.437340
C26	C	0.599528	-0.392736	0.392123
C27	C	0.510493	-0.381483	0.380931
C28	C	0.447640	-0.415697	0.414958
C29	C	0.714762	-0.449463	0.448534
C30	C	0.751416	-0.369780	0.369284
C31	C	0.662381	-0.358522	0.358097
C32	C	1.056586	-0.664717	0.406233
C33	C	1.040710	-0.754331	0.385709
C34	C	1.214985	-1.024062	0.610537
C35	C	1.200042	-1.108267	0.591234
C36	C	1.109428	-1.118253	0.474306
C37	C	1.124367	-1.034047	0.493597
C38	C	1.177145	-0.986958	0.561714
C39	C	1.086527	-0.996943	0.444774
C40	C	1.101461	-0.912744	0.464066
C41	C	1.154234	-0.865649	0.532181
C42	C	1.192079	-0.902759	0.581006
C43	C	1.033744	-1.044032	0.376660
C44	C	0.995904	-1.006928	0.327837
C45	C	1.010843	-0.922729	0.347125
C46	C	1.063616	-0.875634	0.415241
C47	C	0.972999	-0.885619	0.298300
C48	C	0.987932	-0.801420	0.317592
C49	C	1.078550	-0.791435	0.434533
C50	C	1.316229	-0.483390	0.482281
C51	C	1.410986	-0.495381	0.494208
C52	C	1.056474	-0.407035	0.664568
C53	C	1.040539	-0.386488	0.754175
C54	C	1.131315	-0.244967	0.502564
C55	C	1.147273	-0.155356	0.523134
C56	C	0.972744	-0.299076	0.885444
C57	C	0.987723	-0.318390	0.801245
C58	C	1.078394	-0.435303	0.791290
C59	C	1.063419	-0.416002	0.875489
C60	C	1.010594	-0.347887	0.922560
C61	C	1.101269	-0.464813	0.912605
C62	C	1.086299	-0.445510	0.996798
C63	C	1.033479	-0.377397	1.043875
C64	C	0.995624	-0.328585	1.006753
C65	C	1.154098	-0.532924	0.865535
C66	C	1.191948	-0.581735	0.902651
C67	C	1.176974	-0.562436	0.986844
C68	C	1.124153	-0.494323	1.033920
C69	C	1.214828	-0.611248	1.023966
C70	C	1.199858	-0.591946	1.108158
C71	C	1.109183	-0.475020	1.118113
C72	C	1.131104	-0.503294	1.244834
C73	C	1.147033	-0.523831	1.155229
H74	H	0.375139	-0.406531	0.405853
O75	O	0.946896	-0.265735	0.761216
H76	H	0.966186	-0.290593	0.694766
H77	H	0.957118	-0.771210	0.277836
O78	O	0.482247	-0.332448	0.332150
H79	H	0.409774	-0.330379	0.330075
O80	O	1.170253	-0.553750	0.774726
H81	H	1.107000	-0.567008	0.740690
H82	H	1.257845	-0.666702	0.985630
H83	H	1.230846	-1.138469	0.631007
O84	O	1.249007	-0.851959	0.654473
H85	H	1.272812	-0.891903	0.685187
H86	H	0.952606	-0.273121	1.045080
O87	O	1.271913	-0.973262	0.684004
H88	H	1.295718	-1.013206	0.714718
H89	H	1.230681	-0.631691	1.138379
O90	O	0.634138	-0.309480	0.309321
H91	H	0.660038	-0.339880	0.245027
H92	H	0.661560	-0.527061	0.525702
H93	H	0.736077	-0.486488	0.485351
H94	H	0.802592	-0.341922	0.341576
H95	H	1.021578	-1.112590	0.360962
O96	O	0.938996	-1.057722	0.254359
H97	H	0.934977	-1.122508	0.249139
H98	H	0.930020	-0.923970	0.242844
H99	H	1.066454	-1.156603	0.418847
H100	H	0.547530	-0.589133	0.587430
H101	H	1.121535	-0.753095	0.489995
H102	H	1.121406	-0.490761	0.752955
H103	H	0.929726	-0.243612	0.923771
H104	H	0.385996	-0.568706	0.567122
O105	O	1.052218	-0.401549	1.168904
H106	H	0.985714	-0.410597	1.141164
O107	O	1.170353	-0.774835	0.552988
H108	H	1.107084	-0.740804	0.566208
O109	O	1.017373	-0.356586	1.134688
H110	H	0.946230	-0.359639	1.145095
O111	O	1.248919	-0.655202	0.851881
H112	H	1.252966	-0.660429	0.787099
