data_functionalizedCrystal
_audit_creation_method	'MofGen! by Chris Wilmer'
_symmetry_space_group_name_H-M	'P1'
_symmetry_Int_Tables_number	1
_symmetry_cell_setting	triclinic
loop_
_symmetry_equiv_pos_as_xyz
  x,y,z
_cell_length_a	10.685969
_cell_length_b	10.685741
_cell_length_c	10.686551
_cell_angle_alpha	89.636396
_cell_angle_beta	90.351934
_cell_angle_gamma	99.045477
loop_
_atom_site_label
_atom_site_type_symbol
_atom_site_fract_x
_atom_site_fract_y
_atom_site_fract_z
Zn1	Zn	-2.022474	-0.610788	-0.605030
Zn2	Zn	-1.689141	-0.277455	-0.271696
Zn3	Zn	-1.355808	0.055879	0.061637
Zn4	Zn	-2.024851	-0.836885	-0.411205
Zn5	Zn	-1.691517	-0.503551	-0.077871
Zn6	Zn	-1.358184	-0.170218	0.255462
Zn7	Zn	-1.796405	-0.608406	-0.411224
Zn8	Zn	-1.463072	-0.275073	-0.077891
Zn9	Zn	-1.129739	0.058260	0.255443
Zn10	Zn	-1.828631	-0.804598	-0.634746
Zn11	Zn	-1.495298	-0.471265	-0.301413
Zn12	Zn	-1.161965	-0.137932	0.031921
O13	O	-1.918090	-0.715169	-0.515551
O14	O	-1.584757	-0.381836	-0.182218
O15	O	-1.251424	-0.048503	0.151116
O16	O	-2.199519	-0.655289	-0.566874
O17	O	-1.866185	-0.321955	-0.233540
O18	O	-1.532852	0.011378	0.099793
O19	O	-1.982055	-0.819092	-0.236546
O20	O	-1.648721	-0.485758	0.096787
O21	O	-1.315388	-0.152425	0.430120
O22	O	-1.811913	-0.431993	-0.424505
O23	O	-1.478579	-0.098659	-0.091171
O24	O	-1.145246	0.234674	0.242162
O25	O	-2.201265	-0.821401	-0.424471
O26	O	-1.867931	-0.488068	-0.091138
O27	O	-1.534598	-0.154734	0.242195
O28	O	-1.978005	-0.433743	-0.566893
O29	O	-1.644671	-0.100409	-0.233559
O30	O	-1.311338	0.232924	0.099774
O31	O	-1.814217	-0.651230	-0.236561
O32	O	-1.480883	-0.317896	0.096773
O33	O	-1.147550	0.015437	0.430106
O34	O	-1.623951	-0.619923	-0.453319
O35	O	-1.290618	-0.286590	-0.119986
O36	O	-0.957284	0.046744	0.213347
O37	O	-1.866837	-0.766374	-0.805465
O38	O	-1.533504	-0.433041	-0.472132
O39	O	-1.200171	-0.099707	-0.138798
O40	O	-1.647627	-0.764064	-0.617540
O41	O	-1.314294	-0.430731	-0.284206
O42	O	-0.980961	-0.097398	0.049127
O43	O	-2.009253	-0.623982	-0.783633
O44	O	-1.675920	-0.290649	-0.450299
O45	O	-1.342586	0.042684	-0.116966
O46	O	-2.013303	-1.009331	-0.453286
O47	O	-1.679970	-0.675998	-0.119953
O48	O	-1.346636	-0.342665	0.213380
O49	O	-1.869141	-0.985611	-0.617521
O50	O	-1.535808	-0.652277	-0.284188
O51	O	-1.202475	-0.318944	0.049146
C52	C	-1.589965	-0.688233	-0.538657
C53	C	-1.256632	-0.354899	-0.205324
C54	C	-0.923299	-0.021566	0.128010
C55	C	-1.449597	-0.676737	-0.548574
C56	C	-1.116263	-0.343404	-0.215240
C57	C	-0.782930	-0.010071	0.118093
C58	C	-1.945013	-1.043296	-0.538651
C59	C	-1.611680	-0.709962	-0.205318
C60	C	-1.278347	-0.376629	0.128016
C61	C	-1.956649	-1.183676	-0.548567
C62	C	-1.623316	-0.850343	-0.215233
C63	C	-1.289983	-0.517009	0.118100
C64	C	-1.941375	-0.691842	-0.841103
C65	C	-1.608041	-0.358509	-0.507769
C66	C	-1.274708	-0.025176	-0.174436
C67	C	-1.951297	-0.681902	-0.979833
C68	C	-1.617964	-0.348568	-0.646500
C69	C	-1.284630	-0.015235	-0.313167
C70	C	-1.247495	-0.742201	-0.492341
C71	C	-0.914162	-0.408868	-0.159007
C72	C	-0.580828	-0.075534	0.174326
C73	C	-1.387862	-0.753692	-0.482411
C74	C	-1.054529	-0.420358	-0.149078
C75	C	-0.721196	-0.087025	0.184256
C76	C	-1.891099	-0.385762	-0.492386
C77	C	-1.557765	-0.052429	-0.159053
C78	C	-1.224432	0.280904	0.174281
C79	C	-1.879597	-0.245389	-0.482514
C80	C	-1.546263	0.087944	-0.149181
C81	C	-1.212930	0.421278	0.184152
C82	C	-1.894962	-0.738320	-0.191254
C83	C	-1.561629	-0.404987	0.142079
C84	C	-1.228295	-0.071654	0.475412
C85	C	-1.885255	-0.747925	-0.052482
C86	C	-1.551922	-0.414592	0.280851
C87	C	-1.218588	-0.081259	0.614185
H88	H	-1.395064	-0.602061	-0.612812
H89	H	-1.061731	-0.268727	-0.279479
H90	H	-0.728398	0.064606	0.053854
H91	H	-1.442403	-0.828383	-0.418180
H92	H	-1.109069	-0.495050	-0.084847
H93	H	-0.775736	-0.161717	0.248487
N94	N	-2.055701	-0.255929	-0.633472
N95	N	-1.722368	0.077404	-0.300139
N96	N	-1.389035	0.410737	0.033195
H97	H	-2.050158	-0.349329	-0.628723
H98	H	-1.716825	-0.015996	-0.295390
H99	H	-1.383491	0.317337	0.037943
H100	H	-2.040560	-0.224941	-0.722400
H101	H	-1.707226	0.108392	-0.389067
H102	H	-1.373893	0.441726	-0.055734
H103	H	-1.804827	-0.190829	-0.418403
H104	H	-1.471494	0.142504	-0.085070
H105	H	-1.138160	0.475837	0.248263
H106	H	-1.821126	-0.812060	-1.008547
H107	H	-1.487793	-0.478726	-0.675213
H108	H	-1.154460	-0.145393	-0.341880
H109	H	-2.015439	-0.617773	-1.023775
H110	H	-1.682106	-0.284439	-0.690441
H111	H	-1.348773	0.048894	-0.357108
