data_functionalizedCrystal
_audit_creation_method	'MofGen! by Chris Wilmer'
_symmetry_space_group_name_H-M	'P1'
_symmetry_Int_Tables_number	1
_symmetry_cell_setting	triclinic
loop_
_symmetry_equiv_pos_as_xyz
  x,y,z
_cell_length_a	29.839135
_cell_length_b	21.395362
_cell_length_c	21.395355
_cell_angle_alpha	89.980094
_cell_angle_beta	89.972219
_cell_angle_gamma	90.030029
loop_
_atom_site_label
_atom_site_type_symbol
_atom_site_fract_x
_atom_site_fract_y
_atom_site_fract_z
Zn1	Zn	0.686818	-0.249469	-0.354309
Zn2	Zn	1.186818	0.250531	0.145691
Zn3	Zn	0.686752	-0.354229	-0.249529
Zn4	Zn	1.186752	0.145771	0.250471
Zn5	Zn	0.611684	-0.249474	-0.249540
Zn6	Zn	1.111684	0.250526	0.250460
Zn7	Zn	0.611666	-0.354217	-0.354264
Zn8	Zn	1.111666	0.145783	0.145736
O9	O	0.649230	-0.301847	-0.301911
O10	O	1.149230	0.198153	0.198089
O11	O	0.749676	-0.263368	-0.340425
O12	O	1.249676	0.236632	0.159575
O13	O	0.676774	-0.340339	-0.161853
O14	O	1.176774	0.159661	0.338147
O15	O	0.621686	-0.161795	-0.263462
O16	O	1.121686	0.338205	0.236538
O17	O	0.749628	-0.340335	-0.263443
O18	O	1.249628	0.159665	0.236557
O19	O	0.676886	-0.161792	-0.340435
O20	O	1.176886	0.338208	0.159565
O21	O	0.621622	-0.263376	-0.161861
O22	O	1.121622	0.236624	0.338139
O23	O	0.548815	-0.263365	-0.263417
O24	O	1.048815	0.236635	0.236583
O25	O	0.621655	-0.340315	-0.441948
O26	O	1.121655	0.159685	0.058052
O27	O	0.548802	-0.340320	-0.340357
O28	O	1.048802	0.159680	0.159643
O29	O	0.676869	-0.263357	-0.441981
O30	O	1.176869	0.236643	0.058019
O31	O	0.676757	-0.441905	-0.263399
O32	O	1.176757	0.058095	0.236601
O33	O	0.621592	-0.441897	-0.340347
O34	O	1.121592	0.058103	0.159653
C35	C	0.649177	-0.464635	-0.301880
C36	C	1.149177	0.035365	0.198120
C37	C	0.649196	-0.534276	-0.301888
C38	C	1.149196	-0.034276	0.198112
C39	C	0.532507	-0.301842	-0.301884
C40	C	1.032507	0.198158	0.198116
C41	C	0.482573	-0.301855	-0.301887
C42	C	0.982573	0.198145	0.198113
C43	C	0.678063	-1.036056	-0.261946
C44	C	1.178063	-0.536056	0.238054
C45	C	0.678046	-0.970620	-0.261931
C46	C	1.178046	-0.470620	0.238069
C47	C	0.649294	-0.937914	-0.301955
C48	C	1.149294	-0.437914	0.198045
C49	C	0.620549	-0.970649	-0.341986
C50	C	1.120549	-0.470649	0.158014
C51	C	0.620563	-1.036083	-0.341995
C52	C	1.120563	-0.536083	0.158005
C53	C	0.645703	-0.834224	-0.358386
C54	C	1.145703	-0.334224	0.141614
C55	C	0.645691	-0.768791	-0.358378
C56	C	1.145691	-0.268791	0.141622
C57	C	0.649246	-0.736093	-0.301927
C58	C	1.149246	-0.236093	0.198073
C59	C	0.652821	-0.768837	-0.245483
C60	C	1.152821	-0.268837	0.254517
C61	C	0.652836	-0.834271	-0.245492
C62	C	1.152836	-0.334271	0.254508
C63	C	0.649274	-0.866962	-0.301950
C64	C	1.149274	-0.366962	0.198050
C65	C	0.677969	-0.632414	-0.261880
C66	C	1.177969	-0.132414	0.238120
C67	C	0.677948	-0.566977	-0.261864
C68	C	1.177948	-0.066977	0.238136
C69	C	0.620454	-0.567007	-0.341925
C70	C	1.120454	-0.067007	0.158075
C71	C	0.620472	-0.632443	-0.341935
C72	C	1.120472	-0.132443	0.158065
C73	C	0.649231	-0.665142	-0.301913
C74	C	1.149231	-0.165142	0.198087
C75	C	0.172952	-0.261831	-0.342054
C76	C	0.672952	0.238169	0.157946
C77	C	-0.014721	-0.261836	-0.342072
C78	C	0.485279	0.238164	0.157928
O79	O	-0.038967	-0.227791	-0.376193
O80	O	0.461033	0.272209	0.123807
N81	N	-0.038212	-0.301848	-0.301934
N82	N	0.461788	0.198152	0.198066
C83	C	-0.014782	-0.341859	-0.261785
C84	C	0.485218	0.158141	0.238215
O85	O	-0.039068	-0.375887	-0.227641
O86	O	0.460932	0.124113	0.272359
C87	C	0.172890	-0.341851	-0.261765
C88	C	0.672890	0.158149	0.238235
C89	C	0.196379	-0.301840	-0.301910
C90	C	0.696379	0.198160	0.198090
C91	C	0.196440	-0.221824	-0.382195
C92	C	0.696440	0.278176	0.117805
C93	C	0.243356	-0.221825	-0.382193
C94	C	0.743356	0.278175	0.117807
C95	C	0.266783	-0.261835	-0.342049
C96	C	0.766783	0.238165	0.157951
C97	C	0.243294	-0.301842	-0.301908
C98	C	0.743294	0.198158	0.198092
C99	C	0.196320	-0.381858	-0.221614
C100	C	0.696320	0.118142	0.278386
C101	C	0.243241	-0.381851	-0.221611
C102	C	0.743241	0.118149	0.278389
C103	C	0.266729	-0.341841	-0.261756
C104	C	0.766729	0.158159	0.238244
C105	C	0.313637	-0.341853	-0.261761
C106	C	0.813637	0.158147	0.238239
N107	N	0.337128	-0.301841	-0.301899
N108	N	0.837128	0.198159	0.198101
C109	C	0.313701	-0.261832	-0.342043
C110	C	0.813701	0.238168	0.157957
C111	C	-0.113312	-0.341861	-0.261800
C112	C	0.386688	0.158139	0.238200
C113	C	-0.160230	-0.341864	-0.261806
C114	C	0.339770	0.158136	0.238194
C115	C	-0.160166	-0.261840	-0.342091
C116	C	0.339834	0.238160	0.157909
C117	C	-0.113248	-0.261840	-0.342088
C118	C	0.386752	0.238160	0.157912
C119	C	-0.089822	-0.301849	-0.301938
C120	C	0.410178	0.198151	0.198062
C121	C	0.412226	-0.261839	-0.342035
C122	C	0.912226	0.238161	0.157965
C123	C	0.459146	-0.261846	-0.342031
C124	C	0.959146	0.238154	0.157969
C125	C	0.459078	-0.341867	-0.261743
C126	C	0.959078	0.158133	0.238257
C127	C	0.412163	-0.341863	-0.261750
C128	C	0.912163	0.158137	0.238250
C129	C	0.388738	-0.301844	-0.301898
C130	C	0.888738	0.198156	0.198102
O131	O	0.337912	-0.375874	-0.227653
O132	O	0.837912	0.124126	0.272347
O133	O	0.337995	-0.227799	-0.376172
O134	O	0.837995	0.272201	0.123828
C135	C	0.126036	-0.261829	-0.342056
C136	C	0.626036	0.238171	0.157944
C137	C	0.102548	-0.301837	-0.301915
C138	C	0.602548	0.198163	0.198085
C139	C	0.125975	-0.341846	-0.261771
C140	C	0.625975	0.158154	0.238229
C141	C	0.055630	-0.301840	-0.301921
C142	C	0.555630	0.198160	0.198079
C143	C	0.032203	-0.261831	-0.342065
C144	C	0.532203	0.238169	0.157935
C145	C	0.055694	-0.221819	-0.382203
C146	C	0.555694	0.278181	0.117797
C147	C	0.102609	-0.221820	-0.382200
C148	C	0.602609	0.278180	0.117800
C149	C	0.102484	-0.381858	-0.221633
C150	C	0.602484	0.118142	0.278367
C151	C	0.055569	-0.381854	-0.221639
C152	C	0.555569	0.118146	0.278361
C153	C	0.032142	-0.341845	-0.261783
C154	C	0.532142	0.158155	0.238217
C155	C	0.766408	-0.301852	-0.301938
C156	C	1.266408	0.198148	0.198062
C157	C	0.816343	-0.301855	-0.301949
C158	C	1.316343	0.198145	0.198051
C159	C	0.649267	-0.301834	-0.465334
C160	C	1.149267	0.198166	0.034666
C161	C	0.649283	-0.301829	-0.534975
C162	C	1.149283	0.198171	-0.034975
C163	C	0.649295	-0.138424	-0.301955
C164	C	1.149295	0.361576	0.198045
C165	C	0.649323	-0.068782	-0.301974
C166	C	1.149323	0.431218	0.198026
C167	C	0.678032	-0.261755	-0.567707
C168	C	1.178032	0.238245	-0.067707
C169	C	0.678031	-0.261728	-0.633142
C170	C	1.178031	0.238272	-0.133142
C171	C	0.649287	-0.301786	-0.665844
C172	C	1.149287	0.198214	-0.165844
C173	C	0.620533	-0.341863	-0.633104
C174	C	1.120533	0.158137	-0.133104
C175	C	0.620531	-0.341884	-0.567670
C176	C	1.120531	0.158116	-0.067670
C177	C	0.645721	-0.358202	-0.769508
C178	C	1.145721	0.141798	-0.269508
C179	C	0.645726	-0.358181	-0.834941
C180	C	1.145726	0.141819	-0.334941
C181	C	0.649290	-0.301720	-0.867664
C182	C	1.149290	0.198280	-0.367664
C183	C	0.652858	-0.245277	-0.834947
C184	C	1.152858	0.254723	-0.334947
C185	C	0.652856	-0.245298	-0.769513
C186	C	1.152856	0.254702	-0.269513
C187	C	0.649285	-0.301767	-0.736796
C188	C	1.149285	0.198233	-0.236796
C189	C	0.678039	-0.261614	-0.971349
C190	C	1.178039	0.238386	-0.471349
C191	C	0.678035	-0.261586	-1.036785
C192	C	1.178035	0.238414	-0.536785
C193	C	0.620539	-0.341726	-1.036746
C194	C	1.120539	0.158274	-0.536746
C195	C	0.620541	-0.341748	-0.971310
C196	C	1.120541	0.158252	-0.471310
C197	C	0.649293	-0.301693	-0.938616
C198	C	1.149293	0.198307	-0.438616
C199	C	0.649219	-0.301814	-0.139123
C200	C	1.149219	0.198186	0.360877
C201	C	0.649290	-0.301643	-0.069482
C202	C	1.149290	0.198357	0.430518
H203	H	0.701480	-1.062675	-0.229355
H204	H	1.201480	-0.562675	0.270645
H205	H	0.177204	-0.414438	-0.188922
H206	H	0.677204	0.085562	0.311078
Br207	Br	0.275226	-0.167521	-0.436677
Br208	Br	0.775226	0.332479	0.063323
H209	H	0.597119	-0.374516	-0.541020
H210	H	1.097119	0.125484	-0.041020
Br211	Br	0.717038	-0.207323	-0.677574
Br212	Br	1.217038	0.292677	-0.177574
Br213	Br	0.717057	-0.207253	-0.926974
Br214	Br	1.217057	0.292747	-0.426974
H215	H	0.642783	-0.742134	-0.404336
H216	H	1.142783	-0.242134	0.095664
Br217	Br	0.717061	-0.207204	-1.081209
Br218	Br	1.217061	0.292796	-0.581209
Br219	Br	0.640807	-0.878592	-0.434995
Br220	Br	1.140807	-0.378592	0.065005
H221	H	0.701450	-0.943969	-0.229334
H222	H	1.201450	-0.443969	0.270666
H223	H	0.655746	-0.860929	-0.199533
H224	H	1.155746	-0.360929	0.300467
H225	H	0.597131	-0.374336	-1.063371
H226	H	1.097131	0.125664	-0.563371
Br227	Br	-0.081526	-0.396156	-0.207297
Br228	Br	0.418474	0.103844	0.292703
Br229	Br	0.275031	-0.436152	-0.167118
Br230	Br	0.775031	0.063848	0.332882
H231	H	0.597160	-1.062729	-0.374593
H232	H	1.097160	-0.562729	0.125407
H233	H	0.597042	-0.540379	-0.374511
H234	H	1.097042	-0.040379	0.125489
H235	H	0.655760	-0.199341	-0.742878
H236	H	1.155760	0.300659	-0.242878
H237	H	0.642823	-0.404141	-0.861574
H238	H	1.142823	0.095859	-0.361574
Br239	Br	0.657698	-0.168645	-0.879350
Br240	Br	1.157698	0.331355	-0.379350
H241	H	0.597133	-0.374384	-0.944660
H242	H	1.097133	0.125616	-0.444660
Br243	Br	0.657649	-0.724471	-0.168866
Br244	Br	1.157649	-0.224471	0.331134
H245	H	0.393037	-0.374450	-0.229067
H246	H	0.893037	0.125550	0.270933
Br247	Br	0.716996	-0.676796	-0.207563
Br248	Br	1.216996	-0.176796	0.292437
H249	H	0.597138	-0.944016	-0.374574
H250	H	1.097138	-0.444016	0.125426
H251	H	0.597128	-0.374476	-0.659734
H252	H	1.097128	0.125524	-0.159734
Br253	Br	-0.192101	-0.396173	-0.207328
Br254	Br	0.307899	0.103827	0.292672
Br255	Br	0.717050	-0.207392	-0.523338
Br256	Br	1.217050	0.292608	-0.023338
H257	H	0.177371	-0.189240	-0.414885
H258	H	0.677371	0.310760	0.085115
Br259	Br	-0.081376	-0.207539	-0.396572
Br260	Br	0.418624	0.292461	0.103428
Br261	Br	0.640898	-0.434837	-0.725103
Br262	Br	1.140898	0.065163	-0.225103
H263	H	0.393160	-0.229249	-0.374726
H264	H	0.893160	0.270751	0.125274
Br265	Br	0.716955	-0.522561	-0.207534
Br266	Br	1.216955	-0.022561	0.292466
Br267	Br	0.023891	-0.167524	-0.436687
Br268	Br	0.523891	0.332476	0.063313
H269	H	0.478268	-0.229264	-0.374724
H270	H	0.978268	0.270736	0.125276
Br271	Br	0.581470	-0.676861	-0.396268
Br272	Br	1.081470	-0.176861	0.103732
Br273	Br	-0.191969	-0.207541	-0.396571
Br274	Br	0.308031	0.292459	0.103429
Br275	Br	0.490881	-0.396165	-0.207266
Br276	Br	0.990881	0.103835	0.292734
H277	H	0.121729	-0.189239	-0.414890
H278	H	0.621729	0.310761	0.085110
Br279	Br	0.023697	-0.436159	-0.167151
Br280	Br	0.523697	0.063841	0.332849
H281	H	0.121554	-0.414438	-0.188941
H282	H	0.621554	0.085562	0.311059
