data_functionalizedCrystal
_audit_creation_method	'MofGen! by Chris Wilmer'
_symmetry_space_group_name_H-M	'P1'
_symmetry_Int_Tables_number	1
_symmetry_cell_setting	triclinic
loop_
_symmetry_equiv_pos_as_xyz
  x,y,z
_cell_length_a	16.120484
_cell_length_b	16.120542
_cell_length_c	18.215399
_cell_angle_alpha	87.082098
_cell_angle_beta	87.130211
_cell_angle_gamma	89.836765
loop_
_atom_site_label
_atom_site_type_symbol
_atom_site_fract_x
_atom_site_fract_y
_atom_site_fract_z
Zn1	Zn	-0.395705	-1.254473	0.489917
Zn2	Zn	-0.534763	-1.247316	0.372750
Zn3	Zn	-0.388660	-1.115413	0.360330
Zn4	Zn	-0.527648	-1.108325	0.489241
O5	O	-0.461694	-1.181382	0.428060
O6	O	-0.420077	-1.369889	0.479856
O7	O	-0.515411	-1.229790	0.268118
O8	O	-0.273232	-1.139820	0.372606
O9	O	-0.522242	-1.364631	0.393773
O10	O	-0.278408	-1.241987	0.467813
O11	O	-0.408070	-1.132881	0.258994
O12	O	-0.401171	-0.998107	0.371950
O13	O	-0.510116	-1.127740	0.592315
O14	O	-0.503285	-0.992899	0.466659
O15	O	-0.413178	-1.235115	0.592812
O16	O	-0.650182	-1.222917	0.393117
O17	O	-0.644954	-1.120801	0.478702
C18	C	-0.450692	-0.965331	0.417884
C19	C	-0.446005	-0.872902	0.413549
C20	C	-0.485980	-0.659933	0.450504
C21	C	-0.437456	-0.703679	0.405634
C22	C	-0.442214	-0.797844	0.410039
C23	C	-0.481223	-0.565760	0.446100
C24	C	-0.677741	-1.170336	0.437201
C25	C	-0.770170	-1.165687	0.441140
C26	C	-0.939401	-1.157204	0.448347
C27	C	-0.983154	-1.205709	0.407791
C28	C	-1.077320	-1.200988	0.411801
C29	C	-0.845226	-1.161923	0.444338
C30	C	-0.244805	-1.192493	0.418899
C31	C	-0.152379	-1.197228	0.414996
C32	C	-0.461639	-1.181435	0.620012
C33	C	-0.461616	-1.181458	0.701811
C34	C	-0.472735	-0.398276	0.438265
C35	C	-0.477429	-0.490704	0.442587
C36	C	-0.461691	-1.181379	0.236853
C37	C	-0.461488	-1.181529	0.155052
C38	C	-0.411092	-1.237389	0.890264
C39	C	-0.411068	-1.237400	0.967122
C40	C	-0.512014	-1.125592	0.966594
C41	C	-0.512033	-1.125577	0.889737
C42	C	-0.461573	-1.181481	0.851574
C43	C	-0.461531	-1.181506	1.005289
C44	C	-0.461505	-1.181518	1.088623
C45	C	-0.461597	-1.181468	0.768236
H46	H	-0.531093	-0.693198	0.492224
C47	C	-0.366294	-1.287013	0.772682
C48	C	-0.355618	-1.298828	0.848313
H49	H	-0.332046	-1.324946	0.746787
H50	H	-0.351287	-1.231767	0.756943
H51	H	-0.422788	-1.296328	0.763024
H52	H	-0.299125	-1.289508	0.857972
H53	H	-0.370619	-1.354087	0.864058
C54	C	-0.852311	-1.259500	0.362675
C55	C	-0.938257	-1.266546	0.356843
H56	H	-0.824593	-1.297051	0.331217
H57	H	-0.838694	-1.272348	0.412100
H58	H	-0.835357	-1.204323	0.348650
H59	H	-0.955212	-1.321722	0.370873
H60	H	-0.951880	-1.253704	0.307407
C61	C	-0.517916	-1.013111	0.798517
C62	C	-0.567527	-1.064117	0.847204
H63	H	-0.552174	-0.975166	0.772263
H64	H	-0.487873	-1.046399	0.764794
H65	H	-0.480065	-0.983166	0.825481
H66	H	-0.605375	-1.094067	0.820240
H67	H	-0.597585	-1.030825	0.880932
C68	C	-0.383614	-0.572829	0.355747
C69	C	-0.376583	-0.658774	0.349278
H70	H	-0.346048	-0.545106	0.320945
H71	H	-0.370780	-0.559277	0.404032
H72	H	-0.438782	-0.555818	0.346639
H73	H	-0.321417	-0.675786	0.358392
H74	H	-0.389412	-0.672333	0.300982
C75	C	-1.070241	-1.103396	0.493431
C76	C	-0.984296	-1.096353	0.499276
H77	H	-1.097963	-1.065824	0.524867
H78	H	-1.087202	-1.158559	0.507470
H79	H	-1.083846	-1.090567	0.443993
H80	H	-0.970691	-1.109188	0.548713
H81	H	-0.967329	-1.041178	0.485241
H82	H	-0.369959	-1.282926	0.998621
C83	C	-0.556813	-1.075972	1.084177
C84	C	-0.567485	-1.064151	1.008545
H85	H	-0.591065	-1.038044	1.110074
H86	H	-0.500327	-1.066662	1.093838
H87	H	-0.571824	-1.131226	1.099913
H88	H	-0.552468	-1.008899	0.992808
H89	H	-0.623983	-1.073455	0.998880
