data_functionalizedCrystal
_audit_creation_method	'MofGen! by Chris Wilmer'
_symmetry_space_group_name_H-M	'P1'
_symmetry_Int_Tables_number	1
_symmetry_cell_setting	triclinic
loop_
_symmetry_equiv_pos_as_xyz
  x,y,z
_cell_length_a	6.817900
_cell_length_b	7.190334
_cell_length_c	11.102288
_cell_angle_alpha	92.055824
_cell_angle_beta	108.605689
_cell_angle_gamma	60.611776
loop_
_atom_site_label
_atom_site_type_symbol
_atom_site_fract_x
_atom_site_fract_y
_atom_site_fract_z
V1	V	-4.248760	0.665001	-0.173812
O2	O	-4.205180	0.652342	0.010438
O3	O	-4.224598	0.660453	-0.346646
O4	O	-4.285391	0.955031	-0.170223
O5	O	-4.143966	0.355725	-0.167206
V6	V	-4.718229	0.628009	-0.151882
O7	O	-4.540847	0.746146	-0.221918
O8	O	-4.876339	0.546864	-0.103776
O9	O	-4.519184	0.632557	0.020952
O10	O	-4.879206	0.640668	-0.336132
O11	O	-4.940419	0.937285	-0.158488
O12	O	-4.458391	0.337979	-0.155471
C13	C	-4.072745	0.649962	-0.388808
C14	C	-4.134843	0.648177	-0.530096
C15	C	-4.350221	0.657979	-0.602915
C16	C	-4.408566	0.656319	-0.735671
C17	C	-4.036130	0.635044	-0.722778
C18	C	-3.977796	0.636721	-0.590025
C19	C	-4.150302	1.025723	-0.163757
C20	C	-4.263788	1.267279	-0.161931
C21	C	-4.334379	0.643042	0.063108
C22	C	-4.251523	0.644841	0.204395
H23	H	-3.908273	0.625712	-0.771588
N24	N	-4.640805	0.666769	-0.814197
H25	H	-4.653926	0.663944	-0.907388
H26	H	-4.780321	0.804506	-0.805762
N27	N	-4.519606	0.670355	-0.538275
H28	H	-4.664905	0.676321	-0.604556
H29	H	-4.571842	0.804350	-0.495415
N30	N	-3.745485	0.626166	-0.511486
H31	H	-3.605884	0.488396	-0.519828
H32	H	-3.732585	0.629070	-0.418331
