data_functionalizedCrystal
_audit_creation_method	'MofGen! by Chris Wilmer'
_symmetry_space_group_name_H-M	'P1'
_symmetry_Int_Tables_number	1
_symmetry_cell_setting	triclinic
loop_
_symmetry_equiv_pos_as_xyz
  x,y,z
_cell_length_a	10.654556
_cell_length_b	16.109301
_cell_length_c	15.186229
_cell_angle_alpha	89.986381
_cell_angle_beta	89.991087
_cell_angle_gamma	83.974445
loop_
_atom_site_label
_atom_site_type_symbol
_atom_site_fract_x
_atom_site_fract_y
_atom_site_fract_z
O1	O	1.666258	0.116807	-0.073241
O2	O	1.300630	0.127927	-0.073241
O3	O	1.493488	0.001396	-0.073232
O4	O	1.473400	0.243338	-0.073250
O5	O	1.493460	0.001374	0.073226
O6	O	1.300601	0.127906	0.073217
O7	O	1.666230	0.116786	0.073217
Zn8	Zn	1.483411	0.122342	0.096470
Zn9	Zn	1.483449	0.122370	-0.096494
O10	O	1.473371	0.243317	0.073208
C11	C	1.253829	0.127099	-0.000012
C12	C	1.114419	0.124653	-0.000012
C13	C	0.917951	0.121222	-0.079853
C14	C	1.048942	0.123516	-0.079849
C15	C	1.048900	0.123488	0.079827
C16	C	0.917912	0.121188	0.079822
C17	C	0.917976	0.121242	-0.172040
C18	C	1.048967	0.123535	-0.172037
C19	C	1.492660	-0.029595	-0.000003
C20	C	1.490221	-0.121905	-0.000001
C21	C	1.598986	-0.343529	-0.000015
C22	C	1.596684	-0.430263	-0.000023
C23	C	1.367864	-0.411752	-0.000019
C24	C	1.370168	-0.325020	-0.000018
C25	C	1.485732	-0.290911	-0.000012
C26	C	1.481127	-0.464377	-0.000020
C27	C	1.478630	-0.558418	-0.000028
C28	C	1.488230	-0.196864	-0.000006
C29	C	1.713031	0.117614	-0.000014
C30	C	1.852440	0.120060	-0.000020
C31	C	1.474199	0.274307	-0.000023
C32	C	1.476639	0.366617	-0.000030
N33	N	1.483394	0.122323	0.228163
C34	C	1.407290	0.071465	0.546119
C35	C	1.407281	0.071454	0.453929
C36	C	1.559572	0.173240	0.453864
C37	C	1.559587	0.173247	0.546052
C38	C	1.483439	0.122361	0.592177
C39	C	1.483415	0.122342	0.407799
C40	C	1.483405	0.122330	0.307843
C41	C	1.483450	0.122372	0.692139
N42	N	1.483459	0.122381	0.771813
H43	H	1.101483	0.064327	-0.200638
Cl44	Cl	0.835560	0.119721	0.180187
H45	H	1.621567	0.214670	0.416298
H46	H	1.273776	-0.439535	-0.000023
Cl47	Cl	0.880879	0.030622	-0.226685
Cl48	Cl	1.311568	0.007491	0.604101
Cl49	Cl	1.311540	0.007472	0.396031
H50	H	1.693086	-0.315760	-0.000012
Cl51	Cl	1.655331	0.237231	0.603958
Cl52	Cl	1.227779	-0.258866	-0.000022
Cl53	Cl	1.131215	0.124908	0.180194
Cl54	Cl	0.836906	0.212662	-0.216211
H55	H	1.688907	-0.473102	-0.000027
Cl56	Cl	1.086100	0.214176	-0.226681
