data_functionalizedCrystal
_audit_creation_method	'MofGen! by Chris Wilmer'
_symmetry_space_group_name_H-M	'P1'
_symmetry_Int_Tables_number	1
_symmetry_cell_setting	triclinic
loop_
_symmetry_equiv_pos_as_xyz
  x,y,z
_cell_length_a	14.971482
_cell_length_b	14.044220
_cell_length_c	14.048226
_cell_angle_alpha	89.992807
_cell_angle_beta	89.994098
_cell_angle_gamma	88.400743
loop_
_atom_site_label
_atom_site_type_symbol
_atom_site_fract_x
_atom_site_fract_y
_atom_site_fract_z
O1	O	1.196680	0.123521	-0.079151
O2	O	1.530013	0.456854	0.254182
O3	O	1.863346	0.790188	0.587516
O4	O	0.937445	0.138318	-0.079156
O5	O	1.270778	0.471652	0.254177
O6	O	1.604112	0.804985	0.587511
O7	O	1.063171	-0.007069	-0.079144
O8	O	1.396505	0.326264	0.254189
O9	O	1.729838	0.659597	0.587523
O10	O	1.070953	0.268909	-0.079163
O11	O	1.404287	0.602242	0.254171
O12	O	1.737620	0.935575	0.587504
O13	O	1.063154	-0.007078	0.079177
O14	O	1.396487	0.326255	0.412511
O15	O	1.729821	0.659589	0.745844
O16	O	0.937428	0.138310	0.079165
O17	O	1.270761	0.471643	0.412499
O18	O	1.604094	0.804976	0.745832
O19	O	1.196663	0.123512	0.079170
O20	O	1.529996	0.456846	0.412504
O21	O	1.863329	0.790179	0.745837
Zn22	Zn	1.067042	0.130910	0.104305
Zn23	Zn	1.400376	0.464243	0.437638
Zn24	Zn	1.733709	0.797576	0.770972
Zn25	Zn	1.067065	0.130921	-0.104290
Zn26	Zn	1.400398	0.464254	0.229043
Zn27	Zn	1.733732	0.797588	0.562376
O28	O	1.070936	0.268900	0.079159
O29	O	1.404270	0.602233	0.412492
O30	O	1.737603	0.935567	0.745825
C31	C	0.904059	0.137653	0.000004
C32	C	1.237393	0.470986	0.333338
C33	C	1.570726	0.804320	0.666671
C34	C	0.804606	0.135672	0.000003
C35	C	1.137939	0.469005	0.333336
C36	C	1.471273	0.802338	0.666669
C37	C	0.757879	0.134734	0.086305
C38	C	1.091212	0.468067	0.419638
C39	C	1.424545	0.801401	0.752971
C40	C	0.664432	0.132857	0.086306
C41	C	0.997766	0.466191	0.419639
C42	C	1.331099	0.799524	0.752973
C43	C	0.617715	0.131925	0.000004
C44	C	0.951048	0.465258	0.333337
C45	C	1.284382	0.798592	0.666671
C46	C	0.664449	0.132860	-0.086305
C47	C	0.997782	0.466194	0.247029
C48	C	1.331116	0.799527	0.580362
C49	C	0.757894	0.134730	-0.086305
C50	C	1.091227	0.468063	0.247028
C51	C	1.424561	0.801397	0.580362
C52	C	0.469680	0.128965	-0.086298
C53	C	0.803014	0.462298	0.247035
C54	C	1.136347	0.795632	0.580368
C55	C	0.376229	0.127097	-0.086299
C56	C	0.709562	0.460430	0.247035
C57	C	1.042896	0.793763	0.580368
C58	C	0.376219	0.127092	0.086312
C59	C	0.709552	0.460425	0.419646
C60	C	1.042885	0.793759	0.752979
C61	C	0.469664	0.128962	0.086312
C62	C	0.802997	0.462295	0.419646
C63	C	1.136330	0.795629	0.752979
C64	C	0.516391	0.129899	0.000003
C65	C	0.849725	0.463232	0.333337
C66	C	1.183058	0.796565	0.666670
C67	C	1.059756	-0.042392	0.000017
C68	C	1.393089	0.290941	0.333350
C69	C	1.726423	0.624275	0.666684
C70	C	1.049595	-0.147629	0.000018
C71	C	1.382928	0.185704	0.333351
C72	C	1.716262	0.519038	0.666685
C73	C	1.031018	-0.340311	0.000004
C74	C	1.364352	-0.006978	0.333337
C75	C	1.697685	0.326356	0.666671
C76	C	1.103085	-0.397864	0.000002
C77	C	1.436419	-0.064530	0.333336
C78	C	1.769752	0.268803	0.666669
C79	C	1.092749	-0.505079	-0.000005
C80	C	1.426082	-0.171745	0.333328
C81	C	1.759416	0.161588	0.666661
C82	C	1.041353	-0.233086	0.000012
C83	C	1.374687	0.100247	0.333345
C84	C	1.708020	0.433581	0.666678
C85	C	1.230048	0.124178	0.000008
C86	C	1.563381	0.457511	0.333341
C87	C	1.896715	0.790844	0.666675
C88	C	1.329501	0.126159	0.000003
C89	C	1.662835	0.459492	0.333337
C90	C	1.996168	0.792826	0.666670
C91	C	1.074351	0.304223	-0.000005
C92	C	1.407685	0.637556	0.333329
C93	C	1.741018	0.970889	0.666662
C94	C	1.084513	0.409460	-0.000012
C95	C	1.417846	0.742793	0.333322
C96	C	1.751179	1.076126	0.666655
N97	N	1.067033	0.130901	0.246666
N98	N	1.400367	0.464235	0.579999
N99	N	1.733700	0.797568	0.913332
N100	N	1.067081	0.130922	-0.246651
N101	N	1.400414	0.464255	0.086682
N102	N	1.733747	0.797588	0.420016
C103	C	1.122726	0.066550	0.296489
C104	C	1.456060	0.399884	0.629822
C105	C	1.789393	0.733217	0.963155
C106	C	1.122732	0.066550	0.396146
C107	C	1.456066	0.399883	0.729480
C108	C	1.789399	0.733216	1.062813
C109	C	1.067049	0.130906	0.445979
C110	C	1.400383	0.464239	0.779312
C111	C	1.733716	0.797572	1.112646
C112	C	1.011350	0.195260	0.396149
C113	C	1.344684	0.528593	0.729482
C114	C	1.678017	0.861926	1.062815
C115	C	1.011340	0.195255	0.296493
C116	C	1.344674	0.528588	0.629826
C117	C	1.678007	0.861922	0.963160
C118	C	1.011377	0.195267	0.603863
C119	C	1.344710	0.528600	0.937196
C120	C	1.678043	0.861933	1.270530
C121	C	1.011388	0.195273	0.703526
C122	C	1.344721	0.528606	1.036859
C123	C	1.678054	0.861940	1.370192
C124	C	1.122769	0.066561	0.703517
C125	C	1.456102	0.399895	1.036850
C126	C	1.789435	0.733228	1.370183
C127	C	1.122759	0.066557	0.603861
C128	C	1.456092	0.399890	0.937194
C129	C	1.789425	0.733223	1.270527
C130	C	1.067061	0.130912	0.554037
C131	C	1.400394	0.464246	0.887371
C132	C	1.733727	0.797579	1.220704
H133	H	0.795909	0.135501	0.156582
H134	H	1.129242	0.468834	0.489915
H135	H	1.462576	0.802167	0.823249
C136	C	0.521078	0.130000	-0.181243
C137	C	0.854412	0.463334	0.152090
C138	C	1.187745	0.796667	0.485423
N139	N	0.559791	0.130787	-0.252755
N140	N	0.893124	0.464121	0.080579
N141	N	1.226458	0.797454	0.413912
H142	H	0.966008	0.247656	0.436728
H143	H	1.299341	0.580990	0.770062
H144	H	1.632674	0.914323	1.103395
H145	H	1.172547	-0.366615	-0.000060
H146	H	1.505880	-0.033282	0.333273
H147	H	1.839213	0.300052	0.666606
H148	H	0.338194	0.126339	-0.156573
H149	H	0.671527	0.459672	0.176760
H150	H	1.004861	0.793005	0.510094
C151	C	0.950082	0.266054	0.241688
C152	C	1.283415	0.599387	0.575021
C153	C	1.616748	0.932720	0.908355
N154	N	0.903940	0.319382	0.200410
N155	N	1.237273	0.652716	0.533743
N156	N	1.570607	0.986049	0.867077
H157	H	0.961562	-0.371558	0.000000
H158	H	1.294896	-0.038225	0.333334
H159	H	1.628229	0.295108	0.666667
C160	C	1.183982	-0.004248	0.241682
C161	C	1.517316	0.329085	0.575016
C162	C	1.850649	0.662419	0.908349
N163	N	1.230119	-0.057578	0.200405
N164	N	1.563453	0.275755	0.533738
N165	N	1.896786	0.609088	0.867071
C166	C	1.183976	-0.004264	0.450948
C167	C	1.517309	0.329069	0.784281
C168	C	1.850642	0.662402	1.117614
N169	N	1.230098	-0.057614	0.492223
N170	N	1.563431	0.275720	0.825556
N171	N	1.896765	0.609053	1.158890
H172	H	0.338169	0.126330	0.156588
H173	H	0.671502	0.459663	0.489922
H174	H	1.004835	0.792996	0.823255
H175	H	0.626392	0.132078	0.156582
H176	H	0.959725	0.465411	0.489915
H177	H	1.293058	0.798744	0.823248
H178	H	0.966018	0.247669	0.563300
H179	H	1.299352	0.581002	0.896633
H180	H	1.632685	0.914336	1.229967
H181	H	1.168104	0.014158	0.563287
H182	H	1.501438	0.347491	0.896621
H183	H	1.834771	0.680825	1.229954
H184	H	0.626405	0.132095	-0.156573
H185	H	0.959738	0.465428	0.176760
H186	H	1.293071	0.798761	0.510093
C187	C	0.521051	0.129989	0.181249
C188	C	0.854384	0.463322	0.514582
C189	C	1.187717	0.796655	0.847915
N190	N	0.559756	0.130758	0.252756
N191	N	0.893089	0.464091	0.586090
N192	N	1.226422	0.797425	0.919423
C193	C	1.184034	-0.004234	0.758324
C194	C	1.517367	0.329099	1.091657
C195	C	1.850700	0.662433	1.424991
N196	N	1.230178	-0.057553	0.799609
N197	N	1.563512	0.275780	1.132943
N198	N	1.896845	0.609113	1.466276
H199	H	0.795938	0.135496	-0.156581
H200	H	1.129272	0.468829	0.176752
H201	H	1.462605	0.802162	0.510086
C202	C	0.950128	0.266062	0.758340
C203	C	1.283462	0.599395	1.091673
C204	C	1.616795	0.932729	1.425006
N205	N	0.903985	0.319380	0.799625
N206	N	1.237318	0.652713	1.132959
N207	N	1.570652	0.986047	1.466292
