data_functionalizedCrystal
_audit_creation_method	'MofGen! by Chris Wilmer'
_symmetry_space_group_name_H-M	'P1'
_symmetry_Int_Tables_number	1
_symmetry_cell_setting	triclinic
loop_
_symmetry_equiv_pos_as_xyz
  x,y,z
_cell_length_a	16.992694
_cell_length_b	15.538191
_cell_length_c	16.053802
_cell_angle_alpha	91.543625
_cell_angle_beta	87.249047
_cell_angle_gamma	68.970158
loop_
_atom_site_label
_atom_site_type_symbol
_atom_site_fract_x
_atom_site_fract_y
_atom_site_fract_z
O1	O	0.989072	0.191921	-0.069317
O2	O	0.761399	0.189774	-0.069342
O3	O	0.919554	0.057054	-0.069328
O4	O	0.830917	0.324641	-0.069330
O5	O	0.910858	0.064328	0.069530
O6	O	0.752703	0.197047	0.069517
O7	O	0.980376	0.199194	0.069541
Zn8	Zn	0.865158	0.199275	0.091576
Zn9	Zn	0.876616	0.189693	-0.091376
O10	O	0.822220	0.331914	0.069528
C11	C	0.728624	0.190651	0.000084
C12	C	0.643924	0.182415	0.000075
C13	C	0.571070	0.261869	0.000075
C14	C	0.491487	0.254127	0.000086
C15	C	0.484759	0.166930	0.000092
C16	C	0.557620	0.087471	0.000094
C17	C	0.637202	0.095214	0.000089
C18	C	0.250294	0.134837	0.000114
C19	C	0.170704	0.127099	0.000117
C20	C	0.104576	0.293756	0.000111
C21	C	0.184163	0.301491	0.000101
C22	C	0.257017	0.222032	0.000107
N23	N	0.403412	0.159014	0.000101
N24	N	0.338361	0.229949	0.000104
C25	C	0.924480	0.026294	0.000099
C26	C	0.952104	-0.076201	0.000094
C27	C	0.677671	-0.384652	0.000082
C28	C	0.703646	-0.480962	0.000086
C29	C	0.849754	-0.492405	0.000102
C30	C	0.823791	-0.396094	0.000093
C31	C	0.737748	-0.342225	0.000084
C32	C	0.883869	-0.353667	0.000095
C33	C	0.857907	-0.257364	0.000091
C34	C	0.771868	-0.203488	0.000084
C35	C	0.711787	-0.245922	0.000080
C36	C	0.969911	-0.407537	0.000110
C37	C	1.029988	-0.365110	0.000113
C38	C	1.004027	-0.268806	0.000102
C39	C	0.917988	-0.214931	0.000096
C40	C	1.064108	-0.226373	0.000107
C41	C	1.038147	-0.130070	0.000103
C42	C	0.892026	-0.118628	0.000091
C43	C	1.013151	0.198317	0.000114
C44	C	1.097851	0.206552	0.000118
C45	C	0.817295	0.362675	0.000099
C46	C	0.789671	0.465169	0.000099
N47	N	0.857345	0.205815	0.216435
N48	N	0.884438	0.183146	-0.216236
C49	C	0.924652	0.149366	0.260135
C50	C	0.919191	0.153950	0.347541
C51	C	0.846424	0.214988	0.391246
C52	C	0.779111	0.271440	0.347541
C53	C	0.784570	0.266851	0.260136
C54	C	0.822584	0.235009	0.652654
C55	C	0.817130	0.239596	0.740065
C56	C	0.957211	0.122103	0.740059
C57	C	0.962666	0.117523	0.652653
C58	C	0.895351	0.173972	0.608955
N59	N	0.840841	0.219677	0.480590
N60	N	0.900932	0.169277	0.519613
H61	H	0.189632	0.372495	0.000086
H62	H	0.576539	0.332874	0.000070
C63	C	0.737078	0.306741	0.788139
C64	C	0.684896	0.269397	0.848246
C65	C	0.604849	0.336540	0.896318
C66	C	0.576983	0.441028	0.884284
C67	C	0.629166	0.478378	0.824174
C68	C	0.709214	0.411234	0.776102
H69	H	0.705523	0.192044	0.857156
H70	H	0.566220	0.308891	0.940815
H71	H	0.517728	0.490732	0.919870
H72	H	0.608540	0.555731	0.815264
H73	H	0.747843	0.438883	0.731605
C74	C	1.031251	0.060005	0.788127
C75	C	1.017588	-0.009654	0.848225
C76	C	1.091631	-0.071758	0.896291
C77	C	1.179336	-0.064203	0.884261
C78	C	1.193003	0.005459	0.824161
C79	C	1.118960	0.067563	0.776094
H80	H	0.952660	-0.015249	0.857133
H81	H	1.081513	-0.123327	0.940782
H82	H	1.234147	-0.110177	0.919843
H83	H	1.257931	0.011054	0.815252
H84	H	1.129078	0.119132	0.731604
H85	H	0.767774	0.280973	0.617082
C86	C	0.411350	0.341530	0.000087
C87	C	0.399518	0.407557	-0.072023
C88	C	0.319381	0.494966	-0.072019
C89	C	0.251076	0.516349	0.000095
C90	C	0.262905	0.450320	0.072210
C91	C	0.343042	0.362911	0.072206
H92	H	0.450084	0.391730	-0.125411
H93	H	0.310624	0.543845	-0.125404
H94	H	0.191753	0.581054	0.000098
H95	H	0.212339	0.466147	0.125598
H96	H	0.351799	0.314032	0.125591
H97	H	0.719859	0.321136	0.383130
C98	C	0.330429	0.047436	0.000115
C99	C	0.398742	0.026064	-0.071990
C100	C	0.478884	-0.061340	-0.071989
C101	C	0.490712	-0.127371	0.000116
C102	C	0.422397	-0.106001	0.072227
C103	C	0.342255	-0.018598	0.072226
H104	H	0.389988	0.074946	-0.125372
H105	H	0.529455	-0.077159	-0.125371
H106	H	0.550038	-0.192073	0.000117
H107	H	0.431151	-0.154883	0.125609
H108	H	0.291683	-0.002778	0.125608
H109	H	0.165234	0.056089	0.000121
H110	H	0.696521	0.030514	0.000088
H111	H	0.552136	0.016474	0.000111
C112	C	1.158752	-0.285636	0.000121
C113	C	1.192172	-0.349630	0.072236
C114	C	1.286816	-0.408893	0.072251
C115	C	1.348040	-0.404162	0.000151
C116	C	1.314621	-0.340165	-0.071969
C117	C	1.219977	-0.280903	-0.071984
H118	H	1.146849	-0.353134	0.125614
H119	H	1.311555	-0.456267	0.125639
H120	H	1.418101	-0.448031	0.000162
H121	H	1.359943	-0.336661	-0.125347
H122	H	1.195238	-0.233528	-0.125372
C123	C	0.617139	-0.186654	0.000061
C124	C	0.564956	-0.198950	-0.072056
C125	C	0.470313	-0.139680	-0.072076
C126	C	0.427855	-0.068114	0.000020
C127	C	0.480039	-0.055815	0.072142
C128	C	0.574681	-0.115085	0.072162
H129	H	0.596386	-0.251929	-0.125430
H130	H	0.431684	-0.148785	-0.125466
H131	H	0.357795	-0.024239	0.000005
H132	H	0.448609	-0.002835	0.125517
H133	H	0.613310	-0.105980	0.125552
H134	H	1.021919	0.067821	0.617070
C135	C	1.004699	0.082220	0.212064
C136	C	1.078732	0.020123	0.260137
C137	C	1.158780	-0.047026	0.212069
C138	C	1.164793	-0.052079	0.115928
C139	C	1.090757	0.010021	0.067848
C140	C	1.010709	0.077170	0.115917
H141	H	1.074283	0.023862	0.331312
H142	H	1.213586	-0.092996	0.247661
H143	H	1.224049	-0.101787	0.080345
H144	H	1.095206	0.006282	-0.003326
H145	H	0.955903	0.123140	0.080325
H146	H	0.919811	-0.536278	0.000113
H147	H	0.729760	0.312817	0.224557
H148	H	0.045252	0.358446	0.000107
H149	H	0.821962	-0.074765	0.000078
H150	H	0.750731	-0.125073	0.000086
H151	H	0.607606	-0.340788	0.000068
H152	H	0.654717	-0.515501	0.000097
H153	H	0.991046	-0.485953	0.000106
H154	H	1.087068	-0.095525	0.000106
H155	H	1.100044	-0.408983	0.000123
H156	H	0.973998	0.107983	0.383121
