data_functionalizedCrystal
_audit_creation_method	'MofGen! by Chris Wilmer'
_symmetry_space_group_name_H-M	'P1'
_symmetry_Int_Tables_number	1
_symmetry_cell_setting	triclinic
loop_
_symmetry_equiv_pos_as_xyz
  x,y,z
_cell_length_a	14.853567
_cell_length_b	14.853554
_cell_length_c	13.330367
_cell_angle_alpha	90.002350
_cell_angle_beta	89.995418
_cell_angle_gamma	96.367813
loop_
_atom_site_label
_atom_site_type_symbol
_atom_site_fract_x
_atom_site_fract_y
_atom_site_fract_z
O1	O	1.196363	-0.117704	-0.083349
O2	O	1.696363	0.382296	0.416651
O3	O	0.933903	-0.131726	-0.083366
O4	O	1.433903	0.368274	0.416634
O5	O	1.072150	0.006516	-0.083356
O6	O	1.572150	0.506516	0.416644
O7	O	1.058116	-0.255946	-0.083359
O8	O	1.558116	0.244054	0.416641
O9	O	1.072130	0.006519	0.083491
O10	O	1.572130	0.506519	0.583491
O11	O	0.933883	-0.131723	0.083481
O12	O	1.433883	0.368277	0.583481
O13	O	1.196343	-0.117701	0.083498
O14	O	1.696343	0.382299	0.583498
Cu15	Cu	1.065111	-0.124712	0.098724
Cu16	Cu	1.565111	0.375288	0.598724
Cu17	Cu	1.065135	-0.124715	-0.098592
Cu18	Cu	1.565135	0.375285	0.401408
O19	O	1.058096	-0.255943	0.083489
O20	O	1.558096	0.244057	0.583489
C21	C	0.900304	-0.131089	0.000056
C22	C	1.400304	0.368911	0.500056
C23	C	0.800221	-0.129185	0.000049
C24	C	1.300221	0.370815	0.500049
C25	C	0.387691	-0.039019	0.000072
C26	C	0.887691	0.460981	0.500072
C27	C	0.366402	-0.203253	0.000070
C28	C	0.866402	0.296747	0.500070
C29	C	0.460436	-0.205043	0.000067
C30	C	0.960436	0.294957	0.500067
C31	C	0.518102	-0.123820	0.000065
C32	C	1.018102	0.376180	0.500065
C33	C	0.481734	-0.040806	0.000066
C34	C	0.981734	0.459194	0.500066
C35	C	0.496811	-0.288055	0.000055
C36	C	0.996811	0.211945	0.500055
C37	C	0.590850	-0.289848	0.000051
C38	C	1.090850	0.210152	0.500051
C39	C	0.648518	-0.208624	0.000056
C40	C	1.148518	0.291376	0.500056
C41	C	0.612144	-0.125607	0.000059
C42	C	1.112144	0.374393	0.500059
C43	C	0.669810	-0.044384	0.000057
C44	C	1.169810	0.455616	0.500057
C45	C	0.633439	0.038633	0.000066
C46	C	1.133439	0.538633	0.500066
C47	C	0.539401	0.040418	0.000072
C48	C	1.039401	0.540418	0.500072
C49	C	0.742555	-0.210408	0.000051
C50	C	1.242555	0.289592	0.500051
C51	C	0.763853	-0.046172	0.000051
C52	C	1.263853	0.453828	0.500051
C53	C	1.071506	0.040106	0.000065
C54	C	1.571506	0.540106	0.500065
C55	C	1.069607	0.140190	0.000060
C56	C	1.569607	0.640190	0.500060
C57	C	1.229942	-0.118338	0.000074
C58	C	1.729942	0.381662	0.500074
C59	C	1.330025	-0.120242	0.000074
C60	C	1.830025	0.379758	0.500074
N61	N	1.065101	-0.124709	0.237506
N62	N	1.565101	0.375291	0.737506
C63	C	1.061562	0.563365	-0.090890
C64	C	1.561562	1.063365	0.409110
C65	C	1.061540	0.563363	0.091013
C66	C	1.561540	1.063363	0.591013
C67	C	1.063332	0.469329	0.091014
C68	C	1.563332	0.969329	0.591014
C69	C	1.064237	0.422309	0.000062
C70	C	1.564237	0.922309	0.500062
C71	C	1.063351	0.469322	-0.090892
C72	C	1.563351	0.969322	0.409108
C73	C	1.064209	0.422308	0.181966
C74	C	1.564209	0.922308	0.681966
C75	C	1.066000	0.328268	0.181971
C76	C	1.566000	0.828268	0.681971
C77	C	1.066912	0.281247	0.091017
C78	C	1.566912	0.781247	0.591017
C79	C	1.066026	0.328266	0.000060
C80	C	1.566026	0.828266	0.500060
C81	C	1.066932	0.281246	-0.090892
C82	C	1.566932	0.781246	0.409108
C83	C	1.066053	0.328264	-0.181851
C84	C	1.566053	0.828264	0.318149
C85	C	1.064263	0.422301	-0.181846
C86	C	1.564263	0.922301	0.318154
C87	C	1.068702	0.187211	0.091012
C88	C	1.568702	0.687211	0.591012
C89	C	1.068721	0.187203	-0.090894
C90	C	1.568721	0.687203	0.409106
C91	C	1.058744	0.710468	0.000064
C92	C	1.558744	1.210468	0.500064
C93	C	1.060656	0.610385	0.000062
C94	C	1.560656	1.110385	0.500062
N95	N	1.065152	-0.124711	-0.237373
N96	N	1.565152	0.375289	0.262627
C97	C	1.003916	-0.185904	0.710124
C98	C	1.503916	0.314096	1.210124
C99	C	1.126378	-0.063519	0.710101
C100	C	1.626378	0.436481	1.210101
C101	C	1.126367	-0.063516	0.605082
C102	C	1.626367	0.436484	1.105082
C103	C	1.065132	-0.124709	0.552580
C104	C	1.565132	0.375291	1.052580
C105	C	1.003906	-0.185905	0.605096
C106	C	1.503906	0.314095	1.105096
C107	C	1.187598	-0.002328	0.552559
C108	C	1.687598	0.497672	1.052559
C109	C	1.187591	-0.002323	0.447534
C110	C	1.687591	0.497677	0.947534
C111	C	1.126350	-0.063513	0.395030
C112	C	1.626350	0.436487	0.895030
C113	C	1.065121	-0.124710	0.447552
C114	C	1.565121	0.375290	0.947552
C115	C	1.003886	-0.185904	0.395050
C116	C	1.503886	0.314096	0.895050
C117	C	0.942652	-0.247098	0.447571
C118	C	1.442652	0.252902	0.947571
C119	C	0.942665	-0.247095	0.552592
C120	C	1.442665	0.252905	1.052592
C121	C	1.126337	-0.063515	0.290008
C122	C	1.626337	0.436485	0.790008
C123	C	1.003875	-0.185904	0.290022
C124	C	1.503875	0.314096	0.790022
H125	H	0.680402	0.104765	0.000058
H126	H	1.180402	0.604765	0.500058
C127	C	1.066978	0.276558	0.282018
C128	C	1.566978	0.776558	0.782018
H129	H	1.066189	0.318032	0.336185
H130	H	1.566189	0.818032	0.836185
H131	H	1.015149	0.233057	0.285802
H132	H	1.515149	0.733057	0.785802
H133	H	1.120219	0.246694	0.285797
H134	H	1.620219	0.746694	0.785797
C135	C	0.499391	0.131726	0.000071
C136	C	0.999391	0.631726	0.500071
H137	H	0.435127	0.121155	0.000063
H138	H	0.935127	0.621155	0.500063
H139	H	0.519170	0.165179	0.058253
H140	H	1.019170	0.665179	0.558253
H141	H	0.519179	0.165168	-0.058121
H142	H	1.019179	0.665168	0.441879
H143	H	0.449853	-0.354182	0.000046
H144	H	0.949853	0.145818	0.500046
H145	H	0.620455	-0.357446	0.000043
H146	H	1.120455	0.142554	0.500043
C147	C	0.875298	-0.314407	0.389811
C148	C	1.375298	0.185593	0.889811
H149	H	0.884065	-0.305638	0.319743
H150	H	1.384065	0.194362	0.819743
H151	H	0.885154	-0.374596	0.407018
H152	H	1.385154	0.125404	0.907018
H153	H	0.815118	-0.304498	0.407026
H154	H	1.315118	0.195502	0.907026
H155	H	1.069463	0.148927	-0.164960
H156	H	1.569463	0.648927	0.335040
H157	H	1.066784	0.289967	-0.255904
H158	H	1.566784	0.789967	0.244096
H159	H	1.069397	0.148930	0.165069
H160	H	1.569397	0.648930	0.665069
C161	C	1.254952	0.064977	0.610310
C162	C	1.754952	0.564977	1.110310
H163	H	1.246180	0.056218	0.680379
H164	H	1.746180	0.556218	1.180379
H165	H	1.315127	0.055074	0.593091
H166	H	1.815127	0.555074	1.093091
H167	H	1.245088	0.125168	0.593103
H168	H	1.745088	0.625168	1.093103
H169	H	0.358073	0.028572	0.000084
H170	H	0.858073	0.528572	0.500084
H171	H	0.772164	-0.278000	0.000045
H172	H	1.272164	0.222000	0.500045
C173	C	0.936519	-0.253220	0.232272
C174	C	1.436519	0.246780	0.732272
H175	H	0.945279	-0.244457	0.162203
H176	H	1.445279	0.255543	0.662203
H177	H	0.946379	-0.313406	0.249485
H178	H	1.446379	0.186594	0.749485
H179	H	0.876341	-0.243311	0.249493
H180	H	1.376341	0.256689	0.749493
H181	H	1.237449	0.047505	0.404778
H182	H	1.737449	0.547505	0.904778
C183	C	1.193731	0.003787	0.767850
C184	C	1.693731	0.503787	1.267850
H185	H	1.184966	-0.004974	0.837919
H186	H	1.684966	0.495026	1.337919
H187	H	1.253907	-0.006110	0.750624
H188	H	1.753907	0.493890	1.250624
H189	H	1.183861	0.063978	0.750647
H190	H	1.683861	0.563978	1.250647
H191	H	1.063547	0.460591	-0.255899
H192	H	1.563547	0.960591	0.244101
C193	C	1.193684	0.003789	0.232240
C194	C	1.693684	0.503789	0.732240
H195	H	1.230154	0.040235	0.278550
H196	H	1.730154	0.540235	0.778550
H197	H	1.231240	-0.028712	0.191257
H198	H	1.731240	0.471288	0.691257
H199	H	1.161203	0.041385	0.191284
H200	H	1.661203	0.541385	0.691284
C201	C	1.060592	0.615078	-0.190937
C202	C	1.560592	1.115078	0.309063
H203	H	1.059392	0.677818	-0.177915
H204	H	1.559392	1.177818	0.322085
H205	H	1.113419	0.606474	-0.228306
H206	H	1.613419	1.106474	0.271694
H207	H	1.008349	0.592854	-0.228306
H208	H	1.508349	1.092854	0.271694
H209	H	0.319446	-0.269381	0.000063
H210	H	0.819446	0.230619	0.500063
H211	H	1.060797	0.601652	0.165062
H212	H	1.560797	1.101652	0.665062
H213	H	0.810799	0.019971	0.000053
H214	H	1.310799	0.519971	0.500053
C215	C	0.875324	-0.314408	0.610366
C216	C	1.375324	0.185592	1.110366
H217	H	0.884110	-0.305650	0.680432
H218	H	1.384110	0.194350	1.180432
H219	H	0.815143	-0.304513	0.593175
H220	H	1.315143	0.195487	1.093175
H221	H	0.885192	-0.374598	0.593146
H222	H	1.385192	0.125402	1.093146
C223	C	1.063221	0.474030	0.282003
C224	C	1.563221	0.974030	0.782003
H225	H	1.062043	0.536771	0.268975
H226	H	1.562043	1.036771	0.768975
H227	H	1.010979	0.451817	0.319378
H228	H	1.510979	0.951817	0.819378
H229	H	1.116049	0.465427	0.319370
H230	H	1.616049	0.965427	0.819370
C231	C	0.936567	-0.253215	0.767890
C232	C	1.436567	0.246785	1.267890
H233	H	0.945343	-0.244457	0.837958
H234	H	1.445343	0.255543	1.337958
H235	H	0.876390	-0.243316	0.750688
H236	H	1.376390	0.256684	1.250688
H237	H	0.946434	-0.313406	0.750674
H238	H	1.446434	0.186594	1.250674
