data_functionalizedCrystal
_audit_creation_method	'MofGen! by Chris Wilmer'
_symmetry_space_group_name_H-M	'P1'
_symmetry_Int_Tables_number	1
_symmetry_cell_setting	triclinic
loop_
_symmetry_equiv_pos_as_xyz
  x,y,z
_cell_length_a	15.944551
_cell_length_b	15.944551
_cell_length_c	15.021413
_cell_angle_alpha	90.003065
_cell_angle_beta	89.997174
_cell_angle_gamma	83.498738
loop_
_atom_site_label
_atom_site_type_symbol
_atom_site_fract_x
_atom_site_fract_y
_atom_site_fract_z
O1	O	1.114529	0.108321	-0.073941
O2	O	1.447862	0.441654	0.259392
O3	O	1.781196	0.774988	0.592726
O4	O	0.869979	0.121677	-0.073964
O5	O	1.203313	0.455010	0.259370
O6	O	1.536646	0.788344	0.592703
O7	O	0.998932	-0.007276	-0.073944
O8	O	1.332265	0.326057	0.259390
O9	O	1.665599	0.659391	0.592723
O10	O	0.985576	0.237274	-0.073961
O11	O	1.318909	0.570607	0.259372
O12	O	1.652243	0.903940	0.592706
O13	O	0.998912	-0.007257	0.074121
O14	O	1.332245	0.326076	0.407454
O15	O	1.665578	0.659409	0.740787
O16	O	0.869959	0.121695	0.074101
O17	O	1.203292	0.455029	0.407434
O18	O	1.536625	0.788362	0.740767
O19	O	1.114508	0.108339	0.074123
O20	O	1.447842	0.441673	0.407456
O21	O	1.781175	0.775006	0.740790
Zn22	Zn	0.992230	0.115020	0.097620
Zn23	Zn	1.325564	0.448354	0.430954
Zn24	Zn	1.658897	0.781687	0.764287
Zn25	Zn	0.992257	0.114996	-0.097461
Zn26	Zn	1.325591	0.448329	0.235873
Zn27	Zn	1.658924	0.781663	0.569206
O28	O	0.985555	0.237292	0.074103
O29	O	1.318889	0.570626	0.407437
O30	O	1.652222	0.903959	0.740770
C31	C	0.838675	0.121132	0.000066
C32	C	1.172008	0.454465	0.333399
C33	C	1.505342	0.787798	0.666732
C34	C	0.745429	0.119470	0.000057
C35	C	1.078762	0.452803	0.333391
C36	C	1.412096	0.786136	0.666724
C37	C	0.530572	0.035565	0.000081
C38	C	0.863906	0.368898	0.333414
C39	C	1.197239	0.702232	0.666747
C40	C	0.469562	0.074518	-0.072926
C41	C	0.802896	0.407852	0.260408
C42	C	1.136229	0.741185	0.593741
C43	C	0.574703	0.116462	0.000068
C44	C	0.908036	0.449796	0.333402
C45	C	1.241370	0.783129	0.666735
C46	C	0.469564	0.074556	0.073054
C47	C	0.802898	0.407889	0.406387
C48	C	1.136231	0.741222	0.739721
C49	C	0.409790	0.113551	0.000083
C50	C	0.743124	0.446885	0.333416
C51	C	1.076457	0.780218	0.666749
C52	C	0.514921	0.155438	-0.072998
C53	C	0.848255	0.488771	0.260335
C54	C	1.181588	0.822104	0.593668
C55	C	0.514930	0.155464	0.073047
C56	C	0.848263	0.488797	0.406380
C57	C	1.181596	0.822130	0.739714
C58	C	0.453937	0.194476	0.000023
C59	C	0.787271	0.527809	0.333356
C60	C	1.120604	0.861143	0.666690
C61	C	0.669705	0.118137	0.000059
C62	C	1.003039	0.451470	0.333393
C63	C	1.336372	0.784803	0.666726
C64	C	0.314789	0.111883	0.000085
C65	C	0.648123	0.445217	0.333418
C66	C	0.981456	0.778550	0.666752
C67	C	0.998367	-0.038561	0.000089
C68	C	1.331701	0.294773	0.333422
C69	C	1.665034	0.628106	0.666755
C70	C	0.996705	-0.131807	0.000089
C71	C	1.330038	0.201527	0.333422
C72	C	1.663372	0.534860	0.666756
C73	C	0.912801	-0.346663	0.000069
C74	C	1.246134	-0.013330	0.333402
C75	C	1.579467	0.320003	0.666736
C76	C	0.951753	-0.407672	0.073077
C77	C	1.285086	-0.074338	0.406410
C78	C	1.618420	0.258995	0.739744
C79	C	0.993698	-0.302533	0.000082
C80	C	1.327031	0.030801	0.333415
C81	C	1.660365	0.364134	0.666748
C82	C	0.951792	-0.407673	-0.072903
C83	C	1.285126	-0.074340	0.260431
C84	C	1.618459	0.258994	0.593764
C85	C	0.990787	-0.467445	0.000071
C86	C	1.324120	-0.134112	0.333404
C87	C	1.657454	0.199221	0.666738
C88	C	1.032672	-0.362313	0.073150
C89	C	1.366006	-0.028979	0.406484
C90	C	1.699339	0.304354	0.739817
C91	C	1.032700	-0.362308	-0.072895
C92	C	1.366034	-0.028974	0.260438
C93	C	1.699367	0.304359	0.593772
C94	C	1.071711	-0.423298	0.000131
C95	C	1.405045	-0.089965	0.333464
C96	C	1.738378	0.243368	0.666798
C97	C	0.995372	-0.207530	0.000089
C98	C	1.328706	0.125803	0.333422
C99	C	1.662039	0.459136	0.666755
C100	C	0.989119	-0.562446	0.000070
C101	C	1.322452	-0.229113	0.333404
C102	C	1.655785	0.104220	0.666737
C103	C	1.145813	0.108885	0.000092
C104	C	1.479146	0.442218	0.333425
C105	C	1.812479	0.775551	0.666758
C106	C	1.239059	0.110547	0.000094
C107	C	1.572392	0.443880	0.333428
C108	C	1.905725	0.777214	0.666761
C109	C	0.986120	0.268577	0.000069
C110	C	1.319453	0.601910	0.333402
C111	C	1.652787	0.935244	0.666736
C112	C	0.987782	0.361823	0.000063
C113	C	1.321116	0.695156	0.333396
C114	C	1.654449	1.028490	0.666730
N115	N	0.992218	0.115036	0.230758
N116	N	1.325551	0.448370	0.564091
N117	N	1.658885	0.781703	0.897425
N118	N	0.992276	0.114973	-0.230598
N119	N	1.325610	0.448307	0.102735
N120	N	1.658943	0.781640	0.436068
C121	C	0.932581	0.174636	0.470432
C122	C	1.265914	0.507969	0.803765
C123	C	1.599248	0.841303	1.137099
C124	C	1.008481	0.190943	0.529772
C125	C	1.341815	0.524277	0.863105
C126	C	1.675148	0.857610	1.196439
C127	C	0.992239	0.115015	0.412365
C128	C	1.325573	0.448349	0.745698
C129	C	1.658906	0.781682	1.079031
C130	C	0.916360	0.098727	0.529766
C131	C	1.249693	0.432060	0.863100
C132	C	1.583026	0.765394	1.196433
C133	C	0.992253	0.114997	0.587789
C134	C	1.325587	0.448330	0.921122
C135	C	1.658920	0.781664	1.254456
C136	C	1.068178	0.131360	0.470398
C137	C	1.401511	0.464693	0.803732
C138	C	1.734845	0.798027	1.137065
C139	C	0.976006	0.039111	0.470387
C140	C	1.309340	0.372444	0.803721
C141	C	1.642673	0.705778	1.137054
C142	C	1.051962	0.055386	0.529701
C143	C	1.385295	0.388719	0.863034
C144	C	1.718628	0.722053	1.196368
C145	C	0.992230	0.115028	0.311307
C146	C	1.325564	0.448361	0.644641
C147	C	1.658897	0.781695	0.977974
C148	C	0.992271	0.114984	0.688844
C149	C	1.325605	0.448317	1.022177
C150	C	1.658938	0.781650	1.355511
H151	H	0.449461	0.040295	-0.134642
H152	H	0.782794	0.373628	0.198691
H153	H	1.116127	0.706961	0.532024
H154	H	0.852184	0.084959	0.555847
H155	H	1.185517	0.418292	0.889180
H156	H	1.518850	0.751626	1.222513
H157	H	0.917528	-0.427772	0.134794
H158	H	1.250861	-0.094439	0.468127
H159	H	1.584195	0.238894	0.801460
H160	H	1.138919	-0.456457	0.000178
H161	H	1.472252	-0.123124	0.333512
H162	H	1.805585	0.210210	0.666845
H163	H	1.022224	0.255126	0.555856
H164	H	1.355557	0.588459	0.889190
H165	H	1.688891	0.921792	1.222523
H166	H	1.066896	-0.342185	-0.134615
H167	H	1.400229	-0.008852	0.198719
H168	H	1.733562	0.324482	0.532052
H169	H	0.845652	-0.313356	0.000136
H170	H	1.178986	0.019978	0.333469
H171	H	1.512319	0.353311	0.666802
H172	H	0.535052	0.189659	0.134767
H173	H	0.868386	0.522993	0.468100
H174	H	1.201719	0.856326	0.801433
H175	H	0.563905	-0.031573	-0.000005
H176	H	0.897238	0.301760	0.333328
H177	H	1.230572	0.635094	0.666662
H178	H	0.449470	0.040332	0.134773
H179	H	0.782803	0.373666	0.468106
H180	H	1.116136	0.706999	0.801440
H181	H	0.534918	0.189621	-0.134787
H182	H	0.868251	0.522954	0.198547
H183	H	1.201584	0.856287	0.531880
H184	H	1.132368	0.145206	0.444430
H185	H	1.465701	0.478539	0.777764
H186	H	1.799035	0.811872	1.111097
H187	H	0.962240	-0.025051	0.444283
H188	H	1.295573	0.308282	0.777616
H189	H	1.628907	0.641616	1.110949
H190	H	0.917574	-0.427758	-0.134630
H191	H	1.250907	-0.094424	0.198704
H192	H	1.584241	0.238909	0.532037
H193	H	0.420779	0.261683	-0.000023
H194	H	0.754112	0.595016	0.333311
H195	H	1.087445	0.928350	0.666644
H196	H	1.066851	-0.342314	0.134941
H197	H	1.400184	-0.008981	0.468274
H198	H	1.733518	0.324352	0.801607
H199	H	1.102474	0.004956	0.555561
H200	H	1.435807	0.338289	0.888894
H201	H	1.769141	0.671622	1.222228
H202	H	0.882181	0.225096	0.444409
H203	H	1.215514	0.558430	0.777742
H204	H	1.548847	0.891763	1.111075
