data_functionalizedCrystal
_audit_creation_method	'MofGen! by Chris Wilmer'
_symmetry_space_group_name_H-M	'P1'
_symmetry_Int_Tables_number	1
_symmetry_cell_setting	triclinic
loop_
_symmetry_equiv_pos_as_xyz
  x,y,z
_cell_length_a	17.699083
_cell_length_b	14.971486
_cell_length_c	16.776229
_cell_angle_alpha	90.006731
_cell_angle_beta	90.001529
_cell_angle_gamma	83.448572
loop_
_atom_site_label
_atom_site_type_symbol
_atom_site_fract_x
_atom_site_fract_y
_atom_site_fract_z
O1	O	-1.004357	-0.113112	-0.066177
O2	O	-0.784015	-0.127828	-0.066203
O3	O	-0.900092	0.009750	-0.066184
O4	O	-0.888281	-0.250691	-0.066196
O5	O	-0.900076	0.009758	0.066393
O6	O	-0.783999	-0.127821	0.066374
O7	O	-1.004341	-0.113104	0.066400
Zn8	Zn	-0.894167	-0.120461	0.087436
Zn9	Zn	-0.894189	-0.120472	-0.087239
O10	O	-0.888264	-0.250683	0.066380
C11	C	-0.899556	0.043077	0.000104
C12	C	-0.897973	0.142368	0.000104
C13	C	-0.755809	-0.127297	0.000082
C14	C	-0.671787	-0.125715	0.000072
C15	C	-1.032547	-0.113636	0.000113
C16	C	-1.116569	-0.115218	0.000118
C17	C	-0.623365	-0.206471	0.000068
C18	C	-0.544418	-0.204979	0.000079
C19	C	-0.513894	-0.122731	0.000087
C20	C	-0.562323	-0.041969	0.000093
C21	C	-0.641268	-0.043462	0.000089
C22	C	-0.243945	-0.035947	0.000113
C23	C	-0.164993	-0.034461	0.000116
C24	C	-0.147094	-0.197465	0.000103
C25	C	-0.226040	-0.198958	0.000099
C26	C	-0.274461	-0.118196	0.000109
C27	C	-0.360064	-0.119815	0.000099
C28	C	-0.428293	-0.121111	0.000091
C29	C	-0.888801	-0.284010	0.000091
C30	C	-0.890383	-0.383301	0.000086
N31	N	-0.894158	-0.120453	0.206647
C32	C	-0.966165	0.199828	0.000112
C33	C	-0.964673	0.293123	0.000104
C34	C	-0.894988	0.328955	0.000093
C35	C	-0.826791	0.271488	0.000082
C36	C	-0.828284	0.178196	0.000084
C37	C	-0.823685	0.465940	0.000079
C38	C	-0.822192	0.559239	0.000078
C39	C	-0.960074	0.580867	0.000098
C40	C	-0.961566	0.487574	0.000101
C41	C	-0.893369	0.430114	0.000091
C42	C	-0.945572	-0.059559	0.248373
C43	C	-0.945576	-0.059558	0.331825
C44	C	-0.894168	-0.120457	0.373550
C45	C	-0.842749	-0.181355	0.331819
C46	C	-0.842742	-0.181351	0.248368
C47	C	-0.842774	-0.181374	0.668366
C48	C	-0.842786	-0.181375	0.751822
C49	C	-0.945607	-0.059582	0.751823
C50	C	-0.945601	-0.059577	0.668372
C51	C	-0.894179	-0.120471	0.626648
C52	C	-0.894175	-0.120470	0.536160
C53	C	-0.894176	-0.120464	0.464037
N54	N	-0.894197	-0.120476	0.793549
H55	H	-0.648210	-0.273447	0.000061
H56	H	-0.765448	0.588411	0.000081
H57	H	-1.022910	0.170661	0.000126
H58	H	-0.987476	-0.009995	0.785804
C59	C	-0.786229	-0.248363	0.797722
C60	C	-0.786243	-0.248369	0.889515
C61	C	-0.729691	-0.315353	0.935415
C62	C	-0.673125	-0.382332	0.889523
C63	C	-0.673110	-0.382329	0.797725
C64	C	-0.729662	-0.315345	0.751825
H65	H	-0.828118	-0.198785	0.923491
H66	H	-0.729703	-0.315355	1.003370
H67	H	-0.631262	-0.431918	0.923501
H68	H	-0.631235	-0.431914	0.763748
H69	H	-0.729650	-0.315343	0.683870
C70	C	-0.786198	-0.248347	0.377712
C71	C	-0.786237	-0.248402	0.469504
C72	C	-0.729687	-0.315398	0.515394
C73	C	-0.673098	-0.382339	0.469492
C74	C	-0.673056	-0.382287	0.377695
C75	C	-0.729607	-0.315290	0.331804
H76	H	-0.828130	-0.198846	0.503488
H77	H	-0.729718	-0.315437	0.583349
H78	H	-0.631236	-0.431934	0.503463
H79	H	-0.631163	-0.431843	0.343710
H80	H	-0.729576	-0.315252	0.263849
C81	C	-1.002123	0.007433	0.202480
C82	C	-1.058674	0.074419	0.248382
C83	C	-1.115224	0.141416	0.202492
C84	C	-1.115223	0.141425	0.110699
C85	C	-1.058670	0.074436	0.064792
C86	C	-1.002120	0.007440	0.110682
H87	H	-1.058676	0.074414	0.316337
H88	H	-1.157088	0.191005	0.236476
H89	H	-1.157085	0.191020	0.076729
H90	H	-1.058668	0.074441	-0.003163
H91	H	-0.960256	-0.042149	0.076698
C92	C	-0.297202	0.052888	0.000111
C93	C	-0.263624	0.143356	0.000109
C94	C	-0.316885	0.232196	0.000103
C95	C	-0.403724	0.230568	0.000098
C96	C	-0.437306	0.140096	0.000099
C97	C	-0.384044	0.051256	0.000106
H98	H	-0.199337	0.144565	0.000113
H99	H	-0.292026	0.299170	0.000101
H100	H	-0.443151	0.296332	0.000093
H101	H	-0.501593	0.138887	0.000095
H102	H	-0.408904	-0.015718	0.000107
C103	C	-0.748668	0.402730	0.000068
C104	C	-0.691594	0.406621	-0.068780
C105	C	-0.616581	0.343410	-0.068787
C106	C	-0.598642	0.276307	0.000056
C107	C	-0.655717	0.272413	0.068910
C108	C	-0.730730	0.335624	0.068916
H109	H	-0.704873	0.456297	-0.119746
H110	H	-0.574330	0.346293	-0.119757
H111	H	-0.543112	0.229514	0.000051
H112	H	-0.642438	0.222737	0.119875
H113	H	-0.772981	0.332741	0.119886
H114	H	-0.770052	0.300671	0.000068
H115	H	-0.772754	0.131412	0.000077
H116	H	-0.680693	0.022298	0.000091
H117	H	-0.504995	-0.270739	0.000075
H118	H	-1.020202	0.339903	0.000113
C119	C	-1.038220	0.448158	0.000111
C120	C	-1.094885	0.469916	0.068958
C121	C	-1.171540	0.430501	0.068965
C122	C	-1.191530	0.369328	0.000124
C123	C	-1.134864	0.347567	-0.068728
C124	C	-1.058209	0.386983	-0.068735
H125	H	-1.080088	0.515202	0.119923
H126	H	-1.213487	0.446610	0.119934
H127	H	-1.248274	0.340151	0.000129
H128	H	-1.149660	0.302281	-0.119693
H129	H	-1.016261	0.370873	-0.119704
C130	C	-1.002148	0.007414	0.622474
C131	C	-1.058702	0.074404	0.668370
C132	C	-1.115248	0.141398	0.622472
C133	C	-1.115240	0.141403	0.530680
C134	C	-1.058684	0.074410	0.484780
C135	C	-1.002138	0.007416	0.530677
H136	H	-1.058709	0.074403	0.736325
H137	H	-1.157114	0.190991	0.656451
H138	H	-1.157099	0.190996	0.496704
H139	H	-1.058677	0.074411	0.416825
H140	H	-0.960272	-0.042177	0.496698
H141	H	-1.015603	0.627656	0.000104
H142	H	-0.987441	-0.009973	0.365798
H143	H	-0.250887	-0.265933	0.000088
H144	H	-0.800905	-0.230957	0.634400
H145	H	-0.800874	-0.230936	0.214396
H146	H	-0.107660	-0.263225	0.000099
H147	H	-0.140145	0.032519	0.000124
H148	H	-0.537465	0.024999	0.000112
