data_functionalizedCrystal
_audit_creation_method	'MofGen! by Chris Wilmer'
_symmetry_space_group_name_H-M	'P1'
_symmetry_Int_Tables_number	1
_symmetry_cell_setting	triclinic
loop_
_symmetry_equiv_pos_as_xyz
  x,y,z
_cell_length_a	27.732048
_cell_length_b	27.732048
_cell_length_c	13.101039
_cell_angle_alpha	93.329410
_cell_angle_beta	86.675896
_cell_angle_gamma	82.642655
loop_
_atom_site_label
_atom_site_type_symbol
_atom_site_fract_x
_atom_site_fract_y
_atom_site_fract_z
O1	O	0.643602	0.054833	-0.085092
O2	O	0.976936	0.388166	0.248241
O3	O	1.310269	0.721500	0.581574
O4	O	0.502810	0.063577	-0.085125
O5	O	0.836143	0.396911	0.248208
O6	O	1.169477	0.730244	0.581542
O7	O	0.577578	-0.011191	-0.085088
O8	O	0.910912	0.322142	0.248245
O9	O	1.244245	0.655476	0.581578
O10	O	0.568834	0.129601	-0.085129
O11	O	0.902167	0.462935	0.248204
O12	O	1.235501	0.796268	0.581537
O13	O	0.572214	-0.005818	0.085339
O14	O	0.905547	0.327516	0.418672
O15	O	1.238880	0.660849	0.752006
O16	O	0.497445	0.068951	0.085302
O17	O	0.830779	0.402284	0.418636
O18	O	1.164112	0.735617	0.751969
O19	O	0.638238	0.060206	0.085335
O20	O	0.971571	0.393540	0.418668
O21	O	1.304904	0.726873	0.752001
Zn22	Zn	0.566990	0.065432	0.112378
Zn23	Zn	0.900323	0.398765	0.445711
Zn24	Zn	1.233657	0.732098	0.779044
Zn25	Zn	0.574058	0.058352	-0.112168
Zn26	Zn	0.907391	0.391685	0.221166
Zn27	Zn	1.240725	0.725019	0.554499
O28	O	0.563470	0.134975	0.085298
O29	O	0.896803	0.468308	0.418631
O30	O	1.230136	0.801641	0.751965
C31	C	0.482121	0.066080	0.000085
C32	C	0.815454	0.399414	0.333418
C33	C	1.148788	0.732747	0.666751
C34	C	0.428466	0.065527	0.000073
C35	C	0.761800	0.398861	0.333407
C36	C	1.095133	0.732194	0.666740
C37	C	0.089650	0.106232	0.000106
C38	C	0.422984	0.439565	0.333439
C39	C	0.756317	0.772899	0.666772
C40	C	-0.112010	0.104181	0.000115
C41	C	0.221324	0.437515	0.333449
C42	C	0.554657	0.770848	0.666782
O43	O	-0.143266	0.141403	0.000149
O44	O	0.190067	0.474736	0.333482
O45	O	0.523400	0.808070	0.666816
N46	N	-0.131134	0.059847	0.000127
N47	N	0.202200	0.393180	0.333460
N48	N	0.535533	0.726513	0.666793
C49	C	-0.099840	0.016021	0.000142
C50	C	0.233494	0.349355	0.333475
C51	C	0.566827	0.682688	0.666809
O52	O	-0.120733	-0.021735	0.000162
O53	O	0.212600	0.311599	0.333496
O54	O	0.545933	0.644932	0.666829
C55	C	0.101819	0.018073	0.000140
C56	C	0.435152	0.351406	0.333473
C57	C	0.768486	0.684740	0.666806
C58	C	0.120941	0.062410	0.000118
C59	C	0.454274	0.395744	0.333451
C60	C	0.787607	0.729077	0.666785
C61	C	0.108772	0.150566	0.000085
C62	C	0.442106	0.483899	0.333419
C63	C	0.775439	0.817233	0.666752
C64	C	0.159184	0.151078	0.000077
C65	C	0.492518	0.484411	0.333411
C66	C	0.825851	0.817745	0.666744
C67	C	0.190475	0.107256	0.000090
C68	C	0.523808	0.440589	0.333423
C69	C	0.857141	0.773923	0.666756
C70	C	0.171353	0.062922	0.000110
C71	C	0.504686	0.396256	0.333443
C72	C	0.838019	0.729589	0.666777
C73	C	0.133112	-0.025751	0.000162
C74	C	0.466445	0.307582	0.333496
C75	C	0.799779	0.640915	0.666829
C76	C	0.183529	-0.025235	0.000164
C77	C	0.516863	0.308099	0.333498
C78	C	0.850196	0.641432	0.666831
C79	C	0.202651	0.019103	0.000143
C80	C	0.535984	0.352436	0.333476
C81	C	0.869317	0.685769	0.666809
C82	C	0.253055	0.019612	0.000114
C83	C	0.586389	0.352946	0.333448
C84	C	0.919722	0.686279	0.666781
N85	N	0.272179	0.063947	0.000103
N86	N	0.605513	0.397281	0.333437
N87	N	0.938846	0.730614	0.666770
C88	C	0.240889	0.107769	0.000091
C89	C	0.574222	0.441103	0.333424
C90	C	0.907556	0.774436	0.666758
C91	C	-0.205714	0.014947	0.000141
C92	C	0.127620	0.348281	0.333475
C93	C	0.460953	0.681614	0.666808
C94	C	-0.256128	0.014434	0.000140
C95	C	0.077205	0.347768	0.333473
C96	C	0.410539	0.681101	0.666807
C97	C	-0.268295	0.102595	0.000115
C98	C	0.065039	0.435928	0.333449
C99	C	0.398372	0.769261	0.666782
C100	C	-0.217879	0.103107	0.000109
C101	C	0.115454	0.436440	0.333443
C102	C	0.448788	0.769774	0.666776
C103	C	-0.186590	0.059282	0.000130
C104	C	0.146744	0.392616	0.333463
C105	C	0.480077	0.725949	0.666797
C106	C	0.346759	0.108841	0.000073
C107	C	0.680092	0.442174	0.333406
C108	C	1.013425	0.775508	0.666740
C109	C	0.397176	0.109349	0.000061
C110	C	0.730509	0.442682	0.333394
C111	C	1.063843	0.776016	0.666728
C112	C	0.409338	0.021189	0.000091
C113	C	0.742672	0.354523	0.333424
C114	C	1.076005	0.687856	0.666758
C115	C	0.358925	0.020681	0.000098
C116	C	0.692259	0.354014	0.333431
C117	C	1.025592	0.687348	0.666764
C118	C	0.327636	0.064511	0.000092
C119	C	0.660970	0.397844	0.333426
C120	C	0.994303	0.731177	0.666759
O121	O	0.284340	-0.017589	0.000092
O122	O	0.617673	0.315744	0.333426
O123	O	0.951007	0.649078	0.666759
O124	O	0.261792	0.145521	0.000093
O125	O	0.595125	0.478854	0.333427
O126	O	0.928458	0.812187	0.666760
C127	C	0.039238	0.105720	0.000114
C128	C	0.372571	0.439053	0.333447
C129	C	0.705905	0.772387	0.666780
C130	C	0.020116	0.061386	0.000134
C131	C	0.353449	0.394720	0.333467
C132	C	0.686783	0.728053	0.666801
C133	C	0.051406	0.017564	0.000146
C134	C	0.384740	0.350898	0.333480
C135	C	0.718073	0.684231	0.666813
C136	C	-0.030298	0.060873	0.000133
C137	C	0.303035	0.394207	0.333466
C138	C	0.636368	0.727540	0.666800
C139	C	-0.061588	0.104695	0.000121
C140	C	0.271745	0.438028	0.333454
C141	C	0.605078	0.771362	0.666787
C142	C	-0.042464	0.149030	0.000109
C143	C	0.290869	0.482363	0.333443
C144	C	0.624202	0.815697	0.666776
C145	C	0.007948	0.149542	0.000101
C146	C	0.341281	0.482875	0.333435
C147	C	0.674614	0.816209	0.666768
C148	C	0.032282	-0.026770	0.000157
C149	C	0.365616	0.306563	0.333491
C150	C	0.698949	0.639896	0.666824
C151	C	-0.018130	-0.027279	0.000164
C152	C	0.315203	0.306054	0.333498
C153	C	0.648536	0.639388	0.666831
C154	C	-0.049421	0.016543	0.000152
C155	C	0.283913	0.349876	0.333485
C156	C	0.617246	0.683210	0.666819
C157	C	0.574712	-0.026511	0.000128
C158	C	0.908046	0.306822	0.333462
C159	C	1.241379	0.640156	0.666795
C160	C	0.574159	-0.080166	0.000137
C161	C	0.907493	0.253168	0.333470
C162	C	1.240826	0.586501	0.666803
C163	C	0.614864	-0.418982	0.000093
C164	C	0.948198	-0.085649	0.333427
C165	C	1.281531	0.247685	0.666760
C166	C	0.612814	-0.620642	0.000079
C167	C	0.946147	-0.287309	0.333412
C168	C	1.279481	0.046025	0.666745
O169	O	0.650036	-0.651899	0.000042
O170	O	0.983369	-0.318566	0.333376
O171	O	1.316702	0.014768	0.666709
N172	N	0.568479	-0.639766	0.000069
N173	N	0.901812	-0.306433	0.333403
N174	N	1.235146	0.026900	0.666736
C175	C	0.524654	-0.608472	0.000057
C176	C	0.857987	-0.275139	0.333390
C177	C	1.191320	0.058195	0.666724
O178	O	0.486898	-0.629366	0.000038
O179	O	0.820231	-0.296032	0.333371
O180	O	1.153564	0.037301	0.666705
C181	C	0.526705	-0.406813	0.000064
C182	C	0.860038	-0.073480	0.333398
C183	C	1.193372	0.259854	0.666731
C184	C	0.571043	-0.387692	0.000084
C185	C	0.904376	-0.054358	0.333417
C186	C	1.237709	0.278975	0.666751
C187	C	0.659198	-0.399860	0.000112
C188	C	0.992532	-0.066527	0.333445
C189	C	1.325865	0.266806	0.666779
C190	C	0.659710	-0.349448	0.000121
C191	C	0.993044	-0.016115	0.333454
C192	C	1.326377	0.317219	0.666788
C193	C	0.615888	-0.318158	0.000112
C194	C	0.949222	0.015176	0.333445
C195	C	1.282555	0.348509	0.666779
C196	C	0.571554	-0.337279	0.000093
C197	C	0.904888	-0.003946	0.333427
C198	C	1.238221	0.329387	0.666760
C199	C	0.482881	-0.375520	0.000045
C200	C	0.816214	-0.042187	0.333378
C201	C	1.149547	0.291147	0.666711
C202	C	0.483397	-0.325103	0.000044
C203	C	0.816731	0.008231	0.333377
C204	C	1.150064	0.341564	0.666711
C205	C	0.527735	-0.305981	0.000064
C206	C	0.861068	0.027352	0.333397
C207	C	1.194402	0.360685	0.666730
C208	C	0.528245	-0.255577	0.000093
C209	C	0.861578	0.077756	0.333427
C210	C	1.194911	0.411090	0.666760
N211	N	0.572579	-0.236453	0.000103
N212	N	0.905913	0.096881	0.333436
N213	N	1.239246	0.430214	0.666769
C214	C	0.616401	-0.267743	0.000112
C215	C	0.949735	0.065590	0.333445
C216	C	1.283068	0.398923	0.666779
C217	C	0.523580	-0.714346	0.000055
C218	C	0.856913	-0.381013	0.333388
C219	C	1.190247	-0.047679	0.666722
C220	C	0.523067	-0.764760	0.000055
C221	C	0.856400	-0.431427	0.333388
C222	C	1.189734	-0.098094	0.666722
C223	C	0.611227	-0.776927	0.000075
C224	C	0.944561	-0.443594	0.333408
C225	C	1.277894	-0.110261	0.666741
C226	C	0.611740	-0.726512	0.000082
C227	C	0.945073	-0.393178	0.333415
C228	C	1.278406	-0.059845	0.666749
C229	C	0.567915	-0.695222	0.000064
C230	C	0.901248	-0.361889	0.333398
C231	C	1.234581	-0.028555	0.666731
C232	C	0.617473	-0.161873	0.000132
C233	C	0.950807	0.171460	0.333466
C234	C	1.284140	0.504793	0.666799
C235	C	0.617981	-0.111456	0.000146
C236	C	0.951315	0.221877	0.333479
C237	C	1.284648	0.555211	0.666812
C238	C	0.529821	-0.099294	0.000121
C239	C	0.863155	0.234040	0.333454
C240	C	1.196488	0.567373	0.666787
C241	C	0.529313	-0.149707	0.000113
C242	C	0.862646	0.183627	0.333446
C243	C	1.195980	0.516960	0.666779
C244	C	0.573143	-0.180996	0.000115
C245	C	0.906476	0.152338	0.333448
C246	C	1.239810	0.485671	0.666782
O247	O	0.491043	-0.224292	0.000118
O248	O	0.824376	0.109041	0.333451
O249	O	1.157710	0.442375	0.666785
O250	O	0.654153	-0.246841	0.000108
O251	O	0.987486	0.086493	0.333441
O252	O	1.320820	0.419826	0.666775
C253	C	0.614352	-0.469394	0.000084
C254	C	0.947686	-0.136061	0.333417
C255	C	1.281019	0.197272	0.666751
C256	C	0.570019	-0.488516	0.000066
C257	C	0.903352	-0.155183	0.333399
C258	C	1.236685	0.178150	0.666732
C259	C	0.526197	-0.457226	0.000056
C260	C	0.859530	-0.123892	0.333390
C261	C	1.192863	0.209441	0.666723
C262	C	0.569506	-0.538931	0.000065
C263	C	0.902839	-0.205597	0.333399
C264	C	1.236172	0.127736	0.666732
C265	C	0.613327	-0.570221	0.000075
C266	C	0.946661	-0.236888	0.333408
C267	C	1.279994	0.096446	0.666741
C268	C	0.657662	-0.551097	0.000084
C269	C	0.990996	-0.217764	0.333417
C270	C	1.324329	0.115570	0.666751
C271	C	0.658174	-0.500685	0.000093
C272	C	0.991508	-0.167351	0.333427
C273	C	1.324841	0.165982	0.666760
C274	C	0.481862	-0.476350	0.000047
C275	C	0.815195	-0.143016	0.333380
C276	C	1.148528	0.190317	0.666714
C277	C	0.481353	-0.526763	0.000039
C278	C	0.814687	-0.193429	0.333372
C279	C	1.148020	0.139904	0.666706
C280	C	0.525175	-0.558053	0.000048
C281	C	0.858509	-0.224720	0.333381
C282	C	1.191842	0.108614	0.666715
C283	C	0.658927	0.057703	0.000123
C284	C	0.992260	0.391037	0.333456
C285	C	1.325594	0.724370	0.666789
C286	C	0.712582	0.058256	0.000128
C287	C	1.045915	0.391590	0.333461
C288	C	1.379248	0.724923	0.666794
C289	C	0.566336	0.150295	0.000079
C290	C	0.899669	0.483628	0.333413
C291	C	1.233002	0.816961	0.666746
C292	C	0.566889	0.203949	0.000064
C293	C	0.900222	0.537282	0.333398
C294	C	1.233555	0.870616	0.666731
N295	N	0.562170	0.070263	0.265624
N296	N	0.895503	0.403596	0.598957
N297	N	1.228836	0.736930	0.932290
N298	N	0.578882	0.053517	-0.265414
N299	N	0.912215	0.386850	0.067920
N300	N	1.245549	0.720184	0.401253
C301	C	0.555611	0.076841	0.474663
C302	C	0.888945	0.410174	0.807996
C303	C	1.222278	0.743507	1.141330
C304	C	0.585439	0.046941	0.525553
C305	C	0.918772	0.380274	0.858887
C306	C	1.252105	0.713608	1.192220
C307	C	0.581790	0.050601	0.641870
C308	C	0.915123	0.383934	0.975203
C309	C	1.248456	0.717267	1.308537
C310	C	0.559260	0.073181	0.358336
C311	C	0.892593	0.406515	0.691669
C312	C	1.225926	0.739848	1.025003
H313	H	0.412742	0.145455	0.000043
H314	H	0.746075	0.478789	0.333376
H315	H	1.079408	0.812122	0.666709
H316	H	0.695815	-0.333885	0.000133
H317	H	1.029148	-0.000551	0.333466
H318	H	1.362481	0.332782	0.666800
C319	C	0.660514	-0.705484	0.000095
C320	C	0.993847	-0.372150	0.333428
C321	C	1.327181	-0.038817	0.666761
N322	N	0.697253	-0.689648	0.000101
N323	N	1.030586	-0.356315	0.333434
N324	N	1.363920	-0.022981	0.666767
C325	C	0.706950	-0.479659	0.000108
C326	C	1.040283	-0.146325	0.333442
C327	C	1.373616	0.187008	0.666775
N328	N	0.743690	-0.463825	0.000117
N329	N	1.077023	-0.130492	0.333450
N330	N	1.410357	0.202841	0.666783
H331	H	0.321288	0.144532	0.000072
H332	H	0.654622	0.477865	0.333405
H333	H	0.987955	0.811198	0.666739
H334	H	0.446176	-0.450878	0.000037
H335	H	0.779509	-0.117544	0.333370
H336	H	1.112843	0.215789	0.666704
H337	H	0.613715	0.018595	0.481765
H338	H	0.947049	0.351928	0.815098
H339	H	1.280382	0.685261	1.148432
C340	C	0.517413	0.115133	0.533816
C341	C	0.850746	0.448466	0.867149
C342	C	1.184079	0.781799	1.200483
N343	N	0.488642	0.143974	0.578382
N344	N	0.821976	0.477308	0.911715
N345	N	1.155309	0.810641	1.245049
H346	H	0.174748	0.187182	0.000059
H347	H	0.508081	0.520515	0.333393
H348	H	0.841415	0.853849	0.666726
H349	H	-0.293780	0.138276	0.000106
H350	H	0.039553	0.471609	0.333439
H351	H	0.372887	0.804943	0.666772
H352	H	-0.033693	-0.063387	0.000174
H353	H	0.299640	0.269947	0.333507
H354	H	0.632973	0.603280	0.666840
C355	C	0.480540	-0.170740	0.000098
C356	C	0.813873	0.162593	0.333431
C357	C	1.147206	0.495926	0.666764
N358	N	0.443803	-0.186580	0.000075
N359	N	0.777136	0.146753	0.333409
N360	N	1.110470	0.480087	0.666742
C361	C	0.074360	0.198778	0.000076
C362	C	0.407693	0.532111	0.333409
C363	C	0.741026	0.865445	0.666742
N364	N	0.048443	0.235094	0.000062
N365	N	0.381776	0.568428	0.333396
N366	N	0.715110	0.901761	0.666729
H367	H	0.434824	-0.014489	0.000097
H368	H	0.768157	0.318844	0.333430
H369	H	1.101490	0.652177	0.666764
C370	C	0.705867	-0.585526	0.000092
C371	C	1.039200	-0.252193	0.333426
C372	C	1.372533	0.081141	0.666759
N373	N	0.742172	-0.611461	0.000092
N374	N	1.075505	-0.278127	0.333426
N375	N	1.408839	0.055206	0.666759
C376	C	0.217946	-0.073447	0.000183
C377	C	0.551279	0.259887	0.333516
C378	C	0.884612	0.593220	0.666849
N379	N	0.243867	-0.109760	0.000193
N380	N	0.577200	0.223573	0.333526
N381	N	0.910534	0.556907	0.666859
C382	C	0.474292	-0.785787	0.000046
C383	C	0.807625	-0.452454	0.333379
C384	C	1.140959	-0.119121	0.666713
N385	N	0.437553	-0.801623	0.000033
N386	N	0.770886	-0.468290	0.333366
N387	N	1.104220	-0.134956	0.666699
H388	H	-0.271691	-0.021670	0.000141
H389	H	0.061642	0.311663	0.333475
H390	H	0.394975	0.644997	0.666808
C391	C	-0.196851	0.151881	0.000097
C392	C	0.136482	0.485215	0.333430
C393	C	0.469816	0.818548	0.666763
N394	N	-0.181016	0.188620	0.000092
N395	N	0.152318	0.521954	0.333425
N396	N	0.485651	0.855287	0.666759
H397	H	-0.180241	-0.020742	0.000158
H398	H	0.153092	0.312591	0.333492
H399	H	0.486425	0.645925	0.666825
H400	H	0.117553	-0.061856	0.000181
H401	H	0.450886	0.271478	0.333514
H402	H	0.784219	0.604811	0.666847
C403	C	0.066696	-0.074981	0.000166
C404	C	0.400029	0.258352	0.333499
C405	C	0.733362	0.591686	0.666833
N406	N	0.092614	-0.111297	0.000166
N407	N	0.425948	0.222037	0.333500
N408	N	0.759281	0.555370	0.666833
H409	H	0.343357	-0.015423	0.000100
H410	H	0.676690	0.317911	0.333434
H411	H	1.010023	0.651244	0.666767
H412	H	0.487890	-0.688874	0.000041
H413	H	0.821224	-0.355540	0.333374
H414	H	1.154557	-0.022207	0.666708
H415	H	0.023511	0.185646	0.000085
H416	H	0.356845	0.518979	0.333419
H417	H	0.690178	0.852313	0.666752
C418	C	-0.076894	0.197234	0.000100
C419	C	0.256440	0.530567	0.333433
C420	C	0.589773	0.863901	0.666766
N421	N	-0.102828	0.233540	0.000100
N422	N	0.230505	0.566873	0.333433
N423	N	0.563839	0.900206	0.666766
C424	C	0.665688	-0.196284	0.000144
C425	C	0.999022	0.137049	0.333478
C426	C	1.332355	0.470382	0.666811
N427	N	0.702004	-0.222202	0.000162
N428	N	1.035337	0.111131	0.333495
N429	N	1.368670	0.444465	0.666829
H430	H	0.654088	-0.095890	0.000164
H431	H	0.987421	0.237443	0.333498
H432	H	1.320754	0.570776	0.666831
H433	H	0.694886	-0.425333	0.000116
H434	H	1.028219	-0.091999	0.333449
H435	H	1.361552	0.241334	0.666782
C436	C	0.435185	-0.290686	0.000028
C437	C	0.768519	0.042647	0.333361
C438	C	1.101852	0.375980	0.666695
N439	N	0.398872	-0.264765	0.000020
N440	N	0.732205	0.068568	0.333353
N441	N	1.065538	0.401902	0.666687
H442	H	0.646909	-0.802413	0.000083
H443	H	0.980242	-0.469079	0.333416
H444	H	1.313575	-0.135746	0.666749
C445	C	0.434105	-0.396542	0.000016
C446	C	0.767439	-0.063209	0.333349
C447	C	1.100772	0.270125	0.666683
N448	N	0.397365	-0.412374	-0.000009
N449	N	0.730698	-0.079041	0.333324
N450	N	1.064032	0.254292	0.666658
H451	H	0.494143	-0.073808	0.000117
H452	H	0.827476	0.259525	0.333450
H453	H	1.160809	0.592859	0.666783
H454	H	0.445245	-0.542326	0.000032
H455	H	0.778579	-0.208992	0.333365
H456	H	1.111912	0.124341	0.666698
