data_functionalizedCrystal
_audit_creation_method	'MofGen! by Chris Wilmer'
_symmetry_space_group_name_H-M	'P1'
_symmetry_Int_Tables_number	1
_symmetry_cell_setting	triclinic
loop_
_symmetry_equiv_pos_as_xyz
  x,y,z
_cell_length_a	16.109298
_cell_length_b	14.971507
_cell_length_c	14.048226
_cell_angle_alpha	89.994195
_cell_angle_beta	89.997285
_cell_angle_gamma	96.458575
loop_
_atom_site_label
_atom_site_type_symbol
_atom_site_fract_x
_atom_site_fract_y
_atom_site_fract_z
O1	O	0.108426	-1.186776	0.079173
O2	O	0.441760	-0.853443	0.412507
O3	O	0.775093	-0.520109	0.745840
O4	O	0.121383	-0.926360	0.079169
O5	O	0.454716	-0.593026	0.412502
O6	O	0.788050	-0.259693	0.745835
O7	O	-0.006117	-1.063723	0.079178
O8	O	0.327216	-0.730390	0.412511
O9	O	0.660550	-0.397056	0.745845
O10	O	0.235926	-1.049412	0.079164
O11	O	0.569260	-0.716079	0.412497
O12	O	0.902593	-0.382746	0.745831
O13	O	-0.006116	-1.063710	-0.079143
O14	O	0.327217	-0.730377	0.254190
O15	O	0.660551	-0.397043	0.587523
O16	O	0.121384	-0.926347	-0.079153
O17	O	0.454717	-0.593013	0.254181
O18	O	0.788051	-0.259680	0.587514
O19	O	0.108427	-1.186763	-0.079148
O20	O	0.441761	-0.853430	0.254185
O21	O	0.775094	-0.520096	0.587519
Zn22	Zn	0.114906	-1.056553	-0.104287
Zn23	Zn	0.448239	-0.723219	0.229046
Zn24	Zn	0.781573	-0.389886	0.562379
Zn25	Zn	0.114904	-1.056570	0.104308
Zn26	Zn	0.448238	-0.723236	0.437641
Zn27	Zn	0.781571	-0.389903	0.770975
O28	O	0.235928	-1.049399	-0.079157
O29	O	0.569261	-0.716066	0.254176
O30	O	0.902594	-0.382733	0.587509
C31	C	0.120801	-0.893030	0.000007
C32	C	0.454134	-0.559696	0.333341
C33	C	0.787468	-0.226363	0.666674
C34	C	0.119055	-0.793736	0.000006
C35	C	0.452389	-0.460403	0.333340
C36	C	0.785722	-0.127069	0.666673
C37	C	0.187297	-0.355354	0.000006
C38	C	0.520630	-0.022021	0.333339
C39	C	0.853964	0.311312	0.666672
C40	C	0.188931	-0.448652	0.000011
C41	C	0.522264	-0.115319	0.333344
C42	C	0.855598	0.218015	0.666678
C43	C	0.114020	-0.505981	0.000012
C44	C	0.447353	-0.172648	0.333345
C45	C	0.780686	0.160686	0.666678
C46	C	0.037470	-0.470008	0.000017
C47	C	0.370803	-0.136674	0.333350
C48	C	0.704136	0.196659	0.666684
C49	C	0.035837	-0.376712	0.000018
C50	C	0.369170	-0.043378	0.333352
C51	C	0.702503	0.289955	0.666685
C52	C	0.040878	-0.664466	0.000012
C53	C	0.374212	-0.331132	0.333345
C54	C	0.707545	0.002201	0.666678
C55	C	0.042511	-0.757769	0.000008
C56	C	0.375844	-0.424435	0.333342
C57	C	0.709178	-0.091102	0.666675
C58	C	0.193973	-0.736406	0.000004
C59	C	0.527306	-0.403073	0.333338
C60	C	0.860639	-0.069740	0.666671
C61	C	0.192340	-0.643110	0.000006
C62	C	0.525673	-0.309777	0.333339
C63	C	0.859006	0.023557	0.666672
C64	C	0.115789	-0.607144	0.000009
C65	C	0.449123	-0.273810	0.333342
C66	C	0.782456	0.059523	0.666676
C67	C	-0.037092	-1.063137	0.000021
C68	C	0.296241	-0.729804	0.333354
C69	C	0.629574	-0.396471	0.666688
C70	C	-0.129390	-1.061401	0.000032
C71	C	0.203943	-0.728068	0.333365
C72	C	0.537277	-0.394734	0.666699
C73	C	-0.428467	-1.055741	0.086313
C74	C	-0.095134	-0.722408	0.419646
C75	C	0.238200	-0.389075	0.752980
C76	C	-0.341745	-1.057385	0.086320
C77	C	-0.008411	-0.724052	0.419653
C78	C	0.324922	-0.390718	0.752986
C79	C	-0.341729	-1.057384	-0.086291
C80	C	-0.008396	-0.724050	0.247043
C81	C	0.324938	-0.390717	0.580376
C82	C	-0.428450	-1.055747	-0.086297
C83	C	-0.095117	-0.722413	0.247037
C84	C	0.238216	-0.389080	0.580370
C85	C	-0.471816	-1.054921	0.000008
C86	C	-0.138483	-0.721587	0.333342
C87	C	0.194850	-0.388254	0.666675
C88	C	-0.298373	-1.058202	0.000021
C89	C	0.034960	-0.724868	0.333354
C90	C	0.368294	-0.391535	0.666687
C91	C	-0.204345	-1.059984	0.000027
C92	C	0.128988	-0.726651	0.333361
C93	C	0.462321	-0.393317	0.666694
C94	C	-0.565851	-1.053140	0.000002
C95	C	-0.232517	-0.719807	0.333335
C96	C	0.100816	-0.386473	0.666668
C97	C	0.266903	-1.049985	0.000002
C98	C	0.600236	-0.716652	0.333335
C99	C	0.933569	-0.383318	0.666668
C100	C	0.359200	-1.051722	-0.000003
C101	C	0.692534	-0.718388	0.333330
C102	C	1.025867	-0.385055	0.666663
C103	C	0.109009	-0.220093	0.000011
C104	C	0.442342	0.113240	0.333345
C105	C	0.775675	0.446574	0.666678
C106	C	0.110753	-0.319387	0.000008
C107	C	0.444086	0.013946	0.333341
C108	C	0.777420	0.347280	0.666674
N109	N	0.114906	-1.056548	-0.246648
N110	N	0.448240	-0.723214	0.086685
N111	N	0.781573	-0.389881	0.420019
C112	C	0.064384	-1.002354	-0.703513
C113	C	0.397717	-0.669020	-0.370180
C114	C	0.731050	-0.335687	-0.036847
C115	C	0.064381	-1.002350	-0.603856
C116	C	0.397714	-0.669017	-0.270522
C117	C	0.731048	-0.335684	0.062811
C118	C	0.114897	-1.056571	-0.554018
C119	C	0.448231	-0.723238	-0.220685
C120	C	0.781564	-0.389904	0.112649
C121	C	0.165413	-1.110806	-0.603843
C122	C	0.498746	-0.777472	-0.270510
C123	C	0.832080	-0.444139	0.062824
C124	C	0.165411	-1.110813	-0.703499
C125	C	0.498744	-0.777480	-0.370165
C126	C	0.832077	-0.444147	-0.036832
C127	C	0.165416	-1.110785	-0.396129
C128	C	0.498750	-0.777451	-0.062795
C129	C	0.832083	-0.444118	0.270538
C130	C	0.165420	-1.110776	-0.296466
C131	C	0.498754	-0.777443	0.036867
C132	C	0.832087	-0.444109	0.370201
C133	C	0.064387	-1.002322	-0.296486
C134	C	0.397720	-0.668988	0.036848
C135	C	0.731053	-0.335655	0.370181
C136	C	0.064384	-1.002329	-0.396142
C137	C	0.397718	-0.668996	-0.062808
C138	C	0.731051	-0.335662	0.270525
C139	C	0.114901	-1.056563	-0.445960
C140	C	0.448235	-0.723229	-0.112626
C141	C	0.781568	-0.389896	0.220707
N142	N	0.114897	-1.056582	0.246669
N143	N	0.448231	-0.723249	0.580002
N144	N	0.781564	-0.389915	0.913335
H145	H	0.251261	-0.477932	0.000018
H146	H	0.584594	-0.144598	0.333351
H147	H	0.917927	0.188735	0.666685
H148	H	0.206558	-1.154924	-0.255891
H149	H	0.539891	-0.821591	0.077443
H150	H	0.873224	-0.488258	0.410776
H151	H	-0.021457	-0.635186	0.000019
H152	H	0.311876	-0.301852	0.333352
H153	H	0.645210	0.031481	0.666686
Cl154	Cl	-0.287252	-1.058420	0.194823
Cl155	Cl	0.046081	-0.725086	0.528156
Cl156	Cl	0.379415	-0.391753	0.861489
H157	H	0.023256	-0.958161	-0.255919
H158	H	0.356589	-0.624827	0.077414
H159	H	0.689922	-0.291494	0.410748
H160	H	-0.463773	-1.055068	0.156588
H161	H	-0.130440	-0.721735	0.489921
H162	H	0.202894	-0.388401	0.823255
H163	H	-0.306410	-1.058055	-0.156557
H164	H	0.026924	-0.724721	0.176776
H165	H	0.360257	-0.391388	0.510110
H166	H	-0.023524	-0.516693	0.000023
H167	H	0.309809	-0.183359	0.333357
H168	H	0.643142	0.149974	0.666690
H169	H	-0.463747	-1.055081	-0.156581
H170	H	-0.130414	-0.721748	0.176753
H171	H	0.202920	-0.388414	0.510086
Cl172	Cl	0.281477	-0.283292	-0.000003
Cl173	Cl	0.614811	0.050041	0.333330
Cl174	Cl	0.948144	0.383374	0.666664
Cl175	Cl	0.000878	-0.934182	-0.766157
Cl176	Cl	0.334211	-0.600848	-0.432823
Cl177	Cl	0.667544	-0.267515	-0.099490
H178	H	0.253339	-0.596435	-0.000001
H179	H	0.586672	-0.263101	0.333332
H180	H	0.920006	0.070232	0.666665
Cl181	Cl	0.228916	-1.178974	-0.541190
Cl182	Cl	0.562249	-0.845641	-0.207856
Cl183	Cl	0.895582	-0.512307	0.125477
Cl184	Cl	0.000901	-0.934146	-0.541231
Cl185	Cl	0.334235	-0.600812	-0.207898
Cl186	Cl	0.667568	-0.267479	0.125435
Cl187	Cl	0.290207	-0.781621	-0.000010
Cl188	Cl	0.623541	-0.448287	0.333323
Cl189	Cl	0.956874	-0.114954	0.666656
Cl190	Cl	0.000884	-0.934157	-0.458794
Cl191	Cl	0.334217	-0.600824	-0.125460
Cl192	Cl	0.667551	-0.267491	0.207873
H193	H	-0.018488	-0.804444	0.000017
H194	H	0.314845	-0.471111	0.333350
H195	H	0.648178	-0.137777	0.666684
Cl196	Cl	0.228921	-1.178969	-0.458756
Cl197	Cl	0.562255	-0.845635	-0.125422
Cl198	Cl	0.895588	-0.512302	0.207911
H199	H	0.206544	-1.154972	-0.744059
H200	H	0.539877	-0.821639	-0.410726
H201	H	0.873210	-0.488305	-0.077393
H202	H	-0.026493	-0.347429	0.000022
H203	H	0.306840	-0.014096	0.333355
H204	H	0.640173	0.319237	0.666689
