data_functionalizedCrystal
_audit_creation_method	'MofGen! by Chris Wilmer'
_symmetry_space_group_name_H-M	'P1'
_symmetry_Int_Tables_number	1
_symmetry_cell_setting	triclinic
loop_
_symmetry_equiv_pos_as_xyz
  x,y,z
_cell_length_a	10.723024
_cell_length_b	16.109301
_cell_length_c	14.586319
_cell_angle_alpha	90.005214
_cell_angle_beta	90.003205
_cell_angle_gamma	83.964675
loop_
_atom_site_label
_atom_site_type_symbol
_atom_site_fract_x
_atom_site_fract_y
_atom_site_fract_z
O1	O	-1.655641	-0.116608	-0.076238
O2	O	-1.292341	-0.127770	-0.076241
O3	O	-1.483971	-0.001217	-0.076230
O4	O	-1.464011	-0.243161	-0.076249
O5	O	-1.483958	-0.001215	0.076251
O6	O	-1.292328	-0.127768	0.076240
O7	O	-1.655628	-0.116606	0.076243
Cu8	Cu	-1.473977	-0.122187	0.090164
Cu9	Cu	-1.473992	-0.122189	-0.090162
O10	O	-1.463998	-0.243159	0.076232
C11	C	-1.245845	-0.126956	-0.000001
C12	C	-1.107323	-0.124526	-0.000002
C13	C	-1.483156	0.029764	0.000011
C14	C	-1.480732	0.122074	0.000012
C15	C	-1.702123	-0.117419	0.000001
C16	C	-1.840645	-0.119850	-0.000004
C17	C	-1.031402	-0.195339	-0.000008
C18	C	-0.888232	-0.192829	-0.000009
C19	C	-1.464813	-0.274140	-0.000011
C20	C	-1.467237	-0.366449	-0.000018
N21	N	-1.473975	-0.122185	0.216996
C22	C	-1.588805	0.343710	-0.000001
C23	C	-1.586518	0.430444	-0.000009
C24	C	-1.359155	0.411907	-0.000007
C25	C	-1.361444	0.325175	-0.000006
C26	C	-1.476272	0.291079	0.000001
C27	C	-1.471696	0.464545	-0.000007
C28	C	-1.469215	0.558586	-0.000015
C29	C	-1.478754	0.197032	0.000008
N30	N	-1.474004	-0.122185	-0.216994
C31	C	-1.558857	-0.066166	0.452007
C32	C	-1.558860	-0.066164	0.547989
C33	C	-1.389113	-0.178206	0.547988
C34	C	-1.389104	-0.178203	0.452009
C35	C	-1.473983	-0.122184	0.404021
C36	C	-1.473995	-0.122185	0.595981
C37	C	-1.473999	-0.122183	0.700049
C38	C	-1.473979	-0.122185	0.299947
H39	H	-1.072396	-0.257822	-0.000008
H40	H	-1.627968	-0.020551	0.412938
H41	H	-1.678154	0.473293	-0.000013
O42	O	-0.810238	-0.265075	0.000023
C43	C	-0.684654	-0.246486	-0.000003
H44	H	-0.679808	-0.181141	0.028871
H45	H	-0.647023	-0.249392	-0.073157
C46	C	-0.610805	-0.390779	0.024323
C47	C	-0.604852	-0.310525	0.059793
H48	H	-0.561577	-0.430283	0.061204
H49	H	-0.695413	-0.403305	0.024337
H50	H	-0.579448	-0.393189	-0.036638
H51	H	-0.636224	-0.308113	0.120749
H52	H	-0.520247	-0.298000	0.059791
H53	H	-0.905874	-0.059225	-0.000005
H54	H	-1.066329	-0.062043	-0.000021
O55	O	-1.700454	0.310725	-0.000046
C56	C	-1.799286	0.375782	-0.000030
H57	H	-1.764323	0.434888	-0.028894
H58	H	-1.834002	0.387862	0.073120
C59	C	-1.950520	0.278091	-0.024384
C60	C	-1.907581	0.350684	-0.059843
H61	H	-2.017324	0.262610	-0.061276
H62	H	-1.883936	0.234261	-0.024391
H63	H	-1.979440	0.288168	0.036574
H64	H	-1.878646	0.340604	-0.120795
H65	H	-1.974163	0.394513	-0.059848
O66	O	-1.306827	-0.232662	0.405289
C67	C	-1.373627	-0.284370	0.349774
H68	H	-1.471278	-0.251847	0.335394
H69	H	-1.382082	-0.345870	0.386754
C70	C	-1.183329	-0.341655	0.276269
C71	C	-1.303262	-0.301706	0.258600
H72	H	-1.139923	-0.352353	0.220029
H73	H	-1.138323	-0.306821	0.313672
H74	H	-1.190392	-0.392901	0.307087
H75	H	-1.296198	-0.250457	0.227792
H76	H	-1.348265	-0.336532	0.221189
H77	H	-1.265665	0.439679	-0.000012
H78	H	-1.269800	0.282321	-0.000007
O79	O	-1.641429	-0.011719	0.594460
C80	C	-1.716315	0.037737	0.531519
H81	H	-1.717703	0.003639	0.463099
H82	H	-1.675829	0.099747	0.521320
C83	C	-1.849225	0.095933	0.653004
C84	C	-1.850939	0.054051	0.568971
H85	H	-1.932266	0.106001	0.676107
H86	H	-1.798771	0.062617	0.695410
H87	H	-1.815481	0.147604	0.644493
H88	H	-1.884667	0.002378	0.577485
H89	H	-1.901402	0.087360	0.526568
O90	O	-1.306795	-0.232595	0.594747
C91	C	-1.324981	-0.220574	0.689752
H92	H	-1.424197	-0.190101	0.702856
H93	H	-1.254376	-0.178448	0.717004
C94	C	-1.184341	-0.342941	0.722923
C95	C	-1.306203	-0.305520	0.739017
H96	H	-1.172752	-0.395338	0.753313
H97	H	-1.172084	-0.351038	0.658916
H98	H	-1.125517	-0.307827	0.745633
H99	H	-1.365024	-0.340628	0.716297
H100	H	-1.318470	-0.297430	0.803021
