data_functionalizedCrystal
_audit_creation_method	'MofGen! by Chris Wilmer'
_symmetry_space_group_name_H-M	'P1'
_symmetry_Int_Tables_number	1
_symmetry_cell_setting	triclinic
loop_
_symmetry_equiv_pos_as_xyz
  x,y,z
_cell_length_a	23.532407
_cell_length_b	10.654550
_cell_length_c	9.730223
_cell_angle_alpha	90.000193
_cell_angle_beta	89.997356
_cell_angle_gamma	96.333210
loop_
_atom_site_label
_atom_site_type_symbol
_atom_site_fract_x
_atom_site_fract_y
_atom_site_fract_z
O1	O	0.756249	-0.152433	-0.114364
O2	O	0.590530	-0.174490	-0.114349
O3	O	0.677200	0.019399	-0.114352
O4	O	0.669579	-0.346321	-0.114361
O5	O	0.677199	0.019394	0.114228
O6	O	0.590529	-0.174495	0.114231
O7	O	0.756248	-0.152438	0.114216
Zn8	Zn	0.673388	-0.163467	0.150515
Zn9	Zn	0.673390	-0.163461	-0.150649
O10	O	0.669578	-0.346326	0.114219
C11	C	0.569310	-0.173931	-0.000057
C12	C	0.506081	-0.172242	-0.000052
C13	C	0.777469	-0.152997	-0.000079
C14	C	0.840697	-0.154686	-0.000094
C15	C	0.676640	0.066176	-0.000064
C16	C	0.674966	0.205567	-0.000068
C17	C	1.239121	-0.050539	-0.000043
C18	C	1.298532	-0.052107	-0.000037
O19	O	1.334647	0.044438	0.000015
N20	N	1.321909	-0.167374	-0.000044
C21	C	1.285872	-0.281079	-0.000043
O22	O	1.311211	-0.379266	-0.000047
C23	C	1.226463	-0.279509	-0.000039
C24	C	1.203089	-0.164235	-0.000046
C25	C	1.215747	0.064726	-0.000049
C26	C	1.156341	0.066294	-0.000057
C27	C	1.120308	-0.047402	-0.000060
C28	C	1.143683	-0.162667	-0.000055
C29	C	1.190427	-0.393213	-0.000029
C30	C	1.131014	-0.391633	-0.000024
C31	C	1.107641	-0.276359	-0.000031
C32	C	1.048244	-0.274795	-0.000067
N33	N	1.024867	-0.159529	-0.000060
C34	C	1.060899	-0.045832	-0.000057
C35	C	1.410636	-0.284368	-0.000049
C36	C	1.470044	-0.285939	-0.000062
C37	C	1.482700	-0.056967	-0.000054
C38	C	1.423290	-0.055397	-0.000050
C39	C	1.387259	-0.169101	-0.000042
C40	C	0.936141	-0.042548	-0.000076
C41	C	0.876729	-0.040989	-0.000090
C42	C	0.864078	-0.269961	-0.000092
C43	C	0.923485	-0.271520	-0.000085
C44	C	0.959516	-0.157803	-0.000072
O45	O	1.012094	-0.371290	-0.000113
O46	O	1.035552	0.052339	-0.000035
C47	C	0.670138	-0.393104	-0.000073
C48	C	0.671812	-0.532494	-0.000077
N49	N	0.673392	-0.163471	0.356052
C50	C	0.725996	0.286669	-0.000069
C51	C	0.724419	0.417640	-0.000078
C52	C	0.620779	0.386393	-0.000081
C53	C	0.622356	0.255425	-0.000081
C54	C	0.778606	0.236811	-0.000055
C55	C	0.829640	0.317915	-0.000054
C56	C	0.828064	0.448886	-0.000064
C57	C	0.775453	0.498753	-0.000074
N58	N	0.673391	-0.163447	-0.356185
C59	C	0.711779	-0.077645	0.427977
C60	C	0.711778	-0.077630	0.571859
C61	C	0.634999	-0.249276	0.571880
C62	C	0.634999	-0.249285	0.428000
C63	C	0.750172	0.008169	0.356029
C64	C	0.788563	0.094000	0.427954
C65	C	0.788562	0.094015	0.571837
C66	C	0.750169	0.008199	0.643794
H67	H	0.857702	0.052884	-0.000100
Br68	Br	0.897322	0.558953	-0.000082
H69	H	0.965470	0.050052	-0.000066
H70	H	0.603739	-0.319170	0.369438
H71	H	1.137316	0.160162	-0.000057
H72	H	0.750178	0.008162	0.238872
Br73	Br	0.840658	0.210473	0.330303
Br74	Br	0.780748	0.059066	-0.000033
H75	H	1.245079	0.157317	-0.000042
Br76	Br	1.501758	-0.442388	-0.000088
Br77	Br	0.815167	-0.424256	-0.000107
Br78	Br	0.750163	0.008239	0.839066
H79	H	0.819817	0.163910	0.630396
Br80	Br	0.582899	-0.365735	0.669535
Br81	Br	0.773315	0.676501	-0.000023
H82	H	1.381302	-0.376965	-0.000052
H83	H	0.577945	0.427006	-0.000088
H84	H	0.872474	0.277304	-0.000080
Br85	Br	1.082117	-0.545955	-0.000002
Br86	Br	1.391576	0.101051	-0.000056
H87	H	1.512048	0.035611	-0.000051
H88	H	1.209447	-0.487081	-0.000029
H89	H	0.942517	-0.365385	-0.000081
Br90	Br	0.553100	0.145348	-0.000087
