data_functionalizedCrystal
_audit_creation_method	'MofGen! by Chris Wilmer'
_symmetry_space_group_name_H-M	'P1'
_symmetry_Int_Tables_number	1
_symmetry_cell_setting	triclinic
loop_
_symmetry_equiv_pos_as_xyz
  x,y,z
_cell_length_a	17.000371
_cell_length_b	15.995350
_cell_length_c	14.472310
_cell_angle_alpha	89.998838
_cell_angle_beta	89.986849
_cell_angle_gamma	100.454189
loop_
_atom_site_label
_atom_site_type_symbol
_atom_site_fract_x
_atom_site_fract_y
_atom_site_fract_z
O1	O	1.056113	-0.030165	-0.076844
O2	O	1.556113	0.469835	0.423156
O3	O	0.824380	-0.060553	-0.076843
O4	O	1.324380	0.439447	0.423157
O5	O	0.946581	0.076995	-0.076843
O6	O	1.446581	0.576995	0.423157
O7	O	0.933912	-0.167713	-0.076844
O8	O	1.433912	0.332287	0.423156
O9	O	0.946550	0.076985	0.076839
O10	O	1.446550	0.576985	0.576839
O11	O	0.824349	-0.060563	0.076839
O12	O	1.324349	0.439437	0.576839
O13	O	1.056082	-0.030174	0.076838
O14	O	1.556082	0.469826	0.576838
Cu15	Cu	0.940212	-0.045370	0.090871
Cu16	Cu	1.440212	0.454630	0.590871
Cu17	Cu	0.940250	-0.045358	-0.090876
Cu18	Cu	1.440250	0.454642	0.409124
O19	O	0.933881	-0.167723	0.076838
O20	O	1.433881	0.332277	0.576838
C21	C	0.794711	-0.062191	-0.000002
C22	C	1.294711	0.437809	0.499998
C23	C	0.706352	-0.067044	-0.000002
C24	C	1.206352	0.432956	0.499998
C25	C	0.674327	0.007647	-0.000000
C26	C	1.174327	0.507647	0.500000
C27	C	0.591304	0.003082	-0.000007
C28	C	1.091304	0.503082	0.499993
C29	C	0.540308	-0.076176	-0.000009
C30	C	1.040308	0.423824	0.499991
C31	C	0.572338	-0.150873	-0.000014
C32	C	1.072338	0.349127	0.499986
C33	C	0.655360	-0.146307	-0.000014
C34	C	1.155360	0.353693	0.499986
C35	C	0.289162	-0.093814	-0.000015
C36	C	0.789162	0.406186	0.499985
C37	C	0.206135	-0.098375	-0.000013
C38	C	0.706135	0.401625	0.499987
C39	C	0.225106	0.055580	-0.000007
C40	C	0.725106	0.555580	0.499993
C41	C	0.308129	0.060139	-0.000002
C42	C	0.808129	0.560139	0.499998
C43	C	0.340152	-0.014557	-0.000011
C44	C	0.840152	0.485443	0.499989
C45	C	0.455445	-0.080845	-0.000013
C46	C	0.955445	0.419155	0.499987
C47	C	0.425014	-0.009888	-0.000014
C48	C	0.925014	0.490112	0.499986
C49	C	0.946042	0.108146	-0.000003
C50	C	1.446042	0.608146	0.499997
C51	C	0.944472	0.200981	-0.000008
C52	C	1.444472	0.700981	0.499992
C53	C	1.085751	-0.028537	-0.000005
C54	C	1.585751	0.471463	0.499995
C55	C	1.174110	-0.023684	-0.000011
C56	C	1.674110	0.476316	0.499989
C57	C	0.934420	-0.198874	-0.000003
C58	C	1.434420	0.301126	0.499997
C59	C	0.935990	-0.291709	-0.000004
C60	C	1.435990	0.208291	0.499996
N61	N	0.940192	-0.045377	0.218702
N62	N	1.440192	0.454623	0.718702
C63	C	0.938832	0.538313	-0.000005
C64	C	1.438832	1.038313	0.499995
C65	C	0.851803	0.484472	-0.000350
C66	C	1.351803	0.984472	0.499650
C67	C	0.853374	0.387897	-0.000004
C68	C	1.353374	0.887897	0.499996
C69	C	0.941630	0.370959	-0.000007
C70	C	1.441630	0.870959	0.499993
C71	C	0.984538	0.415191	0.087751
C72	C	1.484538	0.915191	0.587751
C73	C	0.982351	0.511666	0.087824
C74	C	1.482351	1.011666	0.587824
C75	C	0.984185	0.512167	-0.086941
C76	C	1.484185	1.012167	0.413059
C77	C	0.984164	0.415221	-0.088101
C78	C	1.484164	0.915221	0.411899
C79	C	0.943215	0.276378	-0.000006
C80	C	1.443215	0.776378	0.499994
C81	C	0.937250	0.632895	-0.000001
C82	C	1.437250	1.132895	0.499999
N83	N	0.940276	-0.045344	-0.218707
N84	N	1.440276	0.454656	0.281293
C85	C	0.940248	-0.045355	0.592793
C86	C	1.440248	0.454645	1.092793
C87	C	0.874642	-0.118740	0.553627
C88	C	1.374642	0.381260	1.053627
C89	C	0.874793	-0.118979	0.446539
C90	C	1.374793	0.381021	0.946539
C91	C	0.940220	-0.045366	0.407202
C92	C	1.440220	0.454634	0.907202
C93	C	1.023268	-0.058333	0.446039
C94	C	1.523268	0.441667	0.946039
C95	C	1.022900	-0.058848	0.553161
C96	C	1.522900	0.441152	1.053161
C97	C	0.923547	0.041255	0.553323
C98	C	1.423547	0.541255	1.053323
C99	C	0.921643	0.040529	0.446196
C100	C	1.421643	0.540529	0.946196
C101	C	0.940209	-0.045370	0.302314
C102	C	1.440209	0.454630	0.802314
C103	C	0.940265	-0.045352	0.697681
C104	C	1.440265	0.454648	1.197681
H105	H	0.315225	-0.154638	-0.000030
H106	H	0.815225	0.345362	0.499970
Br107	Br	0.892179	-0.225487	0.598455
Br108	Br	1.392179	0.274513	1.098455
Br109	Br	0.892532	-0.226329	0.403804
Br110	Br	1.392532	0.273671	0.903804
H111	H	0.954710	0.384610	0.153060
H112	H	1.454710	0.884610	0.653060
Br113	Br	1.106631	0.027466	0.596346
Br114	Br	1.606631	0.527466	1.096346
Br115	Br	0.377332	0.167707	0.000013
Br116	Br	0.877332	0.667707	0.500013
Br117	Br	0.503130	-0.258438	-0.000030
Br118	Br	1.003130	0.241562	0.499970
H119	H	0.955744	0.530616	-0.153457
H120	H	1.455744	1.030616	0.346543
Br121	Br	0.824786	0.064550	0.598404
Br122	Br	1.324786	0.564550	1.098404
Br123	Br	1.048390	-0.162038	0.401310
Br124	Br	1.548390	0.337962	0.901310
H125	H	1.037617	-0.121825	0.578136
H126	H	1.537617	0.378175	1.078136
H127	H	1.048351	0.548653	-0.087533
H128	H	1.548351	1.048653	0.412467
Br129	Br	0.698824	-0.247677	-0.000025
Br130	Br	1.198824	0.252323	0.499975
H131	H	0.715843	0.072187	0.000006
H132	H	1.215843	0.572187	0.500006
H133	H	0.199023	0.116394	-0.000010
H134	H	0.699023	0.616394	0.499990
Br135	Br	0.932316	0.365453	-0.196326
Br136	Br	1.432316	0.865453	0.303674
Br137	Br	0.797156	0.336386	-0.104856
Br138	Br	1.297156	0.836386	0.395144
Br139	Br	0.494223	0.097673	-0.000017
Br140	Br	0.994223	0.597673	0.499983
H141	H	1.073255	-0.006049	0.420556
H142	H	1.573255	0.493951	0.920556
H143	H	1.046246	0.548618	0.091803
H144	H	1.546246	1.048618	0.591803
Br145	Br	0.136925	-0.205946	-0.000003
Br146	Br	0.636925	0.294054	0.499997
H147	H	0.860551	0.050513	0.420813
H148	H	1.360551	0.550513	0.920813
Br149	Br	0.996121	0.135029	0.401586
Br150	Br	1.496121	0.635029	0.901586
H151	H	0.817031	0.500447	-0.063283
H152	H	1.317031	1.000447	0.436717
H153	H	0.812710	-0.112118	0.579415
H154	H	1.312710	0.387882	1.079415
H155	H	1.048525	0.404598	-0.093402
H156	H	1.548525	0.904598	0.406598
H157	H	0.817160	0.501512	0.062233
H158	H	1.317160	1.001512	0.562233
H159	H	0.819391	0.357528	0.063012
H160	H	1.319391	0.857528	0.563012
H161	H	0.565233	0.063903	-0.000006
H162	H	1.065233	0.563903	0.499994
Br163	Br	0.386230	-0.188406	-0.000021
Br164	Br	0.886230	0.311594	0.499979
Br165	Br	0.930155	0.538326	0.197165
Br166	Br	1.430155	1.038326	0.697165
H167	H	1.049376	0.405839	0.091012
H168	H	1.549376	0.905839	0.591012
H169	H	0.813062	-0.112155	0.420283
H170	H	1.313062	0.387845	0.920283
H171	H	0.971391	0.095794	0.578650
H172	H	1.471391	0.595794	1.078650
