data_functionalizedCrystal
_audit_creation_method	'MofGen! by Chris Wilmer'
_symmetry_space_group_name_H-M	'P1'
_symmetry_Int_Tables_number	1
_symmetry_cell_setting	triclinic
loop_
_symmetry_equiv_pos_as_xyz
  x,y,z
_cell_length_a	17.640112
_cell_length_b	13.897448
_cell_length_c	17.640968
_cell_angle_alpha	78.768361
_cell_angle_beta	92.139080
_cell_angle_gamma	101.242525
loop_
_atom_site_label
_atom_site_type_symbol
_atom_site_fract_x
_atom_site_fract_y
_atom_site_fract_z
Zn1	Zn	1.247780	-0.027714	-0.195080
Zn2	Zn	1.222024	-0.226719	-0.068097
Zn3	Zn	1.095117	-0.090459	-0.093726
Zn4	Zn	1.120765	-0.214022	-0.220679
O5	O	1.171421	-0.139729	-0.144395
O6	O	1.350631	-0.033168	-0.156796
O7	O	1.183677	-0.240217	0.034777
O8	O	1.115413	0.052860	-0.107183
O9	O	1.331709	-0.179376	-0.063502
O10	O	1.227574	0.098958	-0.181648
O11	O	1.090439	-0.140107	0.015947
O12	O	0.992251	-0.127795	-0.132005
O13	O	1.159126	-0.157736	-0.323556
O14	O	1.011094	-0.218577	-0.225277
O15	O	1.252444	-0.020856	-0.304749
O16	O	1.208547	-0.360031	-0.088325
O17	O	1.134152	-0.350703	-0.200426
C18	C	0.974119	-0.178617	-0.184201
C19	C	0.889716	-0.195272	-0.201248
C20	C	0.563040	-0.013187	-0.014898
C21	C	0.483732	-0.028853	-0.030926
C22	C	0.503374	-0.123604	-0.127883
C23	C	0.582686	-0.107942	-0.111865
C24	C	0.612512	-0.052734	-0.055371
C25	C	0.632158	-0.147488	-0.152339
C26	C	0.711462	-0.131831	-0.136319
C27	C	0.741294	-0.076628	-0.079826
C28	C	0.691816	-0.037077	-0.039352
C29	C	0.602329	-0.202701	-0.208829
C30	C	0.651801	-0.242247	-0.249302
C31	C	0.731108	-0.226585	-0.233287
C32	C	0.760940	-0.171382	-0.176794
C33	C	0.780586	-0.266136	-0.273761
C34	C	0.859889	-0.250480	-0.257742
C35	C	0.840244	-0.155726	-0.160774
C36	C	1.171362	-0.390361	-0.144385
C37	C	1.171411	-0.497561	-0.144391
C38	C	1.171500	-0.693826	-0.144423
C39	C	1.171449	-0.584610	-0.144408
C40	C	1.369495	-0.100689	-0.104435
C41	C	1.453902	-0.084053	-0.087406
C42	C	1.211519	-0.080881	-0.342478
C43	C	1.228606	-0.055803	-0.426890
C44	C	1.171506	0.111891	-0.144419
C45	C	1.171541	0.219116	-0.144429
C46	C	1.041904	-0.329658	-0.753462
C47	C	1.057976	-0.306079	-0.832776
C48	C	1.155140	-0.163558	-0.813183
C49	C	1.139073	-0.187123	-0.733866
C50	C	1.082455	-0.270175	-0.704012
C51	C	1.179624	-0.127639	-0.684416
C52	C	1.163562	-0.151206	-0.605106
C53	C	1.106948	-0.234255	-0.575246
C54	C	1.066393	-0.293741	-0.624702
C55	C	1.236246	-0.044592	-0.714271
C56	C	1.276797	0.014891	-0.664821
C57	C	1.260731	-0.008670	-0.585510
C58	C	1.204117	-0.091720	-0.555650
C59	C	1.301286	0.050815	-0.536054
C60	C	1.285224	0.027249	-0.456744
C61	C	1.188055	-0.115286	-0.476339
C62	C	1.131524	-0.198270	0.052926
C63	C	1.114584	-0.223047	0.137366
H64	H	0.805868	-0.063884	-0.066783
C65	C	1.329196	0.091673	-0.402918
C66	C	1.303027	0.053238	-0.327068
C67	C	1.343530	0.112547	-0.277460
H68	H	1.320770	0.158185	-0.418056
H69	H	1.382853	0.091449	-0.405571
H70	H	1.249383	0.053472	-0.324418
H71	H	1.311455	-0.013267	-0.311907
H72	H	1.397187	0.112322	-0.280113
H73	H	1.335100	0.179056	-0.292605
H74	H	1.325785	0.086472	-0.225990
H75	H	1.020271	-0.361351	-0.600397
H76	H	0.716104	0.007896	0.006640
C77	C	0.872573	-0.095953	-0.099317
C78	C	0.838063	-0.142967	-0.028045
C79	C	0.867836	-0.087949	0.028588
H80	H	0.861870	-0.030386	-0.113032
H81	H	0.926885	-0.092324	-0.095524
H82	H	0.783764	-0.146585	-0.031839
H83	H	0.848763	-0.208530	-0.014306
H84	H	0.922148	-0.084320	0.032381
H85	H	0.857131	-0.022384	0.014866
H86	H	0.844431	-0.119845	0.076953
C87	C	1.126698	-0.205598	-0.443926
C88	C	1.147131	-0.292051	-0.459853
C89	C	1.090645	-0.375267	-0.429989
H90	H	1.078268	-0.197840	-0.467181
H91	H	1.122961	-0.211169	-0.389600
H92	H	1.150860	-0.286480	-0.514168
H93	H	1.195552	-0.299841	-0.436598
H94	H	1.086908	-0.380838	-0.375664
H95	H	1.042218	-0.367498	-0.453247
H96	H	1.104504	-0.433936	-0.440785
H97	H	0.479078	-0.168557	-0.173878
H98	H	1.347390	0.118430	-0.560372
C99	C	0.980548	-0.419969	-0.721048
C100	C	1.000981	-0.506423	-0.736976
C101	C	0.944494	-0.589638	-0.707112
H102	H	0.932118	-0.412211	-0.744303
H103	H	0.976810	-0.425541	-0.666723
H104	H	1.004709	-0.500851	-0.791291
H105	H	1.049401	-0.514213	-0.713720
H106	H	0.940757	-0.595210	-0.652786
H107	H	0.896068	-0.581870	-0.730369
H108	H	0.958354	-0.648307	-0.717908
C109	C	0.595276	0.046733	0.046498
C110	C	0.534976	0.077999	0.078531
C111	C	0.564641	0.133179	0.135099
H112	H	0.632105	0.103520	0.023731
H113	H	0.619465	0.006155	0.085920
H114	H	0.510799	0.118575	0.039117
H115	H	0.498143	0.021232	0.101314
H116	H	0.588830	0.092601	0.174520
H117	H	0.601469	0.189961	0.112325
H118	H	0.523731	0.154392	0.156845
C119	C	0.913596	-0.293259	-0.301820
C120	C	0.909560	-0.253852	-0.380878
C121	C	0.959032	-0.293230	-0.421503
H122	H	0.898381	-0.363942	-0.293341
H123	H	0.965114	-0.276002	-0.284235
H124	H	0.858052	-0.271115	-0.398457
H125	H	0.924781	-0.183173	-0.389380
H126	H	1.010550	-0.275973	-0.403919
H127	H	0.943812	-0.363911	-0.413018
H128	H	0.956305	-0.266491	-0.475148
C129	C	1.014075	-0.370740	-0.886485
C130	C	1.066270	-0.410587	-0.923322
C131	C	1.025858	-0.470164	-0.972797
H132	H	0.987265	-0.331257	-0.924168
H133	H	0.978073	-0.423623	-0.857367
H134	H	1.102258	-0.357711	-0.952438
H135	H	1.093082	-0.450085	-0.885658
H136	H	0.989856	-0.523047	-0.943680
H137	H	0.999049	-0.430674	-1.010476
H138	H	1.061265	-0.497215	-0.997792
C139	C	0.619559	-0.302241	-0.310647
C140	C	0.679860	-0.333535	-0.342655
C141	C	0.650190	-0.388806	-0.399166
H142	H	0.595354	-0.261745	-0.350095
H143	H	0.582740	-0.359018	-0.287813
H144	H	0.716667	-0.276766	-0.365489
H145	H	0.704071	-0.374044	-0.303225
H146	H	0.613371	-0.445584	-0.376332
H147	H	0.625985	-0.348304	-0.438609
H148	H	0.691098	-0.410053	-0.420885
C149	C	1.216553	-0.073402	-0.845754
C150	C	1.221930	-0.065480	-0.925797
C151	C	1.278487	0.017569	-0.955827
H152	H	1.264988	-0.081227	-0.822540
H153	H	1.202825	-0.014606	-0.835051
H154	H	1.235662	-0.124261	-0.936493
H155	H	1.173510	-0.057639	-0.949031
H156	H	1.264760	0.076365	-0.945124
H157	H	1.326918	0.009736	-0.932607
H158	H	1.282138	0.022961	-1.010139
H159	H	0.537754	-0.215447	-0.221869
C160	C	1.338210	0.105047	-0.697392
C161	C	1.343587	0.112970	-0.777435
C162	C	1.400145	0.196019	-0.807465
H163	H	1.386645	0.097222	-0.674178
H164	H	1.324483	0.163843	-0.686690
H165	H	1.357319	0.054188	-0.788131
H166	H	1.295167	0.120811	-0.800670
H167	H	1.386417	0.254814	-0.796763
H168	H	1.448576	0.188186	-0.784246
H169	H	1.403796	0.201410	-0.861778
H170	H	0.756288	-0.311095	-0.319753
H171	H	0.443455	0.003362	0.002031
H172	H	1.093874	-0.253445	-0.510665
H173	H	1.249324	-0.025409	-0.778851
