data_functionalizedCrystal
_audit_creation_method	'MofGen! by Chris Wilmer'
_symmetry_space_group_name_H-M	'P1'
_symmetry_Int_Tables_number	1
_symmetry_cell_setting	triclinic
loop_
_symmetry_equiv_pos_as_xyz
  x,y,z
_cell_length_a	14.044220
_cell_length_b	14.044220
_cell_length_c	13.101039
_cell_angle_alpha	93.667477
_cell_angle_beta	86.340132
_cell_angle_gamma	93.188878
loop_
_atom_site_label
_atom_site_type_symbol
_atom_site_fract_x
_atom_site_fract_y
_atom_site_fract_z
O1	O	1.281968	0.225348	-0.085109
O2	O	1.781968	0.725348	0.414891
O3	O	1.005298	0.217041	-0.085135
O4	O	1.505298	0.717041	0.414865
O5	O	1.139480	0.082860	-0.085112
O6	O	1.639480	0.582860	0.414888
O7	O	1.147787	0.359530	-0.085132
O8	O	1.647787	0.859530	0.414868
O9	O	1.129854	0.092504	0.085316
O10	O	1.629854	0.592504	0.585316
O11	O	0.995673	0.226686	0.085293
O12	O	1.495673	0.726686	0.585293
O13	O	1.272343	0.234993	0.085319
O14	O	1.772343	0.734993	0.585319
Zn15	Zn	1.132479	0.232371	0.112365
Zn16	Zn	1.632479	0.732371	0.612365
Zn17	Zn	1.145162	0.219663	-0.112181
Zn18	Zn	1.645162	0.719663	0.387819
O19	O	1.138161	0.369175	0.085296
O20	O	1.638161	0.869175	0.585296
C21	C	0.964864	0.218228	0.000076
C22	C	1.464864	0.718228	0.500076
C23	C	0.858722	0.207383	0.000066
C24	C	1.358722	0.707383	0.500066
C25	C	0.664383	0.187558	0.000088
C26	C	1.164383	0.687558	0.500088
C27	C	0.613253	0.264472	0.000087
C28	C	1.113253	0.764472	0.500087
C29	C	0.505116	0.253441	0.000099
C30	C	1.005116	0.753441	0.500099
C31	C	0.772529	0.198587	0.000076
C32	C	1.272529	0.698587	0.500076
C33	C	1.131031	0.052060	0.000102
C34	C	1.631031	0.552060	0.500102
C35	C	1.120187	-0.054083	0.000102
C36	C	1.620187	0.445917	0.500102
C37	C	1.100362	-0.248421	0.000086
C38	C	1.600362	0.251579	0.500086
C39	C	1.177276	-0.299551	0.000090
C40	C	1.677276	0.200449	0.500090
C41	C	1.166245	-0.407688	0.000080
C42	C	1.666245	0.092312	0.500080
C43	C	1.111391	-0.140275	0.000095
C44	C	1.611391	0.359725	0.500095
C45	C	1.312777	0.233806	0.000106
C46	C	1.812777	0.733806	0.500106
C47	C	1.418920	0.244651	0.000109
C48	C	1.918920	0.744651	0.500109
C49	C	1.146610	0.399974	0.000080
C50	C	1.646610	0.899974	0.500080
C51	C	1.157455	0.506116	0.000073
C52	C	1.657455	1.006116	0.500073
N53	N	1.123831	0.241043	0.265612
N54	N	1.623831	0.741043	0.765612
N55	N	1.153817	0.210984	-0.265428
N56	N	1.653817	0.710984	0.234572
C57	C	1.112065	0.252851	0.474653
C58	C	1.612065	0.752851	0.974653
C59	C	1.165580	0.199179	0.525538
C60	C	1.665580	0.699179	1.025538
C61	C	1.159034	0.205749	0.641855
C62	C	1.659034	0.705749	1.141855
C63	C	1.118610	0.246282	0.358325
C64	C	1.618610	0.746282	0.858325
H65	H	0.650693	0.338605	0.000077
H66	H	1.150693	0.838605	0.500077
O67	O	1.265759	-0.254992	0.000248
O68	O	1.765759	0.245008	0.500248
C69	C	1.310635	-0.276729	0.088536
C70	C	1.810635	0.223271	0.588536
H71	H	1.277225	-0.346380	0.117948
H72	H	1.777225	0.153620	0.617948
H73	H	1.390112	-0.284818	0.068702
H74	H	1.890112	0.215182	0.568702
H75	H	1.300856	-0.216569	0.150348
H76	H	1.800856	0.283431	0.650348
O77	O	0.619578	0.099188	0.000047
O78	O	1.119578	0.599188	0.500047
C79	C	0.520019	0.107712	0.000080
C80	C	1.020019	0.607712	0.500080
H81	H	0.504877	0.178451	-0.032181
H82	H	1.004877	0.678451	0.467819
H83	H	0.487380	0.046166	-0.049400
H84	H	0.987380	0.546166	0.450600
H85	H	0.487292	0.105409	0.081845
H86	H	0.987292	0.605409	0.581845
H87	H	1.061336	0.303733	0.518442
H88	H	1.561336	0.803733	1.018442
H89	H	1.026235	-0.285859	0.000076
H90	H	1.526235	0.214141	0.500076
O91	O	1.225901	0.138367	0.473143
O92	O	1.725901	0.638367	0.973143
C93	C	1.218941	0.145105	0.366987
C94	C	1.718941	0.645105	0.866987
H95	H	1.190856	0.217315	0.352388
H96	H	1.690856	0.717315	0.852388
H97	H	1.292507	0.137923	0.326018
H98	H	1.792507	0.637923	0.826018
H99	H	1.167832	0.085527	0.336714
H100	H	1.667832	0.585527	0.836714
