data_functionalizedCrystal
_audit_creation_method	'MofGen! by Chris Wilmer'
_symmetry_space_group_name_H-M	'P1'
_symmetry_Int_Tables_number	1
_symmetry_cell_setting	triclinic
loop_
_symmetry_equiv_pos_as_xyz
  x,y,z
_cell_length_a	21.295419
_cell_length_b	21.295417
_cell_length_c	11.169409
_cell_angle_alpha	89.958601
_cell_angle_beta	89.976836
_cell_angle_gamma	90.045308
loop_
_atom_site_label
_atom_site_type_symbol
_atom_site_fract_x
_atom_site_fract_y
_atom_site_fract_z
Zn1	Zn	0.962347	-0.250310	-0.678574
Zn2	Zn	0.962252	-0.355598	-0.477860
Zn3	Zn	0.857073	-0.250374	-0.477897
Zn4	Zn	0.857040	-0.355572	-0.678493
O5	O	0.909678	-0.302963	-0.578206
O6	O	1.050424	-0.264260	-0.651968
O7	O	0.948274	-0.341677	-0.309915
O8	O	0.871091	-0.162276	-0.504567
O9	O	1.050354	-0.341615	-0.504503
O10	O	0.948436	-0.162229	-0.652004
O11	O	0.870999	-0.264369	-0.309942
O12	O	0.768979	-0.264344	-0.504488
O13	O	0.871035	-0.341571	-0.846453
O14	O	0.768955	-0.341633	-0.651865
O15	O	0.948404	-0.264235	-0.846513
O16	O	0.948242	-0.443684	-0.504424
O17	O	0.870943	-0.443665	-0.651828
C18	C	0.746126	-0.302993	-0.578172
C19	C	0.676158	-0.303022	-0.578186
C20	C	0.643350	-0.262809	-0.655090
C21	C	0.577608	-0.262792	-0.655094
C22	C	0.544676	-0.302999	-0.578208
C23	C	0.577491	-0.343215	-0.501290
C24	C	0.643233	-0.343226	-0.501279
N25	N	0.441400	-0.358078	-0.568828
N26	N	0.378949	-0.358065	-0.568846
C27	C	0.346601	-0.302966	-0.578235
N28	N	0.379064	-0.247879	-0.587629
N29	N	0.441521	-0.247892	-0.587618
C30	C	0.473390	-0.302991	-0.578211
C31	C	0.242508	-0.262732	-0.655147
C32	C	0.176764	-0.262714	-0.655143
C33	C	0.176649	-0.343142	-0.501345
C34	C	0.242391	-0.343155	-0.501343
C35	C	0.275317	-0.302950	-0.578250
C36	C	0.909595	-0.466515	-0.578139
C37	C	0.909618	-0.536483	-0.578151
C38	C	0.949903	-0.569339	-0.501476
C39	C	0.949933	-0.635081	-0.501503
C40	C	0.909665	-0.667965	-0.578193
C41	C	0.869377	-0.635102	-0.654882
C42	C	0.869353	-0.569361	-0.654862
N43	N	0.854598	-0.771245	-0.587331
N44	N	0.854623	-0.833696	-0.587343
C45	C	0.909736	-0.866040	-0.578261
N46	N	0.964825	-0.833574	-0.569143
N47	N	0.964800	-0.771116	-0.569124
C48	C	0.909687	-0.739251	-0.578224
C49	C	0.950057	-0.970181	-0.501612
C50	C	0.950087	-1.035925	-0.501647
C51	C	0.869526	-1.035945	-0.655020
C52	C	0.869501	-0.970202	-0.654991
C53	C	0.909766	-0.937324	-0.578280
C54	C	1.073868	-0.302933	-0.578240
C55	C	1.143836	-0.302921	-0.578255
C56	C	0.909726	-0.302893	-0.891249
C57	C	0.909747	-0.302864	-1.024649
C58	C	0.909778	-0.138773	-0.578299
C59	C	0.909820	-0.068805	-0.578339
C60	C	0.909666	-0.302987	-0.266381
C61	C	0.909767	-0.302840	-0.132982
H62	H	0.670154	-0.230071	-0.717713
H63	H	0.836743	-1.062718	-0.717467
F64	F	0.678150	-0.386026	-0.419421
F65	F	0.992908	-0.935188	-0.419970
F66	F	0.542684	-0.219989	-0.736947
F67	F	0.542442	-0.386004	-0.419458
F68	F	0.992971	-1.070892	-0.420043
F69	F	0.826621	-0.935233	-0.736595
F70	F	0.277552	-0.219940	-0.736990
F71	F	0.141604	-0.385930	-0.419509
H72	H	0.150053	-0.229964	-0.717765
F73	F	0.277309	-0.385953	-0.419487
H74	H	0.982740	-0.661837	-0.439066
F75	F	0.992763	-0.534351	-0.419847
H76	H	0.836593	-0.661881	-0.717325
H77	H	0.836548	-0.542609	-0.717301
