data_functionalizedCrystal
_audit_creation_method	'MofGen! by Chris Wilmer'
_symmetry_space_group_name_H-M	'P1'
_symmetry_Int_Tables_number	1
_symmetry_cell_setting	triclinic
loop_
_symmetry_equiv_pos_as_xyz
  x,y,z
_cell_length_a	18.050589
_cell_length_b	19.805407
_cell_length_c	19.805399
_cell_angle_alpha	90.016886
_cell_angle_beta	89.976299
_cell_angle_gamma	89.971779
loop_
_atom_site_label
_atom_site_type_symbol
_atom_site_fract_x
_atom_site_fract_y
_atom_site_fract_z
Zn1	Zn	-0.295666	-1.034709	-0.382745
Zn2	Zn	0.204334	-0.534709	0.117255
Zn3	Zn	-0.419862	-1.034626	-0.269567
Zn4	Zn	0.080138	-0.534626	0.230433
Zn5	Zn	-0.295690	-0.921529	-0.269569
Zn6	Zn	0.204310	-0.421529	0.230431
Zn7	Zn	-0.419819	-0.921484	-0.382713
Zn8	Zn	0.080181	-0.421484	0.117287
O9	O	-0.357759	-0.978087	-0.326148
O10	O	0.142241	-0.478087	0.173852
O11	O	-0.312149	-1.129415	-0.367743
O12	O	0.187851	-0.629415	0.132257
O13	O	-0.403418	-1.019607	-0.174850
O14	O	0.096582	-0.519607	0.325150
O15	O	-0.191762	-0.936597	-0.284596
O16	O	0.308238	-0.436597	0.215404
O17	O	-0.403395	-1.129353	-0.284592
O18	O	0.096605	-0.629353	0.215408
O19	O	-0.191745	-1.019750	-0.367746
O20	O	0.308255	-0.519750	0.132254
O21	O	-0.312189	-0.936516	-0.174852
O22	O	0.187811	-0.436516	0.325148
O23	O	-0.312148	-0.826807	-0.284566
O24	O	0.187852	-0.326807	0.215434
O25	O	-0.403322	-0.936519	-0.477434
O26	O	0.096678	-0.436519	0.022566
O27	O	-0.403345	-0.826773	-0.367693
O28	O	0.096655	-0.326773	0.132307
O29	O	-0.312108	-1.019706	-0.477457
O30	O	0.187892	-0.519706	0.022543
O31	O	-0.523781	-1.019563	-0.284562
O32	O	-0.023781	-0.519563	0.215438
O33	O	-0.523749	-0.936438	-0.367690
O34	O	-0.023749	-0.436438	0.132310
C35	C	-0.357745	-0.802231	-0.326127
C36	C	0.142255	-0.302231	0.173873
C37	C	-0.357757	-0.726999	-0.326133
C38	C	0.142243	-0.226999	0.173867
C39	C	-0.550711	-0.978005	-0.326137
C40	C	-0.050711	-0.478005	0.173863
C41	C	-0.633257	-0.978032	-0.326155
C42	C	-0.133257	-0.478032	0.173845
C43	C	-0.357708	-0.978117	-0.502691
C44	C	0.142292	-0.478117	-0.002691
C45	C	-0.357686	-0.978129	-0.577923
C46	C	0.142314	-0.478129	-0.077923
C47	C	-0.832718	-0.932873	-0.371344
C48	C	-0.332718	-0.432873	0.128656
C49	C	-0.882158	-0.916378	-0.309581
C50	C	-0.382158	-0.416378	0.190419
C51	C	-0.784387	-0.978099	-0.326164
C52	C	-0.284387	-0.478099	0.173836
C53	C	-0.882029	-0.994627	-0.387934
C54	C	-0.382029	-0.494627	0.112066
C55	C	-0.930373	-0.978162	-0.326178
C56	C	-0.430373	-0.478162	0.173822
C57	C	-0.832741	-0.961571	-0.264368
C58	C	-0.332741	-0.461571	0.235632
C59	C	-0.832607	-1.039849	-0.342762
C60	C	-0.332607	-0.539849	0.157238
C61	C	-0.882025	-1.023377	-0.280957
C62	C	-0.382025	-0.523377	0.219043
C63	C	-0.700289	-0.978061	-0.326157
C64	C	-0.200289	-0.478061	0.173843
C65	C	-1.014469	-0.978200	-0.326178
C66	C	-0.514469	-0.478200	0.173822
C67	C	-0.164054	-0.978187	-0.326175
C68	C	0.335946	-0.478187	0.173825
C69	C	-0.081508	-0.978230	-0.326186
C70	C	0.418492	-0.478230	0.173814
C71	C	-0.357774	-1.154630	-0.326171
C72	C	0.142226	-0.654630	0.173829
C73	C	-0.357780	-1.229862	-0.326180
C74	C	0.142220	-0.729862	0.173820
C75	C	-0.405315	-0.691655	-0.369347
C76	C	0.094685	-0.191655	0.130653
C77	C	-0.405316	-0.620967	-0.369357
C78	C	0.094684	-0.120967	0.130643
C79	C	-0.357763	-0.585623	-0.326148
C80	C	0.142237	-0.085623	0.173852
C81	C	-0.310200	-0.620972	-0.282933
C82	C	0.189800	-0.120972	0.217067
C83	C	-0.310195	-0.691659	-0.282927
C84	C	0.189805	-0.191659	0.217073
C85	C	-0.310216	-0.335899	-0.282955
C86	C	0.189784	0.164101	0.217045
C87	C	-0.310226	-0.265207	-0.282962
C88	C	0.189774	0.234793	0.217038
C89	C	-0.405337	-0.265206	-0.369385
C90	C	0.094663	0.234794	0.130615
C91	C	-0.405332	-0.335893	-0.369379
C92	C	0.094668	0.164107	0.130621
C93	C	-0.357767	-0.371236	-0.326166
C94	C	0.142233	0.128764	0.173834
C95	C	-0.357765	-0.447884	-0.326157
C96	C	0.142235	0.052116	0.173843
C97	C	-0.357768	-0.508976	-0.326153
C98	C	0.142232	-0.008976	0.173847
C99	C	-0.310179	-0.934876	-0.613268
C100	C	0.189821	-0.434876	-0.113268
C101	C	-0.310164	-0.934885	-0.683956
C102	C	0.189836	-0.434885	-0.183956
C103	C	-0.357654	-0.978152	-0.719299
C104	C	0.142346	-0.478152	-0.219299
C105	C	-0.405166	-1.021407	-0.683949
C106	C	0.094834	-0.521407	-0.183949
C107	C	-0.405184	-1.021394	-0.613262
C108	C	0.094816	-0.521394	-0.113262
C109	C	-0.405096	-1.021461	-0.969023
C110	C	0.094904	-0.521461	-0.469023
C111	C	-0.405074	-1.021472	-1.039715
C112	C	0.094926	-0.521472	-0.539715
C113	C	-0.310077	-0.934952	-1.039717
C114	C	0.189923	-0.434952	-0.539717
C115	C	-0.310095	-0.934939	-0.969030
C116	C	0.189905	-0.434939	-0.469030
C117	C	-0.357609	-0.978191	-0.933686
C118	C	0.142391	-0.478191	-0.433686
C119	C	-0.357626	-0.978180	-0.857038
C120	C	0.142374	-0.478180	-0.357038
C121	C	-0.357634	-0.978167	-0.795946
C122	C	0.142366	-0.478167	-0.295946
C123	C	-0.357757	-0.978096	-0.150292
C124	C	0.142243	-0.478096	0.349708
C125	C	-0.357570	-0.978215	-0.075061
C126	C	0.142430	-0.478215	0.424939
H127	H	-0.903940	-0.864187	-0.295555
H128	H	-0.403940	-0.364187	0.204445
H129	H	-0.271482	-0.899661	-0.712731
H130	H	0.228518	-0.399661	-0.212731
H131	H	-0.271421	-0.899709	-0.940257
H132	H	0.228579	-0.399709	-0.440257
N133	N	-0.453910	-0.584879	-0.413497
N134	N	0.046090	-0.084879	0.086503
N135	N	-0.522430	-0.592751	-0.408894
N136	N	-0.022430	-0.092751	0.091106
H137	H	-0.556753	-0.567266	-0.440071
H138	H	-0.056753	-0.067266	0.059929
H139	H	-0.444041	-0.720427	-0.404530
H140	H	0.055959	-0.220427	0.095470
H141	H	-0.811180	-0.947556	-0.212121
H142	H	-0.311180	-0.447556	0.287879
N143	N	-0.453917	-0.371984	-0.413515
N144	N	0.046083	0.128016	0.086485
N145	N	-0.496376	-0.340419	-0.452097
N146	N	0.003624	0.159581	0.047903
H147	H	-0.530689	-0.365906	-0.483271
H148	H	-0.030689	0.134094	0.016729
N149	N	-0.261544	-0.890774	-1.075831
N150	N	0.238456	-0.390774	-0.575831
N151	N	-0.261531	-0.890789	-1.138944
N152	N	0.238469	-0.390789	-0.638944
H153	H	-0.227254	-0.859591	-1.164449
H154	H	0.272746	-0.359591	-0.664449
N155	N	-0.909010	-1.071387	-0.232974
N156	N	-0.409010	-0.571387	0.267026
N157	N	-0.893067	-1.065223	-0.171872
N158	N	-0.393067	-0.565223	0.328128
H159	H	-0.912126	-1.099127	-0.137982
H160	H	-0.412126	-0.599127	0.362018
N161	N	-0.453586	-1.065679	-1.075807
N162	N	0.046414	-0.565679	-0.575807
N163	N	-0.496004	-1.104296	-1.044244
N164	N	0.003996	-0.604296	-0.544244
H165	H	-0.530262	-1.135518	-1.069734
H166	H	-0.030262	-0.635518	-0.569734
N167	N	-0.805290	-1.105308	-0.360401
N168	N	-0.305290	-0.605308	0.139599
N169	N	-0.821028	-1.130482	-0.416468
N170	N	-0.321028	-0.630482	0.083532
H171	H	-0.801735	-1.176713	-0.428933
H172	H	-0.301735	-0.676713	0.071067
H173	H	-0.443794	-1.056672	-0.940255
H174	H	0.056206	-0.556672	-0.440255
H175	H	-0.903679	-1.008582	-0.440167
H176	H	-0.403679	-0.508582	0.059833
N177	N	-0.453922	-0.229093	-0.413523
N178	N	0.046078	0.270907	0.086477
N179	N	-0.453923	-0.165980	-0.413525
N180	N	0.046077	0.334020	0.086475
H181	H	-0.488237	-0.140476	-0.444694
H182	H	0.011763	0.359524	0.055306
H183	H	-0.443836	-1.056632	-0.712731
H184	H	0.056164	-0.556632	-0.212731
N185	N	-0.261645	-0.229114	-0.238818
N186	N	0.238355	0.270886	0.261182
N187	N	-0.219180	-0.260676	-0.200239
N188	N	0.280820	0.239324	0.299761
H189	H	-0.184872	-0.235186	-0.169062
H190	H	0.315128	0.264814	0.330938
H191	H	-0.271491	-0.364666	-0.247763
H192	H	0.228509	0.135334	0.252237
H193	H	-0.271478	-0.592190	-0.247754
H194	H	0.228522	-0.092190	0.252246
N195	N	-0.261656	-0.890692	-0.577167
N196	N	0.238344	-0.390692	-0.077167
N197	N	-0.193127	-0.895223	-0.585075
N198	N	0.306873	-0.395223	-0.085075
H199	H	-0.158856	-0.864018	-0.559580
H200	H	0.341144	-0.364018	-0.059580
H201	H	-0.443863	-1.056621	-0.584486
H202	H	0.056137	-0.556621	-0.084486
N203	N	-0.261604	-0.727754	-0.238787
N204	N	0.238396	-0.227754	0.261213
N205	N	-0.219145	-0.696192	-0.200214
N206	N	0.280855	-0.196192	0.299786
H207	H	-0.184822	-0.721682	-0.169041
H208	H	0.315178	-0.221682	0.330959
H209	H	-0.811067	-0.894571	-0.409498
H210	H	-0.311067	-0.394571	0.090502
