data_functionalizedCrystal
_audit_creation_method	'MofGen! by Chris Wilmer'
_symmetry_space_group_name_H-M	'P1'
_symmetry_Int_Tables_number	1
_symmetry_cell_setting	triclinic
loop_
_symmetry_equiv_pos_as_xyz
  x,y,z
_cell_length_a	10.540539
_cell_length_b	12.837942
_cell_length_c	11.892095
_cell_angle_alpha	85.697431
_cell_angle_beta	93.936265
_cell_angle_gamma	89.677216
loop_
_atom_site_label
_atom_site_type_symbol
_atom_site_fract_x
_atom_site_fract_y
_atom_site_fract_z
O1	O	-1.709268	-0.139649	-0.093949
O2	O	-1.341370	-0.153424	-0.093963
O3	O	-1.517161	0.004426	-0.093949
O4	O	-1.533478	-0.297499	-0.093962
O5	O	-1.502501	-0.008715	0.094057
O6	O	-1.326711	-0.166565	0.094044
O7	O	-1.694609	-0.152790	0.094058
Zn8	Zn	-1.508332	-0.161764	0.123901
Zn9	Zn	-1.527647	-0.144450	-0.123806
O10	O	-1.518818	-0.310640	0.094044
C11	C	-1.286624	-0.158961	0.000039
C12	C	-1.145337	-0.155870	0.000034
C13	C	-1.504320	0.036517	0.000053
C14	C	-1.487882	0.151716	0.000051
C15	C	-1.749355	-0.147252	0.000054
C16	C	-1.890643	-0.150343	0.000051
C17	C	-0.948862	-0.037458	0.000478
C18	C	-1.095859	-0.040561	0.000042
C19	C	-1.098132	-0.203858	-0.107325
C20	C	-0.951161	-0.199917	-0.107404
C21	C	-0.934260	-0.217206	0.106395
C22	C	-1.081249	-0.218367	0.107802
C23	C	-1.531660	-0.342731	0.000039
C24	C	-1.548098	-0.457929	0.000034
N25	N	-1.495160	-0.173579	0.292954
C26	C	-1.685501	0.391213	0.000035
C27	C	-1.670062	0.499453	0.000032
C28	C	-1.441566	0.476440	0.000035
C29	C	-1.457005	0.368200	0.000038
C30	C	-1.578976	0.325590	0.000039
C31	C	-1.594414	0.217347	0.000050
C32	C	-1.365919	0.194337	0.000045
C33	C	-1.350480	0.302577	0.000042
N34	N	-1.540828	-0.132626	-0.292859
C35	C	-1.632482	-0.050349	0.529612
C36	C	-1.623284	-0.058616	0.647953
C37	C	-1.467562	-0.198373	0.647979
C38	C	-1.476759	-0.190107	0.529638
C39	C	-1.559223	-0.116093	0.470459
C40	C	-1.568426	-0.107832	0.352115
C41	C	-1.412698	-0.247584	0.352144
C42	C	-1.403500	-0.255851	0.470485
H43	H	-1.127675	-0.002277	0.077002
H44	H	-1.342263	0.511153	0.000022
H45	H	-1.784814	0.356519	0.000047
H46	H	-1.400412	-0.258626	0.696179
H47	H	-0.909269	0.002714	0.077471
H48	H	-0.912683	-0.282505	-0.112280
H49	H	-1.699636	0.009908	0.481428
H50	H	-1.279178	0.140894	0.000057
H51	H	-1.353050	-0.301120	0.303968
H52	H	-1.251174	0.337285	0.000037
H53	H	-1.336356	-0.316109	0.518682
H54	H	-0.919641	0.013254	-0.076083
H55	H	-1.138784	0.008798	-0.077047
H56	H	-1.635576	-0.047570	0.303933
H57	H	-1.682937	-0.005079	0.696113
H58	H	-0.924702	-0.153295	-0.187652
H59	H	-1.111564	-0.183380	0.187226
H60	H	-1.142715	-0.159725	-0.187221
H61	H	-1.130100	-0.288258	-0.111324
H62	H	-0.892268	-0.185577	0.187772
H63	H	-1.114206	-0.302888	0.114280
H64	H	-1.756807	0.552880	0.000025
H65	H	-1.693729	0.182656	0.000055
H66	H	-0.896127	-0.300544	0.107116
