data_functionalizedCrystal
_audit_creation_method	'MofGen! by Chris Wilmer'
_symmetry_space_group_name_H-M	'P1'
_symmetry_Int_Tables_number	1
_symmetry_cell_setting	triclinic
loop_
_symmetry_equiv_pos_as_xyz
  x,y,z
_cell_length_a	17.699083
_cell_length_b	10.654550
_cell_length_c	9.730223
_cell_angle_alpha	90.004253
_cell_angle_beta	89.998388
_cell_angle_gamma	96.116028
loop_
_atom_site_label
_atom_site_type_symbol
_atom_site_fract_x
_atom_site_fract_y
_atom_site_fract_z
O1	O	1.005084	-0.158805	-0.114236
O2	O	1.505084	0.341195	0.385764
O3	O	0.784837	-0.179467	-0.114250
O4	O	1.284837	0.320533	0.385750
O5	O	0.900024	0.013692	-0.114234
O6	O	1.400024	0.513692	0.385766
O7	O	0.889897	-0.351964	-0.114252
O8	O	1.389897	0.148036	0.385748
O9	O	0.900017	0.013697	0.114346
O10	O	1.400017	0.513697	0.614346
O11	O	0.784830	-0.179462	0.114330
O12	O	1.284830	0.320538	0.614330
O13	O	1.005077	-0.158800	0.114344
O14	O	1.505077	0.341200	0.614344
Zn15	Zn	0.894952	-0.169130	0.150629
Zn16	Zn	1.394952	0.330870	0.650629
Zn17	Zn	0.894962	-0.169137	-0.150535
Zn18	Zn	1.394962	0.330863	0.349465
O19	O	0.889889	-0.351959	0.114328
O20	O	1.389889	0.148041	0.614328
C21	C	0.756632	-0.178724	0.000038
C22	C	1.256632	0.321276	0.500038
C23	C	0.672599	-0.176503	0.000033
C24	C	1.172599	0.323497	0.500033
N25	N	0.894951	-0.169125	0.356165
N26	N	1.394951	0.330875	0.856165
C27	C	1.033282	-0.159543	0.000053
C28	C	1.533282	0.340457	0.500053
C29	C	1.117314	-0.161764	0.000050
C30	C	1.617314	0.338236	0.500050
C31	C	1.165214	-0.048384	0.000050
C32	C	1.665214	0.451616	0.500050
C33	C	1.244171	-0.050479	0.000055
C34	C	1.744171	0.449521	0.500055
C35	C	1.275226	-0.165954	0.000048
C36	C	1.775226	0.334046	0.500048
C37	C	1.227320	-0.279343	0.000052
C38	C	1.727320	0.220657	0.500052
C39	C	1.148365	-0.277247	0.000057
C40	C	1.648365	0.222753	0.500057
C41	C	1.545736	-0.287797	0.000032
C42	C	2.045736	0.212203	0.500032
C43	C	1.624698	-0.289884	0.000022
C44	C	2.124698	0.210116	0.500022
C45	C	1.641543	-0.061028	0.000029
C46	C	2.141543	0.438972	0.500029
C47	C	1.562588	-0.058933	0.000034
C48	C	2.062588	0.441067	0.500034
C49	C	1.514689	-0.172321	0.000045
C50	C	2.014689	0.327679	0.500045
C51	C	1.429075	-0.170048	0.000043
C52	C	1.929075	0.329952	0.500043
C53	C	1.360838	-0.168228	0.000041
C54	C	1.860838	0.331772	0.500041
C55	C	0.899277	0.060479	0.000055
C56	C	1.399277	0.560479	0.500055
C57	C	0.897052	0.199884	0.000053
C58	C	1.397052	0.699884	0.500053
C59	C	0.890637	-0.398746	0.000036
C60	C	1.390637	0.101254	0.500036
C61	C	0.892861	-0.538151	0.000029
C62	C	1.392861	-0.038151	0.500029
C63	C	0.964873	0.280556	0.000057
C64	C	1.464873	0.780556	0.500057
C65	C	0.962778	0.411541	0.000040
C66	C	1.462778	0.911541	0.500040
C67	C	0.825036	0.381166	0.000021
C68	C	1.325036	0.881166	0.500021
C69	C	0.827132	0.250185	0.000028
C70	C	1.327132	0.750185	0.500028
N71	N	0.894969	-0.169132	-0.356071
N72	N	1.394969	0.330868	0.143929
C73	C	0.945973	-0.083630	0.428099
C74	C	1.445973	0.416370	0.928099
C75	C	0.945981	-0.083630	0.571982
C76	C	1.445981	0.416370	1.071982
C77	C	0.843941	-0.254631	0.571986
C78	C	1.343941	0.245369	1.071986
C79	C	0.843930	-0.254624	0.428105
C80	C	1.343930	0.245376	0.928105
H81	H	1.139936	0.045650	0.000047
H82	H	1.639936	0.545650	0.500047
F83	F	0.754944	0.164321	0.000014
F84	F	1.254944	0.664321	0.500014
H85	H	1.021807	0.239606	0.000074
H86	H	1.521807	0.739606	0.500074
H87	H	0.768109	0.422138	0.000003
H88	H	1.268109	0.922138	0.500003
F89	F	1.494768	-0.408475	0.000029
F90	F	1.994768	0.091525	0.500029
H91	H	1.018004	0.477220	0.000040
H92	H	1.518004	0.977220	0.500040
F93	F	1.000272	0.007370	0.351541
F94	F	1.500272	0.507370	0.851541
F95	F	1.000284	0.007367	0.648533
F96	F	1.500284	0.507367	1.148533
F97	F	1.295147	0.070196	0.000063
F98	F	1.795147	0.570196	0.500063
H99	H	0.802402	-0.324245	0.630573
H100	H	1.302402	0.175755	1.130573
F101	F	1.260373	-0.402241	0.000049
F102	F	1.760373	0.097759	0.500049
H103	H	1.537308	0.035099	0.000033
H104	H	2.037308	0.535099	0.500033
F105	F	1.692527	0.059651	0.000026
F106	F	2.192527	0.559651	0.500026
H107	H	1.109364	-0.369573	0.000062
H108	H	1.609364	0.130427	0.500062
F109	F	0.789620	-0.345619	0.351543
F110	F	1.289620	0.154381	0.851543
H111	H	1.649979	-0.383924	0.000024
H112	H	2.149979	0.116076	0.500024
