data_functionalizedCrystal
_audit_creation_method	'MofGen! by Chris Wilmer'
_symmetry_space_group_name_H-M	'P1'
_symmetry_Int_Tables_number	1
_symmetry_cell_setting	triclinic
loop_
_symmetry_equiv_pos_as_xyz
  x,y,z
_cell_length_a	31.640172
_cell_length_b	17.917603
_cell_length_c	17.917603
_cell_angle_alpha	60.138055
_cell_angle_beta	90.006769
_cell_angle_gamma	63.032812
loop_
_atom_site_label
_atom_site_type_symbol
_atom_site_fract_x
_atom_site_fract_y
_atom_site_fract_z
Zr1	Zr	0.431294	0.806770	-0.128959
O2	O	0.370647	0.951815	-0.249509
O3	O	0.446988	0.654539	-0.087304
O4	O	0.454645	0.796390	-0.242711
O5	O	0.360246	0.820659	0.023139
O6	O	0.524201	0.796376	-0.242694
O7	O	0.362989	0.809965	-0.094102
O8	O	0.510504	0.542631	0.035300
O9	O	0.373943	1.074404	-0.254855
O10	O	0.509091	0.719805	-0.075205
O11	O	0.455135	0.727796	0.012279
O12	O	0.464150	0.894807	-0.170693
O13	O	0.410194	0.902798	-0.083209
Zr14	Zr	0.537853	0.823804	0.058053
Zr15	Zr	0.542228	0.806748	-0.128933
Zr16	Zr	0.426919	0.823826	0.058027
Zr17	Zr	0.436552	1.002284	-0.137486
Zr18	Zr	0.532595	0.628290	0.066580
O19	O	0.522160	0.976035	0.016398
O20	O	0.528381	0.951783	-0.249472
O21	O	0.364425	0.976066	0.016361
O22	O	0.598501	0.678759	0.178603
O23	O	0.604722	0.654507	-0.087267
O24	O	0.440766	0.678790	0.178566
O25	O	0.608901	0.809915	-0.094045
O26	O	0.514502	0.834184	0.171805
O27	O	0.444946	0.834198	0.171788
O28	O	0.606158	0.820609	0.023196
O29	O	0.462121	1.074386	-0.254835
O30	O	0.507026	0.556188	0.183929
O31	O	0.595204	0.556170	0.183950
O32	O	0.598681	0.542613	0.035321
O33	O	0.370466	1.087961	-0.106227
O34	O	0.458644	1.087943	-0.106206
O35	O	0.504997	0.735767	0.099787
O36	O	0.558953	0.727775	0.012303
O37	O	0.514012	0.902778	-0.083185
O38	O	0.460056	0.910769	0.004299
C39	C	0.477996	0.570729	-0.024787
C40	C	0.475764	0.487728	-0.021167
C41	C	0.471686	0.335762	-0.014557
C42	C	0.497460	0.294807	-0.056347
C43	C	0.495191	0.210248	-0.052669
C44	C	0.473954	0.420329	-0.018234
C45	C	0.345812	0.815315	-0.035485
C46	C	0.298717	0.815324	-0.035496
C47	C	0.030167	0.723929	0.014409
C48	C	-0.146819	0.723913	0.014427
O49	O	-0.149755	0.646226	0.056849
N50	N	-0.192407	0.815261	-0.035418
C51	C	-0.193748	0.906621	-0.085266
O52	O	-0.236585	0.984319	-0.127654
C53	C	-0.016763	0.906637	-0.085278
C54	C	0.028825	0.815282	-0.035438
C55	C	0.075753	0.632582	0.064246
C56	C	0.119997	0.632586	0.064238
C57	C	0.118655	0.723939	0.014391
C58	C	0.073069	0.815286	-0.035447
C59	C	-0.018104	0.997996	-0.135121
C60	C	0.026147	0.997992	-0.135118
C61	C	0.071735	0.906637	-0.085277
C62	C	0.115970	0.906644	-0.085302
N63	N	0.161559	0.815295	-0.035457
C64	C	0.162901	0.723943	0.014389
C65	C	-0.286666	0.906606	-0.085258
C66	C	-0.330912	0.906602	-0.085256
C67	C	-0.283980	0.723893	0.014439
C68	C	-0.239733	0.723898	0.014431
C69	C	-0.241078	0.815257	-0.035413
C70	C	0.255814	0.723959	0.014366
C71	C	0.300060	0.723972	0.014350
C72	C	0.253123	0.906680	-0.085340
C73	C	0.208881	0.906668	-0.085328
C74	C	0.210230	0.815300	-0.035468
O75	O	0.118944	0.984290	-0.127694
O76	O	0.205742	0.646258	0.056787
C77	C	-0.014077	0.723925	0.014418
C78	C	-0.059662	0.815272	-0.035420
C79	C	-0.061005	0.906625	-0.085266
C80	C	-0.103909	0.815268	-0.035418
C81	C	-0.102566	0.723916	0.014428
C82	C	-0.056978	0.632568	0.064273
C83	C	-0.012734	0.632572	0.064264
C84	C	-0.106593	0.997973	-0.135111
C85	C	-0.150835	0.997961	-0.135099
C86	C	-0.149493	0.906608	-0.085253
C87	C	0.623335	0.815259	-0.035420
C88	C	0.670430	0.815249	-0.035409
C89	C	0.490046	0.793953	-0.269344
C90	C	0.491904	0.786712	-0.348724
C91	C	0.491151	1.059845	-0.046119
C92	C	0.493383	1.142846	-0.049739
C93	C	0.495307	0.773486	-0.494079
C94	C	0.473841	0.857083	-0.576830
C95	C	0.475735	0.849725	-0.657710
C96	C	0.493414	0.780843	-0.413190
C97	C	0.479101	0.836621	0.198438
C98	C	0.477243	0.843862	0.277818
C99	C	0.616758	0.570701	-0.024754
C100	C	0.661620	0.487690	-0.021123
C101	C	0.472524	0.592063	0.209104
C102	C	0.468434	0.516303	0.292104
C103	C	0.611285	0.592035	0.209137
C104	C	0.654290	0.516265	0.292148
C105	C	0.357862	1.038539	-0.280042
C106	C	0.314857	1.114309	-0.363054
C107	C	0.352389	1.059873	-0.046151
C108	C	0.307527	1.142884	-0.049782
C109	C	0.496624	1.038511	-0.280010
C110	C	0.500713	1.114271	-0.363010
C111	C	0.656661	0.444546	-0.065104
C112	C	0.698810	0.366559	-0.061711
C113	C	0.745918	0.331711	-0.014330
C114	C	0.750877	0.374863	0.029652
C115	C	0.708728	0.452854	0.026252
C116	C	0.492540	0.484886	0.376768
C117	C	0.488696	0.413713	0.454763
C118	C	0.460748	0.373952	0.448091
C119	C	0.436638	0.405376	0.363418
C120	C	0.440480	0.476553	0.285426
C121	C	0.702655	0.476511	0.285465
C122	C	0.743067	0.405328	0.363456
C123	C	0.735113	0.373894	0.448128
C124	C	0.686744	0.413655	0.454809
C125	C	0.646333	0.484843	0.376819
C126	C	0.266492	1.154072	-0.356372
C127	C	0.226081	1.225280	-0.434363
C128	C	0.234035	1.256718	-0.519036
C129	C	0.282404	1.216951	-0.525716
C130	C	0.322815	1.145750	-0.447725
C131	C	0.312487	1.186035	-0.005810
C132	C	0.270338	1.264042	-0.009225
C133	C	0.223231	1.298892	-0.056608
C134	C	0.218272	1.255738	-0.100586
C135	C	0.260420	1.177736	-0.097176
C136	C	0.528666	1.154010	-0.356310
C137	C	0.532518	1.225185	-0.434290
C138	C	0.508415	1.256626	-0.518970
C139	C	0.480461	1.216879	-0.525668
C140	C	0.476612	1.145700	-0.447689
H141	H	0.447917	0.307320	0.023980
H142	H	0.515105	0.696396	-0.483977
O143	O	0.344301	0.635138	0.062851
C144	C	0.335993	0.554510	0.106832
H145	H	0.297051	0.583340	0.114654
H146	H	0.339827	0.521234	0.065314
C147	C	0.422175	0.437031	0.190785
C148	C	0.374346	0.472439	0.200399
H149	H	0.445834	0.386403	0.248500
H150	H	0.427773	0.491351	0.161152
H151	H	0.425363	0.409308	0.156183
H152	H	0.371157	0.500172	0.234990
H153	H	0.368749	0.418121	0.230040
H154	H	0.454040	0.934180	-0.586932
H155	H	0.618308	0.472917	-0.103698
H156	H	-0.107693	1.072365	-0.175704
O157	O	0.358274	1.152202	0.040092
C158	C	0.387372	1.165923	-0.019372
H159	H	0.372145	1.170139	-0.079908
H160	H	0.386182	1.239053	-0.043087
C161	C	0.460036	1.071250	0.103832
C162	C	0.441337	1.076420	0.029485
H163	H	0.493324	1.016043	0.133970
H164	H	0.440432	1.062008	0.143895
H165	H	0.459040	1.132197	0.084059
H166	H	0.442327	1.015479	0.049260
H167	H	0.460942	1.085649	-0.010573
O168	O	0.710475	0.506886	0.203293
C169	C	0.761830	0.456465	0.214140
H170	H	0.783010	0.430486	0.282061
H171	H	0.773183	0.388110	0.211091
C172	C	0.747968	0.560728	0.054937
C173	C	0.773981	0.528827	0.138356
H174	H	0.755464	0.605361	0.008188
H175	H	0.713369	0.594695	0.047628
H176	H	0.757432	0.503757	0.052408
H177	H	0.764513	0.585795	0.140888
H178	H	0.808579	0.494871	0.145664
O179	O	0.172530	1.289415	-0.146532
C180	C	0.163825	1.209267	-0.109297
H181	H	0.200776	1.134291	-0.072455
H182	H	0.141508	1.212725	-0.059936
C183	C	0.089166	1.310415	-0.230319
C184	C	0.134550	1.218327	-0.185075
H185	H	0.071106	1.316005	-0.277061
H186	H	0.095030	1.364414	-0.255404
H187	H	0.070575	1.313285	-0.189176
H188	H	0.153143	1.215463	-0.226215
H189	H	0.128689	1.164328	-0.159999
O190	O	0.693897	0.324725	-0.104447
C191	C	0.643280	0.372220	-0.146999
H192	H	0.619717	0.407620	-0.112569
H193	H	0.633714	0.433496	-0.220847
C194	C	0.661678	0.250027	-0.182519
C195	C	0.632739	0.293499	-0.140226
H196	H	0.655175	0.201470	-0.178345
H197	H	0.695780	0.218030	-0.153854
H198	H	0.653704	0.301099	-0.244055
H199	H	0.640718	0.242429	-0.078689
H200	H	0.598637	0.325485	-0.168881
H201	H	0.780234	0.268204	-0.011568
O202	O	0.796674	0.340852	0.075673
C203	C	0.832806	0.262778	0.069220
H204	H	0.815027	0.227164	0.053870
H205	H	0.848932	0.295094	0.012916
C206	C	0.896347	0.225689	0.177815
C207	C	0.874511	0.181942	0.158970
H208	H	0.922073	0.175828	0.233175
H209	H	0.872004	0.278292	0.182160
H210	H	0.909781	0.252618	0.130889
H211	H	0.861072	0.155026	0.205890
H212	H	0.898852	0.129333	0.154635
H213	H	0.712773	0.487972	0.062072
H214	H	0.515299	0.517252	0.382217
H215	H	0.256374	1.142605	-0.132982
O216	O	0.512170	0.383267	0.536938
C217	C	0.537656	0.433637	0.526091
H218	H	0.545437	0.459690	0.458130
H219	H	0.513946	0.501939	0.529236
C220	C	0.577457	0.329198	0.685271
C221	C	0.587017	0.361190	0.601802
H222	H	0.607904	0.284513	0.731974
H223	H	0.560285	0.295265	0.692579
H224	H	0.557697	0.386125	0.687879
H225	H	0.606771	0.304266	0.599191
H226	H	0.604193	0.395112	0.594495
H227	H	0.511553	1.314585	-0.582458
O228	O	0.457003	0.304911	0.523918
C229	C	0.435305	0.347602	0.572206
H230	H	0.441149	0.412459	0.552982
H231	H	0.393885	0.377266	0.555216
C232	C	0.452483	0.186895	0.697482
C233	C	0.459665	0.266548	0.673877
H234	H	0.467507	0.136897	0.760198
H235	H	0.467100	0.158133	0.664949
H236	H	0.417966	0.211628	0.683317
H237	H	0.494181	0.241816	0.688033
H238	H	0.445054	0.295304	0.706416
O239	O	0.257067	0.635261	0.062666
C240	C	0.234322	0.624176	0.004285
H241	H	0.207792	0.701624	-0.059447
H242	H	0.263957	0.575189	-0.014100
C243	C	0.237867	0.478500	0.129715
C244	C	0.205279	0.573624	0.051442
H245	H	0.219954	0.447314	0.158804
H246	H	0.253193	0.485965	0.169048
H247	H	0.262561	0.437690	0.114383
H248	H	0.180591	0.614437	0.066776
H249	H	0.189949	0.566165	0.012112
O250	O	0.077152	0.543741	0.112687
C251	C	0.126880	0.463132	0.156686
H252	H	0.152059	0.487890	0.119632
H253	H	0.137475	0.440223	0.228860
C254	C	0.101952	0.342171	0.202815
C255	C	0.132877	0.372577	0.157301
H256	H	0.105652	0.286311	0.203199
H257	H	0.068450	0.396479	0.173175
H258	H	0.110785	0.323088	0.262956
H259	H	0.124040	0.391672	0.097159
H260	H	0.166378	0.318271	0.186931
O261	O	0.182283	1.374783	-0.060074
C262	C	0.157077	1.457127	-0.150435
H263	H	0.184033	1.453180	-0.192519
H264	H	0.125650	1.454035	-0.177287
C265	C	0.102476	1.561432	-0.104331
C266	C	0.135585	1.556589	-0.156018
H267	H	0.089216	1.622785	-0.107775
H268	H	0.119456	1.505954	-0.043452
H269	H	0.076291	1.558850	-0.126713
H270	H	0.161772	1.559157	-0.133628
H271	H	0.118609	1.612069	-0.216893
H272	H	0.201125	1.314694	-0.582533
O273	O	-0.375152	0.995436	-0.133698
C274	C	-0.366841	1.076058	-0.177707
H275	H	-0.328945	1.051317	-0.140659
H276	H	-0.368021	1.098961	-0.249880
C277	C	-0.453905	1.196996	-0.223838
C278	C	-0.407361	1.166611	-0.178329
H279	H	-0.478901	1.252855	-0.224226
H280	H	-0.459505	1.142680	-0.194191
H281	H	-0.454881	1.216074	-0.283977
H282	H	-0.406384	1.147521	-0.118189
H283	H	-0.401762	1.220926	-0.207966
H284	H	0.260007	1.128479	-0.287434
H285	H	0.460838	1.242490	-0.594625
O286	O	-0.195423	0.635230	0.062912
C287	C	-0.169865	0.635348	0.127282
H288	H	-0.184084	0.716528	0.104465
H289	H	-0.176347	0.594190	0.194849
C290	C	-0.096521	0.481704	0.165172
C291	C	-0.113981	0.581412	0.137144
H292	H	-0.062049	0.448430	0.171259
H293	H	-0.113740	0.481622	0.121808
H294	H	-0.101926	0.447419	0.221476
H295	H	-0.108581	0.615698	0.080837
H296	H	-0.096760	0.581498	0.180500
H297	H	0.413882	0.372992	0.358000
O298	O	0.790061	0.366825	0.356987
C299	C	0.816847	0.389562	0.396566
H300	H	0.789892	0.458221	0.397035
H301	H	0.839530	0.322220	0.468573
C302	C	0.884988	0.328292	0.341323
C303	C	0.851881	0.412625	0.341892
H304	H	0.906600	0.342514	0.307601
H305	H	0.866943	0.312970	0.314660
H306	H	0.903885	0.272182	0.401333
H307	H	0.832980	0.468730	0.281885
H308	H	0.869924	0.427958	0.368543
O309	O	0.290038	1.247566	-0.608038
C310	C	0.243996	1.318950	-0.675432
H311	H	0.213646	1.308796	-0.645793
H312	H	0.235464	1.398394	-0.702324
C313	C	0.283499	1.315797	-0.789162
C314	C	0.246224	1.303320	-0.752761
H315	H	0.284874	1.306160	-0.836865
H316	H	0.314519	1.267707	-0.743758
H317	H	0.276385	1.382000	-0.811565
H318	H	0.253343	1.237113	-0.730349
H319	H	0.215206	1.351398	-0.798163
O320	O	-0.287910	0.995284	-0.133742
C321	C	-0.262300	0.995173	-0.198112
H322	H	-0.234816	0.913994	-0.175294
H323	H	-0.289928	1.036327	-0.265679
C324	C	-0.267883	1.148826	-0.236002
C325	C	-0.234125	1.049120	-0.207973
H326	H	-0.250505	1.182106	-0.242089
H327	H	-0.285139	1.148903	-0.192637
H328	H	-0.290904	1.183107	-0.292305
H329	H	-0.211108	1.014837	-0.151667
H330	H	-0.216864	1.049038	-0.251329
O331	O	0.774360	0.304876	0.523902
C332	C	0.774136	0.347530	0.572226
H333	H	0.752545	0.433333	0.524525
H334	H	0.755799	0.324092	0.627461
C335	C	0.854348	0.204492	0.673424
C336	C	0.827832	0.309877	0.614835
H337	H	0.887470	0.181264	0.699711
H338	H	0.854498	0.175753	0.640870
H339	H	0.839061	0.184974	0.719445
H340	H	0.843116	0.329393	0.568809
H341	H	0.827686	0.338619	0.647383
H342	H	0.420851	0.502122	0.216492
O343	O	0.679002	0.383276	0.537038
C344	C	0.653711	0.467367	0.542974
H345	H	0.660276	0.529363	0.492846
H346	H	0.612306	0.496767	0.526836
C347	C	0.665084	0.359618	0.700540
C348	C	0.673150	0.435760	0.638977
H349	H	0.677073	0.340121	0.759760
H350	H	0.682121	0.302964	0.696541
H351	H	0.630579	0.384128	0.687080
H352	H	0.707655	0.411245	0.652431
H353	H	0.656119	0.492409	0.642981
H354	H	0.362195	1.113375	-0.453177
H355	H	0.274385	1.299167	0.026592
H356	H	0.157113	0.558195	0.104819
O357	O	-0.062415	1.086683	-0.183400
C358	C	-0.090836	1.097752	-0.125003
H359	H	-0.077573	1.020298	-0.061273
H360	H	-0.086358	1.146738	-0.106618
C361	C	-0.162139	1.243426	-0.250412
C362	C	-0.145851	1.148295	-0.172141
H363	H	-0.196075	1.274608	-0.279489
H364	H	-0.142991	1.235972	-0.289756
H365	H	-0.158402	1.284235	-0.235080
H366	H	-0.149582	1.107484	-0.187475
H367	H	-0.165001	1.155744	-0.132800
H368	H	0.606953	0.517201	0.382272
O369	O	0.552035	1.123396	-0.273989
C370	C	0.542661	1.052029	-0.206585
H371	H	0.507085	1.062196	-0.236213
H372	H	0.574928	0.972578	-0.179693
C373	C	0.580583	1.055173	-0.092871
C374	C	0.536886	1.067666	-0.129259
H375	H	0.577023	1.064814	-0.045171
H376	H	0.586900	1.103252	-0.138282
H377	H	0.607468	0.988963	-0.070468
H378	H	0.510003	1.133878	-0.151672
H379	H	0.530564	1.019599	-0.083851
O380	O	0.179129	1.263759	-0.427700
C381	C	0.180780	1.220745	-0.336240
H382	H	0.217213	1.145320	-0.293026
H383	H	0.178020	1.273881	-0.316479
C384	C	0.092351	1.296508	-0.374482
C385	C	0.137096	1.203865	-0.321406
H386	H	0.065404	1.286100	-0.365330
H387	H	0.091238	1.325491	-0.436100
H388	H	0.090057	1.340778	-0.358008
H389	H	0.139392	1.159601	-0.337887
H390	H	0.138209	1.174874	-0.259789
O391	O	0.449415	1.107245	-0.454366
C392	C	0.428978	1.150250	-0.545830
H393	H	0.426682	1.225660	-0.589041
H394	H	0.453508	1.097094	-0.565571
C395	C	0.379440	1.074545	-0.507632
C396	C	0.376616	1.167169	-0.560703
H397	H	0.347141	1.084978	-0.516807
H398	H	0.393210	1.045568	-0.446010
H399	H	0.399884	1.030258	-0.524088
H400	H	0.356177	1.211449	-0.544239
H401	H	0.362841	1.196153	-0.622323
H402	H	0.171761	0.981056	-0.125924
H403	H	0.555279	1.257540	-0.428819
H404	H	0.521230	0.323252	-0.094888
H405	H	-0.282894	0.649510	0.055020
H406	H	0.252039	0.981057	-0.125927
O407	O	0.024751	1.086829	-0.183620
C408	C	-0.024976	1.167452	-0.227585
H409	H	-0.049112	1.138618	-0.235400
H410	H	-0.038221	1.200719	-0.186059
C411	C	0.000847	1.284946	-0.311551
C412	C	-0.028797	1.249533	-0.321156
H413	H	-0.001510	1.335580	-0.369268
H414	H	0.034349	1.230629	-0.281928
H415	H	-0.010194	1.312661	-0.276943
H416	H	-0.017751	1.221807	-0.355754
H417	H	-0.062297	1.303846	-0.350786
H418	H	0.024382	0.558182	0.104852
H419	H	-0.055892	0.558185	0.104855
H420	H	-0.187953	1.072358	-0.175694
