data_functionalizedCrystal
_audit_creation_method	'MofGen! by Chris Wilmer'
_symmetry_space_group_name_H-M	'P1'
_symmetry_Int_Tables_number	1
_symmetry_cell_setting	triclinic
loop_
_symmetry_equiv_pos_as_xyz
  x,y,z
_cell_length_a	14.908742
_cell_length_b	18.101397
_cell_length_c	14.908308
_cell_angle_alpha	93.262730
_cell_angle_beta	96.760659
_cell_angle_gamma	86.727261
loop_
_atom_site_label
_atom_site_type_symbol
_atom_site_fract_x
_atom_site_fract_y
_atom_site_fract_z
Zn1	Zn	1.354228	-0.379379	-0.431739
Zn2	Zn	1.362866	-0.496470	-0.280374
Zn3	Zn	1.211602	-0.365901	-0.289147
Zn4	Zn	1.202838	-0.496428	-0.440437
O5	O	1.282883	-0.434545	-0.360424
O6	O	1.482035	-0.400569	-0.404348
O7	O	1.350083	-0.473527	-0.154876
O8	O	1.230575	-0.264060	-0.308093
O9	O	1.488381	-0.486595	-0.293141
O10	O	1.335361	-0.273962	-0.412855
O11	O	1.238951	-0.377599	-0.161321
O12	O	1.083778	-0.377558	-0.316528
O13	O	1.215637	-0.486524	-0.565946
O14	O	1.077339	-0.473456	-0.427680
O15	O	1.326863	-0.400528	-0.559555
O16	O	1.341585	-0.600093	-0.301576
O17	O	1.224013	-0.600063	-0.419174
C18	C	1.282809	-0.626950	-0.360385
C19	C	1.282858	-0.709267	-0.360394
C20	C	1.047717	-0.424041	-0.374001
C21	C	0.947111	-0.419566	-0.379830
C22	C	0.801997	-0.368557	-0.446029
C23	C	0.896526	-0.372755	-0.440557
C24	C	0.903160	-0.462183	-0.324574
C25	C	0.808632	-0.457984	-0.330047
C26	C	0.758054	-0.411169	-0.390776
C27	C	0.663524	-0.406967	-0.396243
C28	C	0.670159	-0.496398	-0.280266
C29	C	0.764688	-0.500596	-0.274794
C30	C	1.282968	-1.008366	-0.360469
C31	C	1.356757	-0.977012	-0.286304
C32	C	1.356988	-0.891413	-0.286472
C33	C	1.282913	-0.859979	-0.360431
C34	C	1.303264	-0.896395	-0.454344
C35	C	1.303825	-0.982047	-0.453931
C36	C	1.188596	-0.971513	-0.341558
C37	C	1.189192	-0.885789	-0.339401
C38	C	1.282881	-0.776118	-0.360415
C39	C	1.283003	-1.092228	-0.360491
C40	C	1.518968	-0.445090	-0.346795
C41	C	1.619573	-0.449584	-0.340988
C42	C	1.269309	-0.445025	-0.596510
C43	C	1.263524	-0.449491	-0.697116
C44	C	1.282982	-0.241390	-0.360482
C45	C	1.283024	-0.159079	-0.360507
C46	C	1.368470	-0.368319	-0.879512
C47	C	1.363038	-0.372513	-0.974040
C48	C	1.247223	-0.462068	-0.980702
C49	C	1.252655	-0.457875	-0.886174
C50	C	1.313282	-0.410999	-0.835582
C51	C	1.318718	-0.406810	-0.741052
C52	C	1.202899	-0.496361	-0.747716
C53	C	1.197467	-0.500555	-0.842244
C54	C	1.296457	-0.424054	-0.125254
C55	C	1.302417	-0.419387	-0.024638
H56	H	0.622344	-0.368844	-0.445688
C57	C	0.957921	-0.513089	-0.258632
C58	C	0.899206	-0.549528	-0.211429
C59	C	0.949619	-0.596439	-0.150687
H60	H	0.997076	-0.484686	-0.217042
H61	H	0.992783	-0.548607	-0.291045
H62	H	0.864360	-0.514015	-0.179017
H63	H	0.860051	-0.577944	-0.252995
H64	H	0.984480	-0.631957	-0.183100
H65	H	0.988771	-0.568031	-0.109103
H66	H	0.909788	-0.621174	-0.118659
C67	C	1.115357	-0.998336	-0.413745
C68	C	1.073550	-0.937674	-0.459189
C69	C	1.006093	-0.962357	-0.525701
H70	H	1.071635	-1.022549	-0.386165
H71	H	1.141687	-1.032010	-0.455630
H72	H	1.047220	-0.904013	-0.417311
H73	H	1.117249	-0.913454	-0.486788
H74	H	1.032423	-0.996031	-0.567586
H75	H	0.962378	-0.986571	-0.498114
H76	H	0.977725	-0.921203	-0.556549
H77	H	0.805881	-0.538714	-0.225352
H78	H	0.932301	-0.338056	-0.485550
H79	H	1.417840	-0.330155	-0.838319
H80	H	0.634370	-0.531097	-0.235276
C81	C	1.395579	-1.013911	-0.476286
C82	C	1.410510	-0.992413	-0.561823
C83	C	1.495031	-1.021740	-0.582441
H84	H	1.396849	-1.066437	-0.476305
H85	H	1.441522	-0.995847	-0.432233
H86	H	1.364580	-1.010481	-0.605865
H87	H	1.409259	-0.939892	-0.561826
H88	H	1.540974	-1.003676	-0.538388
H89	H	1.496293	-1.074265	-0.582455
H90	H	1.505177	-1.007152	-0.640475
H91	H	1.407976	-0.337756	-1.009804
C92	C	1.131737	-0.551430	-0.897334
C93	C	1.138803	-0.545981	-0.989520
C94	C	1.078276	-0.592845	-1.040293
H95	H	1.071773	-0.537244	-0.885467
H96	H	1.145861	-0.601109	-0.881117
H97	H	1.124673	-0.496312	-1.005731
H98	H	1.198753	-0.560173	-1.001414
H99	H	1.092400	-0.642525	-1.024076
H100	H	1.018316	-0.578655	-1.028418
H101	H	1.083068	-0.589160	-1.102846
C102	C	1.143125	-0.542748	-0.699900
C103	C	1.197471	-0.590082	-0.642646
C104	C	1.142443	-0.632819	-0.598576
H105	H	1.106229	-0.571328	-0.743473
H106	H	1.105835	-0.511045	-0.665255
H107	H	1.234746	-0.621781	-0.677289
H108	H	1.234366	-0.561522	-0.599057
H109	H	1.105153	-0.601116	-0.563931
H110	H	1.105550	-0.661394	-0.642155
H111	H	1.179308	-0.664935	-0.559718
C112	C	0.747236	-0.317714	-0.512047
C113	C	0.805953	-0.281304	-0.559279
C114	C	0.755540	-0.234469	-0.620112
H115	H	0.712336	-0.282172	-0.479729
H116	H	0.708116	-0.346190	-0.553606
H117	H	0.845057	-0.252830	-0.517726
H118	H	0.840854	-0.316827	-0.591615
H119	H	0.716420	-0.262945	-0.661670
H120	H	0.720642	-0.198932	-0.587786
H121	H	0.795371	-0.209765	-0.652172
C122	C	1.340911	-0.858432	-0.193315
C123	C	1.330891	-0.915575	-0.136372
C124	C	1.316101	-0.885226	-0.050541
H125	H	1.287570	-0.826924	-0.198107
H126	H	1.391031	-0.830598	-0.168918
H127	H	1.280776	-0.943396	-0.160764
H128	H	1.384224	-0.947087	-0.131554
H129	H	1.366221	-0.857392	-0.026144
H130	H	1.262760	-0.853718	-0.055342
H131	H	1.309309	-0.923992	-0.011893
H132	H	1.197863	-0.500232	-1.021910
C133	C	1.449688	-1.010638	-0.302163
C134	C	1.506077	-0.954154	-0.316245
C135	C	1.591692	-0.985105	-0.330850
H136	H	1.444319	-1.043934	-0.353884
H137	H	1.474890	-1.036644	-0.250783
H138	H	1.480881	-0.928160	-0.367620
H139	H	1.511473	-0.920855	-0.264533
H140	H	1.616894	-1.011111	-0.279470
H141	H	1.586313	-1.018400	-0.382570
H142	H	1.629964	-0.946785	-0.340398
C143	C	1.234895	-1.010157	-0.529653
C144	C	1.234864	-1.087513	-0.529841
C145	C	1.171374	-1.113430	-0.599577
H146	H	1.250255	-0.995944	-0.586052
H147	H	1.176480	-0.989483	-0.520418
H148	H	1.293266	-1.108179	-0.539082
H149	H	1.219494	-1.101745	-0.473458
H150	H	1.112959	-1.092756	-0.590343
H151	H	1.186740	-1.099212	-0.655972
H152	H	1.171339	-1.165917	-0.599709
C153	C	1.233421	-0.869395	-0.529576
C154	C	1.170684	-0.819439	-0.492829
C155	C	1.106339	-0.794542	-0.562105
H156	H	1.202998	-0.910399	-0.558873
H157	H	1.262755	-0.845374	-0.572196
H158	H	1.141353	-0.843459	-0.450225
H159	H	1.201080	-0.778422	-0.463539
H160	H	1.135673	-0.770522	-0.604725
H161	H	1.075923	-0.835551	-0.591398
H162	H	1.063770	-0.760639	-0.537183
H163	H	1.344871	-0.993778	-0.216272
C164	C	1.162671	-0.994979	-0.252164
C165	C	1.231002	-1.043004	-0.212397
C166	C	1.207168	-1.064630	-0.130038
H167	H	1.107547	-1.019616	-0.262558
H168	H	1.155292	-0.952431	-0.212870
H169	H	1.238370	-1.085546	-0.251683
H170	H	1.286132	-1.018384	-0.201981
H171	H	1.199789	-1.022082	-0.090743
H172	H	1.152043	-1.089264	-0.140440
H173	H	1.253530	-1.097212	-0.103041
C174	C	1.393866	-0.873002	-0.477223
C175	C	1.380947	-0.835868	-0.557957
C176	C	1.464390	-0.814301	-0.579049
H177	H	1.433142	-0.915613	-0.484206
H178	H	1.419949	-0.840937	-0.429783
H179	H	1.354878	-0.867932	-0.605386
H180	H	1.341686	-0.793249	-0.550996
H181	H	1.490473	-0.782236	-0.531609
H182	H	1.503660	-0.856915	-0.586028
H183	H	1.455635	-0.789097	-0.633824
C184	C	1.168486	-0.853601	-0.247251
C185	C	1.084813	-0.877049	-0.229267
C186	C	1.065737	-0.847442	-0.144364
H187	H	1.166374	-0.801042	-0.246975
H188	H	1.214415	-0.870183	-0.202125
H189	H	1.038896	-0.860463	-0.274381
H190	H	1.086905	-0.929603	-0.229524
H191	H	1.111666	-0.864025	-0.099239
H192	H	1.063629	-0.794885	-0.144097
H193	H	1.008968	-0.863353	-0.132148
C194	C	1.384562	-0.355844	-0.686283
C195	C	1.431711	-0.319348	-0.744994
C196	C	1.492364	-0.272383	-0.694576
H197	H	1.426189	-0.384214	-0.647114
H198	H	1.352088	-0.320360	-0.651435
H199	H	1.464183	-0.354828	-0.779826
H200	H	1.390107	-0.290965	-0.784163
H201	H	1.459890	-0.236899	-0.659728
H202	H	1.533985	-0.300759	-0.655409
H203	H	1.524356	-0.247610	-0.734404
H204	H	1.427006	-0.874755	-0.298546
H205	H	1.131702	-0.864073	-0.389908
