data_functionalizedCrystal
_audit_creation_method	'MofGen! by Chris Wilmer'
_symmetry_space_group_name_H-M	'P1'
_symmetry_Int_Tables_number	1
_symmetry_cell_setting	triclinic
loop_
_symmetry_equiv_pos_as_xyz
  x,y,z
_cell_length_a	10.654554
_cell_length_b	19.188930
_cell_length_c	17.666332
_cell_angle_alpha	90.010342
_cell_angle_beta	90.009994
_cell_angle_gamma	83.815812
loop_
_atom_site_label
_atom_site_type_symbol
_atom_site_fract_x
_atom_site_fract_y
_atom_site_fract_z
O1	O	1.665771	0.098078	0.062971
O2	O	2.165771	0.598078	0.562971
O3	O	1.300096	0.107417	0.062971
O4	O	1.800096	0.607417	0.562971
O5	O	1.493486	0.001161	0.062956
O6	O	1.993486	0.501161	0.562956
O7	O	1.472381	0.204334	0.062986
O8	O	1.972381	0.704334	0.562986
O9	O	1.493452	0.001157	-0.062940
O10	O	1.993452	0.501157	0.437060
O11	O	1.300062	0.107413	-0.062926
O12	O	1.800062	0.607413	0.437074
O13	O	1.665737	0.098074	-0.062925
O14	O	2.165737	0.598074	0.437075
Cu15	Cu	1.482896	0.102744	-0.074421
Cu16	Cu	1.982896	0.602744	0.425579
Cu17	Cu	1.482937	0.102747	0.074466
Cu18	Cu	1.982937	0.602747	0.574466
O19	O	1.472347	0.204330	-0.062911
O20	O	1.972347	0.704330	0.437089
C21	C	1.253295	0.106729	0.000022
C22	C	1.753295	0.606729	0.500022
C23	C	1.113896	0.104675	0.000021
C24	C	1.613896	0.604675	0.500021
C25	C	0.932740	0.038251	0.000021
C26	C	1.432740	0.538251	0.500021
C27	C	1.063720	0.040180	0.000014
C28	C	1.563720	0.540180	0.500014
C29	C	1.033083	0.167244	0.000028
C30	C	1.533083	0.667244	0.500028
C31	C	0.902105	0.165315	0.000030
C32	C	1.402105	0.665315	0.500030
C33	C	0.950429	-0.035108	0.000017
C34	C	1.450429	0.464892	0.500017
C35	C	1.081410	-0.033179	0.000009
C36	C	1.581410	0.466821	0.500009
C37	C	1.492786	-0.024857	0.000006
C38	C	1.992786	0.475143	0.500006
C39	C	1.490734	-0.102374	-0.000001
C40	C	1.990734	0.397626	0.499999
C41	C	1.604209	-0.146555	-0.000004
C42	C	2.104209	0.353445	0.499996
C43	C	1.602282	-0.219392	0.000008
C44	C	2.102282	0.280608	0.500008
C45	C	1.486872	-0.248044	0.000008
C46	C	1.986872	0.251956	0.500008
C47	C	1.373382	-0.203854	0.000016
C48	C	1.873382	0.296146	0.500016
C49	C	1.375313	-0.131019	0.000011
C50	C	1.875313	0.368981	0.500011
N51	N	1.398644	-0.356628	-0.042837
N52	N	1.898644	0.143372	0.457163
N53	N	1.396818	-0.425819	-0.042834
N54	N	1.896818	0.074181	0.457166
C55	C	1.481048	-0.467491	0.000024
C56	C	1.981048	0.032509	0.500024
N57	N	1.567193	-0.437360	0.042869
N58	N	2.067193	0.062640	0.542869
N59	N	1.569023	-0.368163	0.042863
N60	N	2.069023	0.131837	0.542863
C61	C	1.484766	-0.327020	0.000014
C62	C	1.984766	0.172980	0.500014
C63	C	1.592441	-0.590650	0.000034
C64	C	2.092441	-0.090650	0.500034
C65	C	1.590509	-0.663487	0.000051
C66	C	2.090509	-0.163487	0.500051
C67	C	1.361607	-0.647947	0.000052
C68	C	1.861607	-0.147947	0.500052
C69	C	1.363542	-0.575112	0.000042
C70	C	1.863542	-0.075112	0.500042
C71	C	1.478963	-0.546467	0.000030
C72	C	1.978963	-0.046467	0.500030
C73	C	1.712537	0.098762	0.000025
C74	C	2.212537	0.598762	0.500025
C75	C	1.851937	0.100816	0.000031
C76	C	2.351937	0.600816	0.500031
C77	C	1.473047	0.230348	0.000041
C78	C	1.973047	0.730348	0.500041
C79	C	1.475099	0.307865	0.000053
C80	C	1.975099	0.807865	0.500053
N81	N	1.482877	0.102740	-0.179140
N82	N	1.982877	0.602740	0.320860
C83	C	1.558794	0.145483	-0.218737
C84	C	2.058794	0.645483	0.281263
C85	C	1.558814	0.145481	-0.297985
C86	C	2.058814	0.645481	0.202015
C87	C	1.482894	0.102745	-0.337633
C88	C	1.982894	0.602745	0.162367
C89	C	1.406972	0.059993	-0.298026
C90	C	1.906972	0.559993	0.201974
C91	C	1.406964	0.059991	-0.218780
C92	C	1.906964	0.559991	0.281220
N93	N	1.372913	0.100304	-0.462073
N94	N	1.872913	0.600304	0.037927
N95	N	1.372924	0.100310	-0.537353
N96	N	1.872924	0.600310	-0.037353
C97	C	1.482917	0.102747	-0.576397
C98	C	1.982917	0.602747	-0.076397
N99	N	1.592899	0.105192	-0.537316
N100	N	2.092899	0.605192	-0.037316
N101	N	1.592886	0.105189	-0.462028
N102	N	2.092886	0.605189	0.037972
C103	C	1.482895	0.102742	-0.423562
C104	C	1.982895	0.602742	0.076438
C105	C	1.558862	0.145490	-0.701923
C106	C	2.058862	0.645490	-0.201923
C107	C	1.558885	0.145483	-0.781172
C108	C	2.058885	0.645483	-0.281172
C109	C	1.407031	0.059999	-0.781212
C110	C	1.907031	0.559999	-0.281212
C111	C	1.407020	0.060002	-0.701964
C112	C	1.907020	0.560002	-0.201964
C113	C	1.482934	0.102751	-0.662324
C114	C	1.982934	0.602751	-0.162324
N115	N	1.482966	0.102745	0.179186
N116	N	1.982966	0.602745	0.679186
H117	H	0.921659	-0.063801	-0.052672
H118	H	1.421659	0.436199	0.447328
H119	H	1.123766	-0.060815	0.052694
H120	H	1.623766	0.439185	0.552694
H121	H	0.915310	-0.058466	0.054373
H122	H	1.415310	0.441534	0.554373
C123	C	1.143687	-0.063125	-0.073429
C124	C	1.643687	0.436875	0.426571
H125	H	1.080787	-0.077800	-0.106126
H126	H	1.580787	0.422200	0.393874
H127	H	1.185405	-0.027997	-0.097823
H128	H	1.685405	0.472003	0.402177
H129	H	1.203280	-0.102060	-0.061642
H130	H	1.703280	0.397940	0.438358
C131	C	1.323458	0.012987	-0.341635
C132	C	1.823458	0.512987	0.158365
H133	H	1.334325	0.019115	-0.394503
H134	H	1.834325	0.519115	0.105497
H135	H	1.347053	-0.034664	-0.328659
H136	H	1.847053	0.465336	0.171341
H137	H	1.237462	0.025519	-0.328655
H138	H	1.737462	0.525519	0.171345
H139	H	1.271138	-0.539139	0.000041
H140	H	1.771138	-0.039139	0.500041
H141	H	1.345141	0.025184	-0.186541
H142	H	1.845141	0.525184	0.313459
C143	C	1.731166	-0.115050	-0.000004
C144	C	2.231166	0.384950	0.499996
H145	H	1.798472	-0.151799	0.000003
H146	H	2.298472	0.348201	0.500003
H147	H	1.736672	-0.086966	-0.043906
H148	H	2.236672	0.413034	0.456094
H149	H	1.736686	-0.086955	0.043906
H150	H	2.236686	0.413045	0.543906
H151	H	1.073946	0.219757	0.000027
H152	H	1.573946	0.719757	0.500027
H153	H	1.694689	-0.255370	0.000008
H154	H	2.194689	0.244630	0.500008
C155	C	1.642384	0.192499	-0.658316
C156	C	2.142384	0.692499	-0.158316
H157	H	1.687619	0.217946	-0.693252
H158	H	2.187619	0.717946	-0.193252
H159	H	1.590753	0.224367	-0.627401
H160	H	2.090753	0.724367	-0.127401
H161	H	1.700331	0.164176	-0.627402
H162	H	2.200331	0.664176	-0.127402
H163	H	1.279416	-0.227187	0.000018
H164	H	1.779416	0.272813	0.500018
C165	C	1.250485	-0.082418	0.000008
C166	C	1.750485	0.417582	0.500008
H167	H	1.181473	-0.109911	0.000007
H168	H	1.681473	0.390089	0.500007
H169	H	1.246492	-0.053669	0.043906
H170	H	1.746492	0.446331	0.543906
H171	H	1.246472	-0.053696	-0.043905
H172	H	1.746472	0.446304	0.456095
H173	H	1.686424	-0.567326	0.000028
H174	H	2.186424	-0.067326	0.500028
C175	C	1.642306	0.192499	-0.175138
C176	C	2.142306	0.692499	0.324862
H177	H	1.687530	0.217951	-0.210075
H178	H	2.187530	0.717951	0.289925
H179	H	1.590668	0.224363	-0.144222
H180	H	2.090668	0.724363	0.355778
H181	H	1.700263	0.164182	-0.144225
H182	H	2.200263	0.664182	0.355775
C183	C	1.715338	-0.712087	0.000046
C184	C	2.215338	-0.212087	0.500046
H185	H	1.784350	-0.684592	0.000031
H186	H	2.284350	-0.184592	0.500031
H187	H	1.719366	-0.740814	0.043951
H188	H	2.219366	-0.240814	0.543951
H189	H	1.719319	-0.740831	-0.043861
H190	H	2.219319	-0.240831	0.456139
H191	H	1.267638	-0.671275	0.000056
H192	H	1.767638	-0.171275	0.500056
H193	H	1.345195	0.025199	-0.669724
H194	H	1.845195	0.525199	-0.169724
C195	C	1.642398	0.192503	-0.824729
C196	C	2.142398	0.692503	-0.324729
H197	H	1.687595	0.217965	-0.789768
H198	H	2.187595	0.717965	-0.289768
H199	H	1.700359	0.164195	-0.855640
H200	H	2.200359	0.664195	-0.355640
H201	H	1.590750	0.224369	-0.855643
H202	H	2.090750	0.724369	-0.355643
C203	C	1.642320	0.192501	-0.341554
C204	C	2.142320	0.692501	0.158446
H205	H	1.631456	0.186375	-0.394427
H206	H	2.131456	0.686375	0.105573
H207	H	1.618715	0.240150	-0.328560
H208	H	2.118715	0.740150	0.171440
H209	H	1.728317	0.179973	-0.328560
H210	H	2.228317	0.679973	0.171440
C211	C	0.813220	0.234133	0.000035
C212	C	1.313220	0.734133	0.500035
H213	H	0.728028	0.223749	0.000030
H214	H	1.228028	0.723749	0.500030
H215	H	0.828406	0.260559	0.043938
H216	H	1.328406	0.760559	0.543938
H217	H	0.828379	0.260546	-0.043874
H218	H	1.328379	0.760546	0.456126
C219	C	1.323520	0.012990	-0.824815
C220	C	1.823520	0.512990	-0.324815
H221	H	1.334391	0.019115	-0.877683
H222	H	1.834391	0.519115	-0.377683
H223	H	1.347113	-0.034660	-0.811834
H224	H	1.847113	0.465340	-0.311834
H225	H	1.237523	0.025524	-0.811837
H226	H	1.737523	0.525524	-0.311837
