data_functionalizedCrystal
_audit_creation_method	'MofGen! by Chris Wilmer'
_symmetry_space_group_name_H-M	'P1'
_symmetry_Int_Tables_number	1
_symmetry_cell_setting	triclinic
loop_
_symmetry_equiv_pos_as_xyz
  x,y,z
_cell_length_a	8.597213
_cell_length_b	8.559649
_cell_length_c	7.088929
_cell_angle_alpha	95.344185
_cell_angle_beta	91.336194
_cell_angle_gamma	77.624681
loop_
_atom_site_label
_atom_site_type_symbol
_atom_site_fract_x
_atom_site_fract_y
_atom_site_fract_z
O1	O	-1.998338	-0.287610	-0.488143
O2	O	-1.498338	0.212390	0.011857
O3	O	-1.547628	-0.298332	-0.413905
O4	O	-1.047628	0.201668	0.086095
O5	O	-1.812691	-0.061665	-0.457563
O6	O	-1.312691	0.438335	0.042437
O7	O	-1.733275	-0.524277	-0.444486
O8	O	-1.233275	-0.024277	0.055514
O9	O	-1.848123	-0.029963	-0.145423
O10	O	-1.348123	0.470037	0.354577
O11	O	-1.583060	-0.266630	-0.101766
O12	O	-1.083060	0.233370	0.398234
O13	O	-2.033770	-0.255908	-0.176004
O14	O	-1.533770	0.244092	0.323996
Cu15	Cu	-1.811650	-0.258375	-0.110384
Cu16	Cu	-1.311650	0.241625	0.389616
Cu17	Cu	-1.769748	-0.295866	-0.479525
Cu18	Cu	-1.269748	0.204134	0.020475
O19	O	-1.768707	-0.492575	-0.132346
O20	O	-1.268707	0.007425	0.367654
C21	C	-1.836425	0.013519	-0.302488
C22	C	-1.336425	0.513519	0.197512
C23	C	-1.854338	0.190313	-0.305449
C24	C	-1.354338	0.690313	0.194551
C25	C	-1.508177	-0.279564	-0.248419
C26	C	-1.008177	0.220436	0.251581
C27	C	-1.337840	-0.270852	-0.220363
C28	C	-0.837840	0.229148	0.279637
C29	C	-2.073220	-0.274677	-0.341493
C30	C	-1.573220	0.225323	0.158507
C31	C	-2.243555	-0.283390	-0.369562
C32	C	-1.743555	0.216610	0.130438
N33	N	-1.841133	-0.232005	0.149248
N34	N	-1.341133	0.267995	0.649248
C35	C	-1.744972	-0.567760	-0.287425
C36	C	-1.244972	-0.067760	0.212575
C37	C	-1.727058	-0.744555	-0.284476
C38	C	-1.227058	-0.244555	0.215524
N39	N	-1.740278	-0.322224	-0.739159
N40	N	-1.240278	0.177776	-0.239159
H41	H	-1.293144	-0.300802	-0.518754
H42	H	-0.793144	0.199198	-0.018754
H43	H	-1.977024	0.269816	-0.325642
H44	H	-1.477024	0.769816	0.174358
F45	F	-1.273017	-0.248116	-0.025341
F46	F	-0.773017	0.251884	0.474659
F47	F	-1.566707	0.151545	-0.258060
F48	F	-1.066707	0.651545	0.241940
F49	F	-1.603656	-0.444428	0.176627
F50	F	-1.103656	0.055572	0.676627
F51	F	-1.977776	-0.109809	0.233467
F52	F	-1.477776	0.390191	0.733467
