data_functionalizedCrystal
_audit_creation_method	'MofGen! by Chris Wilmer'
_symmetry_space_group_name_H-M	'P1'
_symmetry_Int_Tables_number	1
_symmetry_cell_setting	triclinic
loop_
_symmetry_equiv_pos_as_xyz
  x,y,z
_cell_length_a	12.594517
_cell_length_b	29.839131
_cell_length_c	12.594517
_cell_angle_alpha	90.010103
_cell_angle_beta	90.002075
_cell_angle_gamma	90.041220
loop_
_atom_site_label
_atom_site_type_symbol
_atom_site_fract_x
_atom_site_fract_y
_atom_site_fract_z
Zn1	Zn	1.626877	-0.178952	0.601810
Zn2	Zn	1.626749	-0.254055	0.423810
Zn3	Zn	1.448941	-0.178939	0.423839
Zn4	Zn	1.448784	-0.254056	0.601740
O5	O	1.537838	-0.216501	0.512800
O6	O	1.775806	-0.188920	0.578215
O7	O	1.603174	-0.244084	0.274868
O8	O	1.472663	-0.116074	0.447488
O9	O	1.775712	-0.244097	0.447440
O10	O	1.603392	-0.116084	0.578242
O11	O	1.472539	-0.188897	0.274889
O12	O	1.299974	-0.188898	0.447420
O13	O	1.472397	-0.244099	0.750695
O14	O	1.299859	-0.244086	0.578124
O15	O	1.603241	-0.188921	0.750746
O16	O	1.603022	-0.316922	0.447372
O17	O	1.472273	-0.316923	0.578096
C18	C	1.261297	-0.216491	0.512768
C19	C	1.142991	-0.216498	0.512780
C20	C	1.073770	-0.186441	0.441826
C21	C	1.002925	-0.227415	0.415635
C22	C	1.003037	-0.175544	0.538990
C23	C	1.073704	-0.257494	0.486538
C24	C	1.073823	-0.205596	0.609938
C25	C	1.003010	-0.246598	0.583784
C26	C	1.537645	-0.333223	0.512747
C27	C	1.537661	-0.383158	0.512760
C28	C	1.606043	-0.692788	0.444831
C29	C	1.606174	-0.880461	0.444872
O30	O	1.664163	-0.904714	0.387076
N31	N	1.538058	-0.903943	0.512880
C32	C	1.469910	-0.880503	0.580887
O33	O	1.411984	-0.904782	0.638740
C34	C	1.469785	-0.692831	0.580850
C35	C	1.537897	-0.669352	0.512831
C36	C	1.674151	-0.669308	0.376818
C37	C	1.674113	-0.622393	0.376804
C38	C	1.605968	-0.598957	0.444804
C39	C	1.537860	-0.622436	0.512817
C40	C	1.401642	-0.669393	0.648862
C41	C	1.401619	-0.622472	0.648849
C42	C	1.469731	-0.598992	0.580829
C43	C	1.469676	-0.552085	0.580803
N44	N	1.537792	-0.528603	0.512795
C45	C	1.605938	-0.552039	0.444796
C46	C	1.469979	-0.979034	0.580900
C47	C	1.470009	-1.025952	0.580908
C48	C	1.606275	-1.025906	0.444894
C49	C	1.606239	-0.978987	0.444882
C50	C	1.538095	-0.955552	0.512892
C51	C	1.605853	-0.453513	0.444771
C52	C	1.605806	-0.406594	0.444760
C53	C	1.469545	-0.406643	0.580777
C54	C	1.469587	-0.453559	0.580785
C55	C	1.537750	-0.476993	0.512778
O56	O	1.411727	-0.527802	0.638577
O57	O	1.663872	-0.527752	0.386967
C58	C	1.606080	-0.739703	0.444845
C59	C	1.537972	-0.763183	0.512858
C60	C	1.469827	-0.739747	0.580858
C61	C	1.538002	-0.810100	0.512866
C62	C	1.606148	-0.833536	0.444867
C63	C	1.674264	-0.810055	0.376859
C64	C	1.674226	-0.763139	0.376845
C65	C	1.401711	-0.763228	0.648865
C66	C	1.401753	-0.810144	0.648873
C67	C	1.469899	-0.833580	0.580873
C68	C	1.815458	-0.216510	0.512832
C69	C	1.933764	-0.216514	0.512845
C70	C	1.537816	-0.216512	0.790420
C71	C	1.537806	-0.216517	0.908726
C72	C	1.538060	-0.099322	0.512876
C73	C	1.538154	-0.049388	0.512908
C74	C	1.466639	-0.246524	0.977951
C75	C	1.563725	-0.257514	1.048739
C76	C	1.440726	-0.205539	1.048738
C77	C	1.634943	-0.227528	0.977955
C78	C	1.511879	-0.175534	0.977948
C79	C	1.609031	-0.186508	1.048703
C80	C	1.537836	-0.216503	1.236259
C81	C	1.537800	-0.216508	1.117953
H82	H	0.971784	-0.236647	0.333498
Br83	Br	1.698754	-1.057721	0.352606
Br84	Br	1.766572	-0.590535	0.284502
H85	H	1.717064	-0.236849	0.946993
Br86	Br	0.951550	-0.289022	0.683844
Br87	Br	1.125219	-0.315249	0.449478
H88	H	1.104837	-0.161047	0.381749
H89	H	1.346220	-0.744150	0.704240
Br90	Br	1.125767	-0.190191	0.746803
Br91	Br	0.951285	-0.117809	0.575889
H92	H	1.729649	-0.688385	0.321444
Br93	Br	1.303895	-0.190068	1.100565
H94	H	1.406533	-0.271923	0.946887
H95	H	1.661272	-0.387478	0.389367
H96	H	1.414058	-0.387554	0.636139
Br97	Br	1.600288	-0.315273	1.100567
Br98	Br	1.698360	-0.485309	0.352476
H99	H	1.661702	-0.959873	0.389495
Br100	Br	1.709446	-0.144206	1.100162
Br101	Br	1.377551	-1.057811	0.673208
Br102	Br	1.309302	-0.842003	0.741191
H103	H	1.489915	-0.140889	0.946829
H104	H	1.414485	-0.959956	0.636284
H105	H	1.346172	-0.688501	0.704246
H106	H	1.346129	-0.603393	0.704235
Br107	Br	1.377122	-0.485425	0.673072
H108	H	1.729747	-0.829144	0.321488
Br109	Br	1.766672	-0.731282	0.284530
