data_functionalizedCrystal
_audit_creation_method	'MofGen! by Chris Wilmer'
_symmetry_space_group_name_H-M	'P1'
_symmetry_Int_Tables_number	1
_symmetry_cell_setting	triclinic
loop_
_symmetry_equiv_pos_as_xyz
  x,y,z
_cell_length_a	10.686220
_cell_length_b	16.625546
_cell_length_c	10.686551
_cell_angle_alpha	94.409858
_cell_angle_beta	89.691918
_cell_angle_gamma	94.404440
loop_
_atom_site_label
_atom_site_type_symbol
_atom_site_fract_x
_atom_site_fract_y
_atom_site_fract_z
Zn1	Zn	1.972246	-0.196578	0.562364
Zn2	Zn	2.305579	0.136755	0.895697
Zn3	Zn	2.638912	0.470088	1.229030
Zn4	Zn	1.955985	-0.342520	0.352588
Zn5	Zn	2.289318	-0.009187	0.685922
Zn6	Zn	2.622652	0.324146	1.019255
Zn7	Zn	1.746360	-0.217205	0.368679
Zn8	Zn	2.079693	0.116129	0.702012
Zn9	Zn	2.413026	0.449462	1.035345
Zn10	Zn	1.762416	-0.340886	0.578366
Zn11	Zn	2.095749	-0.007553	0.911700
Zn12	Zn	2.429082	0.325780	1.245033
O13	O	1.859251	-0.274297	0.465499
O14	O	2.192585	0.059036	0.798833
O15	O	2.525918	0.392369	1.132166
O16	O	2.145632	-0.207989	0.521106
O17	O	2.478965	0.125344	0.854439
O18	O	2.812299	0.458677	1.187772
O19	O	1.914653	-0.335213	0.179176
O20	O	2.247987	-0.001880	0.512510
O21	O	2.581320	0.331454	0.845843
O22	O	1.776409	-0.101630	0.394408
O23	O	2.109743	0.231703	0.727742
O24	O	2.443076	0.565036	1.061075
O25	O	2.133686	-0.315212	0.366985
O26	O	2.467019	0.018121	0.700318
O27	O	2.800352	0.351454	1.033651
O28	O	1.942367	-0.086476	0.536708
O29	O	2.275700	0.246857	0.870041
O30	O	2.609034	0.580191	1.203374
O31	O	1.760642	-0.243144	0.190998
O32	O	2.093976	0.090189	0.524331
O33	O	2.427309	0.423522	0.857664
O34	O	1.572946	-0.241560	0.409925
O35	O	1.906279	0.091773	0.743259
O36	O	2.239613	0.425107	1.076592
O37	O	1.803775	-0.312427	0.751790
O38	O	2.137108	0.020906	1.085123
O39	O	2.470441	0.354239	1.418457
O40	O	1.584742	-0.332428	0.563982
O41	O	1.918075	0.000905	0.897315
O42	O	2.251409	0.334239	1.230648
O43	O	1.957936	-0.206405	0.740033
O44	O	2.291269	0.126928	1.073366
O45	O	2.624602	0.460262	1.406700
O46	O	1.930222	-0.455142	0.382502
O47	O	2.263555	-0.121809	0.715835
O48	O	2.596889	0.211525	1.049168
O49	O	1.788007	-0.453942	0.548380
O50	O	2.121341	-0.120608	0.881713
O51	O	2.454674	0.212725	1.215046
C52	C	1.533328	-0.289055	0.490437
C53	C	1.866661	0.044278	0.823770
C54	C	2.199994	0.377611	1.157103
C55	C	1.393898	-0.295387	0.501135
C56	C	1.727232	0.037946	0.834468
C57	C	2.060565	0.371280	1.167802
C58	C	1.859129	-0.483797	0.465456
C59	C	2.192462	-0.150463	0.798789
C60	C	2.525795	0.182870	1.132123
C61	C	1.859194	-0.573414	0.465470
C62	C	2.192528	-0.240080	0.798804
C63	C	2.525861	0.093253	1.132137
C64	C	1.859423	-0.901572	0.465584
C65	C	2.192756	-0.568239	0.798918
C66	C	2.526090	-0.234906	1.132251
C67	C	1.859356	-0.810269	0.465556
C68	C	2.192689	-0.476935	0.798890
C69	C	2.526022	-0.143602	1.132223
C70	C	1.859308	-0.737496	0.465527
C71	C	2.192641	-0.404163	0.798860
C72	C	2.525974	-0.070829	1.132193
C73	C	1.859242	-0.646186	0.465500
C74	C	2.192576	-0.312853	0.798833
C75	C	2.525909	0.020480	1.132167
C76	C	2.186448	-0.259482	0.440465
C77	C	2.519781	0.073851	0.773798
C78	C	2.853115	0.407184	1.107132
C79	C	2.325880	-0.253169	0.429797
C80	C	2.659213	0.080164	0.763130
C81	C	2.992546	0.413498	1.096464
C82	C	1.884460	-0.256933	0.792702
C83	C	2.217793	0.076400	1.126035
C84	C	2.551127	0.409734	1.459368
C85	C	1.895202	-0.249534	0.932136
C86	C	2.228536	0.083800	1.265469
C87	C	2.561869	0.417133	1.598802
C88	C	1.859411	-0.063977	0.465568
C89	C	2.192744	0.269356	0.798901
C90	C	2.526078	0.602689	1.132234
C91	C	1.859479	0.025649	0.465597
C92	C	2.192812	0.358982	0.798930
C93	C	2.526146	0.692315	1.132264
C94	C	1.834213	-0.291533	0.139565
C95	C	2.167547	0.041801	0.472898
C96	C	2.500880	0.375134	0.806231
C97	C	1.823714	-0.298694	0.000113
C98	C	2.157047	0.034639	0.333446
C99	C	2.490381	0.367972	0.666779
H100	H	1.345458	-0.336383	0.570392
H101	H	1.678791	-0.003049	0.903726
H102	H	2.012124	0.330284	1.237059
Cl103	Cl	2.002403	-0.175811	1.006974
Cl104	Cl	2.335736	0.157523	1.340307
Cl105	Cl	2.669070	0.490856	1.673641
H106	H	1.374314	-0.212182	0.360536
H107	H	1.707647	0.121152	0.693869
H108	H	2.040980	0.454485	1.027203
H109	H	1.754295	-0.346446	0.951639
H110	H	2.087628	-0.013113	1.284972
H111	H	2.420962	0.320221	1.618306
