data_functionalizedCrystal
_audit_creation_method	'MofGen! by Chris Wilmer'
_symmetry_space_group_name_H-M	'P1'
_symmetry_Int_Tables_number	1
_symmetry_cell_setting	triclinic
loop_
_symmetry_equiv_pos_as_xyz
  x,y,z
_cell_length_a	23.532407
_cell_length_b	23.532407
_cell_length_c	10.268362
_cell_angle_alpha	89.986236
_cell_angle_beta	89.999248
_cell_angle_gamma	97.151287
loop_
_atom_site_label
_atom_site_type_symbol
_atom_site_fract_x
_atom_site_fract_y
_atom_site_fract_z
O1	O	0.755260	-0.069135	0.108161
O2	O	1.088593	0.264198	0.441495
O3	O	1.421926	0.597531	0.774828
O4	O	0.589396	-0.079138	0.108203
O5	O	0.922730	0.254195	0.441536
O6	O	1.256063	0.587528	0.774870
O7	O	0.677329	0.008795	0.108144
O8	O	1.010663	0.342128	0.441478
O9	O	1.343996	0.675462	0.774811
O10	O	0.667326	-0.157069	0.108220
O11	O	1.000660	0.176265	0.441553
O12	O	1.333993	0.509598	0.774887
O13	O	0.677322	0.008798	-0.108456
O14	O	1.010655	0.342132	0.224877
O15	O	1.343989	0.675465	0.558210
O16	O	0.589389	-0.079135	-0.108398
O17	O	0.922722	0.254198	0.224936
O18	O	1.256055	0.587532	0.558269
O19	O	0.755252	-0.069132	-0.108439
O20	O	1.088585	0.264202	0.224894
O21	O	1.421919	0.597535	0.558227
Cu22	Cu	0.672320	-0.074133	-0.128196
Cu23	Cu	1.005653	0.259200	0.205138
Cu24	Cu	1.338986	0.592534	0.538471
Cu25	Cu	0.672329	-0.074137	0.127960
Cu26	Cu	1.005662	0.259196	0.461293
Cu27	Cu	1.338995	0.592530	0.794626
O28	O	0.667319	-0.157065	-0.108381
O29	O	1.000652	0.176268	0.224953
O30	O	1.333985	0.509602	0.558286
C31	C	0.568176	-0.078882	-0.000093
C32	C	0.901510	0.254451	0.333241
C33	C	1.234843	0.587785	0.666574
C34	C	0.504959	-0.078116	-0.000078
C35	C	0.838293	0.255217	0.333255
C36	C	1.171626	0.588551	0.666588
C37	C	0.105856	-0.125350	-0.000116
C38	C	0.439190	0.207984	0.333217
C39	C	0.772523	0.541317	0.666551
C40	C	0.046456	-0.124638	-0.000124
C41	C	0.379789	0.208695	0.333209
C42	C	0.713123	0.542029	0.666543
O43	O	0.009711	-0.168424	-0.000152
O44	O	0.343045	0.164909	0.333182
O45	O	0.676378	0.498243	0.666515
N46	N	0.023830	-0.072362	-0.000146
N47	N	0.357163	0.260972	0.333188
N48	N	0.690497	0.594305	0.666521
C49	C	0.060607	-0.020794	-0.000172
C50	C	0.393941	0.312540	0.333161
C51	C	0.727274	0.645873	0.666494
O52	O	0.035908	0.023737	-0.000193
O53	O	0.369241	0.357070	0.333141
O54	O	0.702574	0.690404	0.666474
C55	C	0.120006	-0.021506	-0.000173
C56	C	0.453340	0.311828	0.333160
C57	C	0.786673	0.645161	0.666493
C58	C	0.142629	-0.073785	-0.000139
C59	C	0.475962	0.259548	0.333195
C60	C	0.809296	0.592881	0.666528
C61	C	0.128480	-0.177625	-0.000082
C62	C	0.461813	0.155708	0.333251
C63	C	0.795146	0.489042	0.666584
C64	C	0.187876	-0.178336	-0.000072
C65	C	0.521209	0.154997	0.333262
C66	C	0.854542	0.488330	0.666595
C67	C	0.224649	-0.126772	-0.000094
C68	C	0.557982	0.206561	0.333239
C69	C	0.891315	0.539895	0.666572
C70	C	0.202025	-0.074496	-0.000128
C71	C	0.535359	0.258837	0.333205
C72	C	0.868692	0.592170	0.666539
C73	C	0.156783	0.030062	-0.000209
C74	C	0.490116	0.363395	0.333124
C75	C	0.823450	0.696729	0.666457
C76	C	0.216185	0.029345	-0.000211
C77	C	0.549519	0.362679	0.333122
C78	C	0.882852	0.696012	0.666455
C79	C	0.238808	-0.022934	-0.000176
C80	C	0.572141	0.310399	0.333157
C81	C	0.905475	0.643732	0.666490
C82	C	0.298194	-0.023643	-0.000140
C83	C	0.631528	0.309690	0.333194
C84	C	0.964861	0.643023	0.666527
N85	N	0.320821	-0.075920	-0.000118
N86	N	0.654154	0.257414	0.333215
N87	N	0.987487	0.590747	0.666549
C88	C	0.284048	-0.127484	-0.000095
C89	C	0.617381	0.205849	0.333238
C90	C	0.950714	0.539183	0.666571
C91	C	-0.064135	-0.019302	-0.000173
C92	C	0.269198	0.314031	0.333161
C93	C	0.602532	0.647365	0.666494
C94	C	-0.123533	-0.018589	-0.000162
C95	C	0.209800	0.314744	0.333171
C96	C	0.543134	0.648077	0.666504
C97	C	-0.137680	-0.122434	-0.000116
C98	C	0.195653	0.210899	0.333217
C99	C	0.528986	0.544232	0.666550
C100	C	-0.078281	-0.123146	-0.000117
C101	C	0.255052	0.210187	0.333216
C102	C	0.588385	0.543520	0.666549
C103	C	-0.041509	-0.071578	-0.000151
C104	C	0.291824	0.261755	0.333182
C105	C	0.625158	0.595088	0.666516
C106	C	0.408784	-0.128974	-0.000072
C107	C	0.742118	0.204360	0.333262
C108	C	1.075451	0.537693	0.666595
C109	C	0.468186	-0.129680	-0.000056
C110	C	0.801520	0.203653	0.333278
C111	C	1.134853	0.536986	0.666611
C112	C	0.482329	-0.025836	-0.000108
C113	C	0.815662	0.307497	0.333225
C114	C	1.148995	0.640831	0.666558
C115	C	0.422932	-0.025129	-0.000118
C116	C	0.756265	0.308204	0.333216
C117	C	1.089598	0.641538	0.666549
C118	C	0.386160	-0.076702	-0.000104
C119	C	0.719494	0.256631	0.333230
C120	C	1.052827	0.589964	0.666563
O121	O	0.334974	0.020119	-0.000118
O122	O	0.668307	0.353453	0.333216
O123	O	1.001640	0.686786	0.666549
O124	O	0.308756	-0.172007	-0.000092
O125	O	0.642089	0.161326	0.333241
O126	O	0.975422	0.494660	0.666574
C127	C	0.677071	0.030013	-0.000162
C128	C	1.010404	0.363346	0.333171
C129	C	1.343738	0.696679	0.666504
C130	C	0.676305	0.093230	-0.000182
C131	C	1.009638	0.426563	0.333151
C132	C	1.342972	0.759896	0.666485
C133	C	0.776472	-0.069388	-0.000141
C134	C	1.109805	0.263945	0.333193
C135	C	1.443138	0.597278	0.666526
C136	C	0.839689	-0.070154	-0.000146
C137	C	1.173022	0.263179	0.333187
C138	C	1.506356	0.596513	0.666520
C139	C	0.667577	-0.178283	-0.000071
C140	C	1.000911	0.155051	0.333262
C141	C	1.334244	0.488384	0.666596
C142	C	0.668343	-0.241500	-0.000043
C143	C	1.001676	0.091834	0.333290
C144	C	1.335010	0.425167	0.666624
N145	N	0.672317	-0.074130	-0.308362
N146	N	1.005651	0.259204	0.024972
N147	N	1.338984	0.592537	0.358305
C148	C	0.621110	0.359397	-0.000087
C149	C	0.954443	0.692730	0.333246
C150	C	1.287776	1.026064	0.666580
C151	C	0.621821	0.299997	-0.000097
C152	C	0.955154	0.633330	0.333236
C153	C	1.288488	0.966664	0.666570
O154	O	0.578035	0.263252	-0.000045
O155	O	0.911368	0.596586	0.333289
O156	O	1.244702	0.929919	0.666622
N157	N	0.674097	0.277371	-0.000125
N158	N	1.007431	0.610704	0.333208
N159	N	1.340764	0.944037	0.666542
C160	C	0.725666	0.314148	-0.000130
C161	C	1.058999	0.647482	0.333204
C162	C	1.392332	0.980815	0.666537
O163	O	0.770196	0.289449	-0.000153
O164	O	1.103529	0.622782	0.333180
O165	O	1.436863	0.956115	0.666513
C166	C	0.724954	0.373547	-0.000110
C167	C	1.058287	0.706881	0.333223
C168	C	1.391620	1.040214	0.666556
C169	C	0.672674	0.396170	-0.000095
C170	C	1.006007	0.729503	0.333238
C171	C	1.339341	1.062837	0.666571
C172	C	0.568834	0.382020	-0.000071
C173	C	0.902167	0.715354	0.333263
C174	C	1.235501	1.048687	0.666596
C175	C	0.568123	0.441417	-0.000063
C176	C	0.901456	0.774750	0.333271
C177	C	1.234790	1.108083	0.666604
C178	C	0.619687	0.478189	-0.000071
C179	C	0.953021	0.811523	0.333262
C180	C	1.286354	1.144856	0.666595
C181	C	0.671963	0.455566	-0.000088
C182	C	1.005296	0.788899	0.333246
C183	C	1.338629	1.122233	0.666579
C184	C	0.776521	0.410324	-0.000106
C185	C	1.109854	0.743657	0.333228
C186	C	1.443188	1.076990	0.666561
C187	C	0.775805	0.469726	-0.000085
C188	C	1.109138	0.803060	0.333248
C189	C	1.442471	1.136393	0.666582
C190	C	0.723525	0.492349	-0.000070
C191	C	1.056858	0.825682	0.333263
C192	C	1.390192	1.159016	0.666596
C193	C	0.722816	0.551735	-0.000088
C194	C	1.056149	0.885069	0.333245
C195	C	1.389482	1.218402	0.666578
N196	N	0.670539	0.574361	-0.000060
N197	N	1.003873	0.907695	0.333273
N198	N	1.337206	1.241028	0.666606
C199	C	0.618975	0.537589	-0.000052
C200	C	0.952309	0.870922	0.333282
C201	C	1.285642	1.204255	0.666615
C202	C	0.727157	0.189406	-0.000169
C203	C	1.060490	0.522739	0.333165
C204	C	1.393824	0.856072	0.666498
C205	C	0.727870	0.130008	-0.000197
C206	C	1.061203	0.463341	0.333136
C207	C	1.394536	0.796674	0.666469
C208	C	0.624025	0.115861	-0.000162
C209	C	0.957358	0.449194	0.333171
C210	C	1.290691	0.782527	0.666505
C211	C	0.623313	0.175260	-0.000143
C212	C	0.956646	0.508593	0.333191
C213	C	1.289979	0.841926	0.666524
C214	C	0.674881	0.212032	-0.000140
C215	C	1.008214	0.545365	0.333193
C216	C	1.341547	0.878699	0.666526
C217	C	0.617486	0.662325	-0.000037
C218	C	0.950819	0.995659	0.333297
C219	C	1.284152	1.328992	0.666630
C220	C	0.616779	0.721727	-0.000034
C221	C	0.950112	1.055061	0.333299
C222	C	1.283446	1.388394	0.666632
C223	C	0.720623	0.735869	-0.000063
C224	C	1.053957	1.069203	0.333271
C225	C	1.387290	1.402536	0.666604
C226	C	0.721330	0.676473	-0.000072
C227	C	1.054664	1.009806	0.333262
C228	C	1.387997	1.343139	0.666595
C229	C	0.669757	0.639701	-0.000054
C230	C	1.003090	0.973035	0.333279
C231	C	1.336423	1.306368	0.666612
O232	O	0.766579	0.588514	-0.000135
O233	O	1.099912	0.921848	0.333198
O234	O	1.433245	1.255181	0.666531
O235	O	0.574452	0.562296	-0.000011
O236	O	0.907785	0.895630	0.333322
O237	O	1.241119	1.228963	0.666656
C238	C	0.672326	-0.074136	-0.574032
C239	C	1.005659	0.259197	-0.240699
C240	C	1.338992	0.592531	0.092634
C241	C	0.672319	-0.074134	-0.426194
C242	C	1.005653	0.259199	-0.092861
C243	C	1.338986	0.592532	0.240472
N244	N	0.672335	-0.074136	0.308125
N245	N	1.005669	0.259197	0.641459
N246	N	1.339002	0.592531	0.974792
H247	H	0.206289	-0.220908	-0.000043
H248	H	0.539622	0.112426	0.333290
H249	H	0.872956	0.445759	0.666624
H250	H	0.762606	0.765820	-0.000076
H251	H	1.095939	1.099154	0.333258
H252	H	1.429272	1.432487	0.666591
H253	H	-0.167632	-0.164421	-0.000104
H254	H	0.165701	0.168913	0.333229
H255	H	0.499035	0.502246	0.666563
N256	N	0.832913	0.385941	-0.000099
N257	N	1.166247	0.719275	0.333234
N258	N	1.499580	1.052608	0.666567
H259	H	0.835525	0.361604	0.080194
H260	H	1.168859	0.694937	0.413528
H261	H	1.502192	1.028271	0.746861
H262	H	0.835502	0.361652	-0.080447
H263	H	1.168836	0.694985	0.252887
H264	H	1.502169	1.028318	0.586220
H265	H	0.525552	0.459830	-0.000039
H266	H	0.858885	0.793163	0.333294
H267	H	1.192218	1.126497	0.666627
H268	H	0.575489	0.632392	-0.000022
H269	H	0.908823	0.965726	0.333311
H270	H	1.242156	1.299059	0.666645
N271	N	0.513214	0.342363	-0.000058
N272	N	0.846547	0.675697	0.333275
N273	N	1.179880	1.009030	0.666609
H274	H	0.479995	0.365718	-0.000044
H275	H	0.813328	0.699051	0.333289
H276	H	1.146661	1.032384	0.666623
H277	H	0.511241	0.317425	-0.080365
H278	H	0.844575	0.650758	0.252969
H279	H	1.177908	0.984091	0.586302
H280	H	0.246123	0.071339	-0.000240
H281	H	0.579457	0.404673	0.333094
H282	H	0.912790	0.738006	0.666427
N283	N	0.777716	0.652068	-0.000110
N284	N	1.111049	0.985401	0.333223
N285	N	1.444382	1.318734	0.666556
H286	H	0.810273	0.684379	-0.000120
H287	H	1.143606	1.017712	0.333213
H288	H	1.476939	1.351046	0.666546
H289	H	0.780277	0.627724	0.080186
H290	H	1.113610	0.961057	0.413520
H291	H	1.446944	1.294390	0.746853
H292	H	0.486602	-0.172255	-0.000027
H293	H	0.819935	0.161079	0.333307
H294	H	1.153269	0.494412	0.666640
H295	H	0.580742	0.193674	-0.000136
H296	H	0.914075	0.527008	0.333197
H297	H	1.247409	0.860341	0.666531
H298	H	0.378852	-0.170970	-0.000065
H299	H	0.712185	0.162363	0.333269
H300	H	1.045518	0.495697	0.666602
N301	N	0.088822	-0.233245	-0.000132
N302	N	0.422156	0.100088	0.333201
N303	N	0.755489	0.433421	0.666535
H304	H	0.112177	-0.266464	-0.000135
H305	H	0.445510	0.066869	0.333198
H306	H	0.778843	0.400202	0.666531
H307	H	0.063855	-0.235238	0.080145
H308	H	0.397188	0.098096	0.413479
H309	H	0.730522	0.431429	0.746812
N310	N	0.568407	0.076192	-0.000155
N311	N	0.901740	0.409526	0.333178
N312	N	1.235074	0.742859	0.666511
H313	H	0.576795	0.035132	-0.000166
H314	H	0.910128	0.368465	0.333167
H315	H	1.243462	0.701799	0.666500
H316	H	0.545612	0.083471	0.080151
H317	H	0.878945	0.416804	0.413485
H318	H	1.212278	0.750137	0.746818
N319	N	-0.053883	-0.179533	-0.000076
N320	N	0.279450	0.153801	0.333258
N321	N	0.612784	0.487134	0.666591
H322	H	-0.086197	-0.212087	-0.000056
H323	H	0.247136	0.121246	0.333277
H324	H	0.580470	0.454579	0.666611
H325	H	-0.029547	-0.182094	-0.080371
H326	H	0.303786	0.151240	0.252962
H327	H	0.637120	0.484573	0.586295
H328	H	0.770441	0.111594	-0.000230
H329	H	1.103774	0.444927	0.333104
H330	H	1.437108	0.778261	0.666437
N331	N	0.782780	0.229066	-0.000181
N332	N	1.116113	0.562399	0.333152
N333	N	1.449447	0.895733	0.666485
H334	H	0.816001	0.205714	-0.000205
H335	H	1.149334	0.539048	0.333128
H336	H	1.482668	0.872381	0.666461
H337	H	0.784744	0.254031	-0.080473
H338	H	1.118077	0.587364	0.252860
H339	H	1.451411	0.920697	0.586193
H340	H	0.817799	0.499664	-0.000076
H341	H	1.151132	0.832997	0.333257
H342	H	1.484465	1.166331	0.666590
H343	H	-0.141947	0.023982	-0.000170
H344	H	0.191387	0.357315	0.333163
H345	H	0.524720	0.690648	0.666496
N346	N	-0.024480	0.036324	-0.000185
N347	N	0.308853	0.369658	0.333148
N348	N	0.642186	0.702991	0.666481
H349	H	0.000479	0.038345	0.080109
H350	H	0.333812	0.371678	0.413442
H351	H	0.667146	0.705011	0.746775
H352	H	0.000444	0.038319	-0.080532
H353	H	0.333778	0.371652	0.252801
H354	H	0.667111	0.704986	0.586134
N355	N	0.132392	0.086450	-0.000253
N356	N	0.465726	0.419783	0.333080
N357	N	0.799059	0.753117	0.666414
H358	H	0.164709	0.119002	-0.000278
H359	H	0.498042	0.452335	0.333056
H360	H	0.831376	0.785669	0.666389
H361	H	0.108060	0.089007	-0.080557
H362	H	0.441393	0.422340	0.252776
H363	H	0.774727	0.755674	0.586109
H364	H	0.574205	0.740143	-0.000028
H365	H	0.907538	1.073476	0.333305
H366	H	1.240871	1.406810	0.666639
N367	N	0.398521	0.031253	-0.000143
N368	N	0.731854	0.364586	0.333191
N369	N	1.065187	0.697920	0.666524
H370	H	0.411944	0.053829	0.080143
H371	H	0.745277	0.387162	0.413476
H372	H	1.078611	0.720496	0.746809
H373	H	0.411962	0.053784	-0.080498
H374	H	0.745295	0.387117	0.252835
H375	H	1.078628	0.720450	0.586168
N376	N	0.521994	0.029779	-0.000140
N377	N	0.855327	0.363112	0.333193
N378	N	1.188661	0.696446	0.666527
H379	H	0.546955	0.031799	0.080150
H380	H	0.880289	0.365132	0.413484
H381	H	1.213622	0.698466	0.746817
H382	H	0.546916	0.031758	-0.080491
H383	H	0.880249	0.365091	0.252843
H384	H	1.213582	0.698425	0.586176
