data_functionalizedCrystal
_audit_creation_method	'MofGen! by Chris Wilmer'
_symmetry_space_group_name_H-M	'P1'
_symmetry_Int_Tables_number	1
_symmetry_cell_setting	triclinic
loop_
_symmetry_equiv_pos_as_xyz
  x,y,z
_cell_length_a	27.732048
_cell_length_b	19.288859
_cell_length_c	17.766277
_cell_angle_alpha	89.989768
_cell_angle_beta	89.998625
_cell_angle_gamma	97.111810
loop_
_atom_site_label
_atom_site_type_symbol
_atom_site_fract_x
_atom_site_fract_y
_atom_site_fract_z
O1	O	-0.060286	0.920980	-0.062596
O2	O	0.189714	1.170980	0.187404
O3	O	0.439714	1.420980	0.437404
O4	O	0.689714	1.670980	0.687404
O5	O	-0.068423	0.718668	-0.062593
O6	O	0.181577	0.968668	0.187407
O7	O	0.431577	1.218668	0.437407
O8	O	0.681577	1.468668	0.687407
O9	O	0.006023	0.826107	-0.062605
O10	O	0.256023	1.076107	0.187395
O11	O	0.506023	1.326107	0.437395
O12	O	0.756023	1.576107	0.687395
O13	O	-0.134732	0.813540	-0.062584
O14	O	0.115268	1.063540	0.187416
O15	O	0.365268	1.313540	0.437416
O16	O	0.615268	1.563540	0.687416
O17	O	0.006027	0.826088	0.062584
O18	O	0.256027	1.076088	0.312584
O19	O	0.506027	1.326088	0.562584
O20	O	0.756027	1.576088	0.812584
O21	O	-0.068419	0.718649	0.062596
O22	O	0.181581	0.968649	0.312596
O23	O	0.431581	1.218649	0.562596
O24	O	0.681581	1.468649	0.812596
O25	O	-0.060282	0.920961	0.062592
O26	O	0.189718	1.170961	0.312592
O27	O	0.439718	1.420961	0.562592
O28	O	0.689718	1.670961	0.812592
Cu29	Cu	-0.064350	0.819803	0.074025
Cu30	Cu	0.185650	1.069803	0.324025
Cu31	Cu	0.435650	1.319803	0.574025
Cu32	Cu	0.685650	1.569803	0.824025
Cu33	Cu	-0.064355	0.819825	-0.074025
Cu34	Cu	0.185645	1.069825	0.175975
Cu35	Cu	0.435645	1.319825	0.425975
Cu36	Cu	0.685645	1.569825	0.675975
O37	O	-0.134728	0.813522	0.062604
O38	O	0.115272	1.063522	0.312604
O39	O	0.365272	1.313522	0.562604
O40	O	0.615272	1.563522	0.812604
C41	C	-0.068160	0.692783	0.000002
C42	C	0.181840	0.942783	0.250002
C43	C	0.431840	1.192783	0.500002
C44	C	0.681840	1.442783	0.750002
C45	C	-0.067375	0.615685	0.000002
C46	C	0.182625	0.865685	0.250002
C47	C	0.432625	1.115685	0.500002
C48	C	0.682625	1.365685	0.750002
C49	C	-0.105750	0.051404	0.000007
C50	C	0.144250	0.301404	0.250007
C51	C	0.394250	0.551404	0.500007
C52	C	0.644250	0.801404	0.750007
C53	C	-0.106492	0.123846	0.000003
C54	C	0.143508	0.373846	0.250003
C55	C	0.393508	0.623846	0.500003
C56	C	0.643508	0.873846	0.750003
C57	C	-0.062810	0.168826	-0.000002
C58	C	0.187190	0.418826	0.249998
C59	C	0.437190	0.668826	0.499998
C60	C	0.687190	0.918826	0.749998
C61	C	-0.018383	0.141358	-0.000022
C62	C	0.231617	0.391358	0.249978
C63	C	0.481617	0.641358	0.499978
C64	C	0.731617	0.891358	0.749978
C65	C	-0.017643	0.068917	-0.000026
C66	C	0.232357	0.318917	0.249974
C67	C	0.482357	0.568917	0.499974
C68	C	0.732357	0.818917	0.749974
C69	C	-0.030231	0.290293	0.043855
C70	C	0.219769	0.540293	0.293855
C71	C	0.469769	0.790293	0.543855
C72	C	0.719769	1.040293	0.793855
C73	C	-0.030973	0.362732	0.043864
C74	C	0.219027	0.612732	0.293864
C75	C	0.469027	0.862732	0.543864
C76	C	0.719027	1.112732	0.793864
C77	C	-0.065091	0.392257	0.000006
C78	C	0.184909	0.642257	0.250006
C79	C	0.434909	0.892257	0.500006
C80	C	0.684909	1.142257	0.750006
C81	C	-0.098475	0.349333	-0.043850
C82	C	0.151525	0.599333	0.206150
C83	C	0.401525	0.849333	0.456150
C84	C	0.651525	1.099333	0.706150
C85	C	-0.097735	0.276893	-0.043854
C86	C	0.152265	0.526893	0.206146
C87	C	0.402265	0.776893	0.456146
C88	C	0.652265	1.026893	0.706146
C89	C	-0.063607	0.247376	0.000002
C90	C	0.186393	0.497376	0.250002
C91	C	0.436393	0.747376	0.500002
C92	C	0.686393	0.997376	0.750002
C93	C	-0.110318	0.498267	0.000017
C94	C	0.139682	0.748267	0.250017
C95	C	0.389682	0.998267	0.500017
C96	C	0.639682	1.248267	0.750017
C97	C	-0.111058	0.570710	0.000008
C98	C	0.138942	0.820710	0.250008
C99	C	0.388942	1.070710	0.500008
C100	C	0.638942	1.320710	0.750008
C101	C	-0.022948	0.588220	-0.000009
C102	C	0.227052	0.838220	0.249991
C103	C	0.477052	1.088220	0.499991
C104	C	0.727052	1.338220	0.749991
C105	C	-0.022210	0.515778	-0.000008
C106	C	0.227790	0.765778	0.249992
C107	C	0.477790	1.015778	0.499992
C108	C	0.727790	1.265778	0.749992
C109	C	-0.065896	0.470805	0.000008
C110	C	0.184104	0.720805	0.250008
C111	C	0.434104	0.970805	0.500008
C112	C	0.684104	1.220805	0.750008
C113	C	-0.152738	0.813795	0.000012
C114	C	0.097262	1.063795	0.250012
C115	C	0.347262	1.313795	0.500012
C116	C	0.597262	1.563795	0.750012
C117	C	-0.206395	0.814589	0.000020
C118	C	0.043605	1.064589	0.250020
C119	C	0.293605	1.314589	0.500020
C120	C	0.543605	1.564589	0.750020
C121	C	-0.545035	0.756100	-0.000016
C122	C	-0.295035	1.006100	0.249984
C123	C	-0.045035	1.256100	0.499984
C124	C	0.204965	1.506100	0.749984
C125	C	-0.746703	0.759047	-0.000025
C126	C	-0.496703	1.009047	0.249975
C127	C	-0.246703	1.259047	0.499975
C128	C	0.003297	1.509047	0.749975
O129	O	-0.777798	0.705563	-0.000057
O130	O	-0.527798	0.955563	0.249943
O131	O	-0.277798	1.205563	0.499943
O132	O	-0.027798	1.455563	0.749943
N133	N	-0.766018	0.822754	-0.000025
N134	N	-0.516018	1.072754	0.249975
N135	N	-0.266018	1.322754	0.499975
N136	N	-0.016018	1.572754	0.749975
C137	C	-0.734913	0.885729	-0.000027
C138	C	-0.484913	1.135729	0.249973
C139	C	-0.234913	1.385729	0.499973
C140	C	0.015087	1.635729	0.749973
O141	O	-0.755969	0.939984	-0.000035
O142	O	-0.505969	1.189984	0.249965
O143	O	-0.255969	1.439984	0.499965
O144	O	-0.005969	1.689984	0.749965
C145	C	-0.533245	0.882781	-0.000024
C146	C	-0.283245	1.132781	0.249976
C147	C	-0.033245	1.382781	0.499976
C148	C	0.216755	1.632781	0.749976
C149	C	-0.513933	0.819070	-0.000016
C150	C	-0.263933	1.069070	0.249984
C151	C	-0.013933	1.319070	0.499984
C152	C	0.236067	1.569070	0.749984
C153	C	-0.525722	0.692394	-0.000009
C154	C	-0.275722	0.942394	0.249991
C155	C	-0.025722	1.192394	0.499991
C156	C	0.224278	1.442394	0.749991
C157	C	-0.475308	0.691658	-0.000002
C158	C	-0.225308	0.941658	0.249998
C159	C	0.024692	1.191658	0.499998
C160	C	0.274692	1.441658	0.749998
C161	C	-0.444206	0.754628	-0.000003
C162	C	-0.194206	1.004628	0.249997
C163	C	0.055794	1.254628	0.499997
C164	C	0.305794	1.504628	0.749997
C165	C	-0.463519	0.818334	-0.000010
C166	C	-0.213519	1.068334	0.249990
C167	C	0.036481	1.318334	0.499990
C168	C	0.286481	1.568334	0.749990
C169	C	-0.502141	0.945755	-0.000032
C170	C	-0.252141	1.195755	0.249968
C171	C	-0.002141	1.445755	0.499968
C172	C	0.247859	1.695755	0.749968
C173	C	-0.451721	0.945013	-0.000033
C174	C	-0.201721	1.195013	0.249967
C175	C	0.048279	1.445013	0.499967
C176	C	0.298279	1.695013	0.749967
C177	C	-0.432409	0.881302	-0.000025
C178	C	-0.182409	1.131302	0.249975
C179	C	0.067591	1.381302	0.499975
C180	C	0.317591	1.631302	0.749975
C181	C	-0.382003	0.880568	-0.000004
C182	C	-0.132003	1.130568	0.249996
C183	C	0.117997	1.380568	0.499996
C184	C	0.367997	1.630568	0.749996
N185	N	-0.362688	0.816861	-0.000004
N186	N	-0.112688	1.066861	0.249996
N187	N	0.137312	1.316861	0.499996
N188	N	0.387312	1.566861	0.749996
C189	C	-0.393790	0.753891	-0.000003
C190	C	-0.143790	1.003891	0.249997
C191	C	0.106210	1.253891	0.499997
C192	C	0.356210	1.503891	0.749997
C193	C	-0.840792	0.887272	-0.000028
C194	C	-0.590792	1.137272	0.249972
C195	C	-0.340792	1.387272	0.499972
C196	C	-0.090792	1.637272	0.749972
C197	C	-0.891208	0.888010	-0.000027
C198	C	-0.641208	1.138010	0.249973
C199	C	-0.391208	1.388010	0.499973
C200	C	-0.141208	1.638010	0.749973
C201	C	-0.902995	0.761327	-0.000026
C202	C	-0.652995	1.011327	0.249974
C203	C	-0.402995	1.261327	0.499974
C204	C	-0.152995	1.511327	0.749974
C205	C	-0.852577	0.760591	-0.000021
C206	C	-0.602577	1.010591	0.249979
C207	C	-0.352577	1.260591	0.499979
C208	C	-0.102577	1.510591	0.749979
C209	C	-0.821476	0.823565	-0.000028
C210	C	-0.571476	1.073565	0.249972
C211	C	-0.321476	1.323565	0.499972
C212	C	-0.071476	1.573565	0.749972
C213	C	-0.287916	0.752350	0.000011
C214	C	-0.037916	1.002350	0.250011
C215	C	0.212084	1.252350	0.500011
C216	C	0.462084	1.502350	0.750011
C217	C	-0.237497	0.751619	0.000020
C218	C	0.012503	1.001619	0.250020
C219	C	0.262503	1.251619	0.500020
C220	C	0.512503	1.501619	0.750020
C221	C	-0.225714	0.878301	0.000015
C222	C	0.024286	1.128301	0.250015
C223	C	0.274286	1.378301	0.500015
C224	C	0.524286	1.628301	0.750015
C225	C	-0.276129	0.879032	0.000009
C226	C	-0.026129	1.129032	0.250009
C227	C	0.223871	1.379032	0.500009
C228	C	0.473871	1.629032	0.750009
C229	C	-0.307229	0.816051	0.000005
C230	C	-0.057229	1.066051	0.250005
C231	C	0.192771	1.316051	0.500005
C232	C	0.442771	1.566051	0.750005
O233	O	-0.350880	0.934023	0.000020
O234	O	-0.100880	1.184023	0.250020
O235	O	0.149120	1.434023	0.500020
O236	O	0.399120	1.684023	0.750020
O237	O	-0.372724	0.699644	-0.000012
O238	O	-0.122724	0.949644	0.249988
O239	O	0.127276	1.199644	0.499988
O240	O	0.377276	1.449644	0.749988
C241	C	-0.595449	0.756836	-0.000022
C242	C	-0.345449	1.006836	0.249978
C243	C	-0.095449	1.256836	0.499978
C244	C	0.154551	1.506836	0.749978
C245	C	-0.614762	0.820542	-0.000029
C246	C	-0.364762	1.070542	0.249971
C247	C	-0.114762	1.320542	0.499971
C248	C	0.135238	1.570542	0.749971
C249	C	-0.583660	0.883512	-0.000029
C250	C	-0.333660	1.133512	0.249971
C251	C	-0.083660	1.383512	0.499971
C252	C	0.166340	1.633512	0.749971
C253	C	-0.665178	0.821279	-0.000028
C254	C	-0.415178	1.071279	0.249972
C255	C	-0.165178	1.321279	0.499972
C256	C	0.084822	1.571279	0.749972
C257	C	-0.696280	0.758310	-0.000028
C258	C	-0.446280	1.008310	0.249972
C259	C	-0.196280	1.258310	0.499972
C260	C	0.053720	1.508310	0.749972
C261	C	-0.676964	0.694602	-0.000028
C262	C	-0.426964	0.944602	0.249972
C263	C	-0.176964	1.194602	0.499972
C264	C	0.073036	1.444602	0.749972
C265	C	-0.626550	0.693866	-0.000022
C266	C	-0.376550	0.943866	0.249978
C267	C	-0.126550	1.193866	0.499978
C268	C	0.123450	1.443866	0.749978
C269	C	-0.602975	0.947219	-0.000029
C270	C	-0.352975	1.197219	0.249971
C271	C	-0.102975	1.447219	0.499971
C272	C	0.147025	1.697219	0.749971
C273	C	-0.653390	0.947950	-0.000035
C274	C	-0.403390	1.197950	0.249965
C275	C	-0.153390	1.447950	0.499965
C276	C	0.096610	1.697950	0.749965
C277	C	-0.684491	0.884980	-0.000034
C278	C	-0.434491	1.134980	0.249966
C279	C	-0.184491	1.384980	0.499966
C280	C	0.065509	1.634980	0.749966
C281	C	0.024033	0.825834	-0.000014
C282	C	0.274033	1.075834	0.249986
C283	C	0.524033	1.325834	0.499986
C284	C	0.774033	1.575834	0.749986
C285	C	0.077690	0.825040	-0.000027
C286	C	0.327690	1.075040	0.249973
C287	C	0.577690	1.325040	0.499973
C288	C	0.827690	1.575040	0.749973
C289	C	-0.060545	0.946845	-0.000004
C290	C	0.189455	1.196845	0.249996
C291	C	0.439455	1.446845	0.499996
C292	C	0.689455	1.696845	0.749996
C293	C	-0.061330	1.023944	-0.000009
C294	C	0.188670	1.273944	0.249991
C295	C	0.438670	1.523944	0.499991
C296	C	0.688670	1.773944	0.749991
N297	N	-0.064347	0.819793	0.178155
N298	N	0.185653	1.069793	0.428155
N299	N	0.435653	1.319793	0.678155
N300	N	0.685653	1.569793	0.928155
N301	N	-0.064354	0.819841	-0.178156
N302	N	0.185646	1.069841	0.071844
N303	N	0.435646	1.319841	0.321844
N304	N	0.685646	1.569841	0.571844
C305	C	-0.031398	0.867382	0.217537
C306	C	0.218602	1.117382	0.467537
C307	C	0.468602	1.367382	0.717537
C308	C	0.718602	1.617382	0.967537
C309	C	-0.031396	0.867386	0.296339
C310	C	0.218604	1.117386	0.546339
C311	C	0.468604	1.367386	0.796339
C312	C	0.718604	1.617386	1.046339
C313	C	-0.064351	0.819807	0.335756
C314	C	0.185649	1.069807	0.585756
C315	C	0.435649	1.319807	0.835756
C316	C	0.685649	1.569807	1.085756
C317	C	-0.097302	0.772209	0.296364
C318	C	0.152698	1.022209	0.546364
C319	C	0.402698	1.272209	0.796364
C320	C	0.652698	1.522209	1.046364
C321	C	-0.097300	0.772202	0.217564
C322	C	0.152700	1.022202	0.467564
C323	C	0.402700	1.272202	0.717564
C324	C	0.652700	1.522202	0.967564
C325	C	-0.108393	0.810234	0.460600
C326	C	0.141607	1.060234	0.710600
C327	C	0.391607	1.310234	0.960600
C328	C	0.641607	1.560234	1.210600
C329	C	-0.108396	0.810246	0.539399
C330	C	0.141604	1.060246	0.789399
C331	C	0.391604	1.310246	1.039399
C332	C	0.641604	1.560246	1.289399
C333	C	-0.064356	0.819826	0.578802
C334	C	0.185644	1.069826	0.828802
C335	C	0.435644	1.319826	1.078802
C336	C	0.685644	1.569826	1.328802
C337	C	-0.020312	0.829408	0.539397
C338	C	0.229688	1.079408	0.789397
C339	C	0.479688	1.329408	1.039397
C340	C	0.729688	1.579408	1.289397
C341	C	-0.020311	0.829401	0.460596
C342	C	0.229689	1.079401	0.710596
C343	C	0.479689	1.329401	0.960596
C344	C	0.729689	1.579401	1.210596
C345	C	-0.064356	0.819810	0.421201
C346	C	0.185644	1.069810	0.671201
C347	C	0.435644	1.319810	0.921201
C348	C	0.685644	1.569810	1.171201
C349	C	-0.031402	0.867422	0.703630
C350	C	0.218598	1.117422	0.953630
C351	C	0.468598	1.367422	1.203630
C352	C	0.718598	1.617422	1.453630
C353	C	-0.031400	0.867421	0.782433
C354	C	0.218600	1.117421	1.032433
C355	C	0.468600	1.367421	1.282433
C356	C	0.718600	1.617421	1.532433
C357	C	-0.097310	0.772248	0.782457
C358	C	0.152690	1.022248	1.032457
C359	C	0.402690	1.272248	1.282457
C360	C	0.652690	1.522248	1.532457
C361	C	-0.097309	0.772245	0.703655
C362	C	0.152691	1.022245	0.953655
C363	C	0.402691	1.272245	1.203655
C364	C	0.652691	1.522245	1.453655
C365	C	-0.064355	0.819836	0.664246
C366	C	0.185645	1.069836	0.914246
C367	C	0.435645	1.319836	1.164246
C368	C	0.685645	1.569836	1.414246
H369	H	-0.142665	0.146209	0.000023
H370	H	0.107335	0.396209	0.250023
H371	H	0.357335	0.646209	0.500023
H372	H	0.607335	0.896209	0.750023
Cl373	Cl	-0.526406	1.025855	-0.000059
Cl374	Cl	-0.276406	1.275855	0.249941
Cl375	Cl	-0.026406	1.525855	0.499941
Cl376	Cl	0.223594	1.775855	0.749941
Cl377	Cl	0.012689	0.253188	0.098952
Cl378	Cl	0.262689	0.503188	0.348952
Cl379	Cl	0.512689	0.753188	0.598952
Cl380	Cl	0.762689	1.003188	0.848952
H381	H	-0.004568	0.906172	0.671541
H382	H	0.245432	1.156172	0.921541
H383	H	0.495432	1.406172	1.171541
H384	H	0.745432	1.656172	1.421541
Cl385	Cl	-0.141374	0.386441	-0.098981
Cl386	Cl	0.108626	0.636441	0.151019
Cl387	Cl	0.358626	0.886441	0.401019
Cl388	Cl	0.608626	1.136441	0.651019
Cl389	Cl	-0.166906	0.605231	0.000020
Cl390	Cl	0.083094	0.855231	0.250020
Cl391	Cl	0.333094	1.105231	0.500020
Cl392	Cl	0.583094	1.355231	0.750020
Cl393	Cl	-0.138736	0.712429	0.832005
Cl394	Cl	0.111264	0.962429	1.082005
Cl395	Cl	0.361264	1.212429	1.332005
Cl396	Cl	0.611264	1.462429	1.582005
H397	H	-0.003792	0.397674	0.079578
H398	H	0.246208	0.647674	0.329578
H399	H	0.496208	0.897674	0.579578
H400	H	0.746208	1.147674	0.829578
Cl401	Cl	-0.165237	0.441726	0.000035
Cl402	Cl	0.084763	0.691726	0.250035
Cl403	Cl	0.334763	0.941726	0.500035
Cl404	Cl	0.584763	1.191726	0.750035
Cl405	Cl	0.031967	0.644759	-0.000027
Cl406	Cl	0.281967	0.894759	0.249973
Cl407	Cl	0.531967	1.144759	0.499973
Cl408	Cl	0.781967	1.394759	0.749973
H409	H	-0.221776	0.699736	0.000030
H410	H	0.028224	0.949736	0.250030
H411	H	0.278224	1.199736	0.500030
H412	H	0.528224	1.449736	0.750030
H413	H	-0.669109	0.999835	-0.000035
H414	H	-0.419109	1.249835	0.249965
H415	H	-0.169109	1.499835	0.499965
H416	H	0.080891	1.749835	0.749965
H417	H	-0.313232	0.701064	0.000007
H418	H	-0.063232	0.951064	0.250007
H419	H	0.186768	1.201064	0.500007
H420	H	0.436768	1.451064	0.750007
Cl421	Cl	-0.451037	0.611559	-0.000002
Cl422	Cl	-0.201037	0.861559	0.249998
Cl423	Cl	0.048963	1.111559	0.499998
Cl424	Cl	0.298963	1.361559	0.749998
H425	H	0.017183	0.177984	-0.000028
H426	H	0.267183	0.427984	0.249972
H427	H	0.517183	0.677984	0.499972
H428	H	0.767183	0.927984	0.749972
Cl429	Cl	0.010029	0.927219	0.345855
Cl430	Cl	0.260029	1.177219	0.595855
Cl431	Cl	0.510029	1.427219	0.845855
Cl432	Cl	0.760029	1.677219	1.095855
H433	H	-0.124916	0.241947	-0.079564
H434	H	0.125084	0.491947	0.170436
H435	H	0.375084	0.741947	0.420436
H436	H	0.625084	0.991947	0.670436
H437	H	0.015549	0.837209	0.571477
H438	H	0.265549	1.087209	0.821477
H439	H	0.515549	1.337209	1.071477
H440	H	0.765549	1.587209	1.321477
H441	H	0.013962	0.493420	-0.000017
H442	H	0.263962	0.743420	0.249983
H443	H	0.513962	0.993420	0.499983
H444	H	0.763962	1.243420	0.749983
H445	H	-0.004566	0.906172	0.814498
H446	H	0.245434	1.156172	1.064498
H447	H	0.495434	1.406172	1.314498
H448	H	0.745434	1.656172	1.564498
H449	H	-0.124141	0.733496	0.671589
H450	H	0.125859	0.983496	0.921589
H451	H	0.375859	1.233496	1.171589
H452	H	0.625859	1.483496	1.421589
H453	H	0.018531	0.046560	-0.000039
H454	H	0.268531	0.296560	0.249961
H455	H	0.518531	0.546560	0.499961
H456	H	0.768531	0.796560	0.749961
H457	H	-0.124134	0.733469	0.328462
H458	H	0.125866	0.983469	0.578462
H459	H	0.375866	1.233469	0.828462
H460	H	0.625866	1.483469	1.078462
H461	H	-0.928327	0.710055	-0.000022
H462	H	-0.678327	0.960055	0.249978
H463	H	-0.428327	1.210055	0.499978
H464	H	-0.178327	1.460055	0.749978
H465	H	-0.551040	0.641113	-0.000011
H466	H	-0.301040	0.891113	0.249989
H467	H	-0.051040	1.141113	0.499989
H468	H	0.198960	1.391113	0.749989
H469	H	0.015551	0.837202	0.428516
H470	H	0.265551	1.087202	0.678516
H471	H	0.515551	1.337202	0.928516
H472	H	0.765551	1.587202	1.178516
H473	H	-0.144258	0.802421	0.428524
H474	H	0.105742	1.052421	0.678524
H475	H	0.355742	1.302421	0.928524
H476	H	0.605742	1.552421	1.178524
H477	H	-0.836857	0.708712	-0.000012
H478	H	-0.586857	0.958712	0.249988
H479	H	-0.336857	1.208712	0.499988
H480	H	-0.086857	1.458712	0.749988
H481	H	-0.906927	0.939890	-0.000022
H482	H	-0.656927	1.189890	0.249978
H483	H	-0.406927	1.439890	0.499978
H484	H	-0.156927	1.689890	0.749978
Cl485	Cl	-0.563883	1.026390	-0.000027
Cl486	Cl	-0.313883	1.276390	0.249973
Cl487	Cl	-0.063883	1.526390	0.499973
Cl488	Cl	0.186117	1.776390	0.749973
H489	H	-0.815473	0.938557	-0.000032
H490	H	-0.565473	1.188557	0.249968
H491	H	-0.315473	1.438557	0.499968
H492	H	-0.065473	1.688557	0.749968
Cl493	Cl	-0.160670	-0.005129	0.000017
Cl494	Cl	0.089330	0.244871	0.250017
Cl495	Cl	0.339330	0.494871	0.500017
Cl496	Cl	0.589330	0.744871	0.750017
H497	H	-0.426401	0.996295	-0.000042
H498	H	-0.176401	1.246295	0.249958
H499	H	0.073599	1.496295	0.499958
H500	H	0.323599	1.746295	0.749958
H501	H	-0.144259	0.802448	0.571477
H502	H	0.105741	1.052448	0.821477
H503	H	0.355741	1.302448	1.071477
H504	H	0.605741	1.552448	1.321477
H505	H	-0.291854	0.930911	0.000014
H506	H	-0.041854	1.180911	0.250014
H507	H	0.208146	1.430911	0.500014
H508	H	0.458146	1.680911	0.750014
Cl509	Cl	0.010030	0.927206	0.167994
Cl510	Cl	0.260030	1.177206	0.417994
Cl511	Cl	0.510030	1.427206	0.667994
Cl512	Cl	0.760030	1.677206	0.917994
H513	H	-0.200383	0.929569	0.000018
H514	H	0.049617	1.179569	0.250018
H515	H	0.299617	1.429569	0.500018
H516	H	0.549617	1.679569	0.750018
H517	H	-0.610831	0.641986	-0.000015
H518	H	-0.360831	0.891986	0.249985
H519	H	-0.110831	1.141986	0.499985
H520	H	0.139169	1.391986	0.749985
Cl521	Cl	-0.138725	0.712371	0.168052
Cl522	Cl	0.111275	0.962371	0.418052
Cl523	Cl	0.361275	1.212371	0.668052
Cl524	Cl	0.611275	1.462371	0.918052
H525	H	-0.702296	0.643330	-0.000023
H526	H	-0.452296	0.893330	0.249977
H527	H	-0.202296	1.143330	0.499977
H528	H	0.047704	1.393330	0.749977
