data_functionalizedCrystal
_audit_creation_method	'MofGen! by Chris Wilmer'
_symmetry_space_group_name_H-M	'P1'
_symmetry_Int_Tables_number	1
_symmetry_cell_setting	triclinic
loop_
_symmetry_equiv_pos_as_xyz
  x,y,z
_cell_length_a	19.188925
_cell_length_b	19.188930
_cell_length_c	17.666332
_cell_angle_alpha	90.010342
_cell_angle_beta	90.010202
_cell_angle_gamma	83.143665
loop_
_atom_site_label
_atom_site_type_symbol
_atom_site_fract_x
_atom_site_fract_y
_atom_site_fract_z
O1	O	0.926152	0.087149	0.062973
O2	O	0.722840	0.098888	0.062972
O3	O	0.830363	-0.008637	0.062958
O4	O	0.818629	0.194674	0.062987
O5	O	0.830344	-0.008640	-0.062939
O6	O	0.722821	0.098884	-0.062925
O7	O	0.926133	0.087146	-0.062924
Cu8	Cu	0.824475	0.093015	-0.074419
Cu9	Cu	0.824498	0.093019	0.074468
O10	O	0.818610	0.194671	-0.062909
C11	C	0.696820	0.098507	0.000023
C12	C	0.619315	0.097367	0.000022
C13	C	0.057545	0.152831	0.000032
C14	C	0.130368	0.153908	0.000037
C15	C	0.175302	0.090816	0.000026
C16	C	0.147408	0.026642	0.000031
C17	C	0.074586	0.025568	0.000034
N18	N	0.295973	0.045139	-0.042837
N19	N	0.365150	0.046164	-0.042842
C20	C	0.394712	0.094050	0.000018
N21	N	0.352481	0.140883	0.042872
N22	N	0.283297	0.139859	0.042874
C23	C	0.254267	0.091974	0.000023
C24	C	0.501561	0.159386	0.000023
C25	C	0.574385	0.160460	0.000032
C26	C	0.591425	0.033193	0.000018
C27	C	0.518601	0.032121	0.000017
C28	C	0.473673	0.095220	0.000016
C29	C	0.829974	-0.034650	0.000007
C30	C	0.828833	-0.112154	0.000001
C31	C	0.891924	-0.157079	-0.000003
C32	C	0.890852	-0.229903	0.000010
C33	C	0.826686	-0.257799	0.000010
C34	C	0.763587	-0.212864	0.000017
C35	C	0.764660	-0.140041	0.000013
N36	N	0.777632	-0.365804	-0.042835
N37	N	0.776617	-0.434982	-0.042833
C38	C	0.823448	-0.477207	0.000025
N39	N	0.871344	-0.447642	0.042871
N40	N	0.872361	-0.378457	0.042865
C41	C	0.825515	-0.336761	0.000015
C42	C	0.885381	-0.601097	0.000036
C43	C	0.884307	-0.673922	0.000053
C44	C	0.757040	-0.656880	0.000053
C45	C	0.758116	-0.584057	0.000044
C46	C	0.822289	-0.556170	0.000032
C47	C	0.952154	0.087527	0.000027
C48	C	1.029658	0.088666	0.000033
C49	C	0.819000	0.220684	0.000043
C50	C	0.820140	0.298188	0.000054
N51	N	0.824465	0.093012	-0.179139
C52	C	0.866674	0.135257	-0.218736
C53	C	0.866685	0.135255	-0.297983
C54	C	0.824474	0.093016	-0.337631
C55	C	0.782263	0.050763	-0.298025
C56	C	0.782258	0.050761	-0.218779
N57	N	0.763326	0.091297	-0.462072
N58	N	0.763332	0.091303	-0.537352
C59	C	0.824487	0.093019	-0.576395
N60	N	0.885636	0.094741	-0.537314
N61	N	0.885629	0.094739	-0.462026
C62	C	0.824475	0.093013	-0.423560
C63	C	0.866712	0.135263	-0.701921
C64	C	0.866724	0.135256	-0.781170
C65	C	0.782295	0.050768	-0.781210
C66	C	0.782289	0.050771	-0.701963
C67	C	0.824496	0.093023	-0.662323
N68	N	0.824514	0.093016	0.179187
H69	H	0.183999	-0.024728	0.000024
H70	H	0.937635	-0.578390	0.000030
O71	O	0.741230	0.009846	-0.663416
C72	C	0.693444	0.052549	-0.617603
H73	H	0.715019	0.104295	-0.605709
H74	H	0.685736	0.024502	-0.561887
H75	H	0.640938	0.063379	-0.648166
H76	H	0.051883	-0.026685	0.000035
O77	O	0.945662	-0.717465	0.000017
C78	C	1.002528	-0.677231	0.000023
H79	H	0.984633	-0.622829	-0.023816
H80	H	1.046712	-0.704239	-0.036531
H81	H	1.022222	-0.672092	0.060419
O82	O	0.696893	-0.540313	0.000073
C83	C	0.711599	-0.470058	0.000049
H84	H	0.766435	-0.467429	0.023882
H85	H	0.671375	-0.436933	0.036600
H86	H	0.708877	-0.449000	-0.060351
O87	O	0.694751	-0.684050	0.000157
C88	C	0.690325	-0.725633	0.065374
H89	H	0.745415	-0.743936	0.087111
H90	H	0.662635	-0.773239	0.050717
H91	H	0.659347	-0.693352	0.111030
H92	H	0.711342	-0.235581	0.000019
H93	H	0.495896	-0.020129	0.000013
H94	H	0.713282	-0.103462	0.000015
O95	O	0.013873	0.214104	-0.000091
C96	C	-0.028790	0.217281	-0.065279
H97	H	-0.002022	0.181496	-0.110861
H98	H	-0.037160	0.273547	-0.087155
H99	H	-0.081687	0.199370	-0.050533
O100	O	0.952123	-0.273584	0.000135
C101	C	0.955317	-0.316220	0.065328
H102	H	0.919547	-0.289431	0.110907
H103	H	1.011590	-0.324584	0.087204
H104	H	0.937398	-0.369121	0.050589
O105	O	0.907706	0.176359	-0.336341
C106	C	0.944972	0.213634	-0.284361
H107	H	0.916058	0.217778	-0.227876
H108	H	0.949127	0.268529	-0.307246
H109	H	0.999866	0.184740	-0.275928
H110	H	0.464978	0.210765	0.000023
H111	H	0.747895	0.016371	-0.330311
H112	H	0.747885	0.016359	-0.186540
O113	O	0.907779	0.176317	-0.663527
C114	C	0.945030	0.213612	-0.715474
H115	H	0.949200	0.184697	-0.771968
H116	H	0.999914	0.217807	-0.692559
H117	H	0.916099	0.268490	-0.723901
O118	O	0.157385	0.216283	0.000131
C119	C	0.134440	0.254739	0.065343
H120	H	0.083992	0.235876	0.087089
H121	H	0.124157	0.312911	0.050675
H122	H	0.176617	0.246528	0.110997
H123	H	0.901101	0.169655	-0.813409
H124	H	0.901045	0.169658	-0.186466
H125	H	0.597088	0.212713	0.000038
H126	H	0.747927	0.016376	-0.813491
H127	H	0.944179	-0.134379	-0.000010
H128	H	0.628010	-0.018178	0.000016
