data_functionalizedCrystal
_audit_creation_method	'MofGen! by Chris Wilmer'
_symmetry_space_group_name_H-M	'P1'
_symmetry_Int_Tables_number	1
_symmetry_cell_setting	triclinic
loop_
_symmetry_equiv_pos_as_xyz
  x,y,z
_cell_length_a	15.944551
_cell_length_b	17.699083
_cell_length_c	16.776229
_cell_angle_alpha	90.000273
_cell_angle_beta	90.004368
_cell_angle_gamma	96.609123
loop_
_atom_site_label
_atom_site_type_symbol
_atom_site_fract_x
_atom_site_fract_y
_atom_site_fract_z
O1	O	0.106218	-1.004259	0.066178
O2	O	0.120038	-0.783904	0.066204
O3	O	-0.009160	-0.900099	0.066183
O4	O	0.235415	-0.888064	0.066199
O5	O	-0.009160	-0.900086	-0.066393
O6	O	0.120037	-0.783891	-0.066372
O7	O	0.106218	-1.004246	-0.066398
Zn8	Zn	0.113128	-0.894066	-0.087435
Zn9	Zn	0.113128	-0.894083	0.087241
O10	O	0.235415	-0.888051	-0.066377
C11	C	-0.040453	-0.899593	-0.000105
C12	C	-0.133696	-0.898095	-0.000105
C13	C	0.119542	-0.755700	-0.000080
C14	C	0.118057	-0.671679	-0.000071
C15	C	0.106713	-1.032450	-0.000112
C16	C	0.108199	-1.116471	-0.000116
C17	C	-0.348393	-0.822492	-0.000085
C18	C	-0.409484	-0.857593	-0.065458
C19	C	-0.304416	-0.895385	-0.000099
C20	C	-0.409468	-0.857623	0.065252
C21	C	-0.469323	-0.892762	-0.000089
C22	C	-0.364279	-0.930506	-0.065525
C23	C	-0.364256	-0.930526	0.065244
C24	C	-0.425329	-0.965680	-0.000145
C25	C	-0.209417	-0.896894	-0.000105
C26	C	-0.564321	-0.891259	-0.000089
C27	C	0.266708	-0.888557	-0.000087
C28	C	0.359951	-0.890055	-0.000082
N29	N	0.113127	-0.894060	-0.206646
C30	C	0.193893	-0.623187	-0.000066
C31	C	0.192492	-0.544242	-0.000076
C32	C	0.115254	-0.513789	-0.000086
C33	C	0.039412	-0.562287	-0.000093
C34	C	0.040814	-0.641231	-0.000088
C35	C	0.033758	-0.243914	-0.000113
C36	C	0.032362	-0.164964	-0.000115
C37	C	0.185436	-0.146925	-0.000101
C38	C	0.186837	-0.225869	-0.000096
C39	C	0.110996	-0.274360	-0.000108
C40	C	0.112516	-0.359962	-0.000098
C41	C	0.113733	-0.428189	-0.000090
C42	C	0.164009	-0.939962	-0.248362
C43	C	0.164006	-0.939970	-0.331814
C44	C	0.113124	-0.894072	-0.373549
C45	C	0.062236	-0.848168	-0.331827
C46	C	0.062235	-0.848164	-0.248376
C47	C	0.062237	-0.848184	-0.668374
C48	C	0.062243	-0.848189	-0.751831
C49	C	0.164008	-0.939989	-0.751812
C50	C	0.164007	-0.939985	-0.668361
C51	C	0.113116	-0.894085	-0.626647
C52	C	0.113119	-0.894077	-0.536158
C53	C	0.113125	-0.894075	-0.464036
N54	N	0.113122	-0.894096	0.206452
H55	H	-0.314958	-0.761987	-0.000143
Cl56	Cl	0.290998	-0.661462	-0.000049
H57	H	0.205444	-0.977366	-0.785786
Cl58	Cl	0.227978	-0.997676	-0.384253
Cl59	Cl	-0.061587	-0.304864	-0.000126
H60	H	0.020803	-0.810801	-0.365814
H61	H	-0.344353	-0.961306	-0.120853
H62	H	-0.458615	-1.026238	-0.000189
Cl63	Cl	-0.440432	-0.809986	-0.150775
Cl64	Cl	-0.333272	-0.978095	0.150566
H65	H	-0.429480	-0.826788	0.120524
Cl66	Cl	-0.054527	-0.702192	-0.000097
H67	H	-0.023476	-0.537486	-0.000112
H68	H	0.205444	-0.977357	-0.634385
Cl69	Cl	0.287834	-0.483284	-0.000066
H70	H	-0.030538	-0.140173	-0.000124
H71	H	0.249732	-0.250659	-0.000085
H72	H	0.247189	-0.107434	-0.000096
Cl73	Cl	-0.001729	-0.790485	-0.804296
H74	H	0.020798	-0.810809	-0.634420
Cl75	Cl	0.227980	-0.997665	-0.195903
H76	H	0.020801	-0.810786	-0.214412
