data_functionalizedCrystal
_audit_creation_method	'MofGen! by Chris Wilmer'
_symmetry_space_group_name_H-M	'P1'
_symmetry_Int_Tables_number	1
_symmetry_cell_setting	triclinic
loop_
_symmetry_equiv_pos_as_xyz
  x,y,z
_cell_length_a	10.654562
_cell_length_b	10.654550
_cell_length_c	14.048226
_cell_angle_alpha	90.002433
_cell_angle_beta	90.007668
_cell_angle_gamma	84.487503
loop_
_atom_site_label
_atom_site_type_symbol
_atom_site_fract_x
_atom_site_fract_y
_atom_site_fract_z
O1	O	1.667833	0.176473	0.079221
O2	O	1.302356	0.193262	0.079209
O3	O	1.493498	0.002128	0.079211
O4	O	1.476692	0.367606	0.079218
O5	O	1.493479	0.002127	-0.079110
O6	O	1.302338	0.193260	-0.079113
O7	O	1.667814	0.176471	-0.079101
Zn8	Zn	1.485073	0.184865	-0.104244
Zn9	Zn	1.485097	0.184868	0.104352
O10	O	1.476673	0.367604	-0.079103
C11	C	1.255549	0.192025	0.000046
C12	C	1.116107	0.188327	0.000042
C13	C	1.050566	0.186601	-0.086252
C14	C	0.919544	0.183136	-0.086236
C15	C	0.919614	0.183128	0.086375
C16	C	1.050635	0.186584	0.086358
C17	C	1.116038	0.188343	-0.172568
C18	C	1.050497	0.186619	-0.258868
C19	C	0.919475	0.183154	-0.258853
C20	C	0.853994	0.181413	-0.172536
C21	C	1.492254	-0.044671	0.000052
C22	C	1.488563	-0.184114	0.000055
C23	C	1.601103	-0.263595	0.000056
C24	C	1.597627	-0.394615	0.000062
C25	C	1.369059	-0.366662	0.000063
C26	C	1.372537	-0.235644	0.000064
C27	C	1.717129	-0.212064	0.000047
C28	C	1.829680	-0.291546	0.000047
C29	C	1.826203	-0.422567	0.000054
C30	C	1.710176	-0.474106	0.000060
C31	C	1.714621	0.177708	0.000064
C32	C	1.854064	0.181406	0.000074
C33	C	1.477916	0.414403	0.000058
C34	C	1.481608	0.553847	0.000061
N35	N	1.485066	0.184863	-0.246604
C36	C	1.561894	0.261749	-0.296414
C37	C	1.561911	0.261744	-0.396072
C38	C	1.485090	0.184858	-0.445918
C39	C	1.408259	0.107963	-0.396101
C40	C	1.408250	0.107962	-0.296445
C41	C	1.408280	0.107972	-0.603815
C42	C	1.408286	0.107973	-0.703478
C43	C	1.561940	0.261753	-0.703442
C44	C	1.561932	0.261753	-0.603786
C45	C	1.485098	0.184859	-0.553976
N46	N	1.485115	0.184860	0.246712
H47	H	1.222722	0.191169	-0.172590
H48	H	0.866116	0.181740	-0.329122
H49	H	0.866289	0.181715	0.156649
Cl50	Cl	0.689282	0.177022	-0.172520
Cl51	Cl	1.133036	0.188751	0.194843
Cl52	Cl	1.721508	-0.047354	0.000036
Cl53	Cl	1.975533	-0.226756	0.000051
Cl54	Cl	1.132815	0.188793	-0.367374
Cl55	Cl	1.967691	-0.522484	0.000063
H56	H	1.624479	0.324366	-0.563204
H57	H	1.707355	-0.580794	0.000076
Cl58	Cl	1.223207	-0.431457	0.000069
Cl59	Cl	1.231054	-0.135719	0.000063
H60	H	1.624496	0.324368	-0.744002
Cl61	Cl	1.658473	0.358414	-0.233760
H62	H	1.624475	0.324350	-0.436623
Cl63	Cl	1.311718	0.011308	-0.766141
H64	H	1.345715	0.045355	-0.563263
H65	H	1.345717	0.045355	-0.436694
H66	H	1.345688	0.045354	-0.255891
