data_functionalizedCrystal
_audit_creation_method	'MofGen! by Chris Wilmer'
_symmetry_space_group_name_H-M	'P1'
_symmetry_Int_Tables_number	1
_symmetry_cell_setting	triclinic
loop_
_symmetry_equiv_pos_as_xyz
  x,y,z
_cell_length_a	16.974885
_cell_length_b	16.956984
_cell_length_c	15.072220
_cell_angle_alpha	90.002984
_cell_angle_beta	86.350349
_cell_angle_gamma	79.730792
loop_
_atom_site_label
_atom_site_type_symbol
_atom_site_fract_x
_atom_site_fract_y
_atom_site_fract_z
O1	O	1.042493	0.101610	-0.001003
O2	O	0.811442	0.114562	0.015574
O3	O	0.940849	-0.008008	0.006283
O4	O	0.913086	0.224180	0.008287
O5	O	0.940842	-0.008008	-0.141282
O6	O	0.811436	0.114562	-0.131991
O7	O	1.042487	0.101611	-0.148568
Zn8	Zn	0.926960	0.108087	-0.163708
Zn9	Zn	0.926968	0.108086	0.030714
O10	O	0.913080	0.224181	-0.139277
C11	C	0.782013	0.114071	-0.056097
C12	C	0.694334	0.112596	-0.049807
C13	C	0.200797	0.104269	-0.005703
C14	C	0.283181	0.105655	-0.011626
C15	C	0.324361	0.106354	-0.095025
C16	C	0.283154	0.105659	-0.172507
C17	C	0.200772	0.104267	-0.166584
C18	C	0.570745	0.110510	-0.121366
C19	C	0.653132	0.111904	-0.127283
C20	C	0.653154	0.111898	0.033599
C21	C	0.570770	0.110511	0.039515
C22	C	0.529571	0.109812	-0.037967
N23	N	0.408570	0.107772	-0.101081
N24	N	0.445364	0.108388	-0.031911
C25	C	0.942267	-0.037718	-0.067601
C26	C	0.946494	-0.126243	-0.067903
C27	C	1.071916	0.102102	-0.076895
C28	C	1.159595	0.103577	-0.083179
C29	C	0.875826	-0.158248	-0.062829
C30	C	0.879802	-0.241428	-0.063117
C31	C	0.954447	-0.292601	-0.068472
C32	C	1.025120	-0.260591	-0.073549
C33	C	1.021143	-0.177413	-0.073268
C34	C	0.974131	-0.542396	-0.069879
C35	C	0.978103	-0.625579	-0.070157
C36	C	0.832784	-0.606410	-0.059726
C37	C	0.828814	-0.523231	-0.059440
C38	C	0.899487	-0.491228	-0.064522
N39	N	0.958513	-0.377624	-0.068764
N40	N	0.895421	-0.406207	-0.064237
C41	C	0.911661	0.253890	-0.065391
C42	C	0.907435	0.342416	-0.065083
N43	N	0.926961	0.108087	-0.296397
N44	N	0.926975	0.108080	0.163403
C45	C	0.926965	0.108085	0.522605
C46	C	0.996140	0.042433	0.480004
C47	C	0.996363	0.042599	0.377162
C48	C	0.926970	0.108081	0.344400
C49	C	0.939334	0.191333	0.380846
C50	C	0.939822	0.190950	0.483668
C51	C	0.845183	0.091233	0.490563
C52	C	0.845862	0.089340	0.387650
C53	C	0.926971	0.108085	0.243687
C54	C	0.926966	0.108087	0.623318
H55	H	0.686707	0.112466	0.096680
H56	H	0.167274	0.103705	0.062210
H57	H	0.768030	-0.481570	-0.055076
Cl58	Cl	0.781982	-0.093923	-0.056091
H59	H	0.167225	0.103712	-0.229673
Cl60	Cl	0.518958	0.109653	-0.218773
Cl61	Cl	0.863248	0.268585	0.348568
Cl62	Cl	0.790958	-0.281659	-0.056736
Cl63	Cl	1.062978	-0.502175	-0.076236
H64	H	0.316725	0.106213	0.051464
Cl65	Cl	0.743944	-0.646648	-0.053341
H66	H	0.316690	0.106223	-0.240413
Cl67	Cl	1.071949	-0.689912	-0.076884
H68	H	1.085897	-0.302263	-0.077916
H69	H	0.537247	0.109941	0.107428
Cl70	Cl	1.109987	-0.137178	-0.079657
H71	H	0.989837	-0.019282	0.352389
Cl72	Cl	0.986357	-0.053428	0.518892
Cl73	Cl	1.089505	0.058833	0.513206
H74	H	1.057170	0.053376	0.348192
H75	H	0.999293	0.205783	0.503391
Cl76	Cl	0.865071	0.269149	0.527475
H77	H	0.998089	0.206526	0.350868
H78	H	0.831904	0.031820	0.517459
Cl79	Cl	0.831158	-0.005204	0.351012
Cl80	Cl	0.704900	0.112781	-0.232136
Cl81	Cl	0.763331	0.158374	0.353921
Cl82	Cl	0.765807	0.165148	0.533839
