data_functionalizedCrystal
_audit_creation_method	'MofGen! by Chris Wilmer'
_symmetry_space_group_name_H-M	'P1'
_symmetry_Int_Tables_number	1
_symmetry_cell_setting	triclinic
loop_
_symmetry_equiv_pos_as_xyz
  x,y,z
_cell_length_a	21.295418
_cell_length_b	19.077114
_cell_length_c	21.295412
_cell_angle_alpha	87.728154
_cell_angle_beta	89.957310
_cell_angle_gamma	87.655040
loop_
_atom_site_label
_atom_site_type_symbol
_atom_site_fract_x
_atom_site_fract_y
_atom_site_fract_z
Zn1	Zn	0.952299	0.279925	-0.366301
Zn2	Zn	1.285632	0.613259	-0.032967
Zn3	Zn	1.618966	0.946592	0.300366
Zn4	Zn	0.947977	0.397625	-0.265259
Zn5	Zn	1.281311	0.730959	0.068074
Zn6	Zn	1.614644	1.064292	0.401408
Zn7	Zn	0.847022	0.279977	-0.261012
Zn8	Zn	1.180355	0.613310	0.072321
Zn9	Zn	1.513689	0.946643	0.405654
Zn10	Zn	0.842766	0.397621	-0.370455
Zn11	Zn	1.176099	0.730954	-0.037122
Zn12	Zn	1.509432	1.064287	0.296211
O13	O	0.897516	0.338787	-0.315757
O14	O	1.230849	0.672120	0.017576
O15	O	1.564183	1.005454	0.350910
O16	O	1.039816	0.295519	-0.352936
O17	O	1.373149	0.628852	-0.019602
O18	O	1.706482	0.962185	0.313731
O19	O	0.934558	0.382043	-0.176607
O20	O	1.267891	0.715376	0.156726
O21	O	1.601225	1.048709	0.490060
O22	O	0.864577	0.181478	-0.271463
O23	O	1.197911	0.514811	0.061870
O24	O	1.531244	0.848144	0.395204
O25	O	1.036641	0.381993	-0.278701
O26	O	1.369974	0.715326	0.054632
O27	O	1.703307	1.048659	0.387966
O28	O	0.941924	0.181440	-0.348818
O29	O	1.275257	0.514773	-0.015485
O30	O	1.608590	0.848106	0.317849
O31	O	0.860387	0.295607	-0.173487
O32	O	1.193720	0.628940	0.159846
O33	O	1.527053	0.962273	0.493180
O34	O	0.758367	0.295602	-0.275492
O35	O	1.091701	0.628936	0.057842
O36	O	1.425034	0.962269	0.391175
O37	O	0.857323	0.381985	-0.457993
O38	O	1.190656	0.715318	-0.124659
O39	O	1.523989	1.048651	0.208674
O40	O	0.755240	0.382035	-0.355899
O41	O	1.088574	0.715368	-0.022566
O42	O	1.421907	1.048701	0.310768
O43	O	0.937796	0.295514	-0.454940
O44	O	1.271130	0.628848	-0.121607
O45	O	1.604463	0.962181	0.211726
O46	O	0.930431	0.496117	-0.282729
O47	O	1.263764	0.829450	0.050604
O48	O	1.597098	1.162784	0.383937
O49	O	0.853132	0.496114	-0.360017
O50	O	1.186466	0.829447	-0.026683
O51	O	1.519799	1.162780	0.306650
C52	C	0.733963	0.338824	-0.315686
C53	C	1.067296	0.672157	0.017648
C54	C	1.400630	1.005491	0.350981
C55	C	0.663994	0.338857	-0.315671
C56	C	0.997327	0.672190	0.017663
C57	C	1.330660	1.005524	0.350996
C58	C	0.890868	0.521653	-0.322298
C59	C	1.224201	0.854987	0.011035
C60	C	1.557535	1.188320	0.344368
C61	C	0.888081	0.599884	-0.325118
C62	C	1.221415	0.933218	0.008215
C63	C	1.554748	1.266551	0.341549
C64	C	0.927049	0.636616	-0.286237
C65	C	1.260382	0.969949	0.047097
C66	C	1.593715	1.303282	0.380430
C67	C	0.924432	0.710122	-0.288892
C68	C	1.257765	1.043455	0.044441
C69	C	1.591098	1.376789	0.377774
C70	C	0.882844	0.746896	-0.330427
C71	C	1.216177	1.080229	0.002907
C72	C	1.549510	1.413562	0.336240
C73	C	0.843875	0.710159	-0.369312
C74	C	1.177208	1.043492	-0.035979
C75	C	1.510541	1.376826	0.297354
C76	C	0.846495	0.636654	-0.366659
C77	C	1.179829	0.969987	-0.033326
C78	C	1.513162	1.303321	0.300007
C79	C	0.870689	0.966734	-0.342675
C80	C	1.204023	1.300067	-0.009342
C81	C	1.537356	1.633401	0.323991
C82	C	0.868070	1.040244	-0.345324
C83	C	1.201404	1.373578	-0.011991
C84	C	1.534737	1.706911	0.321343
C85	C	0.948629	1.040202	-0.264905
C86	C	1.281962	1.373536	0.068428
C87	C	1.615295	1.706869	0.401762
C88	C	0.951243	0.966696	-0.262253
C89	C	1.284576	1.300029	0.071080
C90	C	1.617910	1.633363	0.404414
C91	C	0.912276	0.929966	-0.301141
C92	C	1.245610	1.263299	0.032193
C93	C	1.578943	1.596632	0.365526
N94	N	0.880166	0.822031	-0.333141
N95	N	1.213499	1.155364	0.000193
N96	N	1.546833	1.488697	0.333526
N97	N	0.914957	0.854832	-0.298429
N98	N	1.248291	1.188165	0.034904
N99	N	1.581624	1.521498	0.368237
C100	C	0.629513	0.383922	-0.357481
C101	C	0.962846	0.717255	-0.024148
C102	C	1.296180	1.050589	0.309186
C103	C	0.563771	0.383905	-0.357508
C104	C	0.897105	0.717238	-0.024175
C105	C	1.230438	1.050571	0.309158
C106	C	0.532512	0.338830	-0.315715
C107	C	0.865846	0.672163	0.017618
C108	C	1.199179	1.005496	0.350952
C109	C	0.567001	0.293756	-0.273902
C110	C	0.900334	0.627089	0.059431
C111	C	1.233668	0.960422	0.392765
C112	C	0.632742	0.293769	-0.273880
C113	C	0.966075	0.627103	0.059454
C114	C	1.299409	0.960436	0.392787
N115	N	0.429435	0.333330	-0.260460
N116	N	0.762768	0.666664	0.072874
N117	N	1.096101	0.999997	0.406207
N118	N	0.366984	0.333321	-0.260483
N119	N	0.700317	0.666655	0.072851
N120	N	1.033650	0.999988	0.406184
C121	C	0.334439	0.338785	-0.315780
C122	C	0.667773	0.672118	0.017553
C123	C	1.001106	1.005451	0.350886
N124	N	0.366705	0.344271	-0.371056
N125	N	0.700038	0.677604	-0.037722
N126	N	1.033371	1.010937	0.295611
N127	N	0.429161	0.344283	-0.371032
N128	N	0.762495	0.677617	-0.037699
N129	N	1.095828	1.010950	0.295635
C130	C	0.461228	0.338809	-0.315735
C131	C	0.794561	0.672143	0.017599
C132	C	1.127894	1.005476	0.350932
C133	C	0.228674	0.383833	-0.357624
C134	C	0.562007	0.717167	-0.024290
C135	C	0.895340	1.050500	0.309043
C136	C	0.162931	0.383811	-0.357652
C137	C	0.496264	0.717144	-0.024319
C138	C	0.829597	1.050478	0.309014
C139	C	0.166162	0.293666	-0.274040
C140	C	0.499495	0.626999	0.059293
C141	C	0.832828	0.960333	0.392626
C142	C	0.231904	0.293685	-0.274017
C143	C	0.565237	0.627018	0.059316
C144	C	0.898570	0.960351	0.392649
C145	C	0.263155	0.338772	-0.315808
C146	C	0.596489	0.672105	0.017525
C147	C	0.929822	1.005439	0.350858
C148	C	1.061708	0.338750	-0.315829
C149	C	1.395041	0.672084	0.017505
C150	C	1.728374	1.005417	0.350838
C151	C	1.131676	0.338735	-0.315859
C152	C	1.465010	0.672068	0.017474
C153	C	1.798343	1.005401	0.350807
C154	C	0.904202	1.155207	-0.309212
C155	C	1.237535	1.488540	0.024122
C156	C	1.570869	1.821873	0.357455
C157	C	0.907038	1.076976	-0.306443
C158	C	1.240371	1.410309	0.026891
C159	C	1.573704	1.743642	0.360224
C160	C	0.897567	0.338743	-0.479946
C161	C	1.230900	0.672077	-0.146612
C162	C	1.564234	1.005410	0.186721
C163	C	0.897589	0.338725	-0.549913
C164	C	1.230922	0.672058	-0.216580
C165	C	1.564255	1.005391	0.116754
C166	C	0.858978	0.293712	-0.581145
C167	C	1.192312	0.627046	-0.247812
C168	C	1.525645	0.960379	0.085522
C169	C	0.858977	0.293699	-0.646887
C170	C	1.192310	0.627033	-0.313554
C171	C	1.525643	0.960366	0.019780
C172	C	0.897596	0.338691	-0.681394
C173	C	1.230930	0.672024	-0.348061
C174	C	1.564263	1.005358	-0.014728
C175	C	0.936209	0.383712	-0.650155
C176	C	1.269542	0.717045	-0.316822
C177	C	1.602876	1.050379	0.016512
C178	C	0.936205	0.383729	-0.584414
C179	C	1.269538	0.717062	-0.251081
C180	C	1.602872	1.050395	0.082253
N181	N	0.952509	0.344049	-0.784844
N182	N	1.285842	0.677383	-0.451511
N183	N	1.619175	1.010716	-0.118177
N184	N	0.952511	0.344029	-0.847295
N185	N	1.285844	0.677363	-0.513961
N186	N	1.619177	1.010696	-0.180628
C187	C	0.897610	0.338644	-0.879468
C188	C	1.230943	0.671978	-0.546134
C189	C	1.564276	1.005311	-0.212801
N190	N	0.842706	0.333266	-0.846830
N191	N	1.176039	0.666599	-0.513497
N192	N	1.509373	0.999933	-0.180163
N193	N	0.842705	0.333283	-0.784373
N194	N	1.176038	0.666616	-0.451040
N195	N	1.509371	0.999949	-0.117707
C196	C	0.897605	0.338678	-0.752679
C197	C	1.230938	0.672011	-0.419346
C198	C	1.564271	1.005345	-0.086013
C199	C	0.858994	0.293615	-0.981985
C200	C	1.192328	0.626949	-0.648651
C201	C	1.525661	0.960282	-0.315318
C202	C	0.858991	0.293607	-1.047728
C203	C	1.192325	0.626941	-0.714395
C204	C	1.525658	0.960274	-0.381061
C205	C	0.936230	0.383616	-1.050994
C206	C	1.269563	0.716950	-0.717661
C207	C	1.602896	1.050283	-0.384328
C208	C	0.936227	0.383628	-0.985252
C209	C	1.269560	0.716961	-0.651919
C210	C	1.602894	1.050295	-0.318586
C211	C	0.897610	0.338624	-0.950751
C212	C	1.230944	0.671957	-0.617418
C213	C	1.564277	1.005291	-0.284085
C214	C	0.897503	0.338780	-0.152205
C215	C	1.230837	0.672113	0.181128
C216	C	1.564170	1.005447	0.514462
C217	C	0.897611	0.338600	-0.082231
C218	C	1.230944	0.671934	0.251102
C219	C	1.564278	1.005267	0.584436
H220	H	0.960911	0.606680	-0.252412
H221	H	1.294245	0.940013	0.080921
H222	H	1.627578	1.273346	0.414254
C223	C	0.996994	0.926250	-0.216569
C224	C	1.330327	1.259583	0.116764
C225	C	1.663660	1.592917	0.450097
H226	H	1.019831	0.958654	-0.193797
H227	H	1.353165	1.291988	0.139537
H228	H	1.686498	1.625321	0.472870
H229	H	0.973950	0.897624	-0.188078
H230	H	1.307283	1.230958	0.145255
H231	H	1.640617	1.564291	0.478588
H232	H	1.025435	0.897526	-0.239653
H233	H	1.358768	1.230860	0.093680
H234	H	1.692101	1.564193	0.427013
H235	H	0.810015	0.740106	-0.403133
H236	H	1.143349	1.073439	-0.069800
H237	H	1.476682	1.406772	0.263534
C238	C	0.663887	0.433508	-0.403456
C239	C	0.997220	0.766841	-0.070122
C240	C	1.330554	1.100175	0.263211
H241	H	0.633932	0.460340	-0.428365
H242	H	0.967266	0.793673	-0.095031
H243	H	1.300599	1.127007	0.238302
H244	H	0.688382	0.464145	-0.380421
H245	H	1.021715	0.797478	-0.047088
H246	H	1.355049	1.130811	0.286245
H247	H	0.690548	0.406624	-0.429956
H248	H	1.023882	0.739957	-0.096623
H249	H	1.357215	1.073290	0.236711
H250	H	0.980354	1.070116	-0.233246
H251	H	1.313687	1.403449	0.100088
H252	H	1.647020	1.736783	0.433421
C253	C	0.978712	0.433106	-1.088944
C254	C	1.312045	0.766439	-0.755611
C255	C	1.645378	1.099772	-0.422278
H256	H	0.973188	0.426647	-1.132571
H257	H	1.306521	0.759980	-0.799237
H258	H	1.639854	1.093313	-0.465904
H259	H	0.967777	0.480401	-1.079851
H260	H	1.301111	0.813734	-0.746518
H261	H	1.634444	1.147067	-0.413185
H262	H	1.021384	0.422792	-1.077832
H263	H	1.354718	0.756125	-0.744498
H264	H	1.688051	1.089458	-0.411165
H265	H	0.541546	0.257054	-0.239875
H266	H	0.874879	0.590388	0.093459
H267	H	1.208213	0.923721	0.426792
H268	H	0.834212	1.070183	-0.379157
H269	H	1.167545	1.403517	-0.045824
H270	H	1.500879	1.736850	0.287509
C271	C	0.525836	0.433437	-0.403536
C272	C	0.859170	0.766770	-0.070203
C273	C	1.192503	1.100104	0.263130
H274	H	0.553865	0.460280	-0.428431
H275	H	0.887198	0.793613	-0.095097
H276	H	1.220532	1.126947	0.238236
H277	H	0.501230	0.406511	-0.430036
H278	H	0.834563	0.739844	-0.096703
H279	H	1.167896	1.073177	0.236630
H280	H	0.499019	0.464077	-0.380544
H281	H	0.832352	0.797410	-0.047211
H282	H	1.165686	1.130744	0.286123
C283	C	0.816515	0.244121	-0.944028
C284	C	1.149848	0.577454	-0.610695
C285	C	1.483182	0.910787	-0.277362
H286	H	0.822049	0.250570	-0.900402
H287	H	1.155382	0.583903	-0.567068
H288	H	1.488715	0.917237	-0.233735
H289	H	0.773844	0.254428	-0.955138
H290	H	1.107178	0.587761	-0.621805
H291	H	1.440511	0.921094	-0.288471
H292	H	0.827456	0.196824	-0.953123
H293	H	1.160789	0.530157	-0.619790
H294	H	1.494122	0.863491	-0.286457
H295	H	0.827531	0.257069	-0.553058
H296	H	1.160865	0.590402	-0.219725
H297	H	1.494198	0.923736	0.113608
C298	C	0.670672	0.244200	-0.227883
C299	C	1.004005	0.577533	0.105450
C300	C	1.337339	0.910866	0.438783
H301	H	0.642642	0.217353	-0.202994
H302	H	0.975975	0.550686	0.130340
H303	H	1.309309	0.884020	0.463673
H304	H	0.697474	0.213576	-0.250903
H305	H	1.030807	0.546909	0.082431
H306	H	1.364141	0.880243	0.415764
H307	H	0.695295	0.271095	-0.201366
H308	H	1.028628	0.604428	0.131967
H309	H	1.361961	0.937762	0.465300
H310	H	0.827537	0.257041	-0.672321
H311	H	1.160870	0.590375	-0.338988
H312	H	1.494203	0.923708	-0.005654
C313	C	0.978692	0.433199	-0.688110
C314	C	1.312025	0.766532	-0.354776
C315	C	1.645359	1.099866	-0.021443
H316	H	0.973170	0.426737	-0.731736
H317	H	1.306503	0.760071	-0.398403
H318	H	1.639837	1.093404	-0.065069
H319	H	0.967756	0.480495	-0.679020
H320	H	1.301090	0.813828	-0.345686
H321	H	1.634423	1.147161	-0.012353
H322	H	1.021364	0.422887	-0.676995
H323	H	1.354698	0.756220	-0.343662
H324	H	1.688031	1.089553	-0.010328
C325	C	0.978682	0.433240	-0.550057
C326	C	1.312015	0.766573	-0.216724
C327	C	1.645349	1.099907	0.116609
H328	H	1.001685	0.460033	-0.580022
H329	H	1.335019	0.793366	-0.246688
H330	H	1.668352	1.126700	0.086645
H331	H	0.953484	0.463916	-0.525486
H332	H	1.286817	0.797250	-0.192153
H333	H	1.620151	1.130583	0.141180
H334	H	1.007093	0.406310	-0.523473
H335	H	1.340427	0.739643	-0.190140
H336	H	1.673760	1.072977	0.143193
H337	H	0.140712	0.256962	-0.240014
H338	H	0.474045	0.590295	0.093319
H339	H	0.807378	0.923628	0.426653
C340	C	0.978702	0.433136	-0.950892
C341	C	1.312035	0.766470	-0.617559
C342	C	1.645368	1.099803	-0.284225
H343	H	0.973165	0.426707	-0.906798
H344	H	1.306498	0.760040	-0.573465
H345	H	1.639831	1.093373	-0.240131
H346	H	1.021374	0.422826	-0.961327
H347	H	1.354707	0.756160	-0.627993
H348	H	1.688040	1.089493	-0.294660
H349	H	0.967760	0.480428	-0.963348
H350	H	1.301094	0.813761	-0.630014
H351	H	1.634427	1.147094	-0.296681
C352	C	0.263054	0.433419	-0.403597
C353	C	0.596387	0.766752	-0.070264
C354	C	0.929720	1.100085	0.263069
H355	H	0.233100	0.460248	-0.428510
H356	H	0.566434	0.793582	-0.095176
H357	H	0.899767	1.126915	0.238157
H358	H	0.287545	0.464057	-0.380561
H359	H	0.620878	0.797391	-0.047228
H360	H	0.954212	1.130724	0.286105
H361	H	0.289719	0.406535	-0.430094
H362	H	0.623052	0.739868	-0.096761
H363	H	0.956385	1.073202	0.236572
C364	C	0.125001	0.433395	-0.403637
C365	C	0.458335	0.766728	-0.070304
C366	C	0.791668	1.100062	0.263029
H367	H	0.153032	0.460255	-0.428515
H368	H	0.486365	0.793588	-0.095181
H369	H	0.819698	1.126921	0.238152
H370	H	0.100371	0.406519	-0.430158
H371	H	0.433704	0.739852	-0.096825
H372	H	0.767038	1.073186	0.236509
H373	H	0.098207	0.464017	-0.380602
H374	H	0.431540	0.797350	-0.047269
H375	H	0.764873	1.130683	0.286065
H376	H	0.814765	0.606748	-0.398321
H377	H	1.148098	0.940081	-0.064988
H378	H	1.481432	1.273415	0.268345
H379	H	0.956162	0.740026	-0.257231
H380	H	1.289496	1.073359	0.076103
H381	H	1.622829	1.406692	0.409436
C382	C	0.827817	0.926340	-0.385439
C383	C	1.161150	1.259673	-0.052106
C384	C	1.494484	1.593007	0.281227
H385	H	0.802668	0.958771	-0.410547
H386	H	1.136001	1.292104	-0.077214
H387	H	1.469334	1.625437	0.256120
H388	H	0.852899	0.897612	-0.411865
H389	H	1.186232	1.230946	-0.078532
H390	H	1.519565	1.564279	0.254802
H391	H	0.801421	0.897722	-0.360283
H392	H	1.134754	1.231055	-0.026949
H393	H	1.468088	1.564388	0.306384
C394	C	0.269834	0.244121	-0.228018
C395	C	0.603167	0.577455	0.105315
C396	C	0.936500	0.910788	0.438649
H397	H	0.241803	0.217277	-0.203127
H398	H	0.575136	0.550611	0.130207
H399	H	0.908470	0.883944	0.463540
H400	H	0.296635	0.213495	-0.251035
H401	H	0.629968	0.546828	0.082298
H402	H	0.963302	0.880162	0.415631
H403	H	0.294457	0.271018	-0.201503
H404	H	0.627790	0.604351	0.131831
H405	H	0.961124	0.937685	0.465164
H406	H	0.827546	0.256955	-1.073156
H407	H	1.160879	0.590288	-0.739823
H408	H	1.494212	0.923622	-0.406489
