data_functionalizedCrystal
_audit_creation_method	'MofGen! by Chris Wilmer'
_symmetry_space_group_name_H-M	'P1'
_symmetry_Int_Tables_number	1
_symmetry_cell_setting	triclinic
loop_
_symmetry_equiv_pos_as_xyz
  x,y,z
_cell_length_a	9.065215
_cell_length_b	10.489763
_cell_length_c	8.140239
_cell_angle_alpha	89.992086
_cell_angle_beta	90.000939
_cell_angle_gamma	95.218471
loop_
_atom_site_label
_atom_site_type_symbol
_atom_site_fract_x
_atom_site_fract_y
_atom_site_fract_z
O1	O	1.959511	-0.187023	0.136615
O2	O	2.459511	0.312977	0.636615
O3	O	1.530153	-0.202369	0.136624
O4	O	2.030153	0.297631	0.636624
O5	O	1.754585	-0.009135	0.136588
O6	O	2.254585	0.490865	0.636588
O7	O	1.735080	-0.380257	0.136650
O8	O	2.235080	0.119743	0.636650
O9	O	1.754578	-0.009134	-0.136639
O10	O	2.254578	0.490866	0.363361
O11	O	1.530146	-0.202367	-0.136603
O12	O	2.030146	0.297633	0.363397
O13	O	1.959504	-0.187021	-0.136612
O14	O	2.459504	0.312979	0.363388
Zn15	Zn	1.744824	-0.194694	-0.179989
Zn16	Zn	2.244824	0.305306	0.320011
Zn17	Zn	1.744834	-0.194696	0.180000
Zn18	Zn	2.244834	0.305304	0.680000
O19	O	1.735073	-0.380255	-0.136577
O20	O	2.235073	0.119745	0.363423
C21	C	1.475170	-0.200894	0.000011
C22	C	1.975170	0.299106	0.500011
C23	C	1.311348	-0.196487	0.000013
C24	C	1.811348	0.303513	0.500013
C25	C	1.753101	0.038402	-0.000030
C26	C	2.253101	0.538402	0.499970
C27	C	1.748673	0.180046	-0.000043
C28	C	2.248673	0.680046	0.499957
C29	C	1.605855	0.248700	-0.000036
C30	C	2.105855	0.748700	0.499964
C31	C	1.673306	0.340580	-0.134763
C32	C	2.173306	0.840580	0.365237
C33	C	1.673347	0.340553	0.134618
C34	C	2.173347	0.840553	0.634618
C35	C	1.816182	0.270060	-0.134880
C36	C	2.316182	0.770060	0.365120
C37	C	1.816203	0.270024	0.134621
C38	C	2.316203	0.770024	0.634621
C39	C	1.883757	0.361875	-0.000138
C40	C	2.383757	0.861875	0.499862
C41	C	2.014488	-0.188496	0.000004
C42	C	2.514488	0.311504	0.500004
C43	C	2.178310	-0.192903	0.000013
C44	C	2.678310	0.307097	0.500013
C45	C	1.736533	0.572205	0.000016
C46	C	2.236533	1.072205	0.500016
C47	C	1.740892	0.430554	-0.000045
C48	C	2.240892	0.930554	0.499955
N49	N	1.744828	-0.194692	-0.425671
N50	N	2.244828	0.305308	0.074329
N51	N	1.744841	-0.194688	0.425683
N52	N	2.244841	0.305312	0.925683
H53	H	1.488442	0.199473	-0.000164
H54	H	1.988442	0.699473	0.499836
F55	F	1.895100	0.229483	-0.283906
F56	F	2.395100	0.729483	0.216094
H57	H	1.612873	0.371809	-0.248657
H58	H	2.112873	0.871809	0.251343
H59	H	2.001276	0.410875	-0.000221
H60	H	2.501276	0.910875	0.499779
H61	H	1.876584	0.238761	0.248522
H62	H	2.376584	0.738761	0.748522
H63	H	1.612902	0.371733	0.248517
H64	H	2.112902	0.871733	0.748517
