data_functionalizedCrystal
_audit_creation_method	'MofGen! by Chris Wilmer'
_symmetry_space_group_name_H-M	'P1'
_symmetry_Int_Tables_number	1
_symmetry_cell_setting	triclinic
loop_
_symmetry_equiv_pos_as_xyz
  x,y,z
_cell_length_a	10.654562
_cell_length_b	14.853567
_cell_length_c	9.130313
_cell_angle_alpha	89.997459
_cell_angle_beta	90.003070
_cell_angle_gamma	84.062517
loop_
_atom_site_label
_atom_site_type_symbol
_atom_site_fract_x
_atom_site_fract_y
_atom_site_fract_z
O1	O	1.666509	0.126676	0.121882
O2	O	1.300907	0.138729	0.121863
O3	O	1.493474	0.001525	0.121877
O4	O	1.473942	0.263880	0.121867
O5	O	1.493471	0.001529	-0.121722
O6	O	1.300905	0.138732	-0.121736
O7	O	1.666506	0.126680	-0.121717
Cu8	Cu	1.483705	0.132707	-0.143969
Cu9	Cu	1.483708	0.132702	0.144115
O10	O	1.473940	0.263883	-0.121731
C11	C	1.254117	0.137843	0.000061
C12	C	1.114703	0.135188	0.000054
C13	C	1.049183	0.133952	-0.132720
C14	C	0.918187	0.131465	-0.132696
C15	C	0.918240	0.131454	0.132889
C16	C	1.049235	0.133935	0.132863
C17	C	1.049151	0.133962	-0.286054
C18	C	0.918155	0.131475	-0.286029
C19	C	1.492588	-0.032066	0.000082
C20	C	1.489936	-0.132164	0.000095
C21	C	1.364336	-0.545375	0.000060
C22	C	1.593110	-0.565423	0.000072
C23	C	1.595603	-0.471376	0.000081
C24	C	1.482462	-0.414324	0.000077
C25	C	1.366826	-0.451318	0.000064
C26	C	1.711237	-0.434374	0.000079
C27	C	1.713735	-0.340322	0.000086
C28	C	1.600592	-0.283267	0.000093
C29	C	1.484952	-0.320268	0.000082
C30	C	1.371810	-0.263215	0.000078
C31	C	1.256169	-0.300213	0.000077
C32	C	1.253683	-0.394264	0.000071
C33	C	1.603077	-0.189217	0.000099
C34	C	1.374300	-0.169159	0.000082
C35	C	1.713296	0.127566	0.000088
C36	C	1.852711	0.130220	0.000105
C37	C	1.474826	0.297475	0.000067
C38	C	1.477478	0.397573	0.000064
N39	N	1.483713	0.132709	-0.346592
C40	C	1.569003	0.071976	-0.423237
C41	C	1.568999	0.071966	-0.576574
C42	C	1.398412	0.193428	-0.576606
C43	C	1.398410	0.193434	-0.423272
C44	C	1.667494	0.001853	-0.423220
C45	C	1.667491	0.001843	-0.576556
N46	N	1.483711	0.132693	0.346737
H47	H	0.889249	0.065726	-0.333606
F48	F	1.307620	0.258062	-0.341701
F49	F	1.786371	0.030566	-0.361045
F50	F	0.856803	0.212912	-0.362971
H51	H	1.763841	0.017292	-0.618169
F52	F	1.253876	-0.108446	0.000088
F53	F	1.307630	0.258052	-0.658227
F54	F	1.135760	-0.239484	0.000061
H55	H	1.102578	0.134927	0.240981
H56	H	1.803350	-0.480833	0.000069
F57	F	1.130621	-0.433647	0.000075
F58	F	1.628489	-0.083745	-0.638711
F59	F	1.713516	-0.626144	0.000055
H60	H	0.864920	0.130434	0.241018
F61	F	1.241269	-0.584750	0.000072
F62	F	1.640408	-0.088719	-0.368810
H63	H	1.096058	0.071659	-0.344934
F64	F	1.836808	-0.300954	0.000105
F65	F	1.086921	0.219903	-0.348243
F66	F	1.726142	-0.149844	0.000076
