data_functionalizedCrystal
_audit_creation_method	'MofGen! by Chris Wilmer'
_symmetry_space_group_name_H-M	'P1'
_symmetry_Int_Tables_number	1
_symmetry_cell_setting	triclinic
loop_
_symmetry_equiv_pos_as_xyz
  x,y,z
_cell_length_a	16.120484
_cell_length_b	13.897449
_cell_length_c	13.897441
_cell_angle_alpha	89.973931
_cell_angle_beta	87.134365
_cell_angle_gamma	87.074300
loop_
_atom_site_label
_atom_site_type_symbol
_atom_site_fract_x
_atom_site_fract_y
_atom_site_fract_z
Zn1	Zn	-0.331881	-1.455180	0.564961
Zn2	Zn	-0.471313	-1.446873	0.411830
Zn3	Zn	-0.331918	-1.293867	0.403666
Zn4	Zn	-0.471255	-1.285653	0.573065
O5	O	-0.401592	-1.370393	0.488381
O6	O	-0.350386	-1.589059	0.544673
O7	O	-0.452861	-1.426537	0.275768
O8	O	-0.215248	-1.322181	0.418254
O9	O	-0.452826	-1.582956	0.432169
O10	O	-0.215221	-1.440697	0.536757
O11	O	-0.350448	-1.314125	0.269770
O12	O	-0.350392	-1.157797	0.426112
O13	O	-0.452727	-1.308180	0.706969
O14	O	-0.452762	-1.151762	0.550568
O15	O	-0.350330	-1.432731	0.701015
O16	O	-0.587971	-1.418572	0.440027
O17	O	-0.587928	-1.300124	0.558485
C18	C	-0.401575	-1.119780	0.488334
C19	C	-0.401589	-1.012565	0.488339
C20	C	-0.401590	-0.925495	0.488351
C21	C	-0.401595	-0.816263	0.488375
C22	C	-0.618199	-1.357581	0.501042
C23	C	-0.710865	-1.352189	0.506491
C24	C	-0.880526	-1.342349	0.516459
C25	C	-0.921817	-1.398611	0.460318
C26	C	-1.016222	-1.393136	0.465864
C27	C	-0.786112	-1.347822	0.510914
C28	C	-0.184138	-1.383282	0.475691
C29	C	-0.091473	-1.388774	0.470283
C30	C	-0.401518	-1.370466	0.739969
C31	C	-0.401487	-1.370497	0.847181
C32	C	-0.401605	-0.621985	0.488416
C33	C	-0.401602	-0.729200	0.488400
C34	C	-0.401605	-1.370380	0.237767
C35	C	-0.401401	-1.370550	0.130542
C36	C	-0.401430	-1.370527	1.043473
C37	C	-0.401464	-1.370507	0.934243
H38	H	-0.886266	-1.450890	0.408089
C39	C	-0.928551	-1.271716	0.587004
N40	N	-0.964733	-1.218511	0.640132
