data_functionalizedCrystal
_audit_creation_method	'MofGen! by Chris Wilmer'
_symmetry_space_group_name_H-M	'P1'
_symmetry_Int_Tables_number	1
_symmetry_cell_setting	triclinic
loop_
_symmetry_equiv_pos_as_xyz
  x,y,z
_cell_length_a	21.395362
_cell_length_b	10.686285
_cell_length_c	21.395355
_cell_angle_alpha	85.619443
_cell_angle_beta	89.956060
_cell_angle_gamma	85.645931
loop_
_atom_site_label
_atom_site_type_symbol
_atom_site_fract_x
_atom_site_fract_y
_atom_site_fract_z
Zn1	Zn	0.977081	-0.501939	-0.335532
Zn2	Zn	0.985062	-0.712908	-0.222746
Zn3	Zn	0.872298	-0.501998	-0.230731
Zn4	Zn	0.880345	-0.712934	-0.327450
O5	O	0.928696	-0.607445	-0.279115
O6	O	1.065816	-0.529889	-0.320611
O7	O	0.970076	-0.684945	-0.136127
O8	O	0.879490	-0.325422	-0.251357
O9	O	1.071680	-0.684888	-0.237748
O10	O	0.956473	-0.325378	-0.328354
O11	O	0.887229	-0.529990	-0.141993
O12	O	0.785689	-0.530015	-0.243520
O13	O	0.893204	-0.684932	-0.416201
O14	O	0.791601	-0.684989	-0.314579
O15	O	0.964276	-0.529915	-0.422138
O16	O	0.977879	-0.889481	-0.229911
O17	O	0.900944	-0.889500	-0.306837
C18	C	0.765911	-0.607512	-0.279040
C19	C	0.696272	-0.607571	-0.279021
C20	C	0.666658	-0.688373	-0.315957
C21	C	0.601221	-0.688342	-0.315987
C22	C	0.565402	-0.607522	-0.279068
C23	C	0.595024	-0.526705	-0.242129
C24	C	0.660459	-0.526729	-0.242106
C25	C	0.461288	-0.597357	-0.223048
C26	C	0.395855	-0.597342	-0.223070
C27	C	0.363578	-0.607440	-0.279140
C28	C	0.396745	-0.617580	-0.335189
C29	C	0.462180	-0.617604	-0.335165
C30	C	0.494448	-0.607486	-0.279089
C31	C	0.263010	-0.688213	-0.316111
C32	C	0.197572	-0.688173	-0.316141
C33	C	0.191376	-0.526542	-0.242278
C34	C	0.256813	-0.526575	-0.242254
C35	C	0.292626	-0.607417	-0.279169
C36	C	0.941168	-0.935273	-0.266644
C37	C	0.946560	-1.075519	-0.261330
C38	C	1.092117	-0.607379	-0.279191
C39	C	1.161757	-0.607351	-0.279223
C40	C	0.928747	-0.607420	-0.442539
C41	C	0.928769	-0.607409	-0.512181
C42	C	0.916194	-0.278338	-0.291648
C43	C	0.910866	-0.138091	-0.296989
C44	C	0.965774	-0.526688	-0.547987
C45	C	0.965771	-0.526634	-0.613424
C46	C	0.928771	-0.607323	-0.643053
C47	C	0.891758	-0.688049	-0.607238
C48	C	0.891757	-0.688092	-0.541802
C49	C	0.928146	-0.720937	-0.742404
C50	C	0.928151	-0.720896	-0.807838
C51	C	0.928770	-0.607189	-0.844878
C52	C	0.929396	-0.493520	-0.816476
C53	C	0.929395	-0.493563	-0.751040
C54	C	0.928767	-0.607284	-0.714006
C55	C	0.965773	-0.526403	-0.951640
C56	C	0.965766	-0.526347	-1.017078
C57	C	0.891756	-0.687773	-1.010891
C58	C	0.891760	-0.687818	-0.945453
C59	C	0.928772	-0.607135	-0.915832
C60	C	0.928678	-0.607380	-0.116330
C61	C	0.928764	-0.607035	-0.046702
H62	H	0.489181	-0.625857	-0.380802
H63	H	0.995907	-0.460699	-0.927521
C64	C	0.896485	-0.989698	-0.386820
C65	C	0.864046	-1.065580	-0.343698
H66	H	0.867580	-0.944933	-0.415659
H67	H	0.918150	-0.931659	-0.365160
H68	H	0.925720	-1.041045	-0.408894
H69	H	0.834814	-1.014231	-0.321621
H70	H	0.842371	-1.123625	-0.365360
C71	C	0.689248	-0.750157	-0.419647
C72	C	0.706022	-0.777220	-0.356542
H73	H	0.713554	-0.805003	-0.444702
H74	H	0.646044	-0.761710	-0.424939
H75	H	0.696782	-0.665409	-0.432098
H76	H	0.698483	-0.861967	-0.344090
H77	H	0.749237	-0.765679	-0.351246
C78	C	0.988193	-0.312958	-0.641714
C79	C	1.006454	-0.437906	-0.652793
H80	H	1.013313	-0.258187	-0.666014
H81	H	0.945402	-0.294501	-0.653111
H82	H	0.993492	-0.301447	-0.598502
H83	H	1.001151	-0.449421	-0.696004
H84	H	1.049256	-0.456370	-0.641400
H85	H	0.981242	-1.129246	-0.226729
C86	C	0.325812	-0.692787	-0.149221
C87	C	0.359407	-0.586215	-0.161459
H88	H	0.303317	-0.685923	-0.111180
H89	H	0.297225	-0.698795	-0.182609
H90	H	0.354113	-0.765919	-0.145562
H91	H	0.331106	-0.513084	-0.165122
H92	H	0.387997	-0.580194	-0.128062
C93	C	0.373318	-0.527587	-0.439581
C94	C	0.361271	-0.628655	-0.396827
H95	H	0.351417	-0.534427	-0.477633
H96	H	0.359672	-0.450728	-0.422528
H97	H	0.417036	-0.529078	-0.447585
H98	H	0.317553	-0.627159	-0.388819
H99	H	0.374913	-0.705534	-0.413883
C100	C	0.534056	-0.858066	-0.318114
C101	C	0.568661	-0.777170	-0.356589
H102	H	0.513955	-0.912899	-0.343182
H103	H	0.561375	-0.906250	-0.288940
H104	H	0.503362	-0.809910	-0.296136
H105	H	0.599359	-0.825326	-0.378564
H106	H	0.541340	-0.728981	-0.385775
C107	C	0.262564	-0.847957	-0.389132
C108	C	0.302381	-0.777053	-0.356696
H109	H	0.286870	-0.902795	-0.414191
H110	H	0.238834	-0.896133	-0.359973
H111	H	0.234992	-0.793025	-0.415238
H112	H	0.329950	-0.831985	-0.330587
H113	H	0.326122	-0.728873	-0.385859
H114	H	0.861630	-0.753743	-0.631366
C115	C	0.968008	-0.356970	-0.480875
C116	C	1.006439	-0.437955	-0.515438
H117	H	0.993110	-0.302184	-0.460781
H118	H	0.938876	-0.308741	-0.508222
H119	H	0.945982	-0.405067	-0.450176
H120	H	1.028462	-0.389858	-0.546140
H121	H	1.035582	-0.486189	-0.488089
H122	H	0.861620	-0.753823	-0.512649
H123	H	0.173462	-0.753969	-0.346223
H124	H	0.684570	-0.460927	-0.212028
H125	H	0.929904	-0.401010	-0.727918
H126	H	0.162212	-0.460731	-0.212221
C127	C	0.984040	-0.309054	-0.843682
C128	C	0.930072	-0.368527	-0.857188
H129	H	0.984458	-0.231898	-0.868823
H130	H	0.984128	-0.292805	-0.800653
H131	H	1.020135	-0.362119	-0.852421
H132	H	0.893977	-0.315465	-0.848445
H133	H	0.929979	-0.384771	-0.900227
C134	C	0.538412	-0.692852	-0.149161
C135	C	0.496768	-0.586261	-0.161413
H136	H	0.560318	-0.685995	-0.111114
H137	H	0.515646	-0.765963	-0.145513
H138	H	0.567521	-0.698871	-0.182544
H139	H	0.467656	-0.580247	-0.128032
H140	H	0.519535	-0.513130	-0.165056
H141	H	0.995899	-0.460607	-1.046231
H142	H	0.927645	-0.813452	-0.830958
C143	C	0.274509	-0.464818	-0.138550
C144	C	0.289370	-0.437768	-0.201644
H145	H	0.294611	-0.409991	-0.113480
H146	H	0.230417	-0.453231	-0.133285
H147	H	0.288429	-0.549576	-0.126092
H148	H	0.275446	-0.353012	-0.214103
H149	H	0.333471	-0.449344	-0.206912
H150	H	0.927473	-0.813506	-0.712251
C151	C	0.788001	-0.749268	-1.028629
C152	C	0.851085	-0.776466	-1.043455
H153	H	0.762892	-0.804018	-1.048740
H154	H	0.782707	-0.760859	-0.984539
H155	H	0.775619	-0.664483	-1.042566
H156	H	0.863469	-0.861249	-1.029514
H157	H	0.856382	-0.764885	-1.087554
C158	C	0.572433	-0.464920	-0.138439
C159	C	0.555657	-0.437866	-0.201544
H160	H	0.548133	-0.410063	-0.113385
H161	H	0.564900	-0.549655	-0.125985
H162	H	0.615644	-0.453368	-0.133150
H163	H	0.512447	-0.449427	-0.206834
H164	H	0.563186	-0.353110	-0.214002
H165	H	0.861631	-0.753558	-0.916299
