data_functionalizedCrystal
_audit_creation_method	'MofGen! by Chris Wilmer'
_symmetry_space_group_name_H-M	'P1'
_symmetry_Int_Tables_number	1
_symmetry_cell_setting	triclinic
loop_
_symmetry_equiv_pos_as_xyz
  x,y,z
_cell_length_a	31.640172
_cell_length_b	27.440280
_cell_length_c	27.440280
_cell_angle_alpha	60.004742
_cell_angle_beta	90.008206
_cell_angle_gamma	60.004358
loop_
_atom_site_label
_atom_site_type_symbol
_atom_site_fract_x
_atom_site_fract_y
_atom_site_fract_z
Zr1	Zr	0.407241	0.533323	-0.063881
O2	O	0.339762	0.634985	-0.141700
O3	O	0.427919	0.431661	-0.040026
O4	O	0.427929	0.533311	-0.141687
O5	O	0.339752	0.533345	0.040155
O6	O	0.497486	0.533301	-0.141677
O7	O	0.339751	0.533336	-0.040038
O8	O	0.497468	0.351468	0.040177
O9	O	0.339771	0.715178	-0.141699
O10	O	0.488657	0.473468	-0.029843
O11	O	0.436748	0.473483	0.029996
O12	O	0.436760	0.593162	-0.089697
O13	O	0.384851	0.593177	-0.029858
Zr14	Zr	0.518178	0.533322	0.064035
Zr15	Zr	0.518176	0.533307	-0.063864
Zr16	Zr	0.407242	0.533338	0.064018
Zr17	Zr	0.407255	0.661221	-0.063879
Zr18	Zr	0.518164	0.405424	0.064034
O19	O	0.497500	0.634984	0.040181
O20	O	0.497497	0.634962	-0.141676
O21	O	0.339764	0.635007	0.040156
O22	O	0.585657	0.431660	0.141855
O23	O	0.585655	0.431638	-0.040002
O24	O	0.427921	0.431683	0.141830
O25	O	0.585666	0.533300	-0.040000
O26	O	0.497490	0.533334	0.141842
O27	O	0.427933	0.533344	0.141832
O28	O	0.585667	0.533309	0.040193
O29	O	0.427949	0.715165	-0.141685
O30	O	0.497469	0.351480	0.141840
O31	O	0.585648	0.351467	0.141854
O32	O	0.585647	0.351455	0.040191
O33	O	0.339772	0.715190	-0.040036
O34	O	0.427951	0.715177	-0.040023
O35	O	0.488659	0.473483	0.089852
O36	O	0.540567	0.473468	0.030012
O37	O	0.488670	0.593162	-0.029842
O38	O	0.436762	0.593176	0.029998
C39	C	0.462691	0.373342	0.000075
C40	C	0.462685	0.319046	0.000075
C41	C	0.489820	-0.017703	-0.031153
C42	C	0.489824	-0.068727	-0.031151
O43	O	0.512884	-0.095140	-0.057698
N44	N	0.462728	-0.094236	0.000083
C45	C	0.435629	-0.068723	0.031323
O46	O	0.412583	-0.095106	0.057891
C47	C	0.435628	-0.017703	0.031324
C48	C	0.462722	0.007807	0.000083
C49	C	0.516912	0.007807	-0.062391
C50	C	0.516906	0.058828	-0.062394
C51	C	0.489808	0.084339	-0.031158
C52	C	0.462716	0.058829	0.000080
C53	C	0.408533	0.007805	0.062567
C54	C	0.408534	0.058828	0.062566
C55	C	0.435628	0.084339	0.031325
C56	C	0.435613	0.135361	0.031314
N57	N	0.462709	0.160869	0.000080
C58	C	0.489807	0.135359	-0.031156
C59	C	0.435635	-0.175868	0.031318
C60	C	0.435633	-0.226883	0.031313
C61	C	0.489829	-0.226885	-0.031160
C62	C	0.489828	-0.175866	-0.031158
C63	C	0.462731	-0.150360	0.000084
C64	C	0.489793	0.242507	-0.031159
C65	C	0.489783	0.293535	-0.031161
C66	C	0.435590	0.293530	0.031315
C67	C	0.435597	0.242509	0.031314
C68	C	0.462702	0.216997	0.000076
O69	O	0.412567	0.161804	0.057849
O70	O	0.512855	0.161741	-0.057713
C71	C	0.323946	0.533343	0.000056
C72	C	0.276851	0.533349	0.000049
C73	C	0.011935	0.470837	0.031333
C74	C	-0.165050	0.470825	0.031344
O75	O	-0.164897	0.417689	0.057937
N76	N	-0.214270	0.533304	0.000100
C77	C	-0.219242	0.595790	-0.031146
O78	O	-0.265167	0.648931	-0.057715
C79	C	-0.042258	0.595801	-0.031153
C80	C	0.006961	0.533318	0.000088
C81	C	0.061151	0.408359	0.062572
C82	C	0.105395	0.408363	0.062566
C83	C	0.100421	0.470844	0.031321
C84	C	0.051205	0.533322	0.000082
C85	C	-0.047230	0.658286	-0.062396
C86	C	-0.002979	0.658283	-0.062393
C87	C	0.046240	0.595801	-0.031152
C88	C	0.090475	0.595807	-0.031169
N89	N	0.139694	0.533328	0.000075
C90	C	0.144667	0.470847	0.031320
C91	C	-0.312160	0.595779	-0.031140
C92	C	-0.356406	0.595777	-0.031139
C93	C	-0.302211	0.470812	0.031352
C94	C	-0.257964	0.470815	0.031347
C95	C	-0.262940	0.533301	0.000104
C96	C	0.237580	0.470859	0.031305
C97	C	0.281824	0.470868	0.031294
C98	C	0.227626	0.595833	-0.031194
C99	C	0.183385	0.595824	-0.031186
C100	C	0.188365	0.533332	0.000067
O101	O	0.090361	0.648915	-0.057743
O102	O	0.190597	0.417713	0.057896
C103	C	-0.032309	0.470833	0.031339
C104	C	-0.081525	0.533311	0.000099
C105	C	-0.086499	0.595792	-0.031146
C106	C	-0.125771	0.533308	0.000100
C107	C	-0.120798	0.470827	0.031345
C108	C	-0.071579	0.408349	0.062589
C109	C	-0.027335	0.408352	0.062583
C110	C	-0.135718	0.658271	-0.062389
C111	C	-0.179959	0.658262	-0.062382
C112	C	-0.174986	0.595781	-0.031137
C113	C	0.601473	0.533302	0.000099
C114	C	0.648568	0.533295	0.000106
C115	C	0.462707	0.533304	-0.159905
C116	C	0.462707	0.533297	-0.214202
C117	C	0.462727	0.693303	0.000079
C118	C	0.462733	0.747599	0.000080
C119	C	0.435624	0.595813	-0.582179
C120	C	0.435626	0.595817	-0.633201
O121	O	0.412603	0.648953	-0.686160
N122	N	0.462714	0.533338	-0.627475
C123	C	0.489808	0.470852	-0.570723
O124	O	0.512849	0.417710	-0.570538
C125	C	0.489809	0.470849	-0.519702
C126	C	0.462714	0.533331	-0.525432
C127	C	0.408532	0.658290	-0.587907
C128	C	0.408530	0.658286	-0.536888
C129	C	0.435620	0.595805	-0.480141
C130	C	0.462712	0.533327	-0.474413
C131	C	0.516905	0.408364	-0.462950
C132	C	0.516904	0.408366	-0.411928
C133	C	0.489809	0.470848	-0.417659
C134	C	0.489800	0.470842	-0.366648
N135	N	0.462711	0.533320	-0.372373
C136	C	0.435621	0.595802	-0.429120
C137	C	0.489804	0.470863	-0.677873
C138	C	0.489800	0.470866	-0.728892
C139	C	0.435619	0.595831	-0.791367
C140	C	0.435620	0.595827	-0.740346
C141	C	0.462715	0.533342	-0.683598
C142	C	0.435618	0.595788	-0.321975
C143	C	0.435617	0.595779	-0.270948
C144	C	0.489800	0.470814	-0.208478
C145	C	0.489800	0.470824	-0.259499
C146	C	0.462708	0.533316	-0.316249
O147	O	0.512813	0.417733	-0.313670
O148	O	0.412589	0.648935	-0.429295
C149	C	0.462711	0.533341	0.160060
C150	C	0.462712	0.533348	0.214356
C151	C	0.601455	0.373322	0.000097
C152	C	0.648544	0.319019	0.000103
C153	C	0.462693	0.373361	0.160058
C154	C	0.462688	0.319071	0.214354
C155	C	0.601457	0.373341	0.160079
C156	C	0.648546	0.319044	0.214382
C157	C	0.323962	0.693304	-0.159924
C158	C	0.276872	0.747601	-0.214228
C159	C	0.323964	0.693323	0.000058
C160	C	0.276875	0.747626	0.000051
C161	C	0.462725	0.693284	-0.159903
C162	C	0.462731	0.747574	-0.214199
C163	C	0.643560	0.293518	-0.031143
C164	C	0.687801	0.242502	-0.031149
C165	C	0.737025	0.216984	0.000096
C166	C	0.742007	0.242490	0.031343
C167	C	0.697767	0.293509	0.031345
C168	C	0.489782	0.293576	0.271101
C169	C	0.489775	0.242572	0.322123
C170	C	0.462677	0.217061	0.316396
C171	C	0.435579	0.242562	0.259643
C172	C	0.435584	0.293568	0.208622
C173	C	0.697761	0.293538	0.208648
C174	C	0.742011	0.242528	0.259667
C175	C	0.737045	0.217021	0.316419
C176	C	0.687826	0.242532	0.322152
C177	C	0.643577	0.293545	0.271134
C178	C	0.227658	0.773113	-0.208493
C179	C	0.183408	0.824139	-0.259512
C180	C	0.188374	0.849648	-0.316264
C181	C	0.237593	0.824134	-0.321997
C182	C	0.281842	0.773113	-0.270979
C183	C	0.281858	0.773132	0.031292
C184	C	0.237617	0.824162	0.031284
C185	C	0.188394	0.849682	0.000038
C186	C	0.183412	0.824174	-0.031207
C187	C	0.227652	0.773148	-0.031202
C188	C	0.489834	0.773069	-0.208453
C189	C	0.489850	0.824073	-0.259465
C190	C	0.462758	0.849584	-0.316222
C191	C	0.435653	0.824085	-0.321967
C192	C	0.435641	0.773078	-0.270956
H193	H	0.511865	0.221741	-0.056595
C194	C	0.519588	0.321595	-0.065525
H195	H	0.515703	0.355641	-0.061059
H196	H	0.555235	0.284972	-0.050092
H197	H	0.506207	0.341493	-0.106629
C198	C	-0.008453	0.727017	-0.096731
H199	H	0.024945	0.718076	-0.092249
H200	H	-0.026846	0.752717	-0.137836
H201	H	-0.026831	0.752659	-0.081274
H202	H	0.152339	0.891193	-0.357802
H203	H	0.782091	0.221706	0.056781
H204	H	0.223605	0.752346	-0.162287
C205	C	0.682370	0.214464	0.384581
H206	H	0.715774	0.180424	0.414140
H207	H	0.663989	0.251081	0.389067
H208	H	0.663989	0.194553	0.389055
H209	H	0.701814	0.314299	0.162442
H210	H	0.603484	0.314294	-0.056593
H211	H	0.782083	0.221763	0.254988
H212	H	0.413551	0.646662	-0.275621
C213	C	0.462772	0.905692	-0.372331
H214	H	0.442759	0.917235	-0.406960
H215	H	0.448273	0.945494	-0.372330
H216	H	0.497298	0.888953	-0.372321
C217	C	0.405816	0.745048	-0.277280
H218	H	0.409687	0.711015	-0.238775
H219	H	0.370175	0.781687	-0.298487
H220	H	0.419195	0.725139	-0.298477
C221	C	0.405782	0.321603	0.146204
H222	H	0.389649	0.299096	0.150106
H223	H	0.380143	0.369769	0.124991
H224	H	0.429173	0.313224	0.125009
C225	C	0.703255	0.321546	0.065726
H226	H	0.738907	0.299033	0.084337
H227	H	0.687127	0.369711	0.038770
H228	H	0.687124	0.313177	0.095293
C229	C	0.335965	0.402137	0.065661
H230	H	0.361606	0.411083	0.061181
H231	H	0.339850	0.376468	0.106763
H232	H	0.339841	0.376462	0.050232
C233	C	0.785685	0.160859	0.000095
H234	H	0.775662	0.149324	-0.022985
H235	H	0.805709	0.177567	-0.016627
H236	H	0.805697	0.121050	0.039901
H237	H	0.603506	0.314305	0.275811
C238	C	0.519598	0.402089	-0.146054
H239	H	0.535733	0.364875	-0.149945
H240	H	0.545236	0.399493	-0.124848
H241	H	0.496206	0.399494	-0.124860
C242	C	0.243048	0.852194	-0.384427
H243	H	0.209644	0.886227	-0.413985
H244	H	0.261437	0.872095	-0.388910
H245	H	0.261423	0.815565	-0.388903
C246	C	0.519659	0.852121	-0.253135
H247	H	0.535782	0.829629	-0.212026
H248	H	0.545306	0.843752	-0.271725
H249	H	0.496272	0.900290	-0.271742
C250	C	0.335975	0.745047	-0.277294
H251	H	0.332590	0.767544	-0.318402
H252	H	0.354376	0.753398	-0.258691
H253	H	0.354353	0.696880	-0.258697
C254	C	0.405821	0.214417	0.065708
H255	H	0.389692	0.236908	0.084322
H256	H	0.380181	0.222743	0.038770
H257	H	0.429236	0.166253	0.095275
C258	C	0.462679	0.160951	0.372522
H259	H	0.482703	0.149420	0.407137
H260	H	0.428161	0.177671	0.372527
H261	H	0.477189	0.121138	0.372532
H262	H	0.511849	0.314341	0.275775
C263	C	0.405822	0.664562	-0.853794
H264	H	0.389684	0.701776	-0.849903
H265	H	0.429213	0.667152	-0.874987
H266	H	0.380179	0.667161	-0.875001
C267	C	0.546716	0.086877	-0.096752
H268	H	0.562857	0.064365	-0.115347
H269	H	0.523334	0.135041	-0.126321
H270	H	0.572358	0.078512	-0.069779
C271	C	0.378723	-0.020239	0.096926
H272	H	0.362590	0.002266	0.115529
H273	H	0.353083	-0.011878	0.069958
H274	H	0.402108	-0.068406	0.126498
H275	H	0.538980	-0.012961	-0.087827
C276	C	0.222164	0.745088	-0.065560
H277	H	0.186511	0.767592	-0.084162
H278	H	0.238298	0.753435	-0.095123
H279	H	0.238289	0.696923	-0.038586
H280	H	0.386469	0.709166	-0.541561
H281	H	0.511843	0.221816	0.368328
H282	H	-0.139776	0.709151	-0.087834
H283	H	0.511890	-0.155098	-0.056597
H284	H	0.413516	0.221783	0.254989
C285	C	0.405813	0.664528	-0.384391
H286	H	0.389675	0.701732	-0.380487
H287	H	0.429196	0.667135	-0.405593
H288	H	0.380168	0.667130	-0.405598
C289	C	0.785722	0.160903	0.372534
H290	H	0.815742	0.149364	0.360985
H291	H	0.785734	0.177619	0.395618
H292	H	0.785724	0.121095	0.395611
H293	H	0.386473	0.709173	-0.634110
H294	H	0.143307	0.646702	-0.056633
C295	C	0.129274	0.852189	-0.253195
H296	H	0.132658	0.829677	-0.212088
H297	H	0.110887	0.900352	-0.271790
H298	H	0.110883	0.843827	-0.271803
H299	H	0.683735	0.221741	-0.056594
C300	C	0.405825	-0.254935	0.065671
H301	H	0.409703	-0.288974	0.061199
H302	H	0.419202	-0.274829	0.106772
H303	H	0.370177	-0.218306	0.050232
H304	H	0.241684	0.844923	0.056729
C305	C	0.139734	0.905807	0.000039
H306	H	0.149756	0.917335	0.023126
H307	H	0.119717	0.945614	-0.039763
H308	H	0.119714	0.889089	0.016769
C309	C	0.546711	0.339634	-0.456638
H310	H	0.542834	0.348573	-0.495148
H311	H	0.582356	0.313964	-0.435433
H312	H	0.533326	0.313963	-0.435445
C313	C	0.546707	0.339630	-0.349508
H314	H	0.562838	0.302423	-0.353408
H315	H	0.572347	0.337025	-0.328295
H316	H	0.523315	0.337032	-0.328314
C317	C	0.129264	0.852245	-0.065570
H318	H	0.103634	0.886280	-0.061089
H319	H	0.125374	0.872146	-0.106672
H320	H	0.125376	0.815622	-0.050135
H321	H	-0.316220	0.646665	-0.056586
C322	C	0.519640	0.745012	-0.146027
H323	H	0.535786	0.767502	-0.149919
H324	H	0.496256	0.753381	-0.124827
H325	H	0.545277	0.696843	-0.124825
C326	C	0.405850	0.852158	-0.384402
H327	H	0.409736	0.886192	-0.413954
H328	H	0.419219	0.815542	-0.388888
H329	H	0.370199	0.872076	-0.388884
H330	H	0.511894	-0.247666	-0.056593
H331	H	0.413565	-0.155099	0.056756
H332	H	0.386468	0.079593	0.088007
H333	H	0.511856	0.419986	-0.724219
C334	C	0.243063	0.402119	0.065679
H335	H	0.278715	0.364916	0.084276
H336	H	0.226936	0.399515	0.095247
H337	H	0.226928	0.399517	0.038712
C338	C	0.519586	0.402095	-0.253198
H339	H	0.535717	0.364884	-0.212093
H340	H	0.496191	0.399514	-0.271814
H341	H	0.545235	0.399482	-0.271790
H342	H	0.012738	0.357472	0.088024
C343	C	0.159530	0.339632	0.096938
H344	H	0.156148	0.302425	0.115549
H345	H	0.177920	0.337022	0.069979
H346	H	0.177918	0.337038	0.126505
C347	C	0.405823	0.664557	-0.746654
H348	H	0.389693	0.701766	-0.787760
H349	H	0.380181	0.667164	-0.728056
H350	H	0.429217	0.667150	-0.728047
H351	H	0.413526	0.314312	0.056744
H352	H	0.065210	0.357477	0.088018
H353	H	-0.298168	0.419937	0.056789
C354	C	-0.203828	0.402085	0.065719
H355	H	-0.207208	0.364877	0.084329
H356	H	-0.185438	0.399479	0.038759
H357	H	-0.185442	0.399492	0.095287
H358	H	-0.396479	0.646656	-0.056586
H359	H	-0.087300	0.709166	-0.087835
H360	H	0.321935	0.752358	0.056740
H361	H	-0.067536	0.357474	0.088027
C362	C	0.222163	0.664556	-0.065592
H363	H	0.255565	0.655604	-0.061122
H364	H	0.203778	0.690203	-0.106689
H365	H	0.203783	0.690257	-0.050182
H366	H	-0.220035	0.709147	-0.087828
H367	H	0.511866	0.419977	-0.631666
