data_functionalizedCrystal
_audit_creation_method	'MofGen! by Chris Wilmer'
_symmetry_space_group_name_H-M	'P1'
_symmetry_Int_Tables_number	1
_symmetry_cell_setting	triclinic
loop_
_symmetry_equiv_pos_as_xyz
  x,y,z
_cell_length_a	14.908571
_cell_length_b	12.645330
_cell_length_c	14.908308
_cell_angle_alpha	86.731360
_cell_angle_beta	89.824947
_cell_angle_gamma	86.708920
loop_
_atom_site_label
_atom_site_type_symbol
_atom_site_fract_x
_atom_site_fract_y
_atom_site_fract_z
Zn1	Zn	1.345359	-0.553229	0.587594
Zn2	Zn	1.678692	-0.219895	0.920927
Zn3	Zn	2.012025	0.113438	1.254261
Zn4	Zn	1.353958	-0.720908	0.437238
Zn5	Zn	1.687292	-0.387575	0.770571
Zn6	Zn	2.020625	-0.054241	1.103905
Zn7	Zn	1.203672	-0.532867	0.428592
Zn8	Zn	1.537005	-0.199533	0.761925
Zn9	Zn	1.870338	0.133800	1.095258
Zn10	Zn	1.194986	-0.719648	0.578890
Zn11	Zn	1.528319	-0.386315	0.912223
Zn12	Zn	1.861652	-0.052982	1.245556
O13	O	1.274494	-0.631663	0.508078
O14	O	1.607827	-0.298330	0.841412
O15	O	1.941160	0.035004	1.174745
O16	O	1.472326	-0.584520	0.574911
O17	O	1.805660	-0.251187	0.908244
O18	O	2.138993	0.082146	1.241577
O19	O	1.341256	-0.687969	0.310266
O20	O	1.674590	-0.354636	0.643600
O21	O	2.007923	-0.021303	0.976933
O22	O	1.222503	-0.387225	0.449708
O23	O	1.555836	-0.053891	0.783041
O24	O	1.889170	0.279442	1.116374
O25	O	1.478645	-0.707714	0.464445
O26	O	1.811978	-0.374380	0.797778
O27	O	2.145311	-0.041047	1.131111
O28	O	1.326600	-0.402184	0.566526
O29	O	1.659933	-0.068851	0.899860
O30	O	1.993266	0.264482	1.233193
O31	O	1.230841	-0.549816	0.303914
O32	O	1.564175	-0.216483	0.637247
O33	O	1.897508	0.116850	0.970580
O34	O	1.076692	-0.548595	0.441267
O35	O	1.410026	-0.215262	0.774601
O36	O	1.743359	0.118072	1.107934
O37	O	1.207699	-0.705567	0.705869
O38	O	1.541032	-0.372234	1.039203
O39	O	1.874366	-0.038900	1.372536
O40	O	1.070311	-0.685823	0.551691
O41	O	1.403644	-0.352490	0.885024
O42	O	1.736978	-0.019156	1.218358
O43	O	1.318177	-0.583299	0.712264
O44	O	1.651511	-0.249966	1.045598
O45	O	1.984844	0.083368	1.378931
O46	O	1.332834	-0.869084	0.456004
O47	O	1.666167	-0.535751	0.789338
O48	O	1.999501	-0.202417	1.122671
O49	O	1.216038	-0.868159	0.560075
O50	O	1.549371	-0.534825	0.893409
O51	O	1.882704	-0.201492	1.226742
C52	C	1.040876	-0.614864	0.494597
C53	C	1.374209	-0.281530	0.827930
C54	C	1.707543	0.051803	1.161264
C55	C	0.940932	-0.607704	0.488851
C56	C	1.274266	-0.274370	0.822184
C57	C	1.607599	0.058963	1.155517
C58	C	1.274450	-0.907088	0.508055
C59	C	1.607783	-0.573755	0.841388
C60	C	1.941116	-0.240421	1.174721
C61	C	1.274512	-1.024924	0.508079
C62	C	1.607845	-0.691591	0.841412
C63	C	1.941178	-0.358257	1.174746
C64	C	0.746540	-0.737345	0.592883
C65	C	1.079873	-0.404012	0.926216
C66	C	1.413206	-0.070678	1.259549
C67	C	0.652633	-0.730621	0.587487
C68	C	0.985967	-0.397288	0.920820
C69	C	1.319300	-0.063954	1.254153
C70	C	0.659211	-0.587528	0.472668
C71	C	0.992545	-0.254194	0.806002
C72	C	1.325878	0.079139	1.139335
C73	C	0.753118	-0.594251	0.478064
C74	C	1.086451	-0.260918	0.811398
C75	C	1.419784	0.072415	1.144731
C76	C	0.796778	-0.669164	0.538172
C77	C	1.130112	-0.335830	0.871506
C78	C	1.463445	-0.002497	1.204839
C79	C	0.890687	-0.675892	0.543563
C80	C	1.224020	-0.342559	0.876896
C81	C	1.557353	-0.009225	1.210230
C82	C	0.897263	-0.532794	0.428750
C83	C	1.230596	-0.199461	0.762083
C84	C	1.563930	0.133873	1.095417
C85	C	0.803357	-0.526070	0.423354
C86	C	1.136690	-0.192737	0.756687
C87	C	1.470023	0.140596	1.090021
C88	C	1.347885	-1.193009	0.442461
C89	C	1.681218	-0.859676	0.775794
C90	C	2.014551	-0.526342	1.109127
C91	C	1.348101	-1.070476	0.442644
C92	C	1.681434	-0.737142	0.775978
C93	C	2.014767	-0.403809	1.109311
C94	C	1.294736	-1.077205	0.604337
C95	C	1.628070	-0.743872	0.937671
C96	C	1.961403	-0.410538	1.271004
C97	C	1.295308	-1.199819	0.604000
C98	C	1.628641	-0.866486	0.937333
C99	C	1.961975	-0.533152	1.270666
C100	C	1.180833	-1.183876	0.478372
C101	C	1.514166	-0.850542	0.811705
C102	C	1.847499	-0.517209	1.145039
C103	C	1.181411	-1.061168	0.476273
C104	C	1.514744	-0.727835	0.809606
C105	C	1.848078	-0.394502	1.142939
C106	C	1.509023	-0.648529	0.521613
C107	C	1.842357	-0.315195	0.854946
C108	C	2.175690	0.018138	1.188280
C109	C	1.608966	-0.655716	0.527381
C110	C	1.942299	-0.322383	0.860714
C111	C	2.275633	0.010951	1.194047
C112	C	1.261010	-0.646564	0.742604
C113	C	1.594343	-0.313231	1.075937
C114	C	1.927677	0.020103	1.409271
C115	C	1.255264	-0.652914	0.842545
C116	C	1.588598	-0.319580	1.175878
C117	C	1.921931	0.013753	1.509212
C118	C	1.274561	-0.355165	0.508123
C119	C	1.607894	-0.021832	0.841457
C120	C	1.941228	0.311501	1.174790
C121	C	1.274590	-0.237338	0.508143
C122	C	1.607923	0.095995	0.841476
C123	C	1.941256	0.429328	1.174809
C124	C	1.287976	-0.616747	0.274468
C125	C	1.621310	-0.283414	0.607801
C126	C	1.954643	0.049919	0.941135
C127	C	1.293896	-0.610111	0.174538
C128	C	1.627230	-0.276778	0.507871
C129	C	1.960563	0.056555	0.841205
C130	C	1.359506	-0.537503	1.037005
C131	C	1.692839	-0.204170	1.370338
C132	C	2.026172	0.129163	1.703672
C133	C	1.354110	-0.543466	1.130909
C134	C	1.687443	-0.210133	1.464242
C135	C	2.020777	0.123201	1.797575
C136	C	1.239073	-0.670796	1.124257
C137	C	1.572406	-0.337462	1.457590
C138	C	1.905739	-0.004129	1.790923
C139	C	1.244469	-0.664833	1.030353
C140	C	1.577802	-0.331500	1.363687
C141	C	1.911135	0.001834	1.697020
C142	C	1.304688	-0.598186	0.986731
C143	C	1.638021	-0.264852	1.320064
C144	C	1.971355	0.068481	1.653398
C145	C	1.310088	-0.592229	0.892826
C146	C	1.643421	-0.258896	1.226159
C147	C	1.976755	0.074437	1.559493
C148	C	1.195047	-0.719553	0.886176
C149	C	1.528380	-0.386219	1.219509
C150	C	1.861713	-0.052886	1.552842
C151	C	1.189651	-0.725515	0.980079
C152	C	1.522984	-0.392182	1.313412
C153	C	1.856318	-0.058849	1.646746
H154	H	0.926234	-0.736891	0.592505
H155	H	1.259567	-0.403558	0.925838
H156	H	1.592901	-0.070224	1.259172
H157	H	1.140620	-0.779775	1.015609
H158	H	1.473954	-0.446442	1.348943
H159	H	1.807287	-0.113109	1.682276
H160	H	1.362300	-1.052692	0.629216
H161	H	1.695633	-0.719358	0.962549
H162	H	2.028966	-0.386025	1.295883
H163	H	0.782089	-0.798347	0.641820
H164	H	1.115422	-0.465014	0.975154
H165	H	1.448756	-0.131680	1.308487
H166	H	0.623646	-0.526531	0.423737
H167	H	0.956979	-0.193198	0.757070
H168	H	1.290313	0.140135	1.090404
H169	H	1.408543	-0.483242	1.001487
H170	H	1.741877	-0.149909	1.334821
H171	H	2.075210	0.183425	1.668154
H172	H	0.938178	-0.477278	0.384199
H173	H	1.271511	-0.143945	0.717532
H174	H	1.604844	0.189389	1.050865
H175	H	1.150412	-0.768968	0.845232
H176	H	1.483746	-0.435634	1.178566
H177	H	1.817079	-0.102301	1.511899
H178	H	1.398746	-0.494049	1.171838
H179	H	1.732079	-0.160716	1.505172
H180	H	2.065412	0.172617	1.838505
H181	H	0.767795	-0.465076	0.374418
H182	H	1.101128	-0.131743	0.707751
H183	H	1.434462	0.201590	1.041085
H184	H	1.190045	-0.725056	1.159791
H185	H	1.523378	-0.391723	1.493124
H186	H	1.856711	-0.058390	1.826457
H187	H	1.336081	-1.034830	0.371442
H188	H	1.669414	-0.701496	0.704775
H189	H	2.002748	-0.368163	1.038108
H190	H	0.611732	-0.786139	0.632039
H191	H	0.945065	-0.452806	0.965373
H192	H	1.278399	-0.119473	1.298706
H193	H	1.336078	-1.216920	0.371064
H194	H	1.669411	-0.883587	0.704397
H195	H	2.002745	-0.550253	1.037731
H196	H	1.161385	-1.208869	0.409117
H197	H	1.494719	-0.875536	0.742451
H198	H	1.828052	-0.542203	1.075784
H199	H	1.417655	-1.047156	0.462770
H200	H	1.750988	-0.713822	0.796103
H201	H	2.084321	-0.380489	1.129436
H202	H	1.417071	-1.229788	0.462385
H203	H	1.750404	-0.896455	0.795718
H204	H	2.083737	-0.563122	1.129051
H205	H	1.126289	-1.212418	0.526144
H206	H	1.459622	-0.879085	0.859477
H207	H	1.792956	-0.545751	1.192810
H208	H	1.363677	-1.234641	0.628581
H209	H	1.697010	-0.901308	0.961914
H210	H	2.030343	-0.567974	1.295247
H211	H	1.243962	-1.229451	0.654920
H212	H	1.577296	-0.896118	0.988253
H213	H	1.910629	-0.562785	1.321587
H214	H	1.124298	-1.029651	0.520164
H215	H	1.457632	-0.696317	0.853497
H216	H	1.790965	-0.362984	1.186831
H217	H	1.242740	-1.047950	0.654821
H218	H	1.576073	-0.714617	0.988155
H219	H	1.909406	-0.381284	1.321488
H220	H	1.166063	-1.026325	0.405408
H221	H	1.499396	-0.692992	0.738741
H222	H	1.832729	-0.359659	1.072075
H223	H	1.359123	-0.537963	0.857310
H224	H	1.692456	-0.204630	1.190644
H225	H	2.025790	0.128704	1.523977
