data_functionalizedCrystal
_audit_creation_method	'MofGen! by Chris Wilmer'
_symmetry_space_group_name_H-M	'P1'
_symmetry_Int_Tables_number	1
_symmetry_cell_setting	triclinic
loop_
_symmetry_equiv_pos_as_xyz
  x,y,z
_cell_length_a	23.532407
_cell_length_b	22.010155
_cell_length_c	15.944551
_cell_angle_alpha	89.996699
_cell_angle_beta	83.173742
_cell_angle_gamma	90.005729
loop_
_atom_site_label
_atom_site_type_symbol
_atom_site_fract_x
_atom_site_fract_y
_atom_site_fract_z
O1	O	0.755659	0.050488	0.101953
O2	O	0.589852	0.050498	0.116707
O3	O	0.677283	0.050487	-0.012983
O4	O	0.668228	0.050499	0.231643
O5	O	0.677267	-0.050563	-0.012963
O6	O	0.589837	-0.050552	0.116726
O7	O	0.755643	-0.050562	0.101973
Cu8	Cu	0.672738	-0.059784	0.109351
Cu9	Cu	0.672757	0.059720	0.109328
O10	O	0.668212	-0.050552	0.231662
C11	C	0.568627	-0.000026	0.116341
C12	C	0.505406	-0.000022	0.115211
C13	C	0.238923	-0.000043	0.033805
C14	C	0.298327	-0.000043	0.034855
O15	O	0.334821	-0.000067	-0.029724
N16	N	0.321252	-0.000035	0.111955
C17	C	0.284769	-0.000033	0.188011
O18	O	0.309723	-0.000027	0.253688
C19	C	0.225366	-0.000038	0.186961
C20	C	0.202444	-0.000040	0.109856
C21	C	0.216001	-0.000045	-0.043294
C22	C	0.156601	-0.000044	-0.044343
C23	C	0.120122	-0.000041	0.031708
C24	C	0.143044	-0.000039	0.108807
C25	C	0.188884	-0.000041	0.263016
C26	C	0.129477	-0.000046	0.261959
C27	C	0.106556	-0.000048	0.184854
C28	C	0.047166	-0.000035	0.183808
N29	N	0.024241	-0.000042	0.106708
C30	C	0.060719	-0.000046	0.030657
C31	C	0.409520	-0.000025	0.190211
C32	C	0.468922	-0.000016	0.191262
C33	C	0.482476	-0.000026	0.038105
C34	C	0.423073	-0.000031	0.037055
C35	C	0.386595	-0.000033	0.113110
C36	C	-0.064026	-0.000043	0.028460
C37	C	-0.123432	-0.000040	0.027418
C38	C	-0.136981	-0.000033	0.180575
C39	C	-0.077580	-0.000033	0.181617
C40	C	-0.041104	-0.000040	0.105553
O41	O	0.010637	-0.000013	0.248352
O42	O	0.035757	-0.000060	-0.035008
N43	N	0.672729	-0.143836	0.109367
C44	C	0.711474	-0.563621	0.051910
C45	C	0.711476	-0.627228	0.051904
O46	O	0.744395	-0.660124	0.003063
N47	N	0.672757	-0.659044	0.109311
C48	C	0.634028	-0.627248	0.166721
O49	O	0.601094	-0.660150	0.215549
C50	C	0.634023	-0.563642	0.166722
C51	C	0.672749	-0.531830	0.109318
C52	C	0.750196	-0.531808	-0.005491
C53	C	0.750194	-0.468205	-0.005484
C54	C	0.711469	-0.436414	0.051924
C55	C	0.672747	-0.468226	0.109325
C56	C	0.595292	-0.531847	0.224128
C57	C	0.595290	-0.468237	0.224124
C58	C	0.634016	-0.436424	0.166719
C59	C	0.634020	-0.372832	0.166739
N60	N	0.672740	-0.341017	0.109333
C61	C	0.711465	-0.372808	0.051925
C62	C	0.634041	-0.760826	0.166714
C63	C	0.634048	-0.824431	0.166717
C64	C	0.711495	-0.824407	0.051899
C65	C	0.711491	-0.760800	0.051900
C66	C	0.672760	-0.729010	0.109307
C67	C	0.711458	-0.239236	0.051945
C68	C	0.711454	-0.175628	0.051959
C69	C	0.634004	-0.175657	0.166774
C70	C	0.634010	-0.239261	0.166763
C71	C	0.672739	-0.271049	0.109341
O72	O	0.601117	-0.339896	0.215553
O73	O	0.744388	-0.339898	0.003098
C74	C	0.776868	-0.000037	0.102339
C75	C	0.840090	-0.000036	0.103468
C76	C	0.676899	-0.000038	-0.044264
C77	C	0.675772	-0.000038	-0.137501
N78	N	0.672771	0.143772	0.109306
C79	C	0.618885	-0.000026	-0.351878
C80	C	0.645294	-0.049852	-0.413108
C81	C	0.673733	-0.000033	-0.308209
C82	C	0.645322	0.049776	-0.413111
C83	C	0.671760	-0.000026	-0.473105
C84	C	0.700157	-0.049900	-0.368211
C85	C	0.700178	0.049772	-0.368208
C86	C	0.726627	-0.000065	-0.429421
C87	C	0.674869	-0.000038	-0.213216
C88	C	0.670629	-0.000026	-0.568097
C89	C	0.668596	-0.000025	0.262944
C90	C	0.669723	-0.000021	0.356180
H91	H	-0.142091	-0.000039	-0.035373
O92	O	0.557617	-0.562645	0.279922
C93	C	0.523450	-0.520934	0.330594
H94	H	0.522814	-0.475594	0.296154
H95	H	0.541937	-0.514168	0.392858
C96	C	0.462795	-0.601445	0.390662
C97	C	0.462009	-0.545759	0.348358
H98	H	0.424896	-0.616758	0.401624
H99	H	0.485815	-0.629547	0.356526
H100	H	0.478203	-0.595799	0.442544
H101	H	0.446608	-0.551407	0.296473
H102	H	0.438985	-0.517658	0.382486
H103	H	0.602503	-0.734946	0.213468
O104	O	0.557746	-0.437290	0.279928
C105	C	0.588239	-0.400510	0.331543
H106	H	0.632800	-0.390968	0.297760
H107	H	0.592108	-0.425031	0.393591
C108	C	0.501395	-0.351818	0.391239
C109	C	0.556125	-0.340094	0.349742
H110	H	0.481585	-0.314551	0.402469
H111	H	0.480851	-0.376598	0.356467
H112	H	0.504627	-0.372253	0.442941
H113	H	0.552892	-0.319666	0.298037
H114	H	0.576668	-0.315308	0.384506
O115	O	0.596465	-0.144701	0.222569
C116	C	0.626959	-0.107916	0.274178
H117	H	0.671523	-0.098385	0.240398
H118	H	0.630820	-0.132427	0.336235
C119	C	0.540118	-0.059205	0.333844
C120	C	0.594851	-0.047494	0.292352
H121	H	0.520311	-0.021935	0.345059
H122	H	0.519573	-0.083989	0.299077
H123	H	0.543343	-0.079632	0.385554
H124	H	0.591624	-0.027074	0.240639
H125	H	0.615394	-0.022705	0.327111
H126	H	0.723364	0.091895	-0.348281
O127	O	0.564563	-0.000186	-0.311716
C128	C	0.535844	-0.052808	-0.334462
H129	H	0.568531	-0.089345	-0.356721
H130	H	0.509231	-0.041439	-0.387630
C131	C	0.456122	-0.031420	-0.230081
C132	C	0.496268	-0.076296	-0.257413
H133	H	0.431707	-0.045907	-0.182555
H134	H	0.475469	0.004034	-0.214758
H135	H	0.433950	-0.021949	-0.274394
H136	H	0.518444	-0.085760	-0.213104
H137	H	0.476923	-0.111752	-0.272727
O138	O	0.749087	-0.855228	-0.003989
C139	C	0.739818	-0.839695	-0.087070
H140	H	0.717869	-0.793514	-0.086803
H141	H	0.711468	-0.875495	-0.112829
C142	C	0.824595	-0.893473	-0.143717
C143	C	0.797642	-0.836750	-0.143390
H144	H	0.860263	-0.891658	-0.178460
H145	H	0.830840	-0.903940	-0.087745
H146	H	0.800965	-0.923300	-0.165181
H147	H	0.821269	-0.806925	-0.121916
H148	H	0.791403	-0.826278	-0.199361
O149	O	0.517893	0.000073	-0.035796
C150	C	0.507502	0.052395	-0.082667
H151	H	0.487207	0.088979	-0.038164
H152	H	0.477251	0.040557	-0.131026
C153	C	0.589358	0.031187	-0.183315
C154	C	0.564435	0.076122	-0.128654
H155	H	0.624476	0.045822	-0.211686
H156	H	0.596358	-0.004065	-0.151739
H157	H	0.564143	0.021326	-0.223607
H158	H	0.589647	0.085976	-0.088357
H159	H	0.557441	0.111376	-0.160224
O160	O	0.781025	-0.000132	-0.469300
C161	C	0.820058	-0.000643	-0.408715
H162	H	0.798236	-0.020010	-0.346793
H163	H	0.834983	0.047705	-0.397921
C164	C	0.898814	-0.016564	-0.516814
C165	C	0.872013	-0.040355	-0.440763
H166	H	0.930863	-0.041058	-0.536583
H167	H	0.872517	-0.016218	-0.557632
H168	H	0.911246	0.023725	-0.507809
H169	H	0.859575	-0.080641	-0.449771
H170	H	0.898309	-0.040710	-0.399947
O171	O	0.251488	0.000036	-0.117121
C172	C	0.286244	0.052384	-0.121121
H173	H	0.289268	0.069831	-0.054480
H174	H	0.266688	0.089028	-0.159308
C175	C	0.342827	0.015067	-0.245773
C176	C	0.346546	0.036493	-0.163923
H177	H	0.380024	0.005266	-0.272179
H178	H	0.319411	-0.020200	-0.243081
H179	H	0.326528	0.045608	-0.277585
H180	H	0.362838	0.005950	-0.132109
H181	H	0.369967	0.071754	-0.166611
O182	O	0.617705	-0.100145	-0.436922
C183	C	0.655440	-0.134879	-0.493158
H184	H	0.701496	-0.123749	-0.483328
H185	H	0.648316	-0.123703	-0.560940
C186	C	0.587501	-0.216620	-0.488376
C187	C	0.644068	-0.202954	-0.476297
H188	H	0.580485	-0.258612	-0.477979
H189	H	0.562077	-0.193218	-0.450491
H190	H	0.581571	-0.207302	-0.544862
H191	H	0.649995	-0.212264	-0.419810
H192	H	0.669493	-0.226358	-0.514172
O193	O	-0.028680	-0.000018	-0.045504
C194	C	-0.061660	-0.000034	-0.113770
H195	H	-0.105989	0.019094	-0.092058
H196	H	-0.065899	-0.048512	-0.137423
C197	C	0.022368	0.016104	-0.212384
C198	C	-0.032077	0.039603	-0.185719
H199	H	0.040617	0.040551	-0.256768
H200	H	0.044588	0.016112	-0.166393
H201	H	0.018828	-0.024294	-0.232089
H202	H	-0.028536	0.079997	-0.166004
H203	H	-0.054296	0.039602	-0.231709
O204	O	0.134434	-0.000081	-0.119317
C205	C	0.179378	-0.000071	-0.186207
H206	H	0.219731	-0.019194	-0.162991
H207	H	0.187784	0.048405	-0.209657
C208	C	0.113044	-0.016224	-0.287471
C209	C	0.162605	-0.039717	-0.258958
H210	H	0.102697	-0.040677	-0.332349
H211	H	0.082764	-0.016228	-0.242407
H212	H	0.120056	0.024172	-0.307006
H213	H	0.155591	-0.080109	-0.239413
H214	H	0.192884	-0.039720	-0.304020
H215	H	0.379822	-0.000022	0.252148
O216	O	0.211214	-0.000113	0.337860
C217	C	0.245157	-0.052451	0.343079
H218	H	0.259943	-0.069906	0.276757
H219	H	0.218917	-0.089096	0.380476
C220	C	0.279547	-0.015100	0.469314
C221	C	0.297711	-0.036537	0.387854
H222	H	0.311964	-0.005286	0.496936
H223	H	0.256677	0.020159	0.465800
H224	H	0.257680	-0.045642	0.500467
H225	H	0.319572	-0.005993	0.356700
H226	H	0.320586	-0.071791	0.391364
O227	O	0.727764	-0.100192	-0.344445
C228	C	0.728482	-0.099593	-0.256154
H229	H	0.691929	-0.070063	-0.225656
H230	H	0.771008	-0.080334	-0.240763
C231	C	0.766095	-0.201116	-0.259159
C232	C	0.721196	-0.164850	-0.221699
H233	H	0.761603	-0.241369	-0.237904
H234	H	0.765613	-0.201519	-0.318643
H235	H	0.801529	-0.185059	-0.246329
H236	H	0.685764	-0.180903	-0.234538
H237	H	0.721672	-0.164452	-0.162216
H238	H	0.622123	0.091902	-0.433000
H239	H	0.743024	-0.734903	0.005155
H240	H	0.404415	-0.000033	-0.025731
H241	H	-0.058917	-0.000031	0.244403
H242	H	0.099779	-0.000050	0.323895
O243	O	0.491209	0.000105	0.266143
C244	C	0.525178	0.052435	0.271315
H245	H	0.511132	0.089007	0.227524
H246	H	0.572021	0.040602	0.251555
C247	C	0.535233	0.031260	0.416594
C248	C	0.517978	0.076180	0.362815
H249	H	0.530794	0.045906	0.473036
H250	H	0.512349	-0.003997	0.413109
H251	H	0.574267	0.021403	0.400117
H252	H	0.478943	0.086030	0.379286
H253	H	0.540856	0.111439	0.366305
H254	H	0.742994	-0.265111	0.005186
O255	O	-0.172399	0.000077	0.254468
C256	C	-0.162000	0.052404	0.301320
H257	H	-0.141697	0.088985	0.256805
H258	H	-0.131752	0.040573	0.349687
C259	C	-0.243862	0.031202	0.401971
C260	C	-0.218931	0.076133	0.347295
H261	H	-0.278979	0.045838	0.430334
H262	H	-0.250867	-0.004053	0.370408
H263	H	-0.218650	0.021347	0.442269
H264	H	-0.244139	0.085982	0.306992
H265	H	-0.211931	0.111391	0.378853
O266	O	0.749016	-0.144791	-0.003970
C267	C	0.739725	-0.160397	-0.087016
H268	H	0.694118	-0.177861	-0.087021
H269	H	0.771259	-0.197348	-0.111895
C270	C	0.804602	-0.082484	-0.144108
C271	C	0.748585	-0.103930	-0.144116
H272	H	0.810070	-0.047655	-0.179332
H273	H	0.810863	-0.071972	-0.088159
H274	H	0.830874	-0.113283	-0.164839
H275	H	0.722314	-0.073135	-0.123375
H276	H	0.742319	-0.114436	-0.200062
H277	H	0.781726	-0.442307	-0.052230
O278	O	0.787873	-0.562590	-0.061292
C279	C	0.822033	-0.520860	-0.111961
H280	H	0.822662	-0.475523	-0.077518
H281	H	0.803545	-0.514095	-0.174224
C282	C	0.882701	-0.601341	-0.172034
C283	C	0.883477	-0.545659	-0.129727
H284	H	0.920602	-0.616638	-0.182996
H285	H	0.859686	-0.629456	-0.137900
H286	H	0.867292	-0.595696	-0.223915
H287	H	0.898880	-0.551306	-0.077842
H288	H	0.906497	-0.517545	-0.163853
H289	H	0.602519	-0.850328	0.213470
H290	H	0.602481	-0.265163	0.213515
