data_functionalizedCrystal
_audit_creation_method	'MofGen! by Chris Wilmer'
_symmetry_space_group_name_H-M	'P1'
_symmetry_Int_Tables_number	1
_symmetry_cell_setting	triclinic
loop_
_symmetry_equiv_pos_as_xyz
  x,y,z
_cell_length_a	22.010155
_cell_length_b	14.853567
_cell_length_c	14.853567
_cell_angle_alpha	96.365070
_cell_angle_beta	90.008054
_cell_angle_gamma	90.005502
loop_
_atom_site_label
_atom_site_type_symbol
_atom_site_fract_x
_atom_site_fract_y
_atom_site_fract_z
O1	O	-0.050478	-1.196371	0.117692
O2	O	-0.050488	-0.933912	0.131713
O3	O	-0.050484	-1.072152	-0.006527
O4	O	-0.050481	-1.058131	0.255932
O5	O	0.050566	-1.072127	-0.006507
O6	O	0.050563	-0.933887	0.131734
O7	O	0.050572	-1.196346	0.117712
Cu8	Cu	0.059794	-1.065114	0.124725
Cu9	Cu	-0.059710	-1.065144	0.124700
O10	O	0.050569	-1.058106	0.255953
C11	C	0.000036	-0.900311	0.131088
C12	C	0.000032	-0.800227	0.129184
N13	N	0.143847	-1.065100	0.124742
N14	N	-0.143762	-1.065165	0.124677
C15	C	0.563627	-1.126360	0.063496
C16	C	0.627235	-1.126365	0.063490
O17	O	0.660128	-1.178414	0.011429
N18	N	0.659054	-1.065143	0.124682
C19	C	0.627261	-1.003908	0.185877
O20	O	0.660166	-0.951834	0.237924
C21	C	0.563655	-1.003900	0.185878
C22	C	0.531840	-1.065131	0.124689
C23	C	0.531812	-1.187586	0.002311
C24	C	0.468209	-1.187583	0.002319
C25	C	0.436421	-1.126354	0.063511
C26	C	0.468236	-1.065128	0.124696
C27	C	0.531864	-0.942661	0.247069
C28	C	0.468253	-0.942658	0.247064
C29	C	0.436438	-1.003889	0.185875
C30	C	0.372845	-1.003896	0.185897
N31	N	0.341027	-1.065117	0.124705
C32	C	0.372815	-1.126346	0.063513
C33	C	0.760839	-1.003928	0.185869
C34	C	0.824445	-1.003939	0.185873
C35	C	0.824414	-1.126395	0.063485
C36	C	0.760807	-1.126387	0.063486
C37	C	0.729021	-1.065149	0.124678
C38	C	0.239243	-1.126335	0.063534
C39	C	0.175634	-1.126329	0.063549
C40	C	0.175671	-1.003870	0.185934
C41	C	0.239274	-1.003879	0.185922
C42	C	0.271059	-1.065115	0.124714
O43	O	0.339912	-0.951870	0.237929
O44	O	0.339902	-1.178403	0.011466
C45	C	0.000039	-1.071504	-0.040106
C46	C	0.000034	-1.069601	-0.140189
C47	C	0.000047	-1.229947	0.118337
C48	C	0.000047	-1.330031	0.120241
C49	C	0.000045	-0.387693	0.039019
C50	C	0.000046	-0.366412	0.203251
C51	C	0.000044	-0.460446	0.205042
C52	C	0.000041	-0.518108	0.123819
C53	C	0.000041	-0.481736	0.040806
C54	C	0.000039	-0.496825	0.288053
C55	C	0.000036	-0.590864	0.289846
C56	C	0.000038	-0.648528	0.208623
C57	C	0.000038	-0.612150	0.125607
C58	C	0.000035	-0.669812	0.044384
C59	C	0.000040	-0.633437	-0.038633
C60	C	0.000043	-0.539399	-0.040417
C61	C	0.000035	-0.742565	0.210407
C62	C	0.000031	-0.763855	0.046172
C63	C	0.000042	-0.979435	-0.552723
C64	C	0.000048	-1.143668	-0.574004
C65	C	0.000044	-1.145458	-0.479970
C66	C	0.000040	-1.064235	-0.422309
C67	C	0.000040	-0.981223	-0.458680
C68	C	0.000051	-1.228469	-0.443591
C69	C	0.000048	-1.230262	-0.349552
C70	C	0.000040	-1.149039	-0.291889
C71	C	0.000039	-1.066023	-0.328266
C72	C	0.000035	-0.984800	-0.270604
C73	C	0.000030	-0.901783	-0.306979
C74	C	0.000032	-0.899999	-0.401017
C75	C	0.000037	-1.150823	-0.197851
C76	C	0.000033	-0.986588	-0.176561
C77	C	0.000044	-1.058754	0.289531
C78	C	0.000046	-1.060657	0.389615
H79	H	0.149732	-1.176194	0.013721
Br80	Br	0.000026	-0.866774	-0.602086
H81	H	0.000031	-0.835652	-0.260019
H82	H	0.000052	-1.297860	-0.319944
Br83	Br	0.575029	-0.859557	0.330115
H84	H	0.000061	-0.509774	-0.108005
Br85	Br	0.425119	-0.859540	0.330112
H86	H	0.000028	-0.832411	-0.430643
Br87	Br	0.000059	-1.263479	-0.148487
Br88	Br	0.000073	-1.338693	-0.521849
Br89	Br	0.000056	-0.338331	-0.073642
H90	H	0.000032	-0.810798	-0.019971
Br91	Br	0.282369	-1.209441	-0.019535
Br92	Br	0.000066	-1.253893	-0.652259
Br93	Br	0.425038	-1.270681	-0.080731
Br94	Br	0.000030	-0.640223	0.402509
Br95	Br	0.000029	-0.418568	0.398276
Br96	Br	0.000022	-0.791930	0.323063
Br97	Br	0.574942	-1.270692	-0.080748
Br98	Br	0.000021	-0.876351	-0.098312
H99	H	0.149779	-0.954021	0.235759
Br100	Br	0.867568	-1.209492	-0.019563
Br101	Br	0.717636	-1.209490	-0.019560
H102	H	0.734962	-0.954062	0.235706
Br103	Br	0.282450	-0.920789	0.268979
Br104	Br	0.000029	-0.711703	-0.148859
Br105	Br	0.867615	-0.920851	0.268933
H106	H	0.000043	-0.319459	0.269379
