data_functionalizedCrystal
_audit_creation_method	'MofGen! by Chris Wilmer'
_symmetry_space_group_name_H-M	'P1'
_symmetry_Int_Tables_number	1
_symmetry_cell_setting	triclinic
loop_
_symmetry_equiv_pos_as_xyz
  x,y,z
_cell_length_a	19.121063
_cell_length_b	19.121102
_cell_length_c	16.959447
_cell_angle_alpha	87.545711
_cell_angle_beta	92.406624
_cell_angle_gamma	90.126902
loop_
_atom_site_label
_atom_site_type_symbol
_atom_site_fract_x
_atom_site_fract_y
_atom_site_fract_z
Zn1	Zn	-0.324882	1.059819	-0.513323
Zn2	Zn	-0.442126	1.054733	-0.386519
Zn3	Zn	-0.319902	0.942590	-0.375298
Zn4	Zn	-0.437072	0.937544	-0.512794
O5	O	-0.380995	0.998671	-0.446983
O6	O	-0.344634	1.157249	-0.501420
O7	O	-0.425943	1.039840	-0.274420
O8	O	-0.222459	0.962381	-0.389132
O9	O	-0.430772	1.153512	-0.408258
O10	O	-0.226118	1.048509	-0.490538
O11	O	-0.336145	0.957449	-0.266176
O12	O	-0.331245	0.843816	-0.388619
O13	O	-0.422160	0.953781	-0.623474
O14	O	-0.417330	0.840109	-0.489637
O15	O	-0.339734	1.043616	-0.623863
O16	O	-0.539559	1.034947	-0.407745
O17	O	-0.535846	0.948849	-0.500518
C18	C	-0.373199	0.816525	-0.437853
C19	C	-0.369881	0.738601	-0.433967
C20	C	-0.563140	0.990818	-0.455310
C21	C	-0.641065	0.987522	-0.458902
C22	C	-0.413210	0.700077	-0.484659
C23	C	-0.410083	0.626860	-0.481011
C24	C	-0.363630	0.592167	-0.426666
C25	C	-0.320297	0.630696	-0.375971
C26	C	-0.323421	0.703912	-0.379624
C27	C	-0.351949	0.371197	-0.413014
C28	C	-0.348829	0.297976	-0.409363
C29	C	-0.438614	0.294145	-0.514404
C30	C	-0.441737	0.367363	-0.518049
C31	C	-0.398402	0.405885	-0.467357
C32	C	-0.360434	0.517327	-0.422934
C33	C	-0.401594	0.480724	-0.471094
C34	C	-0.679586	1.030835	-0.412331
C35	C	-0.752805	1.027740	-0.415714
C36	C	-0.787501	0.981327	-0.465664
C37	C	-0.748976	0.938012	-0.512240
C38	C	-0.675758	0.941111	-0.508861
C39	C	-1.008475	0.969727	-0.478285
C40	C	-1.081698	0.966630	-0.481659
C41	C	-1.085522	1.056359	-0.385133
C42	C	-1.012303	1.059451	-0.381755
C43	C	-0.973783	1.016139	-0.428334
C44	C	-0.862343	0.978160	-0.469121
C45	C	-0.898943	1.019309	-0.424881
C46	C	-0.198140	1.006575	-0.438643
C47	C	-0.120218	1.009943	-0.435088
C48	C	-0.380939	0.998703	-0.653150
C49	C	-0.380914	0.998716	-0.741007
C50	C	-0.388822	1.181529	-0.456149
C51	C	-0.392158	1.259452	-0.460056
C52	C	-0.423759	0.952030	-1.112283
C53	C	-0.337929	1.045576	-1.112683
C54	C	-0.337943	1.045557	-1.030137
C55	C	-0.380867	0.998774	-0.988660
C56	C	-0.423776	0.952011	-1.029730
C57	C	-0.295039	1.092324	-0.989062
C58	C	-0.295052	1.092307	-0.906511
C59	C	-0.337973	1.045521	-0.865032
C60	C	-0.380884	0.998755	-0.906106
C61	C	-0.423807	0.951972	-0.864630
C62	C	-0.466715	0.905203	-0.905702
C63	C	-0.466697	0.905224	-0.988251
C64	C	-0.337991	1.045499	-0.782483
C65	C	-0.423824	0.951953	-0.782076
C66	C	-0.381003	0.998682	-0.241618
C67	C	-0.380836	0.998813	-0.153760
H68	H	-0.451039	0.728319	-0.528911
H69	H	-0.302986	1.083668	-1.146459
F70	F	-0.512399	0.855418	-0.861551
F71	F	-0.484733	0.253142	-0.568349
H72	H	-0.310994	0.269732	-0.365113
F73	F	-0.292333	1.095275	-0.738775
H74	H	-0.870691	1.057101	-0.384214
H75	H	-0.501632	0.867149	-1.021700
F76	F	-0.249365	1.142115	-1.033208
F77	F	-0.456199	0.585863	-0.534966
H78	H	-0.458692	0.913950	-1.145728
H79	H	-0.316667	0.402553	-0.371731
H80	H	-0.260114	1.130390	-0.873076
F81	F	-0.310997	0.480398	-0.365098
F82	F	-0.975381	1.108857	-0.328600
H83	H	-0.644396	0.905842	-0.546785
F84	F	-0.491180	0.404280	-0.575889
H85	H	-0.282471	0.602443	-0.331726
F86	F	-0.277303	0.744911	-0.325672
H87	H	-0.890601	0.940370	-0.509789
H88	H	-0.651340	1.068626	-0.371652
F89	F	-0.451030	0.517648	-0.528931
H90	H	-0.784165	1.063009	-0.377790
H91	H	-1.109946	0.928843	-0.522349
F92	F	-1.126522	1.102454	-0.335568
F93	F	-0.967489	0.923629	-0.527859
H94	H	-0.777232	0.900225	-0.552914
H95	H	-0.458772	0.913850	-0.748311
