data_functionalizedCrystal
_audit_creation_method	'MofGen! by Chris Wilmer'
_symmetry_space_group_name_H-M	'P1'
_symmetry_Int_Tables_number	1
_symmetry_cell_setting	triclinic
loop_
_symmetry_equiv_pos_as_xyz
  x,y,z
_cell_length_a	18.101398
_cell_length_b	12.759400
_cell_length_c	12.759393
_cell_angle_alpha	90.030452
_cell_angle_beta	89.981883
_cell_angle_gamma	89.986852
loop_
_atom_site_label
_atom_site_type_symbol
_atom_site_fract_x
_atom_site_fract_y
_atom_site_fract_z
Zn1	Zn	-1.132233	-0.418255	0.593941
Zn2	Zn	-0.632233	0.081745	1.093941
Zn3	Zn	-1.132157	-0.593971	0.418262
Zn4	Zn	-0.632157	-0.093971	0.918262
Zn5	Zn	-1.008384	-0.418302	0.418285
Zn6	Zn	-0.508384	0.081698	0.918285
Zn7	Zn	-1.008379	-0.593889	0.593907
Zn8	Zn	-0.508379	-0.093889	1.093907
O9	O	-1.070288	-0.506104	0.506099
O10	O	-0.570288	-0.006104	1.006099
O11	O	-1.235856	-0.441579	0.570641
O12	O	-0.735856	0.058421	1.070641
O13	O	-1.115708	-0.570722	0.271244
O14	O	-0.615708	-0.070722	0.771244
O15	O	-1.024847	-0.271275	0.441610
O16	O	-0.524847	0.228725	0.941610
O17	O	-1.235800	-0.570677	0.441570
O18	O	-0.735800	-0.070677	0.941570
O19	O	-1.115839	-0.271241	0.570664
O20	O	-0.615839	0.228759	1.070664
O21	O	-1.024773	-0.441659	0.271261
O22	O	-0.524773	0.058341	0.771261
O23	O	-0.904751	-0.441579	0.441577
O24	O	-0.404751	0.058421	0.941577
O25	O	-1.024838	-0.570536	0.740933
O26	O	-0.524838	-0.070536	1.240933
O27	O	-0.904747	-0.570582	0.570606
O28	O	-0.404747	-0.070582	1.070606
O29	O	-1.115834	-0.441499	0.740958
O30	O	-0.615834	0.058501	1.240958
O31	O	-1.115703	-0.740981	0.441537
O32	O	-0.615703	-0.240981	0.941537
O33	O	-1.024764	-0.740921	0.570584
O34	O	-0.524764	-0.240921	1.070584
C35	C	-0.877878	-0.506077	0.506091
C36	C	-0.377878	-0.006077	1.006091
C37	C	-0.795564	-0.506091	0.506113
C38	C	-0.295564	-0.006091	1.006113
C39	C	-1.070245	-0.779072	0.506077
C40	C	-0.570245	-0.279072	1.006077
C41	C	-1.070294	-0.895848	0.506103
C42	C	-0.570294	-0.395848	1.006103
C43	C	-0.644855	-0.506112	0.506111
C44	C	-0.144855	-0.006112	1.006111
C45	C	-0.613524	-0.587403	0.587167
C46	C	-0.113524	-0.087403	1.087167
C47	C	-0.527906	-0.587733	0.586927
C48	C	-0.027906	-0.087733	1.086927
C49	C	-0.496473	-0.506133	0.506111
C50	C	0.003527	-0.006133	1.006111
C51	C	-0.527526	-0.535690	0.395256
C52	C	-0.027526	-0.035690	0.895256
C53	C	-0.613171	-0.536268	0.395724
C54	C	-0.113171	-0.036268	0.895724
C55	C	-0.613313	-0.395064	0.534944
C56	C	-0.113313	0.104936	1.034944
C57	C	-0.527663	-0.395673	0.537385
C58	C	-0.027663	0.104327	1.037385
C59	C	-0.412613	-0.506143	0.506105
C60	C	0.087387	-0.006143	1.006105
C61	C	-0.728715	-0.506105	0.506111
C62	C	-0.228715	-0.006105	1.006111
C63	C	-0.263450	-0.506135	0.506107
C64	C	0.236550	-0.006135	1.006107
C65	C	-0.345764	-0.506154	0.506110
C66	C	0.154236	-0.006154	1.006110
C67	C	-1.117744	-1.060438	0.439016
C68	C	-0.617744	-0.560438	0.939016
C69	C	-1.117699	-0.950714	0.438983
C70	C	-0.617699	-0.450714	0.938983
C71	C	-1.022924	-0.950712	0.573252
C72	C	-0.522924	-0.450712	1.073252
C73	C	-1.022966	-1.060434	0.573279
C74	C	-0.522966	-0.560434	1.073279
C75	C	-1.070344	-0.506003	0.780132
C76	C	-0.570344	-0.006003	1.280132
C77	C	-1.070367	-0.505960	0.896909
C78	C	-0.570367	-0.005960	1.396909
C79	C	-1.070352	-0.232071	0.506144
C80	C	-0.570352	0.267929	1.006144
C81	C	-1.070379	-0.115294	0.506163
C82	C	-0.570379	0.384706	1.006163
C83	C	-1.070276	-0.506129	0.233131
C84	C	-0.570276	-0.006129	0.733131
C85	C	-1.070396	-0.505876	0.116355
C86	C	-0.570396	-0.005876	0.616355
C87	C	-1.117752	-0.438760	0.951786
C88	C	-0.617752	0.061240	1.451786
C89	C	-1.117765	-0.438715	1.061510
C90	C	-0.617765	0.061285	1.561510
C91	C	-1.023006	-0.573079	1.061471
C92	C	-0.523006	-0.073079	1.561471
C93	C	-1.022990	-0.573118	0.951749
C94	C	-0.522990	-0.073118	1.451749
H95	H	-0.506911	-0.569293	0.669111
H96	H	-0.006911	-0.069293	1.169111
H97	H	-0.984434	-0.627759	1.106135
H98	H	-0.484434	-0.127759	1.606135
N99	N	-1.168866	-1.119617	0.366616
N100	N	-0.668866	-0.619617	0.866616
H101	H	-1.203189	-1.165073	0.409359
H102	H	-0.703189	-0.665073	0.909359
H103	H	-1.198814	-1.068151	0.324083
H104	H	-0.698814	-0.568151	0.824083
N105	N	-0.499333	-0.311205	0.464944
N106	N	0.000667	0.188795	0.964944
H107	H	-0.465730	-0.343489	0.410582
H108	H	0.034270	0.156511	0.910582
H109	H	-0.542427	-0.276097	0.428979
H110	H	-0.042427	0.223903	0.928979
H111	H	-1.156267	-0.906053	0.384306
H112	H	-0.656267	-0.406053	0.884306
H113	H	-0.984322	-0.906034	0.627899
H114	H	-0.484322	-0.406034	1.127899
N115	N	-0.971871	-1.119611	0.645696
N116	N	-0.471871	-0.619611	1.145696
H117	H	-0.941831	-1.068210	0.688213
H118	H	-0.441831	-0.568210	1.188213
H119	H	-1.002013	-1.165069	0.694363
H120	H	-0.502013	-0.665069	1.194363
H121	H	-1.156328	-0.384073	0.907138
H122	H	-0.656328	0.115927	1.407138
N123	N	-0.640812	-0.563248	0.696380
N124	N	-0.140812	-0.063248	1.196380
H125	H	-0.673754	-0.499381	0.694378
H126	H	-0.173754	0.000619	1.194378
H127	H	-0.669670	-0.625055	0.724072
H128	H	-0.169670	-0.125055	1.224072
N129	N	-1.168864	-0.366223	1.120699
N130	N	-0.668864	0.133777	1.620699
H131	H	-1.198870	-0.323684	1.069306
H132	H	-0.698870	0.176316	1.569306
H133	H	-1.203132	-0.408968	1.166231
H134	H	-0.703132	0.091032	1.666231
N135	N	-0.639609	-0.643772	0.363444
N136	N	-0.139609	-0.143772	0.863444
H137	H	-0.620350	-0.697715	0.414497
H138	H	-0.120350	-0.197715	0.914497
H139	H	-0.695395	-0.645131	0.363413
H140	H	-0.195395	-0.145131	0.863413
H141	H	-0.984398	-0.627840	0.907067
H142	H	-0.484398	-0.127840	1.407067
N143	N	-0.642002	-0.695786	0.562146
N144	N	-0.142002	-0.195786	1.062146
H145	H	-0.675111	-0.692458	0.498534
H146	H	-0.175111	-0.192458	0.998534
H147	H	-0.598945	-0.743933	0.547360
H148	H	-0.098945	-0.243933	1.047360
N149	N	-0.500737	-0.696733	0.561576
N150	N	-0.000737	-0.196733	1.061576
H151	H	-0.444942	-0.697401	0.561315
H152	H	0.055058	-0.197401	1.061315
H153	H	-0.519536	-0.747431	0.616175
H154	H	-0.019536	-0.247431	1.116175
N155	N	-0.640631	-0.461229	0.312957
N156	N	-0.140631	0.038771	0.812957
H157	H	-0.621869	-0.484073	0.241973
H158	H	-0.121869	0.015927	0.741973
H159	H	-0.696425	-0.461057	0.312709
H160	H	-0.196425	0.038943	0.812709
N161	N	-0.500559	-0.459665	0.313063
N162	N	-0.000559	0.040335	0.813063
H163	H	-0.444809	-0.461350	0.310258
H164	H	0.055191	0.038650	0.810258
H165	H	-0.521247	-0.480208	0.242480
H166	H	-0.021247	0.019792	0.742480
N167	N	-0.499090	-0.642016	0.362409
N168	N	0.000910	-0.142016	0.862409
H169	H	-0.466101	-0.671191	0.419167
H170	H	0.033899	-0.171191	0.919167
H171	H	-0.542173	-0.690947	0.350819
H172	H	-0.042173	-0.190947	0.850819
N173	N	-0.641952	-0.359289	0.640214
N174	N	-0.141952	0.140711	1.140214
H175	H	-0.675668	-0.414712	0.670282
H176	H	-0.175668	0.085288	1.170282
H177	H	-0.599006	-0.347493	0.689333
H178	H	-0.099006	0.152507	1.189333
H179	H	-0.633575	-0.334504	0.475912
H180	H	-0.133575	0.165496	0.975912
H181	H	-0.507370	-0.373377	0.618969
H182	H	-0.007370	0.126623	1.118969
