data_functionalizedCrystal
_audit_creation_method	'MofGen! by Chris Wilmer'
_symmetry_space_group_name_H-M	'P1'
_symmetry_Int_Tables_number	1
_symmetry_cell_setting	triclinic
loop_
_symmetry_equiv_pos_as_xyz
  x,y,z
_cell_length_a	18.101395
_cell_length_b	12.827893
_cell_length_c	18.101398
_cell_angle_alpha	89.994603
_cell_angle_beta	89.998392
_cell_angle_gamma	89.968925
loop_
_atom_site_label
_atom_site_type_symbol
_atom_site_fract_x
_atom_site_fract_y
_atom_site_fract_z
Zn1	Zn	-0.295043	-1.597412	0.418702
Zn2	Zn	-0.418829	-1.597301	0.294864
Zn3	Zn	-0.295005	-1.422696	0.294879
Zn4	Zn	-0.418847	-1.422591	0.418668
O5	O	-0.356931	-1.510000	0.356779
O6	O	-0.311471	-1.743633	0.402283
O7	O	-0.402380	-1.574136	0.191233
O8	O	-0.191377	-1.445963	0.311325
O9	O	-0.402416	-1.743552	0.311299
O10	O	-0.191405	-1.574326	0.402297
O11	O	-0.311407	-1.445855	0.191244
O12	O	-0.311425	-1.276446	0.311292
O13	O	-0.402447	-1.445784	0.522306
O14	O	-0.402411	-1.276369	0.402240
O15	O	-0.311489	-1.574225	0.522331
O16	O	-0.522464	-1.574035	0.311267
O17	O	-0.522477	-1.445676	0.402225
C18	C	-0.356917	-1.238490	0.356764
C19	C	-0.356928	-1.122337	0.356776
C20	C	-0.549341	-1.509860	0.356757
C21	C	-0.631656	-1.509896	0.356772
C22	C	-0.356974	-1.510005	0.549940
C23	C	-0.356993	-1.510007	0.632254
C24	C	-0.930746	-1.510125	0.356812
C25	C	-0.899461	-1.429553	0.414183
C26	C	-0.813843	-1.429170	0.414003
C27	C	-0.782364	-1.510011	0.356793
C28	C	-0.813476	-1.480219	0.278744
C29	C	-0.899121	-1.479699	0.279088
C30	C	-0.899100	-1.620667	0.376803
C31	C	-0.813450	-1.620017	0.378515
C32	C	-0.698504	-1.509949	0.356777
C33	C	-1.014606	-1.510185	0.356822
C34	C	-0.163769	-1.510169	0.356817
C35	C	-0.081455	-1.510241	0.356833
C36	C	-0.356946	-1.782570	0.356793
C37	C	-0.356952	-1.898723	0.356799
C38	C	-0.402021	-1.070542	0.401710
C39	C	-0.402034	-0.950491	0.401723
C40	C	-0.356950	-1.509982	0.931345
C41	C	-0.413987	-1.428902	0.900005
C42	C	-0.414224	-1.429146	0.814386
C43	C	-0.356972	-1.509994	0.782963
C44	C	-0.378166	-1.620086	0.814059
C45	C	-0.378568	-1.619610	0.899704
C46	C	-0.278583	-1.481937	0.899770
C47	C	-0.279008	-1.479512	0.814119
C48	C	-0.356982	-1.510007	0.699103
C49	C	-0.356942	-1.509977	1.015205
C50	C	-0.356915	-1.509983	1.164368
C51	C	-0.356929	-1.509969	1.082054
H52	H	-0.920038	-1.448005	0.472243
N53	N	-0.926527	-1.554038	0.220518
H54	H	-0.957474	-1.514674	0.183391
H55	H	-0.957462	-1.610229	0.244376
N56	N	-0.786776	-1.320640	0.396455
H57	H	-0.755910	-1.322436	0.349989
H58	H	-0.755836	-1.293966	0.438852
N59	N	-0.491148	-1.453731	0.787268
H60	H	-0.489921	-1.519298	0.756406
H61	H	-0.510005	-1.393857	0.756314
H62	H	-0.318329	-1.077804	0.318319
H63	H	-0.400961	-1.347507	0.793361
H64	H	-0.234242	-1.534270	0.792729
N65	N	-0.925893	-1.700183	0.321455
H66	H	-0.981650	-1.702840	0.322322
H67	H	-0.905336	-1.771001	0.334608
N68	N	-0.785141	-1.374320	0.255902
H69	H	-0.752160	-1.345493	0.295992
H70	H	-0.828269	-1.325636	0.247882
N71	N	-0.222287	-1.560147	0.926629
H72	H	-0.172050	-1.541735	0.906169
H73	H	-0.236733	-1.632153	0.909322
H74	H	-0.434830	-1.644287	0.792616
N75	N	-0.785972	-1.453849	0.490660
H76	H	-0.829322	-1.465074	0.524873
H77	H	-0.755098	-1.393823	0.509335
N78	N	-0.490465	-1.453206	0.928497
H79	H	-0.490607	-1.449578	0.984234
H80	H	-0.505207	-1.525556	0.912192
N81	N	-0.928039	-1.321674	0.396870
H82	H	-0.961164	-1.324767	0.352025
H83	H	-0.885028	-1.273702	0.386584
H84	H	-0.337915	-1.682132	0.793707
N85	N	-0.453181	-0.891502	0.452679
H86	H	-0.445942	-0.814104	0.445464
H87	H	-0.441760	-0.910547	0.505601
N88	N	-0.305808	-0.957719	0.305844
H89	H	-0.252906	-0.938812	0.317431
H90	H	-0.317264	-0.938736	0.252918
H91	H	-0.435854	-1.643387	0.919687
N92	N	-0.396610	-1.320411	0.927260
H93	H	-0.351598	-1.322763	0.960191
H94	H	-0.440088	-1.292525	0.956122
H95	H	-0.338828	-1.682070	0.920438
N96	N	-0.253021	-1.377430	0.928367
H97	H	-0.291988	-1.347206	0.962085
H98	H	-0.244548	-1.328645	0.885402
N99	N	-0.257829	-1.372197	0.787197
H100	H	-0.298560	-1.343438	0.754951
H101	H	-0.210583	-1.376795	0.757693
N102	N	-0.925661	-1.372666	0.256655
H103	H	-0.906433	-1.319190	0.292798
H104	H	-0.981448	-1.371350	0.256644
H105	H	-0.793083	-1.537059	0.234833
N106	N	-0.927677	-1.656662	0.450904
H107	H	-0.961433	-1.601669	0.472267
H108	H	-0.884707	-1.668552	0.485487
H109	H	-0.792018	-1.683221	0.339774
N110	N	-0.786518	-1.649789	0.454598
H111	H	-0.754313	-1.592268	0.474916
H112	H	-0.756971	-1.716445	0.451416
H113	H	-0.440615	-1.115075	0.440173
