data_functionalizedCrystal
_audit_creation_method	'MofGen! by Chris Wilmer'
_symmetry_space_group_name_H-M	'P1'
_symmetry_Int_Tables_number	1
_symmetry_cell_setting	triclinic
loop_
_symmetry_equiv_pos_as_xyz
  x,y,z
_cell_length_a	10.489746
_cell_length_b	14.853567
_cell_length_c	13.930277
_cell_angle_alpha	89.995602
_cell_angle_beta	90.007754
_cell_angle_gamma	84.088116
loop_
_atom_site_label
_atom_site_type_symbol
_atom_site_fract_x
_atom_site_fract_y
_atom_site_fract_z
O1	O	0.166535	1.197293	0.079765
O2	O	0.186372	0.934945	0.079782
O3	O	-0.009211	1.072086	0.079766
O4	O	0.362118	1.060151	0.079781
O5	O	-0.009230	1.072090	-0.079896
O6	O	0.186354	0.934949	-0.079880
O7	O	0.166516	1.197297	-0.079896
Zn8	Zn	0.176432	1.066124	-0.105238
Zn9	Zn	0.176456	1.066118	0.105123
O10	O	0.362099	1.060156	-0.079881
C11	C	0.185464	0.901353	-0.000047
C12	C	0.182770	0.801254	-0.000041
C13	C	-0.056742	1.071186	-0.000065
C14	C	-0.198341	1.068486	-0.000064
C15	C	0.055204	0.388003	-0.000067
C16	C	0.287561	0.368028	-0.000057
C17	C	0.290094	0.462076	-0.000054
C18	C	0.175180	0.519092	-0.000056
C19	C	0.057733	0.482060	-0.000061
C20	C	0.407538	0.499115	-0.000039
C21	C	0.410076	0.593169	-0.000035
C22	C	0.295160	0.650187	-0.000044
C23	C	0.177709	0.613149	-0.000050
C24	C	0.062795	0.670165	-0.000052
C25	C	-0.054658	0.633130	-0.000065
C26	C	-0.057183	0.539078	-0.000070
C27	C	0.297685	0.744238	-0.000039
C28	C	0.065324	0.764222	-0.000046
C29	C	-0.350201	0.979629	-0.000046
C30	C	-0.273298	1.024052	0.078671
C31	C	-0.273358	1.024077	-0.078743
C32	C	-0.373734	1.108144	0.078740
C33	C	-0.373799	1.108156	-0.078745
C34	C	-0.296946	1.152641	-0.000009
C35	C	0.409630	1.061056	-0.000048
C36	C	0.551229	1.063756	-0.000042
C37	C	0.167424	1.230888	-0.000065
C38	C	0.170118	1.330987	-0.000065
N39	N	0.176415	1.066134	-0.248804
N40	N	0.176464	1.066114	0.248689
C41	C	0.262884	1.005268	0.298960
C42	C	0.090035	1.126964	0.298924
C43	C	0.090022	1.126968	0.399420
C44	C	0.176443	1.066122	0.449690
C45	C	0.262876	1.005272	0.399465
C46	C	0.003599	1.187824	0.449653
C47	C	0.003584	1.187831	0.550155
C48	C	0.089999	1.126980	0.600427
C49	C	0.176435	1.066126	0.550195
C50	C	0.262856	1.005280	0.600465
C51	C	0.349287	0.944422	0.550236
C52	C	0.349292	0.944421	0.449737
C53	C	0.089994	1.126980	0.700926
C54	C	0.262848	1.005284	0.700971
H55	H	-0.148221	0.679564	-0.000061
H56	H	-0.273293	1.225847	0.000029
C57	C	0.412358	0.306171	0.000147
C58	C	0.483061	0.322996	0.082305
C59	C	0.598027	0.266018	0.082531
H60	H	0.460655	0.317430	-0.055463
H61	H	0.394081	0.244841	0.000198
H62	H	0.501341	0.384312	0.082245
H63	H	0.434802	0.311732	0.137928
H64	H	0.579750	0.204687	0.082582
H65	H	0.646313	0.277281	0.026918
H66	H	0.646008	0.277420	0.138278
C67	C	-0.090403	1.253936	0.604512
C68	C	-0.166103	1.307205	0.538975
C69	C	-0.252711	1.368100	0.589015
H70	H	-0.044465	1.291775	0.643727
H71	H	-0.143760	1.221263	0.643687
H72	H	-0.112752	1.339875	0.499816
H73	H	-0.212068	1.269390	0.499758
H74	H	-0.306069	1.335427	0.628191
H75	H	-0.206764	1.405933	0.628229
H76	H	-0.304092	1.404245	0.544556
C77	C	-0.003864	1.192915	0.755597
C78	C	-0.082214	1.144530	0.813321
C79	C	-0.168671	1.205247	0.863712
H80	H	-0.055453	1.229193	0.711386
H81	H	0.042233	1.230640	0.794853
H82	H	-0.128307	1.106822	0.774069
H83	H	-0.030661	1.108256	0.857550
H84	H	-0.122574	1.242971	0.902967
H85	H	-0.220251	1.241521	0.819494
H86	H	-0.221834	1.172427	0.902890
C87	C	0.537558	0.633418	0.000183
C88	C	0.545818	0.686797	0.082343
C89	C	0.663245	0.723877	0.082586
H90	H	0.543512	0.669762	-0.055425
H91	H	0.605663	0.586010	0.000240
H92	H	0.477732	0.734199	0.082277
H93	H	0.539886	0.650473	0.137965
H94	H	0.731350	0.676469	0.082643
H95	H	0.669189	0.760217	0.026974
H96	H	0.668870	0.760092	0.138335
C97	C	-0.059485	0.826079	0.000151
C98	C	-0.130169	0.809227	0.082299
C99	C	-0.245140	0.866200	0.082520
H100	H	-0.107793	0.814832	-0.055466
H101	H	-0.041215	0.887411	0.000212
H102	H	-0.148442	0.747909	0.082229
H103	H	-0.081900	0.820479	0.137929
H104	H	-0.226870	0.927531	0.082581
H105	H	-0.293436	0.854948	0.026900
H106	H	-0.293108	0.854779	0.138260
C107	C	-0.214529	0.976770	0.167370
C108	C	-0.081738	0.980663	0.166615
C109	C	-0.027559	0.937118	0.248308
H110	H	-0.232214	0.915324	0.167370
H111	H	-0.250158	1.006051	0.223304
H112	H	-0.046120	0.951380	0.110695
H113	H	-0.064017	1.042097	0.166629
H114	H	-0.063188	0.966399	0.304242
H115	H	-0.045253	0.875675	0.248300
H116	H	0.062543	0.939761	0.247810
C117	C	0.356773	0.939092	0.244605
C118	C	0.432428	0.885794	0.310144
C119	C	0.518918	0.824813	0.260108
H120	H	0.410182	0.971671	0.205395
H121	H	0.310705	0.901287	0.205425
H122	H	0.478492	0.923594	0.349308
H123	H	0.379053	0.853196	0.349357
H124	H	0.472850	0.787008	0.220927
H125	H	0.572318	0.857399	0.220899
H126	H	0.570252	0.788637	0.304568
C127	C	-0.184564	0.498693	-0.000029
C128	C	-0.162179	0.404124	-0.000003
C129	C	-0.279489	0.366887	0.000051
H130	H	-0.231993	0.518113	-0.055692
H131	H	-0.231890	0.518154	0.055670
H132	H	-0.114873	0.384671	-0.055696
H133	H	-0.114769	0.384679	0.055656
H134	H	-0.326815	0.386348	0.055750
H135	H	-0.326910	0.386314	-0.055613
H136	H	-0.264317	0.302719	0.000078
H137	H	0.393313	0.774388	-0.000030
C138	C	-0.431756	1.155363	0.167700
C139	C	-0.379526	1.111480	0.249836
C140	C	-0.432934	1.154955	0.331803
H141	H	-0.521973	1.153361	0.167315
H142	H	-0.413174	1.216626	0.167977
H143	H	-0.398118	1.050232	0.249560
H144	H	-0.289314	1.113479	0.250252
H145	H	-0.414352	1.216219	0.332080
H146	H	-0.523149	1.152951	0.331409
H147	H	-0.397495	1.125192	0.387542
C148	C	-0.432258	1.155319	-0.167606
C149	C	-0.381178	1.110950	-0.249811
C150	C	-0.435015	1.154355	-0.331695
H151	H	-0.413136	1.216448	-0.168311
H152	H	-0.522558	1.153715	-0.166689
H153	H	-0.290899	1.112563	-0.250728
H154	H	-0.400297	1.049823	-0.249138
H155	H	-0.525314	1.152751	-0.330778
H156	H	-0.415889	1.215483	-0.332390
H157	H	-0.400374	1.124252	-0.387481
C158	C	-0.215077	0.976567	-0.167459
C159	C	-0.241582	0.886091	-0.167083
C160	C	-0.187940	0.842295	-0.248797
H161	H	-0.124942	0.978995	-0.167228
H162	H	-0.250868	1.005799	-0.223380
H163	H	-0.205786	0.856866	-0.111177
H164	H	-0.331706	0.883636	-0.167328
H165	H	-0.223731	0.871527	-0.304718
H166	H	-0.097808	0.844730	-0.248559
H167	H	-0.205926	0.780905	-0.248558
H168	H	-0.040424	0.357845	-0.000082
H169	H	0.501095	0.452687	-0.000027
C170	C	-0.003934	1.192874	0.244292
C171	C	-0.082293	1.144453	0.186605
C172	C	-0.168889	1.205137	0.136267
H173	H	0.042016	1.230648	0.205011
H174	H	-0.055492	1.229102	0.288564
H175	H	-0.030742	1.108240	0.142338
H176	H	-0.128271	1.106682	0.225862
H177	H	-0.220447	1.241366	0.180540
H178	H	-0.122929	1.242908	0.096992
H179	H	-0.222074	1.172293	0.097128
C180	C	0.356823	0.939181	0.755373
C181	C	0.432530	0.885903	0.689871
C182	C	0.519125	0.825009	0.739950
H183	H	0.310875	0.901346	0.794583
H184	H	0.410177	0.971853	0.794557
H185	H	0.379183	0.853233	0.650703
H186	H	0.478506	0.923713	0.650659
H187	H	0.572479	0.857681	0.779134
H188	H	0.473166	0.787181	0.779159
H189	H	0.570510	0.788858	0.695515
C190	C	-0.090368	1.253730	0.395015
C191	C	-0.168732	1.205304	0.337338
C192	C	-0.255326	1.265983	0.286992
H193	H	-0.044417	1.291496	0.355726
H194	H	-0.141923	1.289966	0.439282
H195	H	-0.117184	1.169083	0.293076
H196	H	-0.214712	1.167540	0.376602
H197	H	-0.306881	1.302219	0.331260
H198	H	-0.209363	1.303747	0.247710
H199	H	-0.308514	1.233135	0.247860
H200	H	0.419657	0.894884	0.591177
H201	H	-0.374099	0.906477	0.000037
H202	H	0.419662	0.894873	0.408833
