data_functionalizedCrystal
_audit_creation_method	'MofGen! by Chris Wilmer'
_symmetry_space_group_name_H-M	'P1'
_symmetry_Int_Tables_number	1
_symmetry_cell_setting	triclinic
loop_
_symmetry_equiv_pos_as_xyz
  x,y,z
_cell_length_a	19.121241
_cell_length_b	29.839131
_cell_length_c	29.839126
_cell_angle_alpha	90.031806
_cell_angle_beta	92.463783
_cell_angle_gamma	92.469032
loop_
_atom_site_label
_atom_site_type_symbol
_atom_site_fract_x
_atom_site_fract_y
_atom_site_fract_z
Zn1	Zn	1.073716	-0.149653	0.283340
Zn2	Zn	1.573716	0.350347	0.783340
Zn3	Zn	1.073607	-0.224776	0.208197
Zn4	Zn	1.573607	0.275224	0.708197
Zn5	Zn	0.956260	-0.152856	0.205011
Zn6	Zn	1.456260	0.347144	0.705011
Zn7	Zn	0.956207	-0.227956	0.280088
Zn8	Zn	1.456207	0.272044	0.780088
O9	O	1.014948	-0.188810	0.244159
O10	O	1.514948	0.311190	0.744159
O11	O	1.171989	-0.156947	0.276066
O12	O	1.671989	0.343053	0.776066
O13	O	1.058017	-0.215246	0.144906
O14	O	1.558017	0.284754	0.644906
O15	O	0.971909	-0.089562	0.215429
O16	O	1.471909	0.410438	0.715429
O17	O	1.171909	-0.212140	0.220859
O18	O	1.671909	0.287860	0.720859
O19	O	1.058203	-0.087209	0.272977
O20	O	1.558203	0.412791	0.772977
O21	O	0.971803	-0.162407	0.142566
O22	O	1.471803	0.337593	0.642566
O23	O	0.857965	-0.165490	0.212276
O24	O	1.357965	0.334510	0.712276
O25	O	0.971818	-0.217559	0.343387
O26	O	1.471818	0.282441	0.843387
O27	O	0.857926	-0.220665	0.267435
O28	O	1.357926	0.279335	0.767435
O29	O	1.058151	-0.160030	0.345776
O30	O	1.558151	0.339970	0.845776
O31	O	1.057966	-0.288067	0.217706
O32	O	1.557966	0.211933	0.717706
O33	O	0.971712	-0.290403	0.270524
O34	O	1.471712	0.209597	0.770524
C35	C	0.832461	-0.193771	0.239157
C36	C	1.332461	0.306229	0.739157
C37	C	0.754392	-0.195903	0.237028
C38	C	1.254392	0.304097	0.737028
C39	C	0.717758	-0.168215	0.264815
C40	C	1.217758	0.331785	0.764815
C41	C	0.644404	-0.170217	0.262811
C42	C	1.144404	0.329783	0.762811
C43	C	0.607686	-0.199909	0.233021
C44	C	1.107686	0.300091	0.733021
C45	C	0.644326	-0.227599	0.205231
C46	C	1.144326	0.272401	0.705231
C47	C	0.717678	-0.225595	0.207234
C48	C	1.217678	0.274405	0.707234
C49	C	0.386207	-0.207395	0.225533
C50	C	0.886207	0.292605	0.725533
C51	C	0.312850	-0.209398	0.223533
C52	C	0.812850	0.290602	0.723533
C53	C	0.312933	-0.152015	0.281113
C54	C	0.812933	0.347985	0.781113
C55	C	0.386287	-0.150015	0.283114
C56	C	0.886287	0.349985	0.783114
C57	C	0.422920	-0.177703	0.255323
C58	C	0.922920	0.322297	0.755323
C59	C	0.532707	-0.201957	0.230973
C60	C	1.032707	0.298043	0.730973
C61	C	0.497898	-0.175652	0.257369
C62	C	0.997898	0.324348	0.757369
C63	C	1.014840	-0.305536	0.244118
C64	C	1.514840	0.194464	0.744118
C65	C	1.014859	-0.355470	0.244118
C66	C	1.514859	0.144530	0.744118
C67	C	1.059871	-0.663851	0.274165
C68	C	1.559871	-0.163851	0.774165
C69	C	1.059947	-0.851522	0.274194
C70	C	1.559947	-0.351522	0.774194
O71	O	1.098113	-0.874716	0.299710
O72	O	1.598113	-0.374716	0.799710
N73	N	1.015067	-0.876249	0.244212
N74	N	1.515067	-0.376249	0.744212
C75	C	0.970161	-0.854056	0.214223
C76	C	1.470161	-0.354056	0.714223
O77	O	0.931984	-0.879395	0.188725
O78	O	1.431984	-0.379395	0.688725
C79	C	0.970082	-0.666386	0.214196
C80	C	1.470082	-0.166386	0.714196
C81	C	1.014970	-0.641661	0.244177
C82	C	1.514970	-0.141661	0.744177
C83	C	1.104755	-0.639126	0.304144
C84	C	1.604755	-0.139126	0.804144
C85	C	1.104739	-0.592211	0.304134
C86	C	1.604739	-0.092211	0.804134
C87	C	1.059837	-0.570021	0.274146
C88	C	1.559837	-0.070021	0.774146
C89	C	1.014953	-0.594746	0.244168
C90	C	1.514953	-0.094746	0.744168
C91	C	0.925172	-0.644194	0.184210
C92	C	1.425172	-0.144194	0.684210
C93	C	0.925155	-0.597274	0.184206
C94	C	1.425155	-0.097274	0.684206
C95	C	0.970044	-0.572549	0.214187
C96	C	1.470044	-0.072549	0.714187
C97	C	0.970035	-0.525641	0.214171
C98	C	1.470035	-0.025641	0.714171
N99	N	1.014916	-0.500914	0.244153
N100	N	1.514916	-0.000914	0.744153
C101	C	1.059817	-0.523104	0.274140
C102	C	1.559817	-0.023104	0.774140
C103	C	0.970207	-0.952586	0.214238
C104	C	1.470207	-0.452586	0.714238
C105	C	0.970227	-0.999503	0.214244
C106	C	1.470227	-0.499503	0.714244
C107	C	1.060013	-0.996965	0.274216
C108	C	1.560013	-0.496965	0.774216
C109	C	1.059995	-0.950047	0.274208
C110	C	1.559995	-0.450047	0.774208
C111	C	1.015087	-0.927858	0.244220
C112	C	1.515087	-0.427858	0.744220
C113	C	1.059779	-0.424579	0.274119
C114	C	1.559779	0.075421	0.774119
C115	C	1.059760	-0.377660	0.274105
C116	C	1.559760	0.122340	0.774105
C117	C	0.969972	-0.380202	0.214135
C118	C	1.469972	0.119798	0.714135
C119	C	0.969993	-0.427117	0.214147
C120	C	1.469993	0.072883	0.714147
C121	C	1.014899	-0.449304	0.244142
C122	C	1.514899	0.050696	0.744142
O123	O	0.931884	-0.502418	0.188671
O124	O	1.431884	-0.002418	0.688671
O125	O	1.097977	-0.497757	0.299641
O126	O	1.597977	0.002243	0.799641
C127	C	1.059888	-0.710766	0.274174
C128	C	1.559888	-0.210766	0.774174
C129	C	1.015004	-0.735491	0.244195
C130	C	1.515004	-0.235491	0.744195
C131	C	0.970103	-0.713301	0.214208
C132	C	1.470103	-0.213301	0.714208
C133	C	1.015024	-0.782408	0.244201
C134	C	1.515024	-0.282408	0.744201
C135	C	1.059925	-0.804598	0.274189
C136	C	1.559925	-0.304598	0.774189
C137	C	1.104806	-0.779870	0.304171
C138	C	1.604806	-0.279870	0.804171
C139	C	1.104789	-0.732955	0.304162
C140	C	1.604789	-0.232955	0.804162
C141	C	0.925222	-0.738029	0.184226
C142	C	1.425222	-0.238029	0.684226
C143	C	0.925243	-0.784944	0.184237
C144	C	1.425243	-0.284944	0.684237
C145	C	0.970144	-0.807133	0.214225
C146	C	1.470144	-0.307133	0.714225
C147	C	1.198147	-0.183831	0.249181
C148	C	1.698147	0.316169	0.749181
C149	C	1.276215	-0.181710	0.251320
C150	C	1.776215	0.318290	0.751320
C151	C	1.014991	-0.188792	0.361339
C152	C	1.514991	0.311208	0.861339
C153	C	1.015010	-0.188784	0.411274
C154	C	1.515010	0.311216	0.911274
C155	C	1.015074	-0.071629	0.244210
C156	C	1.515074	0.428371	0.744210
C157	C	1.015128	-0.021693	0.244232
C158	C	1.515128	0.478307	0.744232
C159	C	1.014945	-0.188795	0.127436
C160	C	1.514945	0.311205	0.627436
C161	C	1.015062	-0.188673	0.077505
C162	C	1.515062	0.311327	0.577505
C163	C	0.970132	-0.161225	0.719702
C164	C	1.470132	0.338775	1.219702
C165	C	0.970152	-0.161194	0.907375
C166	C	1.470152	0.338806	1.407375
O167	O	0.931960	-0.137808	0.930606
O168	O	1.431960	0.362192	1.430606
N169	N	1.015043	-0.188699	0.932060
N170	N	1.515043	0.311301	1.432060
C171	C	1.059929	-0.216216	0.909823
C172	C	1.559929	0.283784	1.409823
O173	O	1.098107	-0.239614	0.935125
O174	O	1.598107	0.260386	1.435125
C175	C	1.059905	-0.216250	0.722150
C176	C	1.559905	0.283750	1.222150
C177	C	1.015016	-0.188740	0.697468
C178	C	1.515016	0.311260	1.197468
C179	C	0.925246	-0.133718	0.695020
C180	C	1.425246	0.366282	1.195020
C181	C	0.925244	-0.133724	0.648104
C182	C	1.425244	0.366276	1.148104
C183	C	0.970128	-0.161238	0.625870
C184	C	1.470128	0.338762	1.125870
C185	C	1.015014	-0.188746	0.650552
C186	C	1.515014	0.311254	1.150552
C187	C	1.104787	-0.243770	0.699914
C188	C	1.604787	0.256230	1.199914
C189	C	1.104776	-0.243776	0.652993
C190	C	1.604776	0.256224	1.152993
C191	C	1.059887	-0.216266	0.628311
C192	C	1.559887	0.283734	1.128311
C193	C	1.059896	-0.216267	0.581403
C194	C	1.559896	0.283733	1.081403
N195	N	1.015005	-0.188761	0.556719
N196	N	1.515005	0.311239	1.056719
C197	C	0.970121	-0.161247	0.578952
C198	C	1.470121	0.338753	1.078952
C199	C	1.059939	-0.216196	1.008354
C200	C	1.559939	0.283804	1.508354
C201	C	1.059946	-0.216187	1.055272
C202	C	1.559946	0.283813	1.555272
C203	C	0.970168	-0.161165	1.052821
C204	C	1.470168	0.338835	1.552821
C205	C	0.970165	-0.161172	1.005902
C206	C	1.470165	0.338828	1.505902
C207	C	1.015048	-0.188691	0.983669
C208	C	1.515048	0.311309	1.483669
C209	C	0.970121	-0.161262	0.480427
C210	C	1.470121	0.338738	0.980427
C211	C	0.970126	-0.161270	0.433507
C212	C	1.470126	0.338730	0.933507
C213	C	1.059901	-0.216294	0.435962
C214	C	1.559901	0.283706	0.935962
C215	C	1.059899	-0.216285	0.482878
C216	C	1.559899	0.283715	0.982878
C217	C	1.015004	-0.188768	0.505109
C218	C	1.515004	0.311232	1.005109
O219	O	1.098062	-0.239644	0.558143
O220	O	1.598062	0.260356	1.058143
O221	O	0.931938	-0.137860	0.553642
O222	O	1.431938	0.362140	1.053642
C223	C	0.970134	-0.161219	0.766617
C224	C	1.470134	0.338781	1.266617
C225	C	1.015020	-0.188727	0.791299
C226	C	1.515020	0.311273	1.291299
C227	C	1.059904	-0.216241	0.769066
C228	C	1.559904	0.283759	1.269066
C229	C	1.015027	-0.188718	0.838217
C230	C	1.515027	0.311282	1.338217
C231	C	0.970143	-0.161204	0.860451
C232	C	1.470143	0.338796	1.360451
C233	C	0.925252	-0.133698	0.835766
C234	C	1.425252	0.366302	1.335766
C235	C	0.925250	-0.133705	0.788851
C236	C	1.425250	0.366295	1.288851
C237	C	1.104795	-0.243747	0.793750
C238	C	1.604795	0.256253	1.293750
C239	C	1.104793	-0.243737	0.840666
C240	C	1.604793	0.256263	1.340666
C241	C	1.059909	-0.216223	0.862899
C242	C	1.559909	0.283777	1.362899
H243	H	0.282956	-0.233580	0.199275
H244	H	0.782956	0.266420	0.699275
H245	H	0.283099	-0.129472	0.303739
H246	H	0.783099	0.370528	0.803739
H247	H	1.141343	-0.266154	0.775652
H248	H	1.641343	0.233846	1.275652
Br249	Br	1.165657	-0.558662	0.344828
Br250	Br	1.665657	-0.058662	0.844828
Br251	Br	1.120724	-0.454683	0.314826
Br252	Br	1.620724	0.045317	0.814826
Br253	Br	0.909084	-0.460673	0.173452
Br254	Br	1.409084	0.039327	0.673452
H255	H	1.096507	-0.238584	1.075364
H256	H	1.596507	0.261416	1.575364
Br257	Br	0.864326	-0.096367	0.755361
Br258	Br	1.364326	0.403633	1.255361
Br259	Br	0.909039	-0.350078	0.173439
Br260	Br	1.409039	0.149922	0.673439
Br261	Br	0.864321	-0.818494	0.143542
Br262	Br	1.364321	-0.318494	0.643542
Br263	Br	0.482870	-0.242253	0.190545
Br264	Br	0.982870	0.257747	0.690545
Br265	Br	0.909255	-0.123824	1.083004
Br266	Br	1.409255	0.376176	1.583004
Br267	Br	0.909316	-1.033053	0.173547
Br268	Br	1.409316	-0.533053	0.673547
H269	H	0.933613	-0.138770	0.985809
H270	H	1.433613	0.361230	1.485809
Br271	Br	0.767582	-0.127919	0.305249
Br272	Br	1.267582	0.372081	0.805249
H273	H	0.614580	-0.147671	0.285439
H274	H	1.114580	0.352329	0.785439
H275	H	0.933572	-0.138866	0.413413
H276	H	1.433572	0.361134	0.913413
Br277	Br	0.436114	-0.109721	0.323549
Br278	Br	0.936114	0.390279	0.823549
Br279	Br	0.909250	-0.922479	0.173539
Br280	Br	1.409250	-0.422479	0.673539
Br281	Br	1.120861	-0.253545	0.978188
Br282	Br	1.620861	0.246455	1.478188
H283	H	1.141354	-0.266139	0.860758
H284	H	1.641354	0.233861	1.360758
Br285	Br	0.767397	-0.263172	0.169520
Br286	Br	1.267397	0.236828	0.669520
Br287	Br	1.120817	-0.253629	0.405779
Br288	Br	1.620817	0.246371	0.905779
Br289	Br	0.864247	-0.677738	0.143520
Br290	Br	1.364247	-0.177738	0.643520
Br291	Br	1.165712	-0.699407	0.344852
Br292	Br	1.665712	-0.199407	0.844852
Br293	Br	0.909196	-0.123915	0.510590
Br294	Br	1.409196	0.376085	1.010590
H295	H	1.141368	-0.797945	0.328587
H296	H	1.641368	-0.297945	0.828587
H297	H	0.888657	-0.719966	0.159807
H298	H	1.388657	-0.219966	0.659807
Br299	Br	0.547730	-0.135354	0.297794
Br300	Br	1.047730	0.364646	0.797794
H301	H	1.096316	-0.357529	0.298519
H302	H	1.596316	0.142471	0.798519
H303	H	1.141340	-0.266172	0.720002
H304	H	1.641340	0.233828	1.220002
H305	H	1.141330	-0.266183	0.634893
H306	H	1.641330	0.233817	1.134893
Br307	Br	1.120917	-0.916496	0.314897
Br308	Br	1.620917	-0.416496	0.814897
H309	H	1.096459	-0.238681	0.502975
H310	H	1.596459	0.261319	1.002975
H311	H	1.141319	-0.657187	0.328566
H312	H	1.641319	-0.157187	0.828566
H313	H	0.888708	-0.111293	0.853877
H314	H	1.388708	0.388707	1.353877
Br315	Br	1.120951	-1.027089	0.314913
Br316	Br	1.620951	-0.527089	0.814913
Br317	Br	0.864203	-0.567163	0.143507
Br318	Br	1.364203	-0.067163	0.643507
Br319	Br	0.864317	-0.096389	0.614614
Br320	Br	1.364317	0.403611	1.114614
H321	H	0.416025	-0.229941	0.202903
H322	H	0.916025	0.270059	0.702903
H323	H	0.614424	-0.251773	0.180974
H324	H	1.114424	0.248227	0.680974
H325	H	0.888693	-0.111312	0.713117
H326	H	1.388693	0.388688	1.213117
