data_functionalizedCrystal
_audit_creation_method	'MofGen! by Chris Wilmer'
_symmetry_space_group_name_H-M	'P1'
_symmetry_Int_Tables_number	1
_symmetry_cell_setting	triclinic
loop_
_symmetry_equiv_pos_as_xyz
  x,y,z
_cell_length_a	18.050590
_cell_length_b	18.050590
_cell_length_c	12.759393
_cell_angle_alpha	89.964247
_cell_angle_beta	89.993989
_cell_angle_gamma	90.007719
loop_
_atom_site_label
_atom_site_type_symbol
_atom_site_fract_x
_atom_site_fract_y
_atom_site_fract_z
Zn1	Zn	1.135392	-0.295830	-0.593601
Zn2	Zn	1.135309	-0.420041	-0.417908
Zn3	Zn	1.011197	-0.295846	-0.417978
Zn4	Zn	1.011180	-0.419960	-0.593588
O5	O	1.073269	-0.357919	-0.505769
O6	O	1.239306	-0.312335	-0.570270
O7	O	1.118817	-0.403606	-0.270896
O8	O	1.027713	-0.191919	-0.441310
O9	O	1.239245	-0.403592	-0.441190
O10	O	1.118959	-0.191908	-0.570339
O11	O	1.027632	-0.312360	-0.270948
O12	O	0.907270	-0.312282	-0.441297
O13	O	1.027685	-0.403453	-0.740610
O14	O	0.907258	-0.403468	-0.570317
O15	O	1.118943	-0.312256	-0.740620
O16	O	1.118801	-0.523955	-0.441177
O17	O	1.027605	-0.523895	-0.570248
C18	C	0.880317	-0.357868	-0.505814
C19	C	0.797772	-0.357865	-0.505858
C20	C	1.073212	-0.550871	-0.505727
C21	C	1.073256	-0.633417	-0.505744
C22	C	0.598336	-0.407594	-0.575852
C23	C	0.548933	-0.339875	-0.601707
C24	C	0.646641	-0.357906	-0.505807
C25	C	0.548962	-0.425664	-0.479951
C26	C	0.500656	-0.357952	-0.505759
C27	C	0.598326	-0.290151	-0.531712
C28	C	0.598359	-0.375986	-0.409911
C29	C	0.548979	-0.308220	-0.435729
C30	C	0.730739	-0.357880	-0.505837
C31	C	0.416560	-0.357970	-0.505729
C32	C	1.122952	-0.832873	-0.435653
C33	C	1.141095	-0.882200	-0.531534
C34	C	1.073298	-0.784547	-0.505786
C35	C	1.055230	-0.882302	-0.409948
C36	C	1.073340	-0.930532	-0.505818
C37	C	1.091476	-0.832787	-0.601717
C38	C	1.005579	-0.832884	-0.480067
C39	C	1.023697	-0.882189	-0.576014
C40	C	1.073276	-0.700449	-0.505766
C41	C	1.073362	-1.014629	-0.505848
C42	C	1.266975	-0.357971	-0.505724
C43	C	1.349521	-0.357992	-0.505705
C44	C	1.073321	-0.357844	-0.779802
C45	C	1.073344	-0.357812	-0.896579
C46	C	1.073347	-0.164213	-0.505834
C47	C	1.073380	-0.081668	-0.505861
C48	C	1.120868	-0.310321	-0.951447
C49	C	1.120886	-0.310295	-1.061172
C50	C	1.025852	-0.405256	-1.061149
C51	C	1.025831	-0.405278	-0.951427
C52	C	1.168380	-0.262855	-0.896600
C53	C	1.215909	-0.215361	-0.951468
C54	C	1.215927	-0.215334	-1.061193
C55	C	1.168416	-0.262802	-1.116048
C56	C	1.073260	-0.357940	-0.232801
C57	C	1.073382	-0.357763	-0.116025
H58	H	0.620010	-0.449539	-0.635154
H59	H	0.527274	-0.482946	-0.458104
H60	H	1.168373	-0.262873	-0.807257
Cl61	Cl	1.115212	-0.799356	-0.726904
H62	H	0.981725	-0.903707	-0.635405
H63	H	1.254622	-0.176657	-1.105864
H64	H	1.168425	-0.262767	-1.205393
Cl65	Cl	0.966131	-0.464928	-1.130111
Cl66	Cl	1.187800	-0.799436	-0.344177
Cl67	Cl	0.631659	-0.201685	-0.565590
H68	H	0.527444	-0.266172	-0.376474
Cl69	Cl	1.229543	-0.915631	-0.565171
H70	H	0.948310	-0.811204	-0.458264
Cl71	Cl	0.631879	-0.399590	-0.284750
Cl72	Cl	1.031608	-0.915881	-0.284797
Cl73	Cl	0.966084	-0.464981	-0.882443
H74	H	1.254587	-0.176710	-0.906798
H75	H	0.527223	-0.324597	-0.682784
