data_functionalizedCrystal
_audit_creation_method	'MofGen! by Chris Wilmer'
_symmetry_space_group_name_H-M	'P1'
_symmetry_Int_Tables_number	1
_symmetry_cell_setting	triclinic
loop_
_symmetry_equiv_pos_as_xyz
  x,y,z
_cell_length_a	10.685980
_cell_length_b	16.625545
_cell_length_c	10.685880
_cell_angle_alpha	85.662549
_cell_angle_beta	80.918858
_cell_angle_gamma	85.609419
loop_
_atom_site_label
_atom_site_type_symbol
_atom_site_fract_x
_atom_site_fract_y
_atom_site_fract_z
Zn1	Zn	1.995671	0.265673	-0.866651
Zn2	Zn	2.329004	0.599006	-0.533317
Zn3	Zn	2.662337	0.932339	-0.199984
Zn4	Zn	1.979228	0.390940	-0.654384
Zn5	Zn	2.312562	0.724273	-0.321051
Zn6	Zn	2.645895	1.057607	0.012283
Zn7	Zn	1.767111	0.265715	-0.638123
Zn8	Zn	2.100444	0.599049	-0.304790
Zn9	Zn	2.433777	0.932382	0.028543
Zn10	Zn	1.783336	0.410063	-0.850286
Zn11	Zn	2.116669	0.743396	-0.516953
Zn12	Zn	2.450002	1.076730	-0.183619
O13	O	1.881336	0.333098	-0.752361
O14	O	2.214670	0.666431	-0.419028
O15	O	2.548003	0.999764	-0.085694
O16	O	2.171124	0.274269	-0.852147
O17	O	2.504458	0.607602	-0.518814
O18	O	2.837791	0.940935	-0.185480
O19	O	1.937419	0.366343	-0.474602
O20	O	2.270752	0.699677	-0.141269
O21	O	2.604086	1.033010	0.192065
O22	O	1.797521	0.152875	-0.668482
O23	O	2.130854	0.486208	-0.335148
O24	O	2.464187	0.819542	-0.001815
O25	O	2.159044	0.366302	-0.696196
O26	O	2.492377	0.699635	-0.362862
O27	O	2.825711	1.032969	-0.029529
O28	O	1.965443	0.152844	-0.836380
O29	O	2.298776	0.486177	-0.503046
O30	O	2.632109	0.819510	-0.169713
O31	O	1.781577	0.274342	-0.462655
O32	O	2.114910	0.607675	-0.129322
O33	O	2.448244	0.941008	0.204012
O34	O	1.591628	0.292884	-0.652613
O35	O	1.924962	0.626218	-0.319280
O36	O	2.258295	0.959551	0.014054
O37	O	1.825174	0.398894	-1.030082
O38	O	2.158507	0.732228	-0.696749
O39	O	2.491841	1.065561	-0.363415
O40	O	1.603549	0.398936	-0.808488
O41	O	1.936882	0.732269	-0.475155
O42	O	2.270215	1.065602	-0.141821
O43	O	1.981175	0.292812	-1.042105
O44	O	2.314509	0.626145	-0.708772
O45	O	2.647842	0.959478	-0.375438
O46	O	1.953152	0.506311	-0.680327
O47	O	2.286485	0.839645	-0.346994
O48	O	2.619818	1.172978	-0.013661
O49	O	1.809230	0.520361	-0.824255
O50	O	2.142564	0.853694	-0.490922
O51	O	2.475897	1.187028	-0.157589
C52	C	1.551530	0.347990	-0.727011
C53	C	1.884863	0.681324	-0.393678
C54	C	2.218196	1.014657	-0.060344
C55	C	1.410439	0.354382	-0.716196
C56	C	1.743773	0.687716	-0.382863
C57	C	2.077106	1.021049	-0.049530
C58	C	1.881204	0.542593	-0.752310
C59	C	2.214537	0.875926	-0.418977
C60	C	2.547871	1.209259	-0.085644
C61	C	1.881267	0.632212	-0.752340
C62	C	2.214600	0.965545	-0.419007
C63	C	2.547933	1.298879	-0.085673
C64	C	1.881486	0.960385	-0.752508
C65	C	2.214819	1.293718	-0.419174
C66	C	2.548152	1.627052	-0.085841
C67	C	1.881421	0.869078	-0.752464
C68	C	2.214754	1.202411	-0.419131
C69	C	2.548088	1.535744	-0.085798
C70	C	1.881375	0.796302	-0.752423
C71	C	2.214709	1.129635	-0.419090
C72	C	2.548042	1.462968	-0.085756
C73	C	1.881313	0.704988	-0.752381
C74	C	2.214646	1.038322	-0.419048
C75	C	2.547979	1.371655	-0.085715
C76	C	2.212431	0.318148	-0.777811
C77	C	2.545764	0.651481	-0.444477
C78	C	2.879097	0.984814	-0.111144
C79	C	2.353523	0.311777	-0.788656
C80	C	2.686857	0.645110	-0.455323
C81	C	3.020190	0.978443	-0.121989
C82	C	1.906819	0.347981	-1.083437
C83	C	2.240152	0.681315	-0.750104
C84	C	2.573485	1.014648	-0.416771
C85	C	1.917678	0.354324	-1.224523
C86	C	2.251011	0.687657	-0.891189
C87	C	2.584344	1.020990	-0.557856
C88	C	1.881496	1.122786	-0.752456
C89	C	2.214829	1.456119	-0.419123
C90	C	2.548163	1.789452	-0.085790
C91	C	1.881540	1.033166	-0.752533
C92	C	2.214873	1.366499	-0.419200
C93	C	2.548206	1.699833	-0.085866
C94	C	1.856026	0.318211	-0.422578
C95	C	2.189360	0.651544	-0.089245
C96	C	2.522693	0.984877	0.244089
C97	C	1.845413	0.311630	-0.281513
C98	C	2.178747	0.644963	0.051821
C99	C	2.512080	0.978297	0.385154
H100	H	1.351222	0.395751	-0.645876
H101	H	1.684555	0.729084	-0.312543
H102	H	2.017889	1.062418	0.020790
H103	H	1.412733	0.270405	-0.858963
H104	H	1.746067	0.603739	-0.525630
H105	H	2.079400	0.937072	-0.192297
H106	H	1.775227	0.270228	-1.222369
H107	H	2.108560	0.603561	-0.889036
H108	H	2.441894	0.936894	-0.555703
H109	H	1.987863	0.395732	-1.283672
H110	H	2.321197	0.729066	-0.950339
H111	H	2.654530	1.062399	-0.617006
