data_functionalizedCrystal
_audit_creation_method	'MofGen! by Chris Wilmer'
_symmetry_space_group_name_H-M	'P1'
_symmetry_Int_Tables_number	1
_symmetry_cell_setting	triclinic
loop_
_symmetry_equiv_pos_as_xyz
  x,y,z
_cell_length_a	10.723022
_cell_length_b	19.188924
_cell_length_c	9.198806
_cell_angle_alpha	89.994752
_cell_angle_beta	89.996352
_cell_angle_gamma	83.804595
loop_
_atom_site_label
_atom_site_type_symbol
_atom_site_fract_x
_atom_site_fract_y
_atom_site_fract_z
O1	O	1.655152	0.097917	-0.120890
O2	O	2.155152	0.597917	0.379110
O3	O	1.291804	0.107291	-0.120896
O4	O	1.791804	0.607291	0.379104
O5	O	1.483968	0.001016	-0.120876
O6	O	1.983968	0.501016	0.379124
O7	O	1.462988	0.204192	-0.120911
O8	O	1.962988	0.704192	0.379089
O9	O	1.483953	0.001016	0.120909
O10	O	1.983953	0.501016	0.620909
O11	O	1.291789	0.107291	0.120889
O12	O	1.791789	0.607291	0.620889
O13	O	1.655137	0.097917	0.120895
O14	O	2.155137	0.597917	0.620895
Cu15	Cu	1.473462	0.102604	0.142969
Cu16	Cu	1.973462	0.602604	0.642969
Cu17	Cu	1.473480	0.102604	-0.142970
Cu18	Cu	1.973480	0.602604	0.357030
O19	O	1.462973	0.204192	0.120874
O20	O	1.962973	0.704192	0.620874
C21	C	1.245311	0.106609	-0.000004
C22	C	1.745311	0.606609	0.499996
C23	C	1.106799	0.104569	-0.000006
C24	C	1.606799	0.604569	0.499994
C25	C	0.887428	0.161924	-0.000018
C26	C	1.387428	0.661924	0.499982
C27	C	1.030587	0.164035	-0.000017
C28	C	1.530587	0.664035	0.499983
C29	C	1.483283	-0.024999	0.000018
C30	C	1.983283	0.475001	0.500018
C31	C	1.481247	-0.102517	0.000022
C32	C	1.981247	0.397483	0.500022
C33	C	1.480306	-0.138922	-0.131776
C34	C	1.980306	0.361078	0.368224
C35	C	1.478376	-0.211757	-0.131787
C36	C	1.978376	0.288243	0.368213
C37	C	1.477413	-0.248187	0.000007
C38	C	1.977413	0.251813	0.500007
C39	C	1.478347	-0.211773	0.131822
C40	C	1.978347	0.288227	0.631822
C41	C	1.480265	-0.138938	0.131829
C42	C	1.980265	0.361062	0.631829
N43	N	1.545403	-0.367408	0.098099
N44	N	2.045403	0.132592	0.598099
N45	N	1.543585	-0.436599	0.098083
N46	N	2.043585	0.063401	0.598083
C47	C	1.471633	-0.467633	-0.000007
C48	C	1.971633	0.032367	0.499993
N49	N	1.401584	-0.426865	-0.098103
N50	N	1.901584	0.073135	0.401897
N51	N	1.403409	-0.357669	-0.098091
N52	N	1.903409	0.142331	0.401909
C53	C	1.475333	-0.327164	0.000014
C54	C	1.975333	0.172836	0.500014
C55	C	1.468597	-0.583014	-0.131825
C56	C	1.968597	-0.083014	0.368175
C57	C	1.466659	-0.655851	-0.131831
C58	C	1.966659	-0.155851	0.368169
C59	C	1.466643	-0.655865	0.131781
C60	C	1.966643	-0.155865	0.631781
C61	C	1.468568	-0.583030	0.131783
C62	C	1.968568	-0.083030	0.631783
C63	C	1.469551	-0.546609	-0.000024
C64	C	1.969551	-0.046609	0.499976
C65	C	1.701630	0.098599	-0.000001
C66	C	2.201630	0.598599	0.499999
C67	C	1.840142	0.100639	-0.000009
C68	C	2.340142	0.600639	0.499991
C69	C	1.463659	0.230207	-0.000023
C70	C	1.963659	0.730207	0.499977
C71	C	1.465694	0.307725	-0.000036
C72	C	1.965694	0.807725	0.499964
N73	N	1.473458	0.102603	0.344083
N74	N	1.973458	0.602603	0.844083
N75	N	1.473493	0.102599	-0.344084
N76	N	1.973493	0.602599	0.155916
C77	C	1.554146	0.057785	0.416288
C78	C	2.054146	0.557785	0.916288
C79	C	1.554166	0.057782	0.583700
C80	C	2.054166	0.557782	1.083700
H81	H	1.066088	0.052094	-0.000036
H82	H	1.566088	0.552094	0.499964
H83	H	0.905643	0.049733	-0.000008
H84	H	1.405643	0.549733	0.499992
Cl85	Cl	1.481532	-0.093140	-0.297476
Cl86	Cl	1.981532	0.406860	0.202524
H87	H	1.404413	0.140975	0.593832
H88	H	1.904413	0.640975	1.093832
H89	H	1.623251	0.019414	0.645794
H90	H	2.123251	0.519414	1.145794
H91	H	1.469390	-0.553359	-0.239151
H92	H	1.969390	-0.053359	0.260849
H93	H	1.481026	-0.109297	0.239158
H94	H	1.981026	0.390703	0.739158
H95	H	1.469345	-0.553389	0.239107
H96	H	1.969345	-0.053389	0.739107
H97	H	0.821927	0.212830	-0.000036
H98	H	1.321927	0.712830	0.499964
Cl99	Cl	1.366814	0.161842	0.439982
Cl100	Cl	1.866814	0.661842	0.939982
H101	H	1.623209	0.019412	0.354169
H102	H	2.123209	0.519412	0.854169
H103	H	1.071307	0.216506	-0.000017
H104	H	1.571307	0.716506	0.499983
H105	H	1.465886	-0.685490	-0.239161
H106	H	1.965886	-0.185490	0.260839
H107	H	1.465849	-0.685524	0.239090
H108	H	1.965849	-0.185524	0.739090
H109	H	1.477601	-0.241404	-0.239115
H110	H	1.977601	0.258596	0.260885
H111	H	1.477559	-0.241438	0.239129
H112	H	1.977559	0.258562	0.739129
