data_functionalizedCrystal
_audit_creation_method	'MofGen! by Chris Wilmer'
_symmetry_space_group_name_H-M	'P1'
_symmetry_Int_Tables_number	1
_symmetry_cell_setting	triclinic
loop_
_symmetry_equiv_pos_as_xyz
  x,y,z
_cell_length_a	16.109301
_cell_length_b	14.853567
_cell_length_c	15.186229
_cell_angle_alpha	90.000050
_cell_angle_beta	89.999362
_cell_angle_gamma	83.548205
loop_
_atom_site_label
_atom_site_type_symbol
_atom_site_fract_x
_atom_site_fract_y
_atom_site_fract_z
O1	O	1.103293	0.115881	-0.073165
O2	O	1.603293	0.615881	0.426835
O3	O	0.861252	0.130302	-0.073178
O4	O	1.361252	0.630302	0.426822
O5	O	0.988738	-0.008149	-0.073174
O6	O	1.488738	0.491851	0.426826
O7	O	0.975807	0.254332	-0.073170
O8	O	1.475807	0.754332	0.426830
O9	O	0.988729	-0.008151	0.073283
O10	O	1.488729	0.491849	0.573283
O11	O	0.861243	0.130300	0.073279
O12	O	1.361243	0.630300	0.573279
O13	O	1.103285	0.115879	0.073292
O14	O	1.603285	0.615879	0.573292
Zn15	Zn	0.982263	0.123089	0.096539
Zn16	Zn	1.482263	0.623089	0.596539
Zn17	Zn	0.982274	0.123092	-0.096425
Zn18	Zn	1.482274	0.623092	0.403575
O19	O	0.975799	0.254330	0.073288
O20	O	1.475799	0.754330	0.573288
C21	C	0.830272	0.129717	0.000048
C22	C	1.330272	0.629717	0.500048
C23	C	0.737974	0.127965	0.000043
C24	C	1.237974	0.627965	0.500043
C25	C	0.515811	0.206047	0.000055
C26	C	1.015811	0.706047	0.500055
C27	C	0.429089	0.204395	0.000060
C28	C	0.929089	0.704395	0.500060
C29	C	0.448732	0.040127	0.000054
C30	C	0.948732	0.540127	0.500054
C31	C	0.535453	0.041781	0.000054
C32	C	1.035453	0.541781	0.500054
C33	C	0.568990	0.124743	0.000050
C34	C	1.068990	0.624743	0.500050
C35	C	0.395546	0.121437	0.000055
C36	C	0.895546	0.621437	0.500055
C37	C	0.301518	0.119645	0.000061
C38	C	0.801518	0.619645	0.500061
C39	C	0.663025	0.126536	0.000046
C40	C	1.163025	0.626536	0.500046
C41	C	0.988148	-0.041738	0.000052
C42	C	1.488148	0.458262	0.500052
C43	C	0.986392	-0.141819	0.000044
C44	C	1.486392	0.358181	0.500044
C45	C	0.903241	-0.554215	0.000056
C46	C	1.403241	-0.054215	0.500056
C47	C	1.054697	-0.575746	0.000064
C48	C	1.554697	-0.075746	0.500064
C49	C	1.056348	-0.481715	0.000059
C50	C	1.556348	0.018285	0.500059
C51	C	0.981444	-0.423930	0.000054
C52	C	1.481444	0.076070	0.500054
C53	C	0.904889	-0.460175	0.000054
C54	C	1.404889	0.039825	0.500054
C55	C	1.132901	-0.445463	0.000068
C56	C	1.632901	0.054537	0.500068
C57	C	1.134555	-0.351426	0.000064
C58	C	1.634555	0.148574	0.500064
C59	C	1.059650	-0.293639	0.000053
C60	C	1.559650	0.206361	0.500053
C61	C	0.983093	-0.329890	0.000052
C62	C	1.483093	0.170110	0.500052
C63	C	0.908189	-0.272104	0.000046
C64	C	1.408189	0.227896	0.500046
C65	C	0.831630	-0.308353	0.000039
C66	C	1.331630	0.191647	0.500039
C67	C	0.829984	-0.402388	0.000042
C68	C	1.329984	0.097612	0.500042
C69	C	1.061296	-0.199604	0.000049
C70	C	1.561296	0.300396	0.500049
C71	C	0.909837	-0.178064	0.000044
C72	C	1.409837	0.321936	0.500044
C73	C	1.134265	0.116464	0.000063
C74	C	1.634265	0.616464	0.500063
C75	C	1.226563	0.118215	0.000063
C76	C	1.726563	0.618215	0.500063
C77	C	0.976389	0.287918	0.000060
C78	C	1.476389	0.787918	0.500060
C79	C	0.978145	0.387999	0.000062
C80	C	1.478145	0.887999	0.500062
N81	N	0.982261	0.123087	0.228231
N82	N	1.482261	0.623087	0.728231
N83	N	0.982282	0.123087	-0.228118
N84	N	1.482282	0.623087	0.271882
C85	C	1.038731	0.061801	0.453956
C86	C	1.538731	0.561801	0.953956
C87	C	1.038734	0.061799	0.546146
C88	C	1.538734	0.561799	1.046146
C89	C	0.925806	0.184375	0.546151
C90	C	1.425806	0.684375	1.046151
C91	C	0.925800	0.184372	0.453963
C92	C	1.425800	0.684372	0.953963
C93	C	0.982267	0.123086	0.407868
C94	C	1.482267	0.623086	0.907868
C95	C	0.982276	0.123087	0.592246
C96	C	1.482276	0.623087	1.092246
C97	C	0.982278	0.123085	0.692202
C98	C	1.482278	0.623085	1.192202
C99	C	0.982264	0.123087	0.307905
C100	C	1.482264	0.623087	0.807905
H101	H	0.421415	-0.027418	0.000062
H102	H	0.921415	0.472582	0.500062
C103	C	0.812672	0.203904	0.350297
C104	C	1.312672	0.703904	0.850297
C105	C	0.863732	0.251744	0.403295
C106	C	1.363732	0.751744	0.903295
H107	H	0.774352	0.245495	0.319021
H108	H	1.274352	0.745495	0.819021
H109	H	0.846297	0.167409	0.309658
H110	H	1.346297	0.667409	0.809658
H111	H	0.782726	0.166375	0.386275
H112	H	1.282726	0.666375	0.886275
H113	H	0.893683	0.289268	0.367317
H114	H	1.393683	0.789268	0.867317
H115	H	0.830103	0.288255	0.443939
H116	H	1.330103	0.788255	0.943939
H117	H	1.084709	0.011897	0.416427
H118	H	1.584709	0.511897	0.916427
H119	H	0.543114	0.273601	0.000058
H120	H	1.043114	0.773601	0.500058
C121	C	1.151857	0.042273	0.649814
C122	C	1.651857	0.542273	1.149814
C123	C	1.100801	-0.005565	0.596808
C124	C	1.600801	0.494435	1.096808
H125	H	1.190172	0.000680	0.681094
H126	H	1.690172	0.500680	1.181094
H127	H	1.181801	0.079802	0.613849
H128	H	1.681801	0.579802	1.113849
H129	H	1.118222	0.078768	0.690459
H130	H	1.618222	0.578768	1.190459
H131	H	1.134436	-0.042055	0.556160
H132	H	1.634436	0.457945	1.056160
H133	H	1.070855	-0.043110	0.632777
H134	H	1.570855	0.456890	1.132777
H135	H	0.385793	0.270600	0.000066
H136	H	0.885793	0.770600	0.500066
C137	C	0.703035	-0.261031	0.075318
C138	C	1.203035	0.238969	0.575318
C139	C	0.749297	-0.244828	0.000034
C140	C	1.249297	0.255172	0.500034
H141	H	0.652211	-0.221807	0.075316
H142	H	1.152211	0.278193	0.575316
H143	H	0.691092	-0.322213	0.075307
H144	H	1.191092	0.177787	0.575307
H145	H	0.734427	-0.250047	0.126388
H146	H	1.234427	0.249953	0.626388
H147	H	0.717908	-0.255819	-0.051036
H148	H	1.217908	0.244181	0.448964
H149	H	0.761238	-0.183633	0.000037
H150	H	1.261238	0.316367	0.500037
C151	C	0.781944	0.237264	0.574555
C152	C	1.281944	0.737264	1.074555
C153	C	0.863743	0.251739	0.596826
C154	C	1.363743	0.751739	1.096826
H155	H	0.743630	0.278849	0.605844
H156	H	1.243630	0.778849	1.105844
H157	H	0.773863	0.246038	0.513064
H158	H	1.273863	0.746038	1.013064
H159	H	0.772862	0.177088	0.589670
H160	H	1.272862	0.677088	1.089670
H161	H	0.872827	0.311913	0.581705
H162	H	1.372827	0.811913	1.081705
H163	H	0.871827	0.242972	0.658331
H164	H	1.371827	0.742972	1.158331
H165	H	0.848840	-0.131020	0.000036
H166	H	1.348840	0.368980	0.500036
C167	C	0.546167	-0.120764	0.000038
C168	C	1.046167	0.379236	0.500038
C169	C	0.593915	-0.047596	0.000046
C170	C	1.093915	0.452404	0.500046
H171	H	0.582261	-0.175937	0.000029
H172	H	1.082261	0.324063	0.500029
H173	H	0.511936	-0.117998	0.051107
H174	H	1.011936	0.382002	0.551107
H175	H	0.511933	-0.117985	-0.051039
H176	H	1.011933	0.382015	0.448961
H177	H	0.628145	-0.050371	0.051126
H178	H	1.128145	0.449629	0.551126
H179	H	0.628161	-0.050363	-0.051029
H180	H	1.128161	0.449637	0.448971
H181	H	0.840908	-0.583733	0.000047
H182	H	1.340908	-0.083733	0.500047
C183	C	0.740274	-0.495662	-0.075237
C184	C	1.240274	0.004338	0.424763
C185	C	0.745839	-0.442239	0.000044
C186	C	1.245839	0.057761	0.500044
H187	H	0.688329	-0.520271	-0.075229
H188	H	1.188329	-0.020271	0.424771
H189	H	0.744057	-0.459428	-0.126304
H190	H	1.244057	0.040572	0.373696
H191	H	0.784656	-0.543526	-0.075223
H192	H	1.284656	-0.043526	0.424777
H193	H	0.701460	-0.394371	0.000027
H194	H	1.201460	0.105629	0.500027
H195	H	0.742047	-0.478474	0.051124
H196	H	1.242047	0.021526	0.551124
C197	C	1.119415	-0.729454	0.000076
C198	C	1.619415	-0.229454	0.500076
C199	C	1.137028	-0.639262	0.000072
C200	C	1.637028	-0.139262	0.500072
H201	H	1.170246	-0.768666	0.000075
H202	H	1.670246	-0.268666	0.500075
H203	H	1.088033	-0.740430	0.051146
H204	H	1.588033	-0.240430	0.551146
H205	H	1.088030	-0.740434	-0.051000
H206	H	1.588030	-0.240434	0.449000
H207	H	1.168408	-0.628279	0.051152
H208	H	1.668408	-0.128279	0.551152
H209	H	1.168424	-0.628281	-0.051003
H210	H	1.668424	-0.128281	0.448997
C211	C	1.261492	-0.492773	-0.075208
C212	C	1.761492	0.007227	0.424792
C213	C	1.215231	-0.508981	0.000074
C214	C	1.715231	-0.008981	0.500074
H215	H	1.312322	-0.531988	-0.075202
H216	H	1.812322	-0.031988	0.424798
H217	H	1.230109	-0.503759	-0.126274
H218	H	1.730109	-0.003759	0.373726
H219	H	1.273430	-0.431581	-0.075195
H220	H	1.773430	0.068419	0.424805
H221	H	1.203287	-0.570171	0.000057
H222	H	1.703287	-0.070171	0.500057
H223	H	1.246620	-0.498002	0.051153
H224	H	1.746620	0.001998	0.551153
H225	H	1.196894	-0.321921	0.000069
H226	H	1.696894	0.178079	0.500069
H227	H	1.123629	-0.170094	0.000061
H228	H	1.623629	0.329906	0.500061
