data_functionalizedCrystal
_audit_creation_method	'MofGen! by Chris Wilmer'
_symmetry_space_group_name_H-M	'P1'
_symmetry_Int_Tables_number	1
_symmetry_cell_setting	triclinic
loop_
_symmetry_equiv_pos_as_xyz
  x,y,z
_cell_length_a	21.295418
_cell_length_b	25.639240
_cell_length_c	21.295411
_cell_angle_alpha	90.026709
_cell_angle_beta	90.043738
_cell_angle_gamma	90.048568
loop_
_atom_site_label
_atom_site_type_symbol
_atom_site_fract_x
_atom_site_fract_y
_atom_site_fract_z
Zn1	Zn	0.962346	-0.207990	0.356211
Zn2	Zn	1.295679	0.125344	0.689545
Zn3	Zn	1.629013	0.458677	1.022878
Zn4	Zn	0.962244	-0.295410	0.250928
Zn5	Zn	1.295578	0.037924	0.584261
Zn6	Zn	1.628911	0.371257	0.917594
Zn7	Zn	0.857069	-0.208014	0.250921
Zn8	Zn	1.190402	0.125319	0.584255
Zn9	Zn	1.523736	0.458652	0.917588
Zn10	Zn	0.857034	-0.295420	0.356124
Zn11	Zn	1.190368	0.037913	0.689457
Zn12	Zn	1.523701	0.371247	1.022791
O13	O	0.909673	-0.251708	0.303546
O14	O	1.243007	0.081625	0.636879
O15	O	1.576340	0.414958	0.970213
O16	O	1.050422	-0.219572	0.342285
O17	O	1.383755	0.113762	0.675618
O18	O	1.717089	0.447095	1.008951
O19	O	0.948264	-0.283822	0.162837
O20	O	1.281598	0.049511	0.496171
O21	O	1.614931	0.382844	0.829504
O22	O	0.871091	-0.134846	0.264922
O23	O	1.204425	0.198488	0.598256
O24	O	1.537758	0.531821	0.931589
O25	O	1.050347	-0.283799	0.264933
O26	O	1.383680	0.049535	0.598266
O27	O	1.717014	0.382868	0.931600
O28	O	0.948438	-0.134828	0.342278
O29	O	1.281771	0.198506	0.675612
O30	O	1.615105	0.531839	1.008945
O31	O	0.870993	-0.219613	0.162833
O32	O	1.204326	0.113720	0.496166
O33	O	1.537659	0.447053	0.829499
O34	O	0.768975	-0.219623	0.264837
O35	O	1.102308	0.113710	0.598171
O36	O	1.435642	0.447043	0.931504
O37	O	0.871032	-0.283816	0.444225
O38	O	1.204366	0.049517	0.777558
O39	O	1.537699	0.382850	1.110892
O40	O	0.768950	-0.283840	0.342129
O41	O	1.102283	0.049493	0.675463
O42	O	1.435616	0.382827	1.008796
O43	O	0.948404	-0.219582	0.444289
O44	O	1.281738	0.113752	0.777623
O45	O	1.615071	0.447085	1.110956
O46	O	0.948231	-0.368576	0.264848
O47	O	1.281564	-0.035243	0.598181
O48	O	1.614897	0.298090	0.931515
O49	O	0.870934	-0.368584	0.342136
O50	O	1.204267	-0.035251	0.675469
O51	O	1.537600	0.298083	1.008802
C52	C	0.746122	-0.251736	0.303474
C53	C	1.079455	0.081597	0.636807
C54	C	1.412788	0.414931	0.970140
C55	C	0.676154	-0.251760	0.303458
C56	C	1.009487	0.081573	0.636791
C57	C	1.342820	0.414906	0.970124
C58	C	0.909584	-0.387551	0.303497
C59	C	1.242918	-0.054218	0.636830
C60	C	1.576251	0.279116	0.970163
C61	C	0.909604	-0.445665	0.303497
C62	C	1.242937	-0.112332	0.636830
C63	C	1.576271	0.221002	0.970163
C64	C	0.643290	-0.285242	0.343643
C65	C	0.976623	0.048091	0.676977
C66	C	1.309957	0.381425	1.010310
C67	C	0.577548	-0.285229	0.343672
C68	C	0.910881	0.048104	0.677005
C69	C	1.244214	0.381437	1.010338
C70	C	0.544671	-0.251740	0.303503
C71	C	0.878004	0.081593	0.636836
C72	C	1.211338	0.414927	0.970169
C73	C	0.577543	-0.218252	0.263314
C74	C	0.910876	0.115082	0.596648
C75	C	1.244209	0.448415	0.929981
C76	C	0.643284	-0.218262	0.263292
C77	C	0.976617	0.115072	0.596625
C78	C	1.309950	0.448405	0.929958
N79	N	0.441395	-0.247648	0.248446
N80	N	0.774729	0.085686	0.581779
N81	N	1.108062	0.419019	0.915112
N82	N	0.378944	-0.247641	0.248469
N83	N	0.712277	0.085692	0.581802
N84	N	1.045611	0.419026	0.915136
C85	C	0.346596	-0.251707	0.303570
C86	C	0.679930	0.081627	0.636903
C87	C	1.013263	0.414960	0.970236
N88	N	0.379060	-0.255789	0.358647
N89	N	0.712393	0.077544	0.691981
N90	N	1.045726	0.410877	1.025314
N91	N	0.441517	-0.255798	0.358623
N92	N	0.774850	0.077535	0.691957
N93	N	1.108184	0.410868	1.025290
C94	C	0.473386	-0.251725	0.303523
C95	C	0.806719	0.081608	0.636857
C96	C	1.140052	0.414942	0.970190
C97	C	0.242448	-0.285176	0.343789
C98	C	0.575781	0.048157	0.677123
C99	C	0.909114	0.381490	1.010456
C100	C	0.176704	-0.285160	0.343819
C101	C	0.510037	0.048174	0.677152
C102	C	0.843370	0.381507	1.010485
C103	C	0.176700	-0.218185	0.263456
C104	C	0.510033	0.115148	0.596789
C105	C	0.843367	0.448482	0.930122
C106	C	0.242442	-0.218199	0.263432
C107	C	0.575776	0.115135	0.596765
C108	C	0.909109	0.448468	0.930099
C109	C	0.275312	-0.251697	0.303598
C110	C	0.608646	0.081636	0.636931
C111	C	0.941979	0.414969	0.970265
C112	C	0.949968	-0.805980	0.343898
C113	C	1.283301	-0.472647	0.677231
C114	C	1.616634	-0.139314	1.010565
C115	C	0.949986	-0.860584	0.343911
C116	C	1.283320	-0.527251	0.677244
C117	C	1.616653	-0.193918	1.010578
O118	O	0.984199	-0.888781	0.378211
O119	O	1.317532	-0.555447	0.711544
O120	O	1.650866	-0.222114	1.044878
N121	N	0.909761	-0.887947	0.303607
N122	N	1.243094	-0.554614	0.636940
N123	N	1.576427	-0.221281	0.970274
C124	C	0.869510	-0.860703	0.263292
C125	C	1.202843	-0.527370	0.596625
C126	C	1.536176	-0.194037	0.929959
O127	O	0.835296	-0.888991	0.229012
O128	O	1.168629	-0.555658	0.562345
O129	O	1.501963	-0.222325	0.895679
C130	C	0.869488	-0.806100	0.263283
C131	C	1.202822	-0.472767	0.596616
C132	C	1.536155	-0.139433	0.929950
C133	C	0.909721	-0.778740	0.303585
C134	C	1.243054	-0.445406	0.636918
C135	C	1.576388	-0.112073	0.970252
C136	C	0.990197	-0.778620	0.384197
C137	C	1.323530	-0.445287	0.717531
C138	C	1.656863	-0.111953	1.050864
C139	C	0.990179	-0.724019	0.384184
C140	C	1.323512	-0.390686	0.717517
C141	C	1.656845	-0.057353	1.050850
C142	C	0.949932	-0.696779	0.343871
C143	C	1.283265	-0.363446	0.677204
C144	C	1.616599	-0.030112	1.010537
C145	C	0.909703	-0.724139	0.303571
C146	C	1.243036	-0.390806	0.636905
C147	C	1.576370	-0.057473	0.970238
C148	C	0.829234	-0.778857	0.222972
C149	C	1.162568	-0.445523	0.556305
C150	C	1.495901	-0.112190	0.889638
C151	C	0.829216	-0.724250	0.222966
C152	C	1.162550	-0.390916	0.556300
C153	C	1.495883	-0.057583	0.889633
C154	C	0.869449	-0.696890	0.263268
C155	C	1.202782	-0.363556	0.596602
C156	C	1.536116	-0.030223	0.929935
C157	C	0.869438	-0.642298	0.263244
C158	C	1.202772	-0.308965	0.596578
C159	C	1.536105	0.024368	0.929911
N160	N	0.909664	-0.614935	0.303548
N161	N	1.242997	-0.281602	0.636882
N162	N	1.576331	0.051731	0.970215
C163	C	0.949911	-0.642176	0.343861
C164	C	1.283244	-0.308842	0.677195
C165	C	1.616577	0.024491	1.010528
C166	C	0.869557	-0.975374	0.263315
C167	C	1.202890	-0.642040	0.596648
C168	C	1.536223	-0.308707	0.929982
C169	C	0.869581	-1.029976	0.263321
C170	C	1.202914	-0.696643	0.596654
C171	C	1.536247	-0.363309	0.929987
C172	C	0.950057	-1.029854	0.343941
C173	C	1.283390	-0.696520	0.677274
C174	C	1.616723	-0.363187	1.010607
C175	C	0.950035	-0.975250	0.343931
C176	C	1.283369	-0.641917	0.677265
C177	C	1.616702	-0.308584	1.010598
C178	C	0.909782	-0.948011	0.303619
C179	C	1.243115	-0.614678	0.636952
C180	C	1.576449	-0.281344	0.970286
C181	C	0.949870	-0.527511	0.343829
C182	C	1.283204	-0.194177	0.677162
C183	C	1.616537	0.139156	1.010496
C184	C	0.949851	-0.472905	0.343810
C185	C	1.283184	-0.139572	0.677143
C186	C	1.616517	0.193761	1.010476
C187	C	0.869373	-0.473033	0.263193
C188	C	1.202706	-0.139699	0.596526
C189	C	1.536039	0.193634	0.929859
C190	C	0.869394	-0.527633	0.263209
C191	C	1.202728	-0.194300	0.596542
C192	C	1.536061	0.139033	0.929876
C193	C	0.909645	-0.554871	0.303532
C194	C	1.242979	-0.221538	0.636866
C195	C	1.576312	0.111796	0.970199
O196	O	0.835241	-0.614068	0.228964
O197	O	1.168574	-0.280734	0.562297
O198	O	1.501908	0.052599	0.895630
O199	O	0.984113	-0.613881	0.378142
O200	O	1.317446	-0.280548	0.711475
O201	O	1.650779	0.052786	1.044808
C202	C	1.073864	-0.251681	0.303619
C203	C	1.407197	0.081652	0.636953
C204	C	1.740530	0.414985	0.970286
C205	C	1.143832	-0.251670	0.303650
C206	C	1.477165	0.081664	0.636984
C207	C	1.810499	0.414997	0.970317
C208	C	0.909726	-0.251697	0.467736
C209	C	1.243059	0.081636	0.801070
C210	C	1.576392	0.414969	1.134403
C211	C	0.909748	-0.251693	0.537705
C212	C	1.243081	0.081641	0.871038
C213	C	1.576415	0.414974	1.204371
C214	C	0.909780	-0.115335	0.303609
C215	C	1.243113	0.217998	0.636943
C216	C	1.576447	0.551331	0.970276
C217	C	0.909825	-0.057221	0.303636
C218	C	1.243159	0.276112	0.636970
C219	C	1.576492	0.609445	0.970303
C220	C	0.909658	-0.251682	0.139995
C221	C	1.242991	0.081652	0.473328
C222	C	1.576324	0.414985	0.806661
C223	C	0.909757	-0.251539	0.070027
C224	C	1.243091	0.081794	0.403360
C225	C	1.576424	0.415128	0.736693
C226	C	0.950034	-0.218244	0.570606
C227	C	1.283367	0.115089	0.903939
C228	C	1.616700	0.448423	1.237272
C229	C	0.950033	-0.218221	0.636348
C230	C	1.283366	0.115112	0.969682
C231	C	1.616700	0.448445	1.303015
C232	C	0.909753	-0.251657	0.669187
C233	C	1.243086	0.081677	1.002520
C234	C	1.576419	0.415010	1.335854
C235	C	0.869459	-0.285108	0.636278
C236	C	1.202792	0.048226	0.969611
C237	C	1.536126	0.381559	1.302945
C238	C	0.869457	-0.285126	0.570537
C239	C	1.202790	0.048208	0.903870
C240	C	1.536123	0.381541	1.237203
N241	N	0.904894	-0.297396	0.772396
N242	N	1.238227	0.035937	1.105729
N243	N	1.571561	0.369271	1.439063
N244	N	0.904900	-0.297377	0.834848
N245	N	1.238233	0.035956	1.168181
N246	N	1.571567	0.369289	1.501514
C247	C	0.909757	-0.251604	0.867262
C248	C	1.243090	0.081730	1.200595
C249	C	1.576423	0.415063	1.533929
N250	N	0.914620	-0.205848	0.834866
N251	N	1.247953	0.127485	1.168199
N252	N	1.581286	0.460818	1.501532
N253	N	0.914617	-0.205867	0.772408
N254	N	1.247950	0.127466	1.105742
N255	N	1.581284	0.460799	1.439075
C256	C	0.909751	-0.251641	0.740473
C257	C	1.243084	0.081693	1.073806
C258	C	1.576417	0.415026	1.407139
C259	C	0.950044	-0.218128	0.971449
C260	C	1.283377	0.115206	1.304782
C261	C	1.616711	0.448539	1.638115
C262	C	0.950039	-0.218104	1.037192
C263	C	1.283372	0.115229	1.370526
C264	C	1.616705	0.448563	1.703859
C265	C	0.869468	-0.284995	1.037121
C266	C	1.202801	0.048338	1.370454
C267	C	1.536135	0.381672	1.703788
C268	C	0.869470	-0.285014	0.971379
C269	C	1.202803	0.048320	1.304712
C270	C	1.536137	0.381653	1.638045
C271	C	0.909761	-0.251581	0.938546
C272	C	1.243095	0.081752	1.271880
C273	C	1.576428	0.415086	1.605213
H274	H	0.670049	-0.312519	0.376350
H275	H	1.003382	0.020815	0.709684
H276	H	1.336715	0.354148	1.043017
C277	C	0.994106	-0.442810	0.388144
C278	C	1.327439	-0.109476	0.721477
C279	C	1.660773	0.223857	1.054811
H280	H	0.988338	-0.406388	0.382361
H281	H	1.321671	-0.073055	0.715694
H282	H	1.655005	0.260279	1.049028
H283	H	0.984876	-0.451745	0.430429
H284	H	1.318209	-0.118411	0.763762
H285	H	1.651542	0.214922	1.097096
H286	H	1.036410	-0.451726	0.378982
H287	H	1.369744	-0.118393	0.712315
H288	H	1.703077	0.214941	1.045648
C289	C	0.825149	-0.321928	0.534344
C290	C	1.158483	0.011406	0.867677
C291	C	1.491816	0.344739	1.201011
H292	H	0.801162	-0.341841	0.563315
H293	H	1.134495	-0.008508	0.896648
H294	H	1.467829	0.324825	1.229982
H295	H	0.797737	-0.301944	0.508676
H296	H	1.131070	0.031389	0.842009
H297	H	1.464403	0.364722	1.175342
H298	H	0.849221	-0.344713	0.508719
H299	H	1.182555	-0.011380	0.842052
H300	H	1.515888	0.321954	1.175385
H301	H	1.022938	-0.701746	0.417003
H302	H	1.356271	-0.368413	0.750336
H303	H	1.689604	-0.035079	1.083670
H304	H	0.836779	-0.953198	0.230483
H305	H	1.170113	-0.619865	0.563816
H306	H	1.503446	-0.286531	0.897149
H307	H	0.550770	-0.190983	0.230610
H308	H	0.884104	0.142350	0.563943
H309	H	1.217437	0.475683	0.897276
C310	C	0.541390	-0.322030	0.387914
C311	C	0.874724	0.011303	0.721247
C312	C	1.208057	0.344636	1.054581
H313	H	0.570382	-0.341974	0.411841
H314	H	0.903715	-0.008641	0.745174
H315	H	1.237049	0.324693	1.078508
H316	H	0.515818	-0.302032	0.415385
H317	H	0.849151	0.031302	0.748718
H318	H	1.182485	0.364635	1.082051
H319	H	0.515671	-0.344788	0.363817
H320	H	0.849005	-0.011455	0.697151
H321	H	1.182338	0.321878	1.030484
H322	H	0.836639	-0.549911	0.230387
H323	H	1.169972	-0.216578	0.563720
H324	H	1.503305	0.116756	0.897054
C325	C	1.034476	-0.808576	0.428542
C326	C	1.367809	-0.475243	0.761875
C327	C	1.701142	-0.141910	1.095209
H328	H	1.058431	-0.784454	0.452534
H329	H	1.391764	-0.451120	0.785867
H330	H	1.725098	-0.117787	1.119201
H331	H	1.010400	-0.829889	0.455949
H332	H	1.343734	-0.496556	0.789282
H333	H	1.677067	-0.163222	1.122615
H334	H	1.061929	-0.829859	0.404495
H335	H	1.395262	-0.496525	0.737828
H336	H	1.728595	-0.163192	1.071162
H337	H	0.670041	-0.190995	0.230567
H338	H	1.003374	0.142338	0.563901
H339	H	1.336708	0.475672	0.897234
C340	C	0.994351	-0.181345	0.935331
C341	C	1.327684	0.151988	1.268664
C342	C	1.661017	0.485321	1.601997
H343	H	1.018336	-0.161414	0.964344
H344	H	1.351669	0.171920	1.297677
H345	H	1.685003	0.505253	1.631010
H346	H	1.021765	-0.201344	0.909700
H347	H	1.355098	0.131990	1.243034
H348	H	1.688432	0.465323	1.576367
H349	H	0.970279	-0.158576	0.909673
H350	H	1.303612	0.174757	1.243006
H351	H	1.636946	0.508091	1.576340
C352	C	0.140544	-0.181341	0.219279
C353	C	0.473877	0.151993	0.552612
C354	C	0.807211	0.485326	0.885945
H355	H	0.096683	-0.186129	0.225047
H356	H	0.430017	0.147204	0.558380
H357	H	0.763350	0.480537	0.891714
H358	H	0.151377	-0.146226	0.228575
H359	H	0.484710	0.187107	0.561908
H360	H	0.818044	0.520440	0.895242
H361	H	0.151257	-0.188941	0.176957
H362	H	0.484590	0.144393	0.510290
H363	H	0.817923	0.477726	0.843624
C364	C	0.278607	-0.322017	0.387976
C365	C	0.611940	0.011317	0.721309
C366	C	0.945274	0.344650	1.054642
H367	H	0.249616	-0.341950	0.411921
H368	H	0.582950	-0.008617	0.745254
H369	H	0.916283	0.324716	1.078588
H370	H	0.304197	-0.344774	0.363835
H371	H	0.637530	-0.011440	0.697169
H372	H	0.970863	0.321893	1.030502
H373	H	0.304308	-0.302050	0.415442
H374	H	0.637642	0.031284	0.748775
H375	H	0.970975	0.364617	1.082108
H376	H	0.836606	-0.450845	0.230368
H377	H	1.169939	-0.117512	0.563701
H378	H	1.503273	0.215822	0.897035
H379	H	0.269200	-0.190937	0.230705
H380	H	0.602534	0.142397	0.564039
H381	H	0.935867	0.475730	0.897372
C382	C	0.994347	-0.181465	0.534494
C383	C	1.327680	0.151868	0.867827
C384	C	1.661014	0.485201	1.201160
H385	H	1.018336	-0.161538	0.563508
H386	H	1.351670	0.171795	0.896841
H387	H	1.685003	0.505128	1.230175
H388	H	1.021758	-0.201467	0.508863
H389	H	1.355091	0.131866	0.842196
H390	H	1.688424	0.465200	1.175529
H391	H	0.970280	-0.158692	0.508837
H392	H	1.303614	0.174641	0.842170
H393	H	1.636947	0.507975	1.175503
H394	H	0.982843	-0.190863	1.063979
H395	H	1.316177	0.142470	1.397313
H396	H	1.649510	0.475803	1.730646
C397	C	0.994349	-0.181428	0.672550
C398	C	1.327682	0.151905	1.005883
C399	C	1.661015	0.485238	1.339217
H400	H	0.988576	-0.186205	0.716405
H401	H	1.321909	0.147129	1.049739
H402	H	1.655242	0.480462	1.383072
H403	H	1.036637	-0.189077	0.661807
H404	H	1.369970	0.144256	0.995140
H405	H	1.703304	0.477589	1.328473
H406	H	0.985162	-0.146300	0.661777
H407	H	1.318496	0.187033	0.995111
H408	H	1.651829	0.520366	1.328444
H409	H	0.836665	-0.312213	1.063858
H410	H	1.169998	0.021120	1.397191
H411	H	1.503332	0.354453	1.730524
C412	C	0.994151	-0.557465	0.388178
C413	C	1.327484	-0.224131	0.721511
C414	C	1.660817	0.109202	1.054845
H415	H	1.018109	-0.533343	0.412169
H416	H	1.351442	-0.200010	0.745502
H417	H	1.684775	0.133323	1.078836
H418	H	0.970073	-0.578775	0.415585
H419	H	1.303407	-0.245442	0.748919
H420	H	1.636740	0.087892	1.082252
H421	H	1.021601	-0.578750	0.364132
H422	H	1.354935	-0.245416	0.697465
H423	H	1.688268	0.087917	1.030798
C424	C	0.825152	-0.321887	0.672395
C425	C	1.158485	0.011447	1.005728
C426	C	1.491818	0.344780	1.339062
H427	H	0.801154	-0.341808	0.643382
H428	H	1.134487	-0.008475	0.976715
H429	H	1.467821	0.324858	1.310049
H430	H	0.849214	-0.344657	0.698054
H431	H	1.182547	-0.011324	1.031387
H432	H	1.515880	0.322009	1.364721
H433	H	0.797739	-0.301880	0.698024
H434	H	1.131073	0.031453	1.031357
H435	H	1.464406	0.364787	1.364691
H436	H	0.982796	-0.952977	0.376749
H437	H	1.316129	-0.619644	0.710082
H438	H	1.649462	-0.286310	1.043416
H439	H	0.149947	-0.312424	0.376547
H440	H	0.483281	0.020910	0.709880
H441	H	0.816614	0.354243	1.043213
C442	C	0.994324	-1.059825	0.388288
C443	C	1.327658	-0.726492	0.721622
C444	C	1.660991	-0.393158	1.054955
H445	H	0.988567	-1.096263	0.382523
H446	H	1.321900	-0.762929	0.715856
H447	H	1.655234	-0.429596	1.049190
H448	H	1.036623	-1.050844	0.379131
H449	H	1.369956	-0.717511	0.712465
H450	H	1.703289	-0.384178	1.045798
H451	H	0.985082	-1.050865	0.430573
H452	H	1.318415	-0.717532	0.763906
H453	H	1.651749	-0.384198	1.097239
H454	H	0.836669	-0.312254	0.944590
H455	H	1.170002	0.021079	1.277923
H456	H	1.503335	0.354412	1.611257
H457	H	0.836826	-1.052248	0.230496
H458	H	1.170159	-0.718915	0.563829
H459	H	1.503492	-0.385581	0.897162
C460	C	0.784973	-0.808941	0.178643
C461	C	1.118306	-0.475608	0.511977
C462	C	1.451640	-0.142274	0.845310
H463	H	0.760998	-0.784890	0.154643
H464	H	1.094332	-0.451557	0.487976
H465	H	1.427665	-0.118223	0.821310
H466	H	0.809064	-0.830236	0.151244
H467	H	1.142397	-0.496902	0.484577
H468	H	1.475730	-0.163569	0.817910
H469	H	0.757537	-0.830252	0.202699
H470	H	1.090871	-0.496918	0.536033
H471	H	1.424204	-0.163585	0.869366
H472	H	0.796435	-0.702074	0.190140
H473	H	1.129768	-0.368741	0.523473
H474	H	1.463102	-0.035407	0.856806
