data_functionalizedCrystal
_audit_creation_method	'MofGen! by Chris Wilmer'
_symmetry_space_group_name_H-M	'P1'
_symmetry_Int_Tables_number	1
_symmetry_cell_setting	triclinic
loop_
_symmetry_equiv_pos_as_xyz
  x,y,z
_cell_length_a	14.044220
_cell_length_b	14.044220
_cell_length_c	7.540329
_cell_angle_alpha	89.995368
_cell_angle_beta	90.001925
_cell_angle_gamma	93.188878
loop_
_atom_site_label
_atom_site_type_symbol
_atom_site_fract_x
_atom_site_fract_y
_atom_site_fract_z
O1	O	1.277166	0.230166	-0.147301
O2	O	1.000494	0.221860	-0.147345
O3	O	1.134677	0.087677	-0.147306
O4	O	1.142983	0.364349	-0.147340
O5	O	1.134668	0.087675	0.147659
O6	O	1.000486	0.221858	0.147620
O7	O	1.277157	0.230163	0.147664
Cu8	Cu	1.138820	0.226010	0.174575
Cu9	Cu	1.138831	0.226013	-0.174256
O10	O	1.142974	0.364346	0.147625
C11	C	0.964868	0.218223	0.000131
C12	C	0.858725	0.207379	0.000115
C13	C	1.131037	0.052054	0.000176
C14	C	1.120193	-0.054088	0.000177
C15	C	0.664388	0.187553	0.000153
C16	C	0.613258	0.264467	0.000151
C17	C	0.505122	0.253435	0.000172
C18	C	0.772534	0.198583	0.000132
C19	C	1.100366	-0.248426	0.000148
C20	C	1.177281	-0.299556	0.000155
C21	C	1.166249	-0.407692	0.000139
C22	C	1.111397	-0.140280	0.000164
C23	C	1.312783	0.233800	0.000183
C24	C	1.418926	0.244645	0.000188
C25	C	1.146614	0.399969	0.000138
C26	C	1.157459	0.506112	0.000126
N27	N	1.138820	0.226008	0.419923
N28	N	1.138838	0.226009	-0.419604
H29	H	0.626951	0.113425	0.000171
N30	N	1.270276	-0.252582	0.000181
N31	N	1.279224	-0.163531	0.000200
H32	H	1.344899	-0.130350	0.000225
N33	N	0.660199	0.357477	0.000129
N34	N	0.646461	0.413964	0.124447
H35	H	0.679615	0.479652	0.124427
N36	N	1.007378	-0.295400	0.000121
N37	N	0.998438	-0.384451	0.000110
H38	H	0.932765	-0.417637	0.000095
