data_functionalizedCrystal
_audit_creation_method	'MofGen! by Chris Wilmer'
_symmetry_space_group_name_H-M	'P1'
_symmetry_Int_Tables_number	1
_symmetry_cell_setting	triclinic
loop_
_symmetry_equiv_pos_as_xyz
  x,y,z
_cell_length_a	14.971491
_cell_length_b	23.532357
_cell_length_c	13.448316
_cell_angle_alpha	89.987857
_cell_angle_beta	89.991393
_cell_angle_gamma	83.222263
loop_
_atom_site_label
_atom_site_type_symbol
_atom_site_fract_x
_atom_site_fract_y
_atom_site_fract_z
O1	O	1.186139	0.074232	-0.082747
O2	O	0.925644	0.083117	-0.082741
O3	O	1.063770	-0.004225	-0.082724
O4	O	1.048013	0.161574	-0.082764
O5	O	1.063753	-0.004231	0.082660
O6	O	0.925626	0.083111	0.082643
O7	O	1.186122	0.074227	0.082637
Cu8	Cu	1.055873	0.078669	0.097741
Cu9	Cu	1.055893	0.078675	-0.097845
O10	O	1.047996	0.161569	0.082620
C11	C	0.892315	0.082716	-0.000048
C12	C	0.793031	0.081524	-0.000045
C13	C	0.365390	0.076382	-0.090217
C14	C	0.458678	0.077501	-0.090214
C15	C	0.505309	0.078061	-0.000060
C16	C	0.458647	0.077496	0.090097
C17	C	0.365362	0.076374	0.090092
C18	C	0.653084	0.079838	0.090100
C19	C	0.746375	0.080961	0.090105
C20	C	0.746400	0.080965	-0.090206
C21	C	0.653115	0.079842	-0.090211
C22	C	0.606460	0.079279	-0.000054
C23	C	1.063367	-0.025446	-0.000029
C24	C	1.062182	-0.088670	-0.000019
C25	C	1.054752	-0.480710	-0.090224
C26	C	1.053626	-0.540115	-0.090229
O27	O	1.053021	-0.570831	-0.166899
N28	N	1.053058	-0.569831	-0.000080
C29	C	1.053607	-0.540140	0.090081
O30	O	1.053020	-0.570870	0.166760
C31	C	1.054727	-0.480736	0.090086
C32	C	1.055305	-0.451023	-0.000069
C33	C	1.055329	-0.450997	-0.180372
C34	C	1.056457	-0.391597	-0.180366
C35	C	1.057009	-0.361910	-0.090211
C36	C	1.056433	-0.391623	-0.000063
C37	C	1.055270	-0.451045	0.180246
C38	C	1.056390	-0.391637	0.180243
C39	C	1.056967	-0.361924	0.090087
C40	C	1.058113	-0.302536	0.090097
N41	N	1.058681	-0.272819	-0.000053
C42	C	1.058129	-0.302506	-0.090207
C43	C	1.051254	-0.664891	0.090065
C44	C	1.050140	-0.724294	0.090061
C45	C	1.050157	-0.724265	-0.090250
C46	C	1.051277	-0.664861	-0.090245
C47	C	1.051822	-0.635175	-0.000085
C48	C	1.060498	-0.177762	-0.090187
C49	C	1.061630	-0.118357	-0.090173
C50	C	1.061608	-0.118391	0.090137
C51	C	1.060481	-0.177791	0.090123
C52	C	1.059923	-0.207475	-0.000047
O53	O	1.058715	-0.271781	0.166727
O54	O	1.058704	-0.271767	-0.166873
C55	C	1.219451	0.074627	-0.000058
C56	C	1.318735	0.075820	-0.000068
C57	C	1.048398	0.182790	-0.000078
C58	C	1.049583	0.246014	-0.000094
N59	N	1.055865	0.078664	0.235305
N60	N	1.055908	0.078675	-0.235409
C61	C	1.117046	0.040005	0.287353
C62	C	1.117052	0.040004	0.391456
C63	C	1.055880	0.078666	0.443510
C64	C	0.994692	0.117327	0.391454
C65	C	0.994683	0.117324	0.287353
C66	C	0.994717	0.117331	0.608434
C67	C	0.994727	0.117335	0.712543
C68	C	1.117086	0.040011	0.712538
C69	C	1.117076	0.040008	0.608436
C70	C	1.055890	0.078670	0.556388
H71	H	0.496622	0.077949	0.163502
H72	H	0.327375	0.075922	0.163501
H73	H	1.054802	-0.475227	0.253660
N74	N	0.794041	0.081530	-0.182310
N75	N	0.752396	0.081031	-0.262797
H76	H	0.786044	0.081433	-0.327844
H77	H	1.060040	-0.201923	-0.163613
H78	H	1.056820	-0.367468	0.253664
N79	N	0.932191	0.156817	0.444609
N80	N	0.849528	0.155943	0.433005
H81	H	0.805384	0.183834	0.470544
H82	H	0.327430	0.075930	-0.163631
N83	N	1.062227	-0.088017	-0.182278
N84	N	1.061733	-0.114535	-0.262764
H85	H	1.062154	-0.093109	-0.327813
N86	N	1.179516	0.000490	0.444611
N87	N	1.151439	-0.034898	0.502687
H88	H	1.195547	-0.062817	0.540220
N89	N	0.794019	0.081559	0.182183
N90	N	0.774978	0.121556	0.242516
H91	H	0.808631	0.121986	0.307544
H92	H	0.944862	0.148804	0.244976
H93	H	1.049684	-0.748483	0.163475
H94	H	0.615150	0.079390	-0.163622
H95	H	1.056923	-0.367410	-0.253779
N96	N	1.062148	-0.088056	0.182221
N97	N	0.998947	-0.089484	0.242573
H98	H	0.999319	-0.068057	0.307609
N99	N	1.179492	0.000477	0.234202
N100	N	1.234076	-0.034060	0.280691
H101	H	1.278160	-0.061992	0.243157
N102	N	1.054780	-0.481306	-0.272482
N103	N	1.117977	-0.479857	-0.332832
H104	H	1.117598	-0.501257	-0.397893
N105	N	0.506322	0.078072	-0.182309
N106	N	0.464677	0.077574	-0.262796
H107	H	0.498325	0.077977	-0.327843
H108	H	0.944913	0.148817	0.754919
H109	H	1.049705	-0.748447	-0.163658
N110	N	1.059900	-0.208137	0.182221
N111	N	1.060394	-0.181621	0.262709
H112	H	1.059973	-0.203048	0.327756
N113	N	0.605440	0.079258	0.182201
N114	N	0.647081	0.079760	0.262690
H115	H	0.613433	0.079352	0.327735
H116	H	1.166891	0.008529	0.566055
H117	H	1.166905	0.008531	0.754921
H118	H	0.944889	0.148812	0.566060
H119	H	1.051746	-0.640673	-0.163658
N120	N	1.051814	-0.634578	0.182177
N121	N	1.051305	-0.661123	0.262654
H122	H	1.051698	-0.639718	0.327710
