data_functionalizedCrystal
_audit_creation_method	'MofGen! by Chris Wilmer'
_symmetry_space_group_name_H-M	'P1'
_symmetry_Int_Tables_number	1
_symmetry_cell_setting	triclinic
loop_
_symmetry_equiv_pos_as_xyz
  x,y,z
_cell_length_a	14.044209
_cell_length_b	11.295692
_cell_length_c	12.784905
_cell_angle_alpha	85.053348
_cell_angle_beta	96.852364
_cell_angle_gamma	94.227308
loop_
_atom_site_label
_atom_site_type_symbol
_atom_site_fract_x
_atom_site_fract_y
_atom_site_fract_z
O1	O	-1.231638	0.098874	0.247385
O2	O	-0.956422	0.098908	0.238210
O3	O	-1.114170	0.098885	0.089979
O4	O	-1.073890	0.098897	0.395615
O5	O	-1.124402	-0.099160	0.103729
O6	O	-0.966655	-0.099137	0.251960
O7	O	-1.241870	-0.099171	0.261135
Cu8	Cu	-1.105197	-0.117237	0.257803
Cu9	Cu	-1.093096	0.116974	0.241542
O10	O	-1.084123	-0.099148	0.409365
C11	C	-0.926555	-0.000110	0.241068
C12	C	-0.822316	-0.000097	0.229088
N13	N	-1.113715	-0.281968	0.269240
C14	C	-1.175174	-0.468952	0.351627
C15	C	-1.168708	-0.344292	0.342976
C16	C	-1.065182	-0.344313	0.204151
C17	C	-1.071648	-0.468973	0.212802
C18	C	-1.126647	-0.531288	0.286541
C19	C	-1.133119	-0.655950	0.295185
C20	C	-1.029587	-0.655969	0.156366
C21	C	-1.023121	-0.531309	0.147716
C22	C	-0.631460	-0.000119	0.207190
C23	C	-0.566824	-0.000120	0.292157
C24	C	-0.460625	-0.000132	0.279972
C25	C	-0.737669	-0.000107	0.219373
C26	C	-0.271737	-0.000147	0.258278
C27	C	-0.375974	-0.000142	0.270263
C28	C	-1.121905	-0.000136	0.057503
C29	C	-1.129700	-0.000132	-0.059752
N30	N	-1.084586	0.281705	0.230097
C31	C	-0.970897	-0.000124	-0.271191
C32	C	-0.978216	-0.000120	-0.381363
C33	C	-1.151656	-0.000129	-0.390267
C34	C	-1.144337	-0.000133	-0.280096
C35	C	-1.053954	-0.000128	-0.220562
C36	C	-1.046636	-0.000124	-0.110389
C37	C	-1.220075	-0.000141	-0.119295
C38	C	-1.227394	-0.000137	-0.229466
C39	C	-1.076387	-0.000124	0.441841
C40	C	-1.068592	-0.000121	0.559095
H41	H	-1.177904	-0.706685	0.355226
H42	H	-1.020398	-0.293554	0.144122
H43	H	-0.591245	-0.000112	0.374051
O44	O	-1.239489	0.000022	-0.448010
C45	C	-1.285148	0.102604	-0.430949
H46	H	-1.253419	0.136805	-0.352063
H47	H	-1.365423	0.079530	-0.429665
H48	H	-1.273523	0.174424	-0.497323
H49	H	-1.300981	-0.000145	-0.277954
H50	H	-1.219963	-0.519690	0.411662
O51	O	-0.602168	-0.000067	0.109569
C52	C	-0.501116	-0.000105	0.118986
H53	H	-0.469472	0.037382	0.196545
H54	H	-0.473028	0.057396	0.050098
H55	H	-0.479134	-0.095118	0.117927
O56	O	-0.969629	-0.470638	0.076222
C57	C	-0.896397	-0.398565	0.129398
H58	H	-0.918233	-0.379886	0.209154
H59	H	-0.884876	-0.310904	0.079917
H60	H	-0.826866	-0.446620	0.142120
O61	O	-1.215944	-0.283923	0.406248
C62	C	-1.265850	-0.365661	0.473202
H63	H	-1.279548	-0.454521	0.436232
H64	H	-1.337392	-0.329630	0.484305
H65	H	-1.220967	-0.378926	0.553209
O66	O	-0.883166	-0.000271	-0.213232
C67	C	-0.879031	-0.102856	-0.142139
H68	H	-0.954993	-0.137065	-0.127127
H69	H	-0.835991	-0.079783	-0.064383
H70	H	-0.842765	-0.174670	-0.177418
O71	O	-0.958782	0.000038	-0.052678
C72	C	-0.902516	0.102622	-0.083990
H73	H	-0.930719	0.136820	-0.167620
H74	H	-0.824628	0.079554	-0.082087
H75	H	-0.906700	0.174444	-0.027585
O76	O	-0.897435	-0.000057	-0.430382
C77	C	-0.816099	-0.000086	-0.354204
H78	H	-0.834366	0.037402	-0.279575
H79	H	-0.754589	0.057418	-0.386909
H80	H	-0.793569	-0.095097	-0.334528
O81	O	-1.300670	-0.000195	-0.069942
C82	C	-1.274832	-0.000159	0.040062
H83	H	-1.201247	-0.037656	0.061541
H84	H	-1.330410	-0.057651	0.083082
H85	H	-1.271946	0.094855	0.064517
H86	H	-0.990072	-0.706736	0.103369
