data_functionalizedCrystal
_audit_creation_method	'MofGen! by Chris Wilmer'
_symmetry_space_group_name_H-M	'P1'
_symmetry_Int_Tables_number	1
_symmetry_cell_setting	triclinic
loop_
_symmetry_equiv_pos_as_xyz
  x,y,z
_cell_length_a	13.033748
_cell_length_b	13.032721
_cell_length_c	13.032268
_cell_angle_alpha	76.710373
_cell_angle_beta	76.702071
_cell_angle_gamma	103.361838
loop_
_atom_site_label
_atom_site_type_symbol
_atom_site_fract_x
_atom_site_fract_y
_atom_site_fract_z
Zn1	Zn	1.506748	-0.279639	0.435246
Zn2	Zn	1.506630	-0.434741	0.280212
Zn3	Zn	1.351689	-0.279717	0.280199
Zn4	Zn	1.298873	-0.487472	0.487944
O5	O	1.415985	-0.370393	0.370900
O6	O	1.658572	-0.278113	0.392632
O7	O	1.508131	-0.392141	0.128385
O8	O	1.394412	-0.127850	0.278707
O9	O	1.658485	-0.392066	0.278729
O10	O	1.508333	-0.127793	0.392620
O11	O	1.394297	-0.278246	0.128376
O12	O	1.192844	-0.329377	0.329805
O13	O	1.304394	-0.481939	0.632778
O14	O	1.154040	-0.482014	0.482435
O15	O	1.457119	-0.329245	0.594062
O16	O	1.456917	-0.593593	0.329827
O17	O	1.304279	-0.632334	0.482447
C18	C	1.134071	-0.411427	0.411838
C19	C	1.013460	-0.429011	0.429381
C20	C	0.978858	-0.361246	0.361775
C21	C	0.854200	-0.379419	0.379905
C22	C	1.374880	-0.652338	0.411876
C23	C	1.357389	-0.772946	0.429428
C24	C	1.425164	-0.807512	0.361780
C25	C	1.407088	-0.932167	0.379919
C26	C	1.699000	-0.329199	0.329803
C27	C	1.819603	-0.311645	0.312290
C28	C	1.374878	-0.411465	0.653887
C29	C	1.357361	-0.428968	0.774479
C30	C	1.457277	-0.087346	0.329784
C31	C	1.474873	0.033272	0.312262
C32	C	1.457006	-0.329392	0.088994
C33	C	1.474778	-0.311553	-0.031673
C34	C	1.425116	-0.361221	0.809087
C35	C	1.407013	-0.379309	0.933725
H36	H	0.791539	-0.450897	0.451209
H37	H	1.285985	-0.835637	0.500776
N38	N	0.902592	-0.216971	0.217828
H39	H	0.979880	-0.217407	0.218262
H40	H	0.891664	-0.144823	0.226434
N41	N	1.312420	-0.473889	1.016692
H42	H	1.269691	-0.516616	0.976473
H43	H	1.261868	-0.443801	1.064572
H44	H	1.546189	-0.240151	0.905687
H45	H	1.546289	-0.904040	0.240916
N46	N	1.519718	-0.266666	0.726109
H47	H	1.511358	-0.194406	0.736935
H48	H	1.519181	-0.267265	0.648877
N49	N	1.519757	-0.724475	0.267281
H50	H	1.489774	-0.676632	0.216580
H51	H	1.562473	-0.764744	0.224711
N52	N	0.930467	-0.523692	0.523825
H53	H	0.853179	-0.523255	0.523387
H54	H	0.941412	-0.515313	0.596048
H55	H	1.285944	-0.500353	0.837123
N56	N	1.061846	-0.266571	0.267322
H57	H	1.109747	-0.296480	0.216580
H58	H	1.109691	-0.215989	0.297492
N59	N	1.312497	-1.015193	0.474436
H60	H	1.312992	-1.092473	0.473998
H61	H	1.240311	-1.004343	0.465894
