data_functionalizedCrystal
_audit_creation_method	'MofGen! by Chris Wilmer'
_symmetry_space_group_name_H-M	'P1'
_symmetry_Int_Tables_number	1
_symmetry_cell_setting	triclinic
loop_
_symmetry_equiv_pos_as_xyz
  x,y,z
_cell_length_a	17.077404
_cell_length_b	17.637651
_cell_length_c	17.077396
_cell_angle_alpha	101.244719
_cell_angle_beta	90.019501
_cell_angle_gamma	101.218991
loop_
_atom_site_label
_atom_site_type_symbol
_atom_site_fract_x
_atom_site_fract_y
_atom_site_fract_z
Zn1	Zn	1.136911	-0.314758	0.380585
Zn2	Zn	1.636911	0.185242	0.880585
Zn3	Zn	1.110293	-0.446980	0.222746
Zn4	Zn	1.610293	0.053020	0.722746
Zn5	Zn	1.005637	-0.314786	0.249327
Zn6	Zn	1.505637	0.185214	0.749327
Zn7	Zn	0.979095	-0.446933	0.353979
Zn8	Zn	1.479095	0.053067	0.853979
O9	O	1.057984	-0.380865	0.301659
O10	O	1.557984	0.119135	0.801659
O11	O	1.243225	-0.332306	0.359658
O12	O	1.743225	0.167694	0.859658
O13	O	1.096378	-0.429476	0.116419
O14	O	1.596378	0.070524	0.616419
O15	O	1.045299	-0.204143	0.288998
O16	O	1.545299	0.295857	0.788998
O17	O	1.223669	-0.429449	0.243694
O18	O	1.723669	0.070551	0.743694
O19	O	1.141745	-0.204122	0.385433
O20	O	1.641745	0.295878	0.885433
O21	O	1.019488	-0.332353	0.135948
O22	O	1.519488	0.167647	0.635948
O23	O	0.892271	-0.332308	0.263199
O24	O	1.392271	0.167692	0.763199
O25	O	1.000061	-0.429369	0.467362
O26	O	1.500061	0.070631	0.967362
O27	O	0.872771	-0.429396	0.340087
O28	O	1.372771	0.070604	0.840087
O29	O	1.116008	-0.332260	0.486909
O30	O	1.616008	0.167740	0.986909
O31	O	1.070641	-0.557614	0.217895
O32	O	1.570641	-0.057614	0.717895
O33	O	0.974251	-0.557579	0.314312
O34	O	1.474251	-0.057579	0.814312
C35	C	0.854039	-0.380850	0.301641
C36	C	1.354039	0.119150	0.801641
C37	C	0.766787	-0.380863	0.301647
C38	C	1.266787	0.119137	0.801647
C39	C	0.715648	-0.431493	0.341587
C40	C	1.215648	0.068507	0.841587
C41	C	0.633667	-0.431495	0.341599
C42	C	1.133667	0.068505	0.841599
C43	C	0.602826	-0.380870	0.301667
C44	C	1.102826	0.119130	0.801667
C45	C	0.653971	-0.330234	0.261726
C46	C	1.153971	0.169766	0.761726
C47	C	0.735951	-0.330229	0.261719
C48	C	1.235951	0.169771	0.761719
C49	C	0.483098	-0.330250	0.261742
C50	C	0.983098	0.169750	0.761742
C51	C	0.401113	-0.330256	0.261748
C52	C	0.901113	0.169744	0.761748
C53	C	0.380814	-0.431516	0.341622
C54	C	0.880814	0.068484	0.841622
C55	C	0.462794	-0.431511	0.341615
C56	C	0.962794	0.068489	0.841615
C57	C	0.513934	-0.380876	0.301673
C58	C	1.013934	0.119124	0.801673
C59	C	1.016699	-0.586284	0.260349
C60	C	1.516699	-0.086284	0.760349
C61	C	0.999109	-0.674163	0.242703
C62	C	1.499109	-0.174163	0.742703
C63	C	1.192124	-0.962840	0.435965
C64	C	1.692124	-0.462840	0.935965
C65	C	1.175571	-1.045416	0.419370
C66	C	1.675571	-0.545416	0.919370
C67	C	1.075208	-1.045545	0.318856
C68	C	1.575208	-0.545545	0.818856
C69	C	1.091756	-0.962967	0.335440
C70	C	1.591756	-0.462967	0.835440
C71	C	1.150214	-0.921621	0.393996
C72	C	1.650214	-0.421621	0.893996
C73	C	1.049846	-0.921748	0.293470
C74	C	1.549846	-0.421748	0.793470
C75	C	1.066390	-0.839177	0.310056
C76	C	1.566390	-0.339177	0.810056
C77	C	1.124843	-0.797826	0.368611
C78	C	1.624843	-0.297826	0.868611
C79	C	1.166758	-0.839051	0.410582
C80	C	1.666758	-0.339051	0.910582
C81	C	0.991384	-0.963095	0.234919
C82	C	1.491384	-0.463095	0.734919
C83	C	0.949474	-0.921876	0.192949
C84	C	1.449474	-0.421876	0.692949
C85	C	0.966021	-0.839304	0.209531
C86	C	1.466021	-0.339304	0.709531
C87	C	1.024475	-0.797953	0.268086
C88	C	1.524475	-0.297953	0.768086
C89	C	0.924107	-0.798080	0.167561
C90	C	1.424107	-0.298080	0.667561
C91	C	0.940651	-0.715509	0.184147
C92	C	1.440651	-0.215509	0.684147
C93	C	1.041019	-0.715382	0.284672
C94	C	1.541019	-0.215382	0.784672
C95	C	1.262725	-0.380880	0.301679
C96	C	1.762725	0.119120	0.801679
C97	C	1.349974	-0.380886	0.301687
C98	C	1.849974	0.119114	0.801687
C99	C	1.058043	-0.380806	0.506416
C100	C	1.558043	0.119194	1.006416
C101	C	1.058068	-0.380782	0.593670
C102	C	1.558068	0.119218	1.093670
C103	C	1.099452	-0.174643	0.343148
C104	C	1.599452	0.325357	0.843148
C105	C	1.117123	-0.086764	0.360828
C106	C	1.617123	0.413236	0.860828
C107	C	1.057982	-0.380866	0.097711
C108	C	1.557982	0.119134	0.597711
C109	C	1.058153	-0.380668	0.010502
C110	C	1.558153	0.119332	0.510502
C111	C	1.118444	-0.330213	0.644841
C112	C	1.618444	0.169787	1.144841
C113	C	1.118459	-0.330187	0.726827
C114	C	1.618459	0.169813	1.226827
C115	C	1.058100	-0.380733	0.757640
C116	C	1.558100	0.119267	1.257640
C117	C	0.997718	-0.431304	0.706463
C118	C	1.497718	0.068696	1.206463
C119	C	0.997701	-0.431326	0.624479
C120	C	1.497701	0.068674	1.124479
C121	C	0.997759	-0.431257	0.877343
C122	C	1.497759	0.068743	1.377343
C123	C	0.997777	-0.431236	0.959331
C124	C	1.497777	0.068764	1.459331
C125	C	1.118518	-0.330117	0.979690
C126	C	1.618518	0.169883	1.479690
C127	C	1.118500	-0.330139	0.897706
C128	C	1.618500	0.169861	1.397706
C129	C	1.058119	-0.380711	0.846535
C130	C	1.558119	0.119289	1.346535
H131	H	0.777589	-0.288997	0.229202
H132	H	1.277589	0.211003	0.729202
H133	H	1.167681	-0.288938	1.021358
H134	H	1.667681	0.211062	1.521358
C135	C	1.143043	-0.706995	0.386855
C136	C	1.643043	-0.206995	0.886855
N137	N	1.156752	-0.638581	0.400595
N138	N	1.656752	-0.138581	0.900595
C139	C	1.231064	-0.793566	0.474998
C140	C	1.731064	-0.293566	0.974998
N141	N	1.279495	-0.759306	0.523517
N142	N	1.779495	-0.259306	1.023517
H143	H	0.948581	-0.472426	0.835683
H144	H	1.448581	0.027574	1.335683
C145	C	0.931317	-0.486899	0.740361
C146	C	1.431317	0.013101	1.240361
N147	N	0.881301	-0.528774	0.765893
N148	N	1.381301	-0.028774	1.265893
H149	H	0.948530	-0.472496	0.582818
H150	H	1.448530	0.027504	1.082818
C151	C	0.496716	-0.487205	0.385537
C152	C	0.996716	0.012795	0.885537
N153	N	0.522267	-0.529154	0.418622
N154	N	1.022267	-0.029154	0.918622
C155	C	1.184879	-0.274558	0.783111
C156	C	1.684879	0.225442	1.283111
N157	N	1.234909	-0.232657	0.825505
N158	N	1.734909	0.267343	1.325505
C159	C	0.324559	-0.487211	0.385563
C160	C	0.824559	0.012789	0.885563
N161	N	0.282185	-0.529160	0.418656
N162	N	0.782185	-0.029160	0.918656
C163	C	0.367190	-0.274563	0.217824
C164	C	0.867190	0.225437	0.717824
N165	N	0.341640	-0.232614	0.184740
N166	N	0.841640	0.267386	0.684740
C167	C	1.256430	-0.917355	0.500381
C168	C	1.756430	-0.417355	1.000381
N169	N	1.304861	-0.883096	0.548900
N170	N	1.804861	-0.383096	1.048900
C171	C	0.749565	-0.487186	0.385516
C172	C	1.249565	0.012814	0.885516
N173	N	0.775109	-0.529133	0.418608
N174	N	1.275109	-0.029133	0.918608
C175	C	1.221680	-1.090754	0.465544
C176	C	1.721680	-0.590754	0.965544
N177	N	1.256407	-1.124902	0.500324
N178	N	1.756407	-0.624902	1.000324
C179	C	0.931375	-0.486835	0.993224
C180	C	1.431375	0.013165	1.493224
N181	N	0.881360	-0.528713	1.018753
N182	N	1.381360	-0.028713	1.518753
C183	C	1.010955	-1.091034	0.254396
C184	C	1.510955	-0.591034	0.754396
N185	N	0.962578	-1.125296	0.205825
N186	N	1.462578	-0.625296	0.705825
H187	H	0.524736	-0.289011	0.229226
H188	H	1.024736	0.210989	0.729226
H189	H	0.592032	-0.472724	0.374121
H190	H	1.092032	0.027276	0.874121
C191	C	0.885221	-0.967366	0.128490
C192	C	1.385221	-0.467366	0.628490
N193	N	0.836844	-1.001628	0.079919
N194	N	1.336844	-0.501628	0.579919
C195	C	0.620044	-0.274544	0.217803
C196	C	1.120044	0.225456	0.717803
N197	N	0.594490	-0.232599	0.184716
N198	N	1.094490	0.267401	0.684716
H199	H	0.977908	-1.030329	0.221424
H200	H	1.477908	-0.530329	0.721424
C201	C	0.859845	-0.843571	0.103111
C202	C	1.359845	-0.343571	0.603111
N203	N	0.811458	-0.877835	0.054550
N204	N	1.311458	-0.377835	0.554550
H205	H	0.906522	-0.681948	0.149971
H206	H	1.406522	-0.181948	0.649971
H207	H	1.088628	-0.681717	0.332349
H208	H	1.588628	-0.181717	0.832349
H209	H	1.167598	-0.289054	0.619760
H210	H	1.667598	0.210946	1.119760
H211	H	1.167653	-0.288984	0.872621
H212	H	1.667653	0.211016	1.372621
