data_functionalizedCrystal
_audit_creation_method	'MofGen! by Chris Wilmer'
_symmetry_space_group_name_H-M	'P1'
_symmetry_Int_Tables_number	1
_symmetry_cell_setting	triclinic
loop_
_symmetry_equiv_pos_as_xyz
  x,y,z
_cell_length_a	10.489711
_cell_length_b	10.489711
_cell_length_c	8.140239
_cell_angle_alpha	90.000176
_cell_angle_beta	89.995739
_cell_angle_gamma	84.527009
loop_
_atom_site_label
_atom_site_type_symbol
_atom_site_fract_x
_atom_site_fract_y
_atom_site_fract_z
O1	O	1.694053	0.179788	-0.136658
O2	O	1.322851	0.196720	-0.136647
O3	O	1.516919	0.002653	-0.136657
O4	O	1.499986	0.373855	-0.136648
O5	O	1.516908	0.002651	0.136570
O6	O	1.322840	0.196718	0.136580
O7	O	1.694043	0.179785	0.136569
Zn8	Zn	1.508440	0.188251	0.179955
Zn9	Zn	1.508454	0.188254	-0.180033
O10	O	1.499975	0.373853	0.136579
C11	C	1.275314	0.195448	-0.000032
C12	C	1.133683	0.191646	-0.000029
C13	C	0.951284	0.308352	-0.000044
C14	C	1.043441	0.250057	-0.134759
C15	C	1.043403	0.250024	0.134622
C16	C	0.973503	0.126513	-0.134889
C17	C	0.973456	0.126496	0.134612
C18	C	1.065585	0.068112	-0.000135
C19	C	1.515642	-0.044880	-0.000048
C20	C	1.511840	-0.186511	-0.000062
C21	C	1.628547	-0.368910	-0.000049
C22	C	1.570245	-0.276761	0.134667
C23	C	1.570224	-0.276783	-0.134714
C24	C	1.446700	-0.346699	0.134797
C25	C	1.446697	-0.346730	-0.134705
C26	C	1.388306	-0.254609	0.000044
C27	C	1.741580	0.181057	-0.000049
C28	C	1.883211	0.184859	-0.000064
C29	C	1.501251	0.421386	-0.000033
C30	C	1.505054	0.563017	-0.000030
N31	N	1.508439	0.188249	0.425638
N32	N	1.508464	0.188247	-0.425716
H33	H	0.901583	0.409855	-0.000176
H34	H	1.394491	-0.377744	-0.248600
H35	H	1.074349	0.302297	0.248514
Cl36	Cl	0.925962	0.045902	-0.310927
H37	H	0.942434	0.074286	0.248507
H38	H	1.622504	-0.245828	-0.248604
H39	H	1.074434	0.302315	-0.248643
Cl40	Cl	1.785254	-0.445652	0.000146
Cl41	Cl	1.650915	-0.228914	0.310493
Cl42	Cl	1.141977	-0.088738	-0.000245
Cl43	Cl	1.231451	-0.178228	0.000146
Cl44	Cl	1.366090	-0.394252	0.310841
