data_functionalizedCrystal
_audit_creation_method	'MofGen! by Chris Wilmer'
_symmetry_space_group_name_H-M	'P1'
_symmetry_Int_Tables_number	1
_symmetry_cell_setting	triclinic
loop_
_symmetry_equiv_pos_as_xyz
  x,y,z
_cell_length_a	18.050591
_cell_length_b	18.050590
_cell_length_c	12.759387
_cell_angle_alpha	89.964881
_cell_angle_beta	89.972254
_cell_angle_gamma	90.015000
loop_
_atom_site_label
_atom_site_type_symbol
_atom_site_fract_x
_atom_site_fract_y
_atom_site_fract_z
Zn1	Zn	1.135401	-0.295691	-0.594176
Zn2	Zn	1.135315	-0.419899	-0.418484
Zn3	Zn	1.011203	-0.295720	-0.418491
Zn4	Zn	1.011189	-0.419836	-0.594100
O5	O	1.073277	-0.357786	-0.506313
O6	O	1.239314	-0.312182	-0.570899
O7	O	1.118821	-0.403466	-0.271463
O8	O	1.027720	-0.191792	-0.441831
O9	O	1.239251	-0.403437	-0.441818
O10	O	1.118967	-0.191770	-0.570906
O11	O	1.027637	-0.312232	-0.271469
O12	O	0.907276	-0.312170	-0.441757
O13	O	1.027696	-0.403328	-0.741132
O14	O	0.907266	-0.403357	-0.570777
O15	O	1.118954	-0.312120	-0.741187
O16	O	1.118808	-0.523816	-0.441745
O17	O	1.027613	-0.523769	-0.570770
C18	C	0.880325	-0.357760	-0.506260
C19	C	0.797779	-0.357767	-0.506263
C20	C	0.548938	-0.308128	-0.436268
C21	C	0.598376	-0.290033	-0.532151
C22	C	0.500659	-0.357805	-0.506349
C23	C	0.598302	-0.375846	-0.410429
C24	C	0.646644	-0.357784	-0.506301
C25	C	0.549010	-0.339675	-0.602282
C26	C	0.548932	-0.425520	-0.480496
C27	C	0.598348	-0.407450	-0.576445
C28	C	0.416561	-0.357815	-0.506375
C29	C	0.730740	-0.357775	-0.506286
C30	C	1.073220	-0.550739	-0.506271
C31	C	1.073263	-0.633284	-0.506288
C32	C	1.122958	-0.832733	-0.436222
C33	C	1.141103	-0.882059	-0.532112
C34	C	1.073306	-0.784415	-0.506330
C35	C	1.055236	-0.882170	-0.410483
C36	C	1.073348	-0.930400	-0.506362
C37	C	1.091485	-0.832653	-0.602271
C38	C	1.005587	-0.832760	-0.480577
C39	C	1.023706	-0.882064	-0.576533
C40	C	1.073283	-0.700316	-0.506310
C41	C	1.073370	-1.014496	-0.506393
C42	C	1.266983	-0.357813	-0.506366
C43	C	1.349528	-0.357825	-0.506389
C44	C	1.073333	-0.357714	-0.780346
C45	C	1.073357	-0.357683	-0.897123
C46	C	1.073355	-0.164081	-0.506378
C47	C	1.073388	-0.081535	-0.506406
C48	C	1.168390	-0.262713	-0.897201
C49	C	1.215917	-0.215217	-0.952101
C50	C	1.215935	-0.215190	-1.061823
C51	C	1.168420	-0.262663	-1.116647
C52	C	1.120893	-0.310158	-1.061747
C53	C	1.120881	-0.310182	-0.952023
C54	C	1.025857	-0.405123	-1.061669
C55	C	1.025841	-0.405155	-0.951948
C56	C	0.978341	-0.452595	-1.116494
C57	C	0.930817	-0.500096	-1.061594
C58	C	0.930801	-0.500122	-0.951866
C59	C	0.978314	-0.452651	-0.897048
C60	C	1.073264	-0.357805	-0.233345
C61	C	1.073384	-0.357627	-0.116569
H62	H	0.619957	-0.391114	-0.329331
H63	H	0.619905	-0.449452	-0.635758
H64	H	0.948317	-0.811087	-0.458745
H65	H	1.039936	-0.903920	-0.329413
C66	C	1.178585	-0.725919	-0.356411
C67	C	1.179655	-0.803484	-0.356265
H68	H	1.213584	-0.707863	-0.307047
H69	H	1.190969	-0.708243	-0.424328
H70	H	1.130477	-0.709048	-0.337940
H71	H	1.227762	-0.820355	-0.374743
H72	H	1.167275	-0.821168	-0.288333
C73	C	0.442338	-0.319134	-0.710813
C74	C	0.519908	-0.318967	-0.711794
H75	H	0.424373	-0.306345	-0.778418
H76	H	0.425003	-0.367089	-0.692361
H77	H	0.425033	-0.284072	-0.661007
H78	H	0.537214	-0.354034	-0.761595
H79	H	0.537251	-0.271006	-0.730260
C80	C	1.258108	-0.173098	-0.783936
C81	C	1.268152	-0.163044	-0.891836
H82	H	1.290359	-0.140892	-0.746736
H83	H	1.208220	-0.162215	-0.765940
H84	H	1.268945	-0.223008	-0.765953
H85	H	1.257309	-0.113135	-0.909820
H86	H	1.318050	-0.173922	-0.909839
H87	H	0.527198	-0.482777	-0.458615
H88	H	1.168387	-0.262737	-0.807860
H89	H	1.198390	-0.903716	-0.553916
C90	C	1.226317	-0.115269	-1.185263
C91	C	1.268176	-0.162981	-1.122174
H92	H	1.258569	-0.083036	-1.222515
H93	H	1.198031	-0.143540	-1.233608
H94	H	1.193972	-0.086866	-1.142447
H95	H	1.300517	-0.191389	-1.164991
H96	H	1.296474	-0.134707	-1.073823
H97	H	0.978310	-0.452670	-0.807707
H98	H	0.527245	-0.266095	-0.377096
C99	C	1.112061	-0.725854	-0.710721
C100	C	1.112239	-0.803423	-0.711743
H101	H	1.124880	-0.707809	-0.778301
H102	H	1.064095	-0.708569	-0.692312
H103	H	1.147097	-0.708578	-0.660865
H104	H	1.077198	-0.820699	-0.761593
H105	H	1.160211	-0.820714	-0.730165
C106	C	0.830874	-0.510456	-0.828439
C107	C	0.878556	-0.552334	-0.891530
H108	H	0.798617	-0.542693	-0.791201
H109	H	0.859165	-0.482201	-0.780081
H110	H	0.802494	-0.478081	-0.871252
H111	H	0.906940	-0.584706	-0.848716
H112	H	0.850262	-0.580602	-0.939894
C113	C	0.907728	-0.433609	-1.273652
C114	C	0.978359	-0.452567	-1.237102
H115	H	0.907741	-0.433590	-1.348111
H116	H	0.872630	-0.468687	-1.248803
H117	H	0.894916	-0.385684	-1.248842
H118	H	0.991168	-0.500494	-1.261906
H119	H	1.013467	-0.417487	-1.261961
C120	C	0.986167	-0.885993	-0.756946
C121	C	0.967046	-0.911129	-0.656674
H122	H	0.951192	-0.903943	-0.806422
H123	H	0.986131	-0.833376	-0.757764
H124	H	1.034143	-0.903626	-0.774662
H125	H	0.919072	-0.893491	-0.638955
H126	H	0.967075	-0.963757	-0.655854
H127	H	1.168432	-0.262630	-1.205988
H128	H	0.620081	-0.232757	-0.554016
C129	C	0.920467	-0.599954	-1.184946
C130	C	0.878593	-0.552274	-1.121855
H131	H	0.888225	-0.632171	-1.222145
H132	H	0.948764	-0.571659	-1.233337
H133	H	0.952803	-0.628378	-1.142137
H134	H	0.846261	-0.523846	-1.164665
H135	H	0.850283	-0.580573	-1.073458
