data_functionalizedCrystal
_audit_creation_method	'MofGen! by Chris Wilmer'
_symmetry_space_group_name_H-M	'P1'
_symmetry_Int_Tables_number	1
_symmetry_cell_setting	triclinic
loop_
_symmetry_equiv_pos_as_xyz
  x,y,z
_cell_length_a	13.032831
_cell_length_b	29.839131
_cell_length_c	13.033454
_cell_angle_alpha	82.775327
_cell_angle_beta	89.091650
_cell_angle_gamma	82.845366
loop_
_atom_site_label
_atom_site_type_symbol
_atom_site_fract_x
_atom_site_fract_y
_atom_site_fract_z
Zn1	Zn	1.498351	-0.218109	-0.780800
Zn2	Zn	1.998351	0.281891	-0.280800
Zn3	Zn	1.520000	-0.303825	-0.608780
Zn4	Zn	2.020000	0.196175	-0.108780
Zn5	Zn	1.348190	-0.220504	-0.587030
Zn6	Zn	1.848190	0.279496	-0.087030
Zn7	Zn	1.326279	-0.285000	-0.758920
Zn8	Zn	1.826279	0.215000	-0.258920
O9	O	1.423205	-0.256860	-0.683883
O10	O	1.923205	0.243140	-0.183883
O11	O	1.645139	-0.236356	-0.776241
O12	O	2.145139	0.263644	-0.276241
O13	O	1.515439	-0.301653	-0.461967
O14	O	2.015439	0.198347	0.038033
O15	O	1.368219	-0.157322	-0.612788
O16	O	1.868219	0.342678	-0.112788
O17	O	1.661044	-0.299331	-0.649858
O18	O	2.161044	0.200669	-0.149858
O19	O	1.478542	-0.155563	-0.755150
O20	O	1.978542	0.344437	-0.255150
O21	O	1.389211	-0.240437	-0.445987
O22	O	1.889211	0.259563	0.054013
O23	O	1.201367	-0.222184	-0.591572
O24	O	1.701367	0.277816	-0.091572
O25	O	1.330875	-0.267246	-0.905751
O26	O	1.830875	0.232754	-0.405751
O27	O	1.185269	-0.269569	-0.717859
O28	O	1.685269	0.230431	-0.217859
O29	O	1.457296	-0.218102	-0.921826
O30	O	1.957296	0.281898	-0.421826
O31	O	1.494192	-0.364192	-0.628642
O32	O	1.994192	0.135808	-0.128642
O33	O	1.351866	-0.350361	-0.738950
O34	O	1.851866	0.149639	-0.238950
C35	C	1.156002	-0.244093	-0.649982
C36	C	1.656002	0.255907	-0.149982
C37	C	1.041689	-0.238641	-0.635503
C38	C	1.541689	0.261359	-0.135503
C39	C	0.982799	-0.259705	-0.691439
C40	C	1.482799	0.240295	-0.191439
C41	C	0.864650	-0.254071	-0.676476
C42	C	1.364650	0.245929	-0.176476
C43	C	1.423026	-0.373577	-0.683808
C44	C	1.923026	0.126423	-0.183808
C45	C	1.423039	-0.423511	-0.683822
C46	C	1.923039	0.076489	-0.183822
C47	C	1.497421	-0.740349	-0.626557
C48	C	1.997421	-0.240349	-0.126557
C49	C	1.497543	-0.928025	-0.626613
C50	C	1.997543	-0.428025	-0.126613
O51	O	1.560644	-0.958403	-0.577866
O52	O	2.060644	-0.458403	-0.077866
N53	N	1.423408	-0.944307	-0.683987
N54	N	1.923408	-0.444307	-0.183987
C55	C	1.349242	-0.913666	-0.741357
C56	C	1.849242	-0.413666	-0.241357
O57	O	1.286195	-0.931821	-0.790167
O58	O	1.786195	-0.431821	-0.290167
C59	C	1.349125	-0.725990	-0.741306
C60	C	1.849125	-0.225990	-0.241306
C61	C	1.423259	-0.709712	-0.683920
C62	C	1.923259	-0.209712	-0.183920
C63	C	1.571549	-0.724069	-0.569176
C64	C	2.071549	-0.224069	-0.069176
C65	C	1.571515	-0.677153	-0.569158
C66	C	2.071515	-0.177153	-0.069158
C67	C	1.497352	-0.646516	-0.626521
C68	C	1.997352	-0.146516	-0.126521
C69	C	1.423224	-0.662795	-0.683902
C70	C	1.923224	-0.162795	-0.183902
C71	C	1.274964	-0.695350	-0.798681
C72	C	1.774964	-0.195350	-0.298681
C73	C	1.274943	-0.648429	-0.798665
C74	C	1.774943	-0.148429	-0.298665
C75	C	1.349077	-0.632150	-0.741279
C76	C	1.849077	-0.132150	-0.241279
C77	C	1.349027	-0.585242	-0.741247
C78	C	1.849027	-0.085242	-0.241247
N79	N	1.423162	-0.568960	-0.683873
N80	N	1.923162	-0.068960	-0.183873
C81	C	1.497324	-0.599597	-0.626510
C82	C	1.997324	-0.099597	-0.126510
C83	C	1.349307	-1.012199	-0.741378
C84	C	1.849307	-0.512199	-0.241378
C85	C	1.349335	-1.059118	-0.741389
C86	C	1.849335	-0.559118	-0.241389
C87	C	1.497638	-1.073474	-0.626646
C88	C	1.997638	-0.573474	-0.126646
C89	C	1.497605	-1.026554	-0.626630
C90	C	1.997605	-0.526554	-0.126630
C91	C	1.423442	-0.995918	-0.684004
C92	C	1.923442	-0.495918	-0.184004
C93	C	1.497245	-0.501069	-0.626476
C94	C	1.997245	-0.001069	-0.126476
C95	C	1.497201	-0.454148	-0.626459
C96	C	1.997201	0.045852	-0.126459
C97	C	1.348902	-0.439796	-0.741206
C98	C	1.848902	0.060204	-0.241206
C99	C	1.348942	-0.486713	-0.741219
C100	C	1.848942	0.013287	-0.241219
C101	C	1.423123	-0.517349	-0.683851
C102	C	1.923123	-0.017349	-0.183851
O103	O	1.285966	-0.554839	-0.789978
O104	O	1.785966	-0.054839	-0.289978
O105	O	1.560376	-0.581433	-0.577725
O106	O	2.060376	-0.081433	-0.077725
C107	C	1.497456	-0.787265	-0.626575
C108	C	1.997456	-0.287265	-0.126575
C109	C	1.423328	-0.803545	-0.683955
C110	C	1.923328	-0.303545	-0.183955
C111	C	1.349165	-0.772907	-0.741318
C112	C	1.849165	-0.272907	-0.241318
C113	C	1.423356	-0.850463	-0.683967
C114	C	1.923356	-0.350463	-0.183967
C115	C	1.497519	-0.881100	-0.626604
C116	C	1.997519	-0.381100	-0.126604
C117	C	1.571653	-0.864819	-0.569230
C118	C	2.071653	-0.364819	-0.069230
C119	C	1.571619	-0.817902	-0.569212
C120	C	2.071619	-0.317902	-0.069212
C121	C	1.275030	-0.789189	-0.798693
C122	C	1.775030	-0.289189	-0.298693
C123	C	1.275070	-0.836106	-0.798705
C124	C	1.775070	-0.336106	-0.298705
C125	C	1.349233	-0.866743	-0.741342
C126	C	1.849233	-0.366743	-0.241342
C127	C	1.691451	-0.269676	-0.717916
C128	C	2.191451	0.230324	-0.217916
C129	C	1.805761	-0.275138	-0.732420
C130	C	2.305761	0.224862	-0.232420
C131	C	1.389226	-0.240307	-0.952150
C132	C	1.889226	0.259693	-0.452150
C133	C	1.374747	-0.233254	-1.066470
C134	C	1.874747	0.266746	-0.566470
C135	C	1.423410	-0.139687	-0.683983
C136	C	1.923410	0.360313	-0.183983
C137	C	1.423497	-0.089755	-0.684026
C138	C	1.923497	0.410245	-0.184026
C139	C	1.430746	-0.260397	-1.125344
C140	C	1.930746	0.239603	-0.625344
C141	C	1.415782	-0.253108	-1.243500
C142	C	1.915782	0.246892	-0.743500
C143	C	1.457111	-0.273318	-0.416666
C144	C	1.957111	0.226682	0.083334
C145	C	1.471789	-0.280255	-0.302372
C146	C	1.971789	0.219745	0.197628
H147	H	1.004637	-0.216434	-0.576541
H148	H	1.504637	0.283566	-0.076541
H149	H	1.557570	-0.440896	-0.579725
H150	H	2.057570	0.059104	-0.079725
H151	H	1.489772	-0.289031	-1.088275
H152	H	1.989772	0.210969	-0.588275
H153	H	1.356761	-0.224469	-1.280566
H154	H	1.856761	0.275531	-0.780566
H155	H	1.019849	-0.281909	-0.750409
H156	H	1.519849	0.218091	-0.250409
H157	H	1.214552	-0.623486	-0.845389
H158	H	1.714552	-0.123486	-0.345389
H159	H	1.631947	-0.749010	-0.522465
H160	H	2.131947	-0.249010	-0.022465
H161	H	1.530820	-0.308891	-1.265309
H162	H	2.030820	0.191109	-0.765309
H163	H	0.827602	-0.231862	-0.617510
H164	H	1.327602	0.268138	-0.117510
H165	H	0.842806	-0.297341	-0.791396
H166	H	1.342806	0.202659	-0.291396
H167	H	1.557652	-0.526008	-0.579764
H168	H	2.057652	-0.026008	-0.079764
H169	H	1.315729	-0.204617	-1.103541
H170	H	1.815729	0.295383	-0.603541
H171	H	1.557971	-1.013304	-0.579902
H172	H	2.057971	-0.513304	-0.079902
H173	H	1.631883	-0.663902	-0.522433
H174	H	2.131883	-0.163902	-0.022433
H175	H	1.558024	-1.098427	-0.579940
H176	H	2.058024	-0.598427	-0.079940
H177	H	1.288959	-1.072368	-0.788108
H178	H	1.788959	-0.572368	-0.288108
H179	H	1.288912	-0.987257	-0.788100
H180	H	1.788912	-0.487257	-0.288100
H181	H	1.214592	-0.708596	-0.845406
H182	H	1.714592	-0.208596	-0.345406
H183	H	1.288580	-0.499968	-0.787951
H184	H	1.788580	0.000032	-0.287951
H185	H	1.288517	-0.414844	-0.787907
H186	H	1.788517	0.085156	-0.287907
H187	H	1.631985	-0.804652	-0.522483
H188	H	2.131985	-0.304652	-0.022483
H189	H	1.632037	-0.889772	-0.522519
H190	H	2.132037	-0.389772	-0.022519
H191	H	1.214639	-0.764247	-0.845406
H192	H	1.714639	-0.264247	-0.345406
H193	H	1.214693	-0.849355	-0.845434
H194	H	1.714693	-0.349355	-0.345434
