data_functionalizedCrystal
_audit_creation_method	'MofGen! by Chris Wilmer'
_symmetry_space_group_name_H-M	'P1'
_symmetry_Int_Tables_number	1
_symmetry_cell_setting	triclinic
loop_
_symmetry_equiv_pos_as_xyz
  x,y,z
_cell_length_a	21.295418
_cell_length_b	12.645330
_cell_length_c	12.645323
_cell_angle_alpha	90.024870
_cell_angle_beta	90.041678
_cell_angle_gamma	90.033507
loop_
_atom_site_label
_atom_site_type_symbol
_atom_site_fract_x
_atom_site_fract_y
_atom_site_fract_z
Zn1	Zn	0.962399	-0.421583	0.599984
Zn2	Zn	0.962329	-0.598871	0.422724
Zn3	Zn	0.857126	-0.421671	0.422670
Zn4	Zn	0.857115	-0.598854	0.599881
O5	O	0.909742	-0.510245	0.511315
O6	O	1.050479	-0.445071	0.576536
O7	O	0.948349	-0.575409	0.274369
O8	O	0.871125	-0.273312	0.446211
O9	O	1.050428	-0.575324	0.446304
O10	O	0.948468	-0.273248	0.576483
O11	O	0.871057	-0.445221	0.274329
O12	O	0.769035	-0.445205	0.446111
O13	O	0.871106	-0.575295	0.748242
O14	O	0.769027	-0.575380	0.576307
O15	O	0.948458	-0.445055	0.748318
O16	O	0.948338	-0.747216	0.446204
O17	O	0.871038	-0.747204	0.576360
C18	C	0.909696	-0.785675	0.511300
C19	C	0.909734	-0.903505	0.511329
C20	C	0.746191	-0.510301	0.511193
C21	C	0.676222	-0.510350	0.511165
C22	C	0.861305	-1.071105	0.593463
C23	C	0.861058	-0.948546	0.593199
C24	C	0.891774	-0.948107	0.399597
C25	C	0.891479	-1.070706	0.400095
C26	C	0.976419	-1.070563	0.540021
C27	C	0.976011	-0.947956	0.542464
C28	C	0.643368	-0.578222	0.578857
C29	C	0.577626	-0.578196	0.578905
C30	C	0.544740	-0.510309	0.511242
C31	C	0.577602	-0.442424	0.443545
C32	C	0.643343	-0.442444	0.443507
N33	N	0.441465	-0.502032	0.418520
N34	N	0.379013	-0.502018	0.418560
C35	C	0.346665	-0.510241	0.511354
N36	N	0.379128	-0.518499	0.604110
N37	N	0.441585	-0.518518	0.604070
C38	C	0.473455	-0.510279	0.511276
C39	C	0.242526	-0.578089	0.579103
C40	C	0.176782	-0.578055	0.579153
C41	C	0.176760	-0.442288	0.443784
C42	C	0.242502	-0.442316	0.443744
C43	C	0.275381	-0.510222	0.511402
C44	C	1.073933	-0.510190	0.511438
C45	C	1.143901	-0.510166	0.511490
C46	C	0.909789	-0.510163	0.787820
C47	C	0.909808	-0.510128	0.905650
C48	C	0.909806	-0.233740	0.511353
C49	C	0.909832	-0.115910	0.511369
C50	C	0.909732	-0.510250	0.235885
C51	C	0.909834	-0.509986	0.118055
C52	C	0.860996	-0.591676	1.073166
C53	C	0.861124	-0.592080	0.950607
C54	C	0.976136	-0.540416	0.950207
C55	C	0.975868	-0.540927	1.072805
C56	C	0.892920	-0.397836	1.072839
C57	C	0.891440	-0.398510	0.950231
H58	H	0.872295	-0.918386	0.676046
C59	C	0.825511	-0.367625	0.910839
N60	N	0.775857	-0.344357	0.881148
C61	C	0.794678	-0.566477	0.909900
N62	N	0.744628	-0.547196	0.879246
H63	H	0.149985	-0.387008	0.388696
H64	H	0.845396	-0.370222	1.103716
C65	C	0.825719	-1.109500	0.367318
N66	N	0.776187	-1.138714	0.342633
H67	H	0.811666	-0.572909	1.102612
C68	C	0.278695	-0.652774	0.653540
N69	N	0.305935	-0.709025	0.709609
C70	C	0.935976	-0.311935	0.908869
N71	N	0.969521	-0.246728	0.877708
C72	C	0.995232	-0.651685	1.111471
N73	N	1.009815	-0.735112	1.140588
C74	C	0.940976	-0.315615	1.112058
N75	N	0.977175	-0.253695	1.141601
C76	C	0.794358	-0.909077	0.567628
N77	N	0.744113	-0.879350	0.548393
H78	H	0.550823	-0.387148	0.388455
C79	C	0.679484	-0.367782	0.369032
N80	N	0.706707	-0.311548	0.312933
H81	H	0.812250	-1.102028	0.574720
H82	H	0.550870	-0.633465	0.634032
H83	H	0.872439	-1.100512	0.676582
C84	C	0.938005	-0.908688	0.314699
N85	N	0.972826	-0.878992	0.250754
C86	C	0.937148	-1.110753	0.314633
N87	N	0.971543	-1.140912	0.250257
H88	H	0.843606	-0.917518	0.374891
H89	H	0.992802	-1.101399	0.620113
H90	H	0.989555	-0.918800	0.624693
H91	H	1.014070	-0.917288	0.487028
C92	C	1.026703	-0.464053	1.112931
N93	N	1.064995	-0.406160	1.143149
C94	C	1.025262	-1.109708	0.459250
N95	N	1.062047	-1.139200	0.398412
H96	H	0.269252	-0.387053	0.388616
H97	H	0.670134	-0.633515	0.633952
H98	H	0.150033	-0.633323	0.634282
H99	H	1.013500	-0.482797	0.921093
H100	H	0.872054	-0.674299	1.103992
C101	C	0.876198	-0.704407	0.911008
N102	N	0.887540	-0.789021	0.881184
C103	C	0.995837	-0.650014	0.908767
N104	N	1.010671	-0.732567	0.877558
