data_functionalizedCrystal
_audit_creation_method	'MofGen! by Chris Wilmer'
_symmetry_space_group_name_H-M	'P1'
_symmetry_Int_Tables_number	1
_symmetry_cell_setting	triclinic
loop_
_symmetry_equiv_pos_as_xyz
  x,y,z
_cell_length_a	19.077105
_cell_length_b	19.121063
_cell_length_c	19.076919
_cell_angle_alpha	85.393653
_cell_angle_beta	89.923776
_cell_angle_gamma	90.263052
loop_
_atom_site_label
_atom_site_type_symbol
_atom_site_fract_x
_atom_site_fract_y
_atom_site_fract_z
Zn1	Zn	1.043169	-0.339734	0.454309
Zn2	Zn	1.376503	-0.006401	0.787643
Zn3	Zn	1.709836	0.326933	1.120976
Zn4	Zn	1.042790	-0.452646	0.341419
Zn5	Zn	1.376124	-0.119312	0.674753
Zn6	Zn	1.709457	0.214021	1.008086
Zn7	Zn	0.930805	-0.330327	0.331718
Zn8	Zn	1.264139	0.003007	0.665051
Zn9	Zn	1.597472	0.336340	0.998385
Zn10	Zn	0.920631	-0.452222	0.454155
Zn11	Zn	1.253964	-0.118889	0.787488
Zn12	Zn	1.587297	0.214445	1.120821
O13	O	0.984349	-0.393732	0.395400
O14	O	1.317682	-0.060399	0.728734
O15	O	1.651015	0.272935	1.062067
O16	O	1.141268	-0.358826	0.443459
O17	O	1.474601	-0.025493	0.776792
O18	O	1.807934	0.307840	1.110126
O19	O	1.032035	-0.432660	0.241647
O20	O	1.365368	-0.099327	0.574981
O21	O	1.698701	0.234007	0.908314
O22	O	0.950127	-0.233307	0.343985
O23	O	1.283460	0.100026	0.677318
O24	O	1.616794	0.433360	1.010651
O25	O	1.140989	-0.441782	0.360519
O26	O	1.474323	-0.108449	0.693853
O27	O	1.807656	0.224885	1.027186
O28	O	1.032681	-0.240219	0.434052
O29	O	1.366014	0.093115	0.767385
O30	O	1.699347	0.426448	1.100719
O31	O	0.949760	-0.342793	0.234520
O32	O	1.283093	-0.009459	0.567853
O33	O	1.616426	0.323874	0.901187
O34	O	0.831307	-0.342382	0.343835
O35	O	1.164640	-0.009049	0.677168
O36	O	1.497973	0.324285	1.010501
O37	O	0.932786	-0.441060	0.552660
O38	O	1.266120	-0.107727	0.885993
O39	O	1.599453	0.225607	1.219327
O40	O	0.823831	-0.431938	0.433788
O41	O	1.157165	-0.098605	0.767122
O42	O	1.490498	0.234729	1.100455
O43	O	1.022815	-0.358416	0.552774
O44	O	1.356148	-0.025082	0.886107
O45	O	1.689481	0.308251	1.219440
O46	O	1.022169	-0.550857	0.360369
O47	O	1.355502	-0.217524	0.693703
O48	O	1.688836	0.115810	1.027036
O49	O	0.932419	-0.550546	0.443195
O50	O	1.265752	-0.217212	0.776529
O51	O	1.599085	0.116121	1.109862
C52	C	0.802120	-0.386094	0.387742
C53	C	1.135453	-0.052760	0.721076
C54	C	1.468787	0.280573	1.054409
C55	C	0.724160	-0.382844	0.384484
C56	C	1.057494	-0.049510	0.717817
C57	C	1.390827	0.283823	1.051150
C58	C	0.683661	-0.428009	0.429719
C59	C	1.016995	-0.094676	0.763052
C60	C	1.350328	0.238658	1.096386
C61	C	0.610410	-0.424946	0.426660
C62	C	0.943743	-0.091613	0.759993
C63	C	1.277077	0.241721	1.093327
C64	C	0.577659	-0.376721	0.378362
C65	C	0.910993	-0.043387	0.711695
C66	C	1.244326	0.289946	1.045029
C67	C	0.618164	-0.331551	0.333125
C68	C	0.951497	0.001783	0.666458
C69	C	1.284831	0.335116	0.999792
C70	C	0.691414	-0.334611	0.336188
C71	C	1.024747	-0.001277	0.669521
C72	C	1.358081	0.332056	1.002854
C73	C	0.359002	-0.362559	0.364190
C74	C	0.692335	-0.029225	0.697524
C75	C	1.025668	0.304108	1.030857
C76	C	0.285746	-0.359503	0.361130
C77	C	0.619080	-0.026170	0.694463
C78	C	0.952413	0.307163	1.027796
C79	C	0.277998	-0.452898	0.454666
C80	C	0.611331	-0.119565	0.787999
C81	C	0.944664	0.213769	1.121333
C82	C	0.351249	-0.455957	0.457722
C83	C	0.684582	-0.122623	0.791055
C84	C	1.017916	0.210710	1.124388
C85	C	0.391747	-0.410784	0.412487
C86	C	0.725081	-0.077451	0.745820
C87	C	1.058414	0.255882	1.079154
N88	N	0.502785	-0.373590	0.375233
N89	N	0.836118	-0.040257	0.708566
N90	N	1.169452	0.293076	1.041899
N91	N	0.466620	-0.413912	0.415620
N92	N	0.799954	-0.080578	0.748954
N93	N	1.133287	0.252755	1.082287
C94	C	0.976167	-0.576182	0.402834
C95	C	1.309500	-0.242849	0.736168
C96	C	1.642834	0.090484	1.069501
C97	C	0.972730	-0.654239	0.406041
C98	C	1.306063	-0.320906	0.739374
C99	C	1.639397	0.012428	1.072708
C100	C	1.017877	-0.691052	0.364463
C101	C	1.351210	-0.357718	0.697796
C102	C	1.684543	-0.024385	1.031130
C103	C	1.014648	-0.764395	0.367483
C104	C	1.347981	-0.431061	0.700816
C105	C	1.681315	-0.097728	1.034150
C106	C	0.966269	-0.800923	0.412078
C107	C	1.299602	-0.467590	0.745411
C108	C	1.632936	-0.134256	1.078745
C109	C	0.921120	-0.764105	0.453660
C110	C	1.254454	-0.430772	0.786994
C111	C	1.587787	-0.097439	1.120327
C112	C	0.924353	-0.690764	0.450644
C113	C	1.257686	-0.357431	0.783977
C114	C	1.591020	-0.024097	1.117310
C115	C	0.954173	-1.022359	0.423346
C116	C	1.287506	-0.689026	0.756679
C117	C	1.620840	-0.355693	1.090012
C118	C	0.950942	-1.095705	0.426358
C119	C	1.284276	-0.762372	0.759691
C120	C	1.617609	-0.429039	1.093025
C121	C	1.044471	-1.095990	0.340181
C122	C	1.377805	-0.762656	0.673514
C123	C	1.711138	-0.429323	1.006848
C124	C	1.047697	-1.022647	0.337165
C125	C	1.381030	-0.689314	0.670498
C126	C	1.714363	-0.355980	1.003832
C127	C	1.002551	-0.985836	0.378750
C128	C	1.335884	-0.652502	0.712084
C129	C	1.669217	-0.319169	1.045417
C130	C	0.962966	-0.875891	0.415164
C131	C	1.296300	-0.542558	0.748498
C132	C	1.629633	-0.209224	1.081831
C133	C	1.005857	-0.910869	0.375667
C134	C	1.339191	-0.577536	0.709000
C135	C	1.672524	-0.244203	1.042334
C136	C	1.167289	-0.401401	0.403088
C137	C	1.500622	-0.068067	0.736422
C138	C	1.833956	0.265266	1.069755
C139	C	1.245247	-0.404669	0.406365
C140	C	1.578581	-0.071335	0.739698
C141	C	1.911914	0.261998	1.073031
C142	C	0.976708	-0.400740	0.578967
C143	C	1.310041	-0.067407	0.912300
C144	C	1.643375	0.265927	1.245634
C145	C	0.973452	-0.403726	0.657192
C146	C	1.306785	-0.070393	0.990526
C147	C	1.640118	0.262940	1.323859
C148	C	0.992581	-0.210571	0.387953
C149	C	1.325914	0.122763	0.721287
C150	C	1.659248	0.456096	1.054620
C151	C	0.996089	-0.132518	0.384780
C152	C	1.329422	0.200815	0.718113
C153	C	1.662756	0.534149	1.051447
C154	C	0.992003	-0.386702	0.212547
C155	C	1.325336	-0.053369	0.545881
C156	C	1.658669	0.279964	0.879214
C157	C	0.995403	-0.383524	0.134320
C158	C	1.328737	-0.050191	0.467653
C159	C	1.662070	0.283143	0.800987
C160	C	1.018793	-0.362103	0.694003
C161	C	1.352126	-0.028769	1.027336
C162	C	1.685459	0.304564	1.360670
C163	C	1.015725	-0.364906	0.767503
C164	C	1.349058	-0.031572	1.100837
C165	C	1.682391	0.301761	1.434170
C166	C	0.967319	-0.409336	0.804192
C167	C	1.300652	-0.076003	1.137525
C168	C	1.633986	0.257330	1.470859
C169	C	0.921973	-0.450962	0.767376
C170	C	1.255306	-0.117628	1.100709
C171	C	1.588640	0.215705	1.434043
C172	C	0.925038	-0.448154	0.693877
C173	C	1.258371	-0.114821	1.027210
C174	C	1.591705	0.218512	1.360543
C175	C	0.953123	-0.422342	1.024005
C176	C	1.286456	-0.089009	1.357338
C177	C	1.619789	0.244325	1.690672
C178	C	0.950063	-0.425148	1.097510
C179	C	1.283396	-0.091814	1.430843
C180	C	1.616729	0.241519	1.764176
C181	C	1.043814	-0.339090	1.097632
C182	C	1.377147	-0.005757	1.430965
C183	C	1.710480	0.327576	1.764298
C184	C	1.046877	-0.336290	1.024131
C185	C	1.380211	-0.002957	1.357464
C186	C	1.713544	0.330376	1.690798
C187	C	1.001529	-0.377913	0.987321
C188	C	1.334862	-0.044579	1.320655
C189	C	1.668196	0.288754	1.653988
N190	N	0.964183	-0.412204	0.879321
N191	N	1.297517	-0.078871	1.212655
N192	N	1.630850	0.254463	1.545988
N193	N	1.004662	-0.375041	0.912193
N194	N	1.337995	-0.041707	1.245526
N195	N	1.671328	0.291626	1.578860
H196	H	0.245016	-0.489674	0.491494
H197	H	0.578350	-0.156340	0.824828
H198	H	0.911683	0.176993	1.158161
F199	F	0.898537	-0.472436	1.136555
F200	F	1.231871	-0.139103	1.469888
F201	F	1.565204	0.194231	1.803221
F202	F	0.876778	-0.492454	0.654700
F203	F	1.210112	-0.159121	0.988034
F204	F	1.543445	0.174212	1.321367
F205	F	0.250893	-0.308177	0.309718
F206	F	0.584226	0.025156	0.643051
F207	F	0.917559	0.358489	0.976384
F208	F	0.567311	-0.473017	0.474806
F209	F	0.900644	-0.139684	0.808139
F210	F	1.233977	0.193650	1.141473
H211	H	0.911554	-1.125446	0.462685
H212	H	1.244888	-0.792112	0.796018
H213	H	1.578221	-0.458779	1.129352
F214	F	0.906123	-0.983191	0.467604
F215	F	1.239457	-0.649858	0.800937
F216	F	1.572790	-0.316525	1.134271
H217	H	0.591493	-0.292282	0.293803
H218	H	0.924826	0.041051	0.627136
H219	H	1.258159	0.374385	0.960469
H220	H	1.051411	-0.794364	0.333625
H221	H	1.384744	-0.461031	0.666959
H222	H	1.718077	-0.127698	1.000292
F223	F	0.869635	-0.802984	0.501126
F224	F	1.202969	-0.469650	0.834459
F225	F	1.536302	-0.136317	1.167793
H226	H	1.058212	-0.325924	0.664136
H227	H	1.391545	0.007409	0.997470
H228	H	1.724879	0.340742	1.330803
H229	H	0.887591	-0.660792	0.484502
H230	H	1.220924	-0.327458	0.817835
H231	H	1.554257	0.005875	1.151168
H232	H	1.045250	-0.881126	0.339361
H233	H	1.378583	-0.547793	0.672694
H234	H	1.711917	-0.214459	1.006027
F235	F	1.099196	-0.983776	0.289709
F236	F	1.432529	-0.650443	0.623043
F237	F	1.765862	-0.317110	0.956376
H238	H	1.081228	-1.125969	0.306326
H239	H	1.414561	-0.792636	0.639659
H240	H	1.747894	-0.459303	0.972992
H241	H	1.086296	-0.300112	0.994264
H242	H	1.419630	0.033221	1.327598
H243	H	1.752963	0.366555	1.660931
H244	H	0.377909	-0.495228	0.497049
H245	H	0.711243	-0.161895	0.830383
H246	H	1.044576	0.171438	1.163716
H247	H	0.391967	-0.325781	0.327352
H248	H	0.725300	0.007552	0.660685
H249	H	1.058633	0.340886	0.994019
H250	H	0.923575	-0.905641	0.451472
H251	H	1.256908	-0.572307	0.784805
H252	H	1.590241	-0.238974	1.118139
H253	H	0.724388	-0.297829	0.299356
H254	H	1.057721	0.035504	0.632689
H255	H	1.391054	0.368838	0.966023
F256	F	1.069365	-0.652182	0.316994
F257	F	1.402698	-0.318848	0.650328
F258	F	1.736031	0.014485	0.983661
H259	H	1.052648	-0.331013	0.797471
H260	H	1.385981	0.002320	1.130805
H261	H	1.719314	0.335654	1.464138
F262	F	1.092071	-0.294794	1.136812
F263	F	1.425405	0.038539	1.470145
F264	F	1.758738	0.371872	1.803479
H265	H	0.916207	-0.456245	0.994044
H266	H	1.249540	-0.122911	1.327377
H267	H	1.582874	0.210422	1.660711
H268	H	0.710321	-0.467281	0.469046
H269	H	1.043654	-0.133948	0.802379
H270	H	1.376988	0.199385	1.135713
F271	F	0.870453	-0.498245	0.806425
F272	F	1.203786	-0.164912	1.139758
F273	F	1.537120	0.168421	1.473091
