data_functionalizedCrystal
_audit_creation_method	'MofGen! by Chris Wilmer'
_symmetry_space_group_name_H-M	'P1'
_symmetry_Int_Tables_number	1
_symmetry_cell_setting	triclinic
loop_
_symmetry_equiv_pos_as_xyz
  x,y,z
_cell_length_a	23.204082
_cell_length_b	23.204045
_cell_length_c	23.204116
_cell_angle_alpha	89.997122
_cell_angle_beta	59.999658
_cell_angle_gamma	60.000252
loop_
_atom_site_label
_atom_site_type_symbol
_atom_site_fract_x
_atom_site_fract_y
_atom_site_fract_z
O1	O	-0.412480	-0.491202	0.017139
O2	O	-0.294471	-0.407395	-0.017066
O3	O	-0.412477	-0.407394	0.100940
O4	O	-0.294474	-0.491202	-0.100867
O5	O	-0.508322	-0.311547	0.100932
O6	O	-0.390316	-0.311548	-0.017074
O7	O	-0.508325	-0.395354	0.017130
Zn8	Zn	-0.464538	-0.338233	0.000027
Zn9	Zn	-0.338258	-0.464516	0.000038
O10	O	-0.390319	-0.395355	-0.100875
C11	C	-0.285813	-0.206296	-0.024834
C12	C	-0.326273	-0.130276	-0.019933
C13	C	-0.320165	-0.241299	-0.025326
C14	C	-0.181449	-0.310658	-0.024841
C15	C	-0.110323	-0.346222	-0.019948
C16	C	-0.215961	-0.345503	-0.025334
C17	C	-0.285806	-0.310659	-0.024845
C18	C	-0.326259	-0.346224	-0.019956
C19	C	-0.215967	-0.241299	-0.025322
C20	C	-0.590036	-0.658548	0.035863
C21	C	-0.549583	-0.734565	0.030975
C22	C	-0.659879	-0.623548	0.036347
C23	C	-0.590031	-0.554191	0.035854
C24	C	-0.549574	-0.518629	0.030957
C25	C	-0.659874	-0.519350	0.036338
C26	C	-0.694390	-0.554193	0.035854
C27	C	-0.765512	-0.518632	0.030956
C28	C	-0.555679	-0.623547	0.036347
C29	C	-0.822971	-0.489904	0.026998
C30	C	-0.516901	-0.795979	0.027025
C31	C	-0.516887	-0.489899	0.026999
C32	C	-0.895056	-0.453862	0.022034
C33	C	-0.475900	-0.873026	0.022070
C34	C	-0.475880	-0.453855	0.022035
C35	C	-0.212779	-0.554187	-0.445760
C36	C	-0.253235	-0.518625	-0.481325
C37	C	-0.142938	-0.623543	-0.480599
C38	C	-0.212778	-0.554188	-0.341402
C39	C	-0.253233	-0.518627	-0.265386
C40	C	-0.142937	-0.623544	-0.376399
C41	C	-0.108425	-0.658544	-0.445754
C42	C	-0.037304	-0.734561	-0.481312
C43	C	-0.247133	-0.519345	-0.376406
C44	C	0.020154	-0.795975	-0.510038
C45	C	-0.285919	-0.489895	-0.510057
C46	C	-0.285917	-0.489898	-0.203972
C47	C	0.092238	-0.873022	-0.546077
C48	C	-0.326923	-0.453852	-0.546102
C49	C	-0.326919	-0.453855	-0.126925
O50	O	0.083787	-0.395358	0.017138
O51	O	-0.083832	-0.311543	-0.017055
O52	O	-0.083824	-0.311562	0.100946
O53	O	0.083780	-0.395339	-0.100863
O54	O	-0.083819	-0.407416	0.100936
O55	O	-0.083827	-0.407396	-0.017065
O56	O	0.083793	-0.491212	0.017128
Zn57	Zn	-0.000016	-0.464523	0.000029
Zn58	Zn	-0.000023	-0.338232	0.000043
O59	O	0.083785	-0.491193	-0.100873
O60	O	-0.508348	0.100920	0.017171
O61	O	-0.390334	-0.100894	-0.017043
O62	O	-0.508336	0.017095	0.100966
O63	O	-0.390345	-0.017070	-0.100839
O64	O	-0.412488	0.017097	0.100970
O65	O	-0.294485	-0.100893	-0.017040
O66	O	-0.412499	0.100921	0.017174
Zn67	Zn	-0.338274	0.000014	0.000068
Zn68	Zn	-0.464559	0.000013	0.000063
O69	O	-0.294497	-0.017068	-0.100835
O70	O	0.280999	-1.100885	-0.592525
O71	O	0.113393	-0.899077	-0.508728
O72	O	0.113387	-1.017080	-0.508721
O73	O	0.281004	-0.982882	-0.592532
O74	O	0.113385	-1.017077	-0.604570
O75	O	0.113390	-0.899075	-0.604578
O76	O	0.280996	-1.100883	-0.688375
Zn77	Zn	0.197193	-0.999978	-0.661694
Zn78	Zn	0.197196	-0.999981	-0.535408
O79	O	0.281002	-0.982880	-0.688382
O80	O	-0.412477	-0.407395	-0.688417
O81	O	-0.294477	-0.491199	-0.604602
O82	O	-0.412481	-0.491200	-0.604602
O83	O	-0.294472	-0.407394	-0.688417
O84	O	-0.508328	-0.395351	-0.508758
O85	O	-0.390324	-0.395350	-0.508758
O86	O	-0.508324	-0.311546	-0.592573
Zn87	Zn	-0.464541	-0.338230	-0.535448
Zn88	Zn	-0.338259	-0.464515	-0.661727
O89	O	-0.390319	-0.311545	-0.592573
C90	C	-0.621344	-0.206306	0.310685
C91	C	-0.692465	-0.130289	0.346242
C92	C	-0.586831	-0.241307	0.345531
C93	C	-0.516990	-0.310663	0.206334
C94	C	-0.476535	-0.346224	0.130317
C95	C	-0.482636	-0.345505	0.241338
C96	C	-0.516990	-0.310663	0.310693
C97	C	-0.476535	-0.346224	0.346258
C98	C	-0.586831	-0.241307	0.241330
C99	C	-0.285801	-0.310705	0.310685
C100	C	-0.326254	-0.346273	0.346239
C101	C	-0.320160	-0.241350	0.345532
C102	C	-0.181443	-0.310691	0.206337
C103	C	-0.110316	-0.346245	0.130322
C104	C	-0.215961	-0.241336	0.241343
C105	C	-0.285807	-0.206342	0.310696
C106	C	-0.326267	-0.130326	0.346262
C107	C	-0.215954	-0.345540	0.241331
C108	C	-0.516987	0.024845	0.310719
C109	C	-0.476528	0.019946	0.346281
C110	C	-0.586828	0.025326	0.345560
C111	C	-0.516995	0.024862	0.206365
C112	C	-0.476545	0.019980	0.130349
C113	C	-0.586836	0.025343	0.241363
C114	C	-0.621344	0.024844	0.310717
C115	C	-0.692465	0.019943	0.346276
C116	C	-0.482637	0.025344	0.241366
C117	C	0.409980	-0.658502	-0.445755
C118	C	0.450440	-0.734518	-0.481321
C119	C	0.444334	-0.623495	-0.480590
C120	C	0.305616	-0.554153	-0.341395
C121	C	0.234489	-0.518599	-0.265380
C122	C	0.340128	-0.519304	-0.376389
C123	C	0.409974	-0.554140	-0.445743
C124	C	0.450428	-0.518571	-0.481297
C125	C	0.340134	-0.623508	-0.376401
C126	C	0.483111	-0.489836	-0.510020
C127	C	0.483129	-0.795932	-0.510054
C128	C	0.177027	-0.489876	-0.203967
C129	C	0.524114	-0.453787	-0.546055
C130	C	0.524137	-0.872979	-0.546102
C131	C	0.104938	-0.453840	-0.126922
O132	O	-0.412518	0.100876	0.395394
O133	O	-0.294489	-0.100934	0.311584
O134	O	-0.412514	0.017060	0.311594
O135	O	-0.294493	-0.017118	0.395384
O136	O	-0.508344	0.017040	0.407447
O137	O	-0.390319	-0.100954	0.407437
O138	O	-0.508349	0.100856	0.491247
Zn139	Zn	-0.464549	-0.000052	0.464560
Zn140	Zn	-0.338288	-0.000026	0.338271
O141	O	-0.390324	-0.017138	0.491237
C142	C	-0.108470	-0.035723	-0.445718
C143	C	-0.037350	-0.030822	-0.481277
C144	C	-0.142987	-0.036205	-0.480560
C145	C	-0.212819	-0.035740	-0.341365
C146	C	-0.253268	-0.030859	-0.265349
C147	C	-0.247177	-0.036223	-0.376365
C148	C	-0.212828	-0.035724	-0.445719
C149	C	-0.253288	-0.030824	-0.481280
C150	C	-0.142978	-0.036222	-0.376364
C151	C	-0.285976	-0.026864	-0.510009
C152	C	0.020107	-0.026861	-0.510005
C153	C	-0.285948	-0.026913	-0.203936
C154	C	-0.326984	-0.021898	-0.546051
C155	C	0.092191	-0.021893	-0.546046
C156	C	-0.326946	-0.021965	-0.126891
H157	H	-0.688752	-0.462366	0.037114
C158	C	-0.396134	-0.203317	-0.026318
H159	H	-0.411771	-0.156898	-0.026501
H160	H	-0.384015	-0.228666	-0.067453
H161	H	-0.439503	-0.200938	0.014420
C162	C	-0.698909	-0.661505	0.037418
H163	H	-0.668330	-0.707913	0.037632
H164	H	-0.753265	-0.636116	0.078572
H165	H	-0.699196	-0.663909	-0.003300
C166	C	-0.323096	-0.037289	-0.338412
H167	H	-0.338704	-0.037503	-0.369210
H168	H	-0.310919	-0.078440	-0.325202
H169	H	-0.366506	0.003431	-0.297413
H170	H	-0.615728	0.026142	0.213264
C171	C	-0.479759	-0.661501	0.037411
H172	H	-0.464152	-0.630701	0.037627
H173	H	-0.491933	-0.674714	0.078560
H174	H	-0.436348	-0.702497	-0.003312
C175	C	-0.103914	-0.661506	-0.338439
H176	H	-0.134488	-0.630713	-0.292033
H177	H	-0.103623	-0.702510	-0.336037
H178	H	-0.049555	-0.674703	-0.363826
H179	H	-0.114048	-0.651636	-0.537589
C180	C	-0.176945	-0.203339	-0.026380
H181	H	-0.207523	-0.156930	-0.026593
H182	H	-0.176649	-0.200946	0.014331
H183	H	-0.122588	-0.228721	-0.067541
C184	C	-0.323048	-0.442363	-0.338449
H185	H	-0.338661	-0.426532	-0.369244
H186	H	-0.366453	-0.439669	-0.297443
H187	H	-0.310854	-0.413394	-0.325255
H188	H	-0.114124	-0.036954	-0.348248
H189	H	-0.426429	-0.402487	0.213234
C190	C	-0.625859	-0.203359	0.422517
H191	H	-0.595289	-0.234163	0.438349
H192	H	-0.626148	-0.162356	0.425222
H193	H	-0.680219	-0.190160	0.451479
H194	H	-0.114103	-0.036982	-0.537544
C195	C	-0.625846	-0.203348	0.203363
H196	H	-0.672468	-0.156941	0.234153
H197	H	-0.587530	-0.200951	0.162359
H198	H	-0.641622	-0.228733	0.190165
C199	C	-0.176935	-0.203372	0.203397
H200	H	-0.130307	-0.234161	0.156992
H201	H	-0.215240	-0.162364	0.200994
H202	H	-0.161168	-0.190180	0.228795
H203	H	-0.187067	-0.402492	-0.026126
C204	C	-0.396085	-0.203392	0.422510
H205	H	-0.411687	-0.156990	0.438341
H206	H	-0.439490	-0.200982	0.425195
H207	H	-0.383907	-0.228783	0.451485
C208	C	-0.176936	-0.422516	0.203360
H209	H	-0.207513	-0.438350	0.234146
H210	H	-0.176647	-0.425192	0.162356
H211	H	-0.122576	-0.451494	0.190159
H212	H	-0.426437	0.026132	0.213269
C213	C	-0.625835	0.026360	0.422534
H214	H	-0.595249	0.026562	0.438361
H215	H	-0.680196	0.067506	0.451516
H216	H	-0.626109	-0.014366	0.425204
C217	C	0.301106	-0.442325	-0.338426
H218	H	0.254481	-0.426499	-0.292021
H219	H	0.339417	-0.439634	-0.336022
H220	H	0.285334	-0.413349	-0.363812
C221	C	0.520255	-0.661441	-0.557569
H222	H	0.535853	-0.630635	-0.573392
H223	H	0.563665	-0.702439	-0.560262
H224	H	0.508076	-0.674646	-0.586547
H225	H	0.311264	-0.651622	-0.348303
