data_functionalizedCrystal
_audit_creation_method	'MofGen! by Chris Wilmer'
_symmetry_space_group_name_H-M	'P1'
_symmetry_Int_Tables_number	1
_symmetry_cell_setting	triclinic
loop_
_symmetry_equiv_pos_as_xyz
  x,y,z
_cell_length_a	21.295418
_cell_length_b	29.839134
_cell_length_c	21.295411
_cell_angle_alpha	90.025746
_cell_angle_beta	89.980044
_cell_angle_gamma	89.994288
loop_
_atom_site_label
_atom_site_type_symbol
_atom_site_fract_x
_atom_site_fract_y
_atom_site_fract_z
Zn1	Zn	-0.251045	-0.686818	-0.355939
Zn2	Zn	-0.356297	-0.686752	-0.250667
Zn3	Zn	-0.251006	-0.611684	-0.250681
Zn4	Zn	-0.356241	-0.611667	-0.355897
O5	O	-0.303647	-0.649230	-0.303296
O6	O	-0.265047	-0.749676	-0.341986
O7	O	-0.342337	-0.676774	-0.162580
O8	O	-0.162922	-0.621686	-0.264668
O9	O	-0.342375	-0.749628	-0.264643
O10	O	-0.162951	-0.676886	-0.342000
O11	O	-0.264980	-0.621622	-0.162590
O12	O	-0.264925	-0.548815	-0.264627
O13	O	-0.342279	-0.621656	-0.443992
O14	O	-0.342241	-0.548802	-0.341928
O15	O	-0.264992	-0.676869	-0.444022
O16	O	-0.444379	-0.676757	-0.264602
O17	O	-0.444337	-0.621592	-0.341914
C18	C	-0.303573	-0.532508	-0.303275
C19	C	-0.303557	-0.482573	-0.303281
C20	C	-0.263437	-0.126007	-0.343631
C21	C	-0.263397	-0.313680	-0.343622
O22	O	-0.229224	-0.337963	-0.377937
N23	N	-0.303590	-0.337128	-0.303291
C24	C	-0.343799	-0.313655	-0.262962
O25	O	-0.377989	-0.337905	-0.228662
C26	C	-0.343842	-0.125983	-0.262974
C27	C	-0.303642	-0.102537	-0.303304
C28	C	-0.223241	-0.102562	-0.383958
C29	C	-0.223249	-0.055646	-0.383957
C30	C	-0.263454	-0.032176	-0.343630
C31	C	-0.303650	-0.055622	-0.303303
C32	C	-0.384053	-0.102511	-0.222649
C33	C	-0.384061	-0.055589	-0.222656
C34	C	-0.343861	-0.032144	-0.262986
C35	C	-0.343862	0.014764	-0.262975
N36	N	-0.303669	0.038211	-0.303306
C37	C	-0.263465	0.014742	-0.343634
C38	C	-0.343772	-0.412186	-0.262957
C39	C	-0.343761	-0.459103	-0.262953
C40	C	-0.263360	-0.459125	-0.343615
C41	C	-0.263369	-0.412207	-0.343615
C42	C	-0.303580	-0.388738	-0.303289
C43	C	-0.263485	0.113267	-0.343629
C44	C	-0.263494	0.160187	-0.343623
C45	C	-0.343897	0.160205	-0.262964
C46	C	-0.343885	0.113289	-0.262967
C47	C	-0.303677	0.089822	-0.303305
O48	O	-0.378022	0.039075	-0.228683
O49	O	-0.229290	0.039000	-0.377939
C50	C	-0.263429	-0.172923	-0.343632
C51	C	-0.303626	-0.196368	-0.303305
C52	C	-0.343830	-0.172898	-0.262978
C53	C	-0.303614	-0.243286	-0.303301
C54	C	-0.263410	-0.266756	-0.343628
C55	C	-0.223217	-0.243308	-0.383960
C56	C	-0.223225	-0.196392	-0.383959
C57	C	-0.384022	-0.196346	-0.222646
C58	C	-0.384011	-0.243262	-0.222650
C59	C	-0.343806	-0.266732	-0.262977
C60	C	-0.467199	-0.649178	-0.303266
C61	C	-0.537167	-0.649196	-0.303274
C62	C	-1.036625	-0.678063	-0.263141
C63	C	-0.970883	-0.678045	-0.263126
C64	C	-0.938006	-0.649294	-0.303340
C65	C	-0.970878	-0.620548	-0.343560
C66	C	-1.036619	-0.620563	-0.343569
N67	N	-0.834761	-0.645804	-0.358423
N68	N	-0.772310	-0.645793	-0.358412
C69	C	-0.739932	-0.649247	-0.303314
N70	N	-0.772364	-0.652721	-0.248225
N71	N	-0.834821	-0.652735	-0.248236
C72	C	-0.866721	-0.649274	-0.303334
C73	C	-0.635783	-0.677969	-0.263077
C74	C	-0.570039	-0.677949	-0.263061
C75	C	-0.570035	-0.620454	-0.343500
C76	C	-0.635777	-0.620472	-0.343511
C77	C	-0.668647	-0.649232	-0.303300
C78	C	-0.139457	-0.649295	-0.303340
C79	C	-0.069489	-0.649323	-0.303359
C80	C	-0.303634	-0.649268	-0.467486
C81	C	-0.303628	-0.649283	-0.537454
C82	C	-0.303708	0.233591	-0.303310
C83	C	-0.303698	0.183657	-0.303296
C84	C	-0.263383	-0.678032	-0.570338
C85	C	-0.263356	-0.678031	-0.636081
C86	C	-0.303585	-0.649287	-0.668937
C87	C	-0.343833	-0.620533	-0.636045
C88	C	-0.343854	-0.620531	-0.570304
N89	N	-0.358651	-0.645823	-0.772154
N90	N	-0.358628	-0.645827	-0.834605
C91	C	-0.303521	-0.649290	-0.867012
N92	N	-0.248436	-0.652757	-0.834608
N93	N	-0.248459	-0.652755	-0.772150
C94	C	-0.303566	-0.649285	-0.740222
C95	C	-0.263243	-0.678039	-0.971181
C96	C	-0.263215	-0.678035	-1.036925
C97	C	-0.343697	-0.620540	-1.036888
C98	C	-0.343720	-0.620541	-0.971146
C99	C	-0.303494	-0.649293	-0.938296
C100	C	-0.303615	-0.649219	-0.139744
C101	C	-0.303443	-0.649290	-0.069777
H102	H	-0.230623	-0.478243	-0.376450
O103	O	-0.224046	-0.705897	-1.068896
C104	C	-0.183365	-0.680336	-1.106914
H105	H	-0.179463	-0.644954	-1.087080
H106	H	-0.202804	-0.678781	-1.156740
C107	C	-0.122731	-0.745766	-1.132291
C108	C	-0.117935	-0.702311	-1.107927
H109	H	-0.082371	-0.759322	-1.132918
H110	H	-0.150140	-0.762988	-1.106679
H111	H	-0.138933	-0.744465	-1.173810
H112	H	-0.101741	-0.703614	-1.066406
H113	H	-0.090522	-0.685091	-1.133532
O114	O	-0.939018	-0.705943	-0.223972
C115	C	-0.955102	-0.696150	-0.161217
H116	H	-1.002847	-0.678893	-0.159889
H117	H	-0.918126	-0.673052	-0.139979
C118	C	-0.899485	-0.761159	-0.124785
C119	C	-0.958128	-0.739968	-0.123153
H120	H	-0.901349	-0.788187	-0.101304
H121	H	-0.888646	-0.767756	-0.167064
H122	H	-0.868677	-0.741907	-0.107087
H123	H	-0.988932	-0.759218	-0.140858
H124	H	-0.968972	-0.733375	-0.080876
O125	O	-0.382796	-0.592574	-1.068699
C126	C	-0.418337	-0.567209	-1.025574
H127	H	-0.392569	-0.565664	-0.978710
H128	H	-0.466159	-0.583642	-1.018592
C129	C	-0.459019	-0.521290	-1.108760
C130	C	-0.427368	-0.519389	-1.051203
H131	H	-0.464593	-0.491792	-1.124570
H132	H	-0.435076	-0.538380	-1.137815
H133	H	-0.498868	-0.534985	-1.102934
H134	H	-0.387518	-0.505699	-1.057030
H135	H	-0.451304	-0.502295	-1.022149
O136	O	-0.382851	-0.592680	-0.939131
C137	C	-0.423549	-0.618241	-0.901130
H138	H	-0.401372	-0.652295	-0.891300
H139	H	-0.470192	-0.623159	-0.926469
C140	C	-0.462191	-0.551690	-0.850742
C141	C	-0.434951	-0.593515	-0.838664
H142	H	-0.469227	-0.536438	-0.812211
H143	H	-0.434774	-0.534469	-0.876345
H144	H	-0.501058	-0.555795	-0.871860
H145	H	-0.396081	-0.589409	-0.817554
H146	H	-0.462361	-0.610735	-0.813056
H147	H	-0.190479	-0.262425	-0.416793
O148	O	-0.423096	-0.173621	-0.183408
C149	C	-0.458576	-0.204383	-0.147827
H150	H	-0.432780	-0.237825	-0.145703
H151	H	-0.506419	-0.209381	-0.170790
C152	C	-0.499236	-0.144984	-0.083418
C153	C	-0.467549	-0.186057	-0.080805
H154	H	-0.504774	-0.133679	-0.042076
H155	H	-0.475334	-0.124258	-0.107391
H156	H	-0.539101	-0.149154	-0.102557
H157	H	-0.427682	-0.181885	-0.061673
H158	H	-0.491445	-0.206781	-0.056827
H159	H	-0.416808	-0.036483	-0.189819
O160	O	-0.224245	-0.705972	-0.538527
C161	C	-0.188728	-0.731353	-0.581654
H162	H	-0.186524	-0.712955	-0.628506
H163	H	-0.211801	-0.765464	-0.588663
C164	C	-0.124451	-0.760453	-0.498460
C165	C	-0.121739	-0.737853	-0.556003
H166	H	-0.083129	-0.764464	-0.482637
H167	H	-0.148380	-0.743354	-0.469404
H168	H	-0.143681	-0.788876	-0.504309
H169	H	-0.102516	-0.709428	-0.550152
H170	H	-0.097804	-0.754947	-0.585058
H171	H	-0.230756	0.179274	-0.376464
H172	H	-0.662547	-0.701387	-0.230334
O173	O	-0.938915	-0.592685	-0.382692
C174	C	-0.900843	-0.618239	-0.423370
H175	H	-0.920636	-0.653624	-0.427310
H176	H	-0.851028	-0.619785	-0.403902
C177	C	-0.875503	-0.552805	-0.483939
C178	C	-0.899815	-0.596265	-0.488783
H179	H	-0.874866	-0.539250	-0.524289
H180	H	-0.901150	-0.535588	-0.456533
H181	H	-0.833992	-0.554099	-0.467714
H182	H	-0.941328	-0.594969	-0.505001
H183	H	-0.874175	-0.613481	-0.516194
H184	H	-0.190517	-0.036561	-0.416801
O185	O	-0.382920	-0.389441	-0.223808
C186	C	-0.445676	-0.400911	-0.237461
H187	H	-0.447002	-0.434982	-0.261663
H188	H	-0.466939	-0.374516	-0.269781
C189	C	-0.482084	-0.361222	-0.146298
C190	C	-0.483714	-0.403071	-0.176018
H191	H	-0.505549	-0.362553	-0.108398
H192	H	-0.439805	-0.353494	-0.137100
H193	H	-0.499802	-0.339231	-0.173238
H194	H	-0.465989	-0.425061	-0.149081
H195	H	-0.525991	-0.410804	-0.185209
O196	O	-0.224367	0.090545	-0.382832
C197	C	-0.188906	0.121307	-0.418432
H198	H	-0.186703	0.154758	-0.392646
H199	H	-0.212027	0.126283	-0.466199
C200	C	-0.124622	0.061916	-0.459295
C201	C	-0.121911	0.103001	-0.427622
H202	H	-0.083297	0.050624	-0.464967
H203	H	-0.148514	0.041191	-0.435313
H204	H	-0.143892	0.066069	-0.499098
H205	H	-0.102649	0.098847	-0.387817
H206	H	-0.098015	0.123725	-0.451598
O207	O	-0.383044	-0.592655	-0.538385
C208	C	-0.445783	-0.602442	-0.554469
H209	H	-0.448976	-0.638329	-0.572567
H210	H	-0.462210	-0.578348	-0.592611
C211	C	-0.483890	-0.553123	-0.473837
C212	C	-0.487813	-0.597202	-0.496060
H213	H	-0.509817	-0.549889	-0.437809
H214	H	-0.441622	-0.546528	-0.463002
H215	H	-0.497578	-0.533049	-0.505628
H216	H	-0.474118	-0.617274	-0.464272
H217	H	-0.530080	-0.603800	-0.506888
O218	O	-0.224256	-0.706014	-0.939240
C219	C	-0.260128	-0.735009	-0.901223
H220	H	-0.309702	-0.737763	-0.921037
H221	H	-0.262305	-0.721120	-0.851388
C222	C	-0.168520	-0.778343	-0.875910
C223	C	-0.229405	-0.781728	-0.900249
H224	H	-0.149568	-0.807161	-0.875307
H225	H	-0.144351	-0.758807	-0.901521
H226	H	-0.170342	-0.766768	-0.834384
H227	H	-0.227582	-0.793298	-0.941777
H228	H	-0.253573	-0.801267	-0.874645
H229	H	-0.543281	-0.701351	-0.230307
O230	O	-0.382845	-0.592548	-0.667931
C231	C	-0.369075	-0.547778	-0.651833
H232	H	-0.318790	-0.545528	-0.633761
H233	H	-0.402828	-0.536019	-0.613665
C234	C	-0.438124	-0.520558	-0.732412
C235	C	-0.376361	-0.517795	-0.710222
H236	H	-0.442621	-0.502063	-0.768428
H237	H	-0.447404	-0.550721	-0.743257
H238	H	-0.466245	-0.510760	-0.700600
H239	H	-0.348243	-0.527598	-0.742030
H240	H	-0.367077	-0.487633	-0.699384
H241	H	-1.063376	-0.597160	-0.376322
H242	H	-0.543267	-0.597042	-0.376240
O243	O	-0.184123	-0.125286	-0.423154
C244	C	-0.148665	-0.094523	-0.458754
H245	H	-0.146468	-0.061070	-0.432971
H246	H	-0.171783	-0.089550	-0.506524
C247	C	-0.084369	-0.153910	-0.499609
C248	C	-0.081666	-0.112824	-0.467939
H249	H	-0.043042	-0.165199	-0.505277
H250	H	-0.108259	-0.174636	-0.475626
H251	H	-0.103637	-0.149761	-0.539413
H252	H	-0.062406	-0.116975	-0.428132
H253	H	-0.057772	-0.092099	-0.491915
O254	O	-0.667607	-0.592544	-0.382643
C255	C	-0.624495	-0.567154	-0.418123
H256	H	-0.577620	-0.585543	-0.420321
H257	H	-0.617535	-0.533041	-0.395023
C258	C	-0.707696	-0.538073	-0.482414
C259	C	-0.650125	-0.560661	-0.485119
H260	H	-0.723506	-0.534066	-0.523740
H261	H	-0.736742	-0.555177	-0.458509
H262	H	-0.701888	-0.509648	-0.463162
H263	H	-0.655934	-0.589087	-0.504364
H264	H	-0.621080	-0.543561	-0.509029
H265	H	-0.416788	-0.121592	-0.189808
O266	O	-0.224303	-0.389503	-0.382854
C267	C	-0.188806	-0.420285	-0.418432
H268	H	-0.214587	-0.453731	-0.420556
H269	H	-0.140963	-0.425263	-0.395464
C270	C	-0.148169	-0.360925	-0.482840
C271	C	-0.179836	-0.402003	-0.485454
H272	H	-0.142633	-0.349647	-0.524182
H273	H	-0.172082	-0.340186	-0.458870
H274	H	-0.108304	-0.365079	-0.463698
H275	H	-0.219704	-0.397847	-0.504588
H276	H	-0.155930	-0.422741	-0.509429
H277	H	-0.376614	0.094199	-0.230122
H278	H	-0.376489	-0.478189	-0.230106
O279	O	-0.383018	0.183029	-0.223883
C280	C	-0.423714	0.210162	-0.259660
H281	H	-0.427666	0.196002	-0.309229
H282	H	-0.404256	0.245719	-0.261869
C283	C	-0.484258	0.228292	-0.167916
C284	C	-0.489117	0.210897	-0.228796
H285	H	-0.524601	0.228747	-0.148877
H286	H	-0.456839	0.210013	-0.143812
H287	H	-0.468041	0.257920	-0.169765
H288	H	-0.505327	0.181267	-0.226946
H289	H	-0.516540	0.229171	-0.252900
H290	H	-0.190490	-0.177307	-0.416800
H291	H	-1.063384	-0.701480	-0.230396
O292	O	-0.224197	-0.705897	-0.668062
C293	C	-0.183519	-0.680341	-0.706091
H294	H	-0.179604	-0.644960	-0.686259
H295	H	-0.202971	-0.678784	-0.755912
C296	C	-0.122908	-0.745779	-0.731482
C297	C	-0.118095	-0.702324	-0.707120
H298	H	-0.082551	-0.759340	-0.732120
H299	H	-0.150314	-0.762997	-0.705863
H300	H	-0.139119	-0.744476	-0.772997
H301	H	-0.101891	-0.703629	-0.665604
H302	H	-0.090684	-0.685107	-0.732732
H303	H	-0.416745	-0.262347	-0.189803
