data_functionalizedCrystal
_audit_creation_method	'MofGen! by Chris Wilmer'
_symmetry_space_group_name_H-M	'P1'
_symmetry_Int_Tables_number	1
_symmetry_cell_setting	triclinic
loop_
_symmetry_equiv_pos_as_xyz
  x,y,z
_cell_length_a	17.699083
_cell_length_b	10.540539
_cell_length_c	16.776229
_cell_angle_alpha	89.995514
_cell_angle_beta	89.998886
_cell_angle_gamma	83.904253
loop_
_atom_site_label
_atom_site_type_symbol
_atom_site_fract_x
_atom_site_fract_y
_atom_site_fract_z
O1	O	1.005122	0.160520	-0.066173
O2	O	0.784880	0.181404	-0.066198
O3	O	0.900026	-0.013836	-0.066184
O4	O	0.889976	0.355761	-0.066187
O5	O	0.900010	-0.013848	0.066393
O6	O	0.784864	0.181392	0.066378
O7	O	1.005107	0.160508	0.066404
Zn8	Zn	0.894983	0.170948	0.087440
Zn9	Zn	0.895003	0.170964	-0.087235
O10	O	0.889961	0.355749	0.066389
C11	C	0.756670	0.180650	0.000087
C12	C	0.672637	0.178405	0.000077
C13	C	0.624761	0.293007	0.000076
C14	C	0.545804	0.290890	0.000086
C15	C	0.514725	0.174170	0.000092
C16	C	0.562607	0.059559	0.000095
C17	C	0.641562	0.061677	0.000090
C18	C	0.244188	0.051014	0.000115
C19	C	0.165226	0.048904	0.000117
C20	C	0.148430	0.280227	0.000111
C21	C	0.227386	0.282345	0.000106
C22	C	0.275261	0.167735	0.000113
C23	C	0.360875	0.170032	0.000104
C24	C	0.429112	0.171872	0.000096
C25	C	0.899264	-0.061131	0.000103
C26	C	0.897009	-0.202038	0.000098
C27	C	0.810610	-0.383885	-0.000209
C28	C	0.812896	-0.237308	0.000089
C29	C	0.937480	-0.264443	0.075811
C30	C	0.934609	-0.410935	0.075874
C31	C	0.936337	-0.411471	-0.074890
C32	C	0.937112	-0.264503	-0.075891
C33	C	1.033316	0.161263	0.000117
C34	C	1.117349	0.163508	0.000122
C35	C	0.890722	0.403044	0.000101
C36	C	0.892977	0.543951	0.000100
N37	N	0.894974	0.170937	0.206652
N38	N	0.895018	0.170966	-0.206446
C39	C	0.945977	0.084520	0.248375
C40	C	0.945981	0.084519	0.331827
C41	C	0.894986	0.170942	0.373555
C42	C	0.843978	0.257363	0.331825
C43	C	0.843971	0.257357	0.248375
C44	C	0.844005	0.257388	0.668372
C45	C	0.844018	0.257390	0.751829
C46	C	0.946016	0.084550	0.751825
C47	C	0.946009	0.084544	0.668374
C48	C	0.894998	0.170960	0.626652
C49	C	0.894993	0.170958	0.536164
C50	C	0.894994	0.170950	0.464041
H51	H	0.506826	0.384211	0.000085
C52	C	1.002072	-0.010549	0.202482
H53	H	1.032442	-0.062023	0.239287
H54	H	1.033819	0.035040	0.169919
H55	H	0.974554	-0.063338	0.169938
C56	C	0.787871	0.352416	0.202475
H57	H	0.795165	0.340027	0.146799
H58	H	0.796544	0.437118	0.216142
H59	H	0.737287	0.338726	0.216160
C60	C	1.018410	-0.476767	-0.075577
H61	H	1.044326	-0.449446	-0.121022
H62	H	1.017638	-0.566688	-0.077521
H63	H	1.043903	-0.454429	-0.028608
H64	H	0.802489	0.327768	0.785802
C65	C	0.765897	-0.423862	0.072720
H66	H	0.797209	-0.484338	0.103358
H67	H	0.722131	-0.460936	0.055309
H68	H	0.750781	-0.350969	0.104497
C69	C	1.002101	-0.010525	0.622479
H70	H	1.032473	-0.062002	0.659281
H71	H	1.033847	0.035064	0.589914
H72	H	0.974581	-0.063312	0.589936
H73	H	0.777390	-0.411872	-0.054504
C74	C	0.261573	0.410733	0.000098
H75	H	0.315453	0.395580	0.000088
H76	H	0.245185	0.457910	0.046329
H77	H	0.245180	0.457910	-0.046141
C78	C	0.296844	-0.075048	0.000111
H79	H	0.348319	-0.057079	0.000115
H80	H	0.287352	-0.122911	-0.046121
H81	H	0.287355	-0.122924	0.046349
H82	H	0.537295	-0.035477	0.000111
C83	C	0.658942	0.421401	0.000070
H84	H	0.619118	0.489350	0.000078
H85	H	0.689392	0.427044	-0.046164
H86	H	0.689394	0.427031	0.046306
C87	C	1.002091	-0.010528	0.377720
H88	H	1.032469	-0.061985	0.340917
H89	H	0.974594	-0.063318	0.410284
H90	H	1.033842	0.035089	0.410264
C91	C	1.019959	-0.233309	-0.082059
H92	H	1.031228	-0.181558	-0.038172
H93	H	1.026617	-0.188838	-0.130378
H94	H	1.053150	-0.310298	-0.081411
C95	C	0.899575	-0.453408	-0.152415
H96	H	0.926597	-0.425562	-0.196938
H97	H	0.848217	-0.416771	-0.154748
H98	H	0.901240	-0.543777	-0.153387
H99	H	0.802453	0.327726	0.365804
C100	C	0.769562	-0.180099	0.073519
H101	H	0.770805	-0.090215	0.073948
H102	H	0.792831	-0.215771	0.120617
H103	H	0.718304	-0.198998	0.071285
H104	H	0.139925	-0.046149	0.000122
C105	C	0.787918	0.352471	0.622485
H106	H	0.795212	0.340095	0.566808
H107	H	0.796609	0.437161	0.636162
H108	H	0.737328	0.338809	0.636164
H109	H	0.109440	0.373548	0.000109
H110	H	0.987549	0.014181	0.785804
C111	C	0.694229	-0.064381	0.000090
H112	H	0.745703	-0.046404	0.000095
H113	H	0.684742	-0.112254	-0.046139
H114	H	0.684741	-0.112249	0.046332
C115	C	1.016323	-0.477244	0.080545
H116	H	1.015123	-0.567139	0.080613
H117	H	1.039766	-0.452155	0.128116
H118	H	1.044486	-0.453354	0.035779
H119	H	0.999250	-0.243219	0.078633
C120	C	0.769880	-0.178949	-0.073228
H121	H	0.771226	-0.089085	-0.073145
H122	H	0.718591	-0.197727	-0.071365
H123	H	0.793297	-0.214022	-0.120411
H124	H	0.904687	-0.438592	0.132464
C125	C	0.899488	-0.206224	0.151920
H126	H	0.924382	-0.244604	0.197420
H127	H	0.847502	-0.221180	0.152594
H128	H	0.903151	-0.116966	0.152704
C129	C	0.897170	-0.208462	-0.151560
H130	H	0.856227	-0.147246	-0.136912
H131	H	0.878224	-0.274954	-0.181289
H132	H	0.932419	-0.168582	-0.183154
