data_functionalizedCrystal
_audit_creation_method	'MofGen! by Chris Wilmer'
_symmetry_space_group_name_H-M	'P1'
_symmetry_Int_Tables_number	1
_symmetry_cell_setting	triclinic
loop_
_symmetry_equiv_pos_as_xyz
  x,y,z
_cell_length_a	19.077105
_cell_length_b	16.120444
_cell_length_c	19.076919
_cell_angle_alpha	95.047308
_cell_angle_beta	90.076224
_cell_angle_gamma	90.739589
loop_
_atom_site_label
_atom_site_type_symbol
_atom_site_fract_x
_atom_site_fract_y
_atom_site_fract_z
Zn1	Zn	1.040330	-0.403263	-0.456946
Zn2	Zn	1.039008	-0.537289	-0.344933
Zn3	Zn	0.928045	-0.392097	-0.334282
Zn4	Zn	0.916852	-0.536786	-0.457665
O5	O	0.981059	-0.467359	-0.398456
O6	O	1.138270	-0.425926	-0.446244
O7	O	1.028419	-0.513566	-0.245006
O8	O	0.948178	-0.276935	-0.345795
O9	O	1.137298	-0.524394	-0.363948
O10	O	1.030673	-0.285139	-0.435916
O11	O	0.946895	-0.406894	-0.237181
O12	O	0.828446	-0.406406	-0.346492
O13	O	0.929101	-0.523537	-0.556084
O14	O	0.820222	-0.512709	-0.437141
O15	O	1.019820	-0.425438	-0.555556
O16	O	1.017566	-0.653865	-0.364645
O17	O	0.927819	-0.653496	-0.447469
C18	C	0.798894	-0.458292	-0.390739
C19	C	0.720961	-0.454434	-0.387455
C20	C	0.680085	-0.508045	-0.433041
C21	C	0.606859	-0.504409	-0.429958
C22	C	0.574512	-0.447166	-0.381286
C23	C	0.615394	-0.393550	-0.335698
C24	C	0.688618	-0.397182	-0.338785
C25	C	0.355972	-0.430356	-0.367004
C26	C	0.282743	-0.426729	-0.363920
C27	C	0.274213	-0.537589	-0.458181
C28	C	0.347439	-0.541219	-0.461261
C29	C	0.388315	-0.487600	-0.415675
N30	N	0.499664	-0.443450	-0.378132
N31	N	0.463162	-0.491312	-0.418833
C32	C	0.971353	-0.683927	-0.407307
C33	C	0.967263	-0.776580	-0.411119
C34	C	1.002437	-0.987660	-0.378838
C35	C	0.959810	-0.946213	-0.418087
C36	C	0.963958	-0.851820	-0.414209
C37	C	0.998290	-1.082061	-0.382716
C38	C	1.163935	-0.476461	-0.406204
C39	C	1.241866	-0.480340	-0.409506
C40	C	0.973359	-0.475677	-0.582077
C41	C	0.970078	-0.479222	-0.660326
C42	C	0.990822	-0.249947	-0.389588
C43	C	0.994982	-0.157299	-0.385808
C44	C	1.015767	-0.429815	-0.696813
C45	C	1.012676	-0.433142	-0.770336
C46	C	0.963899	-0.485881	-0.807369
C47	C	0.918205	-0.535290	-0.770876
C48	C	0.921294	-0.531958	-0.697355
C49	C	0.949594	-0.501319	-1.027283
C50	C	0.946510	-0.504649	-1.100809
C51	C	1.040980	-0.402499	-1.100263
C52	C	1.044067	-0.399176	-1.026741
C53	C	0.998371	-0.448581	-0.990255
N54	N	0.960739	-0.489285	-0.882521
N55	N	1.001528	-0.445172	-0.915104
C56	C	0.988772	-0.459015	-0.215549
C57	C	0.992199	-0.455242	-0.137297
H58	H	0.589051	-0.346938	-0.296071
H59	H	0.706417	-0.554661	-0.472673
H60	H	1.078183	-0.362275	-1.129979
C61	C	0.892872	-0.562693	-1.141550
C62	C	0.842624	-0.617059	-1.101420
C63	C	0.789002	-0.675115	-1.142163
C64	C	0.785628	-0.678805	-1.223035
C65	C	0.835879	-0.624437	-1.263170
C66	C	0.889501	-0.566381	-1.222427
H67	H	0.845120	-0.614329	-1.041550
H68	H	0.751803	-0.715361	-1.112452
H69	H	0.745934	-0.721782	-1.253195
H70	H	0.833383	-0.627167	-1.323040
H71	H	0.926699	-0.526134	-1.252138
H72	H	0.920200	-0.981622	-0.454603
H73	H	1.042044	-0.952255	-0.342324
C74	C	0.899321	-0.555670	-0.987169
C75	C	0.819500	-0.545348	-0.993646
C76	C	0.769220	-0.599704	-0.953536
C77	C	0.798760	-0.664381	-0.906948
C78	C	0.878585	-0.674705	-0.900469
C79	C	0.928866	-0.620350	-0.940580
H80	H	0.797629	-0.497468	-1.028134
H81	H	0.710128	-0.592060	-0.958332
H82	H	0.761539	-0.704618	-0.877256
H83	H	0.900456	-0.722586	-0.865981
H84	H	0.987958	-0.627994	-0.935783
H85	H	0.878487	-0.578228	-0.801035
C86	C	1.069423	-0.371800	-0.656079
C87	C	1.067529	-0.277215	-0.662081
C88	C	1.121185	-0.219197	-0.621349
C89	C	1.176735	-0.255762	-0.574615
C90	C	1.178631	-0.350352	-0.568612
C91	C	1.124975	-0.408371	-0.609344
H92	H	1.026406	-0.250143	-0.696677
H93	H	1.119781	-0.149175	-0.625793
H94	H	1.216454	-0.212814	-0.544463
H95	H	1.219754	-0.377425	-0.534015
H96	H	1.126379	-0.478392	-0.604900
C97	C	0.383015	-0.604185	-0.514806
C98	C	0.368945	-0.698167	-0.512381
C99	C	0.404520	-0.761137	-0.565927
C100	C	0.454164	-0.730124	-0.621898
C101	C	0.468237	-0.636137	-0.624325
C102	C	0.432662	-0.573168	-0.570780
H103	H	0.332193	-0.721129	-0.470946
H104	H	0.394102	-0.830712	-0.564129
H105	H	0.480499	-0.776737	-0.661535
H106	H	0.504989	-0.613175	-0.665760
H107	H	0.443080	-0.503592	-0.572577
H108	H	0.573580	-0.548066	-0.467078
H109	H	1.083789	-0.356232	-0.996594
C110	C	1.062939	-0.378795	-0.810469
C111	C	1.114238	-0.419944	-0.864823
C112	C	1.164504	-0.365594	-0.904954
C113	C	1.163471	-0.270093	-0.890731
C114	C	1.112169	-0.228939	-0.836374
C115	C	1.061903	-0.283290	-0.796243
H116	H	1.115005	-0.490644	-0.875354
H117	H	1.202480	-0.396060	-0.945193
H118	H	1.200680	-0.229860	-0.920439
H119	H	1.111403	-0.158239	-0.825843
H120	H	1.023927	-0.252824	-0.756004
C121	C	0.229250	-0.596560	-0.508328
C122	C	0.148705	-0.592568	-0.504941
C123	C	0.103742	-0.651539	-0.555093
C124	C	0.139323	-0.714503	-0.608633
C125	C	0.219871	-0.718497	-0.612023
C126	C	0.264835	-0.659526	-0.561870
H127	H	0.122362	-0.545956	-0.465306
H128	H	0.044114	-0.648582	-0.552584
H129	H	0.106038	-0.758157	-0.645759
H130	H	0.246214	-0.765109	-0.651658
H131	H	0.324462	-0.662483	-0.564380
C132	C	0.247159	-0.363741	-0.310392
C133	C	0.292118	-0.304749	-0.260259
C134	C	0.256534	-0.241759	-0.206738
C135	C	0.175990	-0.237761	-0.203350
C136	C	0.131026	-0.296755	-0.253485
C137	C	0.166610	-0.359745	-0.307005
H138	H	0.351746	-0.307706	-0.262765
H139	H	0.289820	-0.198087	-0.169626
H140	H	0.149648	-0.191132	-0.163731
H141	H	0.071398	-0.293797	-0.250978
H142	H	0.133324	-0.403416	-0.344118
H143	H	0.389245	-0.386701	-0.329881
H144	H	0.721899	-0.353522	-0.301668
C145	C	0.871039	-0.586308	-0.657213
C146	C	0.791214	-0.575999	-0.663660
C147	C	0.740957	-0.630348	-0.623518
C148	C	0.770524	-0.695006	-0.576928
C149	C	0.850353	-0.705319	-0.570479
C150	C	0.900611	-0.650970	-0.610622
H151	H	0.769323	-0.528132	-0.698150
H152	H	0.681862	-0.622714	-0.628292
H153	H	0.733321	-0.735239	-0.547212
H154	H	0.872245	-0.753185	-0.535989
H155	H	0.959706	-0.658604	-0.605848
