data_functionalizedCrystal
_audit_creation_method	'MofGen! by Chris Wilmer'
_symmetry_space_group_name_H-M	'P1'
_symmetry_Int_Tables_number	1
_symmetry_cell_setting	triclinic
loop_
_symmetry_equiv_pos_as_xyz
  x,y,z
_cell_length_a	14.971496
_cell_length_b	14.971482
_cell_length_c	14.048226
_cell_angle_alpha	90.007580
_cell_angle_beta	90.003149
_cell_angle_gamma	83.615366
loop_
_atom_site_label
_atom_site_type_symbol
_atom_site_fract_x
_atom_site_fract_y
_atom_site_fract_z
O1	O	0.116542	1.186956	0.079150
O2	O	0.616542	1.686956	0.579150
O3	O	0.130505	0.926556	0.079155
O4	O	0.630505	1.426556	0.579155
O5	O	-0.006676	1.063731	0.079144
O6	O	0.493324	1.563731	0.579144
O7	O	0.253723	1.049781	0.079161
O8	O	0.753723	1.549781	0.579161
O9	O	-0.006673	1.063709	-0.079177
O10	O	0.493327	1.563709	0.420823
O11	O	0.130508	0.926534	-0.079166
O12	O	0.630508	1.426534	0.420834
O13	O	0.116546	1.186934	-0.079171
O14	O	0.616546	1.686934	0.420829
Zn15	Zn	0.123528	1.056730	-0.104306
Zn16	Zn	0.623528	1.556730	0.395694
Zn17	Zn	0.123523	1.056759	0.104290
Zn18	Zn	0.623523	1.556759	0.604290
O19	O	0.253727	1.049759	-0.079160
O20	O	0.753727	1.549759	0.420840
C21	C	0.129883	0.893220	-0.000005
C22	C	0.629883	1.393220	0.499995
C23	C	0.128013	0.793923	-0.000003
C24	C	0.628013	1.293923	0.499997
C25	C	0.127135	0.747266	-0.086305
C26	C	0.627135	1.247266	0.413695
C27	C	0.125364	0.653967	-0.086307
C28	C	0.625364	1.153967	0.413693
C29	C	0.124478	0.607327	-0.000005
C30	C	0.624478	1.107327	0.499995
C31	C	0.125354	0.653990	0.086304
C32	C	0.625354	1.153990	0.586304
C33	C	0.127118	0.747288	0.086304
C34	C	0.627118	1.247288	0.586304
C35	C	0.121679	0.459528	0.086298
C36	C	0.621679	0.959528	0.586298
C37	C	0.119916	0.366224	0.086298
C38	C	0.619916	0.866224	0.586298
C39	C	0.119924	0.366208	-0.086313
C40	C	0.619924	0.866208	0.413687
C41	C	0.121688	0.459505	-0.086313
C42	C	0.621688	0.959505	0.413687
C43	C	0.122566	0.506162	-0.000004
C44	C	0.622566	1.006162	0.499996
C45	C	-0.039999	1.063094	-0.000017
C46	C	0.460001	1.563094	0.499983
C47	C	-0.139295	1.061220	-0.000017
C48	C	0.360705	1.561220	0.499983
C49	C	-0.567001	1.053164	0.086309
C50	C	-0.067001	1.553164	0.586309
C51	C	-0.473702	1.054930	0.086305
C52	C	0.026298	1.554930	0.586305
C53	C	-0.427057	1.055795	0.000000
C54	C	0.072943	1.555795	0.500000
C55	C	-0.473716	1.054903	-0.086306
C56	C	0.026284	1.554903	0.413694
C57	C	-0.567015	1.053143	-0.086301
C58	C	-0.067015	1.553143	0.413699
C59	C	-0.279253	1.058568	-0.086311
C60	C	0.220747	1.558568	0.413689
C61	C	-0.185948	1.060325	-0.086316
C62	C	0.314052	1.560325	0.413684
C63	C	-0.185941	1.060354	0.086295
C64	C	0.314059	1.560354	0.586295
C65	C	-0.279239	1.058595	0.086300
C66	C	0.220761	1.558595	0.586300
C67	C	-0.325892	1.057701	-0.000007
C68	C	0.174108	1.557701	0.499993
C69	C	0.287049	1.050395	0.000003
C70	C	0.787049	1.550395	0.500003
C71	C	0.386346	1.052270	0.000010
C72	C	0.886346	1.552270	0.500010
C73	C	0.117168	1.220270	-0.000009
C74	C	0.617168	1.720270	0.499991
C75	C	0.119037	1.319567	-0.000004
C76	C	0.619037	1.819567	0.499996
N77	N	0.123530	1.056717	-0.246666
N78	N	0.623530	1.556717	0.253334
C79	C	0.062795	1.117529	-0.703511
C80	C	0.562795	1.617529	-0.203511
C81	C	0.062801	1.117521	-0.603853
C82	C	0.562801	1.617521	-0.103853
C83	C	0.123522	1.056759	-0.554036
C84	C	0.623522	1.556759	-0.054036
C85	C	0.184247	0.996006	-0.603882
C86	C	0.684247	1.496006	-0.103882
C87	C	0.184245	0.996019	-0.703538
C88	C	0.684245	1.496019	-0.203538
C89	C	0.184247	0.995982	-0.396168
C90	C	0.684247	1.495982	0.103832
C91	C	0.184249	0.995967	-0.296505
C92	C	0.684249	1.495967	0.203495
C93	C	0.062803	1.117484	-0.296483
C94	C	0.562803	1.617484	0.203517
C95	C	0.062801	1.117497	-0.396139
C96	C	0.562801	1.617497	0.103861
C97	C	0.123525	1.056743	-0.445978
C98	C	0.623525	1.556743	0.054022
N99	N	0.123513	1.056780	0.246650
N100	N	0.623513	1.556780	0.746650
H101	H	0.127863	0.785233	-0.156583
H102	H	0.627863	1.285233	0.343417
H103	H	0.122415	0.497477	-0.156588
H104	H	0.622415	0.997477	0.343412
N105	N	0.249738	0.930458	-0.449933
N106	N	0.749738	1.430458	0.050067
H107	H	0.313241	0.940816	-0.432585
H108	H	0.813241	1.440816	0.067415
H109	H	0.239249	0.866996	-0.432589
H110	H	0.739249	1.366996	0.067411
H111	H	-0.147950	1.061075	0.156568
H112	H	0.352050	1.561075	0.656568
H113	H	0.124633	0.615986	-0.156582
H114	H	0.624633	1.115986	0.343418
N115	N	-0.002697	1.183073	-0.757233
N116	N	0.497303	1.683073	-0.257233
H117	H	0.031555	1.222710	-0.798566
H118	H	0.531555	1.722710	-0.298566
H119	H	-0.042348	1.148800	-0.798538
H120	H	0.457652	1.648800	-0.298538
N121	N	-0.002682	1.183036	-0.449877
N122	N	0.497318	1.683036	0.050123
H123	H	0.031580	1.222666	-0.491209
H124	H	0.531580	1.722666	0.008791
H125	H	-0.042326	1.148759	-0.491185
H126	H	0.457674	1.648759	0.008815
N127	N	0.118981	0.315887	-0.179403
N128	N	0.618981	0.815887	0.320597
H129	H	0.118988	0.249554	-0.166312
H130	H	0.618988	0.749554	0.333688
H131	H	0.063248	0.338520	-0.216518
H132	H	0.563248	0.838520	0.283482
H133	H	0.233692	0.946535	-0.563316
H134	H	0.733692	1.446535	-0.063316
H135	H	0.119195	0.328251	0.156572
H136	H	0.619195	0.828251	0.656572
H137	H	-0.147968	1.061001	-0.156593
H138	H	0.352032	1.561001	0.343407
N139	N	-0.617334	1.052183	-0.179383
N140	N	-0.117334	1.552183	0.320617
H141	H	-0.648860	0.996052	-0.183229
H142	H	-0.148860	1.496052	0.316771
H143	H	-0.663183	1.106899	-0.183167
H144	H	-0.163183	1.606899	0.316833
H145	H	0.013360	1.166951	-0.255898
H146	H	0.513360	1.666951	0.244102
H147	H	0.233689	0.946552	-0.744116
H148	H	0.733689	1.446552	-0.244116
H149	H	0.127836	0.785274	0.156580
H150	H	0.627836	1.285274	0.656580
N151	N	0.249743	0.930434	-0.242774
N152	N	0.749743	1.430434	0.257226
H153	H	0.313243	0.940809	-0.260104
H154	H	0.813243	1.440809	0.239896
H155	H	0.240445	0.939678	-0.172098
H156	H	0.740445	1.439678	0.327902
N157	N	-0.617311	1.052241	0.179395
N158	N	-0.117311	1.552241	0.679395
H159	H	-0.663209	1.106918	0.183227
H160	H	-0.163209	1.606918	0.683227
H161	H	-0.648776	0.996074	0.183196
H162	H	-0.148776	1.496074	0.683196
H163	H	-0.317235	1.057841	-0.156591
H164	H	0.182765	1.557841	0.343409
H165	H	0.122394	0.497513	0.156580
H166	H	0.622394	0.997513	0.656580
N167	N	0.124391	0.603683	0.179384
N168	N	0.624391	1.103683	0.679384
H169	H	0.179064	0.557781	0.183237
H170	H	0.679064	1.057781	0.683237
H171	H	0.125179	0.647457	0.234005
H172	H	0.625179	1.147457	0.734005
H173	H	-0.435722	1.055660	0.156578
H174	H	0.064278	1.555660	0.656578
N175	N	-0.329563	1.057739	0.179382
N176	N	0.170437	1.557739	0.679382
H177	H	-0.285857	1.058602	0.234056
H178	H	0.214143	1.558602	0.734056
H179	H	-0.375433	1.112445	0.183073
H180	H	0.124567	1.612445	0.683073
N181	N	-0.423404	1.055844	-0.179389
N182	N	0.076596	1.555844	0.320611
H183	H	-0.377505	1.001168	-0.183236
H184	H	0.122495	1.501168	0.316764
H185	H	-0.467176	1.055047	-0.234007
H186	H	0.032824	1.555047	0.265993
N187	N	-0.002688	1.183045	-0.550098
N188	N	0.497312	1.683045	-0.050098
H189	H	0.007719	1.246535	-0.567432
H190	H	0.507719	1.746535	-0.067432
H191	H	-0.066161	1.172601	-0.567468
H192	H	0.433839	1.672601	-0.067468
