data_functionalizedCrystal
_audit_creation_method	'MofGen! by Chris Wilmer'
_symmetry_space_group_name_H-M	'P1'
_symmetry_Int_Tables_number	1
_symmetry_cell_setting	triclinic
loop_
_symmetry_equiv_pos_as_xyz
  x,y,z
_cell_length_a	18.050590
_cell_length_b	12.645330
_cell_length_c	12.645323
_cell_angle_alpha	89.972994
_cell_angle_beta	89.993192
_cell_angle_gamma	90.001812
loop_
_atom_site_label
_atom_site_type_symbol
_atom_site_fract_x
_atom_site_fract_y
_atom_site_fract_z
Zn1	Zn	1.135428	-0.422338	-0.598982
Zn2	Zn	1.135356	-0.599626	-0.421715
Zn3	Zn	1.011231	-0.422343	-0.421775
Zn4	Zn	1.011229	-0.599526	-0.598980
O5	O	1.073311	-0.510958	-0.510363
O6	O	1.239343	-0.445895	-0.575443
O7	O	1.118862	-0.576153	-0.273376
O8	O	1.027737	-0.273995	-0.445308
O9	O	1.239290	-0.576147	-0.445206
O10	O	1.118984	-0.273991	-0.575501
O11	O	1.027667	-0.445904	-0.273420
O12	O	0.907306	-0.445807	-0.445306
O13	O	1.027734	-0.575978	-0.747327
O14	O	0.907305	-0.575983	-0.575497
O15	O	1.118982	-0.445798	-0.747329
O16	O	1.118860	-0.747960	-0.445204
O17	O	1.027664	-0.747886	-0.575439
C18	C	1.073274	-0.786388	-0.510338
C19	C	1.073326	-0.904218	-0.510362
C20	C	0.880359	-0.510886	-0.510408
C21	C	0.797813	-0.510880	-0.510453
C22	C	1.130605	-1.071784	-0.428265
C23	C	1.130792	-0.949223	-0.428466
C24	C	1.094553	-0.948606	-0.622099
C25	C	1.095007	-1.071204	-0.621663
C26	C	0.994798	-1.071524	-0.481825
C27	C	0.995174	-0.948920	-0.479318
C28	C	0.598384	-0.581872	-0.581083
C29	C	0.548974	-0.485209	-0.607165
C30	C	0.646683	-0.510939	-0.510401
C31	C	0.549010	-0.607658	-0.484318
C32	C	0.500698	-0.511005	-0.510353
C33	C	0.598361	-0.414225	-0.536534
C34	C	0.598401	-0.536739	-0.413642
C35	C	0.549015	-0.440009	-0.439687
C36	C	0.730781	-0.510903	-0.510432
C37	C	0.416601	-0.511031	-0.510323
C38	C	1.267017	-0.511032	-0.510318
C39	C	1.349563	-0.511063	-0.510298
C40	C	1.073366	-0.510876	-0.786868
C41	C	1.073389	-0.510841	-0.904698
C42	C	1.073369	-0.234453	-0.510411
C43	C	1.073393	-0.116623	-0.510432
C44	C	1.015808	-0.592351	-1.072262
C45	C	1.015959	-0.592755	-0.949702
C46	C	1.151642	-0.541181	-0.949186
C47	C	1.151326	-0.541692	-1.071784
C48	C	1.053458	-0.398536	-1.071908
C49	C	1.051712	-0.399208	-0.949302
C50	C	1.073300	-0.510963	-0.234933
C51	C	1.073420	-0.510700	-0.117103
H52	H	1.117511	-0.919217	-0.345614
Cl53	Cl	0.631923	-0.570422	-0.287354
H54	H	0.994125	-0.376328	-0.920227
H55	H	0.957932	-0.573767	-0.919623
H56	H	1.090608	-0.335155	-0.918668
Cl57	Cl	1.032172	-0.903606	-0.719152
Cl58	Cl	0.515540	-0.733897	-0.450286
Cl59	Cl	0.515754	-0.347337	-0.347370
Cl60	Cl	1.035911	-0.719914	-1.119907
H61	H	0.979169	-0.919919	-0.397090
Cl62	Cl	0.631854	-0.674327	-0.673465
H63	H	1.151354	-0.917833	-0.646739
Cl64	Cl	1.177447	-0.668285	-1.115947
Cl65	Cl	0.925948	-0.563314	-1.117792
Cl66	Cl	0.966890	-0.355846	-1.119651
Cl67	Cl	1.178215	-0.666448	-0.901795
H68	H	0.950247	-0.918293	-0.534779
Cl69	Cl	0.928983	-1.116294	-0.574217
H70	H	1.189005	-0.919831	-0.447385
Cl71	Cl	0.964995	-1.119391	-0.358222
H72	H	0.527264	-0.463409	-0.688972
Cl73	Cl	1.118242	-0.304613	-1.116679
H74	H	1.029137	-0.675906	-0.920379
Cl75	Cl	1.220002	-1.119245	-0.457146
Cl76	Cl	0.631686	-0.287947	-0.570710
H77	H	1.195708	-0.484804	-1.101448
Cl78	Cl	1.219697	-0.452270	-0.904184
Cl79	Cl	1.183705	-1.115254	-0.659077
H80	H	1.055162	-1.100861	-0.684991
Cl81	Cl	1.110364	-1.117411	-0.299970
