data_functionalizedCrystal
_audit_creation_method	'MofGen! by Chris Wilmer'
_symmetry_space_group_name_H-M	'P1'
_symmetry_Int_Tables_number	1
_symmetry_cell_setting	triclinic
loop_
_symmetry_equiv_pos_as_xyz
  x,y,z
_cell_length_a	17.699083
_cell_length_b	14.853567
_cell_length_c	16.176319
_cell_angle_alpha	89.996997
_cell_angle_beta	89.998611
_cell_angle_gamma	83.458972
loop_
_atom_site_label
_atom_site_type_symbol
_atom_site_fract_x
_atom_site_fract_y
_atom_site_fract_z
O1	O	1.004375	0.114008	-0.068624
O2	O	0.784035	0.128841	-0.068650
O3	O	0.900090	-0.009827	-0.068639
O4	O	0.888319	0.252676	-0.068635
O5	O	0.900074	-0.009836	0.068855
O6	O	0.784019	0.128832	0.068843
O7	O	1.004359	0.113999	0.068869
Cu8	Cu	0.894187	0.121415	0.081411
Cu9	Cu	0.894206	0.121425	-0.081191
O10	O	0.888303	0.252667	0.068858
C11	C	0.755828	0.128305	0.000093
C12	C	0.671806	0.126711	0.000083
C13	C	0.623396	0.208106	0.000084
C14	C	0.544449	0.206602	0.000095
C15	C	0.513913	0.123703	0.000098
C16	C	0.562329	0.042301	0.000099
C17	C	0.641275	0.043806	0.000095
C18	C	0.243950	0.036232	0.000120
C19	C	0.164999	0.034734	0.000122
C20	C	0.147125	0.199028	0.000120
C21	C	0.226070	0.200533	0.000115
C22	C	0.274479	0.119132	0.000121
C23	C	0.360083	0.120763	0.000111
C24	C	0.428311	0.122070	0.000102
C25	C	0.899549	-0.043418	0.000106
C26	C	0.897951	-0.143496	0.000098
C27	C	0.822255	-0.555751	0.000105
C28	C	0.960131	-0.577539	0.000121
C29	C	0.961634	-0.483511	0.000117
C30	C	0.893446	-0.425598	0.000107
C31	C	0.823756	-0.461714	0.000103
C32	C	1.031324	-0.447389	0.000129
C33	C	1.032829	-0.353355	0.000126
C34	C	0.964641	-0.295441	0.000111
C35	C	0.894947	-0.331561	0.000105
C36	C	0.826759	-0.273648	0.000096
C37	C	0.757065	-0.309767	0.000084
C38	C	0.755567	-0.403799	0.000088
C39	C	0.966139	-0.201409	0.000107
C40	C	0.828260	-0.179611	0.000094
C41	C	1.032565	0.114535	0.000125
C42	C	1.116587	0.116130	0.000129
C43	C	0.888844	0.286258	0.000112
C44	C	0.890443	0.386336	0.000114
N45	N	0.894179	0.121407	0.195776
N46	N	0.894220	0.121426	-0.195556
C47	C	0.945584	0.060030	0.239045
C48	C	0.945588	0.060029	0.325592
C49	C	0.894190	0.121410	0.368868
C50	C	0.842780	0.182790	0.325593
C51	C	0.842773	0.182786	0.239048
C52	C	0.842806	0.182807	0.674621
C53	C	0.842818	0.182808	0.761173
C54	C	0.945621	0.060050	0.761166
C55	C	0.945614	0.060046	0.674620
C56	C	0.894201	0.121422	0.631353
C57	C	0.894197	0.121422	0.537508
C58	C	0.894198	0.121416	0.462711
H59	H	0.505037	0.272882	0.000095
H60	H	0.701546	-0.262602	0.000083
H61	H	0.698825	-0.433216	0.000079
C62	C	0.991244	0.005519	0.458257
C63	C	1.002094	-0.007438	0.373155
H64	H	1.026127	-0.036140	0.487618
H65	H	0.999524	0.065669	0.472432
H66	H	0.940723	-0.004202	0.472437
H67	H	1.052613	0.002289	0.358974
H68	H	0.993820	-0.067602	0.358974
C69	C	1.048466	0.040119	0.577102
C70	C	1.001979	-0.007507	0.626971
H71	H	1.083225	-0.001614	0.547667
H72	H	1.017843	0.076747	0.539015
H73	H	1.075867	0.077511	0.610809
H74	H	0.974574	-0.044895	0.593263
H75	H	1.032606	-0.044152	0.665062
H76	H	1.086839	-0.494548	0.000145
H77	H	1.022883	-0.172005	0.000122
H78	H	0.987442	0.010050	0.203815
H79	H	0.250928	0.268038	0.000109
C80	C	0.739817	0.202538	0.577312
C81	C	0.786306	0.250281	0.627064
H82	H	0.704935	0.244200	0.547953
H83	H	0.770424	0.165986	0.539158
H84	H	0.712555	0.165060	0.611088
H85	H	0.813573	0.287754	0.593287
H86	H	0.755696	0.286849	0.665223
C87	C	0.137387	0.361588	0.000108
C88	C	0.093912	0.288510	0.000120
H89	H	0.104536	0.416827	0.000100
H90	H	0.168551	0.358758	0.048050
H91	H	0.168552	0.358747	-0.047844
H92	H	0.062751	0.291347	0.048076
H93	H	0.062735	0.291341	-0.047827
C94	C	0.449249	-0.032959	0.000100
C95	C	0.528766	-0.048825	0.000102
H96	H	0.428532	-0.089219	0.000095
H97	H	0.432643	0.000538	0.048045
H98	H	0.432646	0.000552	-0.047849
H99	H	0.545370	-0.082330	0.048055
H100	H	0.545379	-0.082336	-0.047848
H101	H	0.765511	-0.585163	0.000092
C102	C	0.749966	-0.061223	-0.070601
C103	C	0.753303	-0.115957	0.000080
H104	H	0.703688	-0.021931	-0.070610
H105	H	0.791677	-0.026256	-0.070586
H106	H	0.752255	-0.098367	-0.118542
H107	H	0.751019	-0.078813	0.048022
H108	H	0.711580	-0.150927	0.000073
H109	H	1.015647	-0.624697	0.000135
C110	C	0.190593	-0.127528	0.000144
C111	C	0.131432	-0.056396	0.000134
H112	H	0.169868	-0.183783	0.000156
H113	H	0.221012	-0.123531	-0.047802
H114	H	0.221014	-0.123517	0.048093
H115	H	0.101014	-0.060404	-0.047818
H116	H	0.101001	-0.060395	0.048084
C117	C	0.989913	-0.096095	0.787811
C118	C	1.002128	-0.007429	0.808728
H119	H	1.024800	-0.137750	0.817170
H120	H	0.939400	-0.105804	0.802004
H121	H	0.997267	-0.104866	0.730073
H122	H	0.994768	0.001344	0.866466
H123	H	1.052653	0.002284	0.794541
H124	H	0.283356	-0.030050	0.000125
H125	H	0.648252	0.275612	0.000081
C126	C	0.741177	0.304142	0.752492
C127	C	0.786310	0.250275	0.808744
H128	H	0.706291	0.345786	0.781862
H129	H	0.772702	0.336531	0.718730
H130	H	0.713919	0.266640	0.718741
H131	H	0.813572	0.287777	0.842491
H132	H	0.754780	0.217884	0.842520
C133	C	0.797147	0.237313	0.458263
C134	C	0.786283	0.250264	0.373161
H135	H	0.762271	0.278976	0.487626
H136	H	0.788865	0.177165	0.472450
H137	H	0.847671	0.247030	0.472428
H138	H	0.735760	0.240540	0.358995
H139	H	0.794558	0.310427	0.358967
H140	H	0.800913	0.232764	0.203819
C141	C	0.680825	-0.095764	-0.070594
C142	C	0.694493	-0.045664	0.000087
H143	H	0.713684	-0.150997	-0.070598
H144	H	0.629446	-0.108525	-0.070585
H145	H	0.690091	-0.061750	-0.118535
H146	H	0.685222	-0.079676	0.048028
H147	H	0.745885	-0.032906	0.000085
H148	H	1.089579	-0.323956	0.000134
