data_functionalizedCrystal
_audit_creation_method	'MofGen! by Chris Wilmer'
_symmetry_space_group_name_H-M	'P1'
_symmetry_Int_Tables_number	1
_symmetry_cell_setting	triclinic
loop_
_symmetry_equiv_pos_as_xyz
  x,y,z
_cell_length_a	16.109301
_cell_length_b	19.188930
_cell_length_c	15.186229
_cell_angle_alpha	89.991143
_cell_angle_beta	89.999362
_cell_angle_gamma	83.303131
loop_
_atom_site_label
_atom_site_type_symbol
_atom_site_fract_x
_atom_site_fract_y
_atom_site_fract_z
O1	O	1.102833	0.089744	-0.073183
O2	O	1.602833	0.589744	0.426817
O3	O	0.860734	0.100912	-0.073198
O4	O	1.360734	0.600912	0.426802
O5	O	0.988770	-0.006311	-0.073173
O6	O	1.488770	0.493689	0.426827
O7	O	0.974797	0.196967	-0.073208
O8	O	1.474797	0.696967	0.426792
O9	O	0.988762	-0.006313	0.073284
O10	O	1.488762	0.493687	0.573284
O11	O	0.860726	0.100911	0.073259
O12	O	1.360726	0.600911	0.573259
O13	O	1.102825	0.089742	0.073274
O14	O	1.602825	0.589742	0.573274
Zn15	Zn	0.981774	0.095326	0.096520
Zn16	Zn	1.481774	0.595326	0.596520
Zn17	Zn	0.981785	0.095328	-0.096444
Zn18	Zn	1.481785	0.595328	0.403556
O19	O	0.974789	0.196966	0.073249
O20	O	1.474789	0.696966	0.573249
C21	C	0.829757	0.100459	0.000029
C22	C	1.329757	0.600459	0.500029
C23	C	0.737466	0.099103	0.000024
C24	C	1.237466	0.599103	0.500024
C25	C	0.514993	0.159573	0.000023
C26	C	1.014993	0.659573	0.500023
C27	C	0.428277	0.158294	0.000029
C28	C	0.928277	0.658294	0.500029
C29	C	0.448573	0.031076	0.000048
C30	C	0.948573	0.531076	0.500048
C31	C	0.535287	0.032357	0.000048
C32	C	1.035287	0.532357	0.500048
C33	C	0.568495	0.096608	0.000031
C34	C	1.068495	0.596608	0.500031
C35	C	0.395064	0.094047	0.000037
C36	C	0.895064	0.594047	0.500037
C37	C	0.301043	0.092659	0.000043
C38	C	0.801043	0.592659	0.500043
C39	C	0.662522	0.097996	0.000027
C40	C	1.162522	0.597996	0.500027
C41	C	0.988313	-0.032324	0.000058
C42	C	1.488313	0.467676	0.500058
C43	C	0.986955	-0.109832	0.000066
C44	C	1.486955	0.390168	0.500066
C45	C	1.062082	-0.154580	0.000075
C46	C	1.562082	0.345420	0.500075
C47	C	1.060806	-0.227407	0.000060
C48	C	1.560806	0.272593	0.500060
C49	C	0.984399	-0.255482	0.000055
C50	C	1.484399	0.244518	0.500055
C51	C	0.909261	-0.210724	0.000041
C52	C	1.409261	0.289276	0.500041
C53	C	0.910540	-0.137899	0.000046
C54	C	1.410540	0.362101	0.500046
N55	N	0.925991	-0.363624	0.049893
N56	N	1.425991	0.136376	0.549893
N57	N	0.924782	-0.432805	0.049890
N58	N	1.424782	0.067195	0.549890
C59	C	0.980543	-0.474900	0.000037
C60	C	1.480543	0.025100	0.500037
N61	N	1.037571	-0.445200	-0.049802
N62	N	1.537571	0.054800	0.450198
N63	N	1.038783	-0.376013	-0.049795
N64	N	1.538783	0.123987	0.450205
C65	C	0.983004	-0.334448	0.000049
C66	C	1.483004	0.165552	0.500049
C67	C	1.054292	-0.598616	0.000029
C68	C	1.554292	-0.098616	0.500029
C69	C	1.053012	-0.671443	0.000010
C70	C	1.553012	-0.171443	0.500010
C71	C	0.901465	-0.654759	-0.000001
C72	C	1.401465	-0.154759	0.499999
C73	C	0.902747	-0.581933	0.000010
C74	C	1.402747	-0.081933	0.500010
C75	C	0.979162	-0.553866	0.000029
C76	C	1.479162	-0.053866	0.500029
C77	C	1.133802	0.090196	0.000045
C78	C	1.633802	0.590196	0.500045
C79	C	1.226093	0.091552	0.000045
C80	C	1.726093	0.591552	0.500045
C81	C	0.975246	0.222979	0.000016
C82	C	1.475246	0.722979	0.500016
C83	C	0.976604	0.300486	0.000003
C84	C	1.476604	0.800486	0.500003
N85	N	0.981772	0.095325	0.228213
N86	N	1.481772	0.595325	0.728213
N87	N	0.981793	0.095325	-0.228137
N88	N	1.481793	0.595325	0.271863
C89	C	1.038486	0.047862	0.453947
C90	C	1.538486	0.547862	0.953947
C91	C	1.038488	0.047860	0.546136
C92	C	1.538488	0.547860	1.046136
C93	C	0.925074	0.142790	0.546123
C94	C	1.425074	0.642790	1.046123
C95	C	0.925068	0.142787	0.453935
C96	C	1.425068	0.642787	0.953935
C97	C	0.981779	0.095324	0.407849
C98	C	1.481779	0.595324	0.907849
C99	C	0.981787	0.095325	0.592227
C100	C	1.481787	0.595325	1.092227
C101	C	0.981790	0.095323	0.692183
C102	C	1.481790	0.595323	1.192183
C103	C	0.981775	0.095325	0.307887
C104	C	1.481775	0.595325	0.807887
H105	H	0.542027	0.211890	0.000016
H106	H	1.042027	0.711890	0.500016
H107	H	0.421524	-0.021234	0.000066
H108	H	0.921524	0.478766	0.500066
H109	H	0.878886	0.181437	0.416400
H110	H	1.378886	0.681437	0.916400
C111	C	0.594143	-0.036909	0.000053
C112	C	1.094143	0.463091	0.500053
H113	H	0.561948	-0.075357	0.000050
H114	H	1.061948	0.424643	0.500050
H115	H	0.628393	-0.039055	0.051126
H116	H	1.128393	0.460945	0.551126
H117	H	0.628391	-0.039048	-0.051027
H118	H	1.128391	0.460952	0.448973
H119	H	0.384719	0.209567	0.000024
H120	H	0.884719	0.709567	0.500024
C121	C	1.146136	-0.123710	0.000080
C122	C	1.646136	0.376290	0.500080
H123	H	1.190696	-0.160795	0.000074
H124	H	1.690696	0.339205	0.500074
H125	H	1.149786	-0.095653	0.051152
H126	H	1.649786	0.404347	0.551152
H127	H	1.149785	-0.095643	-0.051000
H128	H	1.649785	0.404357	0.449000
C129	C	1.143449	-0.276639	0.000077
C130	C	1.643449	0.223361	0.500077
H131	H	1.189141	-0.249493	0.000094
H132	H	1.689141	0.250507	0.500094
H133	H	1.146109	-0.305390	-0.050995
H134	H	1.646109	0.194610	0.449005
H135	H	1.146087	-0.305399	0.051157
H136	H	1.646087	0.194601	0.551157
H137	H	0.841570	-0.545497	0.000008
H138	H	1.341570	-0.045497	0.500008
C139	C	0.825215	-0.241603	0.000038
C140	C	1.325215	0.258397	0.500038
H141	H	0.835213	-0.291385	0.000046
H142	H	1.335213	0.208615	0.500046
H143	H	0.794294	-0.226235	-0.051036
H144	H	1.294294	0.273765	0.448964
H145	H	0.794291	-0.226248	0.051116
H146	H	1.294291	0.273752	0.551116
H147	H	0.849360	-0.101464	0.000039
H148	H	1.349360	0.398536	0.500039
C149	C	1.138343	-0.567739	0.000040
C150	C	1.638343	-0.067739	0.500040
H151	H	1.182905	-0.604823	0.000031
H152	H	1.682905	-0.104823	0.500031
H153	H	1.141990	-0.539687	0.051117
H154	H	1.641990	-0.039687	0.551117
H155	H	1.141993	-0.539666	-0.051035
H156	H	1.641993	-0.039666	0.448965
H157	H	1.114193	-0.707878	0.000012
H158	H	1.614193	-0.207878	0.500012
H159	H	0.839253	-0.677617	-0.000010
H160	H	1.339253	-0.177617	0.499990
C161	C	1.100857	-0.004351	0.403255
C162	C	1.600857	0.495649	0.903255
H163	H	1.134624	-0.032622	0.443916
H164	H	1.634624	0.467378	0.943916
H165	H	1.135373	0.020769	0.367282
H166	H	1.635373	0.520769	0.867282
H167	H	1.071047	-0.033425	0.367305
H168	H	1.571047	0.466575	0.867305
C169	C	1.100870	-0.004346	0.596840
C170	C	1.600870	0.495654	1.096840
H171	H	1.134645	-0.032607	0.556187
H172	H	1.634645	0.467393	1.056187
H173	H	1.071075	-0.033419	0.632811
H174	H	1.571075	0.466581	1.132811
H175	H	1.135388	0.020785	0.632793
H176	H	1.635388	0.520785	1.132793
C177	C	0.862705	0.195001	0.596820
C178	C	1.362705	0.695001	1.096820
H179	H	0.870835	0.188210	0.658326
H180	H	1.370835	0.688210	1.158326
H181	H	0.807245	0.187408	0.581721
H182	H	1.307245	0.687408	1.081721
H183	H	0.871571	0.241602	0.581697
H184	H	1.371571	0.741602	1.081697
