data_functionalizedCrystal
_audit_creation_method	'MofGen! by Chris Wilmer'
_symmetry_space_group_name_H-M	'P1'
_symmetry_Int_Tables_number	1
_symmetry_cell_setting	triclinic
loop_
_symmetry_equiv_pos_as_xyz
  x,y,z
_cell_length_a	14.908783
_cell_length_b	21.295411
_cell_length_c	14.908520
_cell_angle_alpha	86.719867
_cell_angle_beta	83.208414
_cell_angle_gamma	86.674680
loop_
_atom_site_label
_atom_site_type_symbol
_atom_site_fract_x
_atom_site_fract_y
_atom_site_fract_z
Zn1	Zn	1.363094	-0.422193	0.280732
Zn2	Zn	1.354242	-0.322661	0.432085
Zn3	Zn	1.211709	-0.311185	0.289455
Zn4	Zn	1.202954	-0.422143	0.440778
O5	O	1.283000	-0.369545	0.360762
O6	O	1.488590	-0.413814	0.293521
O7	O	1.335294	-0.233048	0.413177
O8	O	1.239159	-0.321128	0.161627
O9	O	1.482086	-0.340688	0.404719
O10	O	1.350381	-0.402685	0.155218
O11	O	1.230575	-0.224617	0.308388
O12	O	1.083878	-0.321080	0.316816
O13	O	1.224238	-0.510240	0.419535
O14	O	1.077446	-0.402600	0.427993
O15	O	1.341892	-0.510277	0.301950
O16	O	1.326805	-0.340640	0.559909
O17	O	1.215655	-0.413728	0.566295
C18	C	1.047818	-0.360589	0.374295
C19	C	0.947204	-0.356774	0.380106
C20	C	0.764903	-0.425878	0.275394
C21	C	0.670368	-0.422295	0.280850
C22	C	0.663598	-0.346021	0.396472
C23	C	0.758133	-0.349604	0.391015
C24	C	0.808782	-0.389535	0.330475
C25	C	0.903319	-0.393121	0.325023
C26	C	0.896548	-0.316844	0.440639
C27	C	0.802013	-0.313261	0.446096
C28	C	1.283076	-0.533738	0.360739
C29	C	1.283109	-0.603707	0.360729
C30	C	1.344369	-0.636594	0.299500
C31	C	1.344370	-0.702335	0.299461
C32	C	1.283119	-0.735187	0.360666
C33	C	1.221848	-0.702293	0.421900
C34	C	1.221842	-0.636552	0.421931
N35	N	1.271577	-0.841145	0.440252
N36	N	1.271588	-0.903596	0.440220
C37	C	1.283130	-0.933259	0.360574
N38	N	1.294680	-0.898113	0.280960
N39	N	1.294674	-0.835657	0.280993
C40	C	1.283118	-0.806472	0.360639
C41	C	1.344395	-1.037430	0.299298
C42	C	1.344390	-1.103171	0.299257
C43	C	1.221872	-1.103129	0.421704
C44	C	1.221873	-1.037387	0.421737
C45	C	1.283139	-1.004542	0.360534
C46	C	1.519100	-0.378537	0.347178
C47	C	1.619712	-0.382369	0.341389
C48	C	1.269344	-0.378439	0.595945
C49	C	1.263585	-0.382267	0.696553
C50	C	1.282980	-0.205991	0.360717
C51	C	1.283137	-0.136020	0.360462
C52	C	1.296734	-0.360632	0.124660
C53	C	1.302586	-0.356834	0.024047
C54	C	1.368622	-0.313424	0.878886
C55	C	1.363214	-0.317020	0.973416
C56	C	1.247365	-0.393057	0.980142
C57	C	1.252773	-0.389461	0.885613
C58	C	1.313403	-0.349643	0.834988
C59	C	1.318806	-0.346045	0.740457
C60	C	1.202962	-0.422085	0.747185
C61	C	1.197554	-0.425680	0.841715
H62	H	0.622344	-0.313504	0.445750
H63	H	1.394277	-1.010685	0.249459
H64	H	1.408181	-0.287528	1.009154
H65	H	1.198009	-0.425479	1.021377
C66	C	1.142214	-0.461930	0.698900
C67	C	1.074879	-0.429435	0.638090
C68	C	1.014130	-0.469277	0.589806
C69	C	1.020715	-0.541615	0.602332
C70	C	1.088052	-0.574114	0.663143
C71	C	1.148802	-0.534271	0.711427
H72	H	1.070002	-0.375883	0.628816
H73	H	0.964282	-0.445219	0.544789
H74	H	0.975744	-0.571108	0.566589
H75	H	1.092930	-0.627666	0.672418
H76	H	1.198650	-0.558330	0.756444
H77	H	0.760762	-0.280749	0.495383
C78	C	1.130865	-0.469478	0.897408
C79	C	1.056101	-0.441927	0.966570
C80	C	0.989410	-0.485725	1.022263
C81	C	0.997483	-0.557074	1.008793
C82	C	1.072251	-0.584628	0.939627
C83	C	1.138942	-0.540831	0.883935
H84	H	1.050121	-0.389107	0.976545
H85	H	0.934061	-0.465326	1.073464
H86	H	0.948115	-0.589495	1.050019
H87	H	1.078231	-0.637448	0.929653
H88	H	1.194290	-0.561229	0.832734
H89	H	0.806142	-0.458394	0.226103
C90	C	1.411763	-0.738522	0.232111
C91	C	1.480541	-0.787925	0.267241
C92	C	1.547935	-0.824111	0.199893
C93	C	1.546550	-0.810894	0.097415
C94	C	1.477770	-0.761489	0.062280
C95	C	1.410376	-0.725303	0.129627
H96	H	1.481569	-0.797711	0.343106
H97	H	1.598851	-0.860684	0.225903
H98	H	1.596439	-0.837681	0.047560
H99	H	1.476742	-0.751702	-0.013586
H100	H	1.359460	-0.688729	0.103617
H101	H	1.394256	-0.609855	0.249663
H102	H	0.634645	-0.451888	0.235995
C103	C	0.959036	-0.437041	0.258429
C104	C	0.945659	-0.508388	0.266699
C105	C	1.001375	-0.552307	0.200101
C106	C	1.070468	-0.524878	0.125233
C107	C	1.083849	-0.453527	0.116959
C108	C	1.028133	-0.409608	0.183557
H109	H	0.894509	-0.528696	0.322124
H110	H	0.991469	-0.605126	0.206226
H111	H	1.111712	-0.557390	0.075933
H112	H	1.134998	-0.433219	0.061534
H113	H	1.038039	-0.356789	0.177433
C114	C	1.385500	-0.302248	0.684768
C115	C	1.460265	-0.329801	0.615608
C116	C	1.526963	-0.286005	0.559921
C117	C	1.518896	-0.214657	0.573395
C118	C	1.444127	-0.187100	0.642558
C119	C	1.377429	-0.230896	0.698245
H120	H	1.466240	-0.382621	0.605631
H121	H	1.582312	-0.306405	0.508722
H122	H	1.568270	-0.182237	0.532173
H123	H	1.438153	-0.134281	0.652535
H124	H	1.322081	-0.210496	0.749444
C125	C	0.944816	-0.276862	0.501232
C126	C	1.048800	-0.280802	0.495236
C127	C	1.097069	-0.240823	0.555830
C128	C	1.041353	-0.196904	0.622420
C129	C	0.937362	-0.192962	0.628419
C130	C	0.889094	-0.232941	0.567825
H131	H	1.090050	-0.313315	0.445940
H132	H	1.174049	-0.243741	0.551389
H133	H	1.077084	-0.167309	0.667275
H134	H	0.896113	-0.160449	0.677715
H135	H	0.812113	-0.230023	0.572266
H136	H	1.417983	-0.280998	0.837667
C137	C	1.154472	-0.738428	0.489228
C138	C	1.154479	-0.810740	0.489201
C139	C	1.087097	-0.846873	0.556529
C140	C	1.019709	-0.810695	0.623883
C141	C	1.019700	-0.738379	0.623913
C142	C	1.087082	-0.702245	0.556585
H143	H	1.204366	-0.837524	0.439339
H144	H	1.087104	-0.900407	0.556506
H145	H	0.969829	-0.837444	0.673723
H146	H	0.969813	-0.711594	0.673775
H147	H	1.087074	-0.648712	0.556608
C148	C	1.411777	-1.139349	0.231898
C149	C	1.479163	-1.103217	0.164581
C150	C	1.546551	-1.139396	0.097219
C151	C	1.546553	-1.211707	0.097174
C152	C	1.479164	-1.247843	0.164493
C153	C	1.411777	-1.211665	0.231855
H154	H	1.479164	-1.049684	0.164613
H155	H	1.596436	-1.112645	0.047386
H156	H	1.596437	-1.238489	0.047309
H157	H	1.479164	-1.301376	0.164461
H158	H	1.361892	-1.238415	0.281688
H159	H	1.171953	-0.609776	0.471790
H160	H	1.171992	-1.129876	0.471530
H161	H	1.171993	-1.010611	0.471601
