data_functionalizedCrystal
_audit_creation_method	'MofGen! by Chris Wilmer'
_symmetry_space_group_name_H-M	'P1'
_symmetry_Int_Tables_number	1
_symmetry_cell_setting	triclinic
loop_
_symmetry_equiv_pos_as_xyz
  x,y,z
_cell_length_a	17.000383
_cell_length_b	17.038272
_cell_length_c	12.503583
_cell_angle_alpha	86.217978
_cell_angle_beta	86.762133
_cell_angle_gamma	96.644071
loop_
_atom_site_label
_atom_site_type_symbol
_atom_site_fract_x
_atom_site_fract_y
_atom_site_fract_z
O1	O	1.053719	-0.032868	0.089395
O2	O	1.553719	0.467132	0.589395
O3	O	0.823900	-0.061110	0.089382
O4	O	1.323900	0.438890	0.589382
O5	O	0.937444	0.066733	0.089380
O6	O	1.437444	0.566733	0.589380
O7	O	0.940175	-0.160711	0.089397
O8	O	1.440175	0.339289	0.589397
O9	O	0.945988	0.076360	-0.089262
O10	O	1.445988	0.576360	0.410738
O11	O	0.832443	-0.051484	-0.089261
O12	O	1.332443	0.448516	0.410739
O13	O	1.062263	-0.023242	-0.089247
O14	O	1.562263	0.476758	0.410753
Cu15	Cu	0.948133	-0.036484	-0.105565
Cu16	Cu	1.448133	0.463516	0.394435
Cu17	Cu	0.938029	-0.047868	0.105700
Cu18	Cu	1.438029	0.452132	0.605700
O19	O	0.948719	-0.151085	-0.089245
O20	O	1.448719	0.348915	0.410755
C21	C	0.798621	-0.057814	0.000059
C22	C	1.298621	0.442186	0.500059
C23	C	0.710568	-0.062324	0.000053
C24	C	1.210568	0.437676	0.500053
C25	C	0.212321	-0.091450	0.000096
C26	C	0.712321	0.408550	0.500096
C27	C	0.295057	-0.087206	0.000094
C28	C	0.795057	0.412794	0.500094
C29	C	0.341064	-0.013539	0.000081
C30	C	0.841064	0.486461	0.500081
C31	C	0.304331	0.055888	0.000079
C32	C	0.804331	0.555888	0.500079
C33	C	0.221597	0.051642	0.000088
C34	C	0.721597	0.551642	0.500088
C35	C	0.591101	0.002858	0.000061
C36	C	1.091101	0.502858	0.500061
C37	C	0.673841	0.007098	0.000048
C38	C	1.173841	0.507098	0.500048
C39	C	0.664560	-0.135996	0.000066
C40	C	1.164560	0.364004	0.500066
C41	C	0.581825	-0.140235	0.000068
C42	C	1.081825	0.359765	0.500068
C43	C	0.545099	-0.070808	0.000072
C44	C	1.045099	0.429192	0.500072
C45	C	0.425633	-0.009199	0.000076
C46	C	0.925633	0.490801	0.500076
C47	C	0.460531	-0.075150	0.000084
C48	C	0.960531	0.424850	0.500084
C49	C	0.939231	0.100505	0.000059
C50	C	1.439231	0.600505	0.500059
C51	C	0.931818	0.186790	0.000059
C52	C	1.431818	0.686790	0.500059
C53	C	1.087541	-0.026538	0.000078
C54	C	1.587541	0.473462	0.500078
C55	C	1.175594	-0.022029	0.000091
C56	C	1.675594	0.477971	0.500091
C57	C	0.946931	-0.184856	0.000078
C58	C	1.446931	0.315144	0.500078
C59	C	0.954344	-0.271142	0.000085
C60	C	1.454344	0.228858	0.500085
C61	C	0.999876	0.241565	0.000061
C62	C	1.499876	0.741565	0.500061
C63	C	0.992906	0.322637	0.000071
C64	C	1.492906	0.822637	0.500071
C65	C	0.917877	0.348934	0.000070
C66	C	1.417877	0.848934	0.500070
C67	C	0.849814	0.294152	0.000071
C68	C	1.349814	0.794152	0.500071
C69	C	0.856784	0.213081	0.000069
C70	C	1.356784	0.713081	0.500069
C71	C	0.893251	0.593005	0.000084
C72	C	1.393251	1.093005	0.500084
C73	C	0.886285	0.674083	0.000083
C74	C	1.386285	1.174083	0.500083
C75	C	1.029378	0.702563	0.000085
C76	C	1.529378	1.202563	0.500085
C77	C	1.036343	0.621489	0.000076
C78	C	1.536343	1.121489	0.500076
C79	C	0.968279	0.566714	0.000082
C80	C	1.468279	1.066714	0.500082
C81	C	0.910751	0.431803	0.000077
C82	C	1.410751	0.931803	0.500077
C83	C	0.975406	0.483846	0.000084
C84	C	1.475406	0.983846	0.500084
N85	N	0.930923	-0.055869	0.254292
N86	N	1.430923	0.444131	0.754292
C87	C	0.920462	-0.067640	0.473408
C88	C	1.420462	0.432360	0.973408
C89	C	0.965696	-0.016711	0.526734
C90	C	1.465696	0.483289	1.026734
C91	C	0.959875	-0.023260	0.648657
C92	C	1.459875	0.476740	1.148657
C93	C	0.926281	-0.061092	0.351473
C94	C	1.426281	0.438908	0.851473
N95	N	0.955238	-0.028479	0.745842
N96	N	1.455238	0.471521	1.245842
H97	H	0.174868	-0.151437	0.000099
H98	H	0.674868	0.348563	0.500099
H99	H	0.788723	0.315569	0.000077
H100	H	1.288723	0.815569	0.500077
Br101	Br	0.488079	0.090775	0.000049
Br102	Br	0.988079	0.590775	0.500049
Br103	Br	0.764416	0.138741	0.000073
Br104	Br	1.264416	0.638741	0.500073
H105	H	1.036493	0.462430	0.000108
H106	H	1.536493	0.962430	0.500108
H107	H	0.837828	0.548416	0.000088
H108	H	1.337828	1.048416	0.500088
Br109	Br	1.037527	0.064163	0.450212
Br110	Br	1.537527	0.564163	0.950212
H111	H	0.711298	0.067089	0.000043
H112	H	1.211298	0.567089	0.500043
H113	H	1.084792	0.747168	0.000082
H114	H	1.584792	1.247168	0.500082
Br115	Br	0.848632	-0.148508	0.549926
Br116	Br	1.348632	0.351492	1.049926
H117	H	0.849662	0.453223	0.000074
H118	H	1.349662	0.953223	0.500074
H119	H	1.048327	0.367233	0.000071
H120	H	1.548327	0.867233	0.500071
Br121	Br	0.344897	-0.181426	0.000111
Br122	Br	0.844897	0.318574	0.500111
H123	H	0.341797	0.115868	0.000074
H124	H	0.841797	0.615868	0.500074
Br125	Br	0.519392	-0.240215	0.000092
Br126	Br	1.019392	0.259785	0.500092
H127	H	0.694472	-0.192519	0.000064
H128	H	1.194472	0.307481	0.500064
H129	H	0.561209	0.059390	0.000061
H130	H	1.061209	0.559390	0.500061
Br131	Br	1.101707	0.205886	0.000047
Br132	Br	1.601707	0.705886	0.500047
H133	H	1.097439	0.600085	0.000077
H134	H	1.597439	1.100085	0.500077
H135	H	0.191695	0.108173	0.000086
H136	H	0.691695	0.608173	0.500086
H137	H	0.825186	0.695490	0.000065
H138	H	1.325186	1.195490	0.500065
H139	H	0.423068	-0.135129	0.000101
H140	H	0.923068	0.364871	0.500101
