data_functionalizedCrystal
_audit_creation_method	'MofGen! by Chris Wilmer'
_symmetry_space_group_name_H-M	'P1'
_symmetry_Int_Tables_number	1
_symmetry_cell_setting	triclinic
loop_
_symmetry_equiv_pos_as_xyz
  x,y,z
_cell_length_a	17.699083
_cell_length_b	14.971486
_cell_length_c	14.048226
_cell_angle_alpha	89.993360
_cell_angle_beta	89.999567
_cell_angle_gamma	83.448572
loop_
_atom_site_label
_atom_site_type_symbol
_atom_site_fract_x
_atom_site_fract_y
_atom_site_fract_z
O1	O	1.004356	0.113112	-0.079028
O2	O	1.337689	0.446446	0.254306
O3	O	1.671023	0.779779	0.587639
O4	O	0.784014	0.127829	-0.079059
O5	O	1.117347	0.461162	0.254274
O6	O	1.450681	0.794495	0.587608
O7	O	0.900091	-0.009750	-0.079036
O8	O	1.233424	0.323583	0.254298
O9	O	1.566757	0.656917	0.587631
O10	O	0.888279	0.250691	-0.079051
O11	O	1.221613	0.584024	0.254282
O12	O	1.554946	0.917357	0.587616
O13	O	0.900077	-0.009758	0.079286
O14	O	1.233410	0.323575	0.412619
O15	O	1.566743	0.656909	0.745952
O16	O	0.784000	0.127820	0.079262
O17	O	1.117333	0.461154	0.412596
O18	O	1.450667	0.794487	0.745929
O19	O	1.004342	0.113104	0.079294
O20	O	1.337676	0.446438	0.412627
O21	O	1.671009	0.779771	0.745960
Zn22	Zn	0.894169	0.120461	0.104415
Zn23	Zn	1.227502	0.453794	0.437748
Zn24	Zn	1.560836	0.787128	0.771082
Zn25	Zn	0.894187	0.120472	-0.104180
Zn26	Zn	1.227521	0.453805	0.229153
Zn27	Zn	1.560854	0.787138	0.562487
O28	O	0.888265	0.250683	0.079270
O29	O	1.221599	0.584016	0.412604
O30	O	1.554932	0.917349	0.745937
C31	C	0.899556	-0.043077	0.000125
C32	C	1.232889	0.290256	0.333458
C33	C	1.566222	0.623590	0.666791
C34	C	0.897973	-0.142368	0.000124
C35	C	1.231306	0.190965	0.333457
C36	C	1.564639	0.524298	0.666790
C37	C	0.755809	0.127297	0.000098
C38	C	1.089142	0.460631	0.333431
C39	C	1.422475	0.793964	0.666765
C40	C	0.671787	0.125715	0.000086
C41	C	1.005120	0.459049	0.333419
C42	C	1.338453	0.792382	0.666753
C43	C	0.966165	-0.199828	0.000134
C44	C	1.299498	0.133505	0.333467
C45	C	1.632831	0.466838	0.666801
C46	C	0.964673	-0.293123	0.000124
C47	C	1.298006	0.040211	0.333458
C48	C	1.631339	0.373544	0.666791
C49	C	0.894988	-0.328955	0.000111
C50	C	1.228321	0.004378	0.333444
C51	C	1.561655	0.337711	0.666778
C52	C	0.826791	-0.271488	0.000098
C53	C	1.160124	0.061845	0.333431
C54	C	1.493458	0.395178	0.666764
C55	C	0.828284	-0.178196	0.000101
C56	C	1.161617	0.155138	0.333434
C57	C	1.494950	0.488471	0.666767
C58	C	0.823685	-0.465940	0.000094
C59	C	1.157018	-0.132607	0.333427
C60	C	1.490351	0.200727	0.666760
C61	C	0.822192	-0.559239	0.000093
C62	C	1.155525	-0.225906	0.333426
C63	C	1.488858	0.107428	0.666759
C64	C	0.960074	-0.580867	0.000117
C65	C	1.293407	-0.247534	0.333451
C66	C	1.626740	0.085800	0.666784
C67	C	0.961566	-0.487574	0.000120
C68	C	1.294900	-0.154241	0.333454
C69	C	1.628233	0.179092	0.666787
C70	C	0.893369	-0.430114	0.000109
C71	C	1.226702	-0.096780	0.333442
C72	C	1.560035	0.236553	0.666776
C73	C	0.623365	0.206471	0.000082
C74	C	0.956698	0.539804	0.333415
C75	C	1.290031	0.873138	0.666748
C76	C	0.544418	0.204979	0.000094
C77	C	0.877751	0.538313	0.333427
C78	C	1.211084	0.871646	0.666761
C79	C	0.513894	0.122731	0.000104
C80	C	0.847228	0.456064	0.333437
C81	C	1.180561	0.789398	0.666771
C82	C	0.562323	0.041969	0.000111
C83	C	0.895656	0.375302	0.333445
C84	C	1.228989	0.708636	0.666778
C85	C	0.641268	0.043462	0.000106
C86	C	0.974601	0.376795	0.333439
C87	C	1.307935	0.710128	0.666772
C88	C	0.243945	0.035947	0.000135
C89	C	0.577278	0.369281	0.333469
C90	C	0.910612	0.702614	0.666802
C91	C	0.164993	0.034461	0.000138
C92	C	0.498327	0.367794	0.333471
C93	C	0.831660	0.701128	0.666805
C94	C	0.147094	0.197465	0.000124
C95	C	0.480428	0.530798	0.333457
C96	C	0.813761	0.864132	0.666790
C97	C	0.226040	0.198958	0.000118
C98	C	0.559373	0.532291	0.333451
C99	C	0.892706	0.865624	0.666785
C100	C	0.274461	0.118196	0.000130
C101	C	0.607794	0.451530	0.333464
C102	C	0.941128	0.784863	0.666797
C103	C	0.360064	0.119815	0.000119
C104	C	0.693398	0.453148	0.333452
C105	C	1.026731	0.786481	0.666785
C106	C	0.428293	0.121111	0.000109
C107	C	0.761626	0.454445	0.333442
C108	C	1.094959	0.787778	0.666776
C109	C	1.032547	0.113636	0.000135
C110	C	1.365881	0.446969	0.333468
C111	C	1.699214	0.780302	0.666802
C112	C	1.116569	0.115218	0.000140
C113	C	1.449903	0.448551	0.333474
C114	C	1.783236	0.781884	0.666807
C115	C	0.888801	0.284010	0.000108
C116	C	1.222134	0.617343	0.333441
C117	C	1.555467	0.950676	0.666775
C118	C	0.890383	0.383301	0.000103
C119	C	1.223717	0.716635	0.333436
C120	C	1.557050	1.049968	0.666770
N121	N	0.894162	0.120453	0.246776
N122	N	1.227495	0.453787	0.580109
N123	N	1.560828	0.787120	0.913442
N124	N	0.894200	0.120472	-0.246541
N125	N	1.227534	0.453806	0.086793
N126	N	1.560867	0.787139	0.420126
C127	C	0.945577	0.059559	0.296604
C128	C	1.278910	0.392892	0.629937
C129	C	1.612243	0.726225	0.963271
C130	C	0.945582	0.059558	0.396262
C131	C	1.278915	0.392891	0.729595
C132	C	1.612249	0.726225	1.062928
C133	C	0.894175	0.120457	0.446089
C134	C	1.227508	0.453791	0.779423
C135	C	1.560842	0.787124	1.112756
C136	C	0.842755	0.181355	0.396254
C137	C	1.176088	0.514688	0.729587
C138	C	1.509421	0.848021	1.062921
C139	C	0.842746	0.181350	0.296598
C140	C	1.176080	0.514684	0.629931
C141	C	1.509413	0.848017	0.963265
C142	C	0.842776	0.181361	0.603968
C143	C	1.176110	0.514695	0.937301
C144	C	1.509443	0.848028	1.270635
C145	C	0.842785	0.181367	0.703631
C146	C	1.176119	0.514700	1.036964
C147	C	1.509452	0.848034	1.370298
C148	C	0.945612	0.059569	0.703632
C149	C	1.278945	0.392902	1.036965
C150	C	1.612279	0.726236	1.370298
C151	C	0.945604	0.059565	0.603976
C152	C	1.278937	0.392898	0.937309
C153	C	1.612270	0.726231	1.270643
C154	C	0.894184	0.120464	0.554148
C155	C	1.227517	0.453797	0.887481
C156	C	1.560851	0.787130	1.220814
H157	H	1.022910	-0.170661	0.000151
H158	H	1.356243	0.162672	0.333484
H159	H	1.689577	0.496006	0.666817
H160	H	1.020202	-0.339903	0.000135
H161	H	1.353535	-0.006570	0.333468
H162	H	1.686868	0.326763	0.666801
Cl163	Cl	0.778131	0.257920	0.541331
Cl164	Cl	1.111464	0.591253	0.874664
Cl165	Cl	1.444797	0.924587	1.207997
Cl166	Cl	0.523951	-0.061430	0.000130
Cl167	Cl	0.857284	0.271904	0.333463
Cl168	Cl	1.190617	0.605237	0.666797
H169	H	0.768151	-0.419157	0.000082
H170	H	1.101484	-0.085824	0.333415
H171	H	1.434817	0.247509	0.666749
H172	H	0.772754	-0.131412	0.000092
H173	H	1.106088	0.201921	0.333425
H174	H	1.439421	0.535255	0.666759
Cl175	Cl	1.049171	-0.442529	0.000132
Cl176	Cl	1.382505	-0.109195	0.333466
Cl177	Cl	1.715838	0.224138	0.666799
Cl178	Cl	1.010210	-0.017001	0.233974
Cl179	Cl	1.343544	0.316332	0.567308
Cl180	Cl	1.676877	0.649665	0.900641
H181	H	1.015603	-0.627656	0.000124
H182	H	1.348936	-0.294323	0.333457
H183	H	1.682269	0.039010	0.666790
Cl184	Cl	1.010218	-0.016997	0.458905
Cl185	Cl	1.343552	0.316336	0.792238
Cl186	Cl	1.676885	0.649669	1.125572
Cl187	Cl	0.778124	0.257911	0.458892
Cl188	Cl	1.111457	0.591245	0.792225
Cl189	Cl	1.444791	0.924578	1.125559
Cl190	Cl	0.739187	-0.316535	0.000069
Cl191	Cl	1.072520	0.016798	0.333402
Cl192	Cl	1.405853	0.350131	0.666736
Cl193	Cl	0.734587	-0.604285	0.000077
Cl194	Cl	1.067920	-0.270951	0.333410
Cl195	Cl	1.401253	0.062382	0.666743
Cl196	Cl	0.483547	0.306506	0.000083
Cl197	Cl	0.816880	0.639839	0.333416
Cl198	Cl	1.150213	0.973172	0.666749
H199	H	0.140145	-0.032519	0.000148
H200	H	0.473478	0.300814	0.333481
H201	H	0.806812	0.634147	0.666814
H202	H	0.648210	0.273447	0.000073
H203	H	0.981543	0.606780	0.333406
H204	H	1.314876	0.940114	0.666739
H205	H	0.987479	0.009983	0.744208
H206	H	1.320813	0.343316	1.077541
H207	H	1.654146	0.676650	1.410875
Cl208	Cl	0.264407	0.302359	0.000100
Cl209	Cl	0.597740	0.635693	0.333433
Cl210	Cl	0.931074	0.969026	0.666767
H211	H	0.107660	0.263225	0.000119
H212	H	0.440993	0.596558	0.333452
H213	H	0.774326	0.929891	0.666785
Cl214	Cl	0.304807	-0.065582	0.000150
Cl215	Cl	0.638141	0.267752	0.333483
Cl216	Cl	0.971474	0.601085	0.666817
H217	H	0.680693	-0.022298	0.000109
H218	H	1.014027	0.311035	0.333442
H219	H	1.347360	0.644369	0.666776
H220	H	0.987467	0.009980	0.563407
H221	H	1.320800	0.343314	0.896740
H222	H	1.654133	0.676647	1.230073
Cl223	Cl	0.778155	0.257928	0.766264
Cl224	Cl	1.111488	0.591261	1.099597
Cl225	Cl	1.444821	0.924594	1.432930
Cl226	Cl	0.778105	0.257904	0.233958
Cl227	Cl	1.111438	0.591238	0.567291
Cl228	Cl	1.444771	0.924571	0.900624
