data_functionalizedCrystal
_audit_creation_method	'MofGen! by Chris Wilmer'
_symmetry_space_group_name_H-M	'P1'
_symmetry_Int_Tables_number	1
_symmetry_cell_setting	triclinic
loop_
_symmetry_equiv_pos_as_xyz
  x,y,z
_cell_length_a	12.645323
_cell_length_b	19.077253
_cell_length_c	19.077068
_cell_angle_alpha	90.058363
_cell_angle_beta	87.733562
_cell_angle_gamma	92.281633
loop_
_atom_site_label
_atom_site_type_symbol
_atom_site_fract_x
_atom_site_fract_y
_atom_site_fract_z
Zn1	Zn	-0.554404	1.062979	0.322817
Zn2	Zn	-0.054404	1.562979	0.822817
Zn3	Zn	-0.384521	1.058160	0.440329
Zn4	Zn	0.115479	1.558160	0.940329
Zn5	Zn	-0.383997	0.945468	0.318132
Zn6	Zn	0.116003	1.445468	0.818132
Zn7	Zn	-0.568577	0.940718	0.435577
Zn8	Zn	-0.068577	1.440718	0.935577
O9	O	-0.472875	1.001831	0.379214
O10	O	0.027125	1.501831	0.879214
O11	O	-0.526157	1.160668	0.342356
O12	O	-0.026157	1.660668	0.842356
O13	O	-0.236108	1.043182	0.424148
O14	O	0.263892	1.543182	0.924148
O15	O	-0.400450	0.965061	0.220423
O16	O	0.099550	1.465061	0.720423
O17	O	-0.401345	1.157127	0.428691
O18	O	0.098655	1.657127	0.928691
O19	O	-0.525648	1.051396	0.223865
O20	O	-0.025648	1.551396	0.723865
O21	O	-0.235722	0.960388	0.334369
O22	O	0.264278	1.460388	0.834369
O23	O	-0.414193	0.846510	0.329761
O24	O	0.085807	1.346510	0.829761
O25	O	-0.715041	0.956965	0.420591
O26	O	-0.215041	1.456965	0.920591
O27	O	-0.549804	0.843020	0.416047
O28	O	-0.049804	1.343020	0.916047
O29	O	-0.704628	1.046790	0.337747
O30	O	-0.204628	1.546790	0.837747
O31	O	-0.415088	1.038576	0.538029
O32	O	0.084912	1.538576	1.038029
O33	O	-0.550312	0.952292	0.534537
O34	O	-0.050312	1.452292	1.034537
C35	C	-0.483480	0.819270	0.371880
C36	C	0.016520	1.319270	0.871880
C37	C	-0.488044	0.741168	0.368760
C38	C	0.011956	1.241168	0.868760
C39	C	-0.484317	0.994415	0.561780
C40	C	0.015683	1.494415	1.061780
C41	C	-0.489244	0.991306	0.639885
C42	C	0.010756	1.491306	1.139885
C43	C	-0.749374	1.001885	0.379161
C44	C	-0.249374	1.501885	0.879161
C45	C	-0.867201	1.001908	0.379139
C46	C	-0.367201	1.501908	0.879139
C47	C	-1.041310	0.945242	0.430994
C48	C	-0.541310	1.445242	0.930994
C49	C	-0.918758	0.945374	0.431267
C50	C	-0.418758	1.445374	0.931267
C51	C	-0.908668	1.075135	0.402204
C52	C	-0.408668	1.575135	0.902204
C53	C	-1.031305	1.074822	0.402531
C54	C	-0.531305	1.574822	0.902531
C55	C	-1.030827	0.986060	0.303945
C56	C	-0.530827	1.486060	0.803945
C57	C	-0.908345	0.984390	0.304325
C58	C	-0.408345	1.484390	0.804325
C59	C	-0.197446	1.001820	0.379217
C60	C	0.302554	1.501820	0.879217
C61	C	-0.079599	1.001941	0.379046
C62	C	0.420401	1.501941	0.879046
C63	C	-0.462228	1.185106	0.386576
C64	C	0.037772	1.685106	0.886576
C65	C	-0.457691	1.263207	0.389714
C66	C	0.042309	1.763207	0.889714
C67	C	-0.520540	1.301743	0.346240
C68	C	-0.020540	1.801743	0.846240
C69	C	-0.516283	1.375126	0.349198
C70	C	-0.016283	1.875126	0.849198
C71	C	-0.449170	1.409972	0.395625
C72	C	0.050830	1.909972	0.895625
C73	C	-0.386319	1.371431	0.439104
C74	C	0.113681	1.871431	0.939104
C75	C	-0.390582	1.298048	0.436150
C76	C	0.109418	1.798048	0.936150
C77	C	-0.429456	1.629244	0.409284
C78	C	0.070544	2.129244	0.909284
C79	C	-0.425195	1.702632	0.412233
C80	C	0.074805	2.202632	0.912233
C81	C	-0.555161	1.706322	0.322328
C82	C	-0.055161	2.206322	0.822328
C83	C	-0.559414	1.632939	0.319375
C84	C	-0.059414	2.132939	0.819375
C85	C	-0.496566	1.594403	0.362856
C86	C	0.003434	2.094403	0.862856
N87	N	-0.444814	1.484982	0.398648
N88	N	0.055186	1.984982	0.898648
N89	N	-0.500929	1.519395	0.359836
N90	N	-0.000929	2.019395	0.859836
C91	C	-0.461410	1.009296	0.195935
C92	C	0.038590	1.509296	0.695935
C93	C	-0.456524	1.012477	0.117833
C94	C	0.043476	1.512477	0.617833
C95	C	-0.421208	1.034804	0.678376
C96	C	0.078792	1.534804	1.178376
C97	C	-0.425848	1.031884	0.751764
C98	C	0.074152	1.531884	1.251764
C99	C	-0.498519	0.985463	0.786660
C100	C	0.001481	1.485463	1.286660
C101	C	-0.566562	0.941963	0.748165
C102	C	-0.066562	1.441963	1.248165
C103	C	-0.561926	0.944887	0.674778
C104	C	-0.061926	1.444887	1.174778
C105	C	-0.519931	0.971901	1.005951
C106	C	-0.019931	1.471901	1.505951
C107	C	-0.524560	0.968979	1.079343
C108	C	-0.024560	1.468979	1.579343
C109	C	-0.383847	1.058902	1.082936
C110	C	0.116153	1.558902	1.582936
C111	C	-0.379213	1.061818	1.009548
C112	C	0.120787	1.561818	1.509548
C113	C	-0.447260	1.018321	0.971059
C114	C	0.052740	1.518321	1.471059
N115	N	-0.503261	0.982476	0.861675
N116	N	-0.003261	1.482476	1.361675
N117	N	-0.442522	1.021312	0.896046
N118	N	0.057478	1.521312	1.396046
H119	H	-1.073210	0.890681	0.416331
H120	H	-0.573210	1.390681	0.916331
H121	H	-0.370445	1.067304	0.783099
H122	H	0.129555	1.567304	1.283099
H123	H	-0.872915	1.022908	0.263337
H124	H	-0.372915	1.522908	0.763337
O125	O	-1.072488	1.093108	0.475372
O126	O	-0.572488	1.593108	0.975372
H127	H	-1.118302	1.141430	0.473080
H128	H	-0.618302	1.641430	0.973080
H129	H	-0.320039	1.099618	0.981137
H130	H	0.179961	1.599618	1.481137
H131	H	-0.617329	0.909467	0.643440
H132	H	-0.117329	1.409467	1.143440
H133	H	-0.339406	1.266673	0.471552
H134	H	0.160594	1.766673	0.971552
O135	O	-0.342831	1.084876	0.640738
O136	O	0.157169	1.584876	1.140738
H137	H	-0.296311	1.114637	0.679835
H138	H	0.203689	1.614637	1.179835
H139	H	-0.328448	1.094315	1.114282
H140	H	0.171552	1.594315	1.614282
O141	O	-0.593317	0.924973	0.964455
O142	O	-0.093317	1.424973	1.464455
H143	H	-0.643371	0.957727	0.932233
H144	H	-0.143371	1.457727	1.432233
H145	H	-0.625737	0.904169	0.776584
H146	H	-0.125737	1.404169	1.276584
O147	O	-0.882061	0.873332	0.411671
O148	O	-0.382061	1.373332	0.911671
H149	H	-0.951889	0.838082	0.401920
H150	H	-0.451889	1.338082	0.901920
O151	O	-1.085773	0.958633	0.504194
O152	O	-0.585773	1.458633	1.004194
H153	H	-1.135014	1.005500	0.503741
H154	H	-0.635014	1.505500	1.003741
H155	H	-0.606328	1.737706	0.286929
H156	H	-0.106328	2.237706	0.786929
O157	O	-0.883537	0.958847	0.504949
O158	O	-0.383537	1.458847	1.004949
H159	H	-0.954070	0.965316	0.540520
H160	H	-0.454070	1.465316	1.040520
O161	O	-0.602951	0.918914	1.116986
O162	O	-0.102951	1.418914	1.616986
H163	H	-0.649498	0.889164	1.077894
H164	H	-0.149498	1.389164	1.577894
H165	H	-1.056170	1.118339	0.366499
H166	H	-0.556170	1.618339	0.866499
O167	O	-0.592928	1.264167	0.296160
O168	O	-0.092928	1.764167	0.796160
H169	H	-0.545186	1.232190	0.259068
H170	H	-0.045186	1.732190	0.759068
O171	O	-0.863673	1.132430	0.353859
O172	O	-0.363673	1.632430	0.853859
H173	H	-0.811150	1.109266	0.312782
H174	H	-0.311150	1.609266	0.812782
H175	H	-1.063673	0.933750	0.283500
H176	H	-0.563673	1.433750	0.783500
O177	O	-0.871247	1.093829	0.474306
O178	O	-0.371247	1.593829	0.974306
H179	H	-0.823129	1.051085	0.493832
H180	H	-0.323129	1.551085	0.993832
H181	H	-1.054997	1.027393	0.265206
H182	H	-0.554997	1.527393	0.765206
O183	O	-0.872731	0.913036	0.281340
O184	O	-0.372731	1.413036	0.781340
H185	H	-0.825918	0.890139	0.323020
H186	H	-0.325918	1.390139	0.823020
H187	H	-0.614068	1.604572	0.281571
H188	H	-0.114068	2.104572	0.781571
O189	O	-0.584053	1.416694	0.302299
O190	O	-0.084053	1.916694	0.802299
H191	H	-0.631422	1.380135	0.269509
H192	H	-0.131422	1.880135	0.769509
O193	O	-0.352799	1.740214	0.462311
O194	O	0.147201	2.240214	0.962311
H195	H	-0.360383	1.797716	0.457050
H196	H	0.139617	2.297716	0.957050
H197	H	-0.378278	1.597877	0.444687
H198	H	0.121722	2.097877	0.944687
O199	O	-0.313923	1.409009	0.489177
O200	O	0.186077	1.909009	0.989177
H201	H	-0.321505	1.466512	0.483922
H202	H	0.178495	1.966512	0.983922
