data_functionalizedCrystal
_audit_creation_method	'MofGen! by Chris Wilmer'
_symmetry_space_group_name_H-M	'P1'
_symmetry_Int_Tables_number	1
_symmetry_cell_setting	triclinic
loop_
_symmetry_equiv_pos_as_xyz
  x,y,z
_cell_length_a	19.805407
_cell_length_b	13.897447
_cell_length_c	13.897441
_cell_angle_alpha	89.973472
_cell_angle_beta	90.021065
_cell_angle_gamma	89.981488
loop_
_atom_site_label
_atom_site_type_symbol
_atom_site_fract_x
_atom_site_fract_y
_atom_site_fract_z
Zn1	Zn	1.034782	0.384053	0.545417
Zn2	Zn	1.034701	0.545375	0.384130
Zn3	Zn	0.921590	0.384088	0.384134
Zn4	Zn	0.921570	0.545300	0.545381
O5	O	0.978161	0.464704	0.464766
O6	O	1.129488	0.405470	0.524035
O7	O	1.019671	0.524026	0.249149
O8	O	0.936648	0.249102	0.405546
O9	O	1.129428	0.523992	0.405538
O10	O	1.019809	0.249076	0.524039
O11	O	0.936569	0.405529	0.249152
O12	O	0.826871	0.405456	0.405511
O13	O	0.936614	0.523865	0.680368
O14	O	0.826857	0.523899	0.523979
O15	O	1.019790	0.405397	0.680394
O16	O	1.019651	0.680347	0.405503
O17	O	0.936535	0.680292	0.523974
C18	C	0.802305	0.464674	0.464742
C19	C	0.727073	0.464684	0.464755
C20	C	0.691760	0.403079	0.526550
C21	C	0.621072	0.403084	0.526554
C22	C	0.585697	0.464700	0.464767
C23	C	0.621015	0.526308	0.402965
C24	C	0.691702	0.526297	0.402957
C25	C	0.335941	0.526351	0.402994
C26	C	0.265249	0.526359	0.403009
C27	C	0.265312	0.403138	0.526591
C28	C	0.335999	0.403127	0.526584
C29	C	0.371310	0.464731	0.464778
C30	C	0.447958	0.464724	0.464774
C31	C	0.509050	0.464713	0.464775
C32	C	0.978101	0.715318	0.464756
C33	C	0.978137	0.822532	0.464783
C34	C	0.978168	0.909602	0.464810
C35	C	0.978213	1.018835	0.464840
C36	C	1.154704	0.464735	0.464790
C37	C	1.229935	0.464748	0.464800
C38	C	0.978209	0.464619	0.716359
C39	C	0.978229	0.464583	0.823573
C40	C	0.978235	1.213111	0.464809
C41	C	0.978253	1.105897	0.464859
C42	C	0.978152	0.464719	0.214151
C43	C	0.978263	0.464484	0.106938
C44	C	0.978248	0.464517	1.019868
C45	C	0.978235	0.464556	0.910635
H46	H	0.236553	0.352973	0.576913
H47	H	0.364797	0.352956	0.576900
O48	O	0.729794	0.592744	0.336308
H49	H	0.693322	0.635597	0.293350
H50	H	0.236449	0.576537	0.352691
O51	O	0.729908	0.336613	0.593192
H52	H	0.762118	0.379835	0.642201
O53	O	0.582860	0.592761	0.336318
H54	H	0.619293	0.635590	0.293339
O55	O	0.374024	0.592789	0.336334
H56	H	0.337548	0.635639	0.293378
H57	H	0.592324	0.352920	0.576876
