data_functionalizedCrystal
_audit_creation_method	'MofGen! by Chris Wilmer'
_symmetry_space_group_name_H-M	'P1'
_symmetry_Int_Tables_number	1
_symmetry_cell_setting	triclinic
loop_
_symmetry_equiv_pos_as_xyz
  x,y,z
_cell_length_a	23.532407
_cell_length_b	23.532409
_cell_length_c	22.010155
_cell_angle_alpha	90.007292
_cell_angle_beta	89.996931
_cell_angle_gamma	82.849119
loop_
_atom_site_label
_atom_site_type_symbol
_atom_site_fract_x
_atom_site_fract_y
_atom_site_fract_z
O1	O	0.755264	0.069127	-0.050445
O2	O	1.255264	0.569127	0.449555
O3	O	0.589401	0.079130	-0.050463
O4	O	1.089401	0.579130	0.449537
O5	O	0.677334	-0.008803	-0.050454
O6	O	1.177334	0.491197	0.449546
O7	O	0.667332	0.157060	-0.050454
O8	O	1.167332	0.657060	0.449546
O9	O	0.677318	-0.008790	0.050596
O10	O	1.177318	0.491210	0.550596
O11	O	0.589385	0.079143	0.050588
O12	O	1.089385	0.579143	0.550588
O13	O	0.755248	0.069140	0.050605
O14	O	1.255248	0.569140	0.550605
Cu15	Cu	0.672315	0.074143	0.059823
Cu16	Cu	1.172315	0.574143	0.559823
Cu17	Cu	0.672334	0.074127	-0.059681
Cu18	Cu	1.172334	0.574127	0.440319
O19	O	0.667316	0.157073	0.050596
O20	O	1.167316	0.657073	0.550596
C21	C	0.568177	0.078882	0.000060
C22	C	1.068177	0.578882	0.500060
C23	C	0.504960	0.078116	0.000053
C24	C	1.004960	0.578116	0.500053
C25	C	0.105857	0.125349	0.000081
C26	C	0.605857	0.625349	0.500081
C27	C	0.046457	0.124638	0.000085
C28	C	0.546457	0.624638	0.500085
O29	O	0.009713	0.168424	0.000107
O30	O	0.509713	0.668424	0.500107
N31	N	0.023830	0.072362	0.000084
N32	N	0.523830	0.572362	0.500084
C33	C	0.060608	0.020794	0.000085
C34	C	0.560608	0.520794	0.500085
O35	O	0.035908	-0.023737	0.000085
O36	O	0.535908	0.476263	0.500085
C37	C	0.120007	0.021506	0.000086
C38	C	0.620007	0.521506	0.500086
C39	C	0.142630	0.073785	0.000081
C40	C	0.642630	0.573785	0.500081
C41	C	0.128481	0.177625	0.000077
C42	C	0.628481	0.677625	0.500077
C43	C	0.187877	0.178336	0.000072
C44	C	0.687877	0.678336	0.500072
C45	C	0.224649	0.126772	0.000071
C46	C	0.724649	0.626772	0.500071
C47	C	0.202026	0.074496	0.000076
C48	C	0.702026	0.574496	0.500076
C49	C	0.156783	-0.030062	0.000091
C50	C	0.656783	0.469938	0.500091
C51	C	0.216185	-0.029345	0.000092
C52	C	0.716185	0.470655	0.500092
C53	C	0.238808	0.022934	0.000087
C54	C	0.738808	0.522934	0.500087
C55	C	0.298195	0.023643	0.000070
C56	C	0.798195	0.523643	0.500070
N57	N	0.320821	0.075920	0.000071
N58	N	0.820821	0.575920	0.500071
C59	C	0.284049	0.127484	0.000072
C60	C	0.784049	0.627484	0.500072
C61	C	-0.064135	0.019302	0.000085
C62	C	0.435865	0.519302	0.500085
C63	C	-0.123533	0.018589	0.000080
C64	C	0.376467	0.518589	0.500080
C65	C	-0.137679	0.122434	0.000081
C66	C	0.362321	0.622434	0.500081
C67	C	-0.078280	0.123146	0.000081
C68	C	0.421720	0.623146	0.500081
C69	C	-0.041508	0.071578	0.000086
C70	C	0.458492	0.571578	0.500086
C71	C	0.408785	0.128974	0.000061
C72	C	0.908785	0.628974	0.500061
C73	C	0.468187	0.129680	0.000054
C74	C	0.968187	0.629680	0.500054
C75	C	0.482329	0.025836	0.000056
C76	C	0.982329	0.525836	0.500056
C77	C	0.422932	0.025129	0.000060
C78	C	0.922932	0.525129	0.500060
C79	C	0.386161	0.076702	0.000065
C80	C	0.886161	0.576702	0.500065
O81	O	0.334973	-0.020119	0.000051
O82	O	0.834973	0.479881	0.500051
O83	O	0.308757	0.172007	0.000080
O84	O	0.808757	0.672007	0.500080
C85	C	0.677071	-0.030013	0.000069
C86	C	1.177071	0.469987	0.500069
C87	C	0.676304	-0.093230	0.000065
C88	C	1.176304	0.406770	0.500065
C89	C	0.673054	-0.366482	-0.055021
C90	C	1.173054	0.133518	0.444979
C91	C	0.673766	-0.307082	-0.055021
C92	C	1.173766	0.192918	0.444979
O93	O	0.674161	-0.276363	-0.101865
O94	O	1.174161	0.223637	0.398135
N95	N	0.674109	-0.277372	0.000063
N96	N	1.174109	0.222628	0.500063
C97	C	0.673747	-0.307067	0.055150
C98	C	1.173747	0.192933	0.555150
O99	O	0.674105	-0.276343	0.102003
O100	O	1.174105	0.223657	0.602003
C101	C	0.673039	-0.366467	0.055149
C102	C	1.173039	0.133533	0.555149
C103	C	0.672690	-0.396172	0.000062
C104	C	1.172690	0.103828	0.500062
C105	C	0.672705	-0.396187	-0.110103
C106	C	1.172705	0.103813	0.389897
C107	C	0.671993	-0.455583	-0.110103
C108	C	1.171993	0.044417	0.389897
C109	C	0.671629	-0.485274	-0.055020
C110	C	1.171629	0.014726	0.444980
C111	C	0.671977	-0.455568	0.000062
C112	C	1.171977	0.044432	0.500062
C113	C	0.672681	-0.396161	0.110236
C114	C	1.172681	0.103839	0.610236
C115	C	0.671974	-0.455565	0.110230
C116	C	1.171974	0.044435	0.610230
C117	C	0.671625	-0.485270	0.055143
C118	C	1.171625	0.014730	0.555143
C119	C	0.670901	-0.544654	0.055146
C120	C	1.170901	-0.044654	0.555146
N121	N	0.670557	-0.574364	0.000062
N122	N	1.170557	-0.074364	0.500062
C123	C	0.670921	-0.544673	-0.055021
C124	C	1.170921	-0.044673	0.444979
C125	C	0.675234	-0.182324	0.055147
C126	C	1.175234	0.317676	0.555147
C127	C	0.675937	-0.122925	0.055148
C128	C	1.175937	0.377075	0.555148
C129	C	0.675957	-0.122944	-0.055023
C130	C	1.175957	0.377056	0.444977
C131	C	0.675250	-0.182343	-0.055023
C132	C	1.175250	0.317657	0.444977
C133	C	0.674890	-0.212033	0.000063
C134	C	1.174890	0.287967	0.500063
C135	C	0.669424	-0.669409	-0.055016
C136	C	1.169424	-0.169409	0.444984
C137	C	0.668709	-0.728810	-0.055011
C138	C	1.168709	-0.228810	0.444989
C139	C	0.668692	-0.728786	0.055160
C140	C	1.168692	-0.228786	0.555160
C141	C	0.669404	-0.669390	0.055155
C142	C	1.169404	-0.169390	0.555155
C143	C	0.669772	-0.639703	0.000062
C144	C	1.169772	-0.139703	0.500062
O145	O	0.670507	-0.575411	0.101965
O146	O	1.170507	-0.075411	0.601965
O147	O	0.670571	-0.575406	-0.101866
O148	O	1.170571	-0.075406	0.398134
C149	C	0.776472	0.069388	0.000081
C150	C	1.276472	0.569388	0.500081
C151	C	0.839689	0.070154	0.000083
C152	C	1.339689	0.570154	0.500083
C153	C	0.667579	0.178283	0.000071
C154	C	1.167579	0.678283	0.500071
C155	C	0.668345	0.241500	0.000072
C156	C	1.168345	0.741500	0.500072
N157	N	0.672306	0.074153	0.143875
N158	N	1.172306	0.574153	0.643875
N159	N	0.672348	0.074112	-0.143733
N160	N	1.172348	0.574112	0.356267
C161	C	0.711273	0.035196	0.563659
C162	C	1.211273	0.535196	1.063659
C163	C	0.711276	0.035192	0.627266
C164	C	1.211276	0.535192	1.127266
O165	O	0.744384	0.002076	0.660161
O166	O	1.244384	0.502076	1.160161
N167	N	0.672334	0.074115	0.659083
N168	N	1.172334	0.574115	1.159083
C169	C	0.633383	0.113041	0.627288
C170	C	1.133383	0.613041	1.127288
O171	O	0.600260	0.146148	0.660191
O172	O	1.100260	0.646148	1.160191
C173	C	0.633378	0.113042	0.563682
C174	C	1.133378	0.613042	1.063682
C175	C	0.672326	0.074120	0.531868
C176	C	1.172326	0.574120	1.031868
C177	C	0.750217	-0.003723	0.531845
C178	C	1.250217	0.496277	1.031845
C179	C	0.750215	-0.003719	0.468242
C180	C	1.250215	0.496281	0.968242
C181	C	0.711269	0.035205	0.436452
C182	C	1.211269	0.535205	0.936452
C183	C	0.672324	0.074125	0.468265
C184	C	1.172324	0.574125	0.968265
C185	C	0.594425	0.151965	0.531888
C186	C	1.094425	0.651965	1.031888
C187	C	0.594423	0.151962	0.468277
C188	C	1.094423	0.651962	0.968277
C189	C	0.633371	0.113040	0.436464
C190	C	1.133371	0.613040	0.936464
C191	C	0.633375	0.113054	0.372872
C192	C	1.133375	0.613054	0.872872
N193	N	0.672317	0.074130	0.341056
N194	N	1.172317	0.574130	0.841056
C195	C	0.711264	0.035206	0.372846
C196	C	1.211264	0.535206	0.872846
C197	C	0.633396	0.113036	0.760866
C198	C	1.133396	0.613036	1.260866
C199	C	0.633403	0.113038	0.824471
C200	C	1.133403	0.613038	1.324471
C201	C	0.711295	0.035188	0.824445
C202	C	1.211295	0.535188	1.324445
C203	C	0.711290	0.035189	0.760838
C204	C	1.211290	0.535189	1.260838
C205	C	0.672337	0.074113	0.729049
C206	C	1.172337	0.574113	1.229049
C207	C	0.711257	0.035219	0.239274
C208	C	1.211257	0.535219	0.739274
C209	C	0.711253	0.035229	0.175665
C210	C	1.211253	0.535229	0.675665
C211	C	0.633359	0.113077	0.175697
C212	C	1.133359	0.613077	0.675697
C213	C	0.633365	0.113070	0.239301
C214	C	1.133365	0.613070	0.739301
C215	C	0.672316	0.074136	0.271088
C216	C	1.172316	0.574136	0.771088
O217	O	0.600283	0.146151	0.339937
O218	O	1.100283	0.646151	0.839937
O219	O	0.744376	0.002100	0.339935
O220	O	1.244376	0.502100	0.839935
H221	H	0.378853	0.170970	0.000067
H222	H	0.878853	0.670970	0.500067
H223	H	-0.059865	0.165717	0.000081
H224	H	0.440135	0.665717	0.500081
H225	H	0.668422	-0.752993	-0.099871
H226	H	1.168422	-0.252993	0.400129
H227	H	0.669666	-0.645200	0.100011
H228	H	1.169666	-0.145200	0.600011
H229	H	0.743004	0.003495	0.734940
H230	H	1.243004	0.503495	1.234940
Br231	Br	0.673201	-0.355905	-0.184869
Br232	Br	1.173201	0.144095	0.315131
H233	H	0.674964	-0.206525	-0.099880
H234	H	1.174964	0.293475	0.400120
H235	H	0.676252	-0.098759	-0.099874
H236	H	1.176252	0.401241	0.400126
Br237	Br	0.803080	-0.056557	0.574978
Br238	Br	1.303080	0.443443	1.074978
Br239	Br	0.580506	0.165903	0.132544
Br240	Br	1.080506	0.665903	0.632544
H241	H	0.486603	0.172254	0.000049
H242	H	0.986603	0.672254	0.500049
H243	H	0.674936	-0.206493	0.100008
H244	H	1.174936	0.293507	0.600008
H245	H	0.676211	-0.098742	0.100006
H246	H	1.176211	0.401258	0.600006
Br247	Br	0.764151	-0.017637	0.867602
Br248	Br	1.264151	0.482363	1.367602
Br249	Br	0.580513	0.165901	0.282474
Br250	Br	1.080513	0.665901	0.782474
Br251	Br	0.673146	-0.355860	0.185002
Br252	Br	1.173146	0.144140	0.685002
H253	H	-0.167631	0.164421	0.000084
H254	H	0.332369	0.664421	0.500084
Br255	Br	0.671490	-0.495855	0.184995
Br256	Br	1.171490	0.004145	0.684995
H257	H	0.671712	-0.479765	-0.154961
H258	H	1.171712	0.020235	0.345039
H259	H	-0.141947	-0.023982	0.000074
H260	H	0.358053	0.476018	0.500074
Br261	Br	0.580552	0.165872	0.867639
Br262	Br	1.080552	0.665872	1.367639
Br263	Br	-0.014235	-0.050690	0.000085
Br264	Br	0.485765	0.449310	0.500085
Br265	Br	0.580530	0.165870	0.717730
Br266	Br	1.080530	0.665870	1.217730
H267	H	0.206291	0.220907	0.000068
H268	H	0.706291	0.720907	0.500068
H269	H	0.781929	-0.035414	0.442344
H270	H	1.281929	0.464586	0.942344
Br271	Br	0.126096	-0.101017	0.000085
Br272	Br	0.626096	0.398983	0.500085
Br273	Br	0.541553	0.204788	0.425140
Br274	Br	1.041553	0.704788	0.925140
Br275	Br	0.078585	0.247615	0.000077
Br276	Br	0.578585	0.747615	0.500077
H277	H	0.668393	-0.752971	0.100007
H278	H	1.168393	-0.252971	0.600007
H279	H	0.742971	0.003534	0.149765
H280	H	1.242971	0.503534	0.649765
H281	H	0.246123	-0.071339	0.000096
H282	H	0.746123	0.428661	0.500096
H283	H	0.669724	-0.645245	-0.099878
H284	H	1.169724	-0.145245	0.400122
H285	H	0.404512	-0.017441	0.000055
H286	H	0.904512	0.482559	0.500055
H287	H	0.512279	-0.016146	0.000053
H288	H	1.012279	0.483854	0.500053
Br289	Br	0.764119	-0.017620	0.282403
Br290	Br	1.264119	0.482380	0.782403
H291	H	0.562710	0.183658	0.557782
H292	H	1.062710	0.683658	1.057782
