data_functionalizedCrystal
_audit_creation_method	'MofGen! by Chris Wilmer'
_symmetry_space_group_name_H-M	'P1'
_symmetry_Int_Tables_number	1
_symmetry_cell_setting	triclinic
loop_
_symmetry_equiv_pos_as_xyz
  x,y,z
_cell_length_a	19.288864
_cell_length_b	17.699083
_cell_length_c	18.366186
_cell_angle_alpha	89.992864
_cell_angle_beta	89.977106
_cell_angle_gamma	83.209630
loop_
_atom_site_label
_atom_site_type_symbol
_atom_site_fract_x
_atom_site_fract_y
_atom_site_fract_z
O1	O	0.921465	0.094417	-0.060785
O2	O	1.421465	0.594417	0.439215
O3	O	0.719219	0.107154	-0.060735
O4	O	1.219219	0.607154	0.439265
O5	O	0.826056	-0.009412	-0.060755
O6	O	1.326056	0.490588	0.439245
O7	O	0.814628	0.210983	-0.060765
O8	O	1.314628	0.710983	0.439235
O9	O	0.826038	-0.009417	0.060345
O10	O	1.326038	0.490583	0.560345
O11	O	0.719201	0.107148	0.060364
O12	O	1.219201	0.607148	0.560364
O13	O	0.921446	0.094412	0.060315
O14	O	1.421446	0.594412	0.560315
Zn15	Zn	0.820321	0.100779	0.079567
Zn16	Zn	1.320321	0.600779	0.579567
Zn17	Zn	0.820345	0.100786	-0.079987
Zn18	Zn	1.320345	0.600786	0.420013
O19	O	0.814610	0.210977	0.060335
O20	O	1.314610	0.710977	0.560335
C21	C	0.693333	0.106741	-0.000179
C22	C	1.193333	0.606741	0.499821
C23	C	0.616228	0.105511	-0.000160
C24	C	1.116228	0.605511	0.499840
C25	C	0.571613	0.173906	-0.000174
C26	C	1.071613	0.673906	0.499826
C27	C	0.499164	0.172751	-0.000182
C28	C	0.999164	0.672751	0.499818
C29	C	0.471334	0.103196	-0.000190
C30	C	0.971334	0.603196	0.499810
C31	C	0.515959	0.034791	-0.000172
C32	C	1.015959	0.534791	0.499828
C33	C	0.588406	0.035949	-0.000156
C34	C	1.088406	0.535949	0.499844
C35	C	0.363014	0.048520	-0.042639
C36	C	0.863014	0.548520	0.457361
C37	C	0.290568	0.047365	-0.042659
C38	C	0.790568	0.547365	0.457341
C39	C	0.247884	0.099622	-0.000234
C40	C	0.747884	0.599622	0.499766
C41	C	0.277654	0.153047	0.042200
C42	C	0.777654	0.653047	0.542200
C43	C	0.350101	0.154205	0.042216
C44	C	0.850101	0.654205	0.542216
C45	C	0.392779	0.101932	-0.000206
C46	C	0.892779	0.601932	0.499794
C47	C	0.124712	0.166769	-0.000256
C48	C	0.624712	0.666769	0.499744
C49	C	0.052262	0.165610	-0.000260
C50	C	0.552262	0.665610	0.499740
C51	C	0.069059	0.027649	-0.000257
C52	C	0.569059	0.527649	0.499743
C53	C	0.141507	0.028809	-0.000246
C54	C	0.641507	0.528809	0.499754
C55	C	0.169329	0.098371	-0.000249
C56	C	0.669329	0.598371	0.499751
C57	C	0.825637	-0.037611	-0.000205
C58	C	1.325637	0.462389	0.499795
C59	C	0.824409	-0.121627	-0.000204
C60	C	1.324409	0.378373	0.499796
C61	C	0.887120	-0.170336	-0.000219
C62	C	1.387120	0.329664	0.499781
C63	C	0.885961	-0.249278	-0.000225
C64	C	1.385961	0.250722	0.499775
C65	C	0.822091	-0.279509	-0.000211
C66	C	1.322091	0.220491	0.499789
C67	C	0.759375	-0.230794	-0.000199
C68	C	1.259375	0.269206	0.499801
C69	C	0.760535	-0.151854	-0.000198
C70	C	1.260535	0.348146	0.499802
C71	C	0.754699	-0.549150	-0.000204
C72	C	1.254699	-0.049150	0.499796
C73	C	0.753545	-0.628097	-0.000203
C74	C	1.253545	-0.128097	0.499797
C75	C	0.880126	-0.646575	-0.000230
C76	C	1.380126	-0.146575	0.499770
C77	C	0.881285	-0.567635	-0.000230
C78	C	1.381285	-0.067635	0.499770
C79	C	0.818570	-0.518926	-0.000221
C80	C	1.318570	-0.018926	0.499779
C81	C	0.819827	-0.433329	-0.000216
C82	C	1.319827	0.066671	0.499784
C83	C	0.820834	-0.365105	-0.000211
C84	C	1.320834	0.134895	0.499789
C85	C	0.947332	0.094824	-0.000243
C86	C	1.447332	0.594824	0.499757
C87	C	1.024437	0.096054	-0.000267
C88	C	1.524437	0.596054	0.499733
C89	C	0.815028	0.239176	-0.000217
C90	C	1.315028	0.739176	0.499783
C91	C	0.816257	0.323193	-0.000222
C92	C	1.316257	0.823193	0.499778
N93	N	0.820310	0.100773	0.188458
N94	N	1.320310	0.600773	0.688458
N95	N	0.820361	0.100786	-0.188878
N96	N	1.320361	0.600786	0.311122
C97	C	0.867632	0.049183	0.226550
C98	C	1.367632	0.549183	0.726550
C99	C	0.867637	0.049180	0.302777
C100	C	1.367637	0.549180	0.802777
C101	C	0.820325	0.100780	0.340911
C102	C	1.320325	0.600780	0.840911
C103	C	0.772993	0.152373	0.302810
C104	C	1.272993	0.652373	0.802810
C105	C	0.772986	0.152370	0.226583
C106	C	1.272986	0.652370	0.726583
C107	C	0.811108	0.169742	0.461669
C108	C	1.311108	0.669742	0.961669
C109	C	0.811121	0.169746	0.537894
C110	C	1.311121	0.669746	1.037894
C111	C	0.820345	0.100789	0.576018
C112	C	1.320345	0.600789	1.076018
C113	C	0.829571	0.031825	0.537908
C114	C	1.329571	0.531825	1.037908
C115	C	0.829563	0.031822	0.461681
C116	C	1.329563	0.531822	0.961681
C117	C	0.820328	0.100788	0.423565
C118	C	1.320328	0.600788	0.923565
C119	C	0.867675	0.049191	0.696765
C120	C	1.367675	0.549191	1.196765
C121	C	0.867674	0.049187	0.772994
C122	C	1.367674	0.549187	1.272994
C123	C	0.773034	0.152387	0.773025
C124	C	1.273034	0.652387	1.273025
C125	C	0.773031	0.152385	0.696797
C126	C	1.273031	0.652385	1.196797
C127	C	0.820355	0.100788	0.658672
C128	C	1.320355	0.600788	1.158672
H129	H	0.594260	0.230549	-0.000178
H130	H	1.094260	0.730549	0.499822
H131	H	0.906174	0.007168	0.333797
H132	H	1.406174	0.507168	0.833797
H133	H	0.933295	-0.543025	-0.000237
H134	H	1.433295	-0.043025	0.499763
H135	H	0.734500	0.194397	0.665781
H136	H	1.234500	0.694397	1.165781
N137	N	0.956011	-0.137737	-0.000228
N138	N	1.456011	0.362263	0.499772
H139	H	0.959323	-0.105388	-0.045118
H140	H	1.459323	0.394612	0.454882
H141	H	0.959262	-0.105443	0.044695
H142	H	1.459262	0.394557	0.544695
H143	H	0.931192	-0.686243	-0.000241
H144	H	1.431192	-0.186243	0.499759
H145	H	0.462831	0.228448	-0.000192
H146	H	0.962831	0.728448	0.499808
H147	H	0.709469	-0.112195	-0.000187
H148	H	1.209469	0.387805	0.499813
N149	N	0.801167	0.244123	0.578996
N150	N	1.301167	0.744123	1.078996
H151	H	0.795310	0.287806	0.543280
H152	H	1.295310	0.787806	1.043280
H153	H	0.758179	0.245816	0.610643
H154	H	1.258179	0.745816	1.110643
H155	H	0.707371	-0.255414	-0.000193
H156	H	1.207371	0.244586	0.499807
H157	H	0.937027	-0.288934	-0.000235
H158	H	1.437027	0.211066	0.499765
H159	H	0.015936	0.221308	-0.000268
H160	H	0.515936	0.721308	0.499732
H161	H	0.803585	0.225898	0.430635
H162	H	1.303585	0.725898	0.930635
N163	N	0.721960	0.208024	0.343934
N164	N	1.221960	0.708024	0.843934
H165	H	0.729146	0.200200	0.398004
H166	H	1.229146	0.700200	0.898004
H167	H	0.729885	0.261696	0.330596
H168	H	1.229885	0.761696	0.830596
H169	H	0.734449	0.194382	0.195569
H170	H	1.234449	0.694382	0.695569
H171	H	0.046401	-0.028984	-0.000308
H172	H	0.546401	0.471016	0.499692
H173	H	0.374336	0.197703	0.076770
H174	H	0.874336	0.697703	0.576770
N175	N	0.684654	-0.660705	-0.000184
N176	N	1.184654	-0.160705	0.499816
H177	H	0.645099	-0.617871	-0.000179
H178	H	1.145099	-0.117871	0.499821
H179	H	0.681426	-0.693055	-0.045074
H180	H	1.181426	-0.193055	0.454926
N181	N	0.918670	-0.006467	0.185428
N182	N	1.418670	0.493533	0.685428
H183	H	0.948649	-0.039151	0.221131
H184	H	1.448649	0.460849	0.721131
H185	H	0.892135	-0.039858	0.153823
H186	H	1.392135	0.460142	0.653823
N187	N	0.231628	0.209420	0.087958
N188	N	0.731628	0.709420	0.587958
H189	H	0.181216	0.200580	0.081514
H190	H	0.681216	0.700580	0.581514
H191	H	0.245125	0.202545	0.140881
H192	H	0.745125	0.702545	0.640881
H193	H	0.177834	-0.026886	-0.000238
H194	H	0.677834	0.473114	0.499762
N195	N	0.154727	0.241791	-0.000256
N196	N	0.654727	0.741791	0.499744
H197	H	0.115466	0.284946	-0.000261
H198	H	0.615466	0.784946	0.499739
H199	H	0.184397	0.245273	0.044641
H200	H	0.684397	0.745273	0.544641
H201	H	0.266335	0.003866	-0.077214
H202	H	0.766335	0.503866	0.422786
N203	N	0.687060	-0.496621	-0.000192
N204	N	1.187060	0.003379	0.499808
H205	H	0.646425	-0.527753	-0.000180
H206	H	1.146425	-0.027753	0.499820
H207	H	0.684776	-0.463470	0.044701
H208	H	1.184776	0.036530	0.544701
H209	H	0.837073	-0.024330	0.430655
H210	H	1.337073	0.475670	0.930655
N211	N	0.918689	-0.006472	0.655625
N212	N	1.418689	0.493528	1.155625
H213	H	0.949391	0.022355	0.623973
H214	H	1.449391	0.522355	1.123973
H215	H	0.948620	-0.039158	0.691363
H216	H	1.448620	0.460842	1.191363
N217	N	0.485946	-0.040228	-0.000188
N218	N	0.985946	0.459772	0.499812
H219	H	0.525206	-0.083383	-0.000177
H220	H	1.025206	0.416617	0.499823
H221	H	0.456225	-0.043716	0.044697
H222	H	0.956225	0.456284	0.544697
H223	H	0.837081	-0.024326	0.568947
H224	H	1.337081	0.475674	1.068947
H225	H	0.624733	-0.019749	-0.000145
H226	H	1.124733	0.480251	0.499855
N227	N	0.409049	-0.007849	-0.088397
N228	N	0.909049	0.492151	0.411603
H229	H	0.379198	-0.041863	-0.115285
H230	H	0.879198	0.458137	0.384715
H231	H	0.435737	0.020485	-0.124629
H232	H	0.935737	0.520485	0.375371
N233	N	0.918729	-0.006447	0.814083
N234	N	1.418729	0.493553	1.314083
H235	H	0.948711	-0.039125	0.778360
H236	H	1.448711	0.460875	1.278360
H237	H	0.949376	0.022467	0.845681
H238	H	1.449376	0.522467	1.345681
N239	N	0.721998	0.208037	0.814143
N240	N	1.221998	0.708037	1.314143
H241	H	0.729182	0.200210	0.868213
H242	H	1.229182	0.700210	1.368213
H243	H	0.729925	0.261709	0.800808
H244	H	1.229925	0.761709	1.300808
