data_functionalizedCrystal
_audit_creation_method	'MofGen! by Chris Wilmer'
_symmetry_space_group_name_H-M	'P1'
_symmetry_Int_Tables_number	1
_symmetry_cell_setting	triclinic
loop_
_symmetry_equiv_pos_as_xyz
  x,y,z
_cell_length_a	6.817900
_cell_length_b	7.190410
_cell_length_c	7.076028
_cell_angle_alpha	96.849559
_cell_angle_beta	62.299348
_cell_angle_gamma	119.389325
loop_
_atom_site_label
_atom_site_type_symbol
_atom_site_fract_x
_atom_site_fract_y
_atom_site_fract_z
V1	V	4.285375	0.291703	-0.663497
V2	V	4.785375	0.791703	-0.163497
O3	O	4.178700	-0.017514	-0.652434
O4	O	4.678700	0.482486	-0.152434
O5	O	4.320975	0.581760	-0.657452
O6	O	4.820975	1.081760	-0.157452
O7	O	4.310596	0.285682	-0.953559
O8	O	4.810596	0.785682	-0.453559
O9	O	4.189151	0.280614	-0.354277
O10	O	4.689151	0.780614	0.145723
V11	V	4.748579	0.254898	-0.626695
V12	V	5.248579	0.754898	-0.126695
O13	O	4.591205	0.372437	-0.744225
O14	O	5.091205	0.872437	-0.244225
O15	O	4.892946	0.174164	-0.545967
O16	O	5.392946	0.674164	-0.045967
O17	O	4.489771	-0.035159	-0.632740
O18	O	4.989771	0.464841	-0.132740
O19	O	4.972651	0.564115	-0.637758
O20	O	5.472651	1.064115	-0.137758
O21	O	4.962199	0.265986	-0.935915
O22	O	5.462199	0.765986	-0.435915
O23	O	4.500151	0.260919	-0.336633
O24	O	5.000151	0.760919	0.163367
C25	C	4.297026	0.894091	-0.643566
C26	C	4.797026	1.394091	-0.143566
C27	C	4.184022	0.652512	-0.646594
C28	C	4.684022	1.152512	-0.146594
C29	C	4.303285	0.271766	-0.265874
C30	C	4.803285	0.771766	0.234126
C31	C	4.177749	0.274824	-0.024299
C32	C	4.677749	0.774824	0.475701
