data_functionalizedCrystal
_audit_creation_method	'MofGen! by Chris Wilmer'
_symmetry_space_group_name_H-M	'P1'
_symmetry_Int_Tables_number	1
_symmetry_cell_setting	triclinic
loop_
_symmetry_equiv_pos_as_xyz
  x,y,z
_cell_length_a	18.215407
_cell_length_b	18.101397
_cell_length_c	18.215399
_cell_angle_alpha	90.027938
_cell_angle_beta	90.017813
_cell_angle_gamma	90.014279
loop_
_atom_site_label
_atom_site_type_symbol
_atom_site_fract_x
_atom_site_fract_y
_atom_site_fract_z
Zn1	Zn	1.125098	-0.294946	0.416076
Zn2	Zn	1.125017	-0.418792	0.293010
Zn3	Zn	1.002031	-0.294957	0.293028
Zn4	Zn	1.002008	-0.418738	0.416039
O5	O	1.063538	-0.356858	0.354538
O6	O	1.228072	-0.311392	0.399759
O7	O	1.108679	-0.402392	0.190028
O8	O	1.018399	-0.191323	0.309374
O9	O	1.228012	-0.402381	0.309343
O10	O	1.108816	-0.191314	0.399777
O11	O	1.018321	-0.311411	0.190041
O12	O	0.899043	-0.311359	0.309338
O13	O	1.018360	-0.402289	0.519028
O14	O	0.899026	-0.402300	0.399714
O15	O	1.108794	-0.311340	0.519056
O16	O	1.108657	-0.522418	0.309307
O17	O	1.018282	-0.522378	0.399696
C18	C	0.872332	-0.356826	0.354524
C19	C	0.790533	-0.356829	0.354535
C20	C	0.525501	-0.309571	0.401693
C21	C	0.602360	-0.309559	0.401691
C22	C	0.602317	-0.404169	0.307400
C23	C	0.525460	-0.404184	0.307406
C24	C	0.487054	-0.356881	0.354552
C25	C	0.640770	-0.356854	0.354543
C26	C	0.724103	-0.356841	0.354540
C27	C	0.403715	-0.356895	0.354556
C28	C	1.063478	-0.549269	0.354512
C29	C	1.063519	-0.631583	0.354525
C30	C	1.063564	-0.782291	0.354550
C31	C	1.120481	-0.813639	0.297735
C32	C	1.120340	-0.899257	0.297526
C33	C	1.063609	-0.930674	0.354574
C34	C	0.985996	-0.899650	0.333701
C35	C	0.986299	-0.814005	0.333275
C36	C	1.083591	-0.813788	0.432386
C37	C	1.085328	-0.899438	0.431986
C38	C	1.063630	-1.014533	0.354590
C39	C	1.063538	-0.698432	0.354533
C40	C	1.255491	-0.356891	0.354553
C41	C	1.337290	-0.356906	0.354560
C42	C	1.063583	-0.356807	0.546491
C43	C	1.063602	-0.356785	0.628290
C44	C	1.063619	-0.163696	0.354581
C45	C	1.063654	-0.081382	0.354599
C46	C	1.063536	-0.356856	0.163332
C47	C	1.063660	-0.356669	0.081534
C48	C	1.110708	-0.309384	0.816500
C49	C	1.110717	-0.309362	0.893358
C50	C	1.016548	-0.404073	0.893319
C51	C	1.016537	-0.404090	0.816461
C52	C	1.063621	-0.356746	0.778054
C53	C	1.063641	-0.356708	0.931770
C54	C	1.063651	-0.356685	1.015104
C55	C	1.063611	-0.356768	0.694715
H56	H	0.633660	-0.271035	0.440079
H57	H	0.968769	-0.921152	0.277442
C58	C	1.162489	-0.257299	0.774254
H59	H	1.190528	-0.229083	0.808161
H60	H	1.194542	-0.285633	0.744266
H61	H	1.134336	-0.225033	0.744279
C62	C	1.162520	-0.257272	0.935649
H63	H	1.155783	-0.264037	0.986924
H64	H	1.211959	-0.268127	0.923056
H65	H	1.151770	-0.207511	0.923065
H66	H	0.978216	-0.442620	0.924600
H67	H	0.978187	-0.442658	0.785158
C68	C	0.927155	-0.927139	0.387887
H69	H	0.880660	-0.907725	0.374253
H70	H	0.925345	-0.979575	0.386768
H71	H	0.939157	-0.911063	0.436074
H72	H	0.494233	-0.271054	0.440082
C73	C	0.927050	-0.785989	0.386761
H74	H	0.902897	-0.826952	0.408649
H75	H	0.949397	-0.756790	0.423912
H76	H	0.892293	-0.756951	0.360711
H77	H	0.633597	-0.442680	0.269014
H78	H	0.494155	-0.442714	0.269018
H79	H	1.107374	-0.792163	0.240390
H80	H	1.177885	-0.920231	0.310563
H81	H	1.178194	-0.793005	0.310621
C82	C	0.963410	-0.787082	0.256423
H83	H	0.963389	-0.734607	0.255486
H84	H	0.997144	-0.805217	0.220977
H85	H	0.915565	-0.804806	0.245398
H86	H	1.139209	-0.792138	0.451411
C87	C	1.102416	-0.927014	0.219630
H88	H	1.102273	-0.979497	0.219235
H89	H	1.055463	-0.909297	0.205321
H90	H	1.138465	-0.909380	0.186276
C91	C	1.162342	-0.927109	0.453412
H92	H	1.181201	-0.957544	0.415330
H93	H	1.194090	-0.886099	0.460613
H94	H	1.159199	-0.954859	0.497553
H95	H	1.046926	-0.920819	0.476576
C96	C	1.027599	-0.786395	0.489572
H97	H	0.992188	-0.755910	0.466167
H98	H	1.003756	-0.827570	0.511393
H99	H	1.052313	-0.758786	0.526429
