data_functionalizedCrystal
_audit_creation_method	'MofGen! by Chris Wilmer'
_symmetry_space_group_name_H-M	'P1'
_symmetry_Int_Tables_number	1
_symmetry_cell_setting	triclinic
loop_
_symmetry_equiv_pos_as_xyz
  x,y,z
_cell_length_a	23.532407
_cell_length_b	27.732048
_cell_length_c	22.010155
_cell_angle_alpha	89.999275
_cell_angle_beta	89.996931
_cell_angle_gamma	82.745667
loop_
_atom_site_label
_atom_site_type_symbol
_atom_site_fract_x
_atom_site_fract_y
_atom_site_fract_z
O1	O	0.755138	0.058672	-0.050456
O2	O	0.589257	0.067162	-0.050475
O3	O	0.677350	-0.007472	-0.050453
O4	O	0.667046	0.133306	-0.050477
O5	O	0.677334	-0.007461	0.050597
O6	O	0.589241	0.067173	0.050576
O7	O	0.755122	0.058683	0.050595
Cu8	Cu	0.672180	0.062929	0.059812
Cu9	Cu	0.672199	0.062916	-0.059692
O10	O	0.667030	0.133317	0.050573
C11	C	0.568033	0.066952	0.000048
C12	C	0.504818	0.066302	0.000042
C13	C	0.105629	0.106391	0.000062
C14	C	0.046230	0.105787	0.000066
O15	O	0.009406	0.142951	0.000082
N16	N	0.023699	0.061418	0.000073
C17	C	0.060570	0.017649	0.000082
O18	O	0.035951	-0.020147	0.000088
C19	C	0.119967	0.018253	0.000082
C20	C	0.142495	0.062626	0.000070
C21	C	0.128158	0.150760	0.000050
C22	C	0.187552	0.151364	0.000045
C23	C	0.224419	0.107599	0.000052
C24	C	0.201890	0.063229	0.000065
C25	C	0.156837	-0.025515	0.000096
C26	C	0.216239	-0.024907	0.000097
C27	C	0.238766	0.019466	0.000084
C28	C	0.298151	0.020068	0.000067
N29	N	0.320683	0.064437	0.000060
C30	C	0.283817	0.108203	0.000053
C31	C	-0.064170	0.016383	0.000082
C32	C	-0.123567	0.015778	0.000077
C33	C	-0.137902	0.103917	0.000062
C34	C	-0.078505	0.104521	0.000063
C35	C	-0.041639	0.060753	0.000075
C36	C	0.408551	0.109467	0.000042
C37	C	0.467951	0.110067	0.000035
C38	C	0.482282	0.021928	0.000052
C39	C	0.422886	0.021328	0.000057
C40	C	0.386021	0.065102	0.000053
O41	O	0.335010	-0.017077	0.000054
O42	O	0.308444	0.145992	0.000054
C43	C	0.677125	-0.025473	0.000074
C44	C	0.676474	-0.079129	0.000079
C45	C	0.724431	-0.417871	0.000053
C46	C	0.722014	-0.619534	0.000044
O47	O	0.765867	-0.650722	0.000023
N48	N	0.669779	-0.638738	0.000039
C49	C	0.618144	-0.607523	0.000032
O50	O	0.573659	-0.628484	0.000021
C51	C	0.620561	-0.405860	0.000036
C52	C	0.672800	-0.386659	0.000048
C53	C	0.776665	-0.398669	0.000064
C54	C	0.777269	-0.348256	0.000069
C55	C	0.725638	-0.317045	0.000064
C56	C	0.673403	-0.336247	0.000053
C57	C	0.568927	-0.374646	0.000025
C58	C	0.569536	-0.324228	0.000024
C59	C	0.621775	-0.305027	0.000036
C60	C	0.622376	-0.254622	0.000053
N61	N	0.674611	-0.235418	0.000059
C62	C	0.726242	-0.266630	0.000064
C63	C	0.616879	-0.713399	0.000031
C64	C	0.616274	-0.763814	0.000031
C65	C	0.720145	-0.775822	0.000042
C66	C	0.720749	-0.725406	0.000046
C67	C	0.669114	-0.694195	0.000036
C68	C	0.727506	-0.160758	0.000076
C69	C	0.728105	-0.110341	0.000084
C70	C	0.624235	-0.098337	0.000069
C71	C	0.623635	-0.148751	0.000065
C72	C	0.675276	-0.179961	0.000066
O73	O	0.578547	-0.223406	0.000068
O74	O	0.770721	-0.245659	0.000061
C75	C	0.723827	-0.468283	0.000047
C76	C	0.671593	-0.487485	0.000037
C77	C	0.619962	-0.456274	0.000031
C78	C	0.670988	-0.537900	0.000037
C79	C	0.722619	-0.569112	0.000042
C80	C	0.774855	-0.549908	0.000047
C81	C	0.775458	-0.499495	0.000053
C82	C	0.567727	-0.475478	0.000026
C83	C	0.567127	-0.525891	0.000021
C84	C	0.618758	-0.557103	0.000026
C85	C	0.776346	0.058894	0.000070
C86	C	0.839562	0.059544	0.000073
C87	C	0.667254	0.151319	0.000045
C88	C	0.667905	0.204975	0.000036
N89	N	0.672171	0.062938	0.143864
N90	N	0.672213	0.062903	-0.143744
C91	C	0.711209	0.029873	0.563653
C92	C	0.711211	0.029869	0.627261
O93	O	0.744380	0.001762	0.660160
N94	N	0.672199	0.062906	0.659071
C95	C	0.633177	0.095945	0.627271
O96	O	0.599994	0.124044	0.660169
C97	C	0.633172	0.095945	0.563665
C98	C	0.672191	0.062910	0.531857
C99	C	0.750224	-0.003160	0.531846
C100	C	0.750222	-0.003156	0.468243
C101	C	0.711205	0.029881	0.436447
C102	C	0.672189	0.062914	0.468254
C103	C	0.594148	0.128981	0.531866
C104	C	0.594147	0.128979	0.468255
C105	C	0.633166	0.095943	0.436447
C106	C	0.633170	0.095955	0.372855
N107	N	0.672182	0.062919	0.341045
C108	C	0.711200	0.029881	0.372840
C109	C	0.633190	0.095940	0.760849
C110	C	0.633197	0.095942	0.824454
C111	C	0.711231	0.029866	0.824440
C112	C	0.711226	0.029867	0.760833
C113	C	0.672202	0.062904	0.729038
C114	C	0.711193	0.029893	0.239269
C115	C	0.711189	0.029901	0.175660
C116	C	0.633153	0.095975	0.175680
C117	C	0.633159	0.095969	0.239284
C118	C	0.672181	0.062924	0.271076
O119	O	0.600017	0.124047	0.339915
O120	O	0.744372	0.001783	0.339935
H121	H	-0.034156	-0.019261	0.000086
H122	H	0.817996	-0.483866	0.000062
H123	H	0.098146	0.186402	0.000047
C124	C	0.754142	-0.006475	0.725851
H125	H	0.777376	-0.026151	0.753903
H126	H	0.777694	0.010808	0.701032
H127	H	0.733829	-0.026513	0.701045
C128	C	0.590283	0.132284	0.859438
H129	H	0.595871	0.127557	0.901875
H130	H	0.552321	0.127200	0.849015
H131	H	0.596187	0.164520	0.849013
C132	C	0.754144	-0.006479	0.859423
H133	H	0.748551	-0.001749	0.901859
H134	H	0.792108	-0.001398	0.849000
H135	H	0.748237	-0.038714	0.849000
C136	C	-0.178463	0.152059	0.000060
H137	H	-0.217063	0.145340	0.000068
H138	H	-0.171677	0.170264	-0.035181
H139	H	-0.171677	0.170267	0.035301
H140	H	0.524585	-0.541520	0.000017
C141	C	0.522839	-0.026211	0.000057
H142	H	0.500919	-0.052726	0.000059
H143	H	0.546309	-0.027801	0.035294
H144	H	0.546307	-0.027809	-0.035188
C145	C	0.590233	0.132310	0.140697
H146	H	0.595819	0.127573	0.098261
H147	H	0.596124	0.164547	0.151116
H148	H	0.552272	0.127214	0.151125
C149	C	0.558814	-0.784932	0.000025
H150	H	0.565843	-0.819428	0.000030
H151	H	0.537581	-0.774200	-0.035216
H152	H	0.537570	-0.774201	0.035265
C153	C	0.793137	-0.039501	0.433263
H154	H	0.816367	-0.059178	0.461316
H155	H	0.816692	-0.022220	0.408445
H156	H	0.772823	-0.059537	0.408456
C157	C	0.833464	-0.432994	0.000075
H158	H	0.864655	-0.414331	0.000086
H159	H	0.835404	-0.452915	-0.035161
H160	H	0.835382	-0.452907	0.035320
H161	H	0.769556	-0.186164	0.000075
H162	H	-0.141903	-0.020355	0.000078
H163	H	0.762185	-0.801243	0.000047
C164	C	0.551232	0.165325	0.566840
H165	H	0.527995	0.184995	0.538785
H166	H	0.571540	0.185361	0.591648
H167	H	0.527674	0.148040	0.591656
H168	H	0.601414	0.122847	0.734965
C169	C	0.212328	0.200173	0.000036
H170	H	0.252984	0.194271	0.000031
H171	H	0.199643	0.218184	0.035271
H172	H	0.199646	0.218175	-0.035211
H173	H	0.138506	-0.061648	0.000107
C174	C	0.256788	-0.073054	0.000103
H175	H	0.234860	-0.099564	0.000105
H176	H	0.280259	-0.074649	0.035339
H177	H	0.280254	-0.074654	-0.035143
C178	C	0.551223	0.165322	0.433284
H179	H	0.527991	0.184997	0.461341
H180	H	0.527669	0.148039	0.408471
H181	H	0.571532	0.185362	0.408473
C182	C	0.590218	0.132288	0.274273
H183	H	0.566972	0.151957	0.246224
H184	H	0.610498	0.152329	0.299104
H185	H	0.566674	0.114974	0.299067
C186	C	0.398104	-0.027480	0.000064
H187	H	0.428570	-0.053458	0.000069
H188	H	0.375228	-0.029553	-0.035170
H189	H	0.375235	-0.029544	0.035312
H190	H	0.378542	0.145112	0.000041
C191	C	0.492729	0.158879	0.000024
H192	H	0.462262	0.184856	0.000027
H193	H	0.515602	0.160945	-0.035216
H194	H	0.515600	0.160950	0.035266
C195	C	0.785570	-0.089222	0.000093
H196	H	0.816231	-0.115034	0.000089
H197	H	0.787962	-0.069806	0.035333
H198	H	0.787970	-0.069804	-0.035148
H199	H	0.574829	-0.687991	0.000022
C200	C	0.512736	-0.289899	0.000015
H201	H	0.481542	-0.308558	0.000013
H202	H	0.510818	-0.269980	-0.035221
H203	H	0.510805	-0.269985	0.035260
H204	H	0.781997	-0.030065	0.557728
C205	C	0.778210	-0.704289	0.000053
H206	H	0.808870	-0.730102	0.000053
H207	H	0.780603	-0.684870	0.035290
H208	H	0.780613	-0.684874	-0.035191
H209	H	0.819807	-0.332628	0.000076
C210	C	0.511464	-0.395756	0.000007
H211	H	0.480806	-0.369941	-0.000004
H212	H	0.509052	-0.415175	0.035242
H213	H	0.509075	-0.415170	-0.035240
H214	H	0.581099	-0.164385	0.000072
C215	C	0.831647	-0.584246	0.000048
H216	H	0.823800	-0.617020	0.000039
H217	H	0.853086	-0.578458	0.035288
H218	H	0.853087	-0.578451	-0.035194
C219	C	-0.053729	0.153331	0.000054
H220	H	-0.084197	0.179307	0.000053
H221	H	-0.030852	0.155397	-0.035183
H222	H	-0.030862	0.155404	0.035299
H223	H	0.582198	-0.072916	0.000067
C224	C	0.754117	-0.006432	0.140673
H225	H	0.748536	-0.001695	0.098236
H226	H	0.748228	-0.038670	0.151091
H227	H	0.792076	-0.001335	0.151101
C228	C	0.754118	-0.006454	0.274232
H229	H	0.777354	-0.026121	0.246172
H230	H	0.733817	-0.026493	0.299047
H231	H	0.777675	0.010834	0.299042
H232	H	0.525681	-0.450070	0.000020
