data_functionalizedCrystal
_audit_creation_method	'MofGen! by Chris Wilmer'
_symmetry_space_group_name_H-M	'P1'
_symmetry_Int_Tables_number	1
_symmetry_cell_setting	triclinic
loop_
_symmetry_equiv_pos_as_xyz
  x,y,z
_cell_length_a	16.625546
_cell_length_b	14.908618
_cell_length_c	14.909241
_cell_angle_alpha	96.790851
_cell_angle_beta	86.671627
_cell_angle_gamma	93.283114
loop_
_atom_site_label
_atom_site_type_symbol
_atom_site_fract_x
_atom_site_fract_y
_atom_site_fract_z
Zn1	Zn	-0.363510	-1.413349	-0.591539
Zn2	Zn	0.136490	-0.913349	-0.091539
Zn3	Zn	-0.505709	-1.404505	-0.440162
Zn4	Zn	-0.005709	-0.904505	0.059838
Zn5	Zn	-0.363526	-1.253245	-0.431466
Zn6	Zn	0.136474	-0.753245	0.068534
Zn7	Zn	-0.490933	-1.261942	-0.582761
Zn8	Zn	0.009067	-0.761942	-0.082761
O9	O	-0.430920	-1.333260	-0.511482
O10	O	0.069080	-0.833260	-0.011482
O11	O	-0.388550	-1.538843	-0.578772
O12	O	0.111450	-1.038843	-0.078772
O13	O	-0.493039	-1.377099	-0.312339
O14	O	0.006961	-0.877099	0.187661
O15	O	-0.250693	-1.274544	-0.452735
O16	O	0.249307	-0.774544	0.047265
O17	O	-0.493023	-1.532345	-0.467555
O18	O	0.006977	-1.032345	0.032445
O19	O	-0.250681	-1.392172	-0.570340
O20	O	0.249319	-0.892172	-0.070340
O21	O	-0.388577	-1.265968	-0.305950
O22	O	0.111423	-0.765968	0.194050
O23	O	-0.374250	-1.127731	-0.444223
O24	O	0.125750	-0.627731	0.055777
O25	O	-0.467840	-1.289368	-0.710595
O26	O	0.032160	-0.789368	-0.210595
O27	O	-0.467855	-1.134121	-0.555378
O28	O	0.032145	-0.634121	-0.055378
O29	O	-0.374223	-1.400605	-0.717044
O30	O	0.125777	-0.900605	-0.217044
O31	O	-0.616580	-1.385532	-0.459044
O32	O	-0.116580	-0.885532	0.040956
O33	O	-0.605724	-1.280792	-0.563810
O34	O	-0.105724	-0.780792	-0.063810
C35	C	-0.419451	-1.098083	-0.497905
C36	C	0.080549	-0.598083	0.002095
C37	C	-0.414563	-0.997474	-0.492118
C38	C	0.085437	-0.497474	0.007882
C39	C	-0.640408	-1.333172	-0.511439
C40	C	-0.140408	-0.833172	-0.011439
C41	C	-0.730031	-1.333219	-0.511456
C42	C	-0.230031	-0.833219	-0.011456
C43	C	-0.503018	-0.815114	-0.596834
C44	C	-0.003018	-0.315114	-0.096834
C45	C	-0.498427	-0.720583	-0.591400
C46	C	0.001573	-0.220583	-0.091400
C47	C	-0.400789	-0.713881	-0.475821
C48	C	0.099211	-0.213881	0.024179
C49	C	-0.405379	-0.808412	-0.481255
C50	C	0.094621	-0.308412	0.018745
C51	C	-0.456496	-0.859025	-0.541763
C52	C	0.043504	-0.359025	-0.041763
C53	C	-0.461090	-0.953557	-0.547192
C54	C	0.038910	-0.453557	-0.047192
C55	C	-0.363448	-0.946854	-0.431617
C56	C	0.136552	-0.446854	0.068383
C57	C	-0.358858	-0.852323	-0.426183
C58	C	0.141142	-0.352323	0.073817
C59	C	-1.058209	-1.333383	-0.511559
C60	C	-0.558209	-0.833383	-0.011559
C61	C	-0.966900	-1.333334	-0.511533
C62	C	-0.466900	-0.833334	-0.011533
C63	C	-0.894123	-1.333300	-0.511507
C64	C	-0.394123	-0.833300	-0.011507
C65	C	-0.802808	-1.333253	-0.511482
C66	C	-0.302808	-0.833253	-0.011482
C67	C	-0.220613	-1.333374	-0.511546
C68	C	0.279387	-0.833374	-0.011546
C69	C	-0.130993	-1.333423	-0.511574
C70	C	0.369007	-0.833423	-0.011574
C71	C	-0.419381	-1.346943	-0.747581
C72	C	0.080619	-0.846943	-0.247581
C73	C	-0.414464	-1.352774	-0.848193
C74	C	0.085536	-0.852774	-0.348193
C75	C	-0.442427	-0.569355	-0.525106
C76	C	0.057573	-0.069355	-0.025106
C77	C	-0.447316	-0.669964	-0.530894
C78	C	0.052684	-0.169964	-0.030894
C79	C	-0.502727	-1.247902	-1.030539
C80	C	-0.002727	-0.747902	-0.530539
C81	C	-0.498110	-1.253378	-1.125072
C82	C	0.001890	-0.753378	-0.625072
C83	C	-0.400617	-1.369206	-1.131795
C84	C	0.099383	-0.869206	-0.631795
C85	C	-0.405235	-1.363730	-1.037262
C86	C	0.094765	-0.863730	-0.537262
C87	C	-0.456290	-1.303075	-0.986637
C88	C	0.043710	-0.803075	-0.486637
C89	C	-0.460903	-1.297595	-0.892101
C90	C	0.039097	-0.797595	-0.392101
C91	C	-0.363415	-1.413427	-0.898826
C92	C	0.136585	-0.913427	-0.398826
C93	C	-0.358798	-1.418903	-0.993359
C94	C	0.141202	-0.918903	-0.493359
C95	C	-0.442357	-1.319682	-0.276304
C96	C	0.057643	-0.819682	0.223696
C97	C	-0.447056	-1.314026	-0.175703
C98	C	0.052944	-0.814026	0.324297
H99	H	-0.502714	-0.994765	-0.596459
H100	H	-0.002714	-0.494765	-0.096459
H101	H	-0.325569	-0.982616	-0.386772
H102	H	0.174431	-0.482616	0.113228
O103	O	-0.303749	-0.797732	-0.360898
O104	O	0.196251	-0.297732	0.139102
H105	H	-0.308383	-0.724620	-0.366358
H106	H	0.191617	-0.224620	0.133642
O107	O	-0.557778	-1.182474	-0.975926
O108	O	-0.057778	-0.682474	-0.475926
H109	H	-0.589292	-1.145025	-1.022337
H110	H	-0.089292	-0.645025	-0.522337
H111	H	-0.535924	-1.208451	-1.160813
H112	H	-0.035924	-0.708451	-0.660813
H113	H	-0.544644	-0.856323	-0.646098
H114	H	-0.044644	-0.356323	-0.146098
O115	O	-0.515954	-1.232165	-0.837492
O116	O	-0.015954	-0.732165	-0.337492
H117	H	-0.547469	-1.194721	-0.883906
H118	H	-0.047469	-0.694721	-0.383906
H119	H	-0.359167	-0.672657	-0.426564
H120	H	0.140833	-0.172657	0.073436
O121	O	-0.345524	-1.434592	-1.186401
O122	O	0.154476	-0.934592	-0.686401
H123	H	-0.350105	-1.429113	-1.259510
H124	H	0.149895	-0.929113	-0.759510
O125	O	-0.303708	-1.484296	-1.047961
O126	O	0.196292	-0.984296	-0.547961
H127	H	-0.308287	-1.478824	-1.121071
H128	H	0.191713	-0.978824	-0.621071
O129	O	-0.313327	-1.472946	-0.851478
O130	O	0.186673	-0.972946	-0.351478
H131	H	-0.325117	-1.458954	-0.777237
H132	H	0.174883	-0.958954	-0.277237
H133	H	-0.536308	-0.684835	-0.636247
H134	H	-0.036308	-0.184835	-0.136247
