data_functionalizedCrystal
_audit_creation_method	'MofGen! by Chris Wilmer'
_symmetry_space_group_name_H-M	'P1'
_symmetry_Int_Tables_number	1
_symmetry_cell_setting	triclinic
loop_
_symmetry_equiv_pos_as_xyz
  x,y,z
_cell_length_a	11.792254
_cell_length_b	11.792241
_cell_length_c	13.330367
_cell_angle_alpha	89.995231
_cell_angle_beta	89.992500
_cell_angle_gamma	84.196007
loop_
_atom_site_label
_atom_site_type_symbol
_atom_site_fract_x
_atom_site_fract_y
_atom_site_fract_z
O1	O	1.506905	0.155636	-0.083423
O2	O	1.176566	0.171653	-0.083425
O3	O	1.349752	-0.001526	-0.083417
O4	O	1.333719	0.328815	-0.083431
O5	O	1.349727	-0.001530	0.083430
O6	O	1.176541	0.171649	0.083422
O7	O	1.506880	0.155632	0.083424
Cu8	Cu	1.341708	0.163640	0.098657
Cu9	Cu	1.341738	0.163645	-0.098659
O10	O	1.333694	0.328811	0.083416
C11	C	1.134263	0.170642	-0.000002
C12	C	1.008250	0.167622	-0.000003
C13	C	1.348732	-0.043819	0.000006
C14	C	1.345718	-0.169832	0.000005
C15	C	0.905913	0.165168	-0.000007
C16	C	0.777527	0.162100	-0.000007
C17	C	1.340175	-0.400545	-0.000012
C18	C	1.343255	-0.272160	-0.000003
C19	C	1.549183	0.156643	-0.000001
C20	C	1.675196	0.159663	-0.000007
C21	C	1.334714	0.371104	-0.000010
C22	C	1.337728	0.497118	-0.000015
N23	N	1.341695	0.163636	0.237439
N24	N	1.341760	0.163640	-0.237440
C25	C	1.265048	0.240298	0.710058
C26	C	1.418459	0.086983	0.710033
C27	C	1.418446	0.086979	0.605015
C28	C	1.341734	0.163638	0.552513
C29	C	1.265035	0.240299	0.605030
C30	C	1.495151	0.010327	0.552491
C31	C	1.495143	0.010321	0.447466
C32	C	1.418424	0.086975	0.394962
C33	C	1.341721	0.163639	0.447485
C34	C	1.265009	0.240297	0.394984
C35	C	1.188300	0.316956	0.447505
C36	C	1.188316	0.316953	0.552526
C37	C	1.418407	0.086978	0.289941
C38	C	1.264996	0.240298	0.289956
H39	H	1.125845	0.379377	0.404746
H40	H	1.480868	0.024568	0.247183
C41	C	1.501857	0.003695	0.766850
C42	C	1.569034	-0.063429	0.698377
C43	C	1.645879	-0.140166	0.750684
H44	H	1.460864	-0.043928	0.807832
H45	H	1.549426	0.044806	0.807788
H46	H	1.521471	-0.104536	0.657456
H47	H	1.610052	-0.015837	0.657393
H48	H	1.693448	-0.099056	0.791622
H49	H	1.604876	-0.187782	0.791664
H50	H	1.691475	-0.185712	0.704233
C51	C	1.181582	0.323391	0.767024
C52	C	1.069942	0.304201	0.741514
C53	C	0.993023	0.380712	0.793982
H54	H	1.194210	0.399277	0.749851
H55	H	1.192494	0.312404	0.837100
H56	H	1.059035	0.315197	0.671453
H57	H	1.057278	0.228330	0.758689
H58	H	1.003935	0.369726	0.864058
H59	H	1.005662	0.456594	0.776805
H60	H	0.917267	0.367696	0.776688
H61	H	1.202524	0.302719	0.247215
H62	H	1.125863	0.379368	0.595296
H63	H	1.557614	-0.052081	0.595241
H64	H	1.557602	-0.052100	0.404709
