data_functionalizedCrystal
_audit_creation_method	'MofGen! by Chris Wilmer'
_symmetry_space_group_name_H-M	'P1'
_symmetry_Int_Tables_number	1
_symmetry_cell_setting	triclinic
loop_
_symmetry_equiv_pos_as_xyz
  x,y,z
_cell_length_a	14.044191
_cell_length_b	14.044220
_cell_length_c	16.176319
_cell_angle_alpha	89.992517
_cell_angle_beta	89.995217
_cell_angle_gamma	93.190327
loop_
_atom_site_label
_atom_site_type_symbol
_atom_site_fract_x
_atom_site_fract_y
_atom_site_fract_z
O1	O	1.277176	0.230203	-0.068710
O2	O	1.000504	0.221890	-0.068721
O3	O	1.134687	0.087710	-0.068707
O4	O	1.142993	0.364382	-0.068723
O5	O	1.134666	0.087699	0.068786
O6	O	1.000483	0.221879	0.068773
O7	O	1.277155	0.230192	0.068783
Cu8	Cu	1.138817	0.226034	0.081332
Cu9	Cu	1.138842	0.226047	-0.081270
O10	O	1.142972	0.364371	0.068770
C11	C	0.964872	0.218248	0.000025
C12	C	0.858728	0.207401	0.000021
C13	C	0.613270	0.264501	0.000026
C14	C	0.664395	0.187585	0.000029
C15	C	0.772532	0.198613	0.000025
C16	C	0.505123	0.253474	0.000030
C17	C	1.131041	0.052083	0.000039
C18	C	1.120197	-0.054060	0.000040
C19	C	1.100370	-0.248398	0.000027
C20	C	1.177285	-0.299526	0.000028
C21	C	1.166253	-0.407663	0.000021
C22	C	1.111400	-0.140252	0.000034
C23	C	1.312788	0.233834	0.000036
C24	C	1.418931	0.244681	0.000034
C25	C	1.146618	0.399998	0.000021
C26	C	1.157463	0.506142	0.000015
N27	N	1.138807	0.226025	0.195697
N28	N	1.138860	0.226050	-0.195635
C29	C	1.198245	0.166638	0.238967
C30	C	1.198250	0.166638	0.325514
C31	C	1.138821	0.226029	0.368790
C32	C	1.079376	0.285418	0.325514
C33	C	1.079367	0.285413	0.238968
C34	C	1.079410	0.285439	0.674542
C35	C	1.079426	0.285442	0.761094
C36	C	1.198293	0.166664	0.761088
C37	C	1.198284	0.166659	0.674543
C38	C	1.138836	0.226044	0.631274
C39	C	1.138830	0.226042	0.537430
C40	C	1.138831	0.226036	0.462632
H41	H	0.626952	0.113452	-0.000025
C42	C	1.263622	0.101301	0.191372
N43	N	1.312864	0.052084	0.155526
C44	C	0.663852	0.364645	0.000012
N45	N	0.701962	0.440072	-0.000003
H46	H	1.251419	-0.262085	-0.000025
C47	C	1.000225	-0.298977	0.000034
N48	N	0.924797	-0.337085	0.000047
H49	H	1.246648	0.118280	0.360744
C50	C	1.014039	0.350773	0.808695
N51	N	0.964792	0.399978	0.844548
C52	C	1.014150	0.350899	0.626958
N53	N	0.965040	0.400254	0.591115
C54	C	1.263658	0.101321	0.626944
N55	N	1.312896	0.052104	0.591095
C56	C	1.263679	0.101329	0.808691
N57	N	1.312927	0.052121	0.844544
C58	C	1.013993	0.350740	0.373120
N59	N	0.964745	0.399942	0.408976
C60	C	1.013988	0.350751	0.191372
N61	N	0.964744	0.399967	0.155523
