data_functionalizedCrystal
_audit_creation_method	'MofGen! by Chris Wilmer'
_symmetry_space_group_name_H-M	'P1'
_symmetry_Int_Tables_number	1
_symmetry_cell_setting	triclinic
loop_
_symmetry_equiv_pos_as_xyz
  x,y,z
_cell_length_a	17.699083
_cell_length_b	8.634740
_cell_length_c	16.776229
_cell_angle_alpha	89.993562
_cell_angle_beta	89.992455
_cell_angle_gamma	91.926661
loop_
_atom_site_label
_atom_site_type_symbol
_atom_site_fract_x
_atom_site_fract_y
_atom_site_fract_z
O1	O	0.246700	2.045142	-0.066297
O2	O	0.226013	1.596268	-0.066297
O3	O	0.127104	1.833387	-0.066290
O4	O	0.345609	1.808023	-0.066304
O5	O	0.127094	1.833355	0.066287
O6	O	0.226004	1.596236	0.066280
O7	O	0.246690	2.045111	0.066280
Zn8	Zn	0.236346	1.820668	0.087329
Zn9	Zn	0.236358	1.820710	-0.087346
O10	O	0.345600	1.807992	0.066273
C11	C	0.221322	1.538819	-0.000009
C12	C	0.207349	1.367688	-0.000009
C13	C	0.098835	1.832462	-0.000001
C14	C	0.014615	1.829736	-0.000001
C15	C	-0.023730	1.968919	0.000000
C16	C	-0.102863	1.966348	-0.000007
C17	C	-0.143649	1.824592	-0.000010
C18	C	-0.105299	1.685397	-0.000013
C19	C	-0.026167	1.687970	-0.000012
C20	C	-0.424428	1.675019	-0.000020
C21	C	-0.503565	1.672457	-0.000019
C22	C	-0.501124	1.953398	-0.000015
C23	C	-0.421992	1.955970	-0.000013
C24	C	-0.383648	1.816777	-0.000021
C25	C	-0.297843	1.819566	-0.000015
C26	C	-0.229453	1.821801	-0.000010
C27	C	0.373869	1.808916	-0.000017
C28	C	0.458088	1.811643	-0.000023
C29	C	0.251381	2.102559	-0.000010
C30	C	0.265354	2.273690	-0.000016
N31	N	0.236337	1.820651	0.206540
N32	N	0.236361	1.820739	-0.206557
C33	C	0.192564	1.925680	0.248261
C34	C	0.192564	1.925688	0.331713
C35	C	0.236342	1.820675	0.373443
C36	C	0.280117	1.715635	0.331717
C37	C	0.280113	1.715621	0.248266
C38	C	0.280136	1.715691	0.668264
C39	C	0.280139	1.715717	0.751721
C40	C	0.192587	1.925759	0.751711
C41	C	0.192583	1.925744	0.668260
C42	C	0.236355	1.820700	0.626541
C43	C	0.236353	1.820690	0.536053
C44	C	0.236348	1.820691	0.463930
H45	H	0.009473	2.084354	0.000007
H46	H	0.315757	1.630094	0.214298
H47	H	-0.134080	2.079686	-0.000004
H48	H	-0.532353	2.066736	-0.000013
H49	H	-0.388788	2.071403	-0.000007
H50	H	0.005053	1.574632	-0.000013
H51	H	-0.536771	1.557015	-0.000019
C52	C	0.145060	2.039552	0.377153
C53	C	0.154413	2.017061	0.459167
C54	C	0.110654	2.121912	0.501051
H55	H	0.160768	2.142466	0.363561
H56	H	0.093317	2.022995	0.363532
H57	H	0.206145	2.033630	0.472783
H58	H	0.138701	1.914168	0.472783
H59	H	0.058911	2.105356	0.487430
H60	H	0.126365	2.224820	0.487452
H61	H	0.116989	2.106657	0.556702
H62	H	0.156918	2.011200	0.214289
H63	H	0.146996	1.317237	-0.000028
C64	C	0.327773	1.601932	0.797072
C65	C	0.380123	1.683869	0.844945
C66	C	0.424020	1.579110	0.886725
H67	H	0.295939	1.537845	0.829706
H68	H	0.353885	1.539387	0.760299
H69	H	0.354013	1.746387	0.881713
H70	H	0.411974	1.747950	0.812331
H71	H	0.450132	1.516565	0.849952
H72	H	0.392180	1.515029	0.919354
H73	H	0.459549	1.634689	0.919206
H74	H	-0.393218	1.561679	-0.000026
C75	C	-0.149481	1.531373	0.000106
C76	C	-0.130960	1.447213	0.068301
C77	C	-0.171636	1.305307	0.068433
H78	H	-0.202115	1.549549	0.000148
H79	H	-0.136990	1.474009	-0.046104
H80	H	-0.143456	1.504565	0.114499
H81	H	-0.078333	1.428996	0.068273
H82	H	-0.159145	1.247943	0.022223
H83	H	-0.224268	1.323498	0.068473
H84	H	-0.159070	1.248181	0.114699
H85	H	0.156937	2.011260	0.634286
H86	H	0.156943	2.011287	0.785687
H87	H	0.315779	1.630163	0.634303
C88	C	0.327522	1.601544	0.377126
C89	C	0.280310	1.507376	0.425072
C90	C	0.323955	1.402273	0.466921
H91	H	0.353602	1.538836	0.340419
H92	H	0.363068	1.656843	0.409713
H93	H	0.244778	1.452082	0.392488
H94	H	0.254230	1.570041	0.461794
H95	H	0.359501	1.457572	0.499507
H96	H	0.350033	1.339576	0.430208
H97	H	0.291930	1.338377	0.499462
C98	C	0.345867	1.340722	-0.000143
C99	C	0.383493	1.290459	-0.068346
C100	C	0.457668	1.352168	-0.068486
H101	H	0.344989	1.450655	-0.000179
H102	H	0.371544	1.306717	0.046062
H103	H	0.357823	1.324473	-0.114539
H104	H	0.384392	1.180534	-0.068324
H105	H	0.483344	1.318163	-0.022281
H106	H	0.456782	1.462099	-0.068520
H107	H	0.483208	1.318062	-0.114756
