data_functionalizedCrystal
_audit_creation_method	'MofGen! by Chris Wilmer'
_symmetry_space_group_name_H-M	'P1'
_symmetry_Int_Tables_number	1
_symmetry_cell_setting	triclinic
loop_
_symmetry_equiv_pos_as_xyz
  x,y,z
_cell_length_a	10.654541
_cell_length_b	22.610064
_cell_length_c	10.654545
_cell_angle_alpha	89.993535
_cell_angle_beta	84.484678
_cell_angle_gamma	90.006960
loop_
_atom_site_label
_atom_site_type_symbol
_atom_site_fract_x
_atom_site_fract_y
_atom_site_fract_z
O1	O	1.667853	0.049163	0.176367
O2	O	1.302374	0.049168	0.193177
O3	O	1.493516	0.049165	0.002033
O4	O	1.476712	0.049166	0.367511
O5	O	1.493482	-0.049204	0.002061
O6	O	1.302340	-0.049201	0.193205
O7	O	1.667819	-0.049206	0.176395
Zn8	Zn	1.485075	-0.064822	0.184804
Zn9	Zn	1.485119	0.064784	0.184768
O10	O	1.476678	-0.049203	0.367539
C11	C	1.255559	-0.000016	0.191957
C12	C	1.116116	-0.000014	0.188266
N13	N	1.485053	-0.153274	0.184829
C14	C	1.088146	-0.000006	0.416831
C15	C	1.008652	0.000000	0.529374
C16	C	0.877634	0.000001	0.525898
C17	C	0.826108	-0.000007	0.409867
C18	C	0.905602	-0.000013	0.297324
C19	C	1.036622	-0.000012	0.300812
C20	C	0.933572	-0.000025	0.068763
C21	C	1.064590	-0.000022	0.072235
C22	C	0.882046	-0.000033	-0.047269
C23	C	0.961540	-0.000035	-0.159814
C24	C	1.092565	-0.000035	-0.156334
C25	C	1.144084	-0.000028	-0.040308
C26	C	1.569761	-0.561917	0.100142
C27	C	1.569767	-0.623837	0.100133
O28	O	1.641735	-0.655857	0.028148
N29	N	1.485118	-0.654812	0.184742
C30	C	1.400448	-0.623863	0.269356
O31	O	1.328447	-0.655895	0.341320
C32	C	1.400437	-0.561944	0.269358
C33	C	1.485100	-0.530973	0.184753
C34	C	1.654416	-0.530946	0.015543
C35	C	1.654411	-0.469030	0.015554
C36	C	1.569751	-0.438086	0.100164
C37	C	1.485095	-0.469057	0.184764
C38	C	1.315762	-0.530997	0.353965
C39	C	1.315758	-0.469074	0.353959
C40	C	1.400421	-0.438102	0.269354
C41	C	1.400430	-0.376197	0.269385
N42	N	1.485079	-0.345223	0.184776
C43	C	1.569739	-0.376167	0.100166
C44	C	1.400477	-0.753897	0.269344
C45	C	1.400494	-0.815814	0.269349
C46	C	1.569811	-0.815784	0.100124
C47	C	1.569800	-0.753865	0.100126
C48	C	1.485126	-0.722922	0.184735
C49	C	1.569723	-0.246140	0.100196
C50	C	1.569714	-0.184219	0.100218
C51	C	1.400392	-0.184254	0.269438
C52	C	1.400405	-0.246170	0.269421
C53	C	1.485075	-0.277111	0.184790
O54	O	1.328495	-0.344138	0.341330
O55	O	1.641717	-0.344127	0.028203
C56	C	1.714634	-0.000021	0.177615
C57	C	1.854078	-0.000019	0.181306
C58	C	1.492265	-0.000018	-0.044751
C59	C	1.488572	-0.000015	-0.184195
N60	N	1.485150	0.153236	0.184733
C61	C	1.488624	0.107230	-0.184233
C62	C	1.486920	0.160852	-0.249763
C63	C	1.483451	0.160853	-0.380781
C64	C	1.481682	0.107226	-0.446273
C65	C	1.483386	0.053604	-0.380744
C66	C	1.486859	0.053609	-0.249723
C67	C	1.483325	-0.053640	-0.380704
C68	C	1.486803	-0.053642	-0.249686
C69	C	1.481556	-0.107268	-0.446196
C70	C	1.483270	-0.160891	-0.380668
C71	C	1.486740	-0.160890	-0.249641
C72	C	1.488507	-0.107265	-0.184157
C73	C	1.477929	-0.000018	0.414323
C74	C	1.481621	-0.000018	0.553766
H75	H	1.194826	0.000007	0.419672
O76	O	1.477862	-0.107258	-0.587515
H77	H	1.391534	-0.084095	-0.611653
H78	H	0.919576	-0.000041	-0.254278
H79	H	1.723357	-0.556135	-0.053363
O80	O	1.064233	0.000009	0.654514
H81	H	1.032377	-0.040084	0.708661
H82	H	1.250764	-0.000021	-0.037463
H83	H	0.719425	-0.000013	0.407048
O84	O	1.492297	-0.107299	-0.042850
H85	H	1.578667	-0.130462	-0.018829
O86	O	1.224417	-0.435695	0.445200
H87	H	1.277790	-0.407478	0.506737
H88	H	0.812909	0.000002	0.617541
H89	H	1.488108	-0.204556	-0.196293
O90	O	0.740735	-0.000034	-0.051028
H91	H	0.694111	-0.000023	0.046721
H92	H	1.157283	-0.000043	-0.247981
O93	O	1.481356	-0.218725	-0.451309
H94	H	1.483121	-0.256013	-0.383735
O95	O	1.492407	0.107209	-0.042925
H96	H	1.578775	0.084049	-0.018884
O97	O	1.488823	0.218690	-0.179119
H98	H	1.487042	0.255976	-0.246697
O99	O	1.481597	0.218686	-0.451470
H100	H	1.483409	0.255977	-0.383925
H101	H	1.331477	-0.271387	0.338326
H102	H	1.638661	-0.159004	0.031322
H103	H	1.638667	-0.271325	0.031280
O104	O	1.477974	0.107237	-0.587591
H105	H	1.391637	0.130396	-0.611714
O106	O	1.745709	-0.435628	-0.075716
H107	H	1.804560	-0.467556	-0.134556
H108	H	1.638739	-0.728652	0.031233
O109	O	1.661134	-0.849164	0.008864
H110	H	1.644295	-0.837273	-0.089194
H111	H	1.331529	-0.728706	0.338253
O112	O	1.309221	-0.849217	0.360642
H113	H	1.250362	-0.817291	0.419480
H114	H	1.246821	-0.556205	0.422858
O115	O	1.309081	-0.150862	0.360673
H116	H	1.325915	-0.162736	0.458741
