data_functionalizedCrystal
_audit_creation_method	'MofGen! by Chris Wilmer'
_symmetry_space_group_name_H-M	'P1'
_symmetry_Int_Tables_number	1
_symmetry_cell_setting	triclinic
loop_
_symmetry_equiv_pos_as_xyz
  x,y,z
_cell_length_a	10.967926
_cell_length_b	16.992695
_cell_length_c	16.053802
_cell_angle_alpha	87.258926
_cell_angle_beta	99.508351
_cell_angle_gamma	92.377135
loop_
_atom_site_label
_atom_site_type_symbol
_atom_site_fract_x
_atom_site_fract_y
_atom_site_fract_z
O1	O	1.654634	-0.117978	0.168637
O2	O	2.154634	0.382022	0.668637
O3	O	1.296065	-0.126079	0.117045
O4	O	1.796065	0.373921	0.617045
O5	O	1.473912	-0.007868	0.142641
O6	O	1.973912	0.492132	0.642641
O7	O	1.476787	-0.236188	0.143041
O8	O	1.976787	0.263812	0.643041
O9	O	1.464120	-0.014348	0.280090
O10	O	1.964120	0.485652	0.780090
O11	O	1.286273	-0.132558	0.254494
O12	O	1.786273	0.367442	0.754494
O13	O	1.644842	-0.124457	0.306087
O14	O	2.144842	0.375543	0.806087
Zn15	Zn	1.464003	-0.129536	0.302114
Zn16	Zn	1.964003	0.370464	0.802114
Zn17	Zn	1.476904	-0.121000	0.121018
Zn18	Zn	1.976904	0.379000	0.621018
O19	O	1.466996	-0.242667	0.280491
O20	O	1.966996	0.257333	0.780491
C21	C	1.245076	-0.128239	0.179138
C22	C	1.745076	0.371761	0.679138
C23	C	1.107733	-0.125015	0.159376
C24	C	1.607733	0.374985	0.659376
C25	C	1.041428	-0.126934	0.221769
C26	C	1.541428	0.373066	0.721769
C27	C	0.899477	-0.123601	0.201346
C28	C	1.399477	0.376399	0.701346
C29	C	1.465317	0.018150	0.210833
C30	C	1.965317	0.518150	0.710833
C31	C	1.454283	0.105329	0.209245
C32	C	1.954283	0.605329	0.709245
C33	C	1.695831	-0.122296	0.243992
C34	C	2.195831	0.377704	0.743992
C35	C	1.833175	-0.125521	0.263748
C36	C	2.333175	0.374479	0.763748
C37	C	1.475590	-0.268685	0.212296
C38	C	1.975590	0.231315	0.712296
C39	C	1.486625	-0.355864	0.213879
C40	C	1.986625	0.144136	0.713879
N41	N	1.455207	-0.135362	0.425708
N42	N	1.955207	0.364638	0.925708
C43	C	1.560751	0.154269	0.224565
C44	C	2.060751	0.654269	0.724565
C45	C	1.550376	0.236182	0.223064
C46	C	2.050376	0.736182	0.723064
C47	C	1.433531	0.269154	0.206250
C48	C	1.933531	0.769154	0.706250
C49	C	1.327055	0.220208	0.190926
C50	C	1.827055	0.720208	0.690926
C51	C	1.337432	0.138296	0.192421
C52	C	1.837432	0.638296	0.692421
C53	C	1.390525	0.513278	0.200050
C54	C	1.890525	1.013278	0.700050
C55	C	1.380157	0.595196	0.198559
C56	C	1.880157	1.095196	0.698559
C57	C	1.603479	0.611165	0.230696
C58	C	2.103479	1.111165	0.730696
C59	C	1.613845	0.529250	0.232194
C60	C	2.113845	1.029250	0.732194
C61	C	1.507369	0.480311	0.216866
C62	C	2.007369	0.980311	0.716866
N63	N	1.422924	0.352883	0.204718
N64	N	1.922924	0.852883	0.704718
N65	N	1.517978	0.396585	0.218392
N66	N	2.017978	0.896585	0.718392
N67	N	1.485709	-0.115168	-0.002575
N68	N	1.985709	0.384832	0.497425
C69	C	1.530912	-0.085082	0.480297
C70	C	2.030912	0.414918	0.980297
C71	C	1.524772	-0.089165	0.566821
C72	C	2.024772	0.410835	1.066821
C73	C	1.442932	-0.143532	0.598753
C74	C	1.942932	0.356468	1.098753
C75	C	1.367218	-0.193814	0.544156
C76	C	1.867218	0.306186	1.044156
C77	C	1.373353	-0.189727	0.457634
C78	C	1.873353	0.310273	0.957634
C79	C	1.416131	-0.161363	0.856306
C80	C	1.916131	0.338637	1.356306
C81	C	1.410004	-0.165448	0.942835
C82	C	1.910004	0.334552	1.442835
C83	C	1.567557	-0.060797	0.965493
C84	C	2.067557	0.439203	1.465493
C85	C	1.573690	-0.056718	0.878969
C86	C	2.073690	0.443282	1.378969
C87	C	1.497972	-0.106997	0.824379
C88	C	1.997972	0.393003	1.324379
N89	N	1.436656	-0.147708	0.687194
N90	N	1.936656	0.352292	1.187194
N91	N	1.504242	-0.102816	0.735939
N92	N	2.004242	0.397184	1.235939
H93	H	1.089754	-0.131039	0.290305
H94	H	1.589754	0.368961	0.790305
O95	O	1.686784	0.118715	0.242697
O96	O	2.186784	0.618715	0.742697
H97	H	1.692875	0.079147	0.300174
H98	H	2.192875	0.579147	0.800174
H99	H	1.597561	-0.040814	0.454306
H100	H	2.097561	0.459186	0.954306
O101	O	1.043720	-0.119561	0.068592
O102	O	1.543720	0.380439	0.568592
H103	H	1.076713	-0.065100	0.037034
H104	H	1.576713	0.434900	0.537034
O105	O	0.835469	-0.118147	0.110558
O106	O	1.335469	0.381853	0.610558
H107	H	0.868462	-0.063687	0.079000
H108	H	1.368462	0.436313	0.579000
O109	O	1.201031	0.255773	0.172794
O110	O	1.701031	0.755773	0.672794
H111	H	1.153473	0.238869	0.109351
H112	H	1.653473	0.738869	0.609351
H113	H	1.690165	0.651019	0.243173
H114	H	2.190165	1.151019	0.743173
O115	O	1.222593	0.085511	0.175905
O116	O	1.722593	0.585511	0.675905
H117	H	1.225961	0.050451	0.119790
H118	H	1.725961	0.550451	0.619790
H119	H	1.629201	-0.019861	1.009947
H120	H	2.129201	0.480139	1.509947
H121	H	1.586416	-0.048222	0.611268
H122	H	2.086416	0.451778	1.111268
H123	H	1.640331	-0.012448	0.852972
H124	H	2.140331	0.487552	1.352972
O125	O	1.291687	-0.243944	0.398743
O126	O	1.791687	0.256056	0.898743
H127	H	1.350251	-0.280888	0.367318
H128	H	1.850251	0.219112	0.867318
O129	O	1.254126	0.630764	0.180428
O130	O	1.754126	1.130764	0.680428
H131	H	1.248059	0.670349	0.122966
H132	H	1.748059	1.170349	0.622966
O133	O	0.897159	-0.130969	0.354542
O134	O	1.397159	0.369031	0.854542
H135	H	0.998612	-0.132739	0.356338
H136	H	1.498612	0.367261	0.856338
O137	O	1.321714	-0.224080	0.977280
O138	O	1.821714	0.275920	1.477280
H139	H	1.270081	-0.258349	0.924783
H140	H	1.770081	0.241651	1.424783
H141	H	1.300576	-0.238079	0.570160
H142	H	1.800576	0.261921	1.070160
O143	O	1.665207	0.288970	0.239602
O144	O	2.165207	0.788970	0.739602
H145	H	1.748198	0.252280	0.251560
H146	H	2.248198	0.752280	0.751560
O147	O	1.275683	0.460504	0.183521
O148	O	1.775683	0.960504	0.683521
H149	H	1.302519	0.398005	0.187373
H150	H	1.802519	0.898005	0.687373
H151	H	1.708992	0.502411	0.245887
H152	H	2.208992	1.002411	0.745887
H153	H	1.354480	-0.202304	0.811865
H154	H	1.854480	0.297696	1.311865
