data_functionalizedCrystal
_audit_creation_method	'MofGen! by Chris Wilmer'
_symmetry_space_group_name_H-M	'P1'
_symmetry_Int_Tables_number	1
_symmetry_cell_setting	triclinic
loop_
_symmetry_equiv_pos_as_xyz
  x,y,z
_cell_length_a	10.540539
_cell_length_b	10.654550
_cell_length_c	9.130313
_cell_angle_alpha	89.999890
_cell_angle_beta	90.001801
_cell_angle_gamma	84.505197
loop_
_atom_site_label
_atom_site_type_symbol
_atom_site_fract_x
_atom_site_fract_y
_atom_site_fract_z
O1	O	1.685816	0.176986	-0.121726
O2	O	1.316397	0.193663	-0.121744
O3	O	1.509601	0.002588	-0.121729
O4	O	1.492613	0.368061	-0.121741
O5	O	1.509598	0.002593	0.121870
O6	O	1.316395	0.193668	0.121855
O7	O	1.685814	0.176992	0.121873
Cu8	Cu	1.501104	0.185330	0.144106
Cu9	Cu	1.501107	0.185324	-0.143978
O10	O	1.492611	0.368066	0.121858
C11	C	1.508352	-0.044208	0.000068
C12	C	1.504620	-0.183652	0.000063
C13	C	1.269094	0.192415	0.000053
C14	C	1.128147	0.188673	0.000046
C15	C	1.618375	-0.263098	0.000073
C16	C	1.614861	-0.394120	0.000063
C17	C	1.383827	-0.366238	0.000039
C18	C	1.387343	-0.235218	0.000038
C19	C	1.735653	-0.211532	0.000098
C20	C	1.849417	-0.290979	0.000109
C21	C	1.845903	-0.422001	0.000099
C22	C	1.728625	-0.473576	0.000077
C23	C	0.944772	0.045302	0.000620
C24	C	1.091388	0.049095	0.000055
C25	C	1.066451	0.255841	-0.139057
C26	C	0.919909	0.251077	-0.139158
C27	C	0.919416	0.253923	0.137859
C28	C	1.066398	0.255208	0.139682
C29	C	1.733118	0.178240	0.000072
C30	C	1.874064	0.181981	0.000069
C31	C	1.493859	0.414862	0.000057
C32	C	1.497591	0.554306	0.000053
N33	N	1.501112	0.185334	0.346729
N34	N	1.501110	0.185311	-0.346600
C35	C	1.586684	0.100755	0.423387
C36	C	1.586681	0.100740	0.576724
C37	C	1.415528	0.269893	0.576731
C38	C	1.415526	0.269901	0.423397
C39	C	1.672269	0.016187	0.346720
C40	C	1.757850	-0.068397	0.423378
C41	C	1.757846	-0.068412	0.576715
C42	C	1.672262	0.016157	0.653393
H43	H	1.738527	-0.104849	0.000110
H44	H	1.827520	-0.137292	0.639129
H45	H	1.672258	0.016129	0.778251
Br46	Br	1.299388	0.384661	0.680792
H47	H	1.288345	-0.408241	0.000023
H48	H	0.872153	0.354739	0.138796
H49	H	0.916205	-0.009838	0.100379
Br50	Br	0.894452	-0.046233	-0.164707
Br51	Br	2.008572	-0.220988	0.000112
H52	H	1.345844	0.338772	0.360981
H53	H	1.938535	-0.486684	0.000093
H54	H	0.891717	0.201430	-0.243137
Br55	Br	1.160963	-0.039226	-0.166716
Br56	Br	1.103682	0.426674	-0.147730
Br57	Br	1.723859	-0.651393	0.000131
H58	H	1.109058	0.209178	-0.242578
Br59	Br	1.232959	-0.127390	0.000019
Br60	Br	1.672285	0.016213	0.138621
Br61	Br	1.162452	-0.038994	0.166255
Br62	Br	0.839889	0.418382	-0.149686
H63	H	0.887886	0.208754	0.243299
H64	H	1.107377	0.206140	0.242591
Br65	Br	1.106704	0.424826	0.153677
H66	H	1.827522	-0.137258	0.360939
