data_functionalizedCrystal
_audit_creation_method	'MofGen! by Chris Wilmer'
_symmetry_space_group_name_H-M	'P1'
_symmetry_Int_Tables_number	1
_symmetry_cell_setting	triclinic
loop_
_symmetry_equiv_pos_as_xyz
  x,y,z
_cell_length_a	18.215407
_cell_length_b	17.640280
_cell_length_c	18.215399
_cell_angle_alpha	78.775397
_cell_angle_beta	89.980167
_cell_angle_gamma	78.800709
loop_
_atom_site_label
_atom_site_type_symbol
_atom_site_fract_x
_atom_site_fract_y
_atom_site_fract_z
Zn1	Zn	1.184366	-0.314661	-0.356963
Zn2	Zn	1.684366	0.185339	0.143037
Zn3	Zn	1.209181	-0.446838	-0.209048
Zn4	Zn	1.709181	0.053162	0.290952
Zn5	Zn	1.061303	-0.314687	-0.233905
Zn6	Zn	1.561303	0.185313	0.266095
Zn7	Zn	1.086163	-0.446794	-0.332082
Zn8	Zn	1.586163	0.053206	0.167918
O9	O	1.135253	-0.380745	-0.282999
O10	O	1.635253	0.119255	0.217001
O11	O	1.290643	-0.332202	-0.337352
O12	O	1.790643	0.167798	0.162648
O13	O	1.189546	-0.429337	-0.109356
O14	O	1.689546	0.070663	0.390644
O15	O	1.056838	-0.204079	-0.271045
O16	O	1.556838	0.295921	0.228955
O17	O	1.308875	-0.429312	-0.228680
O18	O	1.808875	0.070688	0.271320
O19	O	1.147252	-0.204060	-0.361454
O20	O	1.647252	0.295940	0.138546
O21	O	1.080901	-0.332246	-0.127618
O22	O	1.580901	0.167754	0.372382
O23	O	0.961615	-0.332203	-0.246918
O24	O	1.461615	0.167797	0.253082
O25	O	1.099208	-0.429237	-0.438372
O26	O	1.599208	0.070763	0.061628
O27	O	0.979879	-0.429262	-0.319048
O28	O	1.479879	0.070738	0.180952
O29	O	1.171357	-0.332159	-0.456652
O30	O	1.671357	0.167841	0.043348
O31	O	1.213652	-0.557436	-0.204553
O32	O	1.713652	-0.057436	0.295447
O33	O	1.123271	-0.557404	-0.294945
O34	O	1.623271	-0.057404	0.205055
C35	C	0.944044	-0.380731	-0.282981
C36	C	1.444044	0.119269	0.217019
C37	C	0.862248	-0.380745	-0.282987
C38	C	1.362248	0.119255	0.217013
C39	C	1.173871	-0.586099	-0.244368
C40	C	1.673871	-0.086099	0.255632
C41	C	1.190460	-0.673950	-0.227866
C42	C	1.690460	-0.173950	0.272134
C43	C	0.683598	-0.431363	-0.320471
C44	C	1.183598	0.068637	0.179529
C45	C	0.606740	-0.431365	-0.320479
C46	C	1.106740	0.068635	0.179521
C47	C	0.587662	-0.330142	-0.245542
C48	C	1.087662	0.169858	0.254458
C49	C	0.664519	-0.330136	-0.245538
C50	C	1.164519	0.169864	0.254462
C51	C	0.712485	-0.380751	-0.283000
C52	C	1.212485	0.119249	0.217000
C53	C	0.558771	-0.380759	-0.283013
C54	C	1.058771	0.119241	0.216987
C55	C	0.475438	-0.380761	-0.283022
C56	C	0.975438	0.119239	0.216978
C57	C	0.795824	-0.380748	-0.282993
C58	C	1.295824	0.119252	0.217007
C59	C	1.009534	-0.962935	-0.408631
C60	C	1.509534	-0.462935	0.091369
C61	C	1.025123	-1.045484	-0.393101
C62	C	1.525123	-0.545484	0.106899
C63	C	1.119295	-1.045452	-0.299071
C64	C	1.619295	-0.545452	0.200929
C65	C	1.103717	-0.962901	-0.314596
C66	C	1.603717	-0.462901	0.185404
C67	C	1.048835	-0.921649	-0.369375
C68	C	1.548835	-0.421649	0.130625
C69	C	1.143018	-0.921615	-0.275340
C70	C	1.643018	-0.421615	0.224660
C71	C	1.127438	-0.839071	-0.290861
C72	C	1.627438	-0.339071	0.209139
C73	C	1.072557	-0.797813	-0.345636
C74	C	1.572557	-0.297813	0.154364
C75	C	1.033255	-0.839105	-0.384896
C76	C	1.533255	-0.339105	0.115104
C77	C	1.197896	-0.962869	-0.220557
C78	C	1.697896	-0.462869	0.279443
C79	C	1.237196	-0.921583	-0.181301
C80	C	1.737196	-0.421583	0.318699
C81	C	1.221620	-0.839038	-0.196825
C82	C	1.721620	-0.339038	0.303175
C83	C	1.166739	-0.797780	-0.251601
C84	C	1.666739	-0.297780	0.248399
C85	C	1.260922	-0.797746	-0.157566
C86	C	1.760922	-0.297746	0.342434
C87	C	1.245342	-0.715202	-0.173086
C88	C	1.745342	-0.215202	0.326914
C89	C	1.151159	-0.715236	-0.267122
C90	C	1.651159	-0.215236	0.232878
C91	C	1.327209	-0.380759	-0.283018
C92	C	1.827209	0.119241	0.216982
C93	C	1.409009	-0.380765	-0.283027
C94	C	1.909009	0.119235	0.216973
C95	C	1.135288	-0.380690	-0.474963
C96	C	1.635288	0.119310	0.025037
C97	C	1.135302	-0.380667	-0.556766
C98	C	1.635302	0.119333	-0.056766
C99	C	1.096504	-0.174589	-0.321798
C100	C	1.596504	0.325411	0.178202
C101	C	1.079991	-0.086738	-0.338331
C102	C	1.579991	0.413262	0.161669
C103	C	1.172878	-0.330072	-0.754489
C104	C	1.672878	0.169928	-0.254489
C105	C	1.172883	-0.330049	-0.831352
C106	C	1.672883	0.169951	-0.331352
C107	C	1.097755	-0.431141	-0.812304
C108	C	1.597755	0.068859	-0.312304
C109	C	1.097747	-0.431159	-0.735444
C110	C	1.597747	0.068841	-0.235444
C111	C	1.135313	-0.380626	-0.706537
C112	C	1.635313	0.119374	-0.206537
C113	C	1.135326	-0.380584	-0.860261
C114	C	1.635326	0.119416	-0.360261
C115	C	1.135330	-0.380560	-0.943600
C116	C	1.635330	0.119440	-0.443600
C117	C	1.135307	-0.380649	-0.623194
C118	C	1.635307	0.119351	-0.123194
C119	C	1.135250	-0.380742	-0.091794
C120	C	1.635250	0.119258	0.408206
C121	C	1.135336	-0.380543	-0.010033
C122	C	1.635336	0.119457	0.489967
H123	H	0.722651	-0.472575	-0.350978
H124	H	1.222651	0.027425	0.149022
H125	H	1.067151	-0.472326	-0.696400
H126	H	1.567151	0.027674	-0.196400
C127	C	1.179665	-1.090834	-0.238822
C128	C	1.679665	-0.590834	0.261178
H129	H	1.183320	-1.145908	-0.235203
H130	H	1.683320	-0.645908	0.264797
H131	H	1.166385	-1.077339	-0.191901
H132	H	1.666385	-0.577339	0.308099
H133	H	1.226544	-1.077259	-0.252203
H134	H	1.726544	-0.577259	0.247797
C135	C	1.214214	-0.274449	-0.884096
C136	C	1.714214	0.225551	-0.384096
H137	H	1.208836	-0.281670	-0.934013
H138	H	1.708836	0.218330	-0.434013
H139	H	1.265833	-0.286029	-0.869328
H140	H	1.765833	0.213971	-0.369328
H141	H	1.193460	-0.221342	-0.881496
H142	H	1.693460	0.278658	-0.381496
C143	C	0.574967	-0.487036	-0.361699
C144	C	1.074967	0.012964	0.138301
H145	H	0.614544	-0.517180	-0.384005
H146	H	1.114544	-0.017180	0.115995
H147	H	0.539322	-0.456845	-0.399492
H148	H	1.039322	0.043155	0.100508
H149	H	0.551443	-0.521442	-0.327024
H150	H	1.051443	-0.021442	0.172976
C151	C	0.534899	-0.274479	-0.204326
C152	C	1.034899	0.225521	0.295674
H153	H	0.484990	-0.281736	-0.209687
H154	H	0.984990	0.218264	0.290313
H155	H	0.537510	-0.221385	-0.225158
H156	H	1.037510	0.278615	0.274842
H157	H	0.549642	-0.285988	-0.152695
H158	H	1.049642	0.214012	0.347305
H159	H	1.277344	-0.681587	-0.141120
H160	H	1.777344	-0.181587	0.358880
H161	H	0.688037	-0.288916	-0.215026
H162	H	1.188037	0.211084	0.284974
H163	H	1.059867	-0.730600	-0.358267
H164	H	1.559867	-0.230600	0.141733
H165	H	1.203465	-0.288922	-0.730956
H166	H	1.703465	0.211078	-0.230956
C167	C	1.056442	-0.486730	-0.844099
C168	C	1.556442	0.013270	-0.344099
H169	H	1.034062	-0.516836	-0.804532
H170	H	1.534062	-0.016836	-0.304532
H171	H	1.091072	-0.521162	-0.867605
H172	H	1.591072	-0.021162	-0.367605
H173	H	1.018692	-0.456484	-0.879769
H174	H	1.518692	0.043516	-0.379769
C175	C	1.090795	-0.669849	-0.327382
C176	C	1.590795	-0.169849	0.172618
H177	H	1.087150	-0.614776	-0.331004
H178	H	1.587150	-0.114776	0.168996
H179	H	1.043914	-0.683421	-0.314020
H180	H	1.543914	-0.183421	0.185980
H181	H	1.104091	-0.683341	-0.374305
H182	H	1.604091	-0.183341	0.125695
H183	H	1.210581	-1.030082	-0.207924
H184	H	1.710581	-0.530082	0.292076
C185	C	0.972895	-0.793722	-0.445163
C186	C	1.472895	-0.293722	0.054837
H187	H	0.951719	-0.830131	-0.466323
H188	H	1.451719	-0.330131	0.033677
H189	H	0.994952	-0.761484	-0.483310
H190	H	1.494952	-0.261484	0.016690
H191	H	0.934771	-0.761560	-0.423029
H192	H	1.434771	-0.261560	0.076971
C193	C	0.949175	-0.917552	-0.468898
C194	C	1.449175	-0.417552	0.031102
H195	H	0.927998	-0.953961	-0.490057
H196	H	1.427998	-0.453961	0.009943
H197	H	0.971231	-0.885314	-0.507045
H198	H	1.471231	-0.385314	-0.007045
H199	H	0.911050	-0.885390	-0.446764
H200	H	1.411050	-0.385390	0.053236
C201	C	0.981889	-1.090900	-0.436283
C202	C	1.481889	-0.590900	0.063717
H203	H	0.999022	-1.145969	-0.419191
H204	H	1.499022	-0.645969	0.080809
H205	H	0.990065	-1.077341	-0.488291
H206	H	1.490065	-0.577341	0.011709
H207	H	0.929903	-1.077417	-0.427991
H208	H	1.429903	-0.577417	0.072009
C209	C	1.297566	-0.966965	-0.121052
C210	C	1.797566	-0.466965	0.378948
H211	H	1.301221	-1.022039	-0.117433
H212	H	1.801221	-0.522039	0.382567
H213	H	1.284286	-0.953470	-0.074131
H214	H	1.784286	-0.453470	0.425869
H215	H	1.344445	-0.953390	-0.134433
H216	H	1.844445	-0.453390	0.365567
C217	C	1.321285	-0.843130	-0.097311
C218	C	1.821285	-0.343130	0.402689
H219	H	1.324937	-0.898203	-0.093691
H220	H	1.824937	-0.398203	0.406309
H221	H	1.308000	-0.829632	-0.050392
H222	H	1.808000	-0.329632	0.449608
H223	H	1.368168	-0.829560	-0.110686
H224	H	1.868168	-0.329560	0.389314
