data_functionalizedCrystal
_audit_creation_method	'MofGen! by Chris Wilmer'
_symmetry_space_group_name_H-M	'P1'
_symmetry_Int_Tables_number	1
_symmetry_cell_setting	triclinic
loop_
_symmetry_equiv_pos_as_xyz
  x,y,z
_cell_length_a	16.109301
_cell_length_b	16.109301
_cell_length_c	15.186229
_cell_angle_alpha	89.994833
_cell_angle_beta	89.999362
_cell_angle_gamma	83.461481
loop_
_atom_site_label
_atom_site_type_symbol
_atom_site_fract_x
_atom_site_fract_y
_atom_site_fract_z
O1	O	1.103131	0.106866	-0.073176
O2	O	1.603131	0.606866	0.426824
O3	O	0.861069	0.120165	-0.073190
O4	O	1.361069	0.620165	0.426810
O5	O	0.988749	-0.007515	-0.073174
O6	O	1.488749	0.492485	0.426826
O7	O	0.975450	0.234547	-0.073192
O8	O	1.475450	0.734547	0.426808
O9	O	0.988741	-0.007517	0.073284
O10	O	1.488741	0.492483	0.573284
O11	O	0.861060	0.120164	0.073267
O12	O	1.361060	0.620164	0.573267
O13	O	1.103122	0.106864	0.073282
O14	O	1.603122	0.606864	0.573282
Zn15	Zn	0.982090	0.113514	0.096528
Zn16	Zn	1.482090	0.613514	0.596528
Zn17	Zn	0.982101	0.113516	-0.096436
Zn18	Zn	1.482101	0.613516	0.403564
O19	O	0.975441	0.234545	0.073265
O20	O	1.475441	0.734545	0.573265
C21	C	0.830090	0.119626	0.000037
C22	C	1.330090	0.619626	0.500037
C23	C	0.737794	0.118011	0.000032
C24	C	1.237794	0.618011	0.500032
C25	C	0.515522	0.190018	0.000036
C26	C	1.015522	0.690018	0.500036
C27	C	0.428801	0.188494	0.000042
C28	C	0.928801	0.688494	0.500042
C29	C	0.448676	0.037006	0.000050
C30	C	0.948676	0.537006	0.500050
C31	C	0.535394	0.038530	0.000051
C32	C	1.035394	0.538530	0.500051
C33	C	0.568815	0.115039	0.000039
C34	C	1.068815	0.615039	0.500039
C35	C	0.395376	0.111990	0.000045
C36	C	0.895376	0.611990	0.500045
C37	C	0.301350	0.110337	0.000051
C38	C	0.801350	0.610337	0.500051
C39	C	0.662847	0.116693	0.000035
C40	C	1.162847	0.616693	0.500035
C41	C	0.988206	-0.038491	0.000056
C42	C	1.488206	0.461509	0.500056
C43	C	0.986591	-0.130786	0.000057
C44	C	1.486591	0.369214	0.500057
C45	C	1.058599	-0.353059	0.000047
C46	C	1.558599	0.146941	0.500047
C47	C	1.057075	-0.439779	0.000040
C48	C	1.557075	0.060221	0.500040
C49	C	0.905586	-0.419905	0.000034
C50	C	1.405586	0.080095	0.500034
C51	C	0.907111	-0.333186	0.000035
C52	C	1.407111	0.166814	0.500035
C53	C	0.983620	-0.299766	0.000046
C54	C	1.483620	0.200234	0.500046
C55	C	0.980571	-0.473205	0.000038
C56	C	1.480571	0.026795	0.500038
C57	C	0.978918	-0.567231	0.000030
C58	C	1.478918	-0.067231	0.500030
C59	C	0.985273	-0.205734	0.000052
C60	C	1.485273	0.294266	0.500052
C61	C	1.134101	0.107404	0.000053
C62	C	1.634101	0.607404	0.500053
C63	C	1.226397	0.109019	0.000052
C64	C	1.726397	0.609019	0.500052
C65	C	0.975984	0.265521	0.000034
C66	C	1.475984	0.765521	0.500034
C67	C	0.977600	0.357816	0.000027
C68	C	1.477600	0.857816	0.500027
N69	N	0.982088	0.113511	0.228220
N70	N	1.482088	0.613511	0.728220
N71	N	0.982109	0.113512	-0.228129
N72	N	1.482109	0.613512	0.271871
C73	C	1.038644	0.056994	0.453950
C74	C	1.538644	0.556994	0.953950
C75	C	1.038647	0.056992	0.546140
C76	C	1.538647	0.556992	1.046140
C77	C	0.925547	0.170032	0.546135
C78	C	1.425547	0.670032	1.046135
C79	C	0.925541	0.170030	0.453947
C80	C	1.425541	0.670030	0.953947
C81	C	0.982094	0.113511	0.407857
C82	C	1.482094	0.613511	0.907857
C83	C	0.982103	0.113512	0.592235
C84	C	1.482103	0.613512	1.092235
C85	C	0.982105	0.113510	0.692191
C86	C	1.482105	0.613510	1.192191
C87	C	0.982091	0.113512	0.307894
C88	C	1.482091	0.613512	0.807894
H89	H	0.578788	-0.022530	0.000056
H90	H	1.078788	0.477470	0.500056
O91	O	0.834349	-0.281292	-0.000005
O92	O	1.334349	0.218708	0.499995
C93	C	0.852103	-0.197587	0.000016
C94	C	1.352103	0.302413	0.500016
H95	H	0.917409	-0.194286	-0.027707
H96	H	1.417409	0.305714	0.472293
H97	H	0.848943	-0.172511	0.070278
H98	H	1.348943	0.327489	0.570278
C99	C	0.707340	-0.148540	-0.023375
C100	C	1.207340	0.351460	0.476625
C101	C	0.787547	-0.144484	-0.057432
C102	C	1.287547	0.355516	0.442568
H103	H	0.667517	-0.115782	-0.058808
H104	H	1.167517	0.384218	0.441192
H105	H	0.695377	-0.204934	-0.023386
H106	H	1.195377	0.295066	0.476614
H107	H	0.704718	-0.127644	0.035176
H108	H	1.204718	0.372356	0.535176
H109	H	0.790170	-0.165389	-0.115978
H110	H	1.290170	0.334611	0.384022
H111	H	0.799509	-0.088093	-0.057432
H112	H	1.299509	0.411907	0.442568
H113	H	1.084692	0.010972	0.416426
H114	H	1.584692	0.510972	0.916426
H115	H	1.120897	-0.325851	0.000054
H116	H	1.620897	0.174149	0.500054
H117	H	0.879487	0.216053	0.416415
H118	H	1.379487	0.716053	0.916415
O119	O	1.129854	-0.491633	0.000159
O120	O	1.629854	0.008367	0.500159
C121	C	1.133512	-0.542387	0.076017
C122	C	1.633512	-0.042387	0.576017
H123	H	1.067521	-0.546755	0.101303
H124	H	1.567521	-0.046755	0.601303
H125	H	1.171477	-0.513877	0.129135
H126	H	1.671477	-0.013877	0.629135
C127	C	1.256422	-0.625073	0.021915
C128	C	1.756422	-0.125073	0.521915
C129	C	1.175369	-0.630444	0.052967
C130	C	1.675369	-0.130444	0.552967
H131	H	1.282244	-0.679390	0.007699
H132	H	1.782244	-0.179390	0.507699
H133	H	1.253959	-0.590878	-0.029191
H134	H	1.753959	-0.090878	0.470809
H135	H	1.288048	-0.601312	0.066185
H136	H	1.788048	-0.101312	0.566185
H137	H	1.143741	-0.654195	0.008693
H138	H	1.643741	-0.154195	0.508693
H139	H	1.177826	-0.664645	0.104065
H140	H	1.677826	-0.164645	0.604065
H141	H	0.542730	0.252317	0.000034
H142	H	1.042730	0.752317	0.500034
O143	O	0.831342	-0.452510	0.000071
O144	O	1.331342	0.047490	0.500071
C145	C	0.846072	-0.540478	0.000051
C146	C	1.346072	-0.040478	0.500051
H147	H	0.910958	-0.560864	0.027779
H148	H	1.410958	-0.060864	0.527779
H149	H	0.842048	-0.564612	-0.070211
H150	H	1.342048	-0.064612	0.429789
C151	C	0.700251	-0.551393	0.023432
C152	C	1.200251	-0.051393	0.523432
C153	C	0.779943	-0.576431	0.057495
C154	C	1.279943	-0.076431	0.557495
H155	H	0.659458	-0.573572	0.058862
H156	H	1.159458	-0.073572	0.558862
H157	H	0.690326	-0.492127	0.023442
H158	H	1.190326	0.007873	0.523442
H159	H	0.696910	-0.571506	-0.035119
H160	H	1.196910	-0.071506	0.464881
H161	H	0.783286	-0.556309	0.116041
H162	H	1.283286	-0.056309	0.616041
H163	H	0.789867	-0.635695	0.057496
H164	H	1.289867	-0.135695	0.557496
H165	H	0.385413	0.249550	0.000041
H166	H	0.885413	0.749550	0.500041
H167	H	0.879503	0.216049	0.583670
H168	H	1.379503	0.716049	1.083670
H169	H	0.421454	-0.025285	0.000065
H170	H	0.921454	0.474715	0.500065
H171	H	1.084694	0.010969	0.583667
H172	H	1.584694	0.510969	1.083667
