data_functionalizedCrystal
_audit_creation_method	'MofGen! by Chris Wilmer'
_symmetry_space_group_name_H-M	'P1'
_symmetry_Int_Tables_number	1
_symmetry_cell_setting	triclinic
loop_
_symmetry_equiv_pos_as_xyz
  x,y,z
_cell_length_a	18.101395
_cell_length_b	18.101398
_cell_length_c	21.395356
_cell_angle_alpha	90.024395
_cell_angle_beta	89.974602
_cell_angle_gamma	89.976925
loop_
_atom_site_label
_atom_site_type_symbol
_atom_site_fract_x
_atom_site_fract_y
_atom_site_fract_z
Zn1	Zn	-0.295003	-1.132103	-0.354406
Zn2	Zn	-0.418847	-1.132004	-0.249633
Zn3	Zn	-0.295007	-1.008267	-0.249628
Zn4	Zn	-0.418790	-1.008212	-0.354359
O5	O	-0.356912	-1.070146	-0.302006
O6	O	-0.311454	-1.235722	-0.340529
O7	O	-0.402445	-1.115572	-0.161955
O8	O	-0.191374	-1.024758	-0.263544
O9	O	-0.402442	-1.235650	-0.263553
O10	O	-0.191371	-1.115740	-0.340524
O11	O	-0.311460	-1.024663	-0.161951
O12	O	-0.311405	-0.904627	-0.263499
O13	O	-0.402344	-1.024665	-0.442043
O14	O	-0.402348	-0.904587	-0.340444
O15	O	-0.311398	-1.115687	-0.442077
O16	O	-0.522473	-1.115519	-0.263508
O17	O	-0.522431	-1.024569	-0.340450
C18	C	-0.356871	-0.877736	-0.301966
C19	C	-0.356871	-0.795422	-0.301964
C20	C	-0.549323	-1.070047	-0.301988
C21	C	-0.631637	-1.070073	-0.302001
C22	C	-0.356900	-0.496331	-0.302005
C23	C	-0.299397	-0.527657	-0.253831
C24	C	-0.299556	-0.613275	-0.253628
C25	C	-0.356885	-0.644713	-0.301985
C26	C	-0.434894	-0.613596	-0.283944
C27	C	-0.434570	-0.527951	-0.283606
C28	C	-0.337074	-0.527942	-0.368335
C29	C	-0.335342	-0.613593	-0.367977
C30	C	-0.356881	-0.728573	-0.301974
C31	C	-0.356909	-0.412471	-0.302014
C32	C	-0.930728	-1.070235	-0.302035
C33	C	-0.899407	-1.013145	-0.350565
C34	C	-0.813789	-1.012874	-0.350413
C35	C	-0.782345	-1.070155	-0.302019
C36	C	-0.813491	-1.049029	-0.235983
C37	C	-0.899136	-1.048661	-0.236273
C38	C	-0.899083	-1.148576	-0.318960
C39	C	-0.813432	-1.148115	-0.320408
C40	C	-0.698486	-1.070110	-0.302005
C41	C	-1.014587	-1.070278	-0.302044
C42	C	-0.163750	-1.070266	-0.302039
C43	C	-0.081436	-1.070317	-0.302052
C44	C	-0.356864	-1.070181	-0.465430
C45	C	-0.356844	-1.070195	-0.535071
C46	C	-0.356939	-0.263308	-0.302037
C47	C	-0.356914	-0.345622	-0.302026
C48	C	-0.309371	-1.117660	-1.036886
C49	C	-0.309389	-1.117654	-0.971451
C50	C	-0.356746	-1.070259	-0.938710
C51	C	-0.404102	-1.022879	-0.971409
C52	C	-0.404088	-1.022892	-1.036843
C53	C	-0.362601	-1.003514	-0.835026
C54	C	-0.362610	-1.003500	-0.769593
C55	C	-0.356793	-1.070221	-0.736889
C56	C	-0.350952	-1.136957	-0.769625
C57	C	-0.350938	-1.136970	-0.835060
C58	C	-0.356766	-1.070240	-0.867757
C59	C	-0.309463	-1.117595	-0.633244
C60	C	-0.309486	-1.117590	-0.567808
C61	C	-0.404195	-1.022809	-0.567767
C62	C	-0.404176	-1.022820	-0.633203
C63	C	-0.356806	-1.070212	-0.665937
C64	C	-0.356906	-1.070155	-0.139219
C65	C	-0.356718	-1.070284	-0.069578
H66	H	-0.241709	-0.634315	-0.264937
C67	C	-0.257363	-1.169734	-0.669255
N68	N	-0.218123	-1.209008	-0.696376
H69	H	-0.270932	-1.156175	-0.541191
H70	H	-0.346212	-1.191288	-0.742999
C71	C	-0.456290	-0.970674	-0.531756
N72	N	-0.495530	-0.931406	-0.504629
H73	H	-0.442728	-0.984238	-0.659821
C74	C	-0.344522	-1.210379	-0.871068
N75	N	-0.339694	-1.265672	-0.898189
C76	C	-0.456192	-0.970742	-0.935392
N77	N	-0.495430	-0.931472	-0.908265
C78	C	-0.221004	-0.499863	-0.268934
N79	N	-0.161956	-0.478924	-0.280310
H80	H	-0.367365	-0.949160	-0.742944
C81	C	-0.369000	-0.930111	-0.870994
N82	N	-0.373819	-0.874826	-0.898084
C83	C	-0.456171	-0.970767	-1.072805
N84	N	-0.495398	-0.931504	-1.099893
H85	H	-0.312356	-0.506110	-0.204967
C86	C	-0.261556	-0.498805	-0.390489
N87	N	-0.204671	-0.476862	-0.407168
C88	C	-0.457277	-0.500918	-0.218095
N89	N	-0.474376	-0.480560	-0.168750
H90	H	-0.277935	-0.633936	-0.381580
C91	C	-0.785973	-1.103432	-0.185799
N92	N	-0.765243	-1.144407	-0.148001
C93	C	-0.786183	-0.934413	-0.335312
N94	N	-0.765391	-0.875309	-0.323953
H95	H	-0.478865	-0.507227	-0.317164
C96	C	-0.317270	-0.640913	-0.187232
N97	N	-0.330616	-0.661730	-0.137219
C98	C	-0.494333	-0.641115	-0.329858
N99	N	-0.539102	-0.661846	-0.364439
H100	H	-0.452003	-0.635013	-0.235979
C101	C	-0.387808	-0.642501	-0.419069
N102	N	-0.427333	-0.664272	-0.457550
H103	H	-0.270830	-1.156233	-0.944828
H104	H	-0.378957	-0.507684	-0.404230
H105	H	-0.792728	-1.026091	-0.399377
C106	C	-0.927132	-1.102390	-0.185753
N107	N	-0.948215	-1.142854	-0.147698
H108	H	-0.919958	-1.026231	-0.399688
H109	H	-0.920985	-0.955430	-0.339494
C110	C	-0.784514	-1.208619	-0.276136
N111	N	-0.762735	-1.254189	-0.242784
C112	C	-0.926203	-0.971295	-0.216910
N113	N	-0.946587	-0.913020	-0.202328
H114	H	-0.792098	-0.992369	-0.221390
H115	H	-0.920635	-1.167837	-0.366293
H116	H	-0.270802	-1.156254	-1.063535
C117	C	-0.785897	-1.169657	-0.386049
N118	N	-0.765143	-1.185885	-0.435487
C119	C	-0.926450	-1.206039	-0.271212
N120	N	-0.947068	-1.249314	-0.235247
