data_functionalizedCrystal
_audit_creation_method	'MofGen! by Chris Wilmer'
_symmetry_space_group_name_H-M	'P1'
_symmetry_Int_Tables_number	1
_symmetry_cell_setting	triclinic
loop_
_symmetry_equiv_pos_as_xyz
  x,y,z
_cell_length_a	12.759401
_cell_length_b	13.897448
_cell_length_c	12.759393
_cell_angle_alpha	89.967771
_cell_angle_beta	89.981708
_cell_angle_gamma	90.017853
loop_
_atom_site_label
_atom_site_type_symbol
_atom_site_fract_x
_atom_site_fract_y
_atom_site_fract_z
Zn1	Zn	1.606231	-0.383965	-0.593968
Zn2	Zn	1.606117	-0.545291	-0.418283
Zn3	Zn	1.430534	-0.384012	-0.418308
Zn4	Zn	1.430513	-0.545220	-0.593924
O5	O	1.518349	-0.464622	-0.506121
O6	O	1.753237	-0.405375	-0.570671
O7	O	1.582787	-0.523946	-0.271265
O8	O	1.453897	-0.249024	-0.441638
O9	O	1.753153	-0.523900	-0.441596
O10	O	1.582981	-0.248989	-0.570695
O11	O	1.453787	-0.405455	-0.271283
O12	O	1.283510	-0.405386	-0.441596
O13	O	1.453861	-0.523779	-0.740951
O14	O	1.283495	-0.523825	-0.570621
O15	O	1.582961	-0.405306	-0.740984
O16	O	1.582766	-0.680263	-0.441554
O17	O	1.453750	-0.680211	-0.570597
C18	C	1.245382	-0.464604	-0.506107
C19	C	1.128605	-0.464620	-0.506125
C20	C	1.073762	-0.526389	-0.573198
C21	C	0.964038	-0.526402	-0.573209
C22	C	0.964009	-0.402872	-0.439067
C23	C	1.073731	-0.402855	-0.439062
C24	C	1.073778	-0.597711	-0.650640
C25	C	0.964054	-0.597724	-0.650652
C26	C	1.518272	-0.715236	-0.506090
C27	C	1.518336	-0.822450	-0.506113
C28	C	1.518446	-1.018745	-0.506178
C29	C	1.518382	-0.909513	-0.506145
C30	C	1.792382	-0.464640	-0.506136
C31	C	1.909159	-0.464648	-0.506142
C32	C	1.518421	-0.464529	-0.780154
C33	C	1.518452	-0.464490	-0.896931
C34	C	1.518454	-0.213029	-0.506174
C35	C	1.518499	-0.105815	-0.506197
C36	C	1.585626	-0.526165	-0.951781
C37	C	1.585658	-0.526124	-1.061505
C38	C	1.451333	-0.402730	-1.061520
C39	C	1.451307	-0.402767	-0.951798
C40	C	1.663174	-0.597408	-0.951774
C41	C	1.663206	-0.597367	-1.061498
C42	C	1.518337	-0.464644	-0.233154
C43	C	1.518510	-0.464412	-0.116377
H44	H	0.919317	-0.352584	-0.384467
F45	F	1.112746	-0.571675	-0.757043
F46	F	1.764276	-0.562417	-1.105998
F47	F	1.118237	-0.690442	-0.612439
H48	H	0.930058	-0.571059	-0.728004
F49	F	1.634682	-0.694994	-1.100404
F50	F	1.132095	-0.337097	-0.367691
H51	H	0.934254	-0.672411	-0.628717
H52	H	1.744546	-0.577418	-0.922009
F53	F	1.379826	-0.337113	-0.893426
H54	H	1.396667	-0.352477	-1.106205
H55	H	1.633999	-0.668384	-0.917723
