data_functionalizedCrystal
_audit_creation_method	'MofGen! by Chris Wilmer'
_symmetry_space_group_name_H-M	'P1'
_symmetry_Int_Tables_number	1
_symmetry_cell_setting	triclinic
loop_
_symmetry_equiv_pos_as_xyz
  x,y,z
_cell_length_a	11.026607
_cell_length_b	16.109302
_cell_length_c	14.586319
_cell_angle_alpha	89.994552
_cell_angle_beta	89.998207
_cell_angle_gamma	96.023899
loop_
_atom_site_label
_atom_site_type_symbol
_atom_site_fract_x
_atom_site_fract_y
_atom_site_fract_z
O1	O	0.155976	1.126504	-0.076280
O2	O	0.175385	0.887350	-0.076272
O3	O	-0.010965	0.987106	-0.076272
O4	O	0.342326	1.026748	-0.076280
O5	O	-0.010967	0.987097	0.076209
O6	O	0.175383	0.887341	0.076208
O7	O	0.155973	1.126494	0.076201
Cu8	Cu	0.165678	1.006917	0.090127
Cu9	Cu	0.165681	1.006928	-0.090199
O10	O	0.342323	1.026738	0.076201
C11	C	0.174598	0.856253	-0.000031
C12	C	0.172240	0.763604	-0.000028
C13	C	0.166787	0.550441	0.083080
C14	C	0.164559	0.463387	0.083077
C15	C	0.164568	0.463409	-0.083166
C16	C	0.166787	0.550461	-0.083162
C17	C	0.167903	0.593975	-0.000036
C18	C	0.163455	0.419869	-0.000043
C19	C	0.161039	0.325482	-0.000047
C20	C	0.170317	0.688369	-0.000032
C21	C	-0.056174	0.979788	-0.000033
C22	C	-0.190880	0.957987	-0.000035
C23	C	-0.264709	1.018183	-0.000038
C24	C	-0.403934	0.995652	-0.000041
C25	C	0.387533	1.034056	-0.000041
C26	C	0.522238	1.055857	-0.000044
C27	C	0.156761	1.157592	-0.000042
C28	C	0.159118	1.250240	-0.000051
N29	N	0.165675	1.006915	0.216959
N30	N	0.165674	1.006935	-0.217031
C31	C	0.083186	1.051110	0.451966
C32	C	0.083183	1.051112	0.547947
C33	C	0.248166	0.962734	0.547956
C34	C	0.248163	0.962728	0.451977
C35	C	0.165674	1.006921	0.403984
C36	C	0.165675	1.006929	0.595945
C37	C	0.165672	1.006931	0.700012
C38	C	0.165675	1.006918	0.299910
H39	H	0.167693	0.585907	-0.150849
H40	H	-0.224844	1.086399	-0.000035
H41	H	-0.230744	0.889772	-0.000039
H42	H	0.163661	0.427969	-0.150844
H43	H	-0.443793	0.927432	-0.000045
O44	O	0.337123	0.915056	0.400213
H45	H	0.396103	0.958872	0.356462
H46	H	-0.437905	1.124078	-0.000115
O47	O	-0.005792	1.098760	0.400197
H48	H	-0.063160	1.129480	0.449691
H49	H	0.016013	1.087093	0.587011
O50	O	0.337148	0.915082	0.599718
H51	H	0.323305	0.922518	0.674520
O52	O	0.163366	0.416430	0.172723
H53	H	0.164525	0.461317	0.230522
H54	H	0.167695	0.585868	0.150766
