data_functionalizedCrystal
_audit_creation_method	'MofGen! by Chris Wilmer'
_symmetry_space_group_name_H-M	'P1'
_symmetry_Int_Tables_number	1
_symmetry_cell_setting	triclinic
loop_
_symmetry_equiv_pos_as_xyz
  x,y,z
_cell_length_a	16.793024
_cell_length_b	16.793047
_cell_length_c	33.586455
_cell_angle_alpha	113.253857
_cell_angle_beta	66.219990
_cell_angle_gamma	112.758327
loop_
_atom_site_label
_atom_site_type_symbol
_atom_site_fract_x
_atom_site_fract_y
_atom_site_fract_z
O1	O	0.005016	-0.570216	-0.583573
O2	O	-0.034529	-0.474528	-0.453458
O3	O	0.114723	-0.474535	-0.528082
O4	O	-0.144235	-0.570209	-0.508949
O5	O	0.108729	-0.346329	-0.530229
O6	O	-0.040523	-0.346322	-0.455605
O7	O	-0.000977	-0.442010	-0.585721
Cu8	Cu	-0.021297	-0.382459	-0.520859
Cu9	Cu	-0.014209	-0.534079	-0.518320
O10	O	-0.150229	-0.442003	-0.511097
C11	C	0.005100	-0.790970	-0.238461
C12	C	0.009223	-0.693065	-0.217557
C13	C	0.003804	-0.645758	-0.241627
C14	C	-0.075059	-0.538459	-0.266316
C15	C	0.049838	-0.422849	-0.250165
C16	C	-0.040584	-0.395375	-0.435637
C17	C	-0.044693	-0.353446	-0.386631
C18	C	-0.039275	-0.401741	-0.363054
C19	C	-0.040566	-0.125547	-0.300731
C20	C	-0.044689	-0.223451	-0.321635
C21	C	-0.039266	-0.270752	-0.297563
C22	C	0.039597	-0.378051	-0.272874
C23	C	-0.085304	-0.493667	-0.289026
C24	C	0.005118	-0.521142	-0.103554
C25	C	0.009231	-0.563064	-0.152559
C26	C	0.003809	-0.514775	-0.176138
C27	C	0.010758	-0.652581	-0.172822
C28	C	0.001010	-0.556371	-0.220792
C29	C	-0.008251	-0.506059	-0.245823
C30	C	-0.046224	-0.263935	-0.366370
C31	C	-0.036476	-0.360146	-0.318399
C32	C	-0.027211	-0.410451	-0.293367
C33	C	0.815184	-0.521162	-0.508596
C34	C	0.415541	-0.125553	-0.528781
C35	C	0.375032	-0.223457	-0.531493
C36	C	0.423813	-0.270761	-0.529101
C37	C	0.149318	-0.395376	-0.530584
C38	C	0.246774	-0.353455	-0.532364
C39	C	0.294574	-0.401748	-0.529976
C40	C	0.548961	-0.790984	-0.510398
C41	C	0.286104	-0.263940	-0.532530
C42	C	0.383336	-0.360149	-0.528302
C43	C	0.432207	-0.407971	-0.525810
C44	C	0.392316	-0.497392	-0.524993
C45	C	0.303554	-0.538991	-0.526667
C46	C	0.254683	-0.491169	-0.529159
C47	C	0.263666	-0.628421	-0.525851
C48	C	0.312537	-0.676243	-0.523359
C49	C	0.401299	-0.634644	-0.521685
C50	C	0.441190	-0.545223	-0.522502
C51	C	0.529952	-0.503624	-0.520828
C52	C	0.578823	-0.551446	-0.518336
C53	C	0.538939	-0.640864	-0.517520
C54	C	0.450177	-0.682463	-0.519194
C55	C	0.587810	-0.688687	-0.515028
C56	C	0.676572	-0.647088	-0.513354
C57	C	0.716463	-0.557666	-0.514172
C58	C	0.667586	-0.509847	-0.516662
C59	C	0.569840	-0.414195	-0.521644
C60	C	0.658602	-0.372596	-0.519970
C61	C	0.707476	-0.420426	-0.517480
C62	C	0.698493	-0.283174	-0.520788
C63	C	0.649622	-0.235352	-0.523280
C64	C	0.560860	-0.276951	-0.524954
C65	C	0.520969	-0.366372	-0.524136
C66	C	0.511989	-0.229129	-0.527446
C67	C	-0.040530	-0.395407	-0.935652
C68	C	0.005063	-0.791004	-0.738448
C69	C	0.009186	-0.693099	-0.717543
C70	C	0.003779	-0.645796	-0.741620
C71	C	0.005077	-0.521171	-0.603544
C72	C	0.009198	-0.563096	-0.652550
C73	C	0.003786	-0.514804	-0.676131
C74	C	-0.040516	-0.125574	-0.800747
C75	C	0.010719	-0.652613	-0.672809
C76	C	0.000994	-0.556406	-0.720789
C77	C	-0.004621	-0.508585	-0.744908
C78	C	-0.007444	-0.419162	-0.724369
C79	C	-0.004651	-0.377560	-0.679711
C80	C	0.000964	-0.425381	-0.655592
C81	C	-0.007471	-0.288129	-0.659174
C82	C	-0.013086	-0.240308	-0.683293
C83	C	-0.015878	-0.281910	-0.727951
C84	C	-0.013056	-0.371333	-0.748490
C85	C	-0.015848	-0.412935	-0.793148
C86	C	-0.021463	-0.365114	-0.817267
C87	C	-0.024282	-0.275694	-0.796731
C88	C	-0.021490	-0.234092	-0.752073
C89	C	-0.029897	-0.227873	-0.820850
C90	C	-0.032690	-0.269476	-0.865508
C91	C	-0.029867	-0.358899	-0.886047
C92	C	-0.024255	-0.406717	-0.861925
C93	C	-0.013028	-0.502367	-0.813685
C94	C	-0.015821	-0.543969	-0.858343
C95	C	-0.021433	-0.496140	-0.882464
C96	C	-0.012998	-0.633392	-0.878882
C97	C	-0.007383	-0.681213	-0.854763
C98	C	-0.004591	-0.639611	-0.810105
C99	C	-0.007414	-0.550188	-0.789566
C100	C	0.001024	-0.687432	-0.785986
O101	O	-0.000965	0.173549	-0.277957
O102	O	-0.040516	-0.085616	-0.325254
O103	O	0.108737	0.059592	-0.327284
O104	O	-0.150219	0.028341	-0.275927
O105	O	0.114753	0.055151	-0.263265
O106	O	-0.034500	-0.090057	-0.261234
O107	O	0.005051	0.169108	-0.213937
Cu108	Cu	-0.014175	0.039120	-0.231740
Cu109	Cu	-0.021290	0.044372	-0.307451
O110	O	-0.144202	0.023900	-0.211907
O111	O	-0.034458	-0.474571	0.046517
O112	O	0.005076	-0.570190	-0.083599
O113	O	-0.144170	-0.570237	-0.008972
O114	O	0.114787	-0.474523	-0.028110
O115	O	-0.150200	-0.442024	-0.011093
O116	O	-0.000954	-0.441976	-0.085720
O117	O	-0.040488	-0.346357	0.044396
Cu118	Cu	-0.021272	-0.382460	-0.020856
Cu119	Cu	-0.014141	-0.534087	-0.018347
O120	O	0.108757	-0.346309	-0.030231
C121	C	-0.850734	0.086244	-0.289716
C122	C	-0.753280	0.087165	-0.312001
C123	C	-0.705462	0.081107	-0.288506
C124	C	-0.599592	0.000085	-0.264184
C125	C	-0.481080	0.121287	-0.283645
C126	C	-0.450996	0.035117	-0.097351
C127	C	-0.410501	0.028587	-0.146852
C128	C	-0.459292	0.034683	-0.169840
C129	C	-0.184802	0.024283	-0.235878
C130	C	-0.282257	0.023363	-0.213592
C131	C	-0.330068	0.029423	-0.237088
C132	C	-0.435938	0.110445	-0.261411
C133	C	-0.554456	-0.010759	-0.241948
C134	C	-0.584541	0.075410	-0.428242
C135	C	-0.625029	0.081943	-0.378743
C136	C	-0.576244	0.075844	-0.355753
C137	C	-0.713963	0.086424	-0.357292
C138	C	-0.616708	0.075351	-0.310510
C139	C	-0.565963	0.065400	-0.286043
C140	C	-0.321573	0.024104	-0.168302
C141	C	-0.418828	0.035176	-0.215083
C142	C	-0.469568	0.045131	-0.239552
O143	O	0.585213	0.169090	-0.504004
O144	O	0.494056	-0.090076	-0.525516
O145	O	0.488081	0.055124	-0.449918
O146	O	0.591189	0.023889	-0.579602
O147	O	0.359978	0.059584	-0.452885
O148	O	0.365953	-0.085616	-0.528483
O149	O	0.457110	0.173550	-0.506971
Cu150	Cu	0.399835	0.044374	-0.517998
Cu151	Cu	0.551332	0.039099	-0.514489
O152	O	0.463086	0.028349	-0.582569
C153	C	0.815354	-0.521094	-0.008709
C154	C	0.717898	-0.563028	-0.006927
C155	C	0.670072	-0.514739	-0.009298
C156	C	0.564182	-0.463204	-0.048354
C157	C	0.445681	-0.498945	0.013847
C158	C	0.415547	-0.125494	-0.028771
C159	C	0.375059	-0.223405	-0.031498
C160	C	0.423859	-0.270708	-0.029121
C161	C	0.149365	-0.395355	-0.030599
C162	C	0.246820	-0.353421	-0.032381
C163	C	0.294640	-0.401713	-0.030008
C164	C	0.400530	-0.453248	0.009048
C165	C	0.519038	-0.417504	-0.053155
C166	C	0.549171	-0.790955	-0.010537
C167	C	0.589653	-0.693047	-0.007809
C168	C	0.540859	-0.645741	-0.010187
C169	C	0.678588	-0.652551	-0.006775
C170	C	0.581317	-0.556344	-0.010973
C171	C	0.530562	-0.506029	-0.015250
C172	C	0.286131	-0.263897	-0.032533
C173	C	0.383402	-0.360104	-0.028335
C174	C	0.434150	-0.410423	-0.024057
O175	O	-0.620614	0.089309	0.052274
O176	O	-0.529507	0.043784	-0.078544
O177	O	-0.523494	0.194833	-0.006033
O178	O	-0.626628	-0.061740	-0.020236
O179	O	-0.395386	0.185419	-0.005549
O180	O	-0.401400	0.034370	-0.078059
O181	O	-0.492507	0.079895	0.052758
Cu182	Cu	-0.435256	0.056273	-0.012607
Cu183	Cu	-0.586758	0.067406	-0.013179
O184	O	-0.498521	-0.071154	-0.019752
C185	C	-0.437537	0.048335	0.402491
C186	C	-0.397043	0.041789	0.352989
C187	C	-0.445822	0.047883	0.329994
C188	C	-0.496646	0.126653	0.277022
C189	C	-0.465894	-0.000633	0.218811
C190	C	-0.837226	0.099430	0.210091
C191	C	-0.739773	0.100339	0.187806
C192	C	-0.691967	0.094287	0.211308
C193	C	-0.571027	0.088563	0.071568
C194	C	-0.611521	0.095108	0.121070
C195	C	-0.562739	0.089011	0.144061
C196	C	-0.511915	0.010241	0.197033
C197	C	-0.542670	0.137531	0.255247
C198	C	-0.171338	0.037467	0.263967
C199	C	-0.268788	0.036555	0.286249
C200	C	-0.316597	0.042611	0.262750
C201	C	-0.308112	0.037305	0.331542
C202	C	-0.405351	0.048369	0.284750
C203	C	-0.456092	0.058317	0.260279
C204	C	-0.700452	0.099593	0.142516
C205	C	-0.603213	0.088528	0.189308
C206	C	-0.552469	0.078578	0.213776
O207	O	-0.040608	-1.085661	-0.825229
O208	O	-0.001018	-0.826491	-0.777938
O209	O	-0.150287	-0.971682	-0.775894
O210	O	0.108661	-0.940470	-0.827272
O211	O	-0.144253	-0.976123	-0.711878
O212	O	0.005016	-0.830932	-0.713922
O213	O	-0.034575	-1.090102	-0.761213
Cu214	Cu	-0.014228	-0.960923	-0.731722
Cu215	Cu	-0.021364	-0.955670	-0.807428
O216	O	0.114695	-0.944911	-0.763256
O217	O	-0.036862	-0.230384	-0.253947
C218	C	-0.113095	-0.156247	-0.177817
C219	C	-0.115936	-0.201960	-0.227192
H220	H	-0.177010	-0.133236	-0.156173
H221	H	-0.108751	-0.206109	-0.164063
H222	H	-0.051377	-0.095492	-0.176669
H223	H	-0.177648	-0.262709	-0.228380
H224	H	-0.120232	-0.152039	-0.240925
H225	H	0.261721	-0.474856	-0.029430
H226	H	0.702991	-0.441593	-0.009870
H227	H	-0.518447	0.052455	0.347905
H228	H	0.330510	-0.448858	0.033327
H229	H	0.003251	-0.391359	-0.619081
O230	O	0.551017	-0.141900	-0.528222
C231	C	0.684247	-0.016404	-0.526991
C232	C	0.640179	-0.115212	-0.526143
H233	H	0.756335	0.005210	-0.525302
H234	H	0.685460	-0.009435	-0.559662
H235	H	0.643537	0.028184	-0.496602
H236	H	0.680853	-0.159861	-0.556509
H237	H	0.638953	-0.122109	-0.493453
O238	O	0.001092	-0.427567	-0.155909
C239	C	-0.082701	-0.319961	-0.132186
C240	C	-0.079752	-0.418758	-0.155096
H241	H	-0.148049	-0.312803	-0.131530
H242	H	-0.079779	-0.298720	-0.095991
H243	H	-0.022417	-0.275202	-0.152108
H244	H	-0.140026	-0.463585	-0.135212
H245	H	-0.082630	-0.439925	-0.191295
H246	H	0.496488	-0.236853	-0.027824
O247	O	0.177141	-0.669141	-0.527545
C248	C	0.077592	-0.790304	-0.568103
C249	C	0.175618	-0.744273	-0.566230
H250	H	0.076330	-0.851045	-0.599382
H251	H	0.034494	-0.813348	-0.536317
H252	H	0.049384	-0.740548	-0.570012
H253	H	0.203907	-0.793978	-0.564336
H254	H	0.218653	-0.721211	-0.598015
O255	O	-0.015787	-0.153079	-0.663199
C256	C	-0.015280	-0.027665	-0.595702
C257	C	-0.012188	-0.126449	-0.618407
H258	H	-0.012391	-0.006111	-0.559481
H259	H	0.044905	0.017060	-0.615684
H260	H	-0.080715	-0.020833	-0.595126
H261	H	0.053207	-0.133368	-0.618988
H262	H	-0.072418	-0.171127	-0.598417
H263	H	0.088092	-0.309407	-0.275738
O264	O	-0.024081	-0.146820	-0.732043
C265	C	0.051891	0.003725	-0.696235
C266	C	0.054953	-0.095070	-0.718917
H267	H	0.115773	0.045589	-0.685608
H268	H	0.047437	0.030937	-0.721237
H269	H	-0.009847	0.007773	-0.665037
H270	H	0.116685	-0.099197	-0.750112
H271	H	0.059359	-0.122239	-0.693885
O272	O	0.118340	-0.386022	-0.231053
C273	C	0.246602	-0.260355	-0.217772
C274	C	0.169053	-0.301945	-0.239430
H275	H	0.287636	-0.192381	-0.224545
H276	H	0.217386	-0.250723	-0.179619
H277	H	0.292236	-0.307212	-0.233148
H278	H	0.123391	-0.255128	-0.224091
H279	H	0.198331	-0.311595	-0.277584
O280	O	-0.428119	-0.070596	0.200039
C281	C	-0.341443	-0.146752	0.207524
C282	C	-0.384197	-0.067495	0.228837
H283	H	-0.305906	-0.144261	0.230792
H284	H	-0.396479	-0.212976	0.202821
H285	H	-0.290236	-0.141660	0.173157
H286	H	-0.435396	-0.072501	0.263214
H287	H	-0.329111	-0.001304	0.233505
O288	O	-0.580515	0.207447	0.274040
C289	C	-0.667103	0.283667	0.266535
C290	C	-0.624305	0.204439	0.245207
H291	H	-0.702501	0.281273	0.243228
H292	H	-0.718398	0.278578	0.300883
H293	H	-0.612030	0.349849	0.271271
H294	H	-0.679315	0.138218	0.240441
H295	H	-0.572989	0.209608	0.210873
O296	O	-0.290821	0.029578	-0.281271
C297	C	-0.220791	-0.050593	-0.357318
C298	C	-0.265234	-0.050882	-0.307297
H299	H	-0.200074	-0.115629	-0.378372
H300	H	-0.270919	-0.045271	-0.370446
H301	H	-0.158416	0.009378	-0.360159
H302	H	-0.327602	-0.110846	-0.304417
H303	H	-0.215046	-0.056158	-0.294191
H304	H	0.279916	-0.749353	-0.522691
H305	H	0.013390	-0.692483	-0.152899
H306	H	0.417564	-0.755580	-0.518528
O307	O	0.785018	-0.242512	-0.519077
C308	C	0.884609	-0.121307	-0.478558
C309	C	0.786583	-0.167284	-0.480438
H310	H	0.885909	-0.060465	-0.447326
H311	H	0.912832	-0.170994	-0.476597
H312	H	0.927670	-0.098390	-0.510382
H313	H	0.743450	-0.190201	-0.448621
H314	H	0.758432	-0.117566	-0.482422
H315	H	0.413839	-0.532573	0.042316
H316	H	-0.047834	-0.232081	-0.882358
H317	H	0.634201	-0.467612	-0.072637
H318	H	0.710767	-0.684484	-0.506030
H319	H	-0.023718	-0.530163	-0.918978
H320	H	-0.005085	-0.754331	-0.871556
O321	O	-0.277210	0.042856	0.218584
C322	C	-0.143542	0.036772	0.154287
C323	C	-0.188044	0.036475	0.204305
H324	H	-0.071438	0.031633	0.142730
H325	H	-0.183943	-0.023016	0.132435
H326	H	-0.142287	0.101992	0.150676
H327	H	-0.189307	-0.028703	0.207959
H328	H	-0.147628	0.096307	0.226132
H329	H	0.682238	-0.162236	-0.523943
O330	O	-0.015740	-0.674113	-0.922434
C331	C	-0.015038	-0.809651	-0.984825
C332	C	-0.011947	-0.763651	-0.935497
H333	H	-0.011953	-0.882044	-0.995405
H334	H	-0.080496	-0.809444	-0.987511
H335	H	0.045118	-0.771489	-1.008088
H336	H	-0.072057	-0.801776	-0.912204
H337	H	0.053550	-0.763847	-0.932848
H338	H	-0.037138	-0.474881	-0.380005
H339	H	0.013347	-0.692513	-0.652885
O340	O	0.726642	-0.700197	-0.005461
C341	C	0.737571	-0.783979	0.035268
C342	C	0.683050	-0.730072	0.033823
H343	H	0.702359	-0.808133	0.067031
H344	H	0.742314	-0.844552	0.003903
H345	H	0.808451	-0.739099	0.035953
H346	H	0.612144	-0.774879	0.033153
H347	H	0.678382	-0.669491	0.065186
O348	O	-0.153851	-0.530463	-0.308106
C349	C	-0.282038	-0.656190	-0.321438
C350	C	-0.204464	-0.614613	-0.299797
H351	H	-0.322969	-0.724239	-0.314736
H352	H	-0.327778	-0.609433	-0.306050
H353	H	-0.252751	-0.665700	-0.359580
H354	H	-0.233673	-0.605101	-0.261655
H355	H	-0.158736	-0.661389	-0.315220
H356	H	-0.740818	0.102779	0.123104
O357	O	-0.352359	0.166089	-0.260001
C358	C	-0.198617	0.221559	-0.302861
C359	C	-0.293234	0.158515	-0.304520
H360	H	-0.150783	0.215443	-0.338850
H361	H	-0.202943	0.294047	-0.285753
H362	H	-0.172063	0.201813	-0.282744
H363	H	-0.319844	0.178180	-0.324644
H364	H	-0.288852	0.086043	-0.321611
H365	H	0.468233	-0.679598	-0.011487
H366	H	0.003321	-0.760550	-0.802778
O367	O	-0.744826	0.080623	-0.244372
C368	C	-0.866536	0.006079	-0.190887
C369	C	-0.822036	0.006505	-0.240887
H370	H	-0.928978	-0.053827	-0.188052
H371	H	-0.816455	0.000637	-0.177772
H372	H	-0.887150	0.071163	-0.169814
H373	H	-0.801421	-0.058564	-0.261996
H374	H	-0.872144	0.011996	-0.253966
O375	O	-0.259894	0.033383	0.354633
C376	C	-0.178151	-0.051219	0.359544
C377	C	-0.232724	-0.046884	0.333345
H378	H	-0.156185	-0.116118	0.342349
H379	H	-0.115866	0.009044	0.359807
H380	H	-0.222063	-0.049815	0.395895
H381	H	-0.188887	-0.048316	0.296982
H382	H	-0.295017	-0.107142	0.333119
H383	H	-0.531920	0.039247	-0.151930
H384	H	0.001650	-0.679613	-0.278166
H385	H	0.550886	-0.383867	-0.081621
H386	H	0.245737	-0.223998	-0.033572
O387	O	-0.132982	-0.620284	-0.262808
C388	C	-0.243081	-0.709068	-0.212761
C389	C	-0.177537	-0.616349	-0.216668
H390	H	-0.279107	-0.705922	-0.175459
H391	H	-0.295091	-0.728321	-0.231009
H392	H	-0.203514	-0.761625	-0.228929
H393	H	-0.217028	-0.563731	-0.200496
H394	H	-0.125527	-0.597172	-0.198432
H395	H	-0.048864	-0.224020	-0.386283
H396	H	-0.490116	0.084434	0.126151
O397	O	0.237846	-0.216325	-0.533700
C398	C	0.106274	-0.159747	-0.496749
C399	C	0.160855	-0.213669	-0.495366
H400	H	0.044006	-0.157598	-0.465765
H401	H	0.150120	-0.088210	-0.496642
H402	H	0.084259	-0.193570	-0.528887
H403	H	0.182880	-0.179924	-0.463233
H404	H	0.116976	-0.285205	-0.495498
O405	O	-0.489651	0.070238	-0.377119
C406	C	-0.384921	-0.016995	-0.401118
C407	C	-0.483025	-0.010772	-0.376919
H408	H	-0.379528	-0.082478	-0.400955
H409	H	-0.364572	-0.015606	-0.437631
H410	H	-0.338015	0.042534	-0.382652
H411	H	-0.529998	-0.070288	-0.395347
H412	H	-0.503299	-0.012119	-0.340405
H413	H	0.780052	-0.386407	-0.516111
O414	O	-0.004919	-0.247676	-0.615586
C415	C	-0.076485	-0.248908	-0.537487
C416	C	-0.079439	-0.294834	-0.586838
H417	H	-0.136737	-0.287005	-0.514229
H418	H	-0.011100	-0.249182	-0.534752
H419	H	-0.079459	-0.176486	-0.526942
H420	H	-0.076499	-0.367274	-0.597415
H421	H	-0.144819	-0.294488	-0.589546
H422	H	0.182115	-0.525189	-0.530531
O423	O	-0.443235	0.188167	-0.304224
C424	C	-0.459728	0.261465	-0.348229
C425	C	-0.502698	0.185703	-0.324933
H426	H	-0.507776	0.259486	-0.364986
H427	H	-0.446272	0.329383	-0.321887
H428	H	-0.393285	0.251574	-0.375086
H429	H	-0.569164	0.195508	-0.298078
H430	H	-0.516087	0.117812	-0.351301
O431	O	-0.762008	0.090359	-0.380466
C432	C	-0.772921	0.172120	-0.422211
C433	C	-0.718411	0.167752	-0.395990
H434	H	-0.737705	0.234697	-0.434762
H435	H	-0.777653	0.109521	-0.452435
H436	H	-0.843804	0.175404	-0.398817
H437	H	-0.647502	0.164498	-0.419348
H438	H	-0.713753	0.230351	-0.365761
H439	H	-0.518563	-0.039000	0.162804
H440	H	-0.669612	-0.046576	-0.265443
H441	H	-0.586315	-0.066836	-0.224702
H442	H	-0.489994	0.175891	0.311254
O443	O	-0.273486	0.020146	-0.145156
C444	C	-0.262718	-0.061410	-0.103263
C445	C	-0.317255	-0.057052	-0.129473
H446	H	-0.298094	-0.123809	-0.090568
H447	H	-0.191893	-0.064943	-0.126660
H448	H	-0.257823	0.001345	-0.073127
H449	H	-0.322221	-0.119791	-0.159610
H450	H	-0.388049	-0.053474	-0.106045
O451	O	-0.731176	0.093847	0.255453
C452	C	-0.777253	0.012712	0.309876
C453	C	-0.732814	0.013102	0.259869
H454	H	-0.778609	-0.052572	0.313461
H455	H	-0.736795	0.072430	0.331726
H456	H	-0.849320	0.017969	0.321457
H457	H	-0.660750	0.007816	0.248246
H458	H	-0.773339	-0.046607	0.238049
