data_functionalizedCrystal
_audit_creation_method	'MofGen! by Chris Wilmer'
_symmetry_space_group_name_H-M	'P1'
_symmetry_Int_Tables_number	1
_symmetry_cell_setting	triclinic
loop_
_symmetry_equiv_pos_as_xyz
  x,y,z
_cell_length_a	10.967874
_cell_length_b	9.482900
_cell_length_c	10.723024
_cell_angle_alpha	99.424795
_cell_angle_beta	95.408746
_cell_angle_gamma	111.292858
loop_
_atom_site_label
_atom_site_type_symbol
_atom_site_fract_x
_atom_site_fract_y
_atom_site_fract_z
O1	O	1.746273	0.558371	-0.085557
O2	O	1.368001	0.463608	-0.117494
O3	O	1.565861	0.513170	0.080400
O4	O	1.548412	0.508810	-0.283451
O5	O	1.525673	0.261311	0.040047
O6	O	1.327812	0.211749	-0.157847
O7	O	1.706084	0.306512	-0.125910
Cu8	Cu	1.513279	0.236134	-0.145563
Cu9	Cu	1.560806	0.533987	-0.097841
O10	O	1.508224	0.256950	-0.323804
C11	C	1.299471	0.325545	-0.138396
C12	C	1.155148	0.289390	-0.140541
C13	C	1.111623	0.403741	-0.120594
C14	C	0.962458	0.366376	-0.122811
N15	N	1.479860	0.026643	-0.179127
C16	C	1.550940	-0.027752	-0.107735
C17	C	1.523145	-0.202132	-0.135670
C18	C	1.774615	0.444579	-0.105008
C19	C	1.918939	0.480744	-0.102861
C20	C	1.544497	0.386924	0.106672
C21	C	1.540699	0.385978	0.245075
N22	N	1.594236	0.743480	-0.064267
C23	C	1.529588	0.383200	-0.350076
C24	C	1.533388	0.384156	-0.488477
C25	C	1.651412	0.413715	0.324502
C26	C	1.647488	0.412737	0.467549
H27	H	1.184790	0.529304	-0.101881
H28	H	1.742266	0.436476	0.535785
C29	C	1.414355	-0.312131	-0.244603
C30	C	1.292441	-0.305808	-0.222589
C31	C	1.192194	-0.407134	-0.322898
H32	H	1.433377	-0.282554	-0.323288
H33	H	1.410014	-0.414746	-0.248878
H34	H	1.296783	-0.203215	-0.218327
H35	H	1.273376	-0.335400	-0.143923
H36	H	1.187853	-0.509750	-0.327173
H37	H	1.211229	-0.377548	-0.401576
H38	H	1.109462	-0.402868	-0.307969
C39	C	1.659726	0.082104	0.001254
C40	C	1.781605	0.075676	-0.020766
C41	C	1.881857	0.176820	0.079615
H42	H	1.664193	0.184767	0.005656
H43	H	1.640596	0.052388	0.079887
H44	H	1.800730	0.105401	-0.099377
H45	H	1.777181	-0.026963	-0.025154
H46	H	1.862728	0.147104	0.158248
H47	H	1.886312	0.279476	0.084009
H48	H	1.964561	0.172462	0.064694
C49	C	1.057399	0.122061	-0.165412
C50	C	0.928888	0.118268	-0.162620
C51	C	0.838814	-0.035851	-0.185507
H52	H	1.061116	0.068692	-0.247141
H53	H	1.079745	0.073461	-0.101080
H54	H	0.906548	0.166846	-0.226948
H55	H	0.925128	0.171605	-0.080901
H56	H	0.861159	-0.084450	-0.121175
H57	H	0.842543	-0.089207	-0.267235
H58	H	0.751611	-0.038444	-0.183604
H59	H	0.889293	0.240804	-0.141538
H60	H	1.675669	-0.173997	0.017546
C61	C	1.371075	-0.083361	-0.288055
C62	C	1.249161	-0.077038	-0.266041
C63	C	1.148914	-0.178364	-0.366350
H64	H	1.390098	-0.053784	-0.366740
H65	H	1.366735	-0.185976	-0.292330
H66	H	1.253503	0.025555	-0.261779
H67	H	1.230097	-0.106630	-0.187375
H68	H	1.144574	-0.280979	-0.370625
H69	H	1.167950	-0.148778	-0.445028
H70	H	1.066183	-0.174098	-0.351421
C71	C	1.781767	0.446675	0.274099
C72	C	1.872968	0.593940	0.337634
C73	C	1.993062	0.624367	0.291228
H74	H	1.815978	0.371028	0.288933
H75	H	1.767155	0.443093	0.184681
H76	H	1.887582	0.597509	0.427032
H77	H	1.838800	0.669617	0.322807
H78	H	1.978450	0.620785	0.201810
H79	H	2.027260	0.548712	0.306064
H80	H	2.054953	0.724294	0.334321
C81	C	1.407088	0.352815	0.420544
C82	C	1.422992	0.481211	0.365584
C83	C	1.306667	0.452406	0.281773
H84	H	1.389506	0.264189	0.354871
H85	H	1.334971	0.334831	0.466659
H86	H	1.495087	0.499176	0.319472
H87	H	1.440555	0.569852	0.431226
H88	H	1.234550	0.434422	0.327887
H89	H	1.289094	0.363777	0.216108
H90	H	1.317437	0.539521	0.244481
C91	C	1.016266	0.648282	-0.077937
C92	C	0.947196	0.746533	-0.059994
C93	C	1.036806	0.900875	-0.037048
H94	H	1.079370	0.669697	-0.003219
H95	H	1.060787	0.664923	-0.149282
H96	H	0.902697	0.729901	0.011344
H97	H	0.884098	0.725168	-0.134698
H98	H	1.081327	0.917516	-0.108392
H99	H	1.099906	0.922274	0.037669
H100	H	0.989954	0.967557	-0.024882
H101	H	1.443010	0.361514	0.282977
