data_functionalizedCrystal
_audit_creation_method	'MofGen! by Chris Wilmer'
_symmetry_space_group_name_H-M	'P1'
_symmetry_Int_Tables_number	1
_symmetry_cell_setting	triclinic
loop_
_symmetry_equiv_pos_as_xyz
  x,y,z
_cell_length_a	18.215405
_cell_length_b	21.295419
_cell_length_c	18.215399
_cell_angle_alpha	90.017422
_cell_angle_beta	89.970050
_cell_angle_gamma	89.960709
loop_
_atom_site_label
_atom_site_type_symbol
_atom_site_fract_x
_atom_site_fract_y
_atom_site_fract_z
Zn1	Zn	-0.292649	-0.962341	-0.416130
Zn2	Zn	-0.042649	-0.712341	-0.166130
Zn3	Zn	0.207351	-0.462341	0.083870
Zn4	Zn	0.457351	-0.212341	0.333870
Zn5	Zn	-0.415726	-0.962272	-0.293064
Zn6	Zn	-0.165726	-0.712272	-0.043064
Zn7	Zn	0.084274	-0.462272	0.206936
Zn8	Zn	0.334274	-0.212272	0.456936
Zn9	Zn	-0.292713	-0.857078	-0.293076
Zn10	Zn	-0.042713	-0.607078	-0.043076
Zn11	Zn	0.207287	-0.357078	0.206924
Zn12	Zn	0.457287	-0.107078	0.456924
Zn13	Zn	-0.415714	-0.857048	-0.416088
Zn14	Zn	-0.165714	-0.607048	-0.166088
Zn15	Zn	0.084286	-0.357048	0.083912
Zn16	Zn	0.334286	-0.107048	0.333912
O17	O	-0.354200	-0.909685	-0.354590
O18	O	-0.104200	-0.659685	-0.104590
O19	O	0.145800	-0.409685	0.145410
O20	O	0.395800	-0.159685	0.395410
O21	O	-0.308954	-1.050421	-0.399818
O22	O	-0.058954	-0.800421	-0.149818
O23	O	0.191046	-0.550421	0.100182
O24	O	0.441046	-0.300421	0.350182
O25	O	-0.399439	-0.948302	-0.190082
O26	O	-0.149439	-0.698302	0.059918
O27	O	0.100561	-0.448302	0.309918
O28	O	0.350561	-0.198302	0.559918
O29	O	-0.189720	-0.871083	-0.309422
O30	O	0.060280	-0.621083	-0.059422
O31	O	0.310280	-0.371083	0.190578
O32	O	0.560280	-0.121083	0.440578
O33	O	-0.399377	-1.050370	-0.309402
O34	O	-0.149377	-0.800370	-0.059402
O35	O	0.100623	-0.550370	0.190598
O36	O	0.350623	-0.300370	0.440598
O37	O	-0.189673	-0.948419	-0.399829
O38	O	0.060327	-0.698419	-0.149829
O39	O	0.310327	-0.448419	0.100171
O40	O	0.560327	-0.198419	0.350171
O41	O	-0.309062	-0.871017	-0.190090
O42	O	-0.059062	-0.621017	0.059910
O43	O	0.190938	-0.371017	0.309910
O44	O	0.440938	-0.121017	0.559910
O45	O	-0.309051	-0.768985	-0.309381
O46	O	-0.059051	-0.518985	-0.059381
O47	O	0.190949	-0.268985	0.190619
O48	O	0.440949	-0.018985	0.440619
O49	O	-0.399358	-0.871031	-0.519078
O50	O	-0.149358	-0.621031	-0.269078
O51	O	0.100642	-0.371031	-0.019078
O52	O	0.350642	-0.121031	0.230922
O53	O	-0.399420	-0.768962	-0.399758
O54	O	-0.149420	-0.518962	-0.149758
O55	O	0.100580	-0.268962	0.100242
O56	O	0.350580	-0.018962	0.350242
O57	O	-0.308942	-0.948389	-0.519109
O58	O	-0.058942	-0.698389	-0.269109
O59	O	0.191058	-0.448389	-0.019109
O60	O	0.441058	-0.198389	0.230891
O61	O	-0.518708	-0.948272	-0.309362
O62	O	-0.268708	-0.698272	-0.059362
O63	O	-0.018708	-0.448272	0.190638
O64	O	0.231292	-0.198272	0.440638
O65	O	-0.518700	-0.870964	-0.399746
O66	O	-0.268700	-0.620964	-0.149746
O67	O	-0.018700	-0.370964	0.100254
O68	O	0.231300	-0.120964	0.350254
C69	C	-0.354242	-0.746133	-0.354566
C70	C	-0.104242	-0.496133	-0.104566
C71	C	0.145758	-0.246133	0.145434
C72	C	0.395758	0.003867	0.395434
C73	C	-0.354277	-0.676165	-0.354574
C74	C	-0.104277	-0.426165	-0.104574
C75	C	0.145723	-0.176165	0.145426
C76	C	0.395723	0.073835	0.395426
C77	C	-0.545407	-0.909624	-0.354564
C78	C	-0.295407	-0.659624	-0.104564
C79	C	-0.045407	-0.409624	0.145436
C80	C	0.204593	-0.159624	0.395436
C81	C	-0.627206	-0.909656	-0.354578
C82	C	-0.377206	-0.659656	-0.104578
C83	C	-0.127206	-0.409656	0.145422
C84	C	0.122794	-0.159656	0.395422
C85	C	-0.307271	-0.643347	-0.401726
C86	C	-0.057271	-0.393347	-0.151726
C87	C	0.192729	-0.143347	0.098274
C88	C	0.442729	0.106653	0.348274
C89	C	-0.307254	-0.577605	-0.401728
C90	C	-0.057254	-0.327605	-0.151728
C91	C	0.192746	-0.077605	0.098272
C92	C	0.442746	0.172395	0.348272
C93	C	-0.354255	-0.544682	-0.354585
C94	C	-0.104255	-0.294682	-0.104585
C95	C	0.145745	-0.044682	0.145415
C96	C	0.395745	0.205318	0.395415
C97	C	-0.401264	-0.577508	-0.307425
C98	C	-0.151264	-0.327508	-0.057425
C99	C	0.098736	-0.077508	0.192575
C100	C	0.348736	0.172492	0.442575
C101	C	-0.401275	-0.643249	-0.307419
C102	C	-0.151275	-0.393249	-0.057419
C103	C	0.098725	-0.143249	0.192581
C104	C	0.348725	0.106751	0.442581
N105	N	-0.418651	-0.441415	-0.348837
N106	N	-0.168651	-0.191415	-0.098837
N107	N	0.081349	0.058585	0.151163
N108	N	0.331349	0.308585	0.401163
N109	N	-0.418638	-0.378964	-0.348847
N110	N	-0.168638	-0.128964	-0.098847
N111	N	0.081362	0.121036	0.151153
N112	N	0.331362	0.371036	0.401153
C113	C	-0.354224	-0.346608	-0.354599
C114	C	-0.104224	-0.096608	-0.104599
C115	C	0.145776	0.153392	0.145401
C116	C	0.395776	0.403392	0.395401
N117	N	-0.289822	-0.379062	-0.360354
N118	N	-0.039822	-0.129062	-0.110354
N119	N	0.210178	0.120938	0.139646
N120	N	0.460178	0.370938	0.389646
N121	N	-0.289835	-0.441520	-0.360349
N122	N	-0.039835	-0.191520	-0.110349
N123	N	0.210165	0.058480	0.139651
N124	N	0.460165	0.308480	0.389651
C125	C	-0.354248	-0.473397	-0.354586
C126	C	-0.104248	-0.223397	-0.104586
C127	C	0.145752	0.026603	0.145414
C128	C	0.395752	0.276603	0.395414
C129	C	-0.307196	-0.242504	-0.401755
C130	C	-0.057196	0.007496	-0.151755
C131	C	0.192804	0.257496	0.098245
C132	C	0.442804	0.507496	0.348245
C133	C	-0.307177	-0.176761	-0.401752
C134	C	-0.057177	0.073239	-0.151752
C135	C	0.192823	0.323239	0.098248
C136	C	0.442823	0.573239	0.348248
C137	C	-0.401194	-0.176665	-0.307452
C138	C	-0.151194	0.073335	-0.057452
C139	C	0.098806	0.323335	0.192548
C140	C	0.348806	0.573335	0.442548
C141	C	-0.401206	-0.242408	-0.307452
C142	C	-0.151206	0.007592	-0.057452
C143	C	0.098794	0.257592	0.192548
C144	C	0.348794	0.507592	0.442548
C145	C	-0.354208	-0.275323	-0.354607
C146	C	-0.104208	-0.025323	-0.104607
C147	C	0.145792	0.224677	0.145393
C148	C	0.395792	0.474677	0.395393
C149	C	-0.815314	-0.949944	-0.401717
C150	C	-0.565314	-0.699944	-0.151717
C151	C	-0.315314	-0.449944	0.098283
C152	C	-0.065314	-0.199944	0.348283
C153	C	-0.892173	-0.949967	-0.401731
C154	C	-0.642173	-0.699967	-0.151731
C155	C	-0.392173	-0.449967	0.098269
C156	C	-0.142173	-0.199967	0.348269
C157	C	-0.892335	-0.869503	-0.307508
C158	C	-0.642335	-0.619503	-0.057508
C159	C	-0.392335	-0.369503	0.192492
C160	C	-0.142335	-0.119503	0.442492
C161	C	-0.815477	-0.869478	-0.307498
C162	C	-0.565477	-0.619478	-0.057498
C163	C	-0.315477	-0.369478	0.192502
C164	C	-0.065477	-0.119478	0.442502
C165	C	-0.776969	-0.909702	-0.354602
C166	C	-0.526969	-0.659702	-0.104602
C167	C	-0.276969	-0.409702	0.145398
C168	C	-0.026969	-0.159702	0.395398
C169	C	-0.930685	-0.909750	-0.354625
C170	C	-0.680685	-0.659750	-0.104625
C171	C	-0.430685	-0.409750	0.145375
C172	C	-0.180685	-0.159750	0.395375
C173	C	-1.014019	-0.909774	-0.354640
C174	C	-0.764019	-0.659774	-0.104640
C175	C	-0.514019	-0.409774	0.145360
C176	C	-0.264019	-0.159774	0.395360
C177	C	-0.693630	-0.909676	-0.354588
C178	C	-0.443630	-0.659676	-0.104588
C179	C	-0.193630	-0.409676	0.145412
C180	C	0.056370	-0.159676	0.395412
C181	C	-0.162247	-0.909762	-0.354631
C182	C	0.087753	-0.659762	-0.104631
C183	C	0.337753	-0.409762	0.145369
C184	C	0.587753	-0.159762	0.395369
C185	C	-0.080449	-0.909795	-0.354649
C186	C	0.169551	-0.659795	-0.104649
C187	C	0.419551	-0.409795	0.145351
C188	C	0.669551	-0.159795	0.395351
C189	C	-0.354142	-0.909714	-0.546543
C190	C	-0.104142	-0.659714	-0.296543
C191	C	0.145858	-0.409714	-0.046543
C192	C	0.395858	-0.159714	0.203457
C193	C	-0.354117	-0.909727	-0.628342
C194	C	-0.104117	-0.659727	-0.378342
C195	C	0.145883	-0.409727	-0.128342
C196	C	0.395883	-0.159727	0.121658
C197	C	-0.354169	-0.073875	-0.354609
C198	C	-0.104169	0.176125	-0.104609
C199	C	0.145831	0.426125	0.145391
C200	C	0.395831	0.676125	0.395391
C201	C	-0.354178	-0.143843	-0.354608
C202	C	-0.104178	0.106157	-0.104608
C203	C	0.145822	0.356157	0.145392
C204	C	0.395822	0.606157	0.395392
C205	C	-0.307026	-0.869519	-0.816541
C206	C	-0.057026	-0.619519	-0.566541
C207	C	0.192974	-0.369519	-0.316541
C208	C	0.442974	-0.119519	-0.066541
C209	C	-0.307011	-0.869530	-0.893400
C210	C	-0.057011	-0.619530	-0.643400
C211	C	0.192989	-0.369530	-0.393400
C212	C	0.442989	-0.119530	-0.143400
C213	C	-0.401120	-0.950011	-0.893380
C214	C	-0.151120	-0.700011	-0.643380
C215	C	0.098880	-0.450011	-0.393380
C216	C	0.348880	-0.200011	-0.143380
C217	C	-0.401138	-0.949996	-0.816523
C218	C	-0.151138	-0.699996	-0.566523
C219	C	0.098862	-0.449996	-0.316523
C220	C	0.348862	-0.199996	-0.066523
C221	C	-0.354087	-0.909751	-0.778105
C222	C	-0.104087	-0.659751	-0.528105
C223	C	0.145913	-0.409751	-0.278105
C224	C	0.395913	-0.159751	-0.028105
C225	C	-0.354054	-0.909777	-0.931821
C226	C	-0.104054	-0.659777	-0.681821
C227	C	0.145946	-0.409777	-0.431821
C228	C	0.395946	-0.159777	-0.181821
C229	C	-0.354038	-0.909789	-1.015155
C230	C	-0.104038	-0.659789	-0.765155
C231	C	0.145962	-0.409789	-0.515155
C232	C	0.395962	-0.159789	-0.265155
C233	C	-0.354103	-0.909738	-0.694766
C234	C	-0.104103	-0.659738	-0.444766
C235	C	0.145897	-0.409738	-0.194766
C236	C	0.395897	-0.159738	0.055234
C237	C	-0.354206	-0.909691	-0.163383
C238	C	-0.104206	-0.659691	0.086617
C239	C	0.145794	-0.409691	0.336617
C240	C	0.395794	-0.159691	0.586617
C241	C	-0.354024	-0.909801	-0.081585
C242	C	-0.104024	-0.659801	0.168415
C243	C	0.145976	-0.409801	0.418415
C244	C	0.395976	-0.159801	0.668415
H245	H	-0.268973	-0.550879	-0.440123
H246	H	-0.018973	-0.300879	-0.190123
H247	H	0.231027	-0.050879	0.059877
H248	H	0.481027	0.199121	0.309877
N249	N	-0.258933	-0.828446	-0.932672
N250	N	-0.008933	-0.578446	-0.682672
N251	N	0.241067	-0.328446	-0.432672
N252	N	0.491067	-0.078446	-0.182672
N253	N	-0.258920	-0.828464	-1.001294
N254	N	-0.008920	-0.578464	-0.751294
N255	N	0.241080	-0.328464	-0.501294
N256	N	0.491080	-0.078464	-0.251294
H257	H	-0.224963	-0.799448	-1.029031
H258	H	0.025037	-0.549448	-0.779031
H259	H	0.275037	-0.299448	-0.529031
H260	H	0.525037	-0.049448	-0.279031
N261	N	-0.449175	-0.991113	-0.932636
N262	N	-0.199175	-0.741113	-0.682636
N263	N	0.050825	-0.491113	-0.432636
N264	N	0.300825	-0.241113	-0.182636
N265	N	-0.449153	-0.991122	-1.001258
N266	N	-0.199153	-0.741122	-0.751258
N267	N	0.050847	-0.491122	-0.501258
N268	N	0.300847	-0.241122	-0.251258
H269	H	-0.483093	-1.020152	-1.028982
H270	H	-0.233093	-0.770152	-0.778982
H271	H	0.016907	-0.520152	-0.528982
H272	H	0.266907	-0.270152	-0.278982
N273	N	-0.775990	-0.991035	-0.449833
N274	N	-0.525990	-0.741035	-0.199833
N275	N	-0.275990	-0.491035	0.050167
N276	N	-0.025990	-0.241035	0.300167
N277	N	-0.810239	-1.026962	-0.491897
N278	N	-0.560239	-0.776962	-0.241897
N279	N	-0.310239	-0.526962	0.008103
N280	N	-0.060239	-0.276962	0.258103
H281	H	-0.782469	-1.055983	-0.525882
H282	H	-0.532469	-0.805983	-0.275882
H283	H	-0.282469	-0.555983	-0.025882
H284	H	-0.032469	-0.305983	0.224118
H285	H	-0.268895	-0.150041	-0.440147
H286	H	-0.018895	0.099959	-0.190147
H287	H	0.231105	0.349959	0.059853
H288	H	0.481105	0.599959	0.309853
H289	H	-0.439463	-0.982760	-0.785228
H290	H	-0.189463	-0.732760	-0.535228
H291	H	0.060537	-0.482760	-0.285228
H292	H	0.310537	-0.232760	-0.035228
H293	H	-0.268714	-0.836748	-0.785263
H294	H	-0.018714	-0.586748	-0.535263
H295	H	0.231286	-0.336748	-0.285263
H296	H	0.481286	-0.086748	-0.035263
H297	H	-0.439532	-0.550699	-0.269041
H298	H	-0.189532	-0.300699	-0.019041
H299	H	0.060468	-0.050699	0.230959
H300	H	0.310468	0.199301	0.480959
H301	H	-0.269001	-0.670143	-0.440123
H302	H	-0.019001	-0.420143	-0.190123
H303	H	0.230999	-0.170143	0.059877
H304	H	0.480999	0.079857	0.309877
H305	H	-0.923390	-0.982735	-0.440098
H306	H	-0.673390	-0.732735	-0.190098
H307	H	-0.423390	-0.482735	0.059902
H308	H	-0.173390	-0.232735	0.309902
H309	H	-0.923698	-0.836755	-0.269157
H310	H	-0.673698	-0.586755	-0.019157
H311	H	-0.423698	-0.336755	0.230843
H312	H	-0.173698	-0.086755	0.480843
H313	H	-0.784255	-0.836704	-0.269132
H314	H	-0.534255	-0.586704	-0.019132
H315	H	-0.284255	-0.336704	0.230868
H316	H	-0.034255	-0.086704	0.480868
H317	H	-0.439554	-0.669969	-0.269021
H318	H	-0.189554	-0.419969	-0.019021
H319	H	0.060446	-0.169969	0.230979
H320	H	0.310446	0.080031	0.480979
H321	H	-0.268923	-0.269306	-0.440147
H322	H	-0.018923	-0.019306	-0.190147
H323	H	0.231077	0.230694	0.059853
H324	H	0.481077	0.480694	0.309853
H325	H	-0.439463	-0.149861	-0.269068
H326	H	-0.189463	0.100139	-0.019068
H327	H	0.060537	0.350139	0.230932
H328	H	0.310537	0.600139	0.480932
H329	H	-0.439486	-0.269129	-0.269059
H330	H	-0.189486	-0.019129	-0.019059
H331	H	0.060514	0.230871	0.230941
H332	H	0.310514	0.480871	0.480941
