data_functionalizedCrystal
_audit_creation_method	'MofGen! by Chris Wilmer'
_symmetry_space_group_name_H-M	'P1'
_symmetry_Int_Tables_number	1
_symmetry_cell_setting	triclinic
loop_
_symmetry_equiv_pos_as_xyz
  x,y,z
_cell_length_a	10.540514
_cell_length_b	8.559649
_cell_length_c	9.016244
_cell_angle_alpha	89.998166
_cell_angle_beta	90.004068
_cell_angle_gamma	77.146912
loop_
_atom_site_label
_atom_site_type_symbol
_atom_site_fract_x
_atom_site_fract_y
_atom_site_fract_z
O1	O	1.662377	0.224728	0.123351
O2	O	1.290737	0.245963	0.123349
O3	O	1.509299	0.003113	0.123349
O4	O	1.443815	0.467577	0.123351
O5	O	1.509282	0.003128	-0.123332
O6	O	1.290720	0.245978	-0.123332
O7	O	1.662360	0.224743	-0.123330
Cu8	Cu	1.476539	0.235361	-0.145855
Cu9	Cu	1.476558	0.235344	0.145874
O10	O	1.443798	0.467592	-0.123329
C11	C	1.243591	0.244386	0.000008
C12	C	1.103137	0.239647	0.000008
C13	C	1.014248	0.413331	0.000012
C14	C	0.868144	0.408459	0.000579
C15	C	0.920698	0.145182	0.140609
C16	C	1.066599	0.151284	0.140719
C17	C	1.067251	0.148731	-0.139813
C18	C	0.920448	0.147055	-0.141653
C19	C	1.514253	-0.056353	0.000011
C20	C	1.529024	-0.233566	0.000019
C21	C	1.709506	0.226319	0.000014
C22	C	1.849960	0.231058	0.000024
C23	C	1.438844	0.527059	0.000011
C24	C	1.424072	0.704272	0.000013
N25	N	1.476534	0.235373	-0.351041
C26	C	1.359575	0.365261	-0.414011
C27	C	1.359261	0.364888	-0.585902
C28	C	1.464473	0.068263	-0.586517
C29	C	1.463627	0.069053	-0.414573
C30	C	1.606064	0.271037	-0.414377
C31	C	1.604827	0.274780	-0.586333
N32	N	1.476574	0.235320	0.351060
H33	H	1.127962	0.023702	0.146721
N34	N	1.717527	0.163993	-0.640164
N35	N	1.739269	0.151432	-0.776421
H36	H	1.818862	0.073174	-0.814439
H37	H	0.872876	0.209814	-0.245659
N38	N	1.297160	-0.192450	0.000039
N39	N	1.198486	-0.250809	0.000043
H40	H	1.108850	-0.177862	0.000065
H41	H	0.912026	0.014885	0.145439
H42	H	1.369675	0.037953	-0.374495
H43	H	0.871936	0.204035	0.245632
H44	H	1.037213	0.482750	0.100679
N45	N	1.715011	0.152237	-0.363308
N46	N	1.723399	0.007938	-0.394204
H47	H	1.800335	-0.075971	-0.358133
H48	H	1.630186	-0.315929	0.000008
N49	N	0.805688	0.493207	-0.125780
N50	N	0.751565	0.422221	-0.219472
H51	H	0.707446	0.482095	-0.308704
H52	H	1.363990	0.488998	-0.628110
N53	N	1.365096	0.521486	-0.362155
N54	N	1.455289	0.538927	-0.278177
H55	H	1.459191	0.649264	-0.241544
H56	H	1.614385	0.397699	-0.627110
N57	N	1.567382	-0.056169	-0.362323
N58	N	1.640183	-0.143869	-0.452851
H59	H	1.713399	-0.232384	-0.415957
H60	H	1.263629	0.342567	-0.370832
H61	H	1.035404	0.483794	-0.100788
H62	H	1.262806	0.341861	-0.627065
N63	N	0.806967	0.492867	0.127724
N64	N	0.872173	0.555550	0.216325
H65	H	0.828966	0.615181	0.306119
H66	H	1.088264	0.213994	0.246211
N67	N	1.099141	0.221296	-0.273523
N68	N	1.047637	0.364506	-0.300953
H69	H	1.070156	0.415773	-0.395378
H70	H	0.909801	0.017748	-0.150561
N71	N	1.569371	-0.056074	-0.637736
N72	N	1.575980	-0.197943	-0.599217
H73	H	1.650063	-0.285758	-0.635394
N74	N	1.348106	0.028356	-0.640576
N75	N	1.273916	0.122669	-0.725057
H76	H	1.191726	0.094495	-0.763235
N77	N	1.625814	0.420769	-0.360000
N78	N	1.543622	0.547266	-0.386453
H79	H	1.557555	0.653022	-0.348049
H80	H	1.127920	0.020621	-0.141170
