data_functionalizedCrystal
_audit_creation_method	'MofGen! by Chris Wilmer'
_symmetry_space_group_name_H-M	'P1'
_symmetry_Int_Tables_number	1
_symmetry_cell_setting	triclinic
loop_
_symmetry_equiv_pos_as_xyz
  x,y,z
_cell_length_a	15.625711
_cell_length_b	9.730223
_cell_length_c	10.654550
_cell_angle_alpha	90.001631
_cell_angle_beta	95.640331
_cell_angle_gamma	108.066201
loop_
_atom_site_label
_atom_site_type_symbol
_atom_site_fract_x
_atom_site_fract_y
_atom_site_fract_z
O1	O	-1.197087	-0.482020	0.164124
O2	O	-0.934766	-0.351348	0.183619
O3	O	-1.071958	-0.419693	-0.008929
O4	O	-1.059895	-0.413674	0.356673
O5	O	-1.071946	-0.648267	-0.008928
O6	O	-0.934754	-0.579921	0.183620
O7	O	-1.197075	-0.710594	0.164125
Zn8	Zn	-1.065912	-0.681549	0.173873
Zn9	Zn	-1.065929	-0.380393	0.173872
O10	O	-1.059883	-0.642248	0.356674
C11	C	-0.901171	-0.448902	0.182730
C12	C	-0.801086	-0.399046	0.180064
N13	N	-1.065908	-0.887083	0.173873
C14	C	-0.471793	-0.857884	0.171368
C15	C	-0.377746	-0.810972	0.168888
C16	C	-0.377806	-0.561814	0.168888
C17	C	-0.471854	-0.608704	0.171374
C18	C	-0.518841	-0.756742	0.172613
C19	C	-0.518902	-0.507562	0.172619
C20	C	-0.612943	-0.554450	0.175099
C21	C	-0.659936	-0.702481	0.176334
C22	C	-0.612881	-0.803630	0.175093
C23	C	-0.471915	-0.359526	0.171371
C24	C	-0.518963	-0.258383	0.172616
C25	C	-0.613004	-0.305270	0.175105
C26	C	-0.659997	-0.453301	0.176340
C27	C	-0.660059	-0.204121	0.176346
C28	C	-0.754100	-0.251009	0.178826
C29	C	-0.754038	-0.500189	0.178820
C30	C	-1.005151	-0.928777	0.259096
C31	C	-1.005169	-1.072669	0.259094
C32	C	-1.126703	-1.133162	0.088634
C33	C	-1.126689	-0.989274	0.088644
C34	C	-0.944370	-0.826585	0.344326
C35	C	-0.883608	-0.868276	0.429555
C36	C	-0.883626	-1.012168	0.429552
C37	C	-0.944406	-1.114369	0.344321
C38	C	-0.230671	-0.613057	0.165005
C39	C	-0.330758	-0.662966	0.167644
C40	C	-1.071066	-0.533537	-0.055718
C41	C	-1.068416	-0.532213	-0.195134
N42	N	-1.065940	-0.174862	0.173861
C43	C	-1.149192	-0.572455	-0.275447
C44	C	-1.146697	-0.571202	-0.406443
C45	C	-0.982642	-0.489468	-0.376798
C46	C	-0.985138	-0.490711	-0.245805
C47	C	-1.232470	-0.613956	-0.224776
C48	C	-1.313253	-0.654203	-0.305091
C49	C	-1.310758	-0.652951	-0.436087
C50	C	-1.227480	-0.611451	-0.486767
C51	C	-1.060775	-0.528401	0.403462
C52	C	-1.063425	-0.529717	0.542878
H53	H	-0.792296	-0.620734	0.179847
H54	H	-1.176187	-1.216381	0.019241
F55	F	-1.224828	-0.610166	-0.626186
H56	H	-0.395340	-0.321354	0.169359
H57	H	-0.919363	-0.457944	-0.180411
F58	F	-1.401878	-0.698352	-0.251152
F59	F	-1.191356	-0.944902	-0.002058
F60	F	-0.662892	-0.961188	0.176425
F61	F	-0.760025	-0.752384	0.178963
H62	H	-0.510050	-0.978430	0.172396
F63	F	-0.327679	-0.918636	0.167545
F64	F	-0.327793	-0.404268	0.167535
H65	H	-0.914841	-0.455683	-0.418072
H66	H	-0.480694	-0.137851	0.171602
F67	F	-0.610045	-0.046576	0.174985
H68	H	-1.234511	-0.614985	-0.118115
F69	F	-0.944428	-1.267515	0.344335
H70	H	-0.792406	-0.168648	0.179845
H71	H	-0.944348	-0.709418	0.344333
F72	F	-0.818932	-0.759512	0.520268
H73	H	-1.376535	-0.685708	-0.501476
F74	F	-0.818967	-1.056541	0.520267
