data_functionalizedCrystal
_audit_creation_method	'MofGen! by Chris Wilmer'
_symmetry_space_group_name_H-M	'P1'
_symmetry_Int_Tables_number	1
_symmetry_cell_setting	triclinic
loop_
_symmetry_equiv_pos_as_xyz
  x,y,z
_cell_length_a	21.295417
_cell_length_b	18.050591
_cell_length_c	18.050582
_cell_angle_alpha	89.976005
_cell_angle_beta	90.026755
_cell_angle_gamma	89.976412
loop_
_atom_site_label
_atom_site_type_symbol
_atom_site_fract_x
_atom_site_fract_y
_atom_site_fract_z
Zn1	Zn	-0.250765	-1.135281	0.420071
Zn2	Zn	-0.356027	-1.135186	0.295872
Zn3	Zn	-0.250762	-1.011100	0.295875
Zn4	Zn	-0.355988	-1.011043	0.420000
O5	O	-0.303386	-1.073153	0.357954
O6	O	-0.264746	-1.239193	0.403623
O7	O	-0.342078	-1.118710	0.191947
O8	O	-0.162673	-1.027636	0.312381
O9	O	-0.342081	-1.239124	0.312375
O10	O	-0.162676	-1.118871	0.403627
O11	O	-0.264741	-1.027545	0.191950
O12	O	-0.264703	-0.907168	0.312313
O13	O	-0.342015	-1.027539	0.523934
O14	O	-0.342012	-0.907126	0.403507
O15	O	-0.264708	-1.118816	0.523986
O16	O	-0.444111	-1.118655	0.312307
O17	O	-0.444082	-1.027448	0.403504
C18	C	-0.303354	-0.880200	0.357903
C19	C	-0.303355	-0.797655	0.357899
C20	C	-0.466937	-1.073055	0.357913
C21	C	-0.536905	-1.073081	0.357921
C22	C	-0.261258	-0.598205	0.308411
C23	C	-0.318670	-0.548783	0.290127
C24	C	-0.303368	-0.646524	0.357924
C25	C	-0.245969	-0.548865	0.376198
C26	C	-0.303375	-0.500539	0.357947
C27	C	-0.360811	-0.598189	0.339605
C28	C	-0.288071	-0.598276	0.425708
C29	C	-0.345523	-0.548875	0.407450
C30	C	-0.303363	-0.730623	0.357909
C31	C	-0.303386	-0.416443	0.357963
C32	C	-0.569766	-1.120615	0.310483
C33	C	-0.635508	-1.120650	0.310500
C34	C	-0.668388	-1.073138	0.357946
C35	C	-0.635519	-1.025600	0.405393
C36	C	-0.569778	-1.025572	0.405380
N37	N	-0.771647	-1.008171	0.363590
N38	N	-0.834099	-1.008200	0.363598
C39	C	-0.866462	-1.073221	0.357989
N40	N	-0.834015	-1.138214	0.352357
N41	N	-0.771558	-1.138184	0.352345
C42	C	-0.739673	-1.073163	0.357966
C43	C	-0.970609	-1.120797	0.310567
C44	C	-1.036352	-1.120833	0.310589
C45	C	-1.036362	-1.025776	0.405478
C46	C	-0.970620	-1.025747	0.405460
C47	C	-0.937747	-1.073256	0.358000
C48	C	-0.139195	-1.073270	0.358012
C49	C	-0.069227	-1.073321	0.358037
C50	C	-0.303358	-1.073182	0.551660
C51	C	-0.303346	-1.073194	0.634206
C52	C	-0.303407	-0.266858	0.357993
C53	C	-0.303388	-0.349404	0.357975
C54	C	-0.303368	-1.073166	0.165002
C55	C	-0.303203	-1.073298	0.082457
C56	C	-0.345328	-1.023596	0.833629
C57	C	-0.360722	-1.091350	0.883029
C58	C	-0.303298	-1.073231	0.785336
C59	C	-0.287886	-1.005513	0.883017
C60	C	-0.303252	-1.073260	0.931322
C61	C	-0.318722	-1.141021	0.833650
C62	C	-0.245859	-1.055138	0.833634
C63	C	-0.261232	-1.122940	0.883012
C64	C	-0.303325	-1.073213	0.701238
C65	C	-0.303225	-1.073286	1.015418
H66	H	-0.331616	-0.527044	0.232814
N67	N	-0.336102	-1.216897	0.805052
H68	H	-0.343929	-1.251275	0.848230
H69	H	-0.300626	-1.236990	0.773841
H70	H	-0.275107	-0.620032	0.483004
N71	N	-0.181670	-0.520158	0.396663
H72	H	-0.149896	-0.538102	0.359215
H73	H	-0.169840	-0.538940	0.447503
N74	N	-0.670983	-0.974353	0.456562
H75	H	-0.659581	-0.921294	0.444968
H76	H	-0.659496	-0.985910	0.509615
H77	H	-0.225669	-1.164975	0.904558
H78	H	-0.543022	-0.986864	0.444010
H79	H	-0.543003	-1.159302	0.271840
N80	N	-0.270634	-0.929640	0.911732
H81	H	-0.231136	-0.933210	0.942524
H82	H	-0.306026	-0.909850	0.943267
N83	N	-0.392750	-0.520352	0.462921
H84	H	-0.370523	-0.489573	0.501588
H85	H	-0.414345	-0.563599	0.487632
N86	N	-0.935170	-0.974471	0.456616
H87	H	-0.946573	-0.985971	0.509694
H88	H	-0.946666	-0.921442	0.444961
H89	H	-1.063132	-0.987094	0.444113
H90	H	-1.063106	-1.159545	0.271961
N91	N	-0.935154	-1.172048	0.259388
H92	H	-0.907837	-1.206429	0.289601
H93	H	-0.907954	-1.141829	0.224939
H94	H	-0.380917	-0.981660	0.811946
H95	H	-0.225687	-0.619865	0.266497
H96	H	-0.197318	-1.039798	0.811920
N97	N	-0.425035	-1.111651	0.911772
H98	H	-0.456773	-1.074119	0.893812
H99	H	-0.424381	-1.111997	0.967717
H100	H	-0.409370	-0.619765	0.324095
N101	N	-0.670962	-1.171922	0.259334
H102	H	-0.640161	-1.202015	0.229268
H103	H	-0.698275	-1.141720	0.224943
