data_functionalizedCrystal
_audit_creation_method	'MofGen! by Chris Wilmer'
_symmetry_space_group_name_H-M	'P1'
_symmetry_Int_Tables_number	1
_symmetry_cell_setting	triclinic
loop_
_symmetry_equiv_pos_as_xyz
  x,y,z
_cell_length_a	12.759401
_cell_length_b	12.594516
_cell_length_c	12.759393
_cell_angle_alpha	90.029993
_cell_angle_beta	90.019125
_cell_angle_gamma	90.017816
loop_
_atom_site_label
_atom_site_type_symbol
_atom_site_fract_x
_atom_site_fract_y
_atom_site_fract_z
Zn1	Zn	1.606230	-0.423689	0.594010
Zn2	Zn	1.606114	-0.601709	0.418335
Zn3	Zn	1.430532	-0.423744	0.418348
Zn4	Zn	1.430510	-0.601625	0.593975
O5	O	1.518346	-0.512692	0.506167
O6	O	1.753236	-0.447316	0.570716
O7	O	1.582783	-0.578159	0.271316
O8	O	1.453897	-0.274791	0.441670
O9	O	1.753150	-0.578106	0.441649
O10	O	1.582981	-0.274751	0.570729
O11	O	1.453784	-0.447409	0.271325
O12	O	1.283508	-0.447328	0.441636
O13	O	1.453859	-0.577964	0.741001
O14	O	1.283492	-0.578017	0.570668
O15	O	1.582960	-0.447235	0.741027
O16	O	1.582762	-0.750644	0.441614
O17	O	1.453746	-0.750582	0.570656
C18	C	1.245379	-0.512670	0.506150
C19	C	1.128602	-0.512686	0.506167
C20	C	1.518267	-0.789233	0.506153
C21	C	1.518330	-0.907538	0.506182
C22	C	0.963993	-0.444570	0.439109
C23	C	1.073717	-0.444547	0.439099
C24	C	1.073758	-0.580844	0.573259
C25	C	0.964036	-0.580860	0.573274
C26	C	0.909114	-0.376434	0.372028
C27	C	0.963951	-0.308275	0.304938
C28	C	1.073675	-0.308252	0.304928
C29	C	1.128562	-0.376390	0.372007
C30	C	1.448216	-1.047560	0.576332
C31	C	1.543997	-0.976648	0.602104
C32	C	1.422558	-0.976879	0.480456
C33	C	1.614333	-1.047412	0.532043
C34	C	1.492830	-1.047648	0.410350
C35	C	1.588677	-0.976768	0.436086
C36	C	1.792380	-0.512715	0.506185
C37	C	1.909156	-0.512725	0.506193
C38	C	1.518420	-0.512584	0.780201
C39	C	1.518451	-0.512539	0.896977
C40	C	1.518454	-0.235071	0.506205
C41	C	1.518500	-0.116765	0.506221
C42	C	1.518334	-0.512722	0.233200
C43	C	1.518506	-0.512468	0.116424
C44	C	1.585683	-0.444462	0.951855
C45	C	1.585708	-0.444423	1.061579
C46	C	1.451266	-0.580548	1.061539
C47	C	1.451237	-0.580580	0.951817
C48	C	1.652898	-0.376420	0.897016
C49	C	1.720136	-0.308339	0.951893
C50	C	1.720161	-0.308300	1.061617
C51	C	1.652948	-0.376343	1.116464
H52	H	0.819771	-0.376447	0.372027
H53	H	1.774902	-0.252857	1.106295
H54	H	1.396474	-0.635998	0.907134
H55	H	1.471156	-1.078856	0.329315
H56	H	1.652961	-0.376294	1.205809
H57	H	0.919254	-0.252794	0.250331
H58	H	1.118320	-0.252746	0.250308
H59	H	1.341493	-0.945890	0.458682
H60	H	1.774852	-0.252934	0.907230
H61	H	1.396544	-0.635945	1.106204
H62	H	1.217907	-0.376356	0.372004
H63	H	1.118456	-0.636318	0.627871
H64	H	0.919387	-0.636354	0.627902
H65	H	1.388924	-1.078640	0.635684
H66	H	1.565643	-0.945465	0.683163
H67	H	1.695422	-1.078268	0.553911
H68	H	1.648111	-0.945882	0.376778
H69	H	1.652887	-0.376446	0.807673
