data_functionalizedCrystal
_audit_creation_method	'MofGen! by Chris Wilmer'
_symmetry_space_group_name_H-M	'P1'
_symmetry_Int_Tables_number	1
_symmetry_cell_setting	triclinic
loop_
_symmetry_equiv_pos_as_xyz
  x,y,z
_cell_length_a	16.120490
_cell_length_b	16.120444
_cell_length_c	16.120256
_cell_angle_alpha	95.616860
_cell_angle_beta	90.129807
_cell_angle_gamma	90.165174
loop_
_atom_site_label
_atom_site_type_symbol
_atom_site_fract_x
_atom_site_fract_y
_atom_site_fract_z
Zn1	Zn	1.224981	-0.422349	-0.554795
Zn2	Zn	1.474981	-0.172349	-0.304795
Zn3	Zn	1.724981	0.077651	-0.054795
Zn4	Zn	1.974981	0.327651	0.195205
Zn5	Zn	1.224874	-0.555030	-0.422101
Zn6	Zn	1.474874	-0.305030	-0.172101
Zn7	Zn	1.724874	-0.055030	0.077899
Zn8	Zn	1.974874	0.194970	0.327899
Zn9	Zn	1.093720	-0.408253	-0.408039
Zn10	Zn	1.343720	-0.158253	-0.158039
Zn11	Zn	1.593720	0.091747	0.091961
Zn12	Zn	1.843720	0.341747	0.341961
Zn13	Zn	1.078871	-0.554258	-0.554037
Zn14	Zn	1.328871	-0.304258	-0.304037
Zn15	Zn	1.578871	-0.054258	-0.054037
Zn16	Zn	1.828871	0.195742	0.195963
O17	O	1.155612	-0.484973	-0.484743
O18	O	1.405612	-0.234973	-0.234743
O19	O	1.655612	0.015027	0.015257
O20	O	1.905612	0.265027	0.265257
O21	O	1.341003	-0.446172	-0.543395
O22	O	1.591003	-0.196172	-0.293395
O23	O	1.841003	0.053828	-0.043395
O24	O	2.091003	0.303828	0.206605
O25	O	1.213646	-0.529983	-0.303602
O26	O	1.463646	-0.279983	-0.053602
O27	O	1.713646	-0.029983	0.196398
O28	O	1.963646	0.220017	0.446398
O29	O	1.117392	-0.293492	-0.421939
O30	O	1.367392	-0.043492	-0.171939
O31	O	1.617392	0.206508	0.078061
O32	O	1.867392	0.456508	0.328061
O33	O	1.340924	-0.543652	-0.445905
O34	O	1.590924	-0.293652	-0.195905
O35	O	1.840924	-0.043652	0.054095
O36	O	2.090924	0.206348	0.304095
O37	O	1.213828	-0.303849	-0.529760
O38	O	1.463828	-0.053849	-0.279760
O39	O	1.713828	0.196151	-0.029760
O40	O	1.963828	0.446151	0.220240
O41	O	1.117288	-0.422147	-0.293271
O42	O	1.367288	-0.172147	-0.043271
O43	O	1.617288	0.077853	0.206729
O44	O	1.867288	0.327853	0.456729
O45	O	0.975715	-0.421399	-0.421205
O46	O	1.225715	-0.171399	-0.171205
O47	O	1.475715	0.078601	0.078795
O48	O	1.725715	0.328601	0.328795
O49	O	1.092083	-0.542337	-0.670771
O50	O	1.342083	-0.292337	-0.420771
O51	O	1.592083	-0.042337	-0.170771
O52	O	1.842083	0.207663	0.079229
O53	O	0.964805	-0.528668	-0.528468
O54	O	1.214805	-0.278668	-0.278468
O55	O	1.464805	-0.028668	-0.028468
O56	O	1.714805	0.221332	0.221532
O57	O	1.199429	-0.445424	-0.671328
O58	O	1.449429	-0.195424	-0.421328
O59	O	1.699429	0.054576	-0.171328
O60	O	1.949429	0.304576	0.078672
O61	O	1.199247	-0.671558	-0.445170
O62	O	1.449247	-0.421558	-0.195170
O63	O	1.699247	-0.171558	0.054830
O64	O	1.949247	0.078442	0.304830
O65	O	1.091979	-0.670992	-0.542103
O66	O	1.341979	-0.420992	-0.292103
O67	O	1.591979	-0.170992	-0.042103
O68	O	1.841979	0.079008	0.207897
C69	C	0.940173	-0.473421	-0.473229
C70	C	1.190173	-0.223421	-0.223229
C71	C	1.440173	0.026579	0.026771
C72	C	1.690173	0.276579	0.276771
C73	C	0.848005	-0.468500	-0.468324
C74	C	1.098005	-0.218500	-0.218324
C75	C	1.348005	0.031500	0.031676
C76	C	1.598005	0.281500	0.281676
C77	C	0.632810	-0.510491	-0.510188
C78	C	0.882810	-0.260491	-0.260188
C79	C	1.132810	-0.010491	-0.010188
C80	C	1.382810	0.239509	0.239812
C81	C	0.679258	-0.459524	-0.459368
C82	C	0.929258	-0.209524	-0.209368
C83	C	1.179258	0.040476	0.040632
C84	C	1.429258	0.290476	0.290632
C85	C	0.773157	-0.464520	-0.464352
C86	C	1.023157	-0.214520	-0.214352
C87	C	1.273157	0.035480	0.035648
C88	C	1.523157	0.285480	0.285648
C89	C	0.538901	-0.505496	-0.505204
C90	C	0.788901	-0.255496	-0.255204
C91	C	1.038901	-0.005496	-0.005204
C92	C	1.288901	0.244504	0.244796
C93	C	1.144012	-0.701518	-0.495099
C94	C	1.394012	-0.451518	-0.245099
C95	C	1.644012	-0.201518	0.004901
C96	C	1.894012	0.048482	0.254901
C97	C	1.139124	-0.794163	-0.499562
C98	C	1.389124	-0.544163	-0.249562
C99	C	1.639124	-0.294163	0.000438
C100	C	1.889124	-0.044163	0.250438
C101	C	1.181162	-1.005322	-0.461784
C102	C	1.431162	-0.755322	-0.211784
C103	C	1.681162	-0.505322	0.038216
C104	C	1.931162	-0.255322	0.288216
C105	C	1.130214	-0.963781	-0.507719
C106	C	1.380214	-0.713781	-0.257719
C107	C	1.630214	-0.463781	-0.007719
C108	C	1.880214	-0.213781	0.242281
C109	C	1.135173	-0.869396	-0.503179
C110	C	1.385173	-0.619396	-0.253179
C111	C	1.635173	-0.369396	-0.003179
C112	C	1.885173	-0.119396	0.246821
C113	C	1.176204	-1.099715	-0.466323
C114	C	1.426204	-0.849715	-0.216323
C115	C	1.676204	-0.599715	0.033677
C116	C	1.926204	-0.349715	0.283677
C117	C	1.371892	-0.496570	-0.496303
C118	C	1.621892	-0.246570	-0.246303
C119	C	1.871892	0.003430	0.003697
C120	C	2.121892	0.253430	0.253697
C121	C	1.464057	-0.501512	-0.501229
C122	C	1.714057	-0.251512	-0.251229
C123	C	1.964057	-0.001512	-0.001229
C124	C	2.214057	0.248488	0.248771
C125	C	1.144111	-0.495366	-0.702137
C126	C	1.394111	-0.245366	-0.452137
C127	C	1.644111	0.004634	-0.202137
C128	C	1.894111	0.254634	0.047863
C129	C	1.139211	-0.499796	-0.794777
C130	C	1.389211	-0.249796	-0.544777
C131	C	1.639211	0.000204	-0.294777
C132	C	1.889211	0.250204	-0.044777
C133	C	1.167278	-0.267584	-0.474366
C134	C	1.417278	-0.017584	-0.224366
C135	C	1.667278	0.232416	0.025634
C136	C	1.917278	0.482416	0.275634
C137	C	1.172250	-0.174946	-0.469944
C138	C	1.422250	0.075054	-0.219944
C139	C	1.672250	0.325054	0.030056
C140	C	1.922250	0.575054	0.280056
C141	C	1.181168	-0.461853	-1.005940
C142	C	1.431168	-0.211853	-0.755940
C143	C	1.681168	0.038147	-0.505940
C144	C	1.931168	0.288147	-0.255940
C145	C	1.130237	-0.507846	-0.964384
C146	C	1.380237	-0.257846	-0.714384
C147	C	1.630237	-0.007846	-0.464384
C148	C	1.880237	0.242154	-0.214384
C149	C	1.135232	-0.503366	-0.870006
C150	C	1.385232	-0.253366	-0.620006
C151	C	1.635232	-0.003366	-0.370006
C152	C	1.885232	0.246634	-0.120006
C153	C	1.176175	-0.466333	-1.100327
C154	C	1.426175	-0.216333	-0.850327
C155	C	1.676175	0.033667	-0.600327
C156	C	1.926175	0.283667	-0.350327
C157	C	1.167118	-0.474562	-0.268195
C158	C	1.417118	-0.224562	-0.018195
C159	C	1.667118	0.025438	0.231805
C160	C	1.917118	0.275438	0.481805
C161	C	1.172192	-0.469906	-0.175552
C162	C	1.422192	-0.219906	0.074448
C163	C	1.672192	0.030094	0.324448
C164	C	1.922192	0.280094	0.574448
H165	H	0.663563	-0.557875	-0.557436
H166	H	0.913563	-0.307875	-0.307436
H167	H	1.163563	-0.057875	-0.057436
H168	H	1.413563	0.192125	0.192564
N169	N	0.640696	-0.400083	-0.400071
N170	N	0.890696	-0.150083	-0.150071
N171	N	1.140696	0.099917	0.099929
N172	N	1.390696	0.349917	0.349929
N173	N	0.684314	-0.352168	-0.352281
N174	N	0.934314	-0.102168	-0.102281
N175	N	1.184314	0.147832	0.147719
N176	N	1.434314	0.397832	0.397719
H177	H	0.657078	-0.310192	-0.310401
H178	H	0.907078	-0.060192	-0.060401
H179	H	1.157078	0.189808	0.189599
H180	H	1.407078	0.439808	0.439599
H181	H	1.228519	-0.419117	-0.970640
H182	H	1.478519	-0.169117	-0.720640
H183	H	1.728519	0.080883	-0.470640
H184	H	1.978519	0.330883	-0.220640
H185	H	1.082872	-0.999101	-0.550454
H186	H	1.332872	-0.749101	-0.300454
H187	H	1.582872	-0.499101	-0.050454
H188	H	1.832872	-0.249101	0.199546
N189	N	1.240548	-0.961008	-0.408183
N190	N	1.490548	-0.711008	-0.158183
N191	N	1.740548	-0.461008	0.091817
N192	N	1.990548	-0.211008	0.341817
N193	N	1.244539	-0.883287	-0.404530
N194	N	1.494539	-0.633287	-0.154530
N195	N	1.744539	-0.383287	0.095470
N196	N	1.994539	-0.133287	0.345470
H197	H	1.286479	-0.851980	-0.366675
H198	H	1.536479	-0.601980	-0.116675
H199	H	1.786479	-0.351980	0.133325
H200	H	2.036479	-0.101980	0.383325
N201	N	1.070834	-0.561460	-1.008676
N202	N	1.320834	-0.311460	-0.758676
N203	N	1.570834	-0.061460	-0.508676
N204	N	1.820834	0.188540	-0.258676
N205	N	1.066810	-0.565070	-1.086392
N206	N	1.316810	-0.315070	-0.836392
N207	N	1.566810	-0.065070	-0.586392
N208	N	1.816810	0.184930	-0.336392
H209	H	1.024859	-0.602934	-1.117677
H210	H	1.274859	-0.352934	-0.867677
H211	H	1.524859	-0.102934	-0.617677
H212	H	1.774859	0.147066	-0.367677
