data_functionalizedCrystal
_audit_creation_method	'MofGen! by Chris Wilmer'
_symmetry_space_group_name_H-M	'P1'
_symmetry_Int_Tables_number	1
_symmetry_cell_setting	triclinic
loop_
_symmetry_equiv_pos_as_xyz
  x,y,z
_cell_length_a	22.610064
_cell_length_b	27.732025
_cell_length_c	23.532407
_cell_angle_alpha	82.741073
_cell_angle_beta	89.997161
_cell_angle_gamma	90.018575
loop_
_atom_site_label
_atom_site_type_symbol
_atom_site_fract_x
_atom_site_fract_y
_atom_site_fract_z
O1	O	-0.049093	0.058673	0.755133
O2	O	0.200907	0.308673	1.005133
O3	O	0.450907	0.558673	1.255133
O4	O	0.700907	0.808673	1.505133
O5	O	-0.049107	0.067163	0.589250
O6	O	0.200893	0.317163	0.839250
O7	O	0.450893	0.567163	1.089250
O8	O	0.700893	0.817163	1.339250
O9	O	-0.049117	-0.007472	0.677350
O10	O	0.200883	0.242528	0.927350
O11	O	0.450883	0.492528	1.177350
O12	O	0.700883	0.742528	1.427350
O13	O	-0.049082	0.133307	0.667033
O14	O	0.200918	0.383307	0.917033
O15	O	0.450918	0.633307	1.167033
O16	O	0.700918	0.883307	1.417033
O17	O	0.049252	-0.007461	0.677335
O18	O	0.299252	0.242539	0.927335
O19	O	0.549252	0.492539	1.177335
O20	O	0.799252	0.742539	1.427335
O21	O	0.049262	0.067174	0.589235
O22	O	0.299262	0.317174	0.839235
O23	O	0.549262	0.567174	1.089235
O24	O	0.799262	0.817174	1.339235
O25	O	0.049277	0.058684	0.755117
O26	O	0.299277	0.308684	1.005117
O27	O	0.549277	0.558684	1.255117
O28	O	0.799277	0.808684	1.505117
Zn29	Zn	0.064887	0.062931	0.672173
Zn30	Zn	0.314887	0.312931	0.922173
Zn31	Zn	0.564887	0.562931	1.172173
Zn32	Zn	0.814887	0.812931	1.422173
Zn33	Zn	-0.064718	0.062916	0.672194
Zn34	Zn	0.185282	0.312916	0.922194
Zn35	Zn	0.435282	0.562916	1.172194
Zn36	Zn	0.685282	0.812916	1.422194
O37	O	0.049287	0.133318	0.667017
O38	O	0.299287	0.383318	0.917017
O39	O	0.549287	0.633318	1.167017
O40	O	0.799287	0.883318	1.417017
C41	C	0.000075	0.066952	0.568027
C42	C	0.250075	0.316952	0.818027
C43	C	0.500075	0.566952	1.068027
C44	C	0.750075	0.816952	1.318027
C45	C	0.000068	0.066302	0.504811
C46	C	0.250068	0.316302	0.754811
C47	C	0.500068	0.566302	1.004811
C48	C	0.750068	0.816302	1.254811
N49	N	0.153340	0.062940	0.672164
N50	N	0.403340	0.312940	0.922164
N51	N	0.653340	0.562940	1.172164
N52	N	0.903340	0.812940	1.422164
C53	C	0.000061	-0.025474	0.677128
C54	C	0.250061	0.224526	0.927128
C55	C	0.500061	0.474526	1.177128
C56	C	0.750061	0.724526	1.427128
C57	C	0.000044	-0.079130	0.676482
C58	C	0.250044	0.170870	0.926482
C59	C	0.500044	0.420870	1.176482
C60	C	0.750044	0.670870	1.426482
N61	N	-0.153171	0.062903	0.672208
N62	N	0.096829	0.312903	0.922208
N63	N	0.346829	0.562903	1.172208
N64	N	0.596829	0.812903	1.422208
C65	C	0.561977	0.029873	0.711206
C66	C	0.811977	0.279873	0.961206
C67	C	1.061977	0.529873	1.211206
C68	C	1.311977	0.779873	1.461206
C69	C	0.623897	0.029869	0.711209
C70	C	0.873897	0.279869	0.961209
C71	C	1.123897	0.529869	1.211209
C72	C	1.373897	0.779869	1.461209
O73	O	0.655912	0.001762	0.744380
O74	O	0.905912	0.251762	0.994380
O75	O	1.155912	0.501762	1.244380
O76	O	1.405912	0.751762	1.494380
N77	N	0.654877	0.062906	0.672194
N78	N	0.904877	0.312906	0.922194
N79	N	1.154877	0.562906	1.172194
N80	N	1.404877	0.812906	1.422194
C81	C	0.623934	0.095945	0.633169
C82	C	0.873934	0.345945	0.883169
C83	C	1.123934	0.595945	1.133169
C84	C	1.373934	0.845945	1.383169
O85	O	0.655971	0.124045	0.599983
O86	O	0.905971	0.374045	0.849983
O87	O	1.155971	0.624045	1.099983
O88	O	1.405971	0.874045	1.349983
C89	C	0.562015	0.095946	0.633163
C90	C	0.812015	0.345946	0.883163
C91	C	1.062015	0.595946	1.133163
C92	C	1.312015	0.845946	1.383163
C93	C	0.531038	0.062910	0.672185
C94	C	0.781038	0.312910	0.922185
C95	C	1.031038	0.562910	1.172185
C96	C	1.281038	0.812910	1.422185
C97	C	0.531000	-0.003160	0.750225
C98	C	0.781000	0.246840	1.000225
C99	C	1.031000	0.496840	1.250225
C100	C	1.281000	0.746840	1.500225
C101	C	0.469084	-0.003156	0.750222
C102	C	0.719084	0.246844	1.000222
C103	C	0.969084	0.496844	1.250222
C104	C	1.219084	0.746844	1.500222
C105	C	0.438146	0.029881	0.711201
C106	C	0.688146	0.279881	0.961201
C107	C	0.938146	0.529881	1.211201
C108	C	1.188146	0.779881	1.461201
C109	C	0.469123	0.062915	0.672183
C110	C	0.719123	0.312915	0.922183
C111	C	0.969123	0.562915	1.172183
C112	C	1.219123	0.812915	1.422183
C113	C	0.531074	0.128983	0.594136
C114	C	0.781074	0.378983	0.844136
C115	C	1.031074	0.628983	1.094136
C116	C	1.281074	0.878983	1.344136
C117	C	0.469151	0.128980	0.594134
C118	C	0.719151	0.378980	0.844134
C119	C	0.969151	0.628980	1.094134
C120	C	1.219151	0.878980	1.344134
C121	C	0.438174	0.095945	0.633156
C122	C	0.688174	0.345945	0.883156
C123	C	0.938174	0.595945	1.133156
C124	C	1.188174	0.845945	1.383156
C125	C	0.376269	0.095957	0.633160
C126	C	0.626269	0.345957	0.883160
C127	C	0.876269	0.595957	1.133160
C128	C	1.126269	0.845957	1.383160
N129	N	0.345288	0.062920	0.672176
N130	N	0.595288	0.312920	0.922176
N131	N	0.845288	0.562920	1.172176
N132	N	1.095288	0.812920	1.422176
C133	C	0.376227	0.029882	0.711196
C134	C	0.626227	0.279882	0.961196
C135	C	0.876227	0.529882	1.211196
C136	C	1.126227	0.779882	1.461196
C137	C	0.753968	0.095940	0.633182
C138	C	1.003968	0.345940	0.883182
C139	C	1.253968	0.595940	1.133182
C140	C	1.503968	0.845940	1.383182
C141	C	0.815886	0.095942	0.633189
C142	C	1.065886	0.345942	0.883189
C143	C	1.315886	0.595942	1.133189
C144	C	1.565886	0.845942	1.383189
C145	C	0.815844	0.029866	0.711229
C146	C	1.065844	0.279866	0.961229
C147	C	1.315844	0.529866	1.211229
C148	C	1.565844	0.779866	1.461229
C149	C	0.753925	0.029866	0.711224
C150	C	1.003925	0.279866	0.961224
C151	C	1.253925	0.529866	1.211224
C152	C	1.503925	0.779866	1.461224
C153	C	0.722988	0.062904	0.672197
C154	C	0.972988	0.312904	0.922197
C155	C	1.222988	0.562904	1.172197
C156	C	1.472988	0.812904	1.422197
C157	C	0.246199	0.029894	0.711189
C158	C	0.496199	0.279894	0.961189
C159	C	0.746199	0.529894	1.211189
C160	C	0.996199	0.779894	1.461189
C161	C	0.184278	0.029902	0.711184
C162	C	0.434278	0.279902	0.961184
C163	C	0.684278	0.529902	1.211184
C164	C	0.934278	0.779902	1.461184
C165	C	0.184326	0.095977	0.633143
C166	C	0.434326	0.345977	0.883143
C167	C	0.684326	0.595977	1.133143
C168	C	0.934326	0.845977	1.383143
C169	C	0.246241	0.095971	0.633149
C170	C	0.496241	0.345971	0.883149
C171	C	0.746241	0.595971	1.133149
C172	C	0.996241	0.845971	1.383149
C173	C	0.277177	0.062925	0.672174
C174	C	0.527177	0.312925	0.922174
C175	C	0.777177	0.562925	1.172174
C176	C	1.027177	0.812925	1.422174
O177	O	0.344214	0.124048	0.600004
O178	O	0.594214	0.374048	0.850004
O179	O	0.844214	0.624048	1.100004
O180	O	1.094214	0.874048	1.350004
O181	O	0.344182	0.001783	0.744372
O182	O	0.594182	0.251783	0.994372
O183	O	0.844182	0.501783	1.244372
O184	O	1.094182	0.751783	1.494372
C185	C	-0.053543	-0.462309	0.671899
C186	C	0.196457	-0.212309	0.921899
C187	C	0.446457	0.037691	1.171899
C188	C	0.696457	0.287691	1.421899
C189	C	-0.053562	-0.260646	0.674317
C190	C	0.196438	-0.010646	0.924317
C191	C	0.446438	0.239354	1.174317
C192	C	0.696438	0.489354	1.424317
O193	O	-0.099166	-0.234583	0.674660
O194	O	0.150834	0.015417	0.924660
O195	O	0.400834	0.265417	1.174660
O196	O	0.650834	0.515417	1.424660
N197	N	0.000057	-0.235418	0.674611
N198	N	0.250057	0.014582	0.924611
N199	N	0.500057	0.264582	1.174611
N200	N	0.750057	0.514582	1.424611
C201	C	0.053685	-0.260610	0.674304
C202	C	0.303685	-0.010610	0.924304
C203	C	0.553685	0.239390	1.174304
C204	C	0.803685	0.489390	1.424304
O205	O	0.099291	-0.234525	0.674615
O206	O	0.349291	0.015475	0.924615
O207	O	0.599291	0.265475	1.174615
O208	O	0.849291	0.515475	1.424615
C209	C	0.053703	-0.462272	0.671890
C210	C	0.303703	-0.212272	0.921890
C211	C	0.553703	0.037728	1.171890
C212	C	0.803703	0.287728	1.421890
C213	C	0.000080	-0.487497	0.671590
C214	C	0.250080	-0.237497	0.921590
C215	C	0.500080	0.012503	1.171590
C216	C	0.750080	0.262503	1.421590
C217	C	-0.107162	-0.487533	0.671600
C218	C	0.142838	-0.237533	0.921600
C219	C	0.392838	0.012467	1.171600
C220	C	0.642838	0.262467	1.421600
C221	C	-0.107157	-0.537946	0.670992
C222	C	0.142843	-0.287946	0.920992
C223	C	0.392843	-0.037946	1.170992
C224	C	0.642843	0.212054	1.420992
C225	C	-0.053533	-0.563133	0.670684
C226	C	0.196467	-0.313133	0.920684
C227	C	0.446467	-0.063133	1.170684
C228	C	0.696467	0.186867	1.420684
C229	C	0.000086	-0.537909	0.670983
C230	C	0.250086	-0.287909	0.920983
C231	C	0.500086	-0.037909	1.170983
C232	C	0.750086	0.212091	1.420983
C233	C	0.107331	-0.487464	0.671587
C234	C	0.357331	-0.237464	0.921587
C235	C	0.607331	0.012536	1.171587
C236	C	0.857331	0.262536	1.421587
C237	C	0.107331	-0.537883	0.670985
C238	C	0.357331	-0.287883	0.920985
C239	C	0.607331	-0.037883	1.170985
C240	C	0.857331	0.212117	1.420985
C241	C	0.053708	-0.563107	0.670685
C242	C	0.303708	-0.313107	0.920685
C243	C	0.553708	-0.063107	1.170685
C244	C	0.803708	0.186893	1.420685
C245	C	0.053715	-0.613509	0.670066
C246	C	0.303715	-0.363509	0.920066
C247	C	0.553715	-0.113509	1.170066
C248	C	0.803715	0.136491	1.420066
N249	N	0.000095	-0.638737	0.669772
N250	N	0.250095	-0.388737	0.919772
N251	N	0.500095	-0.138737	1.169772
N252	N	0.750095	0.111263	1.419772
C253	C	-0.053529	-0.613549	0.670081
C254	C	0.196471	-0.363549	0.920081
C255	C	0.446471	-0.113549	1.170081
C256	C	0.696471	0.136451	1.420081
C257	C	0.053672	-0.154734	0.675570
C258	C	0.303672	0.095266	0.925570
C259	C	0.553672	0.345266	1.175570
C260	C	0.803672	0.595266	1.425570
C261	C	0.053668	-0.104318	0.676173
C262	C	0.303668	0.145682	0.926173
C263	C	0.553668	0.395682	1.176173
C264	C	0.803668	0.645682	1.426173
C265	C	-0.053580	-0.104358	0.676187
C266	C	0.196420	0.145642	0.926187
C267	C	0.446420	0.395642	1.176187
C268	C	0.696420	0.645642	1.426187
C269	C	-0.053575	-0.154774	0.675580
C270	C	0.196425	0.095226	0.925580
C271	C	0.446425	0.345226	1.175580
C272	C	0.696425	0.595226	1.425580
C273	C	0.000052	-0.179961	0.675277
C274	C	0.250052	0.070039	0.925277
C275	C	0.500052	0.320039	1.175277
C276	C	0.750052	0.570039	1.425277
C277	C	-0.053513	-0.719419	0.668805
C278	C	0.196487	-0.469419	0.918805
C279	C	0.446487	-0.219419	1.168805
C280	C	0.696487	0.030581	1.418805
C281	C	-0.053503	-0.769835	0.668194
C282	C	0.196497	-0.519835	0.918194
C283	C	0.446497	-0.269835	1.168194
C284	C	0.696497	-0.019835	1.418194
C285	C	0.053744	-0.769792	0.668183
C286	C	0.303744	-0.519792	0.918183
C287	C	0.553744	-0.269792	1.168183
C288	C	0.803744	-0.019792	1.418183
C289	C	0.053734	-0.719379	0.668790
C290	C	0.303734	-0.469379	0.918790
C291	C	0.553734	-0.219379	1.168790
C292	C	0.803734	0.030621	1.418790
C293	C	0.000101	-0.694194	0.669103
C294	C	0.250101	-0.444194	0.919103
C295	C	0.500101	-0.194194	1.169103
C296	C	0.750101	0.055806	1.419103
O297	O	0.099295	-0.639604	0.669730
O298	O	0.349295	-0.389604	0.919730
O299	O	0.599295	-0.139604	1.169730
O300	O	0.849295	0.110396	1.419730
O301	O	-0.099128	-0.639643	0.669782
O302	O	0.150872	-0.389643	0.919782
O303	O	0.400872	-0.139643	1.169782
O304	O	0.650872	0.110357	1.419782
C305	C	-0.053549	-0.411896	0.672507
C306	C	0.196451	-0.161896	0.922507
C307	C	0.446451	0.088104	1.172507
C308	C	0.696451	0.338104	1.422507
C309	C	0.000070	-0.386672	0.672806
C310	C	0.250070	-0.136672	0.922806
C311	C	0.500070	0.113328	1.172806
C312	C	0.750070	0.363328	1.422806
C313	C	0.053694	-0.411860	0.672497
C314	C	0.303694	-0.161860	0.922497
C315	C	0.553694	0.088140	1.172497
C316	C	0.803694	0.338140	1.422497
C317	C	0.000066	-0.336256	0.673408
C318	C	0.250066	-0.086256	0.923408
C319	C	0.500066	0.163744	1.173408
C320	C	0.750066	0.413744	1.423408
C321	C	-0.053558	-0.311068	0.673717
C322	C	0.196442	-0.061068	0.923717
C323	C	0.446442	0.188932	1.173717
C324	C	0.696442	0.438932	1.423717
C325	C	-0.107178	-0.336296	0.673423
C326	C	0.142822	-0.086296	0.923423
C327	C	0.392822	0.163704	1.173423
C328	C	0.642822	0.413704	1.423423
C329	C	-0.107173	-0.386708	0.672815
C330	C	0.142827	-0.136708	0.922815
C331	C	0.392827	0.113292	1.172815
C332	C	0.642827	0.363292	1.422815
C333	C	0.107313	-0.386632	0.672791
C334	C	0.357313	-0.136632	0.922791
C335	C	0.607313	0.113368	1.172791
C336	C	0.857313	0.363368	1.422791
C337	C	0.107304	-0.336220	0.673398
C338	C	0.357304	-0.086220	0.923398
C339	C	0.607304	0.163780	1.173398
C340	C	0.857304	0.413780	1.423398
C341	C	0.053680	-0.311032	0.673706
C342	C	0.303680	-0.061032	0.923706
C343	C	0.553680	0.188968	1.173706
C344	C	0.803680	0.438968	1.423706
C345	C	0.000107	0.151320	0.667240
C346	C	0.250107	0.401320	0.917240
C347	C	0.500107	0.651320	1.167240
C348	C	0.750107	0.901320	1.417240
C349	C	0.000120	0.204977	0.667886
C350	C	0.250120	0.454977	0.917886
C351	C	0.500120	0.704977	1.167886
C352	C	0.750120	0.954977	1.417886
C353	C	0.000105	0.106392	0.105619
C354	C	0.250105	0.356392	0.355619
C355	C	0.500105	0.606392	0.605619
C356	C	0.750105	0.856392	0.855619
C357	C	0.000108	0.105789	0.046220
C358	C	0.250108	0.355789	0.296220
C359	C	0.500108	0.605789	0.546220
C360	C	0.750108	0.855789	0.796220
O361	O	0.000139	0.142953	0.009393
O362	O	0.250139	0.392953	0.259393
O363	O	0.500139	0.642953	0.509393
O364	O	0.750139	0.892953	0.759393
N365	N	0.000096	0.061418	0.023693
N366	N	0.250096	0.311418	0.273693
N367	N	0.500096	0.561418	0.523693
N368	N	0.750096	0.811418	0.773693
C369	C	0.000087	0.017649	0.060568
C370	C	0.250087	0.267649	0.310568
C371	C	0.500087	0.517649	0.560568
C372	C	0.750087	0.767649	0.810568
O373	O	0.000078	-0.020147	0.035953
O374	O	0.250078	0.229853	0.285953
O375	O	0.500078	0.479853	0.535953
O376	O	0.750078	0.729853	0.785953
C377	C	0.000088	0.018253	0.119966
C378	C	0.250088	0.268253	0.369966
C379	C	0.500088	0.518253	0.619966
C380	C	0.750088	0.768253	0.869966
C381	C	0.000094	0.062626	0.142489
C382	C	0.250094	0.312626	0.392489
C383	C	0.500094	0.562626	0.642489
C384	C	0.750094	0.812626	0.892489
C385	C	0.000112	0.150762	0.128143
C386	C	0.250112	0.400762	0.378143
C387	C	0.500112	0.650762	0.628143
C388	C	0.750112	0.900762	0.878143
C389	C	0.000107	0.151366	0.187538
C390	C	0.250107	0.401366	0.437538
C391	C	0.500107	0.651366	0.687538
C392	C	0.750107	0.901366	0.937538
C393	C	0.000096	0.107600	0.224408
C394	C	0.250096	0.357600	0.474408
C395	C	0.500096	0.607600	0.724408
C396	C	0.750096	0.857600	0.974408
C397	C	0.000089	0.063230	0.201884
C398	C	0.250089	0.313230	0.451884
C399	C	0.500089	0.563230	0.701884
C400	C	0.750089	0.813230	0.951884
C401	C	0.000083	-0.025516	0.156840
C402	C	0.250083	0.224484	0.406840
C403	C	0.500083	0.474484	0.656840
C404	C	0.750083	0.724484	0.906840
C405	C	0.000084	-0.024907	0.216241
C406	C	0.250084	0.225093	0.466241
C407	C	0.500084	0.475093	0.716241
C408	C	0.750084	0.725093	0.966241
C409	C	0.000090	0.019466	0.238765
C410	C	0.250090	0.269466	0.488765
C411	C	0.500090	0.519466	0.738765
C412	C	0.750090	0.769466	0.988765
C413	C	0.000073	0.020068	0.298150
C414	C	0.250073	0.270068	0.548150
C415	C	0.500073	0.520068	0.798150
C416	C	0.750073	0.770068	1.048150
N417	N	0.000085	0.064438	0.320677
N418	N	0.250085	0.314438	0.570677
N419	N	0.500085	0.564438	0.820677
N420	N	0.750085	0.814438	1.070677
C421	C	0.000097	0.108204	0.283806
C422	C	0.250097	0.358204	0.533806
C423	C	0.500097	0.608204	0.783806
C424	C	0.750097	0.858204	1.033806
C425	C	0.000086	0.016383	-0.064172
C426	C	0.250086	0.266383	0.185828
C427	C	0.500086	0.516383	0.435828
C428	C	0.750086	0.766383	0.685828
C429	C	0.000081	0.015778	-0.123568
C430	C	0.250081	0.265778	0.126432
C431	C	0.500081	0.515778	0.376432
C432	C	0.750081	0.765778	0.626432
C433	C	0.000104	0.103918	-0.137912
C434	C	0.250104	0.353918	0.112088
C435	C	0.500104	0.603918	0.362088
C436	C	0.750104	0.853918	0.612088
C437	C	0.000105	0.104522	-0.078515
C438	C	0.250105	0.354522	0.171485
C439	C	0.500105	0.604522	0.421485
C440	C	0.750105	0.854522	0.671485
C441	C	0.000098	0.060753	-0.041645
C442	C	0.250098	0.310753	0.208355
C443	C	0.500098	0.560753	0.458355
C444	C	0.750098	0.810753	0.708355
C445	C	0.000087	0.109468	0.408540
C446	C	0.250087	0.359468	0.658540
C447	C	0.500087	0.609468	0.908540
C448	C	0.750087	0.859468	1.158540
C449	C	0.000080	0.110068	0.467941
C450	C	0.250080	0.360068	0.717941
C451	C	0.500080	0.610068	0.967941
C452	C	0.750080	0.860068	1.217941
C453	C	0.000060	0.021929	0.482280
C454	C	0.250060	0.271929	0.732280
C455	C	0.500060	0.521929	0.982280
C456	C	0.750060	0.771929	1.232280
C457	C	0.000064	0.021329	0.422884
C458	C	0.250064	0.271329	0.672884
C459	C	0.500064	0.521329	0.922884
C460	C	0.750064	0.771329	1.172884
C461	C	0.000079	0.065102	0.386015
C462	C	0.250079	0.315102	0.636015
C463	C	0.500079	0.565102	0.886015
C464	C	0.750079	0.815102	1.136015
O465	O	0.000045	-0.017077	0.335012
O466	O	0.250045	0.232923	0.585012
O467	O	0.500045	0.482923	0.835012
O468	O	0.750045	0.732923	1.085012
O469	O	0.000114	0.145994	0.308430
O470	O	0.250114	0.395994	0.558430
O471	O	0.500114	0.645994	0.808430
O472	O	0.750114	0.895994	1.058430
C473	C	0.000093	0.058894	0.776340
C474	C	0.250093	0.308894	1.026340
C475	C	0.500093	0.558894	1.276340
C476	C	0.750093	0.808894	1.526340
C477	C	0.000096	0.059544	0.839556
C478	C	0.250096	0.309544	1.089556
C479	C	0.500096	0.559544	1.339556
C480	C	0.750096	0.809544	1.589556
H481	H	0.159059	0.003001	0.742963
H482	H	0.409059	0.253001	0.992963
H483	H	0.659059	0.503001	1.242963
H484	H	0.909059	0.753001	1.492963
H485	H	-0.097243	-0.083841	0.676435
H486	H	0.152757	0.166159	0.926435
H487	H	0.402757	0.416159	1.176435
H488	H	0.652757	0.666159	1.426435
N489	N	-0.111347	-0.797037	0.667898
N490	N	0.138653	-0.547037	0.917898
N491	N	0.388653	-0.297037	1.167898
N492	N	0.638653	-0.047037	1.417898
H493	H	-0.134808	-0.784185	0.632698
H494	H	0.115192	-0.534185	0.882698
H495	H	0.365192	-0.284185	1.132698
H496	H	0.615192	-0.034185	1.382698
H497	H	-0.134720	-0.792337	0.703357
H498	H	0.115280	-0.542337	0.953357
H499	H	0.365280	-0.292337	1.203357
H500	H	0.615280	-0.042337	1.453357
H501	H	0.097333	-0.083783	0.676406
H502	H	0.347333	0.166217	0.926406
H503	H	0.597333	0.416217	1.176406
H504	H	0.847333	0.666217	1.426406
N505	N	0.279560	-0.005744	0.753282
N506	N	0.529560	0.244256	1.003282
N507	N	0.779560	0.494256	1.253282
N508	N	1.029560	0.744256	1.503282
H509	H	0.250533	-0.026666	0.777999
H510	H	0.500533	0.223334	1.027999
H511	H	0.750533	0.473334	1.277999
H512	H	1.000533	0.723334	1.527999
H513	H	0.305254	0.012655	0.778294
H514	H	0.555254	0.262655	1.028294
H515	H	0.805254	0.512655	1.278294
H516	H	1.055254	0.762655	1.528294
H517	H	0.097398	-0.698838	0.669012
H518	H	0.347398	-0.448838	0.919012
H519	H	0.597398	-0.198838	1.169012
H520	H	0.847398	0.051162	1.419012
H521	H	0.159126	0.122877	0.601374
H522	H	0.409126	0.372877	0.851374
H523	H	0.659126	0.622877	1.101374
H524	H	0.909126	0.872877	1.351374
H525	H	0.150973	-0.315686	0.673636
H526	H	0.400973	-0.065686	0.923636
H527	H	0.650973	0.184314	1.173636
H528	H	0.900973	0.434314	1.423636
H529	H	-0.097240	-0.175308	0.675335
H530	H	0.152760	0.074692	0.925335
H531	H	0.402760	0.324692	1.175335
H532	H	0.652760	0.574692	1.425335
H533	H	0.443866	-0.030058	0.781996
H534	H	0.693866	0.219942	1.031996
H535	H	0.943866	0.469942	1.281996
H536	H	1.193866	0.719942	1.531996
H537	H	0.556184	-0.030066	0.782000
H538	H	0.806184	0.219934	1.032000
H539	H	1.056184	0.469934	1.282000
H540	H	1.306184	0.719934	1.532000
N541	N	0.279657	0.131608	0.591072
N542	N	0.529657	0.381608	0.841072
N543	N	0.779657	0.631608	1.091072
N544	N	1.029657	0.881608	1.341072
H545	H	0.250659	0.152540	0.566355
H546	H	0.500659	0.402540	0.816355
H547	H	0.750659	0.652540	1.066355
H548	H	1.000659	0.902540	1.316355
H549	H	0.305339	0.113211	0.566059
H550	H	0.555339	0.363211	0.816059
H551	H	0.805339	0.613211	1.066059
H552	H	1.055339	0.863211	1.316059
N553	N	0.849219	-0.005769	0.753317
N554	N	1.099219	0.244231	1.003317
N555	N	1.349219	0.494231	1.253317
N556	N	1.599219	0.744231	1.503317
H557	H	0.893144	-0.000755	0.747395
H558	H	1.143144	0.249245	0.997395
H559	H	1.393144	0.499245	1.247395
H560	H	1.643144	0.749245	1.497395
H561	H	0.838384	-0.040034	0.747045
H562	H	1.088384	0.209966	0.997045
H563	H	1.338384	0.459966	1.247045
H564	H	1.588384	0.709966	1.497045
H565	H	0.000067	-0.020355	-0.141901
H566	H	0.250067	0.229645	0.108099
H567	H	0.500067	0.479645	0.358099
H568	H	0.750067	0.729645	0.608099
N569	N	0.720516	-0.005764	0.753311
N570	N	0.970516	0.244236	1.003311
N571	N	1.220516	0.494236	1.253311
N572	N	1.470516	0.744236	1.503311
H573	H	0.749517	-0.026691	0.778030
H574	H	0.999517	0.223309	1.028030
H575	H	1.249517	0.473309	1.278030
H576	H	1.499517	0.723309	1.528030
H577	H	0.694821	-0.027043	0.731700
H578	H	0.944821	0.222957	0.981700
H579	H	1.194821	0.472957	1.231700
H580	H	1.444821	0.722957	1.481700
H581	H	0.097344	-0.175237	0.675323
H582	H	0.347344	0.074763	0.925323
H583	H	0.597344	0.324763	1.175323
H584	H	0.847344	0.574763	1.425323
H585	H	0.841103	0.122848	0.601420
H586	H	1.091103	0.372848	0.851420
H587	H	1.341103	0.622848	1.101420
H588	H	1.591103	0.872848	1.351420
H589	H	0.728782	0.122847	0.601403
H590	H	0.978782	0.372847	0.851403
H591	H	1.228782	0.622847	1.101403
H592	H	1.478782	0.872847	1.351403
H593	H	0.556287	0.155883	0.562361
H594	H	0.806287	0.405883	0.812361
H595	H	1.056287	0.655883	1.062361
H596	H	1.306287	0.905883	1.312361
N597	N	0.165168	-0.460266	0.671915
N598	N	0.415168	-0.210266	0.921915
N599	N	0.665168	0.039734	1.171915
N600	N	0.915168	0.289734	1.421915
H601	H	0.199133	-0.483880	0.671633
H602	H	0.449133	-0.233880	0.921633
H603	H	0.699133	0.016120	1.171633
H604	H	0.949133	0.266120	1.421633
H605	H	0.167500	-0.443438	0.707487
H606	H	0.417500	-0.193438	0.957487
H607	H	0.667500	0.056562	1.207487
H608	H	0.917500	0.306562	1.457487
N609	N	0.111579	-0.796965	0.667860
N610	N	0.361579	-0.546965	0.917860
N611	N	0.611579	-0.296965	1.167860
N612	N	0.861579	-0.046965	1.417860
H613	H	0.103441	-0.832730	0.667436
H614	H	0.353441	-0.582730	0.917436
H615	H	0.603441	-0.332730	1.167436
H616	H	0.853441	-0.082730	1.417436
H617	H	0.134985	-0.792230	0.703287
H618	H	0.384985	-0.542230	0.953287
H619	H	0.634985	-0.292230	1.203287
H620	H	0.884985	-0.042230	1.453287
H621	H	-0.097187	-0.698919	0.669060
H622	H	0.152813	-0.448919	0.919060
H623	H	0.402813	-0.198919	1.169060
H624	H	0.652813	0.051081	1.419060
N625	N	-0.164993	-0.565156	0.670738
N626	N	0.085007	-0.315156	0.920738
N627	N	0.335007	-0.065156	1.170738
N628	N	0.585007	0.184844	1.420738
H629	H	-0.198960	-0.541546	0.671049
H630	H	0.051040	-0.291546	0.921049
H631	H	0.301040	-0.041546	1.171049
H632	H	0.551040	0.208454	1.421049
H633	H	-0.167280	-0.590140	0.705829
H634	H	0.082720	-0.340140	0.955829
H635	H	0.332720	-0.090140	1.205829
H636	H	0.582720	0.159860	1.455829
N637	N	0.000080	0.157930	0.492234
N638	N	0.250080	0.407930	0.742234
N639	N	0.500080	0.657930	0.992234
N640	N	0.750080	0.907930	1.242234
H641	H	0.000089	0.185562	0.459860
H642	H	0.250089	0.435562	0.709860
H643	H	0.500089	0.685562	0.959860
H644	H	0.750089	0.935562	1.209860
H645	H	0.036544	0.160108	0.516567
H646	H	0.286544	0.410108	0.766567
H647	H	0.536544	0.660108	1.016567
H648	H	0.786544	0.910108	1.266567
N649	N	0.000114	0.199229	0.211820
N650	N	0.250114	0.449229	0.461820
N651	N	0.500114	0.699229	0.711820
N652	N	0.750114	0.949229	0.961820
H653	H	0.036585	0.218391	0.198340
H654	H	0.286585	0.468391	0.448340
H655	H	0.536585	0.718391	0.698340
H656	H	0.786585	0.968391	0.948340
H657	H	0.000088	0.192941	0.255040
H658	H	0.250088	0.442941	0.505040
H659	H	0.500088	0.692941	0.755040
H660	H	0.750088	0.942941	1.005040
H661	H	0.000123	0.186404	0.098128
H662	H	0.250123	0.436404	0.348128
H663	H	0.500123	0.686404	0.598128
H664	H	0.750123	0.936404	0.848128
N665	N	0.000151	0.151132	-0.177672
N666	N	0.250151	0.401132	0.072328
N667	N	0.500151	0.651132	0.322328
N668	N	0.750151	0.901132	0.572328
H669	H	-0.036300	0.170515	-0.170480
H670	H	0.213700	0.420515	0.079520
H671	H	0.463700	0.670515	0.329520
H672	H	0.713700	0.920515	0.579520
H673	H	0.000184	0.143986	-0.218705
H674	H	0.250184	0.393986	0.031295
H675	H	0.500184	0.643986	0.281295
H676	H	0.750184	0.893986	0.531295
N677	N	0.165173	-0.565049	0.670660
N678	N	0.415173	-0.315049	0.920660
N679	N	0.665173	-0.065049	1.170660
N680	N	0.915173	0.184951	1.420660
H681	H	0.199138	-0.541417	0.670942
H682	H	0.449138	-0.291417	0.920942
H683	H	0.699138	-0.041417	1.170942
H684	H	0.949138	0.208583	1.420942
H685	H	0.167515	-0.581879	0.635090
H686	H	0.417515	-0.331879	0.885090
H687	H	0.667515	-0.081879	1.135090
H688	H	0.917515	0.168121	1.385090
N689	N	0.435783	0.164612	0.552038
N690	N	0.685783	0.414612	0.802038
N691	N	0.935783	0.664612	1.052038
N692	N	1.185783	0.914612	1.302038
H693	H	0.464806	0.185537	0.527321
H694	H	0.714806	0.435537	0.777321
H695	H	0.964806	0.685537	1.027321
H696	H	1.214806	0.935537	1.277321
H697	H	0.410100	0.185893	0.573643
H698	H	0.660100	0.435893	0.823643
H699	H	0.910100	0.685893	1.073643
H700	H	1.160100	0.935893	1.323643
H701	H	-0.150831	-0.467031	0.671853
H702	H	0.099169	-0.217031	0.921853
H703	H	0.349169	0.032969	1.171853
H704	H	0.599169	0.282969	1.421853
H705	H	0.000113	0.140655	-0.060180
H706	H	0.250113	0.390655	0.189820
H707	H	0.500113	0.640655	0.439820
H708	H	0.750113	0.890655	0.689820
N709	N	-0.165009	-0.413915	0.672530
N710	N	0.084991	-0.163915	0.922530
N711	N	0.334991	0.086085	1.172530
N712	N	0.584991	0.336085	1.422530
H713	H	-0.198975	-0.390304	0.672831
H714	H	0.051025	-0.140304	0.922831
H715	H	0.301025	0.109696	1.172831
H716	H	0.551025	0.359696	1.422831
H717	H	-0.167318	-0.438909	0.707611
H718	H	0.082682	-0.188909	0.957611
H719	H	0.332682	0.061091	1.207611
H720	H	0.582682	0.311091	1.457611
H721	H	0.000101	0.145113	0.378528
H722	H	0.250101	0.395113	0.628528
H723	H	0.500101	0.645113	0.878528
H724	H	0.750101	0.895113	1.128528
N725	N	-0.165016	-0.309119	0.673713
N726	N	0.084984	-0.059119	0.923713
N727	N	0.334984	0.190881	1.173713
N728	N	0.584984	0.440881	1.423713
H729	H	-0.156876	-0.273353	0.674130
H730	H	0.093124	-0.023353	0.924130
H731	H	0.343124	0.226647	1.174130
H732	H	0.593124	0.476647	1.424130
H733	H	-0.188459	-0.322009	0.708917
H734	H	0.061541	-0.072009	0.958917
H735	H	0.311541	0.177991	1.208917
H736	H	0.561541	0.427991	1.458917
N737	N	0.165153	-0.413795	0.672460
N738	N	0.415153	-0.163795	0.922460
N739	N	0.665153	0.086205	1.172460
N740	N	0.915153	0.336205	1.422460
H741	H	0.199116	-0.390160	0.672738
H742	H	0.449116	-0.140160	0.922738
H743	H	0.699116	0.109840	1.172738
H744	H	0.949116	0.359840	1.422738
H745	H	0.167493	-0.430623	0.636888
H746	H	0.417493	-0.180623	0.886888
H747	H	0.667493	0.069377	1.136888
H748	H	0.917493	0.319377	1.386888
H749	H	0.000078	-0.061649	0.138512
H750	H	0.250078	0.188351	0.388512
H751	H	0.500078	0.438351	0.638512
H752	H	0.750078	0.688351	0.888512
H753	H	0.000079	-0.060550	0.246258
H754	H	0.250079	0.189450	0.496258
H755	H	0.500079	0.439450	0.746258
H756	H	0.750079	0.689450	0.996258
H757	H	0.000076	-0.019261	-0.034155
H758	H	0.250076	0.230739	0.215845
H759	H	0.500076	0.480739	0.465845
H760	H	0.750076	0.730739	0.715845
H761	H	0.000050	-0.014804	0.404545
H762	H	0.250050	0.235196	0.654545
H763	H	0.500050	0.485196	0.904545
H764	H	0.750050	0.735196	1.154545
H765	H	0.000049	-0.013704	0.512310
H766	H	0.250049	0.236296	0.762310
H767	H	0.500049	0.486296	1.012310
H768	H	0.750049	0.736296	1.262310
