data_functionalizedCrystal
_audit_creation_method	'MofGen! by Chris Wilmer'
_symmetry_space_group_name_H-M	'P1'
_symmetry_Int_Tables_number	1
_symmetry_cell_setting	triclinic
loop_
_symmetry_equiv_pos_as_xyz
  x,y,z
_cell_length_a	14.628931
_cell_length_b	14.560438
_cell_length_c	14.560438
_cell_angle_alpha	60.005867
_cell_angle_beta	89.999443
_cell_angle_gamma	59.999463
loop_
_atom_site_label
_atom_site_type_symbol
_atom_site_fract_x
_atom_site_fract_y
_atom_site_fract_z
Zr1	Zr	0.880659	1.005190	-0.120377
O2	O	0.734707	1.196778	-0.266998
O3	O	0.925397	0.813605	-0.075450
O4	O	0.925405	1.005192	-0.267025
O5	O	0.734698	1.005188	0.075719
O6	O	1.075837	1.005192	-0.267025
O7	O	0.734698	1.005190	-0.075422
O8	O	1.075822	0.662477	0.075669
O9	O	0.734713	1.347903	-0.266975
O10	O	1.056749	0.892406	-0.056265
O11	O	0.944482	0.892405	0.056529
O12	O	0.944492	1.117974	-0.169026
O13	O	0.832226	1.117973	-0.056232
Zr14	Zr	1.120580	1.005187	0.120675
Zr15	Zr	1.120581	1.005190	-0.120377
Zr16	Zr	0.880659	1.005187	0.120675
Zr17	Zr	0.880669	1.246218	-0.120342
Zr18	Zr	1.120571	0.764159	0.120640
O19	O	1.075843	1.196772	0.075747
O20	O	1.075844	1.196777	-0.266997
O21	O	0.734705	1.196773	0.075747
O22	O	1.266533	0.813599	0.267295
O23	O	1.266535	0.813604	-0.075449
O24	O	0.925395	0.813600	0.267295
O25	O	1.266542	1.005189	-0.075421
O26	O	1.075835	1.005185	0.267323
O27	O	0.925403	1.005185	0.267323
O28	O	1.266542	1.005187	0.075719
O29	O	0.925418	1.347902	-0.266975
O30	O	1.075821	0.662475	0.267273
O31	O	1.266527	0.662474	0.267273
O32	O	1.266528	0.662477	0.075669
O33	O	0.734712	1.347901	-0.075372
O34	O	0.925418	1.347900	-0.075371
O35	O	1.056748	0.892403	0.169324
O36	O	1.169014	0.892404	0.056530
O37	O	1.056758	1.117972	-0.056232
O38	O	0.944491	1.117971	0.056563
C39	C	1.000608	0.703700	0.000105
C40	C	1.000604	0.601377	0.000090
C41	C	0.917737	0.636505	-0.083132
C42	C	0.917754	0.540316	-0.083076
C43	C	1.083512	0.373872	0.083434
C44	C	1.083497	0.470061	0.083372
C45	C	0.822035	0.732599	-0.179262
C46	C	0.822053	0.636410	-0.179206
C47	C	0.700514	1.005189	0.000148
C48	C	0.598661	1.005190	0.000148
C49	C	0.608939	0.893293	0.056086
C50	C	0.503669	0.893290	0.056087
C51	C	1.300726	1.005188	0.000149
C52	C	1.402579	1.005187	0.000149
C53	C	1.000621	1.005192	-0.301370
C54	C	1.000621	1.005194	-0.403703
C55	C	1.000632	1.306677	0.000193
C56	C	1.000636	1.409000	0.000208
C57	C	1.083497	1.005182	-0.547931
C58	C	1.083497	1.005192	-0.451784
C59	C	0.917734	1.005199	-0.451780
C60	C	0.917731	1.005199	-0.547930
C61	C	1.179202	1.005172	-0.547929
C62	C	1.179201	1.005182	-0.451782
C63	C	1.000619	1.005185	0.301668
C64	C	1.000619	1.005183	0.404000
C65	C	1.300714	0.703699	0.000105
C66	C	1.402563	0.601376	0.000090
C67	C	1.000607	0.703696	0.301624
C68	C	1.000603	0.601372	0.403941
C69	C	1.300713	0.703695	0.301624
C70	C	1.402561	0.601371	0.403942
C71	C	0.700527	1.306682	-0.301326
C72	C	0.598679	1.409006	-0.403644
C73	C	0.700526	1.306678	0.000193
C74	C	0.598677	1.409001	0.000207
C75	C	1.000633	1.306681	-0.301326
C76	C	1.000637	1.409005	-0.403644
C77	C	1.391813	0.553302	-0.058791
C78	C	1.487515	0.457166	-0.058808
C79	C	1.604713	0.457184	0.058945
C80	C	1.509012	0.553324	0.058956
C81	C	1.324151	0.553287	-0.126771
C82	C	1.419853	0.457151	-0.126789
C83	C	1.059204	0.553294	0.510888
C84	C	1.059191	0.457155	0.607022
C85	C	0.941974	0.457176	0.489250
C86	C	0.941981	0.553320	0.393118
C87	C	1.126882	0.553277	0.578884
C88	C	1.126869	0.457138	0.675019
C89	C	1.509012	0.553295	0.393137
C90	C	1.604706	0.457157	0.489279
C91	C	1.487485	0.457175	0.607029
C92	C	1.391793	0.553318	0.510887
C93	C	1.576689	0.553280	0.325155
C94	C	1.672383	0.457142	0.421298
H95	H	0.830273	0.795575	-0.261394
H96	H	0.393946	1.100991	-0.047748
F97	F	0.879587	0.406029	0.477742
F98	F	1.278501	0.604497	0.522394
F99	F	1.740292	0.339483	0.421282
H100	H	1.419845	0.367136	-0.088981
H101	H	1.272200	0.643292	-0.216788
H102	H	0.894250	0.592474	0.306040
F103	F	0.843902	0.636365	-0.279141
F104	F	1.077693	0.670921	0.578920
F105	F	0.829524	1.005217	-0.400614
H106	H	1.568003	0.517149	0.274234
F107	F	0.715233	0.650539	-0.168345
H108	H	0.695671	0.797495	0.103980
H109	H	1.273473	0.517154	-0.081914
H110	H	1.213522	0.517146	0.570150
F111	F	0.514948	0.768069	0.118678
H112	H	1.428539	0.493286	-0.213838
H113	H	1.691393	0.418048	0.106871
H114	H	1.082225	0.493266	0.725947
F115	F	0.485298	1.130409	-0.062442
H116	H	1.216471	0.367122	0.727204
F117	F	1.171705	0.432667	0.171939
H118	H	0.850237	1.005217	-0.587075
H119	H	1.723069	0.493271	0.430025
F120	F	0.722553	0.810600	-0.157308
F121	F	1.476036	0.406027	0.720852
F122	F	1.576711	0.670925	0.256943
H123	H	1.170961	1.095564	-0.619212
H124	H	1.151000	0.266946	0.151240
H125	H	1.162488	1.098449	-0.468589
F126	F	1.278675	0.883265	-0.525974
F127	F	1.286028	0.887035	-0.358608
H128	H	1.517773	0.592474	0.106890
