data_functionalizedCrystal
_audit_creation_method	'MofGen! by Chris Wilmer'
_symmetry_space_group_name_H-M	'P1'
_symmetry_Int_Tables_number	1
_symmetry_cell_setting	triclinic
loop_
_symmetry_equiv_pos_as_xyz
  x,y,z
_cell_length_a	15.995292
_cell_length_b	17.038272
_cell_length_c	14.472310
_cell_angle_alpha	89.999298
_cell_angle_beta	89.985801
_cell_angle_gamma	87.290086
loop_
_atom_site_label
_atom_site_type_symbol
_atom_site_fract_x
_atom_site_fract_y
_atom_site_fract_z
O1	O	1.118190	0.100556	-0.076867
O2	O	0.875298	0.113048	-0.076864
O3	O	0.995300	-0.007013	-0.076858
O4	O	0.998187	0.220618	-0.076873
O5	O	0.995268	-0.007006	0.076824
O6	O	0.875265	0.113055	0.076818
O7	O	1.118157	0.100563	0.076815
Cu8	Cu	0.996708	0.106810	0.090849
Cu9	Cu	0.996747	0.106801	-0.090898
O10	O	0.998155	0.220625	0.076809
C11	C	0.844050	0.112543	-0.000022
C12	C	0.750988	0.111019	-0.000021
C13	C	0.412851	0.105415	-0.000031
C14	C	0.442336	0.192073	-0.000379
C15	C	0.539129	0.193720	-0.000029
C16	C	0.580605	0.108196	-0.000026
C17	C	0.548398	0.064875	0.087733
C18	C	0.451533	0.063832	0.087803
C19	C	0.451589	0.062055	-0.086962
C20	C	0.548310	0.065266	-0.088118
C21	C	0.675412	0.109763	-0.000021
C22	C	0.318043	0.103846	-0.000030
C23	C	0.992658	-0.036138	-0.000017
C24	C	0.984824	-0.122932	-0.000017
C25	C	1.056753	-0.173042	-0.000017
C26	C	1.049387	-0.254593	-0.000026
C27	C	0.970090	-0.286032	-0.000028
C28	C	0.898155	-0.235915	-0.000031
C29	C	0.905522	-0.154365	-0.000029
C30	C	0.944064	-0.531791	-0.000040
C31	C	0.936702	-0.613347	-0.000040
C32	C	1.087934	-0.632019	-0.000037
C33	C	1.095294	-0.550468	-0.000029
C34	C	1.023359	-0.500358	-0.000037
C35	C	0.962559	-0.369390	-0.000034
C36	C	1.030892	-0.417001	-0.000037
C37	C	1.149405	0.101068	-0.000029
C38	C	1.242467	0.102592	-0.000036
C39	C	1.000797	0.249749	-0.000034
C40	C	1.008632	0.336543	-0.000040
N41	N	0.996687	0.106815	0.218680
N42	N	0.996774	0.106790	-0.218729
C43	C	0.996745	0.106798	0.592771
C44	C	0.932289	0.170825	0.553602
C45	C	0.932464	0.171059	0.446514
C46	C	0.996716	0.106807	0.407180
C47	C	1.085351	0.124607	0.446014
C48	C	1.084995	0.125063	0.553136
C49	C	0.973333	0.024780	0.553306
C50	C	0.971369	0.025328	0.446179
C51	C	0.996705	0.106810	0.302292
C52	C	0.996763	0.106797	0.697659
H53	H	0.569141	0.096808	-0.153042
H54	H	1.104739	0.184877	0.578107
N55	N	0.951565	0.246750	0.587363
N56	N	0.951509	0.259903	0.672334
H57	H	0.965125	0.313524	0.696180
N58	N	1.161409	-0.683205	-0.000018
N59	N	1.174159	-0.730793	0.064764
H60	H	1.226054	-0.766943	0.064777
N61	N	0.408881	0.233752	0.078118
N62	N	0.331422	0.241923	0.088909
H63	H	0.307792	0.271357	0.144350
N64	N	0.582771	-0.014067	0.091828
N65	N	0.660287	-0.026861	0.095699
H66	H	0.684568	-0.082613	0.098587
N67	N	0.418605	0.096099	-0.170421
N68	N	0.442254	0.069214	-0.246932
H69	H	0.418960	0.093265	-0.305872
H70	H	0.559950	0.227857	0.062983
N71	N	0.951933	0.247427	0.414358
N72	N	0.965441	0.300717	0.471030
H73	H	0.979178	0.354660	0.448321
H74	H	0.576835	0.002842	-0.093416
H75	H	1.095455	-0.391400	-0.000056
H76	H	1.134767	0.080266	0.579044
N77	N	1.122850	-0.305794	-0.000026
N78	N	1.135628	-0.353384	-0.064806
H79	H	1.187514	-0.389547	-0.064806
H80	H	1.134703	0.079213	0.420533
H81	H	1.105416	0.183740	0.419173
H82	H	1.159866	-0.524877	-0.000027
N83	N	0.889544	0.008365	0.414334
N84	N	0.879232	-0.051749	0.366955
H85	H	0.821442	-0.063729	0.344461
H86	H	0.846949	-0.113565	-0.000029
H87	H	0.416733	0.225471	-0.063316
H88	H	1.014820	-0.024549	0.419407
H89	H	0.897995	-0.394996	-0.000034
N90	N	0.849959	0.158139	0.413588
N91	N	0.791846	0.148876	0.469724
H92	H	0.733539	0.139897	0.446475
N93	N	0.855691	-0.645449	-0.000024
N94	N	0.791471	-0.600701	-0.000020
H95	H	0.734259	-0.623372	-0.000002
N96	N	0.849626	0.157737	0.585958
N97	N	0.837250	0.101071	0.638267
H98	H	0.778867	0.091824	0.661123
N99	N	0.428355	-0.017969	-0.087678
N100	N	0.383469	-0.043049	-0.024512
H101	H	0.367063	-0.099565	-0.025005
N102	N	0.427608	-0.015875	0.092810
N103	N	0.482439	-0.070556	0.096248
H104	H	0.465546	-0.126848	0.099790
N105	N	0.893593	0.003328	0.587217
N106	N	0.829710	0.046141	0.570780
H107	H	0.773388	0.030999	0.594726
N108	N	1.032218	-0.034986	0.585087
N109	N	1.091193	-0.017362	0.636576
H110	H	1.132783	-0.059566	0.659027
H111	H	1.121325	-0.147452	-0.000010
N112	N	0.870578	-0.480624	-0.000041
N113	N	0.799784	-0.508707	-0.000036
H114	H	0.747881	-0.472568	-0.000034
N115	N	0.817161	-0.268039	-0.000044
N116	N	0.810593	-0.340851	-0.000046
H117	H	0.753389	-0.363539	-0.000054
H118	H	0.426840	0.093840	0.153403
N119	N	0.566038	0.236279	-0.078952
N120	N	0.513296	0.264972	-0.134677
H121	H	0.532295	0.295033	-0.190418
H122	H	0.570586	0.094965	0.153042
