data_functionalizedCrystal
_audit_creation_method	'MofGen! by Chris Wilmer'
_symmetry_space_group_name_H-M	'P1'
_symmetry_Int_Tables_number	1
_symmetry_cell_setting	triclinic
loop_
_symmetry_equiv_pos_as_xyz
  x,y,z
_cell_length_a	10.686285
_cell_length_b	17.077404
_cell_length_c	17.077396
_cell_angle_alpha	90.017244
_cell_angle_beta	85.607459
_cell_angle_gamma	94.368190
loop_
_atom_site_label
_atom_site_type_symbol
_atom_site_fract_x
_atom_site_fract_y
_atom_site_fract_z
Zn1	Zn	-0.502329	-1.224097	-0.419935
Zn2	Zn	-0.713352	-1.234117	-0.278626
Zn3	Zn	-0.502376	-1.092837	-0.288681
Zn4	Zn	-0.713274	-1.102901	-0.409853
O5	O	-0.607833	-1.163488	-0.349274
O6	O	-0.530335	-1.335274	-0.401201
O7	O	-0.685418	-1.215357	-0.170110
O8	O	-0.325795	-1.101844	-0.314519
O9	O	-0.685373	-1.342636	-0.297382
O10	O	-0.325760	-1.198280	-0.410951
O11	O	-0.530415	-1.111559	-0.177498
O12	O	-0.530340	-0.984324	-0.304743
O13	O	-0.685240	-1.118997	-0.521040
O14	O	-0.685286	-0.991718	-0.393768
O15	O	-0.530259	-1.208039	-0.528447
O16	O	-0.889918	-1.225116	-0.287606
O17	O	-0.889860	-1.128712	-0.384018
C18	C	-0.607810	-0.959539	-0.349253
C19	C	-0.607831	-0.872290	-0.349262
C20	C	-0.935673	-1.179115	-0.333644
C21	C	-1.075924	-1.185872	-0.326984
C22	C	-0.607735	-1.163523	-0.554023
C23	C	-0.607694	-1.163538	-0.641275
C24	C	-0.278713	-1.147822	-0.364982
C25	C	-0.138462	-1.141145	-0.371675
C26	C	-0.607857	-1.368234	-0.349295
C27	C	-0.607867	-1.455484	-0.349304
C28	C	-0.688633	-0.835177	-0.395530
C29	C	-0.688636	-0.753196	-0.395543
C30	C	-0.607842	-0.708331	-0.349282
C31	C	-0.527031	-0.745450	-0.303011
C32	C	-0.527023	-0.827429	-0.303003
C33	C	-0.527056	-0.574582	-0.303029
C34	C	-0.527065	-0.492597	-0.303035
C35	C	-0.688669	-0.500349	-0.395568
C36	C	-0.688660	-0.582328	-0.395561
C37	C	-0.607851	-0.619441	-0.349289
C38	C	-0.526974	-1.109505	-0.686111
C39	C	-0.526945	-1.109516	-0.768093
C40	C	-0.607631	-1.163565	-0.805237
C41	C	-0.688360	-1.217600	-0.760394
C42	C	-0.688394	-1.217585	-0.678414
C43	C	-0.688281	-1.217631	-0.931268
C44	C	-0.688245	-1.217647	-1.013255
C45	C	-0.526832	-1.109562	-1.020948
C46	C	-0.526866	-1.109546	-0.938967
C47	C	-0.607594	-1.163583	-0.894130
C48	C	-0.607839	-1.163494	-0.145326
C49	C	-0.607526	-1.163615	-0.058091
H50	H	-1.084708	-1.097684	-0.415034
H51	H	-0.461242	-0.708915	-0.265348
F52	F	-1.146189	-1.242676	-0.270298
F53	F	-0.774636	-0.713701	-0.444789
H54	H	-0.754429	-0.871701	-0.433199
F55	F	-0.774658	-0.630075	-0.444791
H56	H	-0.754463	-0.470127	-0.433247
H57	H	-0.754115	-1.261589	-0.641909
F58	F	-0.441080	-0.444850	-0.253795
H59	H	-0.461241	-0.604796	-0.265357
H60	H	-0.461219	-0.857645	-0.265331
H61	H	-0.754062	-1.261604	-0.790643
F62	F	-0.441089	-1.051981	-0.646588
F63	F	-0.441079	-1.051980	-0.815806
H64	H	-0.461159	-1.065539	-0.908727
H65	H	-0.461100	-1.065564	-1.057458
H66	H	-0.753947	-1.261659	-1.043495
F67	F	-0.774206	-1.275140	-0.883551
