data_functionalizedCrystal
_audit_creation_method	'MofGen! by Chris Wilmer'
_symmetry_space_group_name_H-M	'P1'
_symmetry_Int_Tables_number	1
_symmetry_cell_setting	triclinic
loop_
_symmetry_equiv_pos_as_xyz
  x,y,z
_cell_length_a	16.974885
_cell_length_b	15.944551
_cell_length_c	15.455313
_cell_angle_alpha	92.664316
_cell_angle_beta	90.969048
_cell_angle_gamma	83.445772
loop_
_atom_site_label
_atom_site_type_symbol
_atom_site_fract_x
_atom_site_fract_y
_atom_site_fract_z
O1	O	1.049071	0.107100	0.001441
O2	O	0.819641	0.119922	-0.014652
O3	O	0.940621	-0.008749	-0.006158
O4	O	0.928091	0.235771	-0.007053
O5	O	0.933703	-0.001422	0.137618
O6	O	0.812723	0.127249	0.129125
O7	O	1.042153	0.114427	0.145217
Cu8	Cu	0.926806	0.121507	0.150299
Cu9	Cu	0.934988	0.112842	-0.019733
O10	O	0.921173	0.243098	0.136724
C11	C	0.786823	0.122963	0.055177
C12	C	0.699342	0.121097	0.049042
C13	C	0.207328	0.110134	0.006032
C14	C	0.289525	0.111888	0.011809
C15	C	0.326844	0.116766	0.093070
C16	C	0.281962	0.119881	0.168560
C17	C	0.199767	0.118121	0.162783
C18	C	0.572265	0.122452	0.118754
C19	C	0.654466	0.124214	0.124526
C20	C	0.662023	0.116220	-0.032226
C21	C	0.579826	0.114466	-0.037997
C22	C	0.534952	0.117576	0.037493
N23	N	0.410862	0.118561	0.098977
N24	N	0.450936	0.115775	0.031585
C25	C	0.936641	-0.036381	0.065694
C26	C	0.935082	-0.129630	0.065585
C27	C	0.856366	-0.344671	0.060052
C28	C	0.889508	-0.401990	0.133506
C29	C	0.932261	-0.300363	0.065380
C30	C	0.896347	-0.409198	-0.008245
C31	C	0.929531	-0.465283	0.065178
C32	C	0.965421	-0.356451	0.138894
C33	C	0.972252	-0.363656	-0.002921
C34	C	1.005449	-0.420956	0.070555
C35	C	0.933832	-0.205357	0.065497
C36	C	0.927966	-0.560287	0.065068
C37	C	1.074971	0.111386	0.075386
C38	C	1.162452	0.113252	0.081516
C39	C	0.925152	0.270729	0.064870
C40	C	0.926712	0.363979	0.064973
N41	N	0.921057	0.127602	0.269891
N42	N	0.940743	0.106740	-0.139325
C43	C	0.972472	0.072958	0.318894
C44	C	0.968131	0.077575	0.409398
C45	C	0.912380	0.136840	0.450896
C46	C	0.860960	0.191486	0.401885
C47	C	0.865297	0.186865	0.311384
C48	C	0.893660	0.156765	0.721163
C49	C	0.889328	0.161384	0.811671
C50	C	0.996499	0.047471	0.819177
C51	C	1.000834	0.042859	0.728674
C52	C	0.949412	0.097502	0.679671
N53	N	0.907944	0.141562	0.543404
N54	N	0.953845	0.092775	0.587164
H55	H	0.535740	0.124973	0.180223
H56	H	0.549447	0.110493	-0.104169
H57	H	1.046231	-0.005400	0.694888
C58	C	0.808745	0.246976	0.257480
H59	H	0.774925	0.282940	0.295155
H60	H	0.777635	0.214860	0.219888
H61	H	0.838789	0.280227	0.224151
H62	H	0.312354	0.123847	0.234725
H63	H	0.698569	0.113686	-0.093686
C64	C	1.024695	0.017475	0.463299
H65	H	1.058527	-0.018474	0.425623
H66	H	0.994665	-0.015779	0.496632
H67	H	1.055804	0.049604	0.500887
H68	H	0.163229	0.120668	0.224250
C69	C	0.771263	-0.299861	0.054176
H70	H	0.741998	-0.312776	0.102726
H71	H	0.746429	-0.318637	0.002418
H72	H	0.772864	-0.240518	0.053778
H73	H	0.854523	-0.419119	0.191187
C74	C	1.004843	-0.325220	0.222990
H75	H	1.005564	-0.265749	0.222564
H76	H	1.057633	-0.352015	0.226902
H77	H	0.975636	-0.338614	0.271388
C78	C	1.090619	-0.465559	0.076582
H79	H	1.115023	-0.447416	0.128866
H80	H	1.120179	-0.451814	0.028607
H81	H	1.089194	-0.524972	0.076010
H82	H	1.007210	-0.346505	-0.060607
C83	C	0.856865	-0.440558	-0.092250
H84	H	0.803906	-0.414159	-0.095872
H85	H	0.856590	-0.500087	-0.091973
H86	H	0.885735	-0.426753	-0.140735
H87	H	0.815562	0.239738	0.435678
H88	H	1.017874	0.024702	0.285113
H89	H	0.684847	0.128192	0.190702
C90	C	1.053051	-0.012638	0.873081
H91	H	1.042481	-0.001405	0.932924
H92	H	1.106354	-0.004120	0.861923
H93	H	1.045194	-0.069482	0.857658
H94	H	0.843926	0.209649	0.845454
C95	C	0.837119	0.216890	0.667269
H96	H	0.847682	0.205653	0.607425
H97	H	0.844982	0.273726	0.682699
H98	H	0.783810	0.208378	0.678421
C99	C	0.166284	0.104776	-0.083357
H100	H	0.204787	0.103165	-0.127484
H101	H	0.128369	0.152862	-0.089295
H102	H	0.140386	0.054982	-0.088445
H103	H	0.326061	0.109344	-0.049658
