data_functionalizedCrystal
_audit_creation_method	'MofGen! by Chris Wilmer'
_symmetry_space_group_name_H-M	'P1'
_symmetry_Int_Tables_number	1
_symmetry_cell_setting	triclinic
loop_
_symmetry_equiv_pos_as_xyz
  x,y,z
_cell_length_a	19.288840
_cell_length_b	14.044220
_cell_length_c	18.366186
_cell_angle_alpha	89.993222
_cell_angle_beta	89.983729
_cell_angle_gamma	88.157446
loop_
_atom_site_label
_atom_site_type_symbol
_atom_site_fract_x
_atom_site_fract_y
_atom_site_fract_z
O1	O	0.928952	0.118100	-0.060674
O2	O	0.727715	0.134072	-0.060649
O3	O	0.825313	-0.011885	-0.060654
O4	O	0.831354	0.264058	-0.060669
O5	O	0.825295	-0.011892	0.060445
O6	O	0.727697	0.134065	0.060450
O7	O	0.928933	0.118093	0.060425
Zn8	Zn	0.828312	0.126078	0.079665
Zn9	Zn	0.828337	0.126087	-0.079889
O10	O	0.831336	0.264050	0.060430
C11	C	0.701796	0.133559	-0.000096
C12	C	0.624594	0.132028	-0.000087
C13	C	0.588353	0.131296	-0.066100
C14	C	0.515813	0.129847	-0.066109
C15	C	0.479517	0.129111	-0.000101
C16	C	0.515766	0.129848	0.065921
C17	C	0.588304	0.131306	0.065928
C18	C	0.366467	0.071292	0.050464
C19	C	0.293930	0.069828	0.050454
C20	C	0.255785	0.124617	-0.000119
C21	C	0.290185	0.180858	-0.050695
C22	C	0.362724	0.182316	-0.050688
C23	C	0.400861	0.127530	-0.000101
C24	C	0.140888	0.122316	-0.066147
C25	C	0.068346	0.120872	-0.066153
C26	C	0.068301	0.120863	0.065879
C27	C	0.140841	0.122316	0.065883
C28	C	0.177130	0.123037	-0.000132
C29	C	0.822659	-0.047191	-0.000104
C30	C	0.814772	-0.152383	-0.000102
C31	C	0.800351	-0.344981	-0.000111
C32	C	0.856295	-0.402860	-0.000120
C33	C	0.848271	-0.510028	-0.000125
C34	C	0.808374	-0.237802	-0.000106
C35	C	0.954852	0.118607	-0.000129
C36	C	1.032055	0.120138	-0.000144
C37	C	0.833989	0.299357	-0.000122
C38	C	0.841877	0.404548	-0.000129
N39	N	0.828300	0.126071	0.188556
N40	N	0.828353	0.126087	-0.188780
C41	C	0.871534	0.061473	0.226654
C42	C	0.871538	0.061469	0.302882
C43	C	0.828316	0.126079	0.341009
C44	C	0.785074	0.190682	0.302901
C45	C	0.785066	0.190678	0.226675
C46	C	0.824566	0.212423	0.461765
C47	C	0.824579	0.212428	0.537990
C48	C	0.828337	0.126091	0.576116
C49	C	0.832097	0.039745	0.538008
C50	C	0.832089	0.039741	0.461782
C51	C	0.828320	0.126090	0.423663
C52	C	0.871577	0.061483	0.696869
C53	C	0.871577	0.061477	0.773098
C54	C	0.785116	0.190699	0.773116
C55	C	0.785113	0.190696	0.696888
C56	C	0.828347	0.126089	0.658770
H57	H	0.390729	0.228111	-0.091868
O58	O	0.249060	0.239992	-0.105232
H59	H	0.263769	0.217444	-0.161212
H60	H	0.617811	0.131903	0.119686
O61	O	0.738483	0.260371	0.655789
H62	H	0.770560	0.306316	0.621035
H63	H	0.910216	-0.371925	-0.000175
O64	O	0.738521	0.260414	0.814232
H65	H	0.708462	0.305344	0.774929
H66	H	0.170435	0.122913	-0.119900
H67	H	0.170349	0.122905	0.119638
H68	H	0.746434	-0.375913	-0.000106
O69	O	0.918154	-0.008219	0.185538
H70	H	0.948212	-0.053146	0.224842
H71	H	0.821522	0.282736	0.569011
O72	O	0.918181	-0.008198	0.343984
H73	H	0.904772	-0.082047	0.329370
H74	H	0.038840	0.120283	-0.119911
H75	H	0.835148	-0.030565	0.430757
H76	H	0.821494	0.282733	0.430729
H77	H	0.835156	-0.030559	0.569049
H78	H	0.749881	0.243287	0.333948
H79	H	0.265927	0.024029	0.091633
O80	O	0.476711	0.129039	-0.137310
H81	H	0.514133	0.129776	-0.183212
O82	O	0.918178	-0.008237	0.655752
H83	H	0.910908	0.002611	0.596346
H84	H	0.617895	0.131884	-0.119854
O85	O	0.918217	-0.008190	0.814196
H86	H	0.948285	-0.053103	0.774880
H87	H	0.749859	0.243282	0.195654
O88	O	0.029160	0.120248	0.137077
H89	H	-0.027372	0.119171	0.125983
H90	H	0.486209	0.129250	0.119665
O91	O	0.407609	0.012190	0.105010
H92	H	0.371504	-0.027175	0.140167
