data_functionalizedCrystal
_audit_creation_method	'MofGen! by Chris Wilmer'
_symmetry_space_group_name_H-M	'P1'
_symmetry_Int_Tables_number	1
_symmetry_cell_setting	triclinic
loop_
_symmetry_equiv_pos_as_xyz
  x,y,z
_cell_length_a	19.288864
_cell_length_b	19.188930
_cell_length_c	17.766277
_cell_angle_alpha	89.988508
_cell_angle_beta	89.976791
_cell_angle_gamma	83.140512
loop_
_atom_site_label
_atom_site_type_symbol
_atom_site_fract_x
_atom_site_fract_y
_atom_site_fract_z
O1	O	0.921360	0.087099	-0.062844
O2	O	1.254693	0.420433	0.270489
O3	O	1.588026	0.753766	0.603823
O4	O	0.719100	0.098849	-0.062794
O5	O	1.052433	0.432182	0.270540
O6	O	1.385766	0.765515	0.603873
O7	O	0.826066	-0.008682	-0.062806
O8	O	1.159400	0.324651	0.270528
O9	O	1.492733	0.657985	0.603861
O10	O	0.814393	0.194630	-0.062832
O11	O	1.147726	0.527963	0.270501
O12	O	1.481060	0.861297	0.603835
O13	O	0.826048	-0.008688	0.062383
O14	O	1.159381	0.324646	0.395716
O15	O	1.492714	0.657979	0.729050
O16	O	0.719081	0.098843	0.062395
O17	O	1.052414	0.432177	0.395728
O18	O	1.385748	0.765510	0.729062
O19	O	0.921341	0.087094	0.062345
O20	O	1.254674	0.420427	0.395678
O21	O	1.588008	0.753760	0.729011
Cu22	Cu	0.820209	0.092968	0.073800
Cu23	Cu	1.153543	0.426301	0.407134
Cu24	Cu	1.486876	0.759635	0.740467
Cu25	Cu	0.820231	0.092974	-0.074250
Cu26	Cu	1.153565	0.426308	0.259084
Cu27	Cu	1.486898	0.759641	0.592417
O28	O	0.814374	0.194625	0.062356
O29	O	1.147708	0.527958	0.395690
O30	O	1.481041	0.861291	0.729023
C31	C	0.693214	0.098468	-0.000193
C32	C	1.026547	0.431801	0.333141
C33	C	1.359881	0.765135	0.666474
C34	C	0.616110	0.097333	-0.000173
C35	C	0.949444	0.430666	0.333160
C36	C	1.282777	0.764000	0.666494
C37	C	0.571419	0.160427	-0.000193
C38	C	0.904752	0.493761	0.333140
C39	C	1.238085	0.827094	0.666474
C40	C	0.498972	0.159361	-0.000201
C41	C	0.832305	0.492694	0.333132
C42	C	1.165638	0.826028	0.666466
C43	C	0.471219	0.095197	-0.000204
C44	C	0.804553	0.428530	0.333129
C45	C	1.137886	0.761864	0.666462
C46	C	0.515921	0.032095	-0.000180
C47	C	0.849254	0.365428	0.333153
C48	C	1.182587	0.698761	0.666487
C49	C	0.588366	0.033163	-0.000164
C50	C	0.921700	0.366496	0.333169
C51	C	1.255033	0.699829	0.666502
C52	C	0.362960	0.044759	-0.044082
C53	C	0.696293	0.378092	0.289251
C54	C	1.029627	0.711426	0.622585
C55	C	0.290515	0.043694	-0.044103
C56	C	0.623849	0.377027	0.289231
C57	C	0.957182	0.710360	0.622564
C58	C	0.247773	0.091900	-0.000249
C59	C	0.581107	0.425234	0.333084
C60	C	0.914440	0.758567	0.666417
C61	C	0.277483	0.141184	0.043614
C62	C	0.610817	0.474518	0.376948
C63	C	0.944150	0.807851	0.710281
C64	C	0.349929	0.142252	0.043630
C65	C	0.683262	0.475586	0.376963
C66	C	1.016595	0.808919	0.710297
C67	C	0.392665	0.094032	-0.000221
C68	C	0.725998	0.427365	0.333112
C69	C	1.059332	0.760699	0.666446
C70	C	0.124526	0.153843	-0.000277
C71	C	0.457859	0.487176	0.333056
C72	C	0.791192	0.820510	0.666389
C73	C	0.052078	0.152774	-0.000281
C74	C	0.385411	0.486107	0.333052
C75	C	0.718744	0.819441	0.666386
C76	C	0.069028	0.025506	-0.000267
C77	C	0.402362	0.358839	0.333066
C78	C	0.735695	0.692172	0.666399
C79	C	0.141475	0.026576	-0.000256
C80	C	0.474808	0.359910	0.333077
C81	C	0.808142	0.693243	0.666410
C82	C	0.169219	0.090747	-0.000265
C83	C	0.502552	0.424080	0.333069
C84	C	0.835886	0.757414	0.666402
C85	C	0.825679	-0.034696	-0.000209
C86	C	1.159012	0.298638	0.333124
C87	C	1.492346	0.631971	0.666458
C88	C	0.824544	-0.112200	-0.000202
C89	C	1.157878	0.221133	0.333131
C90	C	1.491211	0.554466	0.666464
C91	C	0.887309	-0.157129	-0.000214
C92	C	1.220642	0.176204	0.333119
C93	C	1.553975	0.509538	0.666452
C94	C	0.886243	-0.229953	-0.000226
C95	C	1.219576	0.103381	0.333107
C96	C	1.552909	0.436714	0.666441
C97	C	0.822408	-0.257844	-0.000211
C98	C	1.155742	0.075489	0.333123
C99	C	1.489075	0.408822	0.666456
C100	C	0.759636	-0.212906	-0.000203
C101	C	1.092969	0.120427	0.333130
C102	C	1.426302	0.453761	0.666464
C103	C	0.760704	-0.140084	-0.000199
C104	C	1.094037	0.193250	0.333135
C105	C	1.427370	0.526583	0.666468
N106	N	0.773608	-0.365848	0.042405
N107	N	1.106942	-0.032514	0.375739
N108	N	1.440275	0.300819	0.709072
N109	N	0.772598	-0.435026	0.042403
N110	N	1.105932	-0.101693	0.375736
N111	N	1.439265	0.231641	0.709070
C112	C	0.819187	-0.477253	-0.000225
C113	C	1.152520	-0.143919	0.333108
C114	C	1.485854	0.189414	0.666441
N115	N	0.866835	-0.447689	-0.042841
N116	N	1.200168	-0.114356	0.290492
N117	N	1.533502	0.218978	0.623825
N118	N	0.867847	-0.378504	-0.042836
N119	N	1.201180	-0.045171	0.290498
N120	N	1.534514	0.288162	0.623831
C121	C	0.821243	-0.336807	-0.000216
C122	C	1.154577	-0.003473	0.333117
C123	C	1.487910	0.329860	0.666451
C124	C	0.880800	-0.601146	-0.000251
C125	C	1.214133	-0.267813	0.333082
C126	C	1.547467	0.065521	0.666416
C127	C	0.879731	-0.673971	-0.000268
C128	C	1.213065	-0.340637	0.333066
C129	C	1.546398	-0.007304	0.666399
C130	C	0.753122	-0.656922	-0.000237
C131	C	1.086456	-0.323589	0.333097
C132	C	1.419789	0.009745	0.666430
C133	C	0.754193	-0.584099	-0.000228
C134	C	1.087526	-0.250766	0.333105
C135	C	1.420860	0.082568	0.666439
C136	C	0.818034	-0.556216	-0.000231
C137	C	1.151367	-0.222882	0.333102
C138	C	1.484700	0.110451	0.666435
C139	C	0.947227	0.087475	-0.000258
C140	C	1.280560	0.420808	0.333075
C141	C	1.613893	0.754141	0.666409
C142	C	1.024330	0.088609	-0.000283
C143	C	1.357664	0.421943	0.333051
C144	C	1.690997	0.755276	0.666384
C145	C	0.814762	0.220638	-0.000242
C146	C	1.148095	0.553972	0.333092
C147	C	1.481428	0.887305	0.666425
C148	C	0.815896	0.298143	-0.000253
C149	C	1.149230	0.631476	0.333080
C150	C	1.482563	0.964809	0.666413
N151	N	0.820199	0.092963	0.177931
N152	N	1.153532	0.426296	0.511264
N153	N	1.486865	0.759630	0.844597
N154	N	0.820247	0.092974	-0.178380
N155	N	1.153581	0.426307	0.154953
N156	N	1.486914	0.759641	0.488287
C157	C	0.867579	0.045372	0.217312
C158	C	1.200912	0.378705	0.550646
C159	C	1.534245	0.712038	0.883979
C160	C	0.867583	0.045368	0.296114
C161	C	1.200916	0.378702	0.629448
C162	C	1.534250	0.712035	0.962781
C163	C	0.820213	0.092969	0.335531
C164	C	1.153547	0.426302	0.668865
C165	C	1.486880	0.759635	1.002198
C166	C	0.772824	0.140564	0.296140
C167	C	1.106158	0.473897	0.629474
C168	C	1.439491	0.807230	0.962807
C169	C	0.772817	0.140561	0.217340
C170	C	1.106150	0.473894	0.550673
C171	C	1.439484	0.807228	0.884007
C172	C	0.810919	0.156585	0.460362
C173	C	1.144253	0.489919	0.793696
C174	C	1.477586	0.823252	1.127029
C175	C	0.810931	0.156589	0.539161
C176	C	1.144265	0.489922	0.872495
C177	C	1.477598	0.823256	1.205828
C178	C	0.820232	0.092977	0.578578
C179	C	1.153565	0.426310	0.911911
C180	C	1.486899	0.759644	1.245244
C181	C	0.829535	0.029359	0.539185
C182	C	1.162868	0.362692	0.872519
C183	C	1.496202	0.696025	1.205852
C184	C	0.829528	0.029356	0.460385
C185	C	1.162861	0.362689	0.793719
C186	C	1.496194	0.696022	1.127052
C187	C	0.820216	0.092977	0.420977
C188	C	1.153549	0.426310	0.754310
C189	C	1.486882	0.759643	1.087644
C190	C	0.867619	0.045378	0.703405
C191	C	1.200952	0.378711	1.036739
C192	C	1.534286	0.712045	1.370072
C193	C	0.867618	0.045374	0.782208
C194	C	1.200951	0.378707	1.115542
C195	C	1.534285	0.712041	1.448875
C196	C	0.772863	0.140575	0.782233
C197	C	1.106196	0.473909	1.115566
C198	C	1.439530	0.807242	1.448900
C199	C	0.772861	0.140573	0.703431
C200	C	1.106194	0.473907	1.036765
C201	C	1.439527	0.807240	1.370098
C202	C	0.820242	0.092976	0.664022
C203	C	1.153576	0.426309	0.997355
C204	C	1.486909	0.759642	1.330689
H205	H	0.015690	0.204155	-0.000293
H206	H	0.349023	0.537488	0.333040
H207	H	0.682356	0.870822	0.666374
N208	N	0.684271	-0.686994	-0.000229
N209	N	1.017604	-0.353661	0.333105
N210	N	1.350937	-0.020328	0.666438
H211	H	0.693117	-0.739945	-0.000236
H212	H	1.026450	-0.406612	0.333098
H213	H	1.359784	-0.073278	0.666431
H214	H	0.656805	-0.670555	0.046187
H215	H	0.990139	-0.337222	0.379520
H216	H	1.323472	-0.003889	0.712854
H217	H	0.939293	-0.134431	-0.000220
H218	H	1.272626	0.198902	0.333114
H219	H	1.605960	0.532235	0.666447
H220	H	0.266331	0.003566	-0.079822
H221	H	0.599665	0.336900	0.253511
H222	H	0.932998	0.670233	0.586845
H223	H	0.703083	-0.547517	-0.000214
H224	H	1.036416	-0.214184	0.333119
H225	H	1.369750	0.119150	0.666453
N226	N	0.839586	-0.039256	0.581688
N227	N	1.172919	0.294077	0.915022
N228	N	1.506252	0.627410	1.248355
H229	H	0.845486	-0.079555	0.544777
H230	H	1.178819	0.253778	0.878111
H231	H	1.512152	0.587111	1.211444
H232	H	0.882584	-0.040810	0.614352
H233	H	1.215917	0.292524	0.947685
H234	H	1.549251	0.625857	1.281019
N235	N	0.949653	-0.571067	-0.000258
N236	N	1.282987	-0.237734	0.333075
N237	N	1.616320	0.095600	0.666409
H238	H	0.952909	-0.541250	0.046156
H239	H	1.286243	-0.207917	0.379490
H240	H	1.619576	0.125416	0.712823
H241	H	0.989211	-0.610624	-0.000300
H242	H	1.322545	-0.277290	0.333034
H243	H	1.655878	0.056043	0.666367
H244	H	0.930844	-0.710552	-0.000281
H245	H	1.264177	-0.377218	0.333052
H246	H	1.597510	-0.043885	0.666385
H247	H	0.734282	0.179330	0.671365
H248	H	1.067615	0.512663	1.004698
H249	H	1.400949	0.845996	1.338031
N250	N	0.039107	-0.043702	-0.000262
N251	N	0.372440	0.289632	0.333071
N252	N	0.705773	0.622965	0.666404
H253	H	-0.013570	-0.034806	-0.000273
H254	H	0.319764	0.298528	0.333061
H255	H	0.653097	0.631861	0.666394
H256	H	0.055494	-0.071302	-0.046665
H257	H	0.388827	0.262032	0.286669
H258	H	0.722161	0.595365	0.620002
H259	H	0.906158	0.006613	0.185228
H260	H	1.239491	0.339947	0.518561
H261	H	1.572825	0.673280	0.851894
N262	N	0.918735	-0.005948	0.824689
N263	N	1.252068	0.327386	1.158022
N264	N	1.585402	0.660719	1.491355
H265	H	0.948753	-0.036093	0.787763
H266	H	1.282087	0.297241	1.121096
H267	H	1.615420	0.630574	1.454429
H268	H	0.949349	0.020725	0.857352
H269	H	1.282682	0.354058	1.190685
H270	H	1.616016	0.687392	1.524019
N271	N	0.450761	0.227418	-0.000231
N272	N	0.784095	0.560751	0.333102
N273	N	1.117428	0.894085	0.666436
H274	H	0.420355	0.229805	-0.046647
H275	H	0.753688	0.563138	0.286686
H276	H	1.087021	0.896471	0.620019
H277	H	0.420343	0.229775	0.046198
H278	H	0.753676	0.563108	0.379532
H279	H	1.087009	0.896441	0.712865
N280	N	0.800889	0.225201	0.417855
N281	N	1.134222	0.558534	0.751189
N282	N	1.467555	0.891868	1.084522
H283	H	0.839413	0.254208	0.431540
H284	H	1.172746	0.587541	0.764873
H285	H	1.506079	0.920874	1.098207
H286	H	0.802277	0.215488	0.361973
H287	H	1.135610	0.548821	0.695306
H288	H	1.468944	0.882154	1.028639
N289	N	0.953941	-0.278424	-0.000241
N290	N	1.287274	0.054910	0.333093
N291	N	1.620607	0.388243	0.666426
H292	H	0.994545	-0.249709	-0.000244
H293	H	1.327878	0.083624	0.333090
H294	H	1.661211	0.416957	0.666423
H295	H	0.956241	-0.309018	0.046167
H296	H	1.289575	0.024316	0.379500
H297	H	1.622908	0.357649	0.712834
H298	H	0.147116	0.206094	-0.000273
H299	H	0.480449	0.539428	0.333060
H300	H	0.813783	0.872761	0.666393
N301	N	0.231394	0.193188	0.090913
N302	N	0.564727	0.526521	0.424246
N303	N	0.898061	0.859854	0.757580
H304	H	0.180992	0.185033	0.084252
H305	H	0.514325	0.518367	0.417585
H306	H	0.847659	0.851700	0.750919
H307	H	0.244899	0.186846	0.145623
H308	H	0.578232	0.520179	0.478956
H309	H	0.911566	0.853513	0.812290
N310	N	0.409058	-0.007241	-0.091381
N311	N	0.742391	0.326093	0.241952
N312	N	1.075725	0.659426	0.575286
H313	H	0.379245	-0.038618	-0.119175
H314	H	0.712579	0.294715	0.214159
H315	H	1.045912	0.628048	0.547492
H316	H	0.435715	0.018898	-0.128839
H317	H	0.769048	0.352231	0.204494
H318	H	1.102382	0.685564	0.537828
N319	N	0.800892	0.225202	0.581644
N320	N	1.134225	0.558535	0.914977
N321	N	1.467558	0.891869	1.248310
H322	H	0.843064	0.229248	0.614313
H323	H	1.176397	0.562582	0.947646
H324	H	1.509731	0.895915	1.280979
H325	H	0.794969	0.265457	0.544669
H326	H	1.128302	0.598790	0.878003
H327	H	1.461635	0.932123	1.211336
H328	H	0.177864	-0.024802	-0.000244
H329	H	0.511197	0.308531	0.333089
H330	H	0.844531	0.641865	0.666423
H331	H	0.707661	-0.235620	-0.000192
H332	H	1.040995	0.097713	0.333141
H333	H	1.374328	0.431047	0.666475
N334	N	0.721765	0.191911	0.824737
N335	N	1.055098	0.525244	1.158070
N336	N	1.388431	0.858577	1.491403
H337	H	0.748207	0.222762	0.857410
H338	H	1.081541	0.556095	1.190744
H339	H	1.414874	0.889428	1.524077
H340	H	0.691762	0.222012	0.787778
H341	H	1.025095	0.555346	1.121111
H342	H	1.358428	0.888679	1.454445
H343	H	0.493320	-0.020148	-0.000193
H344	H	0.826653	0.313185	0.333140
H345	H	1.159987	0.646518	0.666474
H346	H	0.906167	0.006612	0.328185
H347	H	1.239500	0.339946	0.661518
H348	H	1.572833	0.673279	0.994851
N349	N	0.721729	0.191901	0.338649
N350	N	1.055062	0.525234	0.671982
N351	N	1.388395	0.858568	1.005315
H352	H	0.728923	0.184683	0.394545
H353	H	1.062257	0.518016	0.727878
H354	H	1.395590	0.851349	1.061212
H355	H	0.729594	0.241413	0.324856
H356	H	1.062928	0.574746	0.658189
H357	H	1.396261	0.908079	0.991523
N358	N	0.693005	-0.091619	-0.000186
N359	N	1.026338	0.241714	0.333147
N360	N	1.359672	0.575047	0.666480
H361	H	0.652402	-0.120336	-0.000181
H362	H	0.985736	0.212998	0.333152
H363	H	1.319069	0.546331	0.666486
H364	H	0.690683	-0.061046	0.046227
H365	H	1.024016	0.272287	0.379560
H366	H	1.357350	0.605621	0.712893
N367	N	0.839559	-0.039254	0.417896
N368	N	1.172892	0.294079	0.751230
N369	N	1.506225	0.627412	1.084563
H370	H	0.845453	-0.079555	0.454818
H371	H	1.178786	0.253778	0.788151
H372	H	1.512119	0.587112	1.121485
H373	H	0.797373	-0.043222	0.385227
H374	H	1.130706	0.290111	0.718560
H375	H	1.464040	0.623445	1.051893
H376	H	0.906198	0.006619	0.671317
H377	H	1.239531	0.339952	1.004650
H378	H	1.572865	0.673286	1.337984
N379	N	0.636575	-0.034892	-0.000139
N380	N	0.969908	0.298442	0.333194
N381	N	1.303241	0.631775	0.666528
H382	H	0.608004	-0.075703	-0.000139
H383	H	0.941337	0.257630	0.333195
H384	H	1.274671	0.590964	0.666528
H385	H	0.667027	-0.037220	-0.046542
H386	H	1.000360	0.296113	0.286792
H387	H	1.333694	0.629446	0.620125
H388	H	0.734234	0.179316	0.185275
H389	H	1.067567	0.512650	0.518608
H390	H	1.400900	0.845983	0.851941
H391	H	0.374116	0.182379	0.079348
H392	H	0.707449	0.515712	0.412681
H393	H	1.040782	0.849046	0.746014
N394	N	0.601343	0.229636	-0.000208
N395	N	0.934676	0.562970	0.333126
N396	N	1.268010	0.896303	0.666459
H397	H	0.562033	0.269445	-0.000223
H398	H	0.895367	0.602778	0.333110
H399	H	1.228700	0.936112	0.666443
H400	H	0.631007	0.232857	0.046206
H401	H	0.964341	0.566190	0.379539
H402	H	1.297674	0.899524	0.712872
