data_functionalizedCrystal
_audit_creation_method	'MofGen! by Chris Wilmer'
_symmetry_space_group_name_H-M	'P1'
_symmetry_Int_Tables_number	1
_symmetry_cell_setting	triclinic
loop_
_symmetry_equiv_pos_as_xyz
  x,y,z
_cell_length_a	12.759401
_cell_length_b	14.909383
_cell_length_c	12.759401
_cell_angle_alpha	86.708946
_cell_angle_beta	90.005677
_cell_angle_gamma	86.726351
loop_
_atom_site_label
_atom_site_type_symbol
_atom_site_fract_x
_atom_site_fract_y
_atom_site_fract_z
Zn1	Zn	1.630208	-0.359277	0.618145
Zn2	Zn	1.640252	-0.510090	0.452608
Zn3	Zn	1.454548	-0.359263	0.442483
Zn4	Zn	1.464608	-0.510084	0.628248
O5	O	1.547404	-0.434679	0.535371
O6	O	1.778562	-0.379292	0.596195
O7	O	1.615612	-0.490079	0.304243
O8	O	1.469436	-0.233030	0.457320
O9	O	1.785941	-0.490093	0.474575
O10	O	1.598492	-0.233041	0.586378
O11	O	1.479176	-0.379267	0.296805
O12	O	1.308861	-0.379261	0.467117
O13	O	1.486582	-0.490082	0.773929
O14	O	1.316252	-0.490068	0.603597
O15	O	1.608247	-0.379286	0.766507
O16	O	1.625367	-0.636324	0.484372
O17	O	1.496322	-0.636319	0.613414
C18	C	1.274436	-0.434663	0.535355
C19	C	1.157660	-0.434678	0.535375
C20	C	1.098963	-0.377088	0.598813
C21	C	0.989240	-0.377097	0.598820
C22	C	0.996920	-0.492294	0.471949
C23	C	1.106642	-0.492280	0.471937
C24	C	0.832183	-0.270781	0.629439
C25	C	0.773483	-0.213199	0.692894
C26	C	0.808197	-0.199485	0.794510
C27	C	0.901611	-0.243366	0.832693
C28	C	0.960306	-0.300955	0.769244
C29	C	0.925592	-0.314652	0.667612
C30	C	1.263700	-0.598597	0.441329
C31	C	1.322397	-0.656191	0.377885
C32	C	1.287686	-0.669914	0.276268
C33	C	1.194270	-0.626049	0.238090
C34	C	1.135573	-0.568455	0.301534
C35	C	1.170292	-0.554730	0.403150
C36	C	1.563054	-0.669053	0.551111
C37	C	1.569846	-0.769319	0.557879
C38	C	1.448344	-0.957873	0.436087
C39	C	1.454722	-1.052082	0.442443
C40	C	1.588984	-1.051948	0.576942
C41	C	1.582606	-0.957739	0.570586
C42	C	1.512283	-0.910705	0.500157
C43	C	1.505900	-0.816494	0.493806
C44	C	1.640167	-0.816362	0.628300
C45	C	1.646544	-0.910571	0.634656
C46	C	1.821438	-0.434695	0.535388
C47	C	1.938216	-0.434702	0.535395
C48	C	1.547416	-0.434685	0.809405
C49	C	1.547421	-0.434687	0.926182
C50	C	1.531721	-0.199389	0.519593
C51	C	1.525038	-0.099123	0.512870
C52	C	1.610764	-0.377005	0.977181
C53	C	1.610755	-0.377003	1.086905
C54	C	1.484057	-0.492374	1.094621
C55	C	1.484062	-0.492371	0.984899
C56	C	1.641199	-0.270623	1.229728
C57	C	1.704559	-0.212949	1.280732
C58	C	1.806152	-0.199106	1.244207
C59	C	1.844408	-0.242950	1.156682
C60	C	1.781053	-0.300632	1.105684
C61	C	1.679444	-0.314458	1.142206
C62	C	1.453629	-0.598752	0.842074
C63	C	1.390280	-0.656438	0.791074
C64	C	1.288685	-0.670291	0.827597
C65	C	1.250435	-0.626462	0.915127
C66	C	1.313784	-0.568775	0.966127
C67	C	1.415378	-0.554922	0.929596
C68	C	1.547393	-0.434692	1.262405
C69	C	1.547408	-0.434689	1.145628
H70	H	1.166004	-0.637228	0.155347
F71	F	1.059716	-0.347656	0.809875
F72	F	1.421817	-0.702881	0.418523
H73	H	1.812202	-0.336332	1.034426
F74	F	1.373496	-0.907813	0.361139
H75	H	1.059508	-0.532738	0.270440
F76	F	0.674059	-0.166512	0.652261
H77	H	1.140499	-0.330182	0.650465
F78	F	1.386672	-1.102278	0.374249
F79	F	1.721385	-0.960638	0.709605
H80	H	1.692227	-0.777947	0.680473
H81	H	1.335470	-0.716838	0.224626
F82	F	1.678194	-0.315611	0.914693
F83	F	0.938540	-0.228779	0.940855
H84	H	1.291977	-0.587421	0.524072
H85	H	1.927139	-0.231681	1.126956
H86	H	1.646245	-1.090260	0.634274
F87	F	0.795239	-0.285360	0.521280
H88	H	1.448637	-0.778199	0.436463
H89	H	1.237112	-0.717272	0.786070
H90	H	1.857740	-0.152145	1.285742
F91	F	0.745718	-0.138205	0.862044
H92	H	1.673402	-0.177251	1.351995
H93	H	1.558470	-0.281882	1.259469
H94	H	1.432475	-0.539340	1.142442
H95	H	1.282632	-0.533088	1.037399
H96	H	1.167710	-0.637744	0.944869
H97	H	1.421437	-0.692134	0.719810
H98	H	1.536354	-0.587471	0.812322
H99	H	0.955368	-0.539193	0.420302
