data_functionalizedCrystal
_audit_creation_method	'MofGen! by Chris Wilmer'
_symmetry_space_group_name_H-M	'P1'
_symmetry_Int_Tables_number	1
_symmetry_cell_setting	triclinic
loop_
_symmetry_equiv_pos_as_xyz
  x,y,z
_cell_length_a	14.908783
_cell_length_b	12.759400
_cell_length_c	12.759393
_cell_angle_alpha	90.023884
_cell_angle_beta	93.322580
_cell_angle_gamma	93.294885
loop_
_atom_site_label
_atom_site_type_symbol
_atom_site_fract_x
_atom_site_fract_y
_atom_site_fract_z
Zn1	Zn	1.379368	-0.325639	0.686932
Zn2	Zn	1.879368	0.174361	1.186932
Zn3	Zn	1.379304	-0.501359	0.511268
Zn4	Zn	1.879304	-0.001359	1.011268
Zn5	Zn	1.228493	-0.335816	0.501110
Zn6	Zn	1.728493	0.164184	1.001110
Zn7	Zn	1.228516	-0.511401	0.676754
Zn8	Zn	1.728516	-0.011401	1.176754
O9	O	1.303920	-0.418554	0.594016
O10	O	1.803920	0.081446	1.094016
O11	O	1.505606	-0.340487	0.672140
O12	O	2.005606	0.159513	1.172140
O13	O	1.359262	-0.479456	0.362897
O14	O	1.859262	0.020544	0.862897
O15	O	1.248524	-0.187444	0.525768
O16	O	1.748524	0.312556	1.025768
O17	O	1.505559	-0.469588	0.543081
O18	O	2.005559	0.030412	1.043081
O19	O	1.359371	-0.179967	0.662290
O20	O	1.859371	0.320033	1.162290
O21	O	1.248462	-0.357833	0.355434
O22	O	1.748462	0.142167	0.855434
O23	O	1.102250	-0.367570	0.515898
O24	O	1.602250	0.132430	1.015898
O25	O	1.248563	-0.486703	0.825127
O26	O	1.748563	0.013297	1.325127
O27	O	1.102266	-0.496571	0.644943
O28	O	1.602266	0.003429	1.144943
O29	O	1.359393	-0.350224	0.832605
O30	O	1.859393	0.149776	1.332605
O31	O	1.359284	-0.649713	0.533212
O32	O	1.859284	-0.149713	1.033212
O33	O	1.248501	-0.657091	0.654793
O34	O	1.748501	-0.157091	1.154793
C35	C	1.069524	-0.434265	0.578215
C36	C	1.569524	0.065735	1.078215
C37	C	0.969248	-0.441012	0.571480
C38	C	1.469248	0.058988	1.071480
C39	C	0.780866	-0.319441	0.693419
C40	C	1.280866	0.180559	1.193419
C41	C	0.686648	-0.325777	0.687095
C42	C	1.186648	0.174223	1.187095
C43	C	0.686592	-0.460012	0.552501
C44	C	1.186592	0.039988	1.052501
C45	C	0.780810	-0.453677	0.558826
C46	C	1.280810	0.046323	1.058826
C47	C	0.827944	-0.383390	0.629288
C48	C	1.327944	0.116610	1.129288
C49	C	0.922164	-0.377061	0.635617
C50	C	1.422164	0.122939	1.135617
C51	C	0.922106	-0.511290	0.501020
C52	C	1.422106	-0.011290	1.001020
C53	C	0.827888	-0.517626	0.494695
C54	C	1.327888	-0.017626	0.994695
C55	C	1.303913	-0.691522	0.594025
C56	C	1.803913	-0.191522	1.094025
C57	C	1.303992	-0.808293	0.594069
C58	C	1.803992	-0.308293	1.094069
C59	C	1.303988	-0.418449	0.868054
C60	C	1.803988	0.081551	1.368054
C61	C	1.304016	-0.418404	0.984832
C62	C	1.804016	0.081596	1.484832
C63	C	1.539232	-0.402782	0.609879
C64	C	2.039232	0.097218	1.109879
C65	C	1.639508	-0.396061	0.616639
C66	C	2.139508	0.103939	1.116639
C67	C	1.303952	-0.144519	0.594031
C68	C	1.803952	0.355481	1.094031
C69	C	1.303966	-0.027741	0.594038
C70	C	1.803966	0.472259	1.094038
C71	C	1.246264	0.023230	0.522964
C72	C	1.746264	0.523230	1.022964
C73	C	1.246274	0.132955	0.522982
C74	C	1.746274	0.632955	1.022982
C75	C	1.361697	0.140728	0.665151
C76	C	1.861697	0.640728	1.165151
C77	C	1.361681	0.031005	0.665137
C78	C	1.861681	0.531005	1.165137
C79	C	1.303905	-0.418580	0.321047
C80	C	1.803905	0.081420	0.821047
C81	C	1.304051	-0.418317	0.204281
C82	C	1.804051	0.081683	0.704281
C83	C	1.361730	-0.347328	1.043590
C84	C	1.861730	0.152672	1.543590
C85	C	1.361745	-0.347282	1.153315
C86	C	1.861745	0.152718	1.653315
C87	C	1.246331	-0.489396	1.145515
C88	C	1.746331	0.010604	1.645515
C89	C	1.246312	-0.489436	1.035792
C90	C	1.746312	0.010564	1.535792
H91	H	0.648321	-0.273700	0.739314
H92	H	1.148321	0.226300	1.239314
H93	H	1.408714	-0.289486	1.002102
H94	H	1.908714	0.210514	1.502102
O95	O	0.635742	-0.535807	0.476503
O96	O	1.135742	-0.035807	0.976503
H97	H	0.684305	-0.579208	0.432961
H98	H	1.184305	-0.079208	0.932961
O99	O	0.777049	-0.593428	0.418695
O100	O	1.277049	-0.093428	0.918695
H101	H	0.734150	-0.649823	0.462754
H102	H	1.234150	-0.149823	0.962754
H103	H	0.819243	-0.262215	0.750797
H104	H	1.319243	0.237785	1.250797
O105	O	0.973002	-0.301244	0.711603
O106	O	1.473002	0.198756	1.211603
H107	H	0.954952	-0.320554	0.792822
H108	H	1.454952	0.179446	1.292822
O109	O	1.423915	-0.023981	0.741806
O110	O	1.923915	0.476019	1.241806
H111	H	1.469791	-0.070923	0.697876
H112	H	1.969791	0.429077	1.197876
H113	H	1.408740	-0.289404	1.201151
H114	H	1.908740	0.210596	1.701151
H115	H	0.960447	-0.563371	0.448807
H116	H	1.460447	-0.063371	0.948807
O117	O	1.184008	-0.040137	0.446293
O118	O	1.684008	0.459863	0.946293
H119	H	1.143879	0.013745	0.396882
H120	H	1.643879	0.513745	0.896882
O121	O	1.184048	0.187936	0.446313
O122	O	1.684048	0.687936	0.946313
H123	H	1.143923	0.128650	0.396867
H124	H	1.643923	0.628650	0.896867
O125	O	1.423957	0.204088	0.741823
O126	O	1.923957	0.704088	1.241823
H127	H	1.414284	0.288951	0.729884
H128	H	1.914284	0.788951	1.229884
O129	O	1.184095	-0.566009	1.200477
O130	O	1.684095	-0.066009	1.700477
H131	H	1.193808	-0.554047	1.286647
H132	H	1.693808	-0.054047	1.786647
O133	O	1.184035	-0.566070	0.972403
O134	O	1.684035	-0.066070	1.472403
H135	H	1.143912	-0.615457	1.026270
H136	H	1.643912	-0.115457	1.526270
