data_functionalizedCrystal
_audit_creation_method	'MofGen! by Chris Wilmer'
_symmetry_space_group_name_H-M	'P1'
_symmetry_Int_Tables_number	1
_symmetry_cell_setting	triclinic
loop_
_symmetry_equiv_pos_as_xyz
  x,y,z
_cell_length_a	17.077402
_cell_length_b	12.759401
_cell_length_c	12.759386
_cell_angle_alpha	90.041215
_cell_angle_beta	89.934127
_cell_angle_gamma	89.978594
loop_
_atom_site_label
_atom_site_type_symbol
_atom_site_fract_x
_atom_site_fract_y
_atom_site_fract_z
Zn1	Zn	-0.312255	-1.606418	-0.593991
Zn2	Zn	0.021079	-1.273085	-0.260658
Zn3	Zn	0.354412	-0.939752	0.072676
Zn4	Zn	-0.443617	-1.606218	-0.418305
Zn5	Zn	-0.110284	-1.272885	-0.084972
Zn6	Zn	0.223049	-0.939552	0.248362
Zn7	Zn	-0.312365	-1.430653	-0.418328
Zn8	Zn	0.020968	-1.097320	-0.084994
Zn9	Zn	0.354302	-0.763986	0.248339
Zn10	Zn	-0.443478	-1.430682	-0.593944
Zn11	Zn	-0.110144	-1.097349	-0.260611
Zn12	Zn	0.223189	-0.764015	0.072723
O13	O	-0.377929	-1.518493	-0.506142
O14	O	-0.044595	-1.185160	-0.172809
O15	O	0.288738	-0.851826	0.160525
O16	O	-0.329693	-1.753413	-0.570696
O17	O	0.003641	-1.420079	-0.237363
O18	O	0.336974	-1.086746	0.095971
O19	O	-0.426311	-1.582834	-0.271287
O20	O	-0.092978	-1.249500	0.062047
O21	O	0.240356	-0.916167	0.395380
O22	O	-0.202503	-1.454040	-0.441659
O23	O	0.130830	-1.120707	-0.108326
O24	O	0.464163	-0.787374	0.225008
O25	O	-0.426204	-1.753266	-0.441620
O26	O	-0.092871	-1.419933	-0.108287
O27	O	0.240462	-1.086599	0.225046
O28	O	-0.202422	-1.583174	-0.570718
O29	O	0.130911	-1.249841	-0.237385
O30	O	0.464244	-0.916508	0.095949
O31	O	-0.329880	-1.453847	-0.271303
O32	O	0.003453	-1.120513	0.062030
O33	O	0.336786	-0.787180	0.395363
O34	O	-0.329745	-1.283636	-0.441613
O35	O	0.003588	-0.950303	-0.108280
O36	O	0.336922	-0.616969	0.225053
O37	O	-0.425966	-1.454089	-0.740972
O38	O	-0.092633	-1.120756	-0.407638
O39	O	0.240700	-0.787423	-0.074305
O40	O	-0.426073	-1.283657	-0.570638
O41	O	-0.092740	-0.950324	-0.237305
O42	O	0.240594	-0.616990	0.096029
O43	O	-0.329557	-1.583202	-0.741006
O44	O	0.003776	-1.249869	-0.407673
O45	O	0.337109	-0.916535	-0.074339
O46	O	-0.553446	-1.582862	-0.441575
O47	O	-0.220113	-1.249528	-0.108241
O48	O	0.113221	-0.916195	0.225092
O49	O	-0.553343	-1.453896	-0.570616
O50	O	-0.220010	-1.120562	-0.237283
O51	O	0.113323	-0.787229	0.096051
C52	C	-0.377906	-1.245526	-0.506124
C53	C	-0.044573	-0.912192	-0.172790
C54	C	0.288760	-0.578859	0.160543
C55	C	-0.377916	-1.128749	-0.506141
C56	C	-0.044582	-0.795416	-0.172808
C57	C	0.288751	-0.462082	0.160526
C58	C	-0.428152	-1.073925	-0.573212
C59	C	-0.094819	-0.740592	-0.239879
C60	C	0.238514	-0.407259	0.093455
C61	C	-0.428159	-0.964201	-0.573222
C62	C	-0.094826	-0.630868	-0.239889
C63	C	0.238508	-0.297535	0.093445
C64	C	-0.327690	-0.964134	-0.439080
C65	C	0.005643	-0.630801	-0.105747
C66	C	0.338977	-0.297467	0.227586
C67	C	-0.327680	-1.073856	-0.439077
C68	C	0.005653	-0.740523	-0.105743
C69	C	0.338987	-0.407189	0.227590
C70	C	-0.478388	-1.128818	-0.640276
C71	C	-0.145055	-0.795485	-0.306943
C72	C	0.188279	-0.462152	0.026390
C73	C	-0.528630	-1.073995	-0.707352
C74	C	-0.195296	-0.740661	-0.374019
C75	C	0.138037	-0.407328	-0.040686
C76	C	-0.528636	-0.964271	-0.707362
C77	C	-0.195303	-0.630937	-0.374029
C78	C	0.138030	-0.297604	-0.040695
C79	C	-0.478401	-0.909370	-0.640296
C80	C	-0.145068	-0.576037	-0.306963
C81	C	0.188265	-0.242703	0.026371
C82	C	-0.581877	-1.518389	-0.506111
C83	C	-0.248543	-1.185055	-0.172777
C84	C	0.084790	-0.851722	0.160556
C85	C	-0.669126	-1.518440	-0.506133
C86	C	-0.335793	-1.185107	-0.172799
C87	C	-0.002460	-0.851773	0.160534
C88	C	-0.710007	-1.585644	-0.573388
C89	C	-0.376674	-1.252310	-0.240054
C90	C	-0.043340	-0.918977	0.093279
C91	C	-0.791987	-1.585688	-0.573410
C92	C	-0.458654	-1.252354	-0.240077
C93	C	-0.125321	-0.919021	0.093257
C94	C	-0.833086	-1.518533	-0.506171
C95	C	-0.499752	-1.185200	-0.172838
C96	C	-0.166419	-0.851866	0.160496
C97	C	-0.792200	-1.451322	-0.438913
C98	C	-0.458866	-1.117989	-0.105580
C99	C	-0.125533	-0.784655	0.227754
C100	C	-0.710221	-1.451273	-0.438897
C101	C	-0.376887	-1.117940	-0.105563
C102	C	-0.043554	-0.784607	0.227770
C103	C	-0.963070	-1.451430	-0.438950
C104	C	-0.629736	-1.118097	-0.105616
C105	C	-0.296403	-0.784763	0.227717
C106	C	-1.045054	-1.451480	-0.438964
C107	C	-0.711721	-1.118146	-0.105631
C108	C	-0.378387	-0.784813	0.227702
C109	C	-1.044836	-1.585844	-0.573463
C110	C	-0.711503	-1.252511	-0.240130
C111	C	-0.378170	-0.919178	0.093204
C112	C	-0.962857	-1.585796	-0.573447
C113	C	-0.629524	-1.252462	-0.240113
C114	C	-0.296191	-0.919129	0.093220
C115	C	-0.921977	-1.518586	-0.506187
C116	C	-0.588643	-1.185253	-0.172854
C117	C	-0.255310	-0.851919	0.160480
C118	C	-0.173184	-1.518626	-0.506196
C119	C	0.160149	-1.185293	-0.172863
C120	C	0.493482	-0.851960	0.160470
C121	C	-0.085935	-1.518683	-0.506219
C122	C	0.247399	-1.185350	-0.172886
C123	C	0.580732	-0.852016	0.160447
C124	C	-0.377734	-1.518671	-0.780176
C125	C	-0.044401	-1.185338	-0.446842
C126	C	0.288933	-0.852005	-0.113509
C127	C	-0.377651	-1.518747	-0.896953
C128	C	-0.044317	-1.185414	-0.563619
C129	C	0.289016	-0.852081	-0.230286
C130	C	-0.377944	-0.792526	-0.506157
C131	C	-0.044611	-0.459193	-0.172824
C132	C	0.288722	-0.125860	0.160509
C133	C	-0.377932	-0.909303	-0.506154
C134	C	-0.044599	-0.575969	-0.172821
C135	C	0.288734	-0.242636	0.160512
C136	C	-0.378066	-1.518376	-0.233174
C137	C	-0.044733	-1.185042	0.100159
C138	C	0.288600	-0.851709	0.433492
C139	C	-0.377928	-1.518503	-0.116398
C140	C	-0.044595	-1.185170	0.216935
C141	C	0.288739	-0.851837	0.550269
C142	C	-0.427696	-1.586210	-0.061475
C143	C	-0.094363	-1.252877	0.271859
C144	C	0.238970	-0.919543	0.605192
C145	C	-0.427560	-1.586330	0.048249
C146	C	-0.094227	-1.252996	0.381582
C147	C	0.239107	-0.919663	0.714916
C148	C	-0.327881	-1.451033	0.048116
C149	C	0.005453	-1.117700	0.381450
C150	C	0.338786	-0.784367	0.714783
C151	C	-0.328022	-1.450909	-0.061605
C152	C	0.005312	-1.117576	0.271728
C153	C	0.338645	-0.784242	0.605062
C154	C	-0.477603	-1.653804	-0.116268
C155	C	-0.144270	-1.320471	0.217066
C156	C	0.189064	-0.987137	0.550399
C157	C	-0.527374	-1.721517	-0.061344
C158	C	-0.194041	-1.388184	0.271989
C159	C	0.139292	-1.054850	0.605322
C160	C	-0.527238	-1.721637	0.048379
C161	C	-0.193905	-1.388303	0.381713
C162	C	0.139429	-1.054970	0.715046
C163	C	-0.477330	-1.654044	0.103180
C164	C	-0.143997	-1.320710	0.436513
C165	C	0.189337	-0.987377	0.769846
H166	H	-0.569524	-1.118702	-0.761961
H167	H	-0.236191	-0.785368	-0.428628
H168	H	0.097143	-0.452035	-0.095295
Br169	Br	-0.477160	-1.654190	0.252092
Br170	Br	-0.143827	-1.320856	0.585425
Br171	Br	0.189507	-0.987523	0.918759
Br172	Br	-0.259498	-1.148267	-0.348053
Br173	Br	0.073835	-0.814933	-0.014719
Br174	Br	0.407168	-0.481600	0.318614
H175	H	-0.568011	-1.776544	-0.105970
H176	H	-0.234678	-1.443211	0.227363
H177	H	0.098656	-1.109877	0.560697
Br178	Br	-0.260146	-1.359316	0.122488
Br179	Br	0.073188	-1.025983	0.455821
Br180	Br	0.406521	-0.692649	0.789155
Br181	Br	-0.907589	-1.360216	-0.347667
Br182	Br	-0.574256	-1.026883	-0.014334
Br183	Br	-0.240922	-0.693550	0.318999
H184	H	-0.825269	-1.640420	-0.628168
H185	H	-0.491935	-1.307086	-0.294834
H186	H	-0.158602	-0.973753	0.038499
H187	H	-0.825668	-1.396639	-0.384170
H188	H	-0.492335	-1.063306	-0.050837
H189	H	-0.159002	-0.729973	0.282496
H190	H	-0.569540	-0.919636	-0.761986
H191	H	-0.236206	-0.586303	-0.428652
H192	H	0.097127	-0.252969	-0.095319
H193	H	-0.567769	-1.776766	0.093095
H194	H	-0.234435	-1.443432	0.426428
H195	H	0.098898	-1.110099	0.759762
Br196	Br	-0.478403	-0.760457	-0.640323
Br197	Br	-0.145070	-0.427124	-0.306989
Br198	Br	0.188263	-0.093791	0.026344
Br199	Br	-0.260462	-1.359042	-0.136151
Br200	Br	0.072872	-1.025709	0.197182
Br201	Br	0.406205	-0.692375	0.530516
H202	H	-0.286792	-0.919425	-0.384478
H203	H	0.046541	-0.586092	-0.051144
H204	H	0.379875	-0.252759	0.282189
Br205	Br	-0.907081	-1.676943	-0.664692
Br206	Br	-0.573747	-1.343610	-0.331359
Br207	Br	-0.240414	-1.010277	0.001975
Br208	Br	-0.478387	-1.277729	-0.640260
Br209	Br	-0.145053	-0.944396	-0.306927
Br210	Br	0.188280	-0.611062	0.026406
H211	H	-0.676936	-1.396548	-0.384132
H212	H	-0.343603	-1.063215	-0.050799
H213	H	-0.010270	-0.729882	0.282534
Br214	Br	-0.654238	-1.676796	-0.664637
Br215	Br	-0.320905	-1.343462	-0.331304
Br216	Br	0.012428	-1.010129	0.002029
H217	H	-1.078125	-1.640568	-0.628229
H218	H	-0.744792	-1.307235	-0.294896
H219	H	-0.411458	-0.973901	0.038438
H220	H	-1.078514	-1.396792	-0.384217
H221	H	-0.745181	-1.063459	-0.050883
H222	H	-0.411848	-0.730125	0.282450
H223	H	-0.477718	-1.653716	-0.205610
H224	H	-0.144384	-1.320383	0.127723
H225	H	0.188949	-0.987050	0.461057
