data_functionalizedCrystal
_audit_creation_method	'MofGen! by Chris Wilmer'
_symmetry_space_group_name_H-M	'P1'
_symmetry_Int_Tables_number	1
_symmetry_cell_setting	triclinic
loop_
_symmetry_equiv_pos_as_xyz
  x,y,z
_cell_length_a	12.996460
_cell_length_b	16.109301
_cell_length_c	16.109301
_cell_angle_alpha	83.461481
_cell_angle_beta	90.007591
_cell_angle_gamma	89.998305
loop_
_atom_site_label
_atom_site_type_symbol
_atom_site_fract_x
_atom_site_fract_y
_atom_site_fract_z
O1	O	-0.085505	-1.103127	-0.106869
O2	O	0.164495	-0.853127	0.143131
O3	O	0.414495	-0.603127	0.393131
O4	O	0.664495	-0.353127	0.643131
O5	O	-0.085522	-0.861065	-0.120169
O6	O	0.164478	-0.611065	0.129831
O7	O	0.414478	-0.361065	0.379831
O8	O	0.664478	-0.111065	0.629831
O9	O	-0.085503	-0.988746	0.007512
O10	O	0.164497	-0.738746	0.257512
O11	O	0.414497	-0.488746	0.507512
O12	O	0.664497	-0.238746	0.757512
O13	O	-0.085524	-0.975447	-0.234550
O14	O	0.164476	-0.725447	0.015450
O15	O	0.414476	-0.475447	0.265450
O16	O	0.664476	-0.225447	0.515450
O17	O	0.085631	-0.988744	0.007520
O18	O	0.335631	-0.738744	0.257520
O19	O	0.585631	-0.488744	0.507520
O20	O	0.835631	-0.238744	0.757520
O21	O	0.085612	-0.861063	-0.120160
O22	O	0.335612	-0.611063	0.129840
O23	O	0.585612	-0.361063	0.379840
O24	O	0.835612	-0.111063	0.629840
O25	O	0.085629	-1.103125	-0.106861
O26	O	0.335629	-0.853125	0.143139
O27	O	0.585629	-0.603125	0.393139
O28	O	0.835629	-0.353125	0.643139
Cu29	Cu	0.101246	-0.982094	-0.113510
Cu30	Cu	0.351246	-0.732094	0.136490
Cu31	Cu	0.601246	-0.482094	0.386490
Cu32	Cu	0.851246	-0.232094	0.636490
Cu33	Cu	-0.101139	-0.982097	-0.113520
Cu34	Cu	0.148861	-0.732097	0.136480
Cu35	Cu	0.398861	-0.482097	0.386480
Cu36	Cu	0.648861	-0.232097	0.636480
O37	O	0.085609	-0.975445	-0.234542
O38	O	0.335609	-0.725445	0.015458
O39	O	0.585609	-0.475445	0.265458
O40	O	0.835609	-0.225445	0.515458
C41	C	0.000043	-0.830090	-0.119626
C42	C	0.250043	-0.580090	0.130374
C43	C	0.500043	-0.330090	0.380374
C44	C	0.750043	-0.080090	0.630374
C45	C	0.000037	-0.737794	-0.118011
C46	C	0.250037	-0.487794	0.131989
C47	C	0.500037	-0.237794	0.381989
C48	C	0.750037	0.012206	0.631989
N49	N	-0.243486	-0.982099	-0.113521
N50	N	0.006514	-0.732099	0.136479
N51	N	0.256514	-0.482099	0.386479
N52	N	0.506514	-0.232099	0.636479
C53	C	0.000065	-0.988206	0.038491
C54	C	0.250065	-0.738206	0.288491
C55	C	0.500065	-0.488206	0.538491
C56	C	0.750065	-0.238206	0.788491
C57	C	0.000066	-0.986591	0.130786
C58	C	0.250066	-0.736591	0.380786
C59	C	0.500066	-0.486591	0.630786
C60	C	0.750066	-0.236591	0.880786
C61	C	-0.663301	-0.982095	-0.113513
C62	C	-0.413301	-0.732095	0.136487
C63	C	-0.163301	-0.482095	0.386487
C64	C	0.086699	-0.232095	0.636487
C65	C	-0.546496	-0.982093	-0.113517
C66	C	-0.296496	-0.732093	0.136483
C67	C	-0.046496	-0.482093	0.386483
C68	C	0.203504	-0.232093	0.636483
C69	C	-0.453397	-0.982096	-0.113516
C70	C	-0.203397	-0.732096	0.136484
C71	C	0.046603	-0.482096	0.386484
C72	C	0.296603	-0.232096	0.636484
C73	C	-0.336585	-0.982096	-0.113522
C74	C	-0.086585	-0.732096	0.136478
C75	C	0.163415	-0.482096	0.386478
C76	C	0.413415	-0.232096	0.636478
N77	N	0.243593	-0.982098	-0.113502
N78	N	0.493593	-0.732098	0.136498
N79	N	0.743593	-0.482098	0.386498
N80	N	0.993593	-0.232098	0.636498
C81	C	0.000062	-1.134101	-0.107404
C82	C	0.250062	-0.884101	0.142596
C83	C	0.500062	-0.634101	0.392596
C84	C	0.750062	-0.384101	0.642596
C85	C	0.000061	-1.226397	-0.109019
C86	C	0.250061	-0.976397	0.140981
C87	C	0.500061	-0.726397	0.390981
C88	C	0.750061	-0.476397	0.640981
C89	C	0.000042	-0.515522	-0.190018
C90	C	0.250042	-0.265522	0.059982
C91	C	0.500042	-0.015522	0.309982
C92	C	0.750042	0.234478	0.559982
C93	C	0.000049	-0.428801	-0.188494
C94	C	0.250049	-0.178801	0.061506
C95	C	0.500049	0.071199	0.311506
C96	C	0.750049	0.321199	0.561506
C97	C	0.000059	-0.448676	-0.037006
C98	C	0.250059	-0.198676	0.212994
C99	C	0.500059	0.051324	0.462994
C100	C	0.750059	0.301324	0.712994
C101	C	0.000059	-0.535394	-0.038530
C102	C	0.250059	-0.285394	0.211470
C103	C	0.500059	-0.035394	0.461470
C104	C	0.750059	0.214606	0.711470
C105	C	0.000046	-0.568815	-0.115039
C106	C	0.250046	-0.318815	0.134961
C107	C	0.500046	-0.068815	0.384961
C108	C	0.750046	0.181185	0.634961
C109	C	0.000052	-0.395376	-0.111990
C110	C	0.250052	-0.145376	0.138010
C111	C	0.500052	0.104624	0.388010
C112	C	0.750052	0.354624	0.638010
C113	C	0.000059	-0.301350	-0.110337
C114	C	0.250059	-0.051350	0.139663
C115	C	0.500059	0.198650	0.389663
C116	C	0.750059	0.448650	0.639663
C117	C	0.000041	-0.662847	-0.116693
C118	C	0.250041	-0.412847	0.133307
C119	C	0.500041	-0.162847	0.383307
C120	C	0.750041	0.087153	0.633307
C121	C	0.000040	-0.975984	-0.265521
C122	C	0.250040	-0.725984	-0.015521
C123	C	0.500040	-0.475984	0.234479
C124	C	0.750040	-0.225984	0.484479
C125	C	0.000032	-0.977600	-0.357816
C126	C	0.250032	-0.727600	-0.107816
C127	C	0.500032	-0.477600	0.142184
C128	C	0.750032	-0.227600	0.392184
C129	C	0.000055	-1.058599	0.353059
C130	C	0.250055	-0.808599	0.603059
C131	C	0.500055	-0.558599	0.853059
C132	C	0.750055	-0.308599	1.103059
C133	C	0.000046	-1.057075	0.439779
C134	C	0.250046	-0.807075	0.689779
C135	C	0.500046	-0.557075	0.939779
C136	C	0.750046	-0.307075	1.189779
C137	C	0.000040	-0.905586	0.419905
C138	C	0.250040	-0.655586	0.669905
C139	C	0.500040	-0.405586	0.919905
C140	C	0.750040	-0.155586	1.169905
C141	C	0.000041	-0.907111	0.333186
C142	C	0.250041	-0.657111	0.583186
C143	C	0.500041	-0.407111	0.833186
C144	C	0.750041	-0.157111	1.083186
C145	C	0.000054	-0.983620	0.299766
C146	C	0.250054	-0.733620	0.549766
C147	C	0.500054	-0.483620	0.799766
C148	C	0.750054	-0.233620	1.049766
C149	C	0.000044	-0.980571	0.473205
C150	C	0.250044	-0.730571	0.723205
C151	C	0.500044	-0.480571	0.973205
C152	C	0.750044	-0.230571	1.223205
C153	C	0.000035	-0.978918	0.567231
C154	C	0.250035	-0.728918	0.817231
C155	C	0.500035	-0.478918	1.067231
C156	C	0.750035	-0.228918	1.317231
C157	C	0.000061	-0.985273	0.205734
C158	C	0.250061	-0.735273	0.455734
C159	C	0.500061	-0.485273	0.705734
C160	C	0.750061	-0.235273	0.955734
H161	H	0.000048	-0.385413	-0.249550
H162	H	0.250048	-0.135413	0.000450
H163	H	0.500048	0.114587	0.250450
H164	H	0.750048	0.364587	0.500450
F165	F	0.000032	-0.551087	-0.271446
F166	F	0.250032	-0.301087	-0.021446
F167	F	0.500032	-0.051087	0.228554
F168	F	0.750032	0.198913	0.478554
F169	F	0.000068	-0.413100	0.044416
F170	F	0.250068	-0.163100	0.294416
F171	F	0.500068	0.086900	0.544416
F172	F	0.750068	0.336900	0.794416
H173	H	0.000063	-1.120897	0.325851
H174	H	0.250063	-0.870897	0.575851
H175	H	0.500063	-0.620897	0.825851
H176	H	0.750063	-0.370897	1.075851
F177	F	0.000045	-1.136878	0.496495
F178	F	0.250045	-0.886878	0.746495
F179	F	0.500045	-0.636878	0.996495
F180	F	0.750045	-0.386878	1.246495
H181	H	0.000065	-0.578788	0.022530
H182	H	0.250065	-0.328788	0.272530
H183	H	0.500065	-0.078788	0.522530
H184	H	0.750065	0.171212	0.772530
F185	F	0.000026	-0.824164	0.455481
F186	F	0.250026	-0.574164	0.705481
F187	F	0.500026	-0.324164	0.955481
F188	F	0.750026	-0.074164	1.205481
H189	H	0.000037	-0.846050	0.289792
H190	H	0.250037	-0.596050	0.539792
H191	H	0.500037	-0.346050	0.789792
H192	H	0.750037	-0.096050	1.039792
