data_functionalizedCrystal
_audit_creation_method	'MofGen! by Chris Wilmer'
_symmetry_space_group_name_H-M	'P1'
_symmetry_Int_Tables_number	1
_symmetry_cell_setting	triclinic
loop_
_symmetry_equiv_pos_as_xyz
  x,y,z
_cell_length_a	10.654541
_cell_length_b	16.109301
_cell_length_c	15.186229
_cell_angle_alpha	90.000638
_cell_angle_beta	89.996481
_cell_angle_gamma	96.027295
loop_
_atom_site_label
_atom_site_type_symbol
_atom_site_fract_x
_atom_site_fract_y
_atom_site_fract_z
O1	O	0.161419	-1.104089	-0.073172
O2	O	0.181508	-0.862147	-0.073186
O3	O	-0.011352	-0.988682	-0.073174
O4	O	0.354278	-0.977554	-0.073185
O5	O	-0.011354	-0.988673	0.073284
O6	O	0.181505	-0.862138	0.073271
O7	O	0.161416	-1.104081	0.073285
Zn8	Zn	0.171460	-0.983108	0.096531
Zn9	Zn	0.171464	-0.983119	-0.096433
O10	O	0.354276	-0.977546	0.073272
C11	C	-0.058140	-0.987861	0.000054
C12	C	-0.197550	-0.985418	0.000053
C13	C	0.180692	-0.831163	0.000040
C14	C	0.178253	-0.738853	0.000035
C15	C	0.162231	-1.135065	0.000056
C16	C	0.164671	-1.227375	0.000055
C17	C	-0.227574	-1.136725	0.000073
C18	C	-0.308079	-1.211227	0.000084
C19	C	-0.439066	-1.208926	0.000081
C20	C	-0.489549	-1.132115	0.000064
C21	C	-0.409044	-1.057613	0.000053
C22	C	-0.278056	-1.059922	0.000058
C23	C	-0.379021	-0.906308	0.000026
C24	C	-0.248034	-0.908607	0.000036
C25	C	-0.429504	-0.829496	0.000009
C26	C	-0.348998	-0.754992	0.000004
C27	C	-0.218004	-0.757296	0.000008
C28	C	-0.167529	-0.834104	0.000024
C29	C	0.401064	-0.978367	0.000042
C30	C	0.540474	-0.980810	0.000038
N31	N	0.171457	-0.983107	0.228224
C32	C	0.287019	-0.517227	0.000042
C33	C	0.284717	-0.430493	0.000048
C34	C	0.055896	-0.449008	0.000051
C35	C	0.058200	-0.535740	0.000052
C36	C	0.173765	-0.569847	0.000043
C37	C	0.169159	-0.396381	0.000048
C38	C	0.166662	-0.302340	0.000054
C39	C	0.176262	-0.663894	0.000038
N40	N	0.171457	-0.983128	-0.228125
C41	C	0.086088	-1.039156	0.453952
C42	C	0.086085	-1.039158	0.546142
C43	C	0.256830	-0.927072	0.546140
C44	C	0.256826	-0.927066	0.453952
C45	C	0.171456	-0.983113	0.407860
C46	C	0.171458	-0.983121	0.592238
C47	C	0.171455	-0.983124	0.692194
C48	C	0.171457	-0.983110	0.307898
H49	H	-0.120919	-1.138606	0.000087
H50	H	-0.596207	-1.130248	0.000051
O51	O	0.399384	-0.550222	0.000080
C52	C	0.626099	-0.522699	0.000031
C53	C	0.498932	-0.485225	0.000005
H54	H	0.706617	-0.470167	-0.000049
H55	H	0.632978	-0.562812	0.061337
H56	H	0.632838	-0.562870	-0.061247
H57	H	0.492107	-0.445016	0.061241
H58	H	0.492107	-0.445160	-0.061342
H59	H	0.016568	-1.084792	0.583667
H60	H	0.376940	-0.387652	0.000049
O61	O	0.003034	-1.093622	0.409315
C62	C	-0.166279	-1.204825	0.419051
C63	C	-0.072303	-1.143174	0.469709
H64	H	-0.227195	-1.244916	0.467858
H65	H	-0.229119	-1.168610	0.375923
H66	H	-0.112022	-1.246631	0.375860
H67	H	-0.126456	-1.101354	0.512948
H68	H	-0.009464	-1.179441	0.512782
H69	H	-0.034032	-0.578586	0.000055
O70	O	-0.056248	-0.415737	0.000014
C71	C	-0.161210	-0.290327	0.000063
C72	C	-0.034116	-0.327893	0.000088
H73	H	-0.143360	-0.219301	0.000141
H74	H	-0.217189	-0.311887	-0.061243
H75	H	-0.217178	-0.311993	0.061341
H76	H	0.021955	-0.306244	-0.061149
H77	H	0.021768	-0.306336	0.061434
O78	O	-0.139932	-0.684868	-0.000123
C79	C	-0.074140	-0.556286	-0.076052
C80	C	-0.162642	-0.638272	-0.076003
H81	H	-0.092450	-0.518598	-0.137404
H82	H	-0.092516	-0.518455	-0.014811
H83	H	0.028143	-0.571141	-0.076002
H84	H	-0.264956	-0.623492	-0.076084
H85	H	-0.144156	-0.676079	-0.137238
H86	H	0.326339	-0.881442	0.583677
O87	O	0.339881	-0.872593	0.409309
C88	C	0.509187	-0.761385	0.419027
C89	C	0.415226	-0.823043	0.469695
H90	H	0.570110	-0.721295	0.467827
H91	H	0.572022	-0.797594	0.375882
H92	H	0.454917	-0.719578	0.375852
H93	H	0.469393	-0.864864	0.512918
H94	H	0.352392	-0.786782	0.512784
H95	H	-0.536161	-0.827628	0.000001
H96	H	-0.266961	-1.273765	0.000106
H97	H	-0.390113	-0.692459	-0.000016
H98	H	-0.060874	-0.835988	0.000032
H99	H	-0.504614	-1.269593	0.000084
