data_functionalizedCrystal
_audit_creation_method	'MofGen! by Chris Wilmer'
_symmetry_space_group_name_H-M	'P1'
_symmetry_Int_Tables_number	1
_symmetry_cell_setting	triclinic
loop_
_symmetry_equiv_pos_as_xyz
  x,y,z
_cell_length_a	13.897447
_cell_length_b	25.639242
_cell_length_c	25.639217
_cell_angle_alpha	90.082993
_cell_angle_beta	89.891836
_cell_angle_gamma	89.985443
loop_
_atom_site_label
_atom_site_type_symbol
_atom_site_fract_x
_atom_site_fract_y
_atom_site_fract_z
Zn1	Zn	-0.383361	-0.799601	-0.295781
Zn2	Zn	-0.544905	-0.799463	-0.208353
Zn3	Zn	-0.383611	-0.712087	-0.208343
Zn4	Zn	-0.544602	-0.712152	-0.295741
O5	O	-0.464120	-0.755826	-0.252055
O6	O	-0.404812	-0.872748	-0.284205
O7	O	-0.523740	-0.787788	-0.135186
O8	O	-0.248596	-0.723727	-0.219954
O9	O	-0.523498	-0.872647	-0.219972
O10	O	-0.248413	-0.788023	-0.284195
O11	O	-0.405239	-0.723593	-0.135179
O12	O	-0.404945	-0.638930	-0.219915
O13	O	-0.522981	-0.723837	-0.368912
O14	O	-0.523224	-0.638978	-0.284126
O15	O	-0.404518	-0.788086	-0.368941
O16	O	-0.679846	-0.787851	-0.219932
O17	O	-0.679624	-0.723704	-0.284136
C18	C	-0.464080	-0.619983	-0.252016
C19	C	-0.464086	-0.561869	-0.252011
C20	C	-0.525802	-0.201540	-0.285444
C21	C	-0.525807	-0.146936	-0.285451
O22	O	-0.578238	-0.118728	-0.313853
N23	N	-0.464136	-0.119587	-0.252073
C24	C	-0.402449	-0.146845	-0.218690
O25	O	-0.349993	-0.118569	-0.190300
C26	C	-0.402440	-0.201449	-0.218686
C27	C	-0.464122	-0.228795	-0.252062
C28	C	-0.587478	-0.228886	-0.318818
C29	C	-0.587474	-0.283487	-0.318810
C30	C	-0.525794	-0.310741	-0.285428
C31	C	-0.464118	-0.283395	-0.252054
C32	C	-0.340749	-0.228706	-0.185306
C33	C	-0.340745	-0.283313	-0.185305
C34	C	-0.402426	-0.310659	-0.218681
C35	C	-0.402434	-0.365250	-0.218665
N36	N	-0.464105	-0.392599	-0.252043
C37	C	-0.525785	-0.365344	-0.285424
C38	C	-0.402472	-0.032175	-0.218701
C39	C	-0.402485	0.022428	-0.218702
C40	C	-0.525842	0.022333	-0.285464
C41	C	-0.525833	-0.032270	-0.285460
C42	C	-0.464143	-0.059523	-0.252079
C43	C	-0.525772	-0.480009	-0.285405
C44	C	-0.525766	-0.534615	-0.285393
C45	C	-0.402406	-0.534516	-0.218634
C46	C	-0.402416	-0.479915	-0.218644
C47	C	-0.464102	-0.452663	-0.252034
O48	O	-0.350027	-0.393493	-0.190279
O49	O	-0.578223	-0.393627	-0.313814
C50	C	-0.714734	-0.755783	-0.252042
C51	C	-0.821948	-0.755813	-0.252055
C52	C	-0.909018	-0.755838	-0.252067
C53	C	-1.018250	-0.755875	-0.252080
C54	C	-0.212527	-0.755883	-0.252078
C55	C	-0.105313	-0.755907	-0.252088
C56	C	-0.463688	-0.755984	-0.388428
C57	C	-0.463504	-0.756052	-0.446542
C58	C	-0.464157	0.107801	-0.252088
C59	C	-0.464162	0.049687	-0.252086
C60	C	-0.464480	-0.755698	-0.116212
C61	C	-0.464392	-0.755732	-0.058098
C62	C	-0.401886	-0.789067	0.192927
C63	C	-0.401965	-0.789038	0.138323
O64	O	-0.349152	-0.817249	0.109943
N65	N	-0.464132	-0.755818	0.111176
C66	C	-0.526218	-0.722622	0.138636
O67	O	-0.579103	-0.694363	0.110531
C68	C	-0.526134	-0.722649	0.193239
C69	C	-0.463969	-0.755875	0.220383
C70	C	-0.339726	-0.822290	0.220072
C71	C	-0.339649	-0.822320	0.274672
C72	C	-0.401732	-0.789127	0.302128
C73	C	-0.463892	-0.755905	0.274984
C74	C	-0.588214	-0.689451	0.220698
C75	C	-0.588123	-0.689481	0.275305
C76	C	-0.525959	-0.722706	0.302449
C77	C	-0.525898	-0.722742	0.357040
N78	N	-0.463730	-0.755962	0.384188
C79	C	-0.401647	-0.789155	0.356731
C80	C	-0.526389	-0.722567	0.023965
C81	C	-0.526479	-0.722542	-0.030637
C82	C	-0.402225	-0.788957	-0.030946
C83	C	-0.402140	-0.788984	0.023657
C84	C	-0.464222	-0.755786	0.051113
C85	C	-0.401490	-0.789216	0.471396
C86	C	-0.401421	-0.789244	0.526002
C87	C	-0.525672	-0.722827	0.526306
C88	C	-0.525745	-0.722800	0.471705
C89	C	-0.463646	-0.755996	0.444252
O90	O	-0.578681	-0.694544	0.385455
O91	O	-0.348763	-0.817404	0.384843
H92	H	-0.637706	-0.206701	-0.346004
H93	H	-0.290523	-0.206450	-0.158126
C94	C	-0.655325	-0.313560	-0.355529
N95	N	-0.706432	-0.336208	-0.383190
C96	C	-0.333184	-0.825736	0.441205
N97	N	-0.281741	-0.853245	0.418466
H98	H	-0.576058	-0.054531	-0.312638
H99	H	-0.351519	-0.816038	0.045755
H100	H	-0.290502	-0.305500	-0.158125
C101	C	-0.656423	-0.652961	0.305502
N102	N	-0.707868	-0.625455	0.328246
C103	C	-0.271249	-0.858863	0.304523
N104	N	-0.219721	-0.886387	0.327004
C105	C	-0.334550	-0.564506	-0.181922
N106	N	-0.283431	-0.587097	-0.154275
H107	H	-0.352267	0.044688	-0.191518
H108	H	-0.350799	-0.816302	0.548100
H109	H	-0.351671	-0.815983	-0.053311
H110	H	-0.577110	-0.695492	-0.052733
C111	C	-0.593955	-0.686315	0.556518
N112	N	-0.645380	-0.658810	0.579276
H113	H	-0.638835	-0.662395	0.198607
H114	H	-0.576949	-0.695532	0.046316
H115	H	-0.352237	-0.054361	-0.191514
H116	H	-0.289165	-0.849319	0.197722
C117	C	-0.594134	-0.686254	0.441846
N118	N	-0.645640	-0.658723	0.419359
C119	C	-0.593623	-0.564692	-0.322112
N120	N	-0.644730	-0.587345	-0.349768
C121	C	-0.334570	-0.449834	-0.181924
N122	N	-0.283462	-0.427180	-0.154270
C123	C	-0.593685	0.052324	-0.322188
N124	N	-0.644780	0.074914	-0.349848
C125	C	-0.593638	-0.450040	-0.322132
N126	N	-0.644760	-0.427468	-0.349792
