data_functionalizedCrystal
_audit_creation_method	'MofGen! by Chris Wilmer'
_symmetry_space_group_name_H-M	'P1'
_symmetry_Int_Tables_number	1
_symmetry_cell_setting	triclinic
loop_
_symmetry_equiv_pos_as_xyz
  x,y,z
_cell_length_a	18.215407
_cell_length_b	18.050589
_cell_length_c	18.215399
_cell_angle_alpha	89.976397
_cell_angle_beta	89.980167
_cell_angle_gamma	90.028669
loop_
_atom_site_label
_atom_site_type_symbol
_atom_site_fract_x
_atom_site_fract_y
_atom_site_fract_z
Zn1	Zn	1.125055	-0.295658	-0.416138
Zn2	Zn	1.124956	-0.419853	-0.293081
Zn3	Zn	1.001987	-0.295682	-0.293085
Zn4	Zn	1.001946	-0.419812	-0.416106
O5	O	1.063486	-0.357751	-0.354603
O6	O	1.228026	-0.312140	-0.399826
O7	O	1.108620	-0.403409	-0.190097
O8	O	1.018371	-0.191755	-0.309424
O9	O	1.227953	-0.403386	-0.309417
O10	O	1.108788	-0.191737	-0.399830
O11	O	1.018275	-0.312181	-0.190101
O12	O	0.898998	-0.312141	-0.309393
O13	O	1.018301	-0.403315	-0.519095
O14	O	0.898967	-0.403339	-0.399775
O15	O	1.108748	-0.312100	-0.519118
O16	O	1.108580	-0.523772	-0.309385
O17	O	1.018205	-0.523742	-0.399771
C18	C	0.872280	-0.357739	-0.354582
C19	C	0.790481	-0.357751	-0.354590
C20	C	0.602291	-0.405312	-0.401593
C21	C	0.525432	-0.405315	-0.401602
C22	C	0.525434	-0.310204	-0.307628
C23	C	0.602291	-0.310199	-0.307623
C24	C	0.640718	-0.357757	-0.354605
C25	C	0.487001	-0.357765	-0.354619
C26	C	0.403668	-0.357767	-0.354628
C27	C	0.724056	-0.357754	-0.354596
C28	C	1.063397	-0.550704	-0.354590
C29	C	1.063427	-0.633249	-0.354610
C30	C	1.014329	-0.832710	-0.403744
C31	C	0.996389	-0.882151	-0.336590
C32	C	1.063499	-0.784380	-0.354619
C33	C	1.081475	-0.882021	-0.421781
C34	C	1.063567	-0.930365	-0.354635
C35	C	1.045524	-0.832733	-0.287430
C36	C	1.130641	-0.832599	-0.372666
C37	C	1.112726	-0.882017	-0.305466
C38	C	1.063458	-0.700281	-0.354612
C39	C	1.063609	-1.014461	-0.354635
C40	C	1.255439	-0.357765	-0.354624
C41	C	1.337238	-0.357770	-0.354634
C42	C	1.063531	-0.357700	-0.546556
C43	C	1.063550	-0.357678	-0.628355
C44	C	1.063595	-0.164046	-0.354631
C45	C	1.063642	-0.081500	-0.354643
C46	C	1.110663	-0.310138	-0.816562
C47	C	1.110672	-0.310117	-0.893421
C48	C	1.016489	-0.405104	-0.893385
C49	C	1.016477	-0.405121	-0.816528
C50	C	1.063568	-0.357639	-0.778118
C51	C	1.063589	-0.357600	-0.931834
C52	C	1.063598	-0.357577	-1.015168
C53	C	1.063558	-0.357661	-0.694779
C54	C	1.063484	-0.357749	-0.163396
C55	C	1.063607	-0.357561	-0.081598
H56	H	0.972687	-0.811060	-0.445229
O57	O	1.027214	-0.806983	-0.219704
C58	C	0.963093	-0.763569	-0.224817
H59	H	0.931089	-0.779991	-0.276065
H60	H	0.978793	-0.702525	-0.228362
C61	C	0.954381	-0.756250	-0.093444
C62	C	0.915071	-0.776426	-0.156384
H63	H	0.924760	-0.764178	-0.051230
H64	H	0.997582	-0.785497	-0.089998
H65	H	0.967462	-0.705382	-0.096408
H66	H	0.901999	-0.827296	-0.153424
H67	H	0.871866	-0.747188	-0.159827
H68	H	0.633579	-0.271469	-0.269360
O69	O	0.928644	-0.908086	-0.318502
C70	C	0.876929	-0.882954	-0.370412
H71	H	0.906157	-0.869038	-0.424024
H72	H	0.848351	-0.831321	-0.348493
C73	C	0.783662	-0.961140	-0.318453
C74	C	0.819560	-0.944054	-0.384303
H75	H	0.748272	-0.998827	-0.327020
H76	H	0.818502	-0.978070	-0.283478
H77	H	0.759853	-0.918107	-0.300194
H78	H	0.843376	-0.987084	-0.402556
H79	H	0.784723	-0.927133	-0.419282
O80	O	0.970647	-0.451151	-0.930664
C81	C	0.897305	-0.434937	-0.911860
H82	H	0.893615	-0.375612	-0.890745
H83	H	0.878041	-0.474761	-0.867234
C84	C	0.852728	-0.516431	-1.006057
C85	C	0.848196	-0.443565	-0.980129
H86	H	0.822434	-0.521756	-1.048167
H87	H	0.902140	-0.527358	-1.018724
H88	H	0.836677	-0.549610	-0.968863
H89	H	0.864256	-0.410388	-1.017320
H90	H	0.798785	-0.432632	-0.967470
H91	H	1.154337	-0.903530	-0.263881
H92	H	0.633575	-0.444035	-0.439850
H93	H	0.494148	-0.444038	-0.439866
O94	O	1.156349	-0.263996	-0.930879
C95	C	1.146274	-0.274169	-1.006952
H96	H	1.089469	-0.298489	-1.017433
H97	H	1.189910	-0.313709	-1.028769
C98	C	1.222827	-0.169144	-1.033547
C99	C	1.153056	-0.199009	-1.046421
H100	H	1.227013	-0.122783	-1.057895
H101	H	1.229617	-0.162292	-0.982296
H102	H	1.259182	-0.202101	-1.051728
H103	H	1.116702	-0.166056	-1.028232
H104	H	1.146259	-0.205853	-1.097671
O105	O	1.198301	-0.806643	-0.391023
C106	C	1.217014	-0.831725	-0.461892
H107	H	1.164852	-0.845632	-0.493595
H108	H	1.252744	-0.883353	-0.457286
C109	C	1.323718	-0.753514	-0.463763
C110	C	1.259651	-0.770589	-0.502704
H111	H	1.350021	-0.715805	-0.488937
H112	H	1.311113	-0.736617	-0.416016
H113	H	1.353484	-0.796543	-0.459927
H114	H	1.229882	-0.727563	-0.506531
H115	H	1.272252	-0.787477	-0.550452
O116	O	0.487991	-0.264080	-0.262015
C117	C	0.411914	-0.274267	-0.272107
H118	H	0.401402	-0.331612	-0.296112
H119	H	0.390140	-0.230270	-0.311375
C120	C	0.385338	-0.196932	-0.168177
C121	C	0.372426	-0.267367	-0.197655
H122	H	0.360978	-0.192672	-0.122253
H123	H	0.436592	-0.190066	-0.161379
H124	H	0.367193	-0.160275	-0.200908
H125	H	0.390579	-0.304021	-0.164929
H126	H	0.321174	-0.274239	-0.204446
H127	H	1.096652	-0.903671	-0.478573
O128	O	1.156424	-0.263942	-0.779364
C129	C	1.198004	-0.222024	-0.829781
H130	H	1.167869	-0.219442	-0.884562
H131	H	1.253885	-0.249218	-0.837961
C132	C	1.245657	-0.146162	-0.732521
C133	C	1.208642	-0.142985	-0.799802
H134	H	1.252223	-0.097408	-0.714028
H135	H	1.217647	-0.174404	-0.698553
H136	H	1.292221	-0.168826	-0.739347
H137	H	1.162077	-0.120329	-0.792974
H138	H	1.236646	-0.114737	-0.833768
O139	O	0.970807	-0.451374	-0.779211
C140	C	0.986841	-0.525388	-0.797991
H141	H	1.045633	-0.529137	-0.819132
H142	H	0.947380	-0.544792	-0.842589
C143	C	0.906033	-0.570359	-0.703737
C144	C	0.978245	-0.574964	-0.729696
H145	H	0.900727	-0.600941	-0.661611
H146	H	0.895228	-0.520495	-0.691086
H147	H	0.873157	-0.586528	-0.740908
H148	H	1.011119	-0.558787	-0.692528
H149	H	0.989055	-0.624827	-0.742339
