data_functionalizedCrystal
_audit_creation_method	'MofGen! by Chris Wilmer'
_symmetry_space_group_name_H-M	'P1'
_symmetry_Int_Tables_number	1
_symmetry_cell_setting	triclinic
loop_
_symmetry_equiv_pos_as_xyz
  x,y,z
_cell_length_a	10.685980
_cell_length_b	10.685194
_cell_length_c	17.077396
_cell_angle_alpha	85.601377
_cell_angle_beta	85.608474
_cell_angle_gamma	98.380820
loop_
_atom_site_label
_atom_site_type_symbol
_atom_site_fract_x
_atom_site_fract_y
_atom_site_fract_z
Zn1	Zn	1.901895	-0.356654	-0.517653
Zn2	Zn	1.885537	-0.568957	-0.375483
Zn3	Zn	1.689635	-0.372966	-0.375488
Zn4	Zn	1.673368	-0.585137	-0.495804
O5	O	1.787609	-0.470928	-0.441107
O6	O	2.077350	-0.371218	-0.507936
O7	O	1.859512	-0.543014	-0.265632
O8	O	1.731446	-0.193158	-0.403493
O9	O	2.065332	-0.527196	-0.403484
O10	O	1.887392	-0.181173	-0.507941
O11	O	1.715584	-0.399020	-0.265636
O12	O	1.509852	-0.414709	-0.382306
O13	O	1.703721	-0.554773	-0.608554
O14	O	1.497901	-0.570590	-0.470702
O15	O	1.871619	-0.386907	-0.624606
O16	O	1.843738	-0.748747	-0.382297
O17	O	1.687859	-0.760635	-0.470697
C18	C	1.457820	-0.496177	-0.424134
C19	C	1.316733	-0.507009	-0.416890
C20	C	1.762292	-0.800750	-0.424144
C21	C	1.751578	-0.941840	-0.416920
C22	C	2.118685	-0.445582	-0.458147
C23	C	2.259770	-0.434782	-0.465408
C24	C	1.787680	-0.470825	-0.645860
C25	C	1.787710	-0.470781	-0.733113
C26	C	1.813058	-0.139817	-0.458155
C27	C	1.823904	0.001283	-0.465420
C28	C	1.712793	-0.395792	-0.774106
C29	C	1.712815	-0.395762	-0.856089
C30	C	1.787764	-0.470714	-0.897078
C31	C	1.862685	-0.545712	-0.856079
C32	C	1.862654	-0.545749	-0.774097
C33	C	1.862746	-0.545629	-1.026956
C34	C	1.862778	-0.545591	-1.108944
C35	C	1.712907	-0.395642	-1.108949
C36	C	1.712876	-0.395678	-1.026966
C37	C	1.787799	-0.470674	-0.985973
C38	C	1.787618	-0.470934	-0.237159
C39	C	1.787861	-0.470602	-0.149937
H40	H	1.318937	-0.364651	-0.512489
O41	O	1.658695	-1.020315	-0.354584
H42	H	1.589545	-1.085692	-0.383295
H43	H	1.651805	-0.334703	-0.889462
H44	H	1.257559	-0.577136	-0.369802
H45	H	1.894023	-0.939475	-0.512473
O46	O	1.943568	-0.626505	-0.982743
H47	H	1.914163	-0.727798	-0.992229
O48	O	1.631961	-0.314944	-0.729898
H49	H	1.579863	-0.262802	-0.772179
O50	O	1.632051	-0.314820	-0.982762
H51	H	1.563094	-0.376589	-0.939154
O52	O	1.632086	-0.314757	-1.153155
H53	H	1.644682	-0.327333	-1.217047
H54	H	1.923808	-0.606624	-1.142315
H55	H	1.923702	-0.606747	-0.889458
H56	H	1.923670	-0.606802	-0.740722
