data_functionalizedCrystal
_audit_creation_method	'MofGen! by Chris Wilmer'
_symmetry_space_group_name_H-M	'P1'
_symmetry_Int_Tables_number	1
_symmetry_cell_setting	triclinic
loop_
_symmetry_equiv_pos_as_xyz
  x,y,z
_cell_length_a	21.395364
_cell_length_b	15.297327
_cell_length_c	21.395355
_cell_angle_alpha	80.340321
_cell_angle_beta	90.024516
_cell_angle_gamma	99.702752
loop_
_atom_site_label
_atom_site_type_symbol
_atom_site_fract_x
_atom_site_fract_y
_atom_site_fract_z
Zn1	Zn	0.914687	-0.359380	0.397438
Zn2	Zn	0.896469	-0.510227	0.310784
Zn3	Zn	0.809903	-0.359369	0.292674
Zn4	Zn	0.791754	-0.510193	0.415520
O5	O	0.853203	-0.434792	0.354104
O6	O	0.999946	-0.379410	0.385955
O7	O	0.884956	-0.490225	0.220705
O8	O	0.839023	-0.233121	0.291424
O9	O	0.986561	-0.490236	0.322291
O10	O	0.916007	-0.233129	0.368394
O11	O	0.821357	-0.379391	0.207399
O12	O	0.719820	-0.379357	0.308958
O13	O	0.808091	-0.490177	0.500798
O14	O	0.706486	-0.490167	0.399212
O15	O	0.898409	-0.379376	0.487514
O16	O	0.867358	-0.636473	0.339824
O17	O	0.790425	-0.636447	0.416773
C18	C	0.824962	-0.669195	0.382240
C19	C	0.812938	-0.769474	0.394297
C20	C	0.690420	-0.434758	0.354082
C21	C	0.620778	-0.434765	0.354091
C22	C	0.125931	-0.377221	0.387345
C23	C	0.191367	-0.377215	0.387344
C24	C	0.217133	-0.434820	0.354121
C25	C	0.177454	-0.492453	0.320911
C26	C	0.112019	-0.492464	0.320918
C27	C	0.319930	-0.441806	0.298494
C28	C	0.385365	-0.441788	0.298485
C29	C	0.418957	-0.434790	0.354101
C30	C	0.387108	-0.427790	0.409725
C31	C	0.321673	-0.427802	0.409732
C32	C	0.288086	-0.434814	0.354110
C33	C	0.529580	-0.377158	0.387311
C34	C	0.595017	-0.377158	0.387312
C35	C	0.581103	-0.492391	0.320874
C36	C	0.515668	-0.492396	0.320879
C37	C	0.489910	-0.434775	0.354096
C38	C	0.939402	-1.052069	0.268141
C39	C	0.950699	-0.957853	0.256809
C40	C	0.916260	-0.910753	0.291180
C41	C	0.870521	-0.957880	0.336885
C42	C	0.859219	-1.052106	0.348214
C43	C	0.836078	-0.910790	0.371254
C44	C	0.790339	-0.957916	0.416959
C45	C	0.779039	-1.052133	0.428286
C46	C	0.813479	-1.099232	0.393915
C47	C	0.847379	-0.816564	0.359924
C48	C	0.767197	-0.816600	0.439998
C49	C	0.755900	-0.910817	0.451330
C50	C	1.016622	-0.434828	0.354126
C51	C	1.086262	-0.434843	0.354136
C52	C	0.853258	-0.434774	0.517525
C53	C	0.853281	-0.434766	0.587166
C54	C	0.881572	-0.199474	0.325872
C55	C	0.893661	-0.099196	0.313841
C56	C	0.853193	-0.434746	0.191311
C57	C	0.853322	-0.434499	0.121640
C58	C	0.900308	-0.377070	0.612962
C59	C	0.900312	-0.377031	0.678393
C60	C	0.853293	-0.434705	0.718027
C61	C	0.806257	-0.492406	0.692223
C62	C	0.806251	-0.492436	0.626792
C63	C	0.838559	-0.515939	0.831452
C64	C	0.838569	-0.515909	0.896881
C65	C	0.853308	-0.434610	0.919836
C66	C	0.868051	-0.353337	0.877353
C67	C	0.868045	-0.353367	0.811922
C68	C	0.853294	-0.434678	0.788976
C69	C	0.900342	-0.376866	1.016579
C70	C	0.900342	-0.376826	1.082011
C71	C	0.806290	-0.492208	1.095841
C72	C	0.806288	-0.492241	1.030409
C73	C	0.853317	-0.434571	0.990783
H74	H	0.223672	-0.330288	0.414385
H75	H	0.627315	-0.330238	0.414360
H76	H	0.295744	-0.422105	0.455023
O77	O	0.287251	-0.448476	0.244480
C78	C	0.258658	-0.371649	0.227270
H79	H	0.252708	-0.339831	0.270937
H80	H	0.289959	-0.321009	0.190106
C81	C	0.200490	-0.438194	0.146055
C82	C	0.193177	-0.399119	0.199689
H83	H	0.160099	-0.455137	0.129039
H84	H	0.219755	-0.489953	0.157648
H85	H	0.226576	-0.395988	0.115092
H86	H	0.167098	-0.441329	0.230654
H87	H	0.173906	-0.347369	0.188101
H88	H	0.739152	-0.778252	0.467985
H89	H	0.104964	-0.330305	0.414396
O90	O	0.734678	-1.097870	0.472765
C91	C	0.751102	-1.074774	0.532446
H92	H	0.804268	-1.048819	0.532533
H93	H	0.724060	-1.020106	0.542220
C94	C	0.668455	-1.190330	0.584209
C95	C	0.733755	-1.158459	0.584318
H96	H	0.657752	-1.241949	0.616208
H97	H	0.657387	-1.205889	0.544001
H98	H	0.645928	-1.144766	0.592352
H99	H	0.756280	-1.204019	0.576167
H100	H	0.744825	-1.142910	0.624526
H101	H	0.414458	-0.422087	0.455012
O102	O	0.946060	-0.320956	0.703360
C103	C	0.987557	-0.270045	0.654352
H104	H	0.985265	-0.307016	0.612149
H105	H	0.972879	-0.201519	0.639154
C106	C	1.058622	-0.211650	0.730192
C107	C	1.055812	-0.257062	0.678359
H108	H	1.100724	-0.203637	0.745001
H109	H	1.030664	-0.245947	0.763210
H110	H	1.046387	-0.154550	0.717520
H111	H	1.068038	-0.314165	0.691034
H112	H	1.083773	-0.222774	0.645344
H113	H	0.508608	-0.330239	0.414359
O114	O	0.606231	-0.548268	0.288613
C115	C	0.672491	-0.535923	0.295743
H116	H	0.689816	-0.466338	0.307985
H117	H	0.684625	-0.589501	0.335482
C118	C	0.683797	-0.629526	0.218279
C119	C	0.705076	-0.544058	0.233310
H120	H	0.703897	-0.634548	0.179769
H121	H	0.639156	-0.637846	0.213477
H122	H	0.693910	-0.674165	0.251399
H123	H	0.694956	-0.499421	0.200194
H124	H	0.749716	-0.535731	0.238105
H125	H	0.880047	-0.287192	0.777335
O126	O	0.477224	-0.548391	0.288557
C127	C	0.513992	-0.599252	0.259246
H128	H	0.565084	-0.562287	0.252677
H129	H	0.512708	-0.667818	0.290343
C130	C	0.424119	-0.657519	0.202162
C131	C	0.486870	-0.612115	0.194089
H132	H	0.407388	-0.665459	0.161971
H133	H	0.399346	-0.623257	0.221911
H134	H	0.423058	-0.714653	0.228078
H135	H	0.487930	-0.554978	0.168180
H136	H	0.511643	-0.646369	0.174334
H137	H	0.411292	-0.447482	0.253191
O138	O	0.945947	-0.320672	1.107084
C139	C	0.917303	-0.262384	1.137922
H140	H	0.868628	-0.256813	1.117513
H141	H	0.911787	-0.290245	1.190863
C142	C	1.019004	-0.175443	1.152732
C143	C	0.959221	-0.168595	1.127660
H144	H	1.044861	-0.117591	1.146404
H145	H	1.038302	-0.214715	1.131958
H146	H	1.014398	-0.198664	1.196847
H147	H	0.963827	-0.145385	1.083545
H148	H	0.939925	-0.129317	1.148426
H149	H	0.198437	-0.539358	0.293863
O150	O	0.945899	-0.320978	0.574401
C151	C	0.917237	-0.262700	0.529562
H152	H	0.865925	-0.294533	0.523556
H153	H	0.918397	-0.195846	0.546762
C154	C	1.016699	-0.207253	0.472836
C155	C	0.953678	-0.246354	0.465456
H156	H	1.039178	-0.197166	0.433293
H157	H	1.036010	-0.246513	0.503047
H158	H	1.017656	-0.151545	0.487172
H159	H	0.952721	-0.302066	0.451128
H160	H	0.934367	-0.207103	0.435241
O161	O	0.073575	-0.548466	0.288599
C162	C	0.110341	-0.599331	0.259290
H163	H	0.161435	-0.562369	0.252722
H164	H	0.109056	-0.667897	0.290389
C165	C	0.020468	-0.657597	0.202207
C166	C	0.083220	-0.612197	0.194134
H167	H	0.003737	-0.665538	0.162016
H168	H	-0.004304	-0.623332	0.221954
H169	H	0.019405	-0.714731	0.228125
H170	H	0.084281	-0.555061	0.168223
H171	H	0.107991	-0.646454	0.174381
H172	H	0.880054	-0.287135	0.896040
O173	O	0.927234	-0.819232	0.280291
C174	C	0.947097	-0.787696	0.336558
H175	H	0.929869	-0.841982	0.379165
H176	H	1.001095	-0.770919	0.335912
C177	C	0.940283	-0.635905	0.289006
C178	C	0.919118	-0.702578	0.341338
H179	H	0.923028	-0.583398	0.291954
H180	H	0.926903	-0.657150	0.251097
H181	H	0.985281	-0.621935	0.288473
H182	H	0.874122	-0.716555	0.341865
H183	H	0.932490	-0.681333	0.379247
H184	H	0.718659	-0.949200	0.488543
H185	H	0.967433	-1.090426	0.240157
O186	O	0.995172	-0.912217	0.212416
C187	C	1.023136	-0.973988	0.184499
H188	H	1.017239	-1.041133	0.218237
H189	H	0.999008	-0.984063	0.138103
C190	C	1.101487	-0.854683	0.129665
C191	C	1.094248	-0.937149	0.171105
H192	H	1.145351	-0.831959	0.121400
H193	H	1.082645	-0.813065	0.148471
H194	H	1.081376	-0.863090	0.091006
H195	H	1.114351	-0.928739	0.209765
H196	H	1.113094	-0.978765	0.152305
O197	O	0.802448	-1.190757	0.405026
C198	C	0.754681	-1.222256	0.452723
H199	H	0.752396	-1.167939	0.482785
H200	H	0.706995	-1.239055	0.429857
C201	C	0.772814	-1.374057	0.458179
C202	C	0.770011	-1.307347	0.495105
H203	H	0.782267	-1.426547	0.484321
H204	H	0.804994	-1.352837	0.426043
H205	H	0.733073	-1.388046	0.439127
H206	H	0.809752	-1.293351	0.514150
H207	H	0.737837	-1.328567	0.527245
O208	O	0.946050	-0.320756	0.978168
C209	C	0.987565	-0.269830	1.014972
H210	H	0.962282	-0.266677	1.061226
H211	H	1.031168	-0.302872	1.025922
C212	C	1.039220	-0.177697	0.921091
C213	C	1.008165	-0.173818	0.977898
H214	H	1.051930	-0.118474	0.898222
H215	H	1.011252	-0.212008	0.896295
H216	H	1.075552	-0.205236	0.930224
H217	H	0.971830	-0.146290	0.968764
H218	H	1.036127	-0.139500	1.002692
O219	O	0.760578	-0.548378	1.005455
C220	C	0.719067	-0.599258	1.054462
H221	H	0.744357	-0.602369	1.101490
H222	H	0.675468	-0.566203	1.057432
C223	C	0.667393	-0.691465	0.982697
C224	C	0.698457	-0.695293	1.040457
H225	H	0.654677	-0.750703	0.974057
H226	H	0.695358	-0.657185	0.949679
H227	H	0.631064	-0.663915	0.985180
H228	H	0.734789	-0.722832	1.037971
H229	H	0.670498	-0.729580	1.073474
H230	H	0.884620	-0.778202	0.322711
O231	O	0.824208	-0.594930	0.938058
C232	C	0.811202	-0.666695	0.903770
H233	H	0.796213	-0.640409	0.853961
H234	H	0.855592	-0.697970	0.900585
C235	C	0.775692	-0.770630	0.999075
C236	C	0.757276	-0.738347	0.937901
H237	H	0.742430	-0.814831	1.020129
H238	H	0.784456	-0.722282	1.022176
H239	H	0.812684	-0.796687	0.996413
H240	H	0.720290	-0.712281	0.940564
H241	H	0.748505	-0.786692	0.914800
H242	H	0.768001	-0.539158	1.128109
H243	H	0.826390	-0.582126	0.812767
H244	H	0.767973	-0.539361	0.724496
H245	H	0.767953	-0.539419	0.605790
