data_functionalizedCrystal
_audit_creation_method	'MofGen! by Chris Wilmer'
_symmetry_space_group_name_H-M	'P1'
_symmetry_Int_Tables_number	1
_symmetry_cell_setting	triclinic
loop_
_symmetry_equiv_pos_as_xyz
  x,y,z
_cell_length_a	12.594517
_cell_length_b	25.639239
_cell_length_c	12.594509
_cell_angle_alpha	89.967420
_cell_angle_beta	89.978379
_cell_angle_gamma	90.038486
loop_
_atom_site_label
_atom_site_type_symbol
_atom_site_fract_x
_atom_site_fract_y
_atom_site_fract_z
Zn1	Zn	1.627103	-0.208146	-0.601816
Zn2	Zn	1.626922	-0.295586	-0.423819
Zn3	Zn	1.449106	-0.208166	-0.423845
Zn4	Zn	1.449018	-0.295552	-0.601750
O5	O	1.538037	-0.251862	-0.512808
O6	O	1.776024	-0.219751	-0.578222
O7	O	1.603295	-0.284012	-0.274877
O8	O	1.472829	-0.134998	-0.447492
O9	O	1.775892	-0.283992	-0.447448
O10	O	1.603603	-0.134983	-0.578247
O11	O	1.472654	-0.219785	-0.274896
O12	O	1.300148	-0.219752	-0.447427
O13	O	1.472681	-0.283935	-0.750704
O14	O	1.300084	-0.283954	-0.578133
O15	O	1.603518	-0.219718	-0.750753
O16	O	1.603211	-0.368746	-0.447384
O17	O	1.472506	-0.368721	-0.578108
C18	C	1.261496	-0.251852	-0.512776
C19	C	1.143191	-0.251860	-0.512788
C20	C	1.073942	-0.216893	-0.441833
C21	C	1.003092	-0.264584	-0.415643
C22	C	1.003241	-0.204192	-0.538996
C23	C	1.073900	-0.299577	-0.486547
C24	C	1.074055	-0.239152	-0.609946
C25	C	1.003237	-0.286876	-0.583793
C26	C	1.537858	-0.387705	-0.512759
C27	C	1.537879	-0.445819	-0.512774
C28	C	1.606273	-0.806182	-0.444855
C29	C	1.606314	-0.860787	-0.444870
O30	O	1.664280	-0.889024	-0.387070
N31	N	1.538224	-0.888101	-0.512878
C32	C	1.470096	-0.860809	-0.580885
O33	O	1.412185	-0.889056	-0.638733
C34	C	1.470061	-0.806206	-0.580875
C35	C	1.538148	-0.778894	-0.512854
C36	C	1.674355	-0.778870	-0.376841
C37	C	1.674312	-0.724270	-0.376826
C38	C	1.606187	-0.696981	-0.444825
C39	C	1.538105	-0.724293	-0.512839
C40	C	1.401939	-0.778914	-0.648886
C41	C	1.401911	-0.724307	-0.648871
C42	C	1.469997	-0.696995	-0.580850
C43	C	1.469937	-0.642404	-0.580822
N44	N	1.538027	-0.615089	-0.512814
C45	C	1.606152	-0.642378	-0.444815
C46	C	1.470176	-0.975479	-0.580901
C47	C	1.470205	-1.030082	-0.580906
C48	C	1.606425	-1.030056	-0.444892
C49	C	1.606390	-0.975452	-0.444883
C50	C	1.538266	-0.948165	-0.512892
C51	C	1.606056	-0.527713	-0.444787
C52	C	1.606004	-0.473108	-0.444775
C53	C	1.469789	-0.473138	-0.580792
C54	C	1.469836	-0.527739	-0.580801
C55	C	1.537979	-0.555025	-0.512795
O56	O	1.412004	-0.614132	-0.638596
O57	O	1.664064	-0.614124	-0.386986
C58	C	1.815658	-0.251873	-0.512840
C59	C	1.933963	-0.251878	-0.512853
C60	C	1.538110	-0.251820	-0.790429
C61	C	1.538141	-0.251802	-0.908734
C62	C	1.538246	-0.115489	-0.512880
C63	C	1.538335	-0.057375	-0.512911
C64	C	1.467023	-0.286686	-1.048724
C65	C	1.441038	-0.239006	-0.977933
C66	C	1.564078	-0.299478	-0.977954
C67	C	1.512167	-0.204031	-1.048728
C68	C	1.635251	-0.264535	-1.048756
C69	C	1.609304	-0.216822	-0.977996
C70	C	1.538026	-0.251866	-0.236267
C71	C	1.538201	-0.251737	-0.117962
H72	H	1.661448	-0.450872	-0.389381
O73	O	1.332292	-0.224698	-0.936721
H74	H	1.338041	-0.188665	-0.888253
O75	O	1.747846	-0.808300	-0.303503
H76	H	1.700261	-0.833222	-0.249311
O77	O	1.328502	-0.808360	-0.722258
H78	H	1.339953	-0.850916	-0.710852
O79	O	1.115075	-0.177763	-0.362256
H80	H	1.163613	-0.147948	-0.403911
H81	H	0.972388	-0.316489	-0.643825
H82	H	1.669471	-0.187261	-0.947138
O83	O	0.961791	-0.278840	-0.306852
H84	H	0.990098	-0.249751	-0.248065
H85	H	1.105248	-0.228377	-0.692058
O86	O	1.743947	-0.278866	-1.090050
H87	H	1.765267	-0.318507	-1.061773
H88	H	1.585990	-0.339824	-0.946868
O89	O	1.396750	-1.059534	-0.654257
H90	H	1.408207	-1.102089	-0.642845
O91	O	1.747757	-0.694816	-0.303467
H92	H	1.801862	-0.669894	-0.351152
H93	H	0.972147	-0.163877	-0.561099
H94	H	1.104809	-0.339908	-0.464317
H95	H	1.346437	-0.702092	-0.704256
H96	H	1.490162	-0.163673	-1.079686
H97	H	1.661546	-0.549923	-0.389413
O98	O	1.679836	-0.945995	-0.371531
H99	H	1.727214	-0.974150	-0.324258
H100	H	1.661900	-1.052284	-0.389527
O101	O	1.396670	-0.946048	-0.654232
H102	H	1.349322	-0.974219	-0.701507
H103	H	1.414398	-0.549977	-0.636192
H104	H	1.414319	-0.450911	-0.636153
H105	H	1.406810	-0.316176	-1.079781
