data_functionalizedCrystal
_audit_creation_method	'MofGen! by Chris Wilmer'
_symmetry_space_group_name_H-M	'P1'
_symmetry_Int_Tables_number	1
_symmetry_cell_setting	triclinic
loop_
_symmetry_equiv_pos_as_xyz
  x,y,z
_cell_length_a	23.532361
_cell_length_b	10.654541
_cell_length_c	9.130307
_cell_angle_alpha	89.994959
_cell_angle_beta	89.999709
_cell_angle_gamma	96.343202
loop_
_atom_site_label
_atom_site_type_symbol
_atom_site_fract_x
_atom_site_fract_y
_atom_site_fract_z
O1	O	0.756267	-0.152161	0.121652
O2	O	0.590544	-0.174279	0.121687
O3	O	0.677216	0.019642	0.121660
O4	O	0.669594	-0.346082	0.121679
O5	O	0.677210	0.019650	-0.121939
O6	O	0.590537	-0.174271	-0.121912
O7	O	0.756260	-0.152153	-0.121947
Cu8	Cu	0.673398	-0.163211	-0.144172
Cu9	Cu	0.673406	-0.163221	0.143912
O10	O	0.669588	-0.346074	-0.121920
C11	C	0.569320	-0.173721	-0.000108
C12	C	0.506091	-0.172056	-0.000095
C13	C	0.232804	-0.164776	0.132682
C14	C	0.292214	-0.166352	0.132686
O15	O	0.322948	-0.167128	0.245612
N16	N	0.321921	-0.167144	-0.000101
C17	C	0.292216	-0.166347	-0.132899
O18	O	0.322939	-0.167164	-0.245844
C19	C	0.232807	-0.164762	-0.132902
C20	C	0.203102	-0.163983	-0.000107
C21	C	0.203099	-0.163996	0.265466
C22	C	0.143693	-0.162422	0.265462
C23	C	0.113991	-0.161628	0.132673
C24	C	0.143696	-0.162409	-0.000111
C25	C	0.203104	-0.163955	-0.265699
C26	C	0.143691	-0.162369	-0.265689
C27	C	0.113986	-0.161590	-0.132894
C28	C	0.054589	-0.160041	-0.132903
N29	N	0.024882	-0.159249	-0.000117
C30	C	0.054583	-0.160043	0.132671
C31	C	0.416978	-0.169674	-0.132885
C32	C	0.476384	-0.171269	-0.132884
C33	C	0.476378	-0.171272	0.132701
C34	C	0.416970	-0.169686	0.132699
C35	C	0.387270	-0.168882	-0.000098
C36	C	-0.070174	-0.156739	0.132652
C37	C	-0.129586	-0.155170	0.132636
C38	C	-0.129574	-0.155160	-0.132948
C39	C	-0.070168	-0.156736	-0.132933
C40	C	-0.040469	-0.157520	-0.000121
O41	O	0.023818	-0.159260	-0.245773
O42	O	0.023853	-0.159209	0.245597
C43	C	0.676654	0.066426	-0.000139
C44	C	0.674980	0.205816	-0.000136
C45	C	0.777484	-0.152711	-0.000149
C46	C	0.840713	-0.154376	-0.000152
C47	C	0.670151	-0.392858	-0.000118
C48	C	0.671824	-0.532248	-0.000111
N49	N	0.673397	-0.163204	-0.346795
C50	C	0.778621	0.237108	-0.000176
C51	C	0.829653	0.318238	-0.000199
C52	C	0.828077	0.449206	-0.000194
C53	C	0.775463	0.499045	-0.000162
C54	C	0.724432	0.417915	-0.000139
C55	C	0.726013	0.286946	-0.000148
C56	C	0.620792	0.386623	-0.000088
C57	C	0.622367	0.255655	-0.000103
C58	C	0.568179	0.436461	-0.000056
C59	C	0.517146	0.355331	-0.000043
C60	C	0.518724	0.224356	-0.000050
C61	C	0.571335	0.174525	-0.000080
C62	C	0.603729	-0.011660	-0.346848
C63	C	0.568901	0.064114	-0.423541
C64	C	0.568909	0.064115	-0.576874
C65	C	0.603748	-0.011670	-0.653518
C66	C	0.638576	-0.087444	-0.576825
C67	C	0.638565	-0.087434	-0.423488
C68	C	0.708240	-0.238993	-0.576772
C69	C	0.708236	-0.238988	-0.423438
C70	C	0.743079	-0.314777	-0.653416
C71	C	0.777911	-0.390547	-0.576722
C72	C	0.777901	-0.390544	-0.423380
C73	C	0.743064	-0.314763	-0.346745
N74	N	0.673412	-0.163218	0.346535
H75	H	0.227275	-0.164637	0.373604
H76	H	0.869631	0.515263	-0.000202
N77	N	0.603727	-0.011641	-0.181468
H78	H	0.563942	-0.040252	-0.144529
H79	H	0.631103	-0.071126	-0.144634
N80	N	0.886398	0.264486	-0.000253
H81	H	0.879656	0.169208	-0.000265
H82	H	0.908737	0.294227	-0.090577
N83	N	0.531330	0.145860	-0.340878
H84	H	0.536611	0.134373	-0.232104
H85	H	0.542236	0.237315	-0.367701
N86	N	0.508422	-0.172118	-0.276108
H87	H	0.528758	-0.250626	-0.282027
H88	H	0.480555	-0.171327	-0.360142
H89	H	0.774185	0.605687	-0.000140
N90	N	0.460403	0.409075	-0.000006
H91	H	0.457444	0.462702	0.090305
H92	H	0.457468	0.462669	-0.090359
N93	N	-0.038153	-0.157594	0.275903
H94	H	-0.017817	-0.236104	0.281836
H95	H	-0.009222	-0.080342	0.281754
N96	N	0.384946	-0.168817	-0.276126
H97	H	0.412832	-0.168696	-0.360232
H98	H	0.356253	-0.246456	-0.282350
N99	N	0.566476	0.577717	-0.000042
H100	H	0.606787	0.621553	-0.000067
H101	H	0.545717	0.603016	-0.090337
H102	H	0.477168	0.158306	-0.000025
N103	N	0.573037	0.033269	-0.000094
H104	H	0.614109	0.014011	-0.000116
H105	H	0.553052	-0.004336	0.090223
N106	N	-0.161619	-0.154318	0.275877
H107	H	-0.181956	-0.075810	0.281789
H108	H	-0.190550	-0.231571	0.281727
H109	H	0.540546	0.125811	-0.639318
H110	H	0.119513	-0.161782	0.373597
H111	H	0.743054	-0.314749	-0.221893
N112	N	0.780316	0.095850	-0.000198
H113	H	0.801034	0.070458	-0.090517
H114	H	0.801036	0.070525	0.090148
N115	N	0.743339	-0.314224	-0.818792
H116	H	0.716076	-0.254532	-0.855749
H117	H	0.783228	-0.285460	-0.854881
H118	H	0.392788	-0.169052	0.240833
H119	H	0.119512	-0.161725	-0.373832
N120	N	0.508419	-0.172126	0.275929
H121	H	0.550561	-0.173244	0.255769
H122	H	0.502350	-0.093992	0.333910
N123	N	0.815479	-0.472287	-0.659383
H124	H	0.810196	-0.460796	-0.768156
H125	H	0.856798	-0.447005	-0.632582
H126	H	0.806260	-0.452256	-0.360945
N127	N	0.235133	-0.164802	-0.408929
H128	H	0.207294	-0.164053	-0.493037
H129	H	0.264095	-0.087600	-0.414725
H130	H	-0.045982	-0.157395	-0.241066
H131	H	0.603746	-0.011674	-0.778370
N132	N	-0.161613	-0.154287	-0.276166
H133	H	-0.133692	-0.153285	-0.360281
H134	H	-0.190037	-0.232354	-0.282831
