data_functionalizedCrystal
_audit_creation_method	'MofGen! by Chris Wilmer'
_symmetry_space_group_name_H-M	'P1'
_symmetry_Int_Tables_number	1
_symmetry_cell_setting	triclinic
loop_
_symmetry_equiv_pos_as_xyz
  x,y,z
_cell_length_a	8.597340
_cell_length_b	9.065218
_cell_length_c	8.140239
_cell_angle_alpha	89.998670
_cell_angle_beta	82.299373
_cell_angle_gamma	94.826720
loop_
_atom_site_label
_atom_site_type_symbol
_atom_site_fract_x
_atom_site_fract_y
_atom_site_fract_z
O1	O	2.085538	-0.220241	-0.158597
O2	O	2.418872	0.113093	0.174736
O3	O	2.752205	0.446426	0.508070
O4	O	1.628850	-0.237136	-0.093951
O5	O	1.962183	0.096197	0.239382
O6	O	2.295517	0.429531	0.572715
O7	O	1.866634	-0.014064	-0.127614
O8	O	2.199967	0.319270	0.205720
O9	O	2.533300	0.652603	0.539053
O10	O	1.847754	-0.443313	-0.124935
O11	O	2.181088	-0.109980	0.208399
O12	O	2.514421	0.223353	0.541732
O13	O	1.866626	-0.014062	-0.400840
O14	O	2.199959	0.319271	-0.067506
O15	O	2.533293	0.652605	0.265827
O16	O	1.628842	-0.237134	-0.367177
O17	O	1.962175	0.096199	-0.033844
O18	O	2.295509	0.429532	0.299490
O19	O	2.085531	-0.220239	-0.431823
O20	O	2.418864	0.113094	-0.098490
O21	O	2.752197	0.446428	0.234844
Zn22	Zn	1.857185	-0.228686	-0.442881
Zn23	Zn	2.190518	0.104647	-0.109547
Zn24	Zn	2.523852	0.437980	0.223786
Zn25	Zn	1.857195	-0.228689	-0.082894
Zn26	Zn	2.190529	0.104645	0.250440
Zn27	Zn	2.523862	0.437978	0.583773
O28	O	1.847747	-0.443312	-0.398161
O29	O	2.181080	-0.109978	-0.064827
O30	O	2.514413	0.223355	0.268506
C31	C	1.570349	-0.235321	-0.222284
C32	C	1.903683	0.098013	0.111050
C33	C	2.237016	0.431346	0.444383
C34	C	1.396047	-0.229896	-0.197610
C35	C	1.729381	0.103437	0.135723
C36	C	2.062714	0.436771	0.469056
C37	C	1.864815	0.040927	-0.263967
C38	C	2.198149	0.374261	0.069366
C39	C	2.531482	0.707594	0.402699
C40	C	1.859390	0.204780	-0.263191
C41	C	2.192724	0.538114	0.070142
C42	C	2.526057	0.871447	0.403475
C43	C	2.144031	-0.222054	-0.303487
C44	C	2.477365	0.111279	0.029846
C45	C	2.810698	0.444612	0.363180
C46	C	2.318333	-0.227479	-0.328149
C47	C	2.651666	0.105854	0.005184
C48	C	2.985000	0.439188	0.338517
C49	C	1.849565	-0.498302	-0.261803
C50	C	2.182898	-0.164969	0.071530
C51	C	2.516232	0.168364	0.404863
C52	C	1.854990	-0.662155	-0.262568
C53	C	2.188324	-0.328822	0.070765
C54	C	2.521657	0.004511	0.404098
N55	N	1.857190	-0.228684	-0.688564
N56	N	2.190523	0.104649	-0.355230
N57	N	2.523856	0.437982	-0.021897
N58	N	1.857203	-0.228679	0.162788
N59	N	2.190536	0.104654	0.496121
N60	N	2.523870	0.437987	0.829455
H61	H	1.329228	-0.227815	-0.066960
H62	H	1.662561	0.105518	0.266374
H63	H	1.995894	0.438852	0.599707
H64	H	1.385146	-0.229549	-0.458791
H65	H	1.718479	0.103784	-0.125458
H66	H	2.051813	0.437118	0.207875
