data_functionalizedCrystal
_audit_creation_method	'MofGen! by Chris Wilmer'
_symmetry_space_group_name_H-M	'P1'
_symmetry_Int_Tables_number	1
_symmetry_cell_setting	triclinic
loop_
_symmetry_equiv_pos_as_xyz
  x,y,z
_cell_length_a	21.295417
_cell_length_b	17.077404
_cell_length_c	17.077396
_cell_angle_alpha	90.020778
_cell_angle_beta	89.965204
_cell_angle_gamma	89.973080
loop_
_atom_site_label
_atom_site_type_symbol
_atom_site_fract_x
_atom_site_fract_y
_atom_site_fract_z
Zn1	Zn	-0.250659	-1.199994	-0.443895
Zn2	Zn	0.082674	-0.866661	-0.110562
Zn3	Zn	0.416007	-0.533327	0.222772
Zn4	Zn	-0.355935	-1.199889	-0.312618
Zn5	Zn	-0.022602	-0.866556	0.020715
Zn6	Zn	0.310731	-0.533223	0.354049
Zn7	Zn	-0.250677	-1.068732	-0.312634
Zn8	Zn	0.082656	-0.735398	0.020699
Zn9	Zn	0.415989	-0.402065	0.354032
Zn10	Zn	-0.355888	-1.068676	-0.443833
Zn11	Zn	-0.022555	-0.735343	-0.110500
Zn12	Zn	0.310779	-0.402010	0.222834
O13	O	-0.303290	-1.134323	-0.378245
O14	O	0.030043	-0.800990	-0.044912
O15	O	0.363377	-0.467656	0.288422
O16	O	-0.264637	-1.309827	-0.426500
O17	O	0.068697	-0.976494	-0.093166
O18	O	0.402030	-0.643160	0.240167
O19	O	-0.342000	-1.182470	-0.202773
O20	O	-0.008667	-0.849137	0.130560
O21	O	0.324667	-0.515804	0.463893
O22	O	-0.162586	-1.086211	-0.330079
O23	O	0.170748	-0.752877	0.003254
O24	O	0.504081	-0.419544	0.336588
O25	O	-0.341983	-1.309750	-0.330051
O26	O	-0.008649	-0.976417	0.003282
O27	O	0.324684	-0.643083	0.336615
O28	O	-0.162572	-1.182649	-0.426515
O29	O	0.170761	-0.849315	-0.093182
O30	O	0.504094	-0.515982	0.240151
O31	O	-0.264668	-1.086109	-0.202785
O32	O	0.068666	-0.752776	0.130548
O33	O	0.401999	-0.419442	0.463882
O34	O	-0.264622	-0.958877	-0.330019
O35	O	0.068712	-0.625544	0.003314
O36	O	0.402045	-0.292211	0.336648
O37	O	-0.341902	-1.086117	-0.553688
O38	O	-0.008569	-0.752784	-0.220355
O39	O	0.324765	-0.419450	0.112978
O40	O	-0.341919	-0.958837	-0.426410
O41	O	-0.008586	-0.625504	-0.093077
O42	O	0.324747	-0.292170	0.240256
O43	O	-0.264591	-1.182595	-0.553734
O44	O	0.068742	-0.849262	-0.220400
O45	O	0.402076	-0.515929	0.112933
O46	O	-0.444019	-1.182417	-0.329991
O47	O	-0.110685	-0.849083	0.003342
O48	O	0.222648	-0.515750	0.336675
O49	O	-0.443984	-1.086015	-0.426395
O50	O	-0.110650	-0.752682	-0.093061
O51	O	0.222683	-0.419349	0.240272
C52	C	-0.303268	-0.930375	-0.378210
C53	C	0.030065	-0.597042	-0.044877
C54	C	0.363399	-0.263708	0.288456
C55	C	-0.303273	-0.843125	-0.378214
C56	C	0.030060	-0.509792	-0.044881
C57	C	0.363393	-0.176459	0.288453
C58	C	-0.263089	-0.467348	-0.428554
C59	C	0.070245	-0.134015	-0.095221
C60	C	0.403578	0.199319	0.238113
C61	C	-0.263086	-0.549328	-0.428548
C62	C	0.070247	-0.215995	-0.095214
C63	C	0.403580	0.117338	0.238119
C64	C	-0.303289	-0.590276	-0.378248
C65	C	0.030044	-0.256943	-0.044915
C66	C	0.363377	0.076390	0.288419
C67	C	-0.343502	-0.549240	-0.327956
C68	C	-0.010169	-0.215906	0.005377
C69	C	0.323164	0.117427	0.338710
C70	C	-0.343507	-0.467261	-0.327967
C71	C	-0.010174	-0.133927	0.005366
C72	C	0.323159	0.199406	0.338700
C73	C	-0.343488	-0.720110	-0.327937
C74	C	-0.010154	-0.386776	0.005397
C75	C	0.323179	-0.053443	0.338730
C76	C	-0.343482	-0.802094	-0.327925
C77	C	-0.010148	-0.468761	0.005409
C78	C	0.323185	-0.135428	0.338742
C79	C	-0.263067	-0.802177	-0.428517
C80	C	0.070267	-0.468844	-0.095184
C81	C	0.403600	-0.135511	0.238149
C82	C	-0.263072	-0.720198	-0.428528
C83	C	0.070262	-0.386865	-0.095195
C84	C	0.403595	-0.053532	0.238139
C85	C	-0.303284	-0.679167	-0.378235
C86	C	0.030050	-0.345834	-0.044902
C87	C	0.363383	-0.012501	0.288432
C88	C	-0.466842	-1.134220	-0.378202
C89	C	-0.133508	-0.800887	-0.044868
C90	C	0.199825	-0.467553	0.288465
C91	C	-0.536810	-1.134248	-0.378209
C92	C	-0.203477	-0.800914	-0.044876
C93	C	0.129857	-0.467581	0.288457
C94	C	-0.569674	-1.184489	-0.328064
C95	C	-0.236340	-0.851155	0.005270
C96	C	0.096993	-0.517822	0.338603
C97	C	-0.635416	-1.184525	-0.328081
C98	C	-0.302083	-0.851192	0.005252
C99	C	0.031250	-0.517859	0.338585
C100	C	-0.668292	-1.134307	-0.378236
C101	C	-0.334959	-0.800974	-0.044903
C102	C	-0.001626	-0.467641	0.288430
C103	C	-0.635421	-1.084063	-0.428392
C104	C	-0.302087	-0.750730	-0.095058
C105	C	0.031246	-0.417396	0.238275
C106	C	-0.569679	-1.084033	-0.428378
C107	C	-0.236346	-0.750700	-0.095045
C108	C	0.096987	-0.417366	0.238288
N109	N	-0.771554	-1.065638	-0.384209
N110	N	-0.438221	-0.732305	-0.050875
N111	N	-0.104888	-0.398972	0.282458
N112	N	-0.834006	-1.065669	-0.384217
N113	N	-0.500673	-0.732336	-0.050884
N114	N	-0.167339	-0.399002	0.282450
C115	C	-0.866367	-1.134395	-0.378281
C116	C	-0.533034	-0.801062	-0.044948
C117	C	-0.199700	-0.467729	0.288385
N118	N	-0.833918	-1.203092	-0.372322
N119	N	-0.500584	-0.869758	-0.038988
N120	N	-0.167251	-0.536425	0.294345
N121	N	-0.771460	-1.203060	-0.372309
N122	N	-0.438127	-0.869727	-0.038976
N123	N	-0.104794	-0.536393	0.294357
C124	C	-0.739578	-1.134334	-0.378257
C125	C	-0.406244	-0.801001	-0.044924
C126	C	-0.072911	-0.467668	0.288410
C127	C	-0.970516	-1.184680	-0.328152
C128	C	-0.637183	-0.851347	0.005181
C129	C	-0.303850	-0.518014	0.338515
C130	C	-1.036260	-1.184718	-0.328175
C131	C	-0.702927	-0.851385	0.005158
C132	C	-0.369593	-0.518052	0.338491
C133	C	-1.036263	-1.084249	-0.428482
C134	C	-0.702930	-0.750916	-0.095148
C135	C	-0.369597	-0.417582	0.238185
C136	C	-0.970521	-1.084218	-0.428463
C137	C	-0.637187	-0.750884	-0.095129
C138	C	-0.303854	-0.417551	0.238204
C139	C	-0.937651	-1.134432	-0.378294
C140	C	-0.604318	-0.801099	-0.044960
C141	C	-0.270985	-0.467766	0.288373
C142	C	-0.139100	-1.134448	-0.378306
C143	C	0.194233	-0.801114	-0.044973
C144	C	0.527567	-0.467781	0.288361
C145	C	-0.069132	-1.134501	-0.378332
C146	C	0.264202	-0.801167	-0.044998
C147	C	0.597535	-0.467834	0.288335
C148	C	-0.303239	-1.134362	-0.582989
C149	C	0.030094	-0.801028	-0.249656
C150	C	0.363427	-0.467695	0.083677
C151	C	-0.303217	-1.134378	-0.670239
C152	C	0.030116	-0.801045	-0.336906
C153	C	0.363449	-0.467712	-0.003573
C154	C	-0.303307	-0.339067	-0.378273
C155	C	0.030027	-0.005734	-0.044939
C156	C	0.363360	0.327600	0.288394
C157	C	-0.303297	-0.426317	-0.378265
C158	C	0.030036	-0.092984	-0.044931
C159	C	0.363370	0.240350	0.288402
C160	C	-0.343411	-1.184625	-1.046050
C161	C	-0.010078	-0.851291	-0.712717
C162	C	0.323255	-0.517958	-0.379383
C163	C	-0.343430	-1.184605	-0.964070
C164	C	-0.010096	-0.851272	-0.630736
C165	C	0.323237	-0.517938	-0.297403
C166	C	-0.303173	-1.134429	-0.923088
C167	C	0.030160	-0.801095	-0.589755
C168	C	0.363494	-0.467762	-0.256422
C169	C	-0.262900	-1.084264	-0.964092
C170	C	0.070433	-0.750930	-0.630759
C171	C	0.403767	-0.417597	-0.297425
C172	C	-0.262885	-1.084280	-1.046071
C173	C	0.070448	-0.750947	-0.712738
C174	C	0.403781	-0.417613	-0.379404
C175	C	-0.262932	-1.084234	-0.793222
C176	C	0.070401	-0.750901	-0.459888
C177	C	0.403734	-0.417567	-0.126555
C178	C	-0.262946	-1.084218	-0.711237
C179	C	0.070387	-0.750885	-0.377904
C180	C	0.403721	-0.417552	-0.044570
C181	C	-0.343477	-1.184559	-0.711220
C182	C	-0.010143	-0.851226	-0.377887
C183	C	0.323190	-0.517892	-0.044554
C184	C	-0.343462	-1.184576	-0.793199
C185	C	-0.010129	-0.851242	-0.459866
C186	C	0.323205	-0.517909	-0.126533
C187	C	-0.303188	-1.134411	-0.834197
C188	C	0.030145	-0.801078	-0.500864
C189	C	0.363479	-0.467744	-0.167531
C190	C	-0.303295	-1.134329	-0.174297
C191	C	0.030038	-0.800996	0.159036
C192	C	0.363371	-0.467663	0.492369
C193	C	-0.303140	-1.134465	-0.087048
C194	C	0.030193	-0.801132	0.246285
C195	C	0.363527	-0.467798	0.579619
H196	H	-0.230324	-0.835589	-0.469466
H197	H	0.103010	-0.502256	-0.136133
H198	H	0.436343	-0.168922	0.197200
H199	H	-0.376230	-1.225440	-0.930693
H200	H	-0.042897	-0.892107	-0.597359
H201	H	0.290437	-0.558774	-0.264026
H202	H	-0.376250	-0.433854	-0.287018
H203	H	-0.042917	-0.100521	0.046315
H204	H	0.290416	0.232813	0.379649
C205	C	-0.934366	-1.028948	-0.483617
C206	C	-0.601032	-0.695615	-0.150283
C207	C	-0.267699	-0.362281	0.183050
H208	H	-0.890505	-1.036127	-0.476430
H209	H	-0.557171	-0.702793	-0.143096
H210	H	-0.223838	-0.369460	0.190237
H211	H	-0.945182	-0.976218	-0.472081
H212	H	-0.611848	-0.642885	-0.138748
H213	H	-0.278515	-0.309551	0.194585
H214	H	-0.945100	-1.040415	-0.536374
H215	H	-0.611766	-0.707081	-0.203041
H216	H	-0.278433	-0.373748	0.130292
H217	H	-0.376190	-1.225488	-1.079411
H218	H	-0.042857	-0.892154	-0.746078
H219	H	0.290477	-0.558821	-0.412744
H220	H	-0.376239	-0.582586	-0.287005
H221	H	-0.042905	-0.249252	0.046329
H222	H	0.290428	0.084081	0.379662
H223	H	-0.230137	-1.043385	-0.826600
H224	H	0.103196	-0.710051	-0.493266
H225	H	0.436530	-0.376718	-0.159933
C226	C	-0.533528	-1.028762	-0.483536
C227	C	-0.200194	-0.695428	-0.150203
C228	C	0.133139	-0.362095	0.183130
H229	H	-0.562521	-0.998855	-0.513409
H230	H	-0.229187	-0.665522	-0.180075
H231	H	0.104146	-0.332188	0.153258
H232	H	-0.507837	-1.058755	-0.517760
H233	H	-0.174504	-0.725421	-0.184427
H234	H	0.158829	-0.392088	0.148906
H235	H	-0.507927	-0.994562	-0.453463
H236	H	-0.174594	-0.661229	-0.120129
H237	H	0.158740	-0.327896	0.213204
H238	H	-1.063030	-1.043364	-0.469322
H239	H	-0.729697	-0.710030	-0.135989
H240	H	-0.396364	-0.376697	0.197344
H241	H	-0.376220	-0.835432	-0.286968
H242	H	-0.042887	-0.502098	0.046365
H243	H	0.290446	-0.168765	0.379698
C244	C	-0.934354	-1.239921	-0.272981
C245	C	-0.601021	-0.906588	0.060352
C246	C	-0.267688	-0.573255	0.393685
H247	H	-0.890494	-1.232702	-0.280148
H248	H	-0.557161	-0.899368	0.053185
H249	H	-0.223827	-0.566035	0.386518
H250	H	-0.945085	-1.292660	-0.284527
H251	H	-0.611752	-0.959327	0.048806
H252	H	-0.278418	-0.625993	0.382139
H253	H	-0.945170	-1.228470	-0.220227
H254	H	-0.611836	-0.895137	0.113106
H255	H	-0.278503	-0.561804	0.446440
C256	C	-0.218867	-0.422312	-0.483888
C257	C	0.114466	-0.088979	-0.150555
C258	C	0.447799	0.244354	0.182779
H259	H	-0.194926	-0.458493	-0.513843
H260	H	0.138408	-0.125160	-0.180510
H261	H	0.471741	0.208173	0.152824
H262	H	-0.191409	-0.390329	-0.453935
H263	H	0.141924	-0.056995	-0.120601
H264	H	0.475258	0.276338	0.212732
H265	H	-0.242991	-0.390341	-0.518039
H266	H	0.090342	-0.057007	-0.184706
H267	H	0.423675	0.276326	0.148627
H268	H	-1.063017	-1.225635	-0.287342
H269	H	-0.729683	-0.892302	0.045991
H270	H	-0.396350	-0.558969	0.379325
H271	H	-0.230347	-0.582732	-0.469501
H272	H	0.102986	-0.249399	-0.136168
H273	H	0.436320	0.083934	0.197166
C274	C	-0.533521	-1.239731	-0.272889
C275	C	-0.200187	-0.906398	0.060444
C276	C	0.133146	-0.573064	0.393778
H277	H	-0.562513	-1.269664	-0.243031
H278	H	-0.229180	-0.936330	0.090302
H279	H	0.104154	-0.602997	0.423635
H280	H	-0.507913	-1.209718	-0.238652
H281	H	-0.174580	-0.876384	0.094682
H282	H	0.158753	-0.543051	0.428015
H283	H	-0.507837	-1.273907	-0.302952
H284	H	-0.174504	-0.940574	0.030381
H285	H	0.158829	-0.607241	0.363715
C286	C	-0.218683	-1.029004	-0.666159
C287	C	0.114650	-0.695670	-0.332825
C288	C	0.447983	-0.362337	0.000508
H289	H	-0.194706	-0.999116	-0.702315
H290	H	0.138627	-0.665783	-0.368982
H291	H	0.471960	-0.332450	-0.035649
H292	H	-0.191260	-1.059028	-0.634187
H293	H	0.142074	-0.725694	-0.300854
H294	H	0.475407	-0.392361	0.032479
H295	H	-0.242786	-0.994784	-0.634171
H296	H	0.090547	-0.661451	-0.300838
H297	H	0.423880	-0.328118	0.032495
H298	H	-0.230332	-0.686861	-0.469483
H299	H	0.103001	-0.353528	-0.136150
H300	H	0.436335	-0.020194	0.197184
H301	H	-0.230125	-1.043406	-0.930718
H302	H	0.103208	-0.710072	-0.597385
H303	H	0.436541	-0.376739	-0.264052
H304	H	-0.376239	-1.225437	-0.826564
H305	H	-0.042906	-0.892104	-0.493231
H306	H	0.290427	-0.558771	-0.159897
H307	H	-0.662193	-1.043176	-0.469230
H308	H	-0.328859	-0.709843	-0.135896
H309	H	0.004474	-0.376510	0.197437
C310	C	-0.218585	-1.029107	-1.091168
C311	C	0.114748	-0.695774	-0.757835
C312	C	0.448082	-0.362440	-0.424502
H313	H	-0.194607	-0.999226	-1.055022
H314	H	0.138726	-0.665893	-0.721688
H315	H	0.472059	-0.332560	-0.388355
H316	H	-0.242654	-0.994892	-1.123132
H317	H	0.090680	-0.661559	-0.789798
H318	H	0.424013	-0.328225	-0.456465
H319	H	-0.191153	-1.059168	-1.123166
H320	H	0.142180	-0.725835	-0.789832
H321	H	0.475513	-0.392502	-0.456499
H322	H	-0.376269	-1.225405	-0.677836
H323	H	-0.042936	-0.892072	-0.344503
H324	H	0.290397	-0.558738	-0.011169
C325	C	-0.671574	-1.239786	-0.272913
C326	C	-0.338241	-0.906453	0.060420
C327	C	-0.004907	-0.573120	0.393754
H328	H	-0.642582	-1.269683	-0.243029
H329	H	-0.309249	-0.936350	0.090304
H330	H	0.024084	-0.603017	0.423638
H331	H	-0.697182	-1.273983	-0.302972
H332	H	-0.363849	-0.940650	0.030361
H333	H	-0.030515	-0.607316	0.363694
H334	H	-0.697257	-1.209777	-0.238688
H335	H	-0.363924	-0.876444	0.094645
H336	H	-0.030591	-0.543110	0.427978
C337	C	-0.387719	-0.674977	-0.272614
C338	C	-0.054386	-0.341643	0.060719
C339	C	0.278948	-0.008310	0.394052
H340	H	-0.411657	-0.711104	-0.242650
H341	H	-0.078324	-0.377770	0.090684
H342	H	0.255009	-0.044437	0.424017
H343	H	-0.415180	-0.642996	-0.302579
H344	H	-0.081847	-0.309663	0.030755
H345	H	0.251487	0.023670	0.364088
H346	H	-0.363600	-0.642994	-0.238471
H347	H	-0.030266	-0.309661	0.094862
H348	H	0.303067	0.023673	0.428195
