data_functionalizedCrystal
_audit_creation_method	'MofGen! by Chris Wilmer'
_symmetry_space_group_name_H-M	'P1'
_symmetry_Int_Tables_number	1
_symmetry_cell_setting	triclinic
loop_
_symmetry_equiv_pos_as_xyz
  x,y,z
_cell_length_a	19.077105
_cell_length_b	19.121063
_cell_length_c	19.076919
_cell_angle_alpha	94.606347
_cell_angle_beta	90.076224
_cell_angle_gamma	90.263052
loop_
_atom_site_label
_atom_site_type_symbol
_atom_site_fract_x
_atom_site_fract_y
_atom_site_fract_z
Zn1	Zn	1.043169	-0.339734	-0.454309
Zn2	Zn	1.543169	0.160266	0.045691
Zn3	Zn	1.042790	-0.452646	-0.341419
Zn4	Zn	1.542790	0.047354	0.158581
Zn5	Zn	0.930805	-0.330327	-0.331718
Zn6	Zn	1.430805	0.169673	0.168282
Zn7	Zn	0.920631	-0.452222	-0.454155
Zn8	Zn	1.420631	0.047778	0.045845
O9	O	0.984349	-0.393732	-0.395400
O10	O	1.484349	0.106268	0.104600
O11	O	1.141268	-0.358826	-0.443459
O12	O	1.641268	0.141174	0.056541
O13	O	1.032035	-0.432660	-0.241647
O14	O	1.532035	0.067340	0.258353
O15	O	0.950127	-0.233307	-0.343985
O16	O	1.450127	0.266693	0.156015
O17	O	1.140989	-0.441782	-0.360519
O18	O	1.640989	0.058218	0.139481
O19	O	1.032681	-0.240219	-0.434052
O20	O	1.532681	0.259781	0.065948
O21	O	0.949760	-0.342793	-0.234520
O22	O	1.449760	0.157207	0.265480
O23	O	0.831307	-0.342382	-0.343835
O24	O	1.331307	0.157618	0.156165
O25	O	0.932786	-0.441060	-0.552660
O26	O	1.432786	0.058940	-0.052660
O27	O	0.823831	-0.431938	-0.433788
O28	O	1.323831	0.068062	0.066212
O29	O	1.022815	-0.358416	-0.552774
O30	O	1.522815	0.141584	-0.052774
O31	O	1.022169	-0.550857	-0.360369
O32	O	1.522169	-0.050857	0.139631
O33	O	0.932419	-0.550546	-0.443195
O34	O	1.432419	-0.050546	0.056805
C35	C	0.802120	-0.386094	-0.387742
C36	C	1.302120	0.113906	0.112258
C37	C	0.724160	-0.382844	-0.384484
C38	C	1.224160	0.117156	0.115516
C39	C	0.976167	-0.576182	-0.402834
C40	C	1.476167	-0.076182	0.097166
C41	C	0.972730	-0.654239	-0.406041
C42	C	1.472730	-0.154239	0.093959
C43	C	0.683661	-0.428009	-0.429719
C44	C	1.183661	0.071991	0.070281
C45	C	0.610410	-0.424946	-0.426660
C46	C	1.110410	0.075054	0.073340
C47	C	0.577659	-0.376721	-0.378362
C48	C	1.077659	0.123279	0.121638
C49	C	0.618164	-0.331551	-0.333125
C50	C	1.118164	0.168449	0.166875
C51	C	0.691414	-0.334611	-0.336188
C52	C	1.191414	0.165389	0.163812
C53	C	0.359002	-0.362559	-0.364190
C54	C	0.859002	0.137441	0.135810
C55	C	0.285746	-0.359503	-0.361130
C56	C	0.785746	0.140497	0.138870
C57	C	0.277998	-0.452898	-0.454666
C58	C	0.777998	0.047102	0.045334
C59	C	0.351249	-0.455957	-0.457722
C60	C	0.851249	0.044043	0.042278
C61	C	0.391747	-0.410784	-0.412487
C62	C	0.891747	0.089216	0.087513
N63	N	0.502785	-0.373590	-0.375233
N64	N	1.002785	0.126410	0.124767
N65	N	0.466620	-0.413912	-0.415620
N66	N	0.966620	0.086088	0.084380
C67	C	1.017877	-0.691052	-0.364463
C68	C	1.517877	-0.191052	0.135537
C69	C	1.014648	-0.764395	-0.367483
C70	C	1.514648	-0.264395	0.132517
C71	C	0.966269	-0.800923	-0.412078
C72	C	1.466269	-0.300923	0.087922
C73	C	0.921120	-0.764105	-0.453660
C74	C	1.421120	-0.264105	0.046340
C75	C	0.924353	-0.690764	-0.450644
C76	C	1.424353	-0.190764	0.049356
C77	C	0.954173	-1.022359	-0.423346
C78	C	1.454173	-0.522359	0.076654
C79	C	0.950942	-1.095705	-0.426358
C80	C	1.450942	-0.595705	0.073642
C81	C	1.044471	-1.095990	-0.340181
C82	C	1.544471	-0.595990	0.159819
C83	C	1.047697	-1.022647	-0.337165
C84	C	1.547697	-0.522647	0.162835
C85	C	1.002551	-0.985836	-0.378750
C86	C	1.502551	-0.485836	0.121250
C87	C	0.962966	-0.875891	-0.415164
C88	C	1.462966	-0.375891	0.084836
C89	C	1.005857	-0.910869	-0.375667
C90	C	1.505857	-0.410869	0.124333
C91	C	1.167289	-0.401401	-0.403088
C92	C	1.667289	0.098599	0.096912
C93	C	1.245247	-0.404669	-0.406365
C94	C	1.745247	0.095331	0.093635
C95	C	0.976708	-0.400740	-0.578967
C96	C	1.476708	0.099260	-0.078967
C97	C	0.973452	-0.403726	-0.657192
C98	C	1.473452	0.096274	-0.157192
C99	C	0.992581	-0.210571	-0.387953
C100	C	1.492581	0.289429	0.112047
C101	C	0.996089	-0.132518	-0.384780
C102	C	1.496089	0.367482	0.115220
C103	C	1.018793	-0.362103	-0.694003
C104	C	1.518793	0.137897	-0.194003
C105	C	1.015725	-0.364906	-0.767503
C106	C	1.515725	0.135094	-0.267503
C107	C	0.967319	-0.409336	-0.804192
C108	C	1.467319	0.090664	-0.304192
C109	C	0.921973	-0.450962	-0.767376
C110	C	1.421973	0.049038	-0.267376
C111	C	0.925038	-0.448154	-0.693877
C112	C	1.425038	0.051846	-0.193877
C113	C	0.953123	-0.422342	-1.024005
C114	C	1.453123	0.077658	-0.524005
C115	C	0.950063	-0.425148	-1.097510
C116	C	1.450063	0.074852	-0.597510
C117	C	1.043814	-0.339090	-1.097632
C118	C	1.543814	0.160910	-0.597632
C119	C	1.046877	-0.336290	-1.024131
C120	C	1.546877	0.163710	-0.524131
C121	C	1.001529	-0.377913	-0.987321
C122	C	1.501529	0.122087	-0.487321
N123	N	0.964183	-0.412204	-0.879321
N124	N	1.464183	0.087796	-0.379321
N125	N	1.004662	-0.375041	-0.912193
N126	N	1.504662	0.124959	-0.412193
C127	C	0.992003	-0.386702	-0.212547
C128	C	1.492003	0.113298	0.287453
C129	C	0.995403	-0.383524	-0.134320
C130	C	1.495403	0.116476	0.365680
H131	H	0.710321	-0.467281	-0.469046
H132	H	1.210321	0.032719	0.030954
C133	C	0.565864	-0.474669	-0.476377
C134	C	1.065864	0.025331	0.023623
H135	H	0.595860	-0.503846	-0.505562
H136	H	1.095860	-0.003846	-0.005562
H137	H	0.537196	-0.447874	-0.504816
H138	H	1.037196	0.052126	-0.004816
H139	H	0.537061	-0.502987	-0.449412
H140	H	1.037061	-0.002987	0.050588
C141	C	0.897729	-1.135886	-0.475420
C142	C	1.397729	-0.635886	0.024580
H143	H	0.871309	-1.103460	-0.499761
H144	H	1.371309	-0.603460	0.000239
H145	H	0.867048	-1.162227	-0.448372
H146	H	1.367048	-0.662227	0.051628
H147	H	0.922008	-1.166754	-0.508406
H148	H	1.422008	-0.666754	-0.008406
H149	H	1.057269	-0.661315	-0.328146
H150	H	1.557269	-0.161315	0.171854
H151	H	0.259084	-0.320225	-0.321804
H152	H	0.759084	0.179775	0.178196
C153	C	0.582140	-0.278506	-0.279996
C154	C	1.082140	0.221494	0.220004
H155	H	0.532715	-0.283157	-0.284644
H156	H	1.032715	0.216843	0.215356
H157	H	0.595826	-0.232236	-0.288950
H158	H	1.095826	0.267764	0.211050
H159	H	0.595649	-0.287413	-0.233609
H160	H	1.095649	0.212587	0.266391
C161	C	0.868726	-0.499835	-0.807728
C162	C	1.368726	0.000165	-0.307728
H163	H	0.842158	-0.524218	-0.775276
H164	H	1.342158	-0.024218	-0.275276
H165	H	0.892985	-0.532652	-0.838773
H166	H	1.392985	-0.032652	-0.338773
H167	H	0.838176	-0.472783	-0.834022
H168	H	1.338176	0.027217	-0.334022
H169	H	0.377909	-0.495228	-0.497049
H170	H	0.877909	0.004772	0.002951
H171	H	0.724388	-0.297829	-0.299356
H172	H	1.224388	0.202171	0.200644
H173	H	1.087091	-0.992907	-0.300852
H174	H	1.587091	-0.492907	0.199148
C175	C	1.100118	-0.287413	-0.983775
C176	C	1.600118	0.212587	-0.483775
H177	H	1.095453	-0.291707	-0.934729
H178	H	1.595453	0.208293	-0.434729
H179	H	1.091472	-0.240261	-0.993471
H180	H	1.591472	0.259739	-0.493471
H181	H	1.146282	-0.300129	-0.998221
H182	H	1.646282	0.199871	-0.498221
C183	C	0.875165	-0.493939	-0.653382
C184	C	1.375165	0.006061	-0.153382
H185	H	0.883918	-0.485899	-0.604354
H186	H	1.383918	0.014101	-0.104354
H187	H	0.882803	-0.542012	-0.667775
H188	H	1.382803	-0.042012	-0.167775
H189	H	0.827998	-0.482139	-0.663027
H190	H	1.327998	0.017861	-0.163027
C191	C	0.233449	-0.502576	-0.504425
C192	C	0.733449	-0.002576	-0.004425
H193	H	0.185133	-0.493845	-0.495691
H194	H	0.685133	0.006155	0.004309
H195	H	0.243769	-0.549849	-0.496476
H196	H	0.743769	-0.049849	0.003524
H197	H	0.243954	-0.494672	-0.551816
H198	H	0.743954	0.005328	-0.051816
C199	C	1.094132	-1.136484	-0.294447
C200	C	1.594132	-0.636484	0.205553
H201	H	1.085284	-1.185395	-0.302633
H202	H	1.585284	-0.685395	0.197367
H203	H	1.086406	-1.122259	-0.246229
H204	H	1.586406	-0.622259	0.253771
H205	H	1.141352	-1.126786	-0.306276
H206	H	1.641352	-0.626786	0.193724
C207	C	0.403540	-0.312883	-0.314423
C208	C	0.903540	0.187117	0.185577
H209	H	0.373542	-0.283732	-0.285213
H210	H	0.873542	0.216268	0.214787
H211	H	0.432371	-0.284546	-0.341335
H212	H	0.932371	0.215454	0.158665
H213	H	0.432181	-0.339729	-0.286000
H214	H	0.932181	0.160271	0.214000
C215	C	1.064306	-0.804885	-0.321744
C216	C	1.564306	-0.304885	0.178256
H217	H	1.093575	-0.772626	-0.294746
H218	H	1.593575	-0.272626	0.205254
H219	H	1.092467	-0.835765	-0.351145
H220	H	1.592467	-0.335765	0.148855
H221	H	1.037509	-0.831237	-0.291108
H222	H	1.537509	-0.331237	0.208892
H223	H	0.917412	-0.992393	-0.457205
H224	H	1.417412	-0.492393	0.042795
C225	C	1.093687	-0.293305	-1.138123
C226	C	1.593687	0.206695	-0.638123
H227	H	1.084927	-0.301334	-1.187151
H228	H	1.584927	0.198666	-0.687151
H229	H	1.140852	-0.305095	-1.128479
H230	H	1.640852	0.194905	-0.628479
H231	H	1.086038	-0.245230	-1.123726
H232	H	1.586038	0.254770	-0.623726
H233	H	0.881732	-0.793853	-0.489974
H234	H	1.381732	-0.293853	0.010026
H235	H	0.887591	-0.660792	-0.484502
H236	H	1.387591	-0.160792	0.015498
C237	C	0.909749	-0.916072	-0.464215
C238	C	1.409749	-0.416072	0.035785
H239	H	0.883323	-0.883646	-0.488550
H240	H	1.383323	-0.383646	0.011450
H241	H	0.879074	-0.942416	-0.437163
H242	H	1.379074	-0.442416	0.062837
H243	H	0.934026	-0.946936	-0.497205
H244	H	1.434026	-0.446936	0.002795
C245	C	0.896812	-0.474022	-1.137866
C246	C	1.396812	0.025978	-0.637866
H247	H	0.870239	-0.498404	-1.105417
H248	H	1.370239	0.001596	-0.605417
H249	H	0.921071	-0.506839	-1.168910
H250	H	1.421071	-0.006839	-0.668910
H251	H	0.866266	-0.446966	-1.164161
H252	H	1.366266	0.053034	-0.664161
C253	C	0.903228	-0.468110	-0.983522
C254	C	1.403228	0.031890	-0.483522
H255	H	0.873962	-0.494972	-1.015901
H256	H	1.373962	0.005028	-0.515901
H257	H	0.875076	-0.438856	-0.952482
H258	H	1.375076	0.061144	-0.452482
H259	H	0.929863	-0.498746	-0.957213
H260	H	1.429863	0.001254	-0.457213
C261	C	1.072037	-0.313225	-0.653651
C262	C	1.572037	0.186775	-0.153651
H263	H	1.098595	-0.288831	-0.686104
H264	H	1.598595	0.211169	-0.186104
H265	H	1.102587	-0.340268	-0.627355
H266	H	1.602587	0.159732	-0.127355
H267	H	1.047770	-0.280406	-0.622609
H268	H	1.547770	0.219594	-0.122609
H269	H	1.045250	-0.881126	-0.339361
H270	H	1.545250	-0.381126	0.160639
H271	H	1.052648	-0.331013	-0.797471
H272	H	1.552648	0.168987	-0.297471
