data_functionalizedCrystal
_audit_creation_method	'MofGen! by Chris Wilmer'
_symmetry_space_group_name_H-M	'P1'
_symmetry_Int_Tables_number	1
_symmetry_cell_setting	triclinic
loop_
_symmetry_equiv_pos_as_xyz
  x,y,z
_cell_length_a	14.044191
_cell_length_b	14.044190
_cell_length_c	14.048226
_cell_angle_alpha	89.988942
_cell_angle_beta	89.996146
_cell_angle_gamma	93.191777
loop_
_atom_site_label
_atom_site_type_symbol
_atom_site_fract_x
_atom_site_fract_y
_atom_site_fract_z
O1	O	1.277181	0.230203	-0.079134
O2	O	1.000508	0.221890	-0.079146
O3	O	1.134688	0.087710	-0.079121
O4	O	1.143001	0.364383	-0.079159
O5	O	1.134670	0.087700	0.079200
O6	O	1.000490	0.221880	0.079176
O7	O	1.277163	0.230193	0.079187
Zn8	Zn	1.138823	0.226035	0.104318
Zn9	Zn	1.138848	0.226048	-0.104277
O10	O	1.142983	0.364373	0.079163
C11	C	0.964877	0.218249	0.000014
C12	C	0.858734	0.207401	0.000010
C13	C	0.613277	0.264502	0.000012
C14	C	0.664400	0.187585	0.000021
C15	C	0.772537	0.198614	0.000015
C16	C	0.505130	0.253475	0.000018
C17	C	1.131043	0.052083	0.000042
C18	C	1.120195	-0.054060	0.000050
C19	C	1.177296	-0.299517	0.000015
C20	C	1.100379	-0.248394	0.000018
C21	C	1.111408	-0.140257	0.000036
C22	C	1.166269	-0.407664	-0.000003
C23	C	1.312794	0.233834	0.000025
C24	C	1.418937	0.244682	0.000023
C25	C	1.146628	0.400000	-0.000003
C26	C	1.157476	0.506143	-0.000017
N27	N	1.138814	0.226026	0.246679
N28	N	1.138864	0.226050	-0.246638
C29	C	1.198251	0.166639	0.296508
C30	C	1.198258	0.166639	0.396165
C31	C	1.138831	0.226031	0.445992
C32	C	1.079387	0.285420	0.396157
C33	C	1.079376	0.285415	0.296501
C34	C	1.079415	0.285430	0.603871
C35	C	1.079427	0.285437	0.703534
C36	C	1.198297	0.166654	0.703535
C37	C	1.198286	0.166649	0.603880
C38	C	1.138843	0.226039	0.554051
H39	H	1.026247	-0.285839	0.000010
H40	H	1.031006	0.333788	0.563304
H41	H	1.246697	0.118297	0.744112
N42	N	0.662867	0.362695	-0.000007
H43	H	0.734206	0.356753	-0.000012
H44	H	0.643739	0.398505	-0.058707
N45	N	1.275489	-0.249927	0.000045
H46	H	1.269546	-0.178588	0.000064
H47	H	1.311277	-0.269083	0.058745
H48	H	1.246648	0.118280	0.255945
N49	N	1.015342	0.349503	0.757279
H50	H	0.977681	0.387124	0.710593
H51	H	0.970056	0.309364	0.798653
H52	H	1.246680	0.118292	0.563311
H53	H	1.246655	0.118282	0.436735
N54	N	0.614813	0.089384	0.000023
H55	H	0.633864	0.053511	0.058714
H56	H	0.543486	0.095398	-0.000014
N57	N	1.015287	0.349472	0.449901
H58	H	1.055347	0.394855	0.491229
H59	H	0.977639	0.387028	0.403153
H60	H	1.030975	0.333772	0.255931
