data_functionalizedCrystal
_audit_creation_method	'MofGen! by Chris Wilmer'
_symmetry_space_group_name_H-M	'P1'
_symmetry_Int_Tables_number	1
_symmetry_cell_setting	triclinic
loop_
_symmetry_equiv_pos_as_xyz
  x,y,z
_cell_length_a	15.625020
_cell_length_b	16.109301
_cell_length_c	15.186229
_cell_angle_alpha	90.005167
_cell_angle_beta	71.913181
_cell_angle_gamma	96.134427
loop_
_atom_site_label
_atom_site_type_symbol
_atom_site_fract_x
_atom_site_fract_y
_atom_site_fract_z
O1	O	1.196237	-0.108524	-0.455275
O2	O	0.933744	-0.121460	-0.371444
O3	O	1.072202	0.006029	-0.415653
O4	O	1.057780	-0.236013	-0.411066
O5	O	1.072192	0.006031	-0.269193
O6	O	0.933735	-0.121458	-0.224984
O7	O	1.196228	-0.108523	-0.308814
Zn8	Zn	1.064980	-0.114990	-0.243645
Zn9	Zn	1.064992	-0.114992	-0.436613
O10	O	1.057771	-0.236011	-0.264605
C11	C	0.900151	-0.120874	-0.287487
C12	C	0.800065	-0.119120	-0.255523
C13	C	0.658993	-0.116646	-0.130642
C14	C	0.753039	-0.118294	-0.160686
C15	C	0.753058	-0.118293	-0.320354
C16	C	0.659012	-0.116640	-0.290323
C17	C	0.611987	-0.115818	-0.195466
C18	C	0.612005	-0.115812	-0.355148
C19	C	0.517966	-0.114164	-0.325119
C20	C	0.470934	-0.113344	-0.230266
C21	C	0.517948	-0.114170	-0.165437
C22	C	0.659031	-0.116641	-0.450004
C23	C	0.612025	-0.115813	-0.514829
C24	C	0.517985	-0.114159	-0.484801
C25	C	0.470953	-0.113339	-0.389948
C26	C	0.470971	-0.113333	-0.549629
C27	C	0.376932	-0.111685	-0.519600
C28	C	0.376914	-0.111691	-0.359919
C29	C	1.071613	0.037005	-0.342236
C30	C	1.069861	0.129303	-0.341676
C31	C	1.229822	-0.109109	-0.392774
C32	C	1.329907	-0.110863	-0.424743
C33	C	1.058359	-0.266988	-0.338024
C34	C	1.060111	-0.359286	-0.338591
N35	N	1.064978	-0.114988	-0.111952
C36	C	1.147947	0.351467	-0.366627
C37	C	1.146294	0.438190	-0.366107
C38	C	0.982019	0.418543	-0.313640
C39	C	0.983673	0.331822	-0.314167
C40	C	1.066639	0.298287	-0.340657
C41	C	1.063333	0.471731	-0.339609
C42	C	1.061540	0.565759	-0.339045
C43	C	1.068432	0.204252	-0.341223
N44	N	1.065001	-0.114988	-0.568309
C45	C	1.126308	-0.058555	0.094188
C46	C	1.126311	-0.058553	0.186377
C47	C	1.003665	-0.171424	0.225547
C48	C	1.003658	-0.171421	0.133361
C49	C	1.064985	-0.114988	0.067682
C50	C	1.064994	-0.114988	0.252057
C51	C	1.064997	-0.114987	0.352012
C52	C	1.064982	-0.114988	-0.032279
H53	H	0.791307	-0.118974	-0.107890
Cl54	Cl	0.812185	-0.119324	-0.439599
H55	H	0.914471	0.445859	-0.292071
H56	H	0.953718	-0.217376	0.111781
Cl57	Cl	1.203401	0.012393	0.011626
Cl58	Cl	1.203404	0.012395	0.219696
H59	H	0.338658	-0.111013	-0.572387
Cl60	Cl	0.926575	-0.242368	0.308116
Cl61	Cl	0.352711	-0.111277	-0.192512
H62	H	0.917459	0.288520	-0.293020
H63	H	0.479655	-0.113510	-0.088195
Cl64	Cl	0.317792	-0.110633	-0.240668
H65	H	0.620701	-0.115986	-0.053399
Cl66	Cl	0.777253	-0.118714	-0.487755
Cl67	Cl	0.671151	-0.116844	-0.634074
H68	H	1.212503	0.481487	-0.387256
H69	H	0.509272	-0.114011	-0.626862
Cl70	Cl	1.252247	0.309311	-0.399931
