data_functionalizedCrystal
_audit_creation_method	'MofGen! by Chris Wilmer'
_symmetry_space_group_name_H-M	'P1'
_symmetry_Int_Tables_number	1
_symmetry_cell_setting	triclinic
loop_
_symmetry_equiv_pos_as_xyz
  x,y,z
_cell_length_a	12.837943
_cell_length_b	10.654549
_cell_length_c	11.892095
_cell_angle_alpha	93.928104
_cell_angle_beta	85.689438
_cell_angle_gamma	89.657929
loop_
_atom_site_label
_atom_site_type_symbol
_atom_site_fract_x
_atom_site_fract_y
_atom_site_fract_z
O1	O	1.384382	0.319511	-0.093978
O2	O	1.082460	0.303370	-0.093985
O3	O	1.240360	0.129459	-0.093977
O4	O	1.226482	0.493422	-0.093986
O5	O	1.227194	0.143935	0.094030
O6	O	1.069295	0.317845	0.094022
O7	O	1.371216	0.333987	0.094029
Zn8	Zn	1.218165	0.328214	0.123875
Zn9	Zn	1.235511	0.309142	-0.123832
O10	O	1.213317	0.507897	0.094021
C11	C	1.037218	0.305155	0.000018
C12	C	0.922024	0.288892	0.000015
C13	C	0.682473	0.484397	0.000026
C14	C	0.574237	0.469123	0.000025
C15	C	0.597314	0.243071	0.000018
C16	C	0.705550	0.258345	0.000020
C17	C	0.748125	0.379012	0.000022
C18	C	0.856363	0.394285	0.000016
C19	C	0.879437	0.168234	0.000017
C20	C	0.771202	0.152960	0.000016
C21	C	1.232757	0.089788	0.000025
C22	C	1.229706	-0.049989	0.000021
C23	C	1.412788	-0.319994	0.000031
C24	C	1.508631	-0.257998	0.000036
C25	C	1.511502	-0.126666	0.000034
C26	C	1.418520	-0.057328	0.000032
C27	C	1.322677	-0.119324	0.000027
C28	C	1.319816	-0.250659	0.000025
C29	C	1.133863	-0.111985	0.000017
C30	C	1.130990	-0.243317	0.000010
C31	C	1.040881	-0.042646	0.000014
C32	C	0.945036	-0.104643	0.000002
C33	C	0.942169	-0.235982	0.000002
C34	C	1.035147	-0.305313	0.000006
C35	C	1.416459	0.332202	0.000024
C36	C	1.531654	0.348464	0.000019
C37	C	1.220920	0.547569	0.000016
C38	C	1.223972	0.687345	0.000013
N39	N	1.206335	0.341231	0.292929
N40	N	1.247350	0.296117	-0.292885
C41	C	1.329673	0.205471	0.529583
C42	C	1.321411	0.214579	0.647924
C43	C	1.181544	0.368549	0.647955
C44	C	1.189806	0.359440	0.529614
C45	C	1.263874	0.277900	0.470432
C46	C	1.272141	0.268799	0.352088
C47	C	1.132269	0.422761	0.352121
C48	C	1.124007	0.431870	0.470463
H49	H	0.891026	0.492538	0.000019
H50	H	1.410460	-0.426932	0.000018
H51	H	1.389989	0.139087	0.481396
H52	H	0.562623	0.144837	0.000110
H53	H	0.736521	0.054717	0.000027
H54	H	1.121233	0.434928	0.696157
H55	H	1.332453	0.202409	0.303903
H56	H	0.932904	0.082421	0.000006
C57	C	1.042529	0.521549	0.535577
N58	N	0.981158	0.589098	0.584619
H59	H	0.869338	-0.048177	0.000007
H60	H	1.043225	0.064291	0.000020
C61	C	1.059885	0.502439	0.287046
N62	N	1.005369	0.562452	0.238029
H63	H	0.717138	0.582649	0.000026
C64	C	1.421683	0.087141	0.000045
N65	N	1.424064	0.195957	0.000055
H66	H	0.520786	0.554939	0.000031
C67	C	1.393793	0.134897	0.712987
N68	N	1.448312	0.074874	0.761991
C69	C	1.032002	-0.449781	0.000009
N70	N	1.029637	-0.558596	0.000018
H71	H	1.584334	-0.314467	0.000041
H72	H	1.589545	-0.076189	0.000044
H73	H	0.864121	-0.286450	0.000010
