data_functionalizedCrystal
_audit_creation_method	'MofGen! by Chris Wilmer'
_symmetry_space_group_name_H-M	'P1'
_symmetry_Int_Tables_number	1
_symmetry_cell_setting	triclinic
loop_
_symmetry_equiv_pos_as_xyz
  x,y,z
_cell_length_a	12.837943
_cell_length_b	17.699086
_cell_length_c	11.295501
_cell_angle_alpha	94.600118
_cell_angle_beta	94.169432
_cell_angle_gamma	89.056429
loop_
_atom_site_label
_atom_site_type_symbol
_atom_site_fract_x
_atom_site_fract_y
_atom_site_fract_z
O1	O	1.381173	0.201715	0.098971
O2	O	1.079393	0.191997	0.098980
O3	O	1.238809	0.087294	0.098986
O4	O	1.221758	0.306418	0.098966
O5	O	1.226362	0.077298	-0.099064
O6	O	1.066946	0.182002	-0.099069
O7	O	1.368727	0.191719	-0.099078
Cu8	Cu	1.216700	0.185947	-0.117157
Cu9	Cu	1.231419	0.197769	0.117059
O10	O	1.209311	0.296422	-0.099084
C11	C	1.034557	0.183717	-0.000043
C12	C	0.919505	0.173926	-0.000039
C13	C	0.678250	0.291629	-0.000067
C14	C	0.570147	0.282433	-0.000064
C15	C	0.595195	0.146339	-0.000039
C16	C	0.703297	0.155535	-0.000042
C17	C	0.744821	0.228182	-0.000054
C18	C	0.852926	0.237378	-0.000049
C19	C	0.877971	0.101284	-0.000032
C20	C	0.769868	0.092088	-0.000029
C21	C	1.231974	0.054054	-0.000034
C22	C	1.230141	-0.030098	-0.000018
C23	C	1.413563	0.200000	-0.000052
C24	C	1.528615	0.209791	-0.000048
C25	C	1.216146	0.329662	-0.000062
C26	C	1.217979	0.413814	-0.000069
N27	N	1.206355	0.177633	-0.281892
C28	C	1.236064	0.935811	0.107936
C29	C	1.234330	0.856740	0.107930
C30	C	1.226680	0.811762	-0.000032
C31	C	1.220754	0.845859	-0.107994
C32	C	1.222481	0.924928	-0.107987
C33	C	1.213787	0.526981	-0.108026
C34	C	1.212064	0.447907	-0.108025
C35	C	1.225636	0.458794	0.107891
C36	C	1.227363	0.537863	0.107898
C37	C	1.221431	0.571953	-0.000064
C38	C	1.223310	0.657690	-0.000056
C39	C	1.224809	0.726026	-0.000041
C40	C	1.316231	0.265964	-0.531194
C41	C	1.308422	0.259675	-0.655857
C42	C	1.182932	0.158763	-0.655883
C43	C	1.190742	0.165052	-0.531220
C44	C	1.257393	0.218655	-0.468880
C45	C	1.265196	0.224947	-0.344215
C46	C	1.139713	0.124032	-0.344244
C47	C	1.131903	0.117743	-0.468906
N48	N	1.241773	0.206078	0.281794
H49	H	0.515948	0.334098	-0.000078
H50	H	1.356335	0.298199	-0.706588
H51	H	1.319462	0.268596	-0.293460
O52	O	0.554807	0.075802	0.000174
C53	C	0.499437	0.071598	0.102724
H54	H	0.529416	0.116598	0.174417
H55	H	0.511433	0.013047	0.137158
H56	H	0.412690	0.081750	0.079525
H57	H	0.736044	0.032940	-0.000033
H58	H	1.370491	0.309616	-0.480436
H59	H	1.077641	0.074099	-0.519681
O60	O	1.082482	0.078188	-0.283591
C61	C	1.016144	0.122851	-0.211542
H62	H	1.049445	0.182275	-0.192851
H63	H	1.010135	0.096019	-0.123884
H64	H	0.935211	0.126376	-0.259629
O65	O	1.213272	0.802282	-0.212976
C66	C	1.208440	0.849330	-0.308258
H67	H	1.178858	0.908056	-0.276602
H68	H	1.152899	0.823857	-0.383766
H69	H	1.289653	0.854121	-0.341455
H70	H	0.932186	0.049621	-0.000013
O71	O	1.243454	0.979389	0.212919
C72	C	1.248334	0.932338	0.308199
H73	H	1.212314	0.875149	0.276542
H74	H	1.203279	0.960167	0.383709
H75	H	1.333352	0.923654	0.341393
O76	O	1.239912	0.823605	0.212777
C77	C	1.149611	0.780281	0.219266
H78	H	1.083554	0.802478	0.158010
H79	H	1.125493	0.784918	0.314760
H80	H	1.166765	0.718415	0.190278
O81	O	0.718417	0.362245	-0.000124
C82	C	0.636480	0.416277	-0.000094
H83	H	0.560734	0.387884	-0.037587
H84	H	0.655345	0.463624	-0.057594
H85	H	0.627104	0.441015	0.094920
H86	H	1.233598	0.574480	0.195812
H87	H	1.128679	0.115115	-0.706662
O88	O	0.893151	0.307990	0.000096
C89	C	0.865579	0.352315	0.102672
H90	H	0.792800	0.328016	0.136875
H91	H	0.848970	0.413084	0.079588
H92	H	0.932669	0.351690	0.174498
O93	O	1.231194	0.425641	0.212733
C94	C	1.140881	0.382321	0.219170
H95	H	1.074841	0.404538	0.157911
H96	H	1.116742	0.386937	0.314655
H97	H	1.158029	0.320459	0.190151
O98	O	1.204435	0.404254	-0.212939
C99	C	1.111008	0.422380	-0.278611
H100	H	1.052746	0.448769	-0.215429
H101	H	1.076671	0.368618	-0.327580
H102	H	1.128056	0.464408	-0.345928
O103	O	1.207858	0.560122	-0.212871
C104	C	1.118739	0.607649	-0.219341
H105	H	1.059348	0.588388	-0.158076
H106	H	1.082649	0.604425	-0.314829
H107	H	1.142155	0.668564	-0.190351
O108	O	1.216546	0.958091	-0.212820
C109	C	1.127424	1.005617	-0.219247
H110	H	1.068044	0.986339	-0.157982
H111	H	1.091319	1.002412	-0.314729
H112	H	1.150839	1.066527	-0.190230
