data_functionalizedCrystal
_audit_creation_method	'MofGen! by Chris Wilmer'
_symmetry_space_group_name_H-M	'P1'
_symmetry_Int_Tables_number	1
_symmetry_cell_setting	triclinic
loop_
_symmetry_equiv_pos_as_xyz
  x,y,z
_cell_length_a	13.897449
_cell_length_b	19.121449
_cell_length_c	13.897441
_cell_angle_alpha	92.472241
_cell_angle_beta	90.023394
_cell_angle_gamma	87.585897
loop_
_atom_site_label
_atom_site_type_symbol
_atom_site_fract_x
_atom_site_fract_y
_atom_site_fract_z
Zn1	Zn	1.491023	-0.279572	0.529069
Zn2	Zn	1.991023	0.220428	1.029069
Zn3	Zn	1.497773	-0.397034	0.360888
Zn4	Zn	1.997773	0.102966	0.860888
Zn5	Zn	1.329714	-0.279605	0.367778
Zn6	Zn	1.829714	0.220395	0.867778
Zn7	Zn	1.336548	-0.396987	0.522136
Zn8	Zn	1.836548	0.103013	1.022136
O9	O	1.413764	-0.338299	0.444968
O10	O	1.913764	0.161701	0.944968
O11	O	1.626900	-0.295160	0.506777
O12	O	2.126900	0.204840	1.006777
O13	O	1.475445	-0.381490	0.226818
O14	O	1.975445	0.118510	0.726818
O15	O	1.345426	-0.181317	0.394958
O16	O	1.845426	0.318683	0.894958
O17	O	1.631860	-0.381459	0.383215
O18	O	2.131860	0.118541	0.883215
O19	O	1.463939	-0.181293	0.513458
O20	O	1.963939	0.318707	1.013458
O21	O	1.351972	-0.295215	0.231880
O22	O	1.851972	0.204785	0.731880
O23	O	1.195638	-0.295170	0.388236
O24	O	1.695638	0.204830	0.888236
O25	O	1.357074	-0.381378	0.658039
O26	O	1.857074	0.118622	1.158039
O27	O	1.200659	-0.381410	0.501642
O28	O	1.700659	0.118590	1.001642
O29	O	1.470566	-0.295114	0.663133
O30	O	1.970566	0.204886	1.163133
O31	O	1.482072	-0.495311	0.376493
O32	O	1.982072	0.004689	0.876493
O33	O	1.363620	-0.495276	0.494961
O34	O	1.863620	0.004724	0.994961
C35	C	1.163149	-0.338289	0.444935
C36	C	1.663149	0.161711	0.944935
C37	C	1.055936	-0.338301	0.444942
C38	C	1.555936	0.161699	0.944942
C39	C	0.968867	-0.338303	0.444958
C40	C	1.468867	0.161697	0.944958
C41	C	0.859634	-0.338308	0.444987
C42	C	1.359634	0.161692	0.944987
C43	C	1.424346	-0.520777	0.434248
C44	C	1.924346	-0.020777	0.934248
C45	C	1.428961	-0.598842	0.429694
C46	C	1.928961	-0.098842	0.929694
C47	C	1.369416	-0.635525	0.489184
C48	C	1.869416	-0.135525	0.989184
C49	C	1.373756	-0.708875	0.484901
C50	C	1.873756	-0.208875	0.984901
C51	C	1.437648	-0.745541	0.421133
C52	C	1.937648	-0.245541	0.921133
C53	C	1.497196	-0.708854	0.361637
C54	C	1.997196	-0.208854	0.861637
C55	C	1.492850	-0.635505	0.365915
C56	C	1.992850	-0.135505	0.865915
C57	C	1.453854	-0.967007	0.405128
C58	C	1.953854	-0.467007	0.905128
C59	C	1.458197	-1.040361	0.400856
C60	C	1.958197	-0.540361	0.900856
C61	C	1.334756	-1.040378	0.524119
C62	C	1.834756	-0.540378	1.024119
C63	C	1.330420	-0.967027	0.528396
C64	C	1.830420	-0.467027	1.028396
C65	C	1.389964	-0.930346	0.468896
C66	C	1.889964	-0.430346	0.968896
C67	C	1.442088	-0.820517	0.416756
C68	C	1.942088	-0.320517	0.916756
C69	C	1.385518	-0.855372	0.473269
C70	C	1.885518	-0.355372	0.973269
C71	C	1.665358	-0.338311	0.445001
C72	C	2.165358	0.161689	0.945001
C73	C	1.772572	-0.338316	0.445016
C74	C	2.272572	0.161684	0.945016
C75	C	1.413829	-0.338237	0.696564
C76	C	1.913829	0.161763	1.196564
C77	C	1.413857	-0.338211	0.803780
C78	C	1.913857	0.161789	1.303780
C79	C	1.403168	-0.155109	0.455750
C80	C	1.903168	0.344891	0.955750
C81	C	1.398652	-0.077044	0.460345
C82	C	1.898652	0.422956	0.960345
C83	C	1.413752	-0.338311	0.194353
C84	C	1.913752	0.161689	0.694353
C85	C	1.413900	-0.338139	0.087149
C86	C	1.913900	0.161861	0.587149
C87	C	1.413880	-0.338163	1.000078
C88	C	1.913880	0.161837	1.500078
C89	C	1.413864	-0.338192	0.890844
C90	C	1.913864	0.161808	1.390844
H91	H	1.317393	-0.605676	0.541115
H92	H	1.817393	-0.105676	1.041115
N93	N	1.270523	-1.079943	0.588274
N94	N	1.770523	-0.579943	1.088274
H95	H	1.229388	-1.045584	0.629318
H96	H	1.729388	-0.545584	1.129318
H97	H	1.311558	-1.110326	0.631182
H98	H	1.811558	-0.610326	1.131182
N99	N	1.566105	-0.748406	0.292862
N100	N	2.066105	-0.248406	0.792862
H101	H	1.634257	-0.735586	0.308653
H102	H	2.134257	-0.235586	0.808653
H103	H	1.550324	-0.735677	0.224696
H104	H	2.050324	-0.235677	0.724696
H105	H	1.510231	-1.070213	0.348929
H106	H	2.010231	-0.570213	0.848929
H107	H	1.541337	-0.605638	0.317471
H108	H	2.041337	-0.105638	0.817471
H109	H	1.502339	-0.937147	0.356682
H110	H	2.002339	-0.437147	0.856682
N111	N	1.316605	-0.815823	0.542038
N112	N	1.816605	-0.315823	1.042038
H113	H	1.353981	-0.785339	0.588547
H114	H	1.853981	-0.285339	1.088547
H115	H	1.279553	-0.850231	0.579016
H116	H	1.779553	-0.350231	1.079016
N117	N	1.309544	-0.748447	0.549069
N118	N	1.809544	-0.248447	1.049069
H119	H	1.266668	-0.778930	0.508050
H120	H	1.766668	-0.278930	1.008050
H121	H	1.268474	-0.714050	0.590113
H122	H	1.768474	-0.214050	1.090113
N123	N	1.261503	-0.927481	0.597169
N124	N	1.761503	-0.427481	1.097169
H125	H	1.224435	-0.961851	0.634204
H126	H	1.724435	-0.461851	1.134204
H127	H	1.215088	-0.897103	0.559627
H128	H	1.715088	-0.397103	1.059627
N129	N	1.510991	-0.860074	0.347979
N130	N	2.010991	-0.360074	0.847979
H131	H	1.557463	-0.890458	0.385451
H132	H	2.057463	-0.390458	0.885451
H133	H	1.547996	-0.825670	0.310949
H134	H	2.047996	-0.325670	0.810949
