data_functionalizedCrystal
_audit_creation_method	'MofGen! by Chris Wilmer'
_symmetry_space_group_name_H-M	'P1'
_symmetry_Int_Tables_number	1
_symmetry_cell_setting	triclinic
loop_
_symmetry_equiv_pos_as_xyz
  x,y,z
_cell_length_a	19.288840
_cell_length_b	15.995292
_cell_length_c	18.366186
_cell_angle_alpha	89.996953
_cell_angle_beta	89.983729
_cell_angle_gamma	83.297316
loop_
_atom_site_label
_atom_site_type_symbol
_atom_site_fract_x
_atom_site_fract_y
_atom_site_fract_z
O1	O	0.921617	0.104354	-0.060666
O2	O	1.254950	0.437688	0.272667
O3	O	1.588283	0.771021	0.606000
O4	O	0.719388	0.118467	-0.060640
O5	O	1.052721	0.451800	0.272693
O6	O	1.386054	0.785134	0.606026
O7	O	0.826051	-0.010502	-0.060655
O8	O	1.159385	0.322832	0.272678
O9	O	1.492718	0.656165	0.606012
O10	O	0.814953	0.233323	-0.060651
O11	O	1.148286	0.566657	0.272682
O12	O	1.481620	0.899990	0.606015
O13	O	0.826033	-0.010508	0.060444
O14	O	1.159366	0.322825	0.393778
O15	O	1.492700	0.656159	0.727111
O16	O	0.719370	0.118461	0.060459
O17	O	1.052703	0.451794	0.393792
O18	O	1.386036	0.785127	0.727126
O19	O	0.921599	0.104348	0.060433
O20	O	1.254932	0.437681	0.393766
O21	O	1.588265	0.771015	0.727100
Zn22	Zn	0.820481	0.111403	0.079673
Zn23	Zn	1.153815	0.444737	0.413007
Zn24	Zn	1.487148	0.778070	0.746340
Zn25	Zn	0.820505	0.111412	-0.079880
Zn26	Zn	1.153838	0.444745	0.253453
Zn27	Zn	1.487172	0.778078	0.586786
O28	O	0.814935	0.233317	0.060448
O29	O	1.148268	0.566650	0.393781
O30	O	1.481602	0.899984	0.727115
C31	C	0.693501	0.118013	-0.000087
C32	C	1.026834	0.451347	0.333246
C33	C	1.360167	0.784680	0.666579
C34	C	0.616393	0.116661	-0.000078
C35	C	0.949726	0.449994	0.333256
C36	C	1.283060	0.783327	0.666589
C37	C	0.580198	0.116014	-0.066091
C38	C	0.913531	0.449348	0.267242
C39	C	1.246864	0.782681	0.600576
C40	C	0.507748	0.114734	-0.066100
C41	C	0.841081	0.448067	0.267234
C42	C	1.174414	0.781401	0.600567
C43	C	0.471498	0.114083	-0.000092
C44	C	0.804831	0.447417	0.333241
C45	C	1.138164	0.780750	0.666575
C46	C	0.507701	0.114735	0.065930
C47	C	0.841034	0.448068	0.399263
C48	C	1.174368	0.781401	0.732597
C49	C	0.580149	0.116023	0.065937
C50	C	0.913482	0.449357	0.399270
C51	C	1.246815	0.782690	0.732604
C52	C	0.362039	0.062995	0.050469
C53	C	0.695372	0.396328	0.383802
C54	C	1.028705	0.729661	0.717135
C55	C	0.289593	0.061701	0.050459
C56	C	0.622926	0.395034	0.383792
C57	C	0.956259	0.728367	0.717126
C58	C	0.248044	0.110112	-0.000111
C59	C	0.581378	0.443446	0.333222
C60	C	0.914711	0.776779	0.666556
C61	C	0.278952	0.159807	-0.050683
C62	C	0.612285	0.493140	0.282650
C63	C	0.945619	0.826474	0.615984
C64	C	0.351400	0.161096	-0.050676
C65	C	0.684733	0.494429	0.282657
C66	C	1.018066	0.827762	0.615991
C67	C	0.392940	0.112686	-0.000092
C68	C	0.726274	0.446020	0.333241
C69	C	1.059607	0.779353	0.666575
C70	C	0.133290	0.108079	-0.066138
C71	C	0.466624	0.441412	0.267195
C72	C	0.799957	0.774746	0.600528
C73	C	0.060839	0.106804	-0.066144
C74	C	0.394172	0.440137	0.267189
C75	C	0.727505	0.773470	0.600522
C76	C	0.060794	0.106796	0.065887
C77	C	0.394127	0.440129	0.399221
C78	C	0.727461	0.773463	0.732554
C79	C	0.133244	0.108079	0.065892
C80	C	0.466577	0.441413	0.399225
C81	C	0.799910	0.774746	0.732558
C82	C	0.169488	0.108717	-0.000123
C83	C	0.502821	0.442050	0.333210
C84	C	0.836155	0.775383	0.666543
C85	C	0.825591	-0.041699	-0.000107
C86	C	1.158924	0.291635	0.333226
C87	C	1.492257	0.624968	0.666559
C88	C	0.824236	-0.134646	-0.000112
C89	C	1.157570	0.198687	0.333221
C90	C	1.490903	0.532020	0.666554
C91	C	0.819258	-0.472366	-0.000105
C92	C	1.152591	-0.139032	0.333228
C93	C	1.485925	0.194301	0.666561
C94	C	0.896245	-0.449352	0.000155
C95	C	1.229578	-0.116019	0.333489
C96	C	1.562911	0.217315	0.666822
C97	C	0.897708	-0.352682	-0.000120
C98	C	1.231041	-0.019349	0.333213
C99	C	1.564375	0.313985	0.666546
C100	C	0.821728	-0.304819	-0.000108
C101	C	1.155062	0.028514	0.333225
C102	C	1.488395	0.361847	0.666558
C103	C	0.783249	-0.333767	-0.069255
C104	C	1.116582	-0.000434	0.264078
C105	C	1.449916	0.332899	0.597412
C106	C	0.782322	-0.430554	-0.069310
C107	C	1.115655	-0.097221	0.264023
C108	C	1.448989	0.236112	0.597357
C109	C	0.780729	-0.430412	0.068403
C110	C	1.114063	-0.097079	0.401736
C111	C	1.447396	0.236254	0.735070
C112	C	0.783582	-0.333931	0.069314
C113	C	1.116915	-0.000598	0.402647
C114	C	1.450249	0.332736	0.735980
C115	C	0.823120	-0.210129	-0.000113
C116	C	1.156454	0.123205	0.333221
C117	C	1.489787	0.456538	0.666554
C118	C	0.817864	-0.567056	-0.000106
C119	C	1.151197	-0.233723	0.333227
C120	C	1.484530	0.099611	0.666561
C121	C	0.947485	0.104802	-0.000121
C122	C	1.280819	0.438135	0.333212
C123	C	1.614152	0.771469	0.666545
C124	C	1.024593	0.106155	-0.000136
C125	C	1.357927	0.439488	0.333197
C126	C	1.691260	0.772821	0.666531
C127	C	0.815396	0.264514	-0.000102
C128	C	1.148729	0.597847	0.333232
C129	C	1.482062	0.931181	0.666565
C130	C	0.816750	0.357462	-0.000101
C131	C	1.150083	0.690795	0.333232
C132	C	1.483417	1.024128	0.666566
N133	N	0.820470	0.111397	0.188564
N134	N	1.153803	0.444731	0.521898
N135	N	1.487137	0.778064	0.855231
N136	N	0.820522	0.111411	-0.188772
N137	N	1.153855	0.444745	0.144562
N138	N	1.487188	0.778078	0.477895
C139	C	0.867716	0.054318	0.226658
C140	C	1.201049	0.387651	0.559992
C141	C	1.534383	0.720985	0.893325
C142	C	0.867720	0.054314	0.302886
C143	C	1.201054	0.387647	0.636219
C144	C	1.534387	0.720981	0.969553
C145	C	0.820485	0.111404	0.341017
C146	C	1.153819	0.444737	0.674350
C147	C	1.487152	0.778071	1.007684
C148	C	0.773230	0.168488	0.302914
C149	C	1.106564	0.501821	0.636247
C150	C	1.439897	0.835155	0.969581
C151	C	0.773223	0.168484	0.226688
C152	C	1.106556	0.501818	0.560021
C153	C	1.439889	0.835151	0.893354
C154	C	0.811372	0.187698	0.461779
C155	C	1.144705	0.521032	0.795113
C156	C	1.478039	0.854365	1.128446
C157	C	0.811384	0.187703	0.538004
C158	C	1.144718	0.521036	0.871338
C159	C	1.478051	0.854369	1.204671
C160	C	0.820505	0.111415	0.576125
C161	C	1.153838	0.444748	0.909458
C162	C	1.487172	0.778081	1.242791
C163	C	0.829628	0.035119	0.538011
C164	C	1.162961	0.368452	0.871344
C165	C	1.496295	0.701785	1.204677
C166	C	0.829620	0.035115	0.461784
C167	C	1.162954	0.368449	0.795118
C168	C	1.496287	0.701782	1.128451
C169	C	0.820488	0.111414	0.423672
C170	C	1.153822	0.444747	0.757005
C171	C	1.487155	0.778081	1.090338
C172	C	0.867759	0.054326	0.696873
C173	C	1.201092	0.387660	1.030207
C174	C	1.534425	0.720993	1.363540
C175	C	0.867758	0.054322	0.773103
C176	C	1.201091	0.387655	1.106436
C177	C	1.534425	0.720988	1.439769
C178	C	0.773271	0.168503	0.773129
C179	C	1.106605	0.501836	1.106463
C180	C	1.439938	0.835169	1.439796
C181	C	0.773269	0.168500	0.696901
C182	C	1.106602	0.501834	1.030235
C183	C	1.439935	0.835167	1.363568
C184	C	0.820516	0.111413	0.658778
C185	C	1.153849	0.444746	0.992111
C186	C	1.487182	0.778080	1.325445
H187	H	0.245124	0.199232	-0.091859
H188	H	0.578457	0.532565	0.241474
H189	H	0.911791	0.865899	0.574807
Cl190	Cl	0.178749	0.108887	0.148885
Cl191	Cl	0.512083	0.442220	0.482218
Cl192	Cl	0.845416	0.775553	0.815551
Cl193	Cl	0.941820	-0.494323	-0.075986
Cl194	Cl	1.275153	-0.160989	0.257348
Cl195	Cl	1.608487	0.172344	0.590681
H196	H	0.837047	-0.027007	0.430755
H197	H	1.170380	0.306326	0.764088
H198	H	1.503713	0.639659	1.097422
Cl199	Cl	0.817903	-0.474250	0.149321
Cl200	Cl	1.151237	-0.140917	0.482654
Cl201	Cl	1.484570	0.192416	0.815988
Cl202	Cl	0.625654	0.116835	0.148932
Cl203	Cl	0.958987	0.450168	0.482265
Cl204	Cl	1.292321	0.783502	0.815599
Cl205	Cl	0.944220	-0.323487	0.076416
Cl206	Cl	1.277553	0.009847	0.409749
Cl207	Cl	1.610887	0.343180	0.743083
Cl208	Cl	0.799921	0.283616	0.585911
Cl209	Cl	1.133254	0.616950	0.919244
Cl210	Cl	1.466588	0.950283	1.252578
Cl211	Cl	0.693239	-0.451675	0.069138
Cl212	Cl	1.026573	-0.118341	0.402472
Cl213	Cl	1.359906	0.214992	0.735805
Cl214	Cl	0.697956	-0.282701	0.075776
Cl215	Cl	1.031289	0.050632	0.409110
Cl216	Cl	1.364622	0.383966	0.742443
H217	H	0.162801	0.108607	-0.119891
H218	H	0.496134	0.441940	0.213442
H219	H	0.829468	0.775274	0.546775
Cl220	Cl	0.826834	-0.305432	0.148295
Cl221	Cl	1.160167	0.027902	0.481628
Cl222	Cl	1.493501	0.361235	0.814961
H223	H	0.376561	0.201561	-0.091852
H224	H	0.709894	0.534894	0.241481
H225	H	1.043228	0.868227	0.574815
Cl226	Cl	0.250743	-0.000751	0.114049
Cl227	Cl	0.584076	0.332582	0.447382
Cl228	Cl	0.917410	0.665915	0.780715
Cl229	Cl	0.927108	-0.017451	0.178732
Cl230	Cl	1.260441	0.315882	0.512066
Cl231	Cl	1.593774	0.649215	0.845399
H232	H	0.803933	0.249825	0.430748
H233	H	1.137266	0.583159	0.764081
H234	H	1.470599	0.916492	1.097415
Cl235	Cl	0.414264	0.002129	0.114049
Cl236	Cl	0.747597	0.335462	0.447383
Cl237	Cl	1.080930	0.668796	0.780716
Cl238	Cl	0.713885	0.240267	0.821060
Cl239	Cl	1.047218	0.573600	1.154393
Cl240	Cl	1.380552	0.906934	1.487727
Cl241	Cl	0.713846	0.240255	0.350848
Cl242	Cl	1.047179	0.573589	0.684182
Cl243	Cl	1.380513	0.906922	1.017515
Cl244	Cl	0.823495	-0.472117	-0.149122
Cl245	Cl	1.156828	-0.138784	0.184211
Cl246	Cl	1.490162	0.194550	0.517544
Cl247	Cl	0.713874	0.240265	0.649007
Cl248	Cl	1.047208	0.573598	0.982341
Cl249	Cl	1.380541	0.906932	1.315674
H250	H	0.734748	0.214966	0.195671
H251	H	1.068082	0.548300	0.529004
H252	H	1.401415	0.881633	0.862338
H253	H	0.928038	-0.334393	-0.049781
H254	H	1.261371	-0.001059	0.283552
H255	H	1.594704	0.332274	0.616885
H256	H	0.478181	0.114207	0.119674
H257	H	0.811515	0.447540	0.453007
H258	H	1.144848	0.780873	0.786341
H259	H	0.609703	0.116533	-0.119845
H260	H	0.943037	0.449867	0.213488
H261	H	1.276370	0.783200	0.546821
Cl262	Cl	0.942053	-0.492758	0.076716
Cl263	Cl	1.275386	-0.159425	0.410049
Cl264	Cl	1.608719	0.173908	0.743382
Cl265	Cl	0.927122	-0.017449	0.350784
Cl266	Cl	1.260455	0.315885	0.684117
Cl267	Cl	1.593788	0.649218	1.017450
H268	H	0.837055	-0.027003	0.569047
H269	H	1.170388	0.306331	0.902380
H270	H	1.503721	0.639664	1.235713
Cl271	Cl	0.015334	0.105998	-0.149141
Cl272	Cl	0.348668	0.439332	0.184193
Cl273	Cl	0.682001	0.772665	0.517526
H274	H	0.906228	0.007840	0.665832
H275	H	1.239562	0.341173	0.999165
H276	H	1.572895	0.674507	1.332499
Cl277	Cl	0.695176	-0.452685	-0.074148
Cl278	Cl	1.028509	-0.119352	0.259185
Cl279	Cl	1.361842	0.213982	0.592519
Cl280	Cl	0.696928	-0.284228	-0.073218
Cl281	Cl	1.030261	0.049105	0.260115
Cl282	Cl	1.363594	0.382438	0.593448
H283	H	0.906230	0.007836	0.804119
H284	H	1.239563	0.341169	1.137453
H285	H	1.572896	0.674503	1.470786
H286	H	0.031279	0.106271	0.119632
H287	H	0.364613	0.439604	0.452966
H288	H	0.697946	0.772938	0.786299
Cl289	Cl	0.462236	0.113921	-0.149094
Cl290	Cl	0.795569	0.447254	0.184239
Cl291	Cl	1.128902	0.780587	0.517573
Cl292	Cl	0.824528	-0.302959	-0.148718
Cl293	Cl	1.157861	0.030375	0.184615
Cl294	Cl	1.491194	0.363708	0.517948
