data_functionalizedCrystal
_audit_creation_method	'MofGen! by Chris Wilmer'
_symmetry_space_group_name_H-M	'P1'
_symmetry_Int_Tables_number	1
_symmetry_cell_setting	triclinic
loop_
_symmetry_equiv_pos_as_xyz
  x,y,z
_cell_length_a	14.519731
_cell_length_b	14.519709
_cell_length_c	11.892095
_cell_angle_alpha	93.895429
_cell_angle_beta	86.093342
_cell_angle_gamma	83.684499
loop_
_atom_site_label
_atom_site_type_symbol
_atom_site_fract_x
_atom_site_fract_y
_atom_site_fract_z
O1	O	1.229743	0.115099	-0.094008
O2	O	1.729743	0.615099	0.405992
O3	O	0.961268	0.129315	-0.094010
O4	O	1.461268	0.629315	0.405990
O5	O	1.102623	-0.012031	-0.093999
O6	O	1.602623	0.487969	0.406001
O7	O	1.088388	0.256444	-0.094019
O8	O	1.588388	0.756444	0.405981
O9	O	1.090837	-0.000264	0.094008
O10	O	1.590837	0.499736	0.594008
O11	O	0.949483	0.141082	0.093996
O12	O	1.449483	0.641082	0.593996
O13	O	1.217957	0.126866	0.093998
O14	O	1.717957	0.626866	0.593998
Zn15	Zn	1.081848	0.135842	0.123848
Zn16	Zn	1.581848	0.635842	0.623848
Zn17	Zn	1.097377	0.120339	-0.123859
Zn18	Zn	1.597377	0.620339	0.376141
O19	O	1.076602	0.268211	0.093987
O20	O	1.576602	0.768211	0.593987
C21	C	0.921016	0.134532	-0.000007
C22	C	1.421016	0.634532	0.499993
C23	C	0.818636	0.132536	-0.000007
C24	C	1.318636	0.632536	0.499993
C25	C	0.735492	0.130914	-0.000012
C26	C	1.235492	0.630914	0.499988
C27	C	0.631183	0.128887	-0.000012
C28	C	1.131183	0.628887	0.499988
C29	C	0.548044	0.127279	-0.000012
C30	C	1.048044	0.627279	0.499988
C31	C	0.443729	0.125252	-0.000014
C32	C	0.943729	0.625252	0.499986
C33	C	1.096067	-0.040507	0.000005
C34	C	1.596067	0.459493	0.500005
C35	C	1.094078	-0.142888	0.000005
C36	C	1.594078	0.357112	0.500005
C37	C	1.086761	-0.517786	-0.000024
C38	C	1.586761	-0.017786	0.499976
C39	C	1.088793	-0.413478	-0.000016
C40	C	1.588793	0.086522	0.499984
C41	C	1.090419	-0.330341	-0.000008
C42	C	1.590419	0.169659	0.499992
C43	C	1.092452	-0.226025	-0.000002
C44	C	1.592452	0.273975	0.499998
C45	C	1.258209	0.121648	-0.000007
C46	C	1.758209	0.621648	0.499993
C47	C	1.360590	0.123644	-0.000014
C48	C	1.860590	0.623644	0.499986
C49	C	1.083159	0.296687	-0.000019
C50	C	1.583159	0.796687	0.499981
C51	C	1.085147	0.399068	-0.000027
C52	C	1.585147	0.899068	0.499973
N53	N	1.071257	0.146422	0.292901
N54	N	1.571257	0.646422	0.792901
N55	N	1.107975	0.109751	-0.292912
N56	N	1.607975	0.609751	0.207088
C57	C	1.181672	0.036077	0.529557
C58	C	1.681672	0.536077	1.029557
C59	C	1.174276	0.043479	0.647899
C60	C	1.674276	0.543479	1.147899
C61	C	1.049064	0.168623	0.647927
C62	C	1.549064	0.668623	1.147927
C63	C	1.056461	0.161221	0.529586
C64	C	1.556461	0.661221	1.029586
C65	C	1.122768	0.094947	0.470405
C66	C	1.622768	0.594947	0.970405
C67	C	1.130168	0.087550	0.352062
C68	C	1.630168	0.587550	0.852062
C69	C	1.004953	0.212689	0.352092
C70	C	1.504953	0.712689	0.852092
C71	C	0.997556	0.220091	0.470433
C72	C	1.497556	0.720091	0.970433
H73	H	1.184160	0.033588	0.303878
H74	H	1.684160	0.533588	0.803878
H75	H	0.995073	0.222576	0.696127
H76	H	1.495073	0.722576	1.196127
C77	C	0.863769	0.248149	0.603559
C78	C	1.363769	0.748149	1.103559
C79	C	0.924678	0.292937	0.535496
C80	C	1.424678	0.792937	1.035496
H81	H	0.818782	0.293125	0.643729
H82	H	1.318782	0.793125	1.143729
H83	H	0.833418	0.206812	0.557401
H84	H	1.333418	0.706812	1.057401
H85	H	0.897803	0.214147	0.655719
H86	H	1.397803	0.714147	1.155719
H87	H	0.890645	0.326934	0.483330
H88	H	1.390645	0.826934	0.983330
H89	H	0.955032	0.334291	0.581658
H90	H	1.455032	0.834291	1.081658
C91	C	1.237864	-0.125731	0.493068
C92	C	1.737864	0.374269	0.993068
C93	C	1.254557	-0.036755	0.464480
C94	C	1.754557	0.463245	0.964480
H95	H	1.282859	-0.170690	0.452881
H96	H	1.782859	0.329310	0.952881
H97	H	1.241905	-0.129755	0.572000
H98	H	1.741905	0.370245	1.072000
H99	H	1.177511	-0.137093	0.473691
H100	H	1.677511	0.362907	0.973691
H101	H	1.314908	-0.025390	0.483864
H102	H	1.814908	0.474610	0.983864
H103	H	1.250525	-0.032728	0.385530
H104	H	1.750525	0.467272	0.885530
H105	H	0.956991	0.260628	0.303916
H106	H	1.456991	0.760628	0.803916
C107	C	1.185762	-0.073664	0.780978
C108	C	1.685762	0.426336	1.280978
C109	C	1.239025	-0.021232	0.712921
C110	C	1.739025	0.478768	1.212921
H111	H	1.225738	-0.113619	0.821114
H112	H	1.725738	0.386381	1.321114
H113	H	1.145227	-0.033136	0.833157
H114	H	1.645227	0.466864	1.333157
H115	H	1.150209	-0.109808	0.734811
H116	H	1.650209	0.390192	1.234811
H117	H	1.274573	0.014918	0.759089
H118	H	1.774573	0.514918	1.259089
H119	H	1.279576	-0.061765	0.660735
H120	H	1.779576	0.438235	1.160735
