data_functionalizedCrystal
_audit_creation_method	'MofGen! by Chris Wilmer'
_symmetry_space_group_name_H-M	'P1'
_symmetry_Int_Tables_number	1
_symmetry_cell_setting	triclinic
loop_
_symmetry_equiv_pos_as_xyz
  x,y,z
_cell_length_a	14.044191
_cell_length_b	19.288855
_cell_length_c	17.766277
_cell_angle_alpha	89.992196
_cell_angle_beta	90.006916
_cell_angle_gamma	91.837990
loop_
_atom_site_label
_atom_site_type_symbol
_atom_site_fract_x
_atom_site_fract_y
_atom_site_fract_z
O1	O	1.256992	-0.167435	0.062566
O2	O	0.981049	-0.161389	0.062575
O3	O	1.126999	-0.063794	0.062560
O4	O	1.111042	-0.265030	0.062581
O5	O	1.126973	-0.063789	-0.062628
O6	O	0.981023	-0.161384	-0.062613
O7	O	1.256966	-0.167431	-0.062623
Cu8	Cu	1.118992	-0.164407	-0.074049
Cu9	Cu	1.119023	-0.164413	0.074001
O10	O	1.111016	-0.265025	-0.062608
C11	C	0.945733	-0.158742	-0.000018
C12	C	0.840541	-0.150852	-0.000015
C13	C	0.590075	-0.192384	-0.000018
C14	C	0.647946	-0.136439	-0.000023
C15	C	0.755115	-0.144460	-0.000018
C16	C	0.482895	-0.184364	-0.000023
C17	C	1.126474	-0.037882	-0.000035
C18	C	1.124937	0.039320	-0.000038
C19	C	1.124234	0.075575	0.068203
C20	C	1.122777	0.148114	0.068208
C21	C	1.122042	0.184398	-0.000031
C22	C	1.122740	0.148135	-0.068280
C23	C	1.124187	0.075596	-0.068284
C24	C	1.175242	0.301211	-0.052309
C25	C	1.173800	0.373749	-0.052303
C26	C	1.117572	0.408131	-0.000024
C27	C	1.062799	0.369967	0.052261
C28	C	1.064247	0.297428	0.052258
C29	C	1.120471	0.263054	-0.000035
C30	C	1.115288	0.523041	0.068226
C31	C	1.113825	0.595582	0.068228
C32	C	1.113797	0.595601	-0.068262
C33	C	1.115250	0.523061	-0.068262
C34	C	1.116000	0.486786	-0.000016
C35	C	1.292282	-0.170078	-0.000028
C36	C	1.397474	-0.177968	-0.000026
C37	C	1.111544	0.709063	-0.000013
C38	C	1.113088	0.631860	-0.000012
N39	N	1.118977	-0.164403	-0.178179
C40	C	1.176258	-0.210109	-0.217557
C41	C	1.176273	-0.210108	-0.296359
C42	C	1.118990	-0.164408	-0.335780
C43	C	1.061705	-0.118694	-0.296392
C44	C	1.061699	-0.118691	-0.217592
C45	C	1.033568	-0.157161	-0.460637
C46	C	1.033572	-0.157168	-0.539435
C47	C	1.119009	-0.164411	-0.578826
C48	C	1.204444	-0.171662	-0.539408
C49	C	1.204438	-0.171659	-0.460608
C50	C	1.118990	-0.164405	-0.421225
C51	C	1.176311	-0.210118	-0.703650
C52	C	1.176328	-0.210112	-0.782453
C53	C	1.061751	-0.118702	-0.782485
C54	C	1.061743	-0.118704	-0.703683
C55	C	1.119022	-0.164416	-0.664270
N56	N	1.119045	-0.164412	0.178132
H57	H	1.124842	0.046043	0.123774
H58	H	1.274001	-0.177561	-0.428517
O59	O	1.231952	-0.254413	-0.179187
C60	C	1.296811	-0.216109	-0.133616
H61	H	1.267555	-0.162741	-0.121827
H62	H	1.368091	-0.209931	-0.163973
C63	C	1.346823	-0.320251	-0.073232
C64	C	1.310887	-0.254706	-0.058748
H65	H	1.355510	-0.344060	-0.027051
H66	H	1.303129	-0.346058	-0.103936
H67	H	1.406220	-0.315094	-0.098532
H68	H	1.251486	-0.259864	-0.033457
H69	H	1.354571	-0.228900	-0.028038
H70	H	1.218403	0.404817	-0.094874
H71	H	1.017013	0.397959	0.094831
H72	H	1.122199	0.177638	0.123779
H73	H	0.617003	-0.082519	0.000025
H74	H	0.621016	-0.246299	-0.000011
O75	O	1.010948	0.260460	0.103068
C76	C	0.961026	0.306354	0.149228
H77	H	0.953284	0.357842	0.118675
H78	H	1.002037	0.315453	0.203908
C79	C	0.871060	0.211406	0.204584
C80	C	0.861544	0.274643	0.167056
H81	H	0.809697	0.191845	0.215584
H82	H	0.904696	0.180486	0.173488
H83	H	0.905240	0.218997	0.250146
H84	H	0.827376	0.267050	0.121490
H85	H	0.827900	0.305561	0.198145
O86	O	1.115961	0.487903	0.134583
C87	C	1.115042	0.535462	0.194818
H88	H	1.084008	0.586155	0.174814
H89	H	1.190899	0.545754	0.215800
C90	C	1.091605	0.442770	0.283860
C91	C	1.053481	0.505030	0.259293
H92	H	1.053636	0.423998	0.323633
H93	H	1.092228	0.410728	0.243280
H94	H	1.154818	0.451356	0.301340
H95	H	0.990274	0.496442	0.241805
H96	H	1.052846	0.537070	0.299872
O97	O	1.112936	0.630903	-0.134506
C98	C	1.030021	0.670055	-0.138585
H99	H	1.002478	0.679991	-0.079329
H100	H	0.973112	0.640142	-0.172244
C101	C	1.087363	0.727603	-0.250396
C102	C	1.053538	0.739812	-0.177616
H103	H	1.101867	0.770631	-0.274475
H104	H	1.143223	0.701224	-0.247650
H105	H	1.039933	0.702674	-0.278435
H106	H	1.100972	0.764732	-0.149576
H107	H	0.997687	0.766197	-0.180358
H108	H	1.113248	0.625099	0.123800
O109	O	0.950589	-0.150253	-0.577761
C110	C	0.933428	-0.209166	-0.623344
H111	H	0.973468	-0.254761	-0.599576
H112	H	0.959122	-0.197701	-0.683063
C113	C	0.776708	-0.171417	-0.653768
C114	C	0.825880	-0.227418	-0.624571
H115	H	0.710368	-0.182674	-0.654528
H116	H	0.788270	-0.131724	-0.623060
H117	H	0.798131	-0.161868	-0.703531
H118	H	0.804466	-0.236960	-0.574807
H119	H	0.814312	-0.267113	-0.655271
H120	H	1.115831	0.493543	-0.123831
O121	O	1.229989	0.267928	-0.103101
C122	C	1.278030	0.317165	-0.149240
H123	H	1.283658	0.369103	-0.118689
H124	H	1.236755	0.323471	-0.203942
C125	C	1.371750	0.228478	-0.204537
C126	C	1.378670	0.292268	-0.167011
H127	H	1.433828	0.213120	-0.215502
H128	H	1.339382	0.195306	-0.173455
H129	H	1.337350	0.233742	-0.250118
H130	H	1.413058	0.287001	-0.121427
H131	H	1.411046	0.325439	-0.198086
H132	H	1.122138	0.177681	-0.123841
O133	O	1.231942	-0.254576	-0.334505
C134	C	1.282516	-0.294906	-0.282821
H135	H	1.243272	-0.296508	-0.226653
H136	H	1.357024	-0.270946	-0.274437
C137	C	1.338325	-0.367197	-0.382550
C138	C	1.290120	-0.369169	-0.313565
H139	H	1.343020	-0.413006	-0.401515
H140	H	1.304255	-0.340025	-0.417372
H141	H	1.400410	-0.347228	-0.375554
H142	H	1.228033	-0.389131	-0.320563
H143	H	1.324179	-0.396347	-0.278745
H144	H	1.124756	0.046078	-0.123855
H145	H	1.274014	-0.177563	-0.571478
O146	O	1.232044	-0.254540	-0.665476
C147	C	1.282596	-0.294889	-0.717135
H148	H	1.288260	-0.266487	-0.773309
H149	H	1.243322	-0.346960	-0.725515
C150	C	1.376262	-0.341876	-0.617366
C151	C	1.383226	-0.306989	-0.686358
H152	H	1.438334	-0.349343	-0.598381
H153	H	1.342202	-0.314694	-0.582561
H154	H	1.343529	-0.385264	-0.624359
H155	H	1.415947	-0.263598	-0.679363
H156	H	1.417294	-0.334164	-0.721161
O157	O	1.006002	-0.074287	-0.665543
C158	C	0.955462	-0.033938	-0.717231
H159	H	0.949811	-0.062340	-0.773399
H160	H	0.994738	0.018133	-0.725615
C161	C	0.861773	0.013049	-0.617508
C162	C	0.854825	-0.021838	-0.686492
H163	H	0.799696	0.020515	-0.598546
H164	H	0.895825	-0.014133	-0.582684
H165	H	0.894507	0.056438	-0.624504
H166	H	0.822102	-0.065230	-0.679494
H167	H	0.820765	0.005337	-0.721315
H168	H	1.222980	-0.247330	-0.814514
O169	O	0.950477	-0.150150	-0.422493
C170	C	0.875078	-0.143742	-0.474179
H171	H	0.895720	-0.167561	-0.530344
H172	H	0.859979	-0.086537	-0.482571
C173	C	0.759873	-0.152586	-0.374449
C174	C	0.785224	-0.181847	-0.443429
H175	H	0.704445	-0.176088	-0.355480
H176	H	0.810671	-0.156901	-0.339626
H177	H	0.747297	-0.104916	-0.381451
H178	H	0.797810	-0.229514	-0.436424
H179	H	0.734426	-0.177542	-0.478250
O180	O	1.005961	-0.074270	-0.179453
C181	C	0.955423	-0.033917	-0.231139
H182	H	0.949773	-0.062317	-0.287309
H183	H	0.994701	0.018154	-0.239519
C184	C	0.861732	0.013067	-0.131415
C185	C	0.854786	-0.021817	-0.200402
H186	H	0.799656	0.020534	-0.112454
H187	H	0.895783	-0.014117	-0.096592
H188	H	0.894468	0.056455	-0.138408
H189	H	0.822061	-0.065208	-0.193406
H190	H	0.820727	0.005360	-0.235223
H191	H	1.015110	-0.081492	-0.814580
H192	H	1.015065	-0.081484	-0.328493
