data_functionalizedCrystal
_audit_creation_method	'MofGen! by Chris Wilmer'
_symmetry_space_group_name_H-M	'P1'
_symmetry_Int_Tables_number	1
_symmetry_cell_setting	triclinic
loop_
_symmetry_equiv_pos_as_xyz
  x,y,z
_cell_length_a	23.532361
_cell_length_b	23.532407
_cell_length_c	12.996460
_cell_angle_alpha	89.989202
_cell_angle_beta	89.998689
_cell_angle_gamma	82.839173
loop_
_atom_site_label
_atom_site_type_symbol
_atom_site_fract_x
_atom_site_fract_y
_atom_site_fract_z
O1	O	0.755277	0.069010	-0.085474
O2	O	1.255277	0.569010	0.414526
O3	O	0.589410	0.079041	-0.085500
O4	O	1.089410	0.579041	0.414500
O5	O	0.677346	-0.008907	-0.085467
O6	O	1.177346	0.491093	0.414533
O7	O	0.667342	0.156958	-0.085507
O8	O	1.167342	0.656958	0.414493
O9	O	0.677337	-0.008912	0.085666
O10	O	1.177337	0.491088	0.585666
O11	O	0.589401	0.079036	0.085634
O12	O	1.089401	0.579036	0.585634
O13	O	0.755268	0.069005	0.085660
O14	O	1.255268	0.569005	0.585660
Cu15	Cu	0.672334	0.074020	0.101273
Cu16	Cu	1.172334	0.574020	0.601273
Cu17	Cu	0.672345	0.074025	-0.101113
Cu18	Cu	1.172345	0.574025	0.398887
O19	O	0.667333	0.156953	0.085627
O20	O	1.167333	0.656953	0.585627
C21	C	0.568189	0.078787	0.000064
C22	C	1.068189	0.578787	0.500064
C23	C	0.504971	0.078032	0.000055
C24	C	1.004971	0.578032	0.500055
C25	C	0.231732	0.074731	-0.093224
C26	C	0.731732	0.574731	0.406776
C27	C	0.291132	0.075446	-0.093226
C28	C	0.791132	0.575446	0.406774
O29	O	0.321862	0.075798	-0.172560
O30	O	0.821862	0.575798	0.327440
N31	N	0.320832	0.075804	0.000059
N32	N	0.820832	0.575804	0.500059
C33	C	0.291131	0.075442	0.093353
C34	C	0.791131	0.575442	0.593353
O35	O	0.321848	0.075812	0.172699
O36	O	0.821848	0.575812	0.672699
C37	C	0.231733	0.074723	0.093355
C38	C	0.731733	0.574723	0.593355
C39	C	0.202035	0.074370	0.000063
C40	C	0.702035	0.574370	0.500063
C41	C	0.202034	0.074377	-0.186507
C42	C	0.702034	0.574377	0.313493
C43	C	0.142638	0.073664	-0.186504
C44	C	0.642638	0.573664	0.313496
C45	C	0.112940	0.073303	-0.093217
C46	C	0.612940	0.573303	0.406783
C47	C	0.142639	0.073657	0.000066
C48	C	0.642639	0.573657	0.500066
C49	C	0.202033	0.074357	0.186648
C50	C	0.702033	0.574357	0.686648
C51	C	0.142631	0.073637	0.186641
C52	C	0.642631	0.573637	0.686641
C53	C	0.112933	0.073285	0.093350
C54	C	0.612933	0.573285	0.593350
C55	C	0.053546	0.072582	0.093356
C56	C	0.553546	0.572582	0.593356
N57	N	0.023845	0.072224	0.000071
N58	N	0.523845	0.572224	0.500071
C59	C	0.053542	0.072584	-0.093216
C60	C	0.553542	0.572584	0.406784
C61	C	0.415871	0.076951	0.093343
C62	C	0.915871	0.576951	0.593343
C63	C	0.475268	0.077674	0.093342
C64	C	0.975268	0.577674	0.593342
C65	C	0.475264	0.077677	-0.093238
C66	C	0.975264	0.577677	0.406762
C67	C	0.415866	0.076958	-0.093236
C68	C	0.915866	0.576958	0.406764
C69	C	0.386171	0.076593	0.000057
C70	C	0.886171	0.576593	0.500057
C71	C	-0.071193	0.071086	-0.093202
C72	C	0.428807	0.571086	0.406798
C73	C	-0.130595	0.070374	-0.093191
C74	C	0.369405	0.570374	0.406809
C75	C	-0.130586	0.070369	0.093388
C76	C	0.369414	0.570369	0.593388
C77	C	-0.071190	0.071083	0.093378
C78	C	0.428810	0.571083	0.593378
C79	C	-0.041495	0.071440	0.000074
C80	C	0.458505	0.571440	0.500074
O81	O	0.022778	0.072227	0.172650
O82	O	0.522778	0.572227	0.672650
O83	O	0.022819	0.072206	-0.172549
O84	O	0.522819	0.572206	0.327451
C85	C	0.677086	-0.030126	0.000102
C86	C	1.177086	0.469874	0.500102
C87	C	0.676320	-0.093343	0.000110
C88	C	1.176320	0.406657	0.500110
C89	C	0.723555	-0.492454	0.000061
C90	C	1.223555	0.007546	0.500061
C91	C	0.722844	-0.551854	0.000053
C92	C	1.222844	-0.051854	0.500053
O93	O	0.766630	-0.588606	0.000022
O94	O	1.266630	-0.088606	0.500022
N95	N	0.670566	-0.574471	0.000045
N96	N	1.170566	-0.074471	0.500045
C97	C	0.618997	-0.537685	0.000035
C98	C	1.118997	-0.037685	0.500035
O99	O	0.574465	-0.562377	0.000027
O100	O	1.074465	-0.062377	0.500027
C101	C	0.619709	-0.478286	0.000036
C102	C	1.119709	0.021714	0.500036
C103	C	0.671990	-0.455672	0.000054
C104	C	1.171990	0.044328	0.500054
C105	C	0.775832	-0.469839	0.000078
C106	C	1.275832	0.030161	0.500078
C107	C	0.776543	-0.410443	0.000087
C108	C	1.276543	0.089557	0.500087
C109	C	0.724977	-0.373662	0.000081
C110	C	1.224977	0.126338	0.500081
C111	C	0.672701	-0.396276	0.000064
C112	C	1.172701	0.103724	0.500064
C113	C	0.568140	-0.441501	0.000019
C114	C	1.068140	0.058499	0.500019
C115	C	0.568857	-0.382099	0.000018
C116	C	1.068857	0.117901	0.500018
C117	C	0.621137	-0.359485	0.000036
C118	C	1.121137	0.140515	0.500036
C119	C	0.621847	-0.300099	0.000067
C120	C	1.121847	0.199901	0.500067
N121	N	0.674124	-0.277481	0.000074
N122	N	1.174124	0.222519	0.500074
C123	C	0.725690	-0.314263	0.000081
C124	C	1.225690	0.185737	0.500081
C125	C	0.617505	-0.662427	0.000032
C126	C	1.117505	-0.162427	0.500032
C127	C	0.616793	-0.721825	0.000039
C128	C	1.116793	-0.221825	0.500039
C129	C	0.720640	-0.735990	0.000055
C130	C	1.220640	-0.235990	0.500055
C131	C	0.721352	-0.676591	0.000055
C132	C	1.221352	-0.176591	0.500055
C133	C	0.669783	-0.639810	0.000040
C134	C	1.169783	-0.139810	0.500040
C135	C	0.727179	-0.189526	0.000103
C136	C	1.227179	0.310474	0.500103
C137	C	0.727886	-0.130124	0.000117
C138	C	1.227886	0.369876	0.500117
C139	C	0.624039	-0.115965	0.000096
C140	C	1.124039	0.384035	0.500096
C141	C	0.623332	-0.175361	0.000087
C142	C	1.123332	0.324639	0.500087
C143	C	0.674907	-0.212141	0.000087
C144	C	1.174907	0.287859	0.500087
O145	O	0.578083	-0.263312	0.000094
O146	O	1.078083	0.236688	0.500094
O147	O	0.770214	-0.289562	0.000076
O148	O	1.270214	0.210438	0.500076
C149	C	0.776489	0.069258	0.000094
C150	C	1.276489	0.569258	0.500094
C151	C	0.839708	0.070014	0.000096
C152	C	1.339708	0.570014	0.500096
C153	C	0.667592	0.178171	0.000055
C154	C	1.167592	0.678171	0.500055
C155	C	0.668358	0.241388	0.000041
C156	C	1.168358	0.741388	0.500041
N157	N	0.672331	0.074015	0.243620
N158	N	1.172331	0.574015	0.743620
N159	N	0.672353	0.074025	-0.243460
N160	N	1.172353	0.574025	0.256540
C161	C	0.672344	0.074026	0.663434
C162	C	1.172344	0.574026	1.163434
C163	C	0.672339	0.074025	0.546629
C164	C	1.172339	0.574025	1.046629
C165	C	0.672338	0.074021	0.453531
C166	C	1.172338	0.574021	0.953531
C167	C	0.672332	0.074019	0.336718
C168	C	1.172332	0.574019	0.836718
H169	H	0.118455	0.073345	0.262614
H170	H	0.618455	0.573345	0.762614
C171	C	-0.038521	0.071475	0.196002
C172	C	0.461479	0.571475	0.696002
N173	N	-0.013918	0.071765	0.273301
N174	N	0.486082	0.571765	0.773301
H175	H	0.763923	-0.658183	0.000069
H176	H	1.263923	-0.158183	0.500069
C177	C	0.777363	-0.776461	0.000052
C178	C	1.277363	-0.276461	0.500052
N179	N	0.820084	-0.806946	0.000048
N180	N	1.320084	-0.306946	0.500048
H181	H	0.769176	-0.219466	0.000099
H182	H	1.269176	0.280534	0.500099
C183	C	0.559280	-0.746693	0.000032
C184	C	1.059280	-0.246693	0.500032
N185	N	0.515959	-0.765421	0.000020
N186	N	1.015959	-0.265421	0.500020
C187	C	-0.163264	0.069970	0.195999
C188	C	0.336736	0.569970	0.695999
N189	N	-0.187878	0.069665	0.273286
N190	N	0.312122	0.569665	0.773286
C191	C	-0.038538	0.071481	-0.195841
C192	C	0.461462	0.571481	0.304159
N193	N	-0.013943	0.071783	-0.273149
N194	N	0.486057	0.571783	0.226851
C195	C	0.560771	-0.621972	0.000029
C196	C	1.060771	-0.121972	0.500029
N197	N	0.518039	-0.591505	0.000025
N198	N	1.018039	-0.091505	0.500025
C199	C	0.383205	0.076564	-0.195863
C200	C	0.883205	0.576564	0.304137
N201	N	0.358607	0.076264	-0.273166
N202	N	0.858607	0.576264	0.226834
H203	H	-0.154773	0.070089	-0.169163
H204	H	0.345227	0.570089	0.330837
H205	H	0.525567	-0.459902	-0.000002
H206	H	1.025567	0.040098	0.499998
C207	C	0.109979	0.073263	-0.289133
C208	C	0.609979	0.573263	0.210867
N209	N	0.085385	0.072957	-0.366439
N210	N	0.585385	0.572957	0.133561
C211	C	0.834056	-0.385576	0.000096
C212	C	1.334056	0.114424	0.500096
N213	N	0.877379	-0.366851	0.000099
N214	N	1.377379	0.133149	0.500099
H215	H	0.526862	-0.352154	0.000004
H216	H	1.026862	0.147846	0.500004
H217	H	0.580761	-0.193774	0.000101
H218	H	1.080761	0.306226	0.500101
H219	H	0.226207	0.074669	-0.262477
H220	H	0.726207	0.574669	0.237523
H221	H	0.499455	0.077970	-0.169197
H222	H	0.999455	0.577970	0.330803
H223	H	0.499442	0.077971	0.169309
H224	H	0.999442	0.577971	0.669309
H225	H	0.226204	0.074642	0.262616
H226	H	0.726204	0.574642	0.762616
C227	C	0.383210	0.076563	0.195980
C228	C	0.883210	0.576563	0.695980
N229	N	0.358611	0.076272	0.273286
N230	N	0.858611	0.576272	0.773286
C231	C	0.785401	-0.105253	0.000134
C232	C	1.285401	0.394747	0.500134
N233	N	0.828721	-0.086523	0.000143
N234	N	1.328721	0.413477	0.500143
H235	H	0.582056	-0.086007	0.000094
H236	H	1.082056	0.413993	0.500094
C237	C	0.832563	-0.510291	0.000096
C238	C	1.332563	-0.010291	0.500096
N239	N	0.875297	-0.540756	0.000122
N240	N	1.375297	-0.040756	0.500122
