data_functionalizedCrystal
_audit_creation_method	'MofGen! by Chris Wilmer'
_symmetry_space_group_name_H-M	'P1'
_symmetry_Int_Tables_number	1
_symmetry_cell_setting	triclinic
loop_
_symmetry_equiv_pos_as_xyz
  x,y,z
_cell_length_a	21.295418
_cell_length_b	29.839131
_cell_length_c	21.295411
_cell_angle_alpha	89.971982
_cell_angle_beta	89.956262
_cell_angle_gamma	90.051038
loop_
_atom_site_label
_atom_site_type_symbol
_atom_site_fract_x
_atom_site_fract_y
_atom_site_fract_z
Zn1	Zn	0.962335	-0.178715	-0.356206
Zn2	Zn	1.462335	0.321285	0.143794
Zn3	Zn	0.962229	-0.253830	-0.250919
Zn4	Zn	1.462229	0.246170	0.249081
Zn5	Zn	0.857058	-0.178736	-0.250916
Zn6	Zn	1.357058	0.321264	0.249084
Zn7	Zn	0.857019	-0.253839	-0.356116
Zn8	Zn	1.357019	0.246161	0.143884
O9	O	0.909660	-0.216280	-0.303539
O10	O	1.409660	0.283720	0.196461
O11	O	1.050410	-0.188667	-0.342279
O12	O	1.550410	0.311333	0.157721
O13	O	0.948250	-0.243874	-0.162829
O14	O	1.448250	0.256126	0.337171
O15	O	0.871084	-0.115866	-0.264918
O16	O	1.371084	0.384134	0.235082
O17	O	1.050332	-0.243854	-0.264925
O18	O	1.550332	0.256146	0.235075
O19	O	0.948431	-0.115851	-0.342275
O20	O	1.448431	0.384149	0.157725
O21	O	0.870981	-0.188703	-0.162827
O22	O	1.370981	0.311297	0.337173
O23	O	0.768964	-0.188711	-0.264831
O24	O	1.268964	0.311289	0.235169
O25	O	0.871017	-0.243869	-0.444217
O26	O	1.371017	0.256131	0.055783
O27	O	0.768935	-0.243889	-0.342122
O28	O	1.268935	0.256111	0.157878
O29	O	0.948393	-0.188675	-0.444283
O30	O	1.448393	0.311325	0.055717
O31	O	0.948212	-0.316699	-0.264838
O32	O	1.448212	0.183301	0.235162
O33	O	0.870914	-0.316705	-0.342125
O34	O	1.370914	0.183295	0.157875
C35	C	0.746109	-0.216304	-0.303467
C36	C	1.246109	0.283696	0.196533
C37	C	0.676141	-0.216325	-0.303451
C38	C	1.176141	0.283675	0.196549
C39	C	0.643275	-0.245094	-0.343635
C40	C	1.143275	0.254906	0.156365
C41	C	0.577533	-0.245083	-0.343664
C42	C	1.077533	0.254917	0.156336
C43	C	0.544658	-0.216307	-0.303496
C44	C	1.044658	0.283693	0.196504
C45	C	0.577531	-0.187532	-0.263308
C46	C	1.077531	0.312468	0.236692
C47	C	0.643272	-0.187541	-0.263286
C48	C	1.143272	0.312459	0.236714
N49	N	0.441382	-0.212791	-0.248439
N50	N	0.941382	0.287209	0.251561
N51	N	0.378931	-0.212785	-0.248462
N52	N	0.878931	0.287215	0.251538
C53	C	0.346583	-0.216279	-0.303563
C54	C	0.846583	0.283721	0.196437
N55	N	0.379046	-0.219787	-0.358640
N56	N	0.879046	0.280213	0.141360
N57	N	0.441504	-0.219795	-0.358616
N58	N	0.941504	0.280205	0.141384
C59	C	0.473373	-0.216294	-0.303516
C60	C	0.973373	0.283706	0.196484
C61	C	0.242433	-0.245037	-0.343782
C62	C	0.742433	0.254963	0.156218
C63	C	0.176689	-0.245023	-0.343811
C64	C	0.676689	0.254977	0.156189
C65	C	0.176689	-0.187475	-0.263450
C66	C	0.676689	0.312525	0.236550
C67	C	0.242431	-0.187487	-0.263426
C68	C	0.742431	0.312513	0.236574
C69	C	0.275299	-0.216271	-0.303591
C70	C	0.775299	0.283729	0.196409
C71	C	0.909564	-0.333003	-0.303486
C72	C	1.409564	0.166997	0.196514
C73	C	0.909581	-0.382937	-0.303484
C74	C	1.409581	0.117063	0.196516
C75	C	0.949926	-0.692538	-0.343876
C76	C	1.449926	-0.192538	0.156124
C77	C	0.949994	-0.880211	-0.343914
C78	C	1.449994	-0.380211	0.156086
O79	O	0.984203	-0.904439	-0.378217
O80	O	1.484203	-0.404439	0.121783
N81	N	0.909767	-0.903722	-0.303609
N82	N	1.409767	-0.403722	0.196391
C83	C	0.869517	-0.880313	-0.263295
C84	C	1.369517	-0.380313	0.236705
O85	O	0.835299	-0.904617	-0.229019
O86	O	1.335299	-0.404617	0.270981
C87	C	0.869446	-0.692640	-0.263261
C88	C	1.369446	-0.192640	0.236739
C89	C	0.909680	-0.669131	-0.303564
C90	C	1.409680	-0.169131	0.196436
C91	C	0.990156	-0.669028	-0.384176
C92	C	1.490156	-0.169028	0.115824
C93	C	0.990141	-0.622113	-0.384164
C94	C	1.490141	-0.122113	0.115836
C95	C	0.949896	-0.598707	-0.343851
C96	C	1.449896	-0.098707	0.156149
C97	C	0.909665	-0.622216	-0.303551
C98	C	1.409665	-0.122216	0.196449
C99	C	0.829194	-0.669232	-0.222950
C100	C	1.329194	-0.169232	0.277050
C101	C	0.829179	-0.622311	-0.222946
C102	C	1.329179	-0.122311	0.277054
C103	C	0.869413	-0.598802	-0.263249
C104	C	1.369413	-0.098802	0.236751
C105	C	0.869405	-0.551894	-0.263227
C106	C	1.369405	-0.051894	0.236773
N107	N	0.909632	-0.528383	-0.303531
N108	N	1.409632	-0.028383	0.196469
C109	C	0.949877	-0.551789	-0.343844
C110	C	1.449877	-0.051789	0.156156
C111	C	0.869558	-0.978843	-0.263315
C112	C	1.369558	-0.478843	0.236685
C113	C	0.869577	-1.025761	-0.263322
C114	C	1.369577	-0.525761	0.236678
C115	C	0.950053	-1.025656	-0.343942
C116	C	1.450053	-0.525656	0.156058
C117	C	0.950037	-0.978737	-0.343931
C118	C	1.450037	-0.478737	0.156069
C119	C	0.909785	-0.955332	-0.303620
C120	C	1.409785	-0.455332	0.196380
C121	C	0.949843	-0.453263	-0.343814
C122	C	1.449843	0.046737	0.156186
C123	C	0.949826	-0.406343	-0.343797
C124	C	1.449826	0.093657	0.156203
C125	C	0.869348	-0.406453	-0.263180
C126	C	1.369348	0.093547	0.236820
C127	C	0.869367	-0.453368	-0.263195
C128	C	1.369367	0.046632	0.236805
C129	C	0.909616	-0.476772	-0.303517
C130	C	1.409616	0.023228	0.196483
O131	O	0.835209	-0.527637	-0.228947
O132	O	1.335209	-0.027637	0.271053
O133	O	0.984081	-0.527476	-0.378125
O134	O	1.484081	-0.027476	0.121875
C135	C	0.949941	-0.739453	-0.343888
C136	C	1.449941	-0.239453	0.156112
C137	C	0.909711	-0.762962	-0.303588
C138	C	1.409711	-0.262962	0.196412
C139	C	0.869465	-0.739556	-0.263276
C140	C	1.369465	-0.239556	0.236724
C141	C	0.909729	-0.809880	-0.303596
C142	C	1.409729	-0.309880	0.196404
C143	C	0.949974	-0.833286	-0.343908
C144	C	1.449974	-0.333286	0.156092
C145	C	0.990201	-0.809775	-0.384213
C146	C	1.490201	-0.309775	0.115787
C147	C	0.990186	-0.762859	-0.384201
C148	C	1.490186	-0.262859	0.115799
C149	C	0.829238	-0.763068	-0.222971
C150	C	1.329238	-0.263068	0.277029
C151	C	0.829257	-0.809983	-0.222986
C152	C	1.329257	-0.309983	0.277014
C153	C	0.869503	-0.833389	-0.263298
C154	C	1.369503	-0.333389	0.236702
C155	C	1.073851	-0.216257	-0.303612
C156	C	1.573851	0.283743	0.196388
C157	C	1.143819	-0.216247	-0.303643
C158	C	1.643819	0.283753	0.196357
C159	C	0.909713	-0.216271	-0.467729
C160	C	1.409713	0.283729	0.032271
C161	C	0.909735	-0.216267	-0.537698
C162	C	1.409735	0.283733	-0.037698
C163	C	0.909774	-0.099102	-0.303606
C164	C	1.409774	0.400898	0.196394
C165	C	0.909822	-0.049167	-0.303635
C166	C	1.409822	0.450833	0.196365
C167	C	0.950022	-0.187526	-0.570600
C168	C	1.450022	0.312474	-0.070600
C169	C	0.950022	-0.187507	-0.636342
C170	C	1.450022	0.312493	-0.136342
C171	C	0.909740	-0.216236	-0.669180
C172	C	1.409740	0.283764	-0.169180
C173	C	0.869444	-0.244978	-0.636270
C174	C	1.369444	0.255022	-0.136270
C175	C	0.869442	-0.244994	-0.570529
C176	C	1.369442	0.255006	-0.070529
N177	N	0.904879	-0.255537	-0.772388
N178	N	1.404879	0.244463	-0.272388
N179	N	0.904885	-0.255521	-0.834839
N180	N	1.404885	0.244479	-0.334839
C181	C	0.909744	-0.216190	-0.867255
C182	C	1.409744	0.283810	-0.367255
N183	N	0.914609	-0.176875	-0.834860
N184	N	1.414609	0.323125	-0.334860
N185	N	0.914606	-0.176891	-0.772403
N186	N	1.414606	0.323109	-0.272403
C187	C	0.909738	-0.216222	-0.740466
C188	C	1.409738	0.283778	-0.240466
C189	C	0.950033	-0.187426	-0.971443
C190	C	1.450033	0.312574	-0.471443
C191	C	0.950027	-0.187406	-1.037186
C192	C	1.450027	0.312594	-0.537186
C193	C	0.869453	-0.244882	-1.037113
C194	C	1.369453	0.255118	-0.537113
C195	C	0.869455	-0.244898	-0.971371
C196	C	1.369455	0.255102	-0.471371
C197	C	0.909748	-0.216171	-0.938539
C198	C	1.409748	0.283829	-0.438539
C199	C	0.909645	-0.216257	-0.139988
C200	C	1.409645	0.283743	0.360012
C201	C	0.909744	-0.216135	-0.070020
C202	C	1.409744	0.283865	0.429980
H203	H	0.550769	-0.268510	-0.376389
H204	H	1.050769	0.231490	0.123611
Cl205	Cl	0.818949	-0.949426	-0.212634
Cl206	Cl	1.318949	-0.449426	0.287366
Cl207	Cl	0.536204	-0.151355	-0.212815
Cl208	Cl	1.036204	0.348645	0.287185
Cl209	Cl	1.040768	-0.733312	-0.434871
Cl210	Cl	1.540768	-0.233312	0.065129
Cl211	Cl	1.000618	-0.949188	-0.394601
Cl212	Cl	1.500618	-0.449188	0.105399
Cl213	Cl	0.818802	-0.281093	-0.677551
Cl214	Cl	1.318802	0.218907	-0.177551
H215	H	0.836821	-1.044898	-0.230497
H216	H	1.336821	-0.544898	0.269503
Cl217	Cl	0.684591	-0.151371	-0.212763
Cl218	Cl	1.184591	0.348629	0.287237
Cl219	Cl	0.684592	-0.281277	-0.394131
Cl220	Cl	1.184592	0.218723	0.105869
Cl221	Cl	0.778573	-0.592890	-0.172265
Cl222	Cl	1.278573	-0.092890	0.327735
Cl223	Cl	0.818808	-0.281033	-0.930006
Cl224	Cl	1.318808	0.218967	-0.430006
H225	H	0.982614	-0.472313	-0.376653
H226	H	1.482614	0.027687	0.123347
H227	H	0.269195	-0.268472	-0.376490
H228	H	0.769195	0.231528	0.123510
H229	H	0.149931	-0.268450	-0.376538
H230	H	0.649931	0.231550	0.123462
H231	H	0.982592	-0.387204	-0.376616
H232	H	1.482592	0.112796	0.123384
Cl233	Cl	0.135367	-0.151297	-0.212956
Cl234	Cl	0.635367	0.348703	0.287044
H235	H	0.269190	-0.164062	-0.230700
H236	H	0.769190	0.335938	0.269300
Cl237	Cl	0.818795	-0.482923	-0.212520
Cl238	Cl	1.318795	0.017077	0.287480
H239	H	0.796465	-0.744014	-0.190145
H240	H	1.296465	-0.244014	0.309855
H241	H	0.982833	-0.163999	-1.063974
H242	H	1.482833	0.336001	-0.563974
Cl243	Cl	1.000660	-0.151364	-0.677714
Cl244	Cl	1.500660	0.348636	-0.177714
Cl245	Cl	0.818756	-0.377019	-0.212504
Cl246	Cl	1.318756	0.122981	0.287496
Cl247	Cl	1.040797	-0.839209	-0.434889
Cl248	Cl	1.540797	-0.339209	0.065111
H249	H	0.836649	-0.268269	-1.063849
H250	H	1.336649	0.231731	-0.563849
Cl251	Cl	1.040756	-0.698445	-0.434863
Cl252	Cl	1.540756	-0.198445	0.065137
Cl253	Cl	1.040719	-0.592566	-0.434838
Cl254	Cl	1.540719	-0.092566	0.065162
Cl255	Cl	0.818791	-0.281128	-0.529164
Cl256	Cl	1.318791	0.218872	-0.029164
H257	H	0.796431	-0.688365	-0.190131
H258	H	1.296431	-0.188365	0.309869
Cl259	Cl	1.000646	-1.055089	-0.394621
Cl260	Cl	1.500646	-0.555089	0.105379
Cl261	Cl	0.778674	-0.839532	-0.172312
Cl262	Cl	1.278674	-0.339532	0.327688
Cl263	Cl	1.000682	-0.151310	-0.930166
Cl264	Cl	1.500682	0.348690	-0.430166
Cl265	Cl	1.000673	-0.151409	-0.529329
Cl266	Cl	1.500673	0.348591	-0.029329
