data_functionalizedCrystal
_audit_creation_method	'MofGen! by Chris Wilmer'
_symmetry_space_group_name_H-M	'P1'
_symmetry_Int_Tables_number	1
_symmetry_cell_setting	triclinic
loop_
_symmetry_equiv_pos_as_xyz
  x,y,z
_cell_length_a	10.540495
_cell_length_b	10.065918
_cell_length_c	11.026607
_cell_angle_alpha	82.347411
_cell_angle_beta	96.546762
_cell_angle_gamma	80.216653
loop_
_atom_site_label
_atom_site_type_symbol
_atom_site_fract_x
_atom_site_fract_y
_atom_site_fract_z
O1	O	-1.743720	0.113540	-0.187109
O2	O	-1.377847	0.113531	-0.203308
O3	O	-1.530460	0.113533	-0.018297
O4	O	-1.591107	0.113538	-0.372120
O5	O	-1.489811	-0.113457	0.013725
O6	O	-1.337198	-0.113459	-0.171286
O7	O	-1.703071	-0.113450	-0.155087
Zn8	Zn	-1.513681	-0.149494	-0.158102
Zn9	Zn	-1.567237	0.149575	-0.200293
O10	O	-1.550458	-0.113452	-0.340098
C11	C	-1.309955	0.000035	-0.186093
C12	C	-1.168215	0.000032	-0.182492
C13	C	-1.126491	0.000035	-0.314806
C14	C	-0.979159	0.000554	-0.311178
C15	C	-0.983284	0.129405	-0.128799
C16	C	-1.130860	0.129509	-0.133453
C17	C	-1.084607	-0.128630	-0.095079
C18	C	-0.937046	-0.130326	-0.093572
C19	C	-0.770965	0.000044	-0.172317
C20	C	-0.912708	0.000041	-0.175966
N21	N	-1.477139	-0.353600	-0.129307
C22	C	-1.554515	-0.421377	-0.190274
C23	C	-1.526400	-0.578545	-0.168102
C24	C	-1.581971	0.000044	-0.401415
C25	C	-1.615324	0.000047	-0.536414
N26	N	-1.603787	0.353681	-0.229078
C27	C	-1.523232	0.000045	-0.609435
C28	C	-1.557702	0.000048	-0.748963
C29	C	-1.498948	0.000040	0.043020
C30	C	-1.465597	0.000046	0.178017
H31	H	-1.184892	0.092668	-0.380759
F32	F	-1.694121	0.000062	-0.802255
H33	H	-1.690854	-0.587996	-0.297691
H34	H	-0.965353	0.093833	-0.375569
H35	H	-1.361229	0.000050	-0.781210
F36	F	-1.751737	0.000061	-0.589711
F37	F	-0.916422	-0.120621	-0.361343
F38	F	-1.412605	-0.654774	-0.078409
H39	H	-1.150178	-0.092717	-0.355392
H40	H	-1.418872	0.000050	-0.568655
H41	H	-1.186932	0.226581	-0.194921
F42	F	-0.926742	0.135218	0.000117
F43	F	-1.167076	0.136720	-0.007434
H44	H	-0.967805	0.226044	-0.187273
H45	H	-0.889383	-0.226031	-0.127878
F46	F	-0.875305	-0.141052	0.036690
F47	F	-1.118158	-0.130279	0.032710
F48	F	-1.115423	-0.256831	-0.134556
H49	H	-1.641577	-0.363048	-0.258880
F50	F	-1.363351	-0.429834	-0.039619
