data_functionalizedCrystal
_audit_creation_method	'MofGen! by Chris Wilmer'
_symmetry_space_group_name_H-M	'P1'
_symmetry_Int_Tables_number	1
_symmetry_cell_setting	triclinic
loop_
_symmetry_equiv_pos_as_xyz
  x,y,z
_cell_length_a	27.732048
_cell_length_b	15.944551
_cell_length_c	26.809956
_cell_angle_alpha	90.003391
_cell_angle_beta	90.003258
_cell_angle_gamma	96.929303
loop_
_atom_site_label
_atom_site_type_symbol
_atom_site_fract_x
_atom_site_fract_y
_atom_site_fract_z
O1	O	0.641364	-0.099933	0.041416
O2	O	0.500636	-0.115129	0.041432
O3	O	0.574843	0.014794	0.041419
O4	O	0.567157	-0.229856	0.041429
O5	O	0.574829	0.014774	-0.041540
O6	O	0.500622	-0.115149	-0.041528
O7	O	0.641350	-0.099953	-0.041543
Zn8	Zn	0.570984	-0.107554	-0.054707
Zn9	Zn	0.571002	-0.107528	0.054596
O10	O	0.567143	-0.229876	-0.041530
C11	C	0.482621	-0.114820	-0.000046
C12	C	0.428962	-0.113860	-0.000040
N13	N	0.570975	-0.107571	-0.129303
C14	C	0.574517	0.046074	-0.000060
C15	C	0.573560	0.139307	-0.000061
C16	C	0.090453	-0.184589	-0.000059
C17	C	-0.111222	-0.181025	-0.000064
O18	O	-0.142198	-0.245701	-0.000083
N19	N	-0.130679	-0.103986	-0.000066
C20	C	-0.099715	-0.027832	-0.000070
O21	O	-0.120892	0.037776	-0.000077
C22	C	0.101959	-0.031397	-0.000069
C23	C	0.121414	-0.108441	-0.000062
C24	C	0.109908	-0.261627	-0.000052
C25	C	0.160324	-0.262517	-0.000049
C26	C	0.191285	-0.186369	-0.000051
C27	C	0.171830	-0.109331	-0.000058
C28	C	0.132923	0.044756	-0.000077
C29	C	0.183345	0.043858	-0.000078
C30	C	0.202799	-0.033186	-0.000071
C31	C	0.253206	-0.034073	-0.000057
N32	N	0.272664	-0.111113	-0.000055
C33	C	0.241703	-0.187260	-0.000052
C34	C	-0.205597	-0.025966	-0.000070
C35	C	-0.256015	-0.025074	-0.000069
C36	C	-0.267519	-0.178268	-0.000064
C37	C	-0.217100	-0.179158	-0.000061
C38	C	-0.186139	-0.103005	-0.000068
C39	C	0.347580	-0.189124	-0.000043
C40	C	0.398001	-0.190007	-0.000038
C41	C	0.409500	-0.036815	-0.000046
C42	C	0.359084	-0.035931	-0.000049
C43	C	0.328125	-0.112092	-0.000050
O44	O	0.284210	0.030569	-0.000044
O45	O	0.262890	-0.252859	-0.000056
C46	C	0.040037	-0.183699	-0.000063
C47	C	0.020582	-0.106661	-0.000070
C48	C	0.051543	-0.030513	-0.000073
C49	C	-0.029836	-0.105769	-0.000069
C50	C	-0.060797	-0.181917	-0.000066
C51	C	-0.041339	-0.258956	-0.000064
C52	C	0.009076	-0.259846	-0.000060
C53	C	0.032086	0.046526	-0.000075
C54	C	-0.018331	0.047410	-0.000078
C55	C	-0.049291	-0.028738	-0.000075
C56	C	0.659365	-0.100262	-0.000064
C57	C	0.713024	-0.101222	-0.000066
C58	C	0.567469	-0.261156	-0.000049
C59	C	0.568426	-0.354389	-0.000046
C60	C	0.525277	0.353533	-0.000049
C61	C	0.547691	0.414833	-0.040955
C62	C	0.571830	0.310011	-0.000057
C63	C	0.547716	0.414837	0.040836
C64	C	0.570155	0.474902	-0.000051
C65	C	0.594257	0.370083	-0.040997
C66	C	0.594275	0.370080	0.040831
C67	C	0.616723	0.431364	-0.000085
C68	C	0.572793	0.215021	-0.000061
C69	C	0.569195	0.569890	-0.000050
C70	C	0.603857	-0.050012	-0.473934
C71	C	0.603868	-0.049999	-0.682812
O72	O	0.631806	-0.001065	-0.709821
N73	N	0.571005	-0.107509	-0.708930
C74	C	0.538134	-0.165023	-0.682825
O75	O	0.510179	-0.213933	-0.709833
C76	C	0.538121	-0.165032	-0.473948
C77	C	0.570990	-0.107523	-0.447833
C78	C	0.636723	0.007492	-0.447819
C79	C	0.636721	0.007486	-0.395603
C80	C	0.603854	-0.050026	-0.369502
C81	C	0.570988	-0.107530	-0.395617
C82	C	0.505248	-0.222541	-0.447844
C83	C	0.505247	-0.222536	-0.395622
C84	C	0.538116	-0.165028	-0.369507
C85	C	0.538119	-0.165048	-0.317299
N86	N	0.570983	-0.107538	-0.291182
C87	C	0.603850	-0.050027	-0.317283
C88	C	0.538144	-0.165016	-0.792488
C89	C	0.538148	-0.165015	-0.844707
C90	C	0.603882	-0.049990	-0.844691
C91	C	0.603880	-0.049995	-0.792471
C92	C	0.571007	-0.107506	-0.766370
C93	C	0.603845	-0.050046	-0.207625
C94	C	0.603842	-0.050060	-0.155404
C95	C	0.538107	-0.165082	-0.155425
C96	C	0.538111	-0.165071	-0.207641
C97	C	0.570982	-0.107546	-0.233740
O98	O	0.510193	-0.213950	-0.290259
O99	O	0.631794	-0.001111	-0.290266
C100	C	0.603858	-0.050005	-0.526151
C101	C	0.570992	-0.107509	-0.552266
C102	C	0.538125	-0.165021	-0.526165
C103	C	0.570996	-0.107509	-0.604485
C104	C	0.603863	-0.049997	-0.630586
C105	C	0.636727	0.007513	-0.604468
C106	C	0.636725	0.007506	-0.552252
C107	C	0.505262	-0.222531	-0.552282
C108	C	0.505266	-0.222520	-0.604499
C109	C	0.538133	-0.165009	-0.630600
N110	N	0.571015	-0.107504	0.129192
H111	H	0.322378	-0.251142	-0.000045
O112	O	-0.037248	0.122236	0.000005
C113	C	-0.066078	0.127351	0.042960
H114	H	-0.054154	0.083625	0.072996
H115	H	-0.105835	0.107454	0.033243
C116	C	-0.074617	0.272587	0.025541
C117	C	-0.059969	0.218887	0.062434
H118	H	-0.070851	0.329051	0.037553
H119	H	-0.055195	0.269141	-0.003400
H120	H	-0.107747	0.255996	0.017447
H121	H	-0.026838	0.235472	0.070523
H122	H	-0.079385	0.222338	0.091377
H123	H	0.655398	0.465028	-0.000112
H124	H	0.663484	0.054316	-0.374343
O125	O	0.114114	0.119672	-0.000111
C126	C	0.152261	0.186679	-0.000106
H127	H	0.186511	0.163567	-0.015804
H128	H	0.159395	0.210156	0.039691
C129	C	0.095963	0.287768	-0.013371
C130	C	0.138028	0.259384	-0.032656
H131	H	0.087183	0.332618	-0.033447
H132	H	0.070262	0.242625	-0.013372
H133	H	0.101914	0.307326	0.019793
H134	H	0.132075	0.239817	-0.065817
H135	H	0.163728	0.304525	-0.032661
H136	H	0.486636	0.319720	-0.000085
H137	H	-0.271850	0.037663	-0.000067
H138	H	0.413838	-0.252749	-0.000031
O139	O	0.213468	0.117781	-0.000016
C140	C	0.242969	0.121875	0.042957
H141	H	0.245529	0.055244	0.057286
H142	H	0.226376	0.160024	0.073039
C143	C	0.291004	0.246658	0.012307
C144	C	0.294152	0.164820	0.029904
H145	H	0.322576	0.273152	0.004256
H146	H	0.271128	0.243903	-0.016644
H147	H	0.277175	0.278438	0.037378
H148	H	0.307976	0.133039	0.004831
H149	H	0.314032	0.167572	0.058851
O150	O	0.617682	0.346395	0.082135
C151	C	0.593025	0.368938	0.125181
H152	H	0.553616	0.375186	0.115385
H153	H	0.611310	0.431821	0.140102
C154	C	0.643031	0.292505	0.177308
C155	C	0.594626	0.300172	0.165278
H156	H	0.644020	0.250090	0.202043
H157	H	0.659644	0.277320	0.148308
H158	H	0.658262	0.344912	0.189740
H159	H	0.579397	0.247769	0.152841
H160	H	0.578011	0.315346	0.194277
H161	H	0.613924	0.350342	-0.075618
O162	O	0.473401	-0.278470	-0.629886
C163	C	0.499278	-0.329973	-0.660106
H164	H	0.537397	-0.330946	-0.644372
H165	H	0.501809	-0.303652	-0.699681
C166	C	0.425816	-0.419280	-0.680237
C167	C	0.472633	-0.420480	-0.660910
H168	H	0.409379	-0.475108	-0.680736
H169	H	0.408382	-0.384580	-0.659879
H170	H	0.427931	-0.397342	-0.713214
H171	H	0.470516	-0.442408	-0.627932
H172	H	0.490066	-0.455186	-0.681263
O173	O	0.524162	0.438388	0.082079
C174	C	0.475965	0.398363	0.081921
H175	H	0.473645	0.338928	0.057975
H176	H	0.450893	0.443282	0.065960
C177	C	0.463172	0.447246	0.165068
C178	C	0.460323	0.374244	0.135660
H179	H	0.453522	0.432372	0.198217
H180	H	0.495642	0.474215	0.165174
H181	H	0.442279	0.484673	0.151761
H182	H	0.481220	0.336824	0.148963
H183	H	0.427856	0.347268	0.135557
O184	O	0.635789	0.005890	-0.130114
C185	C	0.664805	0.056638	-0.164353
H186	H	0.644987	0.057350	-0.201577
H187	H	0.700710	0.029794	-0.169907
C188	C	0.699107	0.146496	-0.098249
C189	C	0.674765	0.147377	-0.143967
H190	H	0.705253	0.202467	-0.085674
H191	H	0.679560	0.112305	-0.075181
H192	H	0.729025	0.124122	-0.102884
H193	H	0.644845	0.169741	-0.139331
H194	H	0.694307	0.181574	-0.167035
H195	H	0.663490	0.054335	-0.530993
O196	O	0.635761	0.005849	-0.870127
C197	C	0.628720	-0.006503	-0.921816
H198	H	0.590294	-0.038368	-0.928948
H199	H	0.656081	-0.048299	-0.936635
C200	C	0.683169	0.118645	-0.939866
C201	C	0.635973	0.079514	-0.948626
H202	H	0.687645	0.171703	-0.956405
H203	H	0.687915	0.126965	-0.905043
H204	H	0.705965	0.083806	-0.952215
H205	H	0.613179	0.114347	-0.936272
H206	H	0.631224	0.071201	-0.983448
H207	H	0.630611	-0.003202	-0.228868
O208	O	0.473316	-0.278484	-0.527009
C209	C	0.444306	-0.329222	-0.561265
H210	H	0.464127	-0.329917	-0.598485
H211	H	0.408400	-0.302380	-0.566820
C212	C	0.410001	-0.419110	-0.495186
C213	C	0.434347	-0.419969	-0.540900
H214	H	0.403855	-0.475086	-0.482623
H215	H	0.429544	-0.384926	-0.472107
H216	H	0.380081	-0.396738	-0.499821
H217	H	0.464268	-0.442331	-0.536262
H218	H	0.414808	-0.454160	-0.563977
O219	O	0.506176	-0.220917	-0.869995
C220	C	0.477176	-0.271686	-0.835753
H221	H	0.476631	-0.237250	-0.798530
H222	H	0.492868	-0.333898	-0.830199
C223	C	0.425702	-0.331916	-0.901854
C224	C	0.425030	-0.289618	-0.856136
H225	H	0.393537	-0.342981	-0.914427
H226	H	0.445241	-0.297714	-0.924923
H227	H	0.438781	-0.383755	-0.897219
H228	H	0.411957	-0.237776	-0.860772
H229	H	0.405488	-0.323812	-0.833067
H230	H	0.663487	0.054329	-0.469066
O231	O	0.524119	0.438454	-0.082170
C232	C	0.475928	0.398404	-0.082027
H233	H	0.464717	0.380020	-0.042222
H234	H	0.473392	0.339288	-0.106269
C235	C	0.455628	0.481924	-0.151786
C236	C	0.441857	0.459351	-0.102896
H237	H	0.434611	0.519516	-0.164661
H238	H	0.488096	0.508905	-0.151884
H239	H	0.453514	0.432655	-0.171981
H240	H	0.443977	0.508618	-0.082701
H241	H	0.409389	0.432379	-0.102795
H242	H	-0.066557	-0.320958	-0.000060
O243	O	0.635824	0.005953	-0.767182
C244	C	0.664841	0.056693	-0.801424
H245	H	0.645025	0.057399	-0.838649
H246	H	0.700746	0.029847	-0.806973
C247	C	0.699141	0.146565	-0.735325
C248	C	0.674801	0.147437	-0.781044
H249	H	0.705288	0.202539	-0.722754
H250	H	0.679593	0.112379	-0.712255
H251	H	0.729060	0.124189	-0.739956
H252	H	0.644881	0.169802	-0.776412
H253	H	0.694345	0.181629	-0.804113
O254	O	0.473297	-0.278488	-0.370346
C255	C	0.444282	-0.329225	-0.404598
H256	H	0.464101	-0.329930	-0.441819
H257	H	0.408378	-0.302376	-0.410154
C258	C	0.409974	-0.419097	-0.338514
C259	C	0.434318	-0.419969	-0.384228
H260	H	0.403825	-0.475072	-0.325948
H261	H	0.429520	-0.384913	-0.315437
H262	H	0.380056	-0.396720	-0.343149
H263	H	0.464237	-0.442337	-0.379591
H264	H	0.414776	-0.454159	-0.407304
H265	H	0.176158	-0.325254	-0.000042
H266	H	0.511348	-0.211910	-0.134165
H267	H	0.343244	0.026805	-0.000048
H268	H	0.024911	-0.322584	-0.000055
O269	O	0.506137	-0.220965	-0.232935
C270	C	0.477136	-0.271742	-0.198697
H271	H	0.476597	-0.237319	-0.161469
H272	H	0.492825	-0.333960	-0.193153
C273	C	0.425654	-0.331939	-0.264800
C274	C	0.424989	-0.289657	-0.219077
H275	H	0.393488	-0.342994	-0.277371
H276	H	0.445193	-0.297733	-0.287867
H277	H	0.438731	-0.383783	-0.260174
H278	H	0.411918	-0.237810	-0.223705
H279	H	0.405446	-0.323856	-0.196011
O280	O	0.439650	0.037075	-0.000072
C281	C	0.488320	0.019759	-0.000058
H282	H	0.490255	-0.046199	-0.015756
H283	H	0.502904	0.023151	0.039741
C284	C	0.516794	0.166368	-0.013319
C285	C	0.519171	0.085361	-0.032604
H286	H	0.535825	0.206836	-0.033393
H287	H	0.484004	0.178036	-0.013327
H288	H	0.528947	0.169183	0.019847
H289	H	0.507013	0.082543	-0.065766
H290	H	0.551960	0.073694	-0.032602
H291	H	0.511375	-0.211850	-0.771241
O292	O	0.668632	0.063497	-0.629774
C293	C	0.660763	0.146553	-0.617022
H294	H	0.642138	0.146227	-0.579106
H295	H	0.636698	0.172233	-0.646409
C296	C	0.732712	0.203432	-0.661182
C297	C	0.709840	0.203032	-0.614611
H298	H	0.762984	0.238272	-0.659697
H299	H	0.738013	0.147476	-0.669775
H300	H	0.712653	0.224829	-0.685667
H301	H	0.729897	0.181625	-0.590129
H302	H	0.704544	0.258985	-0.606014
H303	H	-0.201264	-0.241894	-0.000058
O304	O	0.079906	-0.335680	-0.000026
C305	C	0.107899	-0.403856	-0.000033
H306	H	0.145527	-0.382015	0.015668
H307	H	0.111490	-0.427516	-0.039831
C308	C	0.036586	-0.502693	0.013224
C309	C	0.082799	-0.475870	0.032513
H310	H	0.021102	-0.547116	0.033298
H311	H	0.017725	-0.456762	0.013228
H312	H	0.039584	-0.522404	-0.019940
H313	H	0.079799	-0.456150	0.065674
H314	H	0.101658	-0.521799	0.032516
O315	O	-0.297668	-0.252162	-0.000084
C316	C	-0.346338	-0.234844	-0.000072
H317	H	-0.348275	-0.168895	-0.015776
H318	H	-0.360917	-0.238216	0.039728
C319	C	-0.374816	-0.381460	-0.013318
C320	C	-0.377194	-0.300462	-0.032611
H321	H	-0.393850	-0.421938	-0.033388
H322	H	-0.342026	-0.393129	-0.013325
H323	H	-0.386963	-0.384258	0.019848
H324	H	-0.365041	-0.297662	-0.065774
H325	H	-0.409983	-0.288795	-0.032611
H326	H	0.478483	-0.269369	-0.469100
H327	H	-0.180392	0.036051	-0.000075
H328	H	0.057290	0.108537	-0.000078
