data_functionalizedCrystal
_audit_creation_method	'MofGen! by Chris Wilmer'
_symmetry_space_group_name_H-M	'P1'
_symmetry_Int_Tables_number	1
_symmetry_cell_setting	triclinic
loop_
_symmetry_equiv_pos_as_xyz
  x,y,z
_cell_length_a	16.992694
_cell_length_b	14.472310
_cell_length_c	16.992695
_cell_angle_alpha	90.000759
_cell_angle_beta	90.668223
_cell_angle_gamma	90.007614
loop_
_atom_site_label
_atom_site_type_symbol
_atom_site_fract_x
_atom_site_fract_y
_atom_site_fract_z
O1	O	1.050861	0.076726	0.166912
O2	O	1.550861	0.576726	0.666912
O3	O	0.822461	0.076753	0.165081
O4	O	1.322461	0.576753	0.665081
O5	O	0.935745	0.076732	0.051796
O6	O	1.435745	0.576732	0.551796
O7	O	0.937576	0.076747	0.280196
O8	O	1.437576	0.576747	0.780196
O9	O	0.935714	-0.076950	0.051801
O10	O	1.435714	0.423050	0.551801
O11	O	0.822430	-0.076929	0.165086
O12	O	1.322430	0.423071	0.665086
O13	O	1.050830	-0.076956	0.166917
O14	O	1.550830	0.423044	0.666917
Cu15	Cu	0.936627	-0.090975	0.166002
Cu16	Cu	1.436627	0.409025	0.666002
Cu17	Cu	0.936663	0.090772	0.165996
Cu18	Cu	1.436663	0.590772	0.665996
O19	O	0.937546	-0.076935	0.280201
O20	O	1.437546	0.423065	0.780201
C21	C	0.793085	-0.000084	0.162727
C22	C	1.293085	0.499916	0.662727
C23	C	0.705600	-0.000074	0.155699
C24	C	1.205600	0.499926	0.655699
N25	N	0.936607	-0.218806	0.166006
N26	N	1.436607	0.281194	0.666006
C27	C	0.659610	-0.000071	0.223517
C28	C	1.159610	0.499929	0.723517
C29	C	0.577409	-0.000084	0.216908
C30	C	1.077409	0.499916	0.716908
C31	C	0.541201	-0.000094	0.142480
C32	C	1.041201	0.499906	0.642480
C33	C	0.587198	-0.000100	0.074657
C34	C	1.087198	0.499900	0.574657
C35	C	0.669397	-0.000094	0.081267
C36	C	1.169397	0.499906	0.581267
C37	C	0.295886	-0.000120	0.115086
C38	C	0.795886	0.499880	0.615086
C39	C	0.213681	-0.000124	0.108481
C40	C	0.713681	0.499876	0.608481
C41	C	0.203898	-0.000109	0.250732
C42	C	0.703898	0.499891	0.750732
C43	C	0.286099	-0.000097	0.257336
C44	C	0.786099	0.499903	0.757336
C45	C	0.332089	-0.000108	0.189512
C46	C	0.832089	0.499892	0.689512
N47	N	0.457178	-0.000104	0.135723
N48	N	0.957178	0.499896	0.635723
N49	N	0.416110	-0.000105	0.196270
N50	N	0.916110	0.499895	0.696270
C51	C	0.936662	-0.592897	0.165993
C52	C	1.436662	-0.092897	0.665993
C53	C	0.875815	-0.553720	0.226378
C54	C	1.375815	-0.053720	0.726378
C55	C	0.875980	-0.446632	0.226623
C56	C	1.375980	0.053368	0.726623
C57	C	0.936634	-0.407306	0.165999
C58	C	1.436634	0.092694	0.665999
C59	C	1.019894	-0.446151	0.189086
C60	C	1.519894	0.053849	0.689086
C61	C	1.019558	-0.553273	0.189521
C62	C	1.519558	-0.053273	0.689521
C63	C	0.914970	-0.553429	0.082375
C64	C	1.414970	-0.053429	0.582375
C65	C	0.913120	-0.446301	0.082808
C66	C	1.413120	0.053699	0.582808
C67	C	0.936624	-0.302418	0.166002
C68	C	1.436624	0.197582	0.666002
C69	C	0.936678	-0.697785	0.165992
C70	C	1.436678	-0.197785	0.665992
C71	C	1.080205	-0.000116	0.169270
C72	C	1.580205	0.499884	0.669270
C73	C	1.167690	-0.000121	0.176299
C74	C	1.667690	0.499879	0.676299
C75	C	0.933374	-0.000108	0.022439
C76	C	1.433374	0.499892	0.522439
C77	C	0.926345	-0.000107	-0.065046
C78	C	1.426345	0.499893	0.434954
N79	N	0.936689	0.218603	0.165986
N80	N	1.436689	0.718603	0.665986
C81	C	0.994163	-0.000116	-0.111037
C82	C	1.494163	0.499884	0.388963
C83	C	0.987554	-0.000107	-0.193238
C84	C	1.487554	0.499893	0.306762
C85	C	0.913126	-0.000095	-0.229446
C86	C	1.413126	0.499905	0.270554
C87	C	0.845303	-0.000083	-0.183449
C88	C	1.345303	0.499917	0.316551
C89	C	0.851913	-0.000086	-0.101250
C90	C	1.351913	0.499914	0.398750
C91	C	0.885732	-0.000079	-0.474760
C92	C	1.385732	0.499921	0.025240
C93	C	0.879127	-0.000079	-0.556966
C94	C	1.379127	0.499921	-0.056966
C95	C	1.021379	-0.000101	-0.566749
C96	C	1.521379	0.499899	-0.066749
C97	C	1.027982	-0.000109	-0.484547
C98	C	1.527982	0.499891	0.015453
C99	C	0.960159	-0.000092	-0.438558
C100	C	1.460159	0.499908	0.061442
N101	N	0.906369	-0.000088	-0.313468
N102	N	1.406369	0.499912	0.186532
N103	N	0.966917	-0.000093	-0.354537
N104	N	1.466917	0.499907	0.145463
C105	C	0.939917	-0.000093	0.309559
C106	C	1.439917	0.499907	0.809559
C107	C	0.946945	-0.000088	0.397044
C108	C	1.446945	0.499912	0.897044
H109	H	0.539966	-0.000080	0.272133
H110	H	1.039966	0.499920	0.772133
C111	C	1.062672	0.078896	-0.291338
C112	C	1.562672	0.578896	0.208662
C113	C	1.062105	-0.000113	-0.243786
C114	C	1.562105	0.499887	0.256214
H115	H	1.108703	0.078895	-0.322538
H116	H	1.608703	0.578895	0.177462
H117	H	1.017409	0.078899	-0.324666
H118	H	1.517409	0.578899	0.175334
H119	H	1.062302	0.132478	-0.259053
H120	H	1.562302	0.632478	0.240947
H121	H	1.062470	-0.053695	-0.276071
H122	H	1.562470	0.446305	0.223929
H123	H	1.107380	-0.000125	-0.210454
H124	H	1.607380	0.499875	0.289546
C125	C	1.012366	-0.511689	-0.012504
C126	C	1.512366	-0.011689	0.487496
C127	C	0.974782	-0.587633	0.021625
C128	C	1.474782	-0.087633	0.521625
H129	H	1.049296	-0.532811	-0.050000
H130	H	1.549296	-0.032811	0.450000
H131	H	0.974339	-0.473549	-0.037905
H132	H	1.474339	0.026451	0.462095
H133	H	1.038965	-0.477211	0.027250
H134	H	1.538965	0.022789	0.527250
H135	H	0.948179	-0.622107	-0.018128
H136	H	1.448179	-0.122107	0.481872
H137	H	1.012816	-0.625789	0.047027
H138	H	1.512816	-0.125789	0.547027
C139	C	0.196716	0.078857	-0.014814
C140	C	0.696716	0.578857	0.485186
C141	C	0.173877	-0.000138	0.026665
C142	C	0.673877	0.499862	0.526665
H143	H	0.172144	0.078846	-0.065322
H144	H	0.672144	0.578846	0.434678
H145	H	0.181240	0.132443	0.013323
H146	H	0.681240	0.632443	0.513323
H147	H	0.252253	0.078845	-0.020585
H148	H	0.752253	0.578845	0.479415
H149	H	0.118340	-0.000122	0.032440
H150	H	0.618340	0.499878	0.532440
H151	H	0.189348	-0.053737	-0.001479
H152	H	0.689348	0.446263	0.498521
H153	H	0.315574	-0.000078	0.317942
H154	H	0.815574	0.499922	0.817942
C155	C	0.832693	-0.000057	-0.344418
C156	C	1.332693	0.499943	0.155582
C157	C	0.811182	-0.000061	-0.424214
C158	C	1.311182	0.499939	0.075786
H159	H	0.786665	-0.000039	-0.313212
H160	H	1.286665	0.499961	0.186788
H161	H	0.862979	-0.053651	-0.332957
H162	H	1.362979	0.446349	0.167043
H163	H	0.863013	0.053534	-0.332966
H164	H	1.363013	0.553534	0.167034
H165	H	0.780867	-0.053656	-0.435668
H166	H	1.280867	0.446344	0.064332
H167	H	0.780883	0.053538	-0.435679
H168	H	1.280883	0.553538	0.064321
C169	C	1.162649	-0.000120	-0.568161
C170	C	1.662649	0.499880	-0.068161
C171	C	1.095927	-0.000109	-0.617301
C172	C	1.595927	0.499891	-0.117301
H173	H	1.208673	-0.000128	-0.599371
H174	H	1.708673	0.499872	-0.099371
H175	H	1.162277	0.053468	-0.535896
H176	H	1.662277	0.553468	-0.035896
H177	H	1.162252	-0.053718	-0.535897
H178	H	1.662252	0.446282	-0.035897
H179	H	1.096321	0.053492	-0.649561
H180	H	1.596321	0.553492	-0.149561
H181	H	1.096300	-0.053702	-0.649579
H182	H	1.596300	0.446298	-0.149579
C183	C	0.798884	-0.000074	0.029102
C184	C	1.298884	0.499926	0.529102
C185	C	0.777366	-0.000076	-0.050692
C186	C	1.277366	0.499924	0.449308
H187	H	0.752859	-0.000059	0.060312
H188	H	1.252859	0.499941	0.560312
H189	H	0.829171	-0.053669	0.040558
H190	H	1.329171	0.446331	0.540558
H191	H	0.829204	0.053517	0.040554
H192	H	1.329204	0.553517	0.540554
H193	H	0.747051	-0.053670	-0.062145
H194	H	1.247051	0.446330	0.437855
H195	H	0.747066	0.053524	-0.062153
H196	H	1.247066	0.553524	0.437847
C197	C	1.084132	0.078870	-0.024269
C198	C	1.584132	0.578870	0.475731
C199	C	1.075976	-0.000128	-0.071237
C200	C	1.575976	0.499872	0.428763
H201	H	1.134640	0.078860	0.000303
H202	H	1.634640	0.578860	0.500303
H203	H	1.078611	0.132453	-0.056131
H204	H	1.578611	0.632453	0.443869
H205	H	1.044684	0.078862	0.014884
H206	H	1.544684	0.578862	0.514884
H207	H	1.115421	-0.000117	-0.110394
H208	H	1.615421	0.499883	0.389606
H209	H	1.081505	-0.053726	-0.039372
H210	H	1.581505	0.446274	0.460628
C211	C	0.641675	-0.000067	0.363460
C212	C	1.141675	0.499933	0.863460
C213	C	0.699406	-0.000062	0.305331
C214	C	1.199406	0.499938	0.805331
H215	H	0.666243	-0.000069	0.413969
H216	H	1.166243	0.499931	0.913969
H217	H	0.609823	0.053520	0.357922
H218	H	1.109823	0.553520	0.857922
H219	H	0.609813	-0.053665	0.357917
H220	H	1.109813	0.446335	0.857917
H221	H	0.731264	0.053541	0.310870
H222	H	1.231264	0.553541	0.810870
H223	H	0.731270	-0.053654	0.310871
H224	H	1.231270	0.446346	0.810871
H225	H	0.814257	-0.420369	0.212109
H226	H	1.314257	0.079631	0.712109
C227	C	0.794362	-0.645646	0.140563
C228	C	1.294362	-0.145646	0.640563
C229	C	0.792238	-0.588533	0.207019
C230	C	1.292238	-0.088533	0.707019
H231	H	0.742764	-0.667147	0.128616
H232	H	1.242764	-0.167147	0.628616
H233	H	0.813889	-0.611651	0.097145
H234	H	1.313889	-0.111651	0.597145
H235	H	0.827866	-0.696882	0.150866
H236	H	1.327866	-0.196882	0.650866
H237	H	0.758738	-0.537293	0.196714
H238	H	1.258738	-0.037293	0.696714
H239	H	0.772700	-0.622528	0.250447
H240	H	1.272700	-0.122528	0.750447
C241	C	0.073549	-0.000121	0.303766
C242	C	0.573549	0.499879	0.803766
C243	C	0.153344	-0.000109	0.325280
C244	C	0.653344	0.499891	0.825280
H245	H	0.042341	-0.000130	0.349792
H246	H	0.542341	0.499870	0.849792
H247	H	0.062094	0.053466	0.273466
H248	H	0.562094	0.553466	0.773466
H249	H	0.062094	-0.053719	0.273460
H250	H	0.562094	0.446281	0.773460
H251	H	0.164801	0.053492	0.355582
H252	H	0.664801	0.553492	0.855582
H253	H	0.164804	-0.053702	0.355593
H254	H	0.664804	0.446298	0.855593
H255	H	0.784703	-0.000067	-0.212936
H256	H	1.284703	0.499933	0.287064
H257	H	1.088589	-0.000119	-0.455073
H258	H	1.588589	0.499881	0.044927
C259	C	0.393998	0.078884	0.039987
C260	C	0.893998	0.578884	0.539987
C261	C	0.346430	-0.000120	0.040534
C262	C	0.846430	0.499880	0.540534
H263	H	0.425206	0.078881	-0.006039
H264	H	0.925206	0.578881	0.493961
H265	H	0.361731	0.132464	0.040366
H266	H	0.861731	0.632464	0.540366
H267	H	0.427327	0.078876	0.085258
H268	H	0.927327	0.578876	0.585258
H269	H	0.313096	-0.000109	-0.004735
H270	H	0.813096	0.499891	0.495265
H271	H	0.378701	-0.053713	0.040148
H272	H	0.878701	0.446287	0.540148
H273	H	0.557710	-0.000122	0.014056
H274	H	1.057710	0.499878	0.514056
C275	C	0.830127	-0.315327	0.056707
C276	C	1.330127	0.184673	0.556707
C277	C	0.830403	-0.412031	0.059315
C278	C	1.330403	0.087969	0.559315
H279	H	0.779060	-0.294170	0.042202
H280	H	1.279060	0.205830	0.542202
H281	H	0.844018	-0.291524	0.107074
H282	H	1.344018	0.208476	0.607074
H283	H	0.867107	-0.294707	0.019065
H284	H	1.367107	0.205293	0.519065
H285	H	0.793427	-0.432651	0.096961
H286	H	1.293427	0.067349	0.596961
H287	H	0.816502	-0.435844	0.008941
H288	H	1.316502	0.064156	0.508941
H289	H	0.890368	-0.420995	0.288567
H290	H	1.390368	0.079005	0.788567
H291	H	0.890036	-0.580627	0.287968
H292	H	1.390036	-0.080627	0.787968
C293	C	1.118039	-0.487577	0.094895
C294	C	1.618039	0.012423	0.594895
C295	C	1.082773	-0.411761	0.131588
C296	C	1.582773	0.088239	0.631588
H297	H	1.156853	-0.466342	0.059396
H298	H	1.656853	0.033658	0.559396
H299	H	1.142036	-0.526019	0.133599
H300	H	1.642036	-0.026019	0.633599
H301	H	1.079143	-0.521779	0.066795
H302	H	1.579143	-0.021779	0.566795
H303	H	1.121668	-0.377563	0.159693
H304	H	1.621668	0.122437	0.659693
H305	H	1.058776	-0.373304	0.092879
H306	H	1.558776	0.126696	0.592879
H307	H	1.037888	-0.578247	0.250660
H308	H	1.537888	-0.078247	0.750660
H309	H	1.066524	-0.579187	0.147548
H310	H	1.566524	-0.079187	0.647548
C311	C	0.755867	0.078962	-0.573950
C312	C	1.255867	0.578962	-0.073950
C313	C	0.797313	-0.000054	-0.596773
C314	C	1.297313	0.499946	-0.096773
H315	H	0.705364	0.078978	-0.598531
H316	H	1.205364	0.578978	-0.098531
H317	H	0.750090	0.078957	-0.518421
H318	H	1.250090	0.578957	-0.018421
H319	H	0.784036	0.132539	-0.589432
H320	H	1.284036	0.632539	-0.089432
H321	H	0.769147	-0.053631	-0.581285
H322	H	1.269147	0.446369	-0.081285
H323	H	0.803087	-0.000058	-0.652314
H324	H	1.303087	0.499942	-0.152314
C325	C	0.670816	-0.000093	-0.060005
C326	C	1.170816	0.499907	0.439995
C327	C	0.719953	-0.000089	0.006719
C328	C	1.219953	0.499911	0.506719
H329	H	0.702028	-0.000086	-0.106028
H330	H	1.202028	0.499914	0.393972
H331	H	0.638551	-0.053685	-0.059624
H332	H	1.138551	0.446315	0.440376
H333	H	0.638552	0.053500	-0.059620
H334	H	1.138552	0.553500	0.440380
H335	H	0.752213	-0.053686	0.006337
H336	H	1.252213	0.446314	0.506337
H337	H	0.752232	0.053508	0.006337
H338	H	1.252232	0.553508	0.506337
C339	C	1.057122	-0.484633	0.321824
C340	C	1.557122	0.015367	0.821824
C341	C	1.045057	-0.409933	0.270725
C342	C	1.545057	0.090067	0.770725
H343	H	1.072658	-0.462273	0.372224
H344	H	1.572658	0.037727	0.872224
H345	H	1.009679	-0.518854	0.326242
H346	H	1.509679	-0.018854	0.826242
H347	H	1.097223	-0.523425	0.301665
H348	H	1.597223	-0.023425	0.801665
H349	H	1.004952	-0.371144	0.290882
H350	H	1.504952	0.128856	0.790882
H351	H	1.092506	-0.375696	0.266310
H352	H	1.592506	0.124304	0.766310
H353	H	0.855296	-0.580491	0.061453
H354	H	1.355296	-0.080491	0.561453
H355	H	0.954164	-0.419535	0.035368
H356	H	1.454164	0.080465	0.535368
