data_functionalizedCrystal
_audit_creation_method	'MofGen! by Chris Wilmer'
_symmetry_space_group_name_H-M	'P1'
_symmetry_Int_Tables_number	1
_symmetry_cell_setting	triclinic
loop_
_symmetry_equiv_pos_as_xyz
  x,y,z
_cell_length_a	15.625950
_cell_length_b	15.995350
_cell_length_c	14.185569
_cell_angle_alpha	76.847063
_cell_angle_beta	120.545593
_cell_angle_gamma	83.886509
loop_
_atom_site_label
_atom_site_type_symbol
_atom_site_fract_x
_atom_site_fract_y
_atom_site_fract_z
O1	O	1.290664	0.021679	0.385916
O2	O	1.002537	0.058498	0.281142
O3	O	1.154477	-0.082442	0.336394
O4	O	1.138724	0.162618	0.330664
O5	O	1.199361	-0.124072	0.519551
O6	O	1.047421	0.016867	0.464299
O7	O	1.335548	-0.019952	0.569073
Cu8	Cu	1.195583	-0.005343	0.533409
Cu9	Cu	1.142502	0.043890	0.316806
O10	O	1.183608	0.120988	0.513821
C11	C	0.988109	0.040138	0.359313
C12	C	0.878248	0.047443	0.319363
C13	C	0.639133	-0.041917	0.687030
C14	C	0.535886	-0.035024	0.649440
C15	C	0.487007	0.010356	0.449788
C16	C	0.590250	0.003471	0.487362
C17	C	0.666306	-0.022667	0.605985
C18	C	0.617424	0.022722	0.406317
C19	C	0.720659	0.015833	0.443888
C20	C	0.796721	-0.010307	0.562505
C21	C	0.769542	-0.029556	0.643556
C22	C	0.541367	0.048854	0.287695
C23	C	0.568541	0.068104	0.206649
C24	C	0.671777	0.061222	0.244220
C25	C	0.747839	0.035082	0.362837
C26	C	0.698956	0.080471	0.163169
C27	C	0.802191	0.073582	0.200741
C28	C	0.851074	0.028193	0.400409
C29	C	1.176267	-0.134398	0.427734
C30	C	1.174313	-0.227188	0.427018
C31	C	1.167303	-0.564365	0.424472
C32	C	1.058994	-0.508015	0.384712
C33	C	1.061047	-0.411577	0.385835
C34	C	1.170780	-0.397087	0.425734
C35	C	1.249783	-0.466289	0.549731
C36	C	1.247086	-0.562723	0.548831
C37	C	1.198279	-0.515921	0.341360
C38	C	1.197915	-0.418660	0.339969
C39	C	1.172752	-0.302551	0.426453
C40	C	1.165336	-0.658903	0.423761
C41	C	1.349975	-0.001591	0.490900
C42	C	1.459835	-0.008895	0.530842
C43	C	1.161817	0.172945	0.422479
C44	C	1.163769	0.265736	0.423188
N45	N	1.232924	-0.039973	0.685759
N46	N	1.105168	0.078511	0.164459
C47	C	0.995459	0.180215	0.967057
C48	C	1.023752	0.153989	1.082366
C49	C	1.158321	0.029227	1.131263
C50	C	1.130037	0.055440	1.015954
C51	C	1.048606	0.130935	0.933859
C52	C	1.183184	0.006161	0.982756
C53	C	1.154905	0.032374	0.867458
C54	C	1.073479	0.107868	0.785358
C55	C	1.020327	0.157149	0.818561
C56	C	1.264619	-0.069331	1.064855
C57	C	1.317766	-0.118610	1.031657
C58	C	1.289482	-0.092400	0.916356
C59	C	1.208057	-0.016907	0.834255
C60	C	1.342634	-0.141682	0.883152
C61	C	1.314355	-0.115468	0.767854
C62	C	1.179778	0.009307	0.718957
H63	H	0.513767	-0.050683	0.715445
N64	N	0.616926	0.108661	0.035231
H65	H	0.632223	0.064858	0.001040
H66	H	0.547437	0.110111	0.023819
H67	H	0.929143	0.241686	0.900207
H68	H	1.113461	0.070778	0.652108
N69	N	1.405583	-0.200040	1.120204
H70	H	1.434958	-0.227282	1.081674
H71	H	1.461065	-0.182408	1.183941
H72	H	1.224626	-0.032240	1.198118
H73	H	0.880781	-0.015916	0.593094
N74	N	1.220898	-0.606309	0.633631
H75	H	1.278784	-0.660624	0.695204
H76	H	1.211193	-0.562762	0.671164
N77	N	0.831510	0.094339	0.113334
H78	H	0.767665	0.111945	0.032487
H79	H	0.865271	0.144994	0.121665
H80	H	1.000720	-0.362694	0.295605
H81	H	1.287644	-0.090669	1.158737
N82	N	1.029493	-0.392717	0.464983
H83	H	1.087308	-0.377470	0.529414
H84	H	0.965814	-0.340973	0.419198
H85	H	1.034213	-0.541051	0.443640
N86	N	0.977347	-0.505307	0.264532
H87	H	1.009770	-0.540583	0.234690
H88	H	0.922647	-0.531979	0.267461
H89	H	0.457307	0.054466	0.257108
H90	H	0.980467	0.194126	1.109386
N91	N	1.430468	-0.223097	0.971711
H92	H	1.404395	-0.267984	1.005814
H93	H	1.459814	-0.250266	0.933112
N94	N	1.357832	-0.457451	0.593727
H95	H	1.407319	-0.502565	0.673547
H96	H	1.377786	-0.468342	0.539227
N97	N	0.404977	0.038555	0.321849
H98	H	0.420269	-0.005244	0.287651
H99	H	0.335487	0.040010	0.310433
H100	H	0.954011	0.218620	0.751712
H101	H	0.831471	-0.050827	0.740150
N102	N	1.353854	-0.615456	0.593384
H103	H	1.402463	-0.576014	0.613528
H104	H	1.378574	-0.667569	0.664818
H105	H	1.139932	-0.370643	0.248406
H106	H	0.701062	-0.063189	0.783624
N107	N	0.486509	0.096287	0.078712
H108	H	0.416986	0.097728	0.067206
H109	H	0.485868	0.157521	0.038771
H110	H	1.231787	-0.452577	0.614086
H111	H	1.143474	-0.515558	0.249223
N112	N	1.301863	-0.405057	0.370137
H113	H	1.332979	-0.384629	0.440143
H114	H	1.348763	-0.463005	0.388008
N115	N	1.303728	-0.566388	0.378846
H116	H	1.331334	-0.620366	0.449297
H117	H	1.298533	-0.586014	0.313712
H118	H	1.050458	0.129213	0.691477
N119	N	1.371677	-0.168612	0.732039
H120	H	1.427552	-0.220416	0.801540
H121	H	1.322061	-0.191681	0.670430
H122	H	0.913003	0.006922	0.497002
