data_functionalizedCrystal
_audit_creation_method	'MofGen! by Chris Wilmer'
_symmetry_space_group_name_H-M	'P1'
_symmetry_Int_Tables_number	1
_symmetry_cell_setting	triclinic
loop_
_symmetry_equiv_pos_as_xyz
  x,y,z
_cell_length_a	15.944551
_cell_length_b	14.519709
_cell_length_c	13.596369
_cell_angle_alpha	90.006934
_cell_angle_beta	89.990481
_cell_angle_gamma	96.410559
loop_
_atom_site_label
_atom_site_type_symbol
_atom_site_fract_x
_atom_site_fract_y
_atom_site_fract_z
O1	O	1.114698	-0.118943	-0.081889
O2	O	0.870169	-0.133607	-0.081870
O3	O	0.998917	0.007975	-0.081871
O4	O	0.985950	-0.260525	-0.081888
O5	O	0.998904	0.007982	0.081712
O6	O	0.870156	-0.133600	0.081713
O7	O	1.114685	-0.118936	0.081694
Zn8	Zn	0.992419	-0.126267	0.107676
Zn9	Zn	0.992435	-0.126276	-0.107852
O10	O	0.985937	-0.260518	0.081695
C11	C	0.998306	0.042337	-0.000080
C12	C	0.996495	0.144715	-0.000079
C13	C	0.838868	-0.132995	-0.000076
C14	C	0.745619	-0.131170	-0.000069
C15	C	1.145986	-0.119548	-0.000102
C16	C	1.239235	-0.121373	-0.000116
C17	C	1.454225	-0.213495	-0.000099
C18	C	1.515189	-0.170720	-0.080751
C19	C	1.409965	-0.124675	-0.000102
C20	C	1.515155	-0.170692	0.080529
C21	C	1.574883	-0.127871	-0.000084
C22	C	1.469701	-0.081876	-0.080820
C23	C	1.469660	-0.081860	0.080532
C24	C	1.530607	-0.039021	-0.000139
C25	C	1.314960	-0.122836	-0.000113
C26	C	1.669886	-0.129702	-0.000080
C27	C	0.986548	-0.294880	-0.000099
C28	C	0.988359	-0.397258	-0.000106
N29	N	0.992413	-0.126259	0.254767
C30	C	0.989829	0.519599	-0.000104
C31	C	0.991680	0.415295	-0.000097
C32	C	0.993162	0.332160	-0.000091
C33	C	0.995013	0.227849	-0.000085
N34	N	0.992448	-0.126276	-0.254944
C35	C	0.992434	-0.126277	0.656058
C36	C	0.992426	-0.126275	0.544407
C37	C	0.992424	-0.126269	0.455416
C38	C	0.992415	-0.126266	0.343758
H39	H	1.421026	-0.287220	-0.000184
H40	H	1.449664	-0.044346	-0.149083
O41	O	1.539035	-0.215509	0.161949
C42	C	1.494356	-0.296848	0.310729
C43	C	1.467203	-0.246089	0.218582
H44	H	1.436293	-0.321604	0.356531
H45	H	1.539444	-0.247560	0.356396
H46	H	1.527436	-0.359022	0.287434
H47	H	1.434088	-0.183918	0.241789
H48	H	1.422154	-0.295440	0.172936
H49	H	1.563653	0.034770	-0.000175
H50	H	1.449467	-0.044322	0.148726
O51	O	1.539275	-0.215715	-0.161972
C52	C	1.527395	-0.358543	-0.253782
C53	C	1.500022	-0.307678	-0.161789
H54	H	1.495657	-0.432897	-0.253675
H55	H	1.598852	-0.358938	-0.253249
H56	H	1.507893	-0.321418	-0.322572
H57	H	1.519466	-0.344763	-0.092951
H58	H	1.428567	-0.307274	-0.162409
