data_functionalizedCrystal
_audit_creation_method	'MofGen! by Chris Wilmer'
_symmetry_space_group_name_H-M	'P1'
_symmetry_Int_Tables_number	1
_symmetry_cell_setting	triclinic
loop_
_symmetry_equiv_pos_as_xyz
  x,y,z
_cell_length_a	10.654550
_cell_length_b	15.944551
_cell_length_c	9.730223
_cell_angle_alpha	89.997716
_cell_angle_beta	89.996251
_cell_angle_gamma	83.991820
loop_
_atom_site_label
_atom_site_type_symbol
_atom_site_fract_x
_atom_site_fract_y
_atom_site_fract_z
O1	O	1.666308	0.117973	-0.114406
O2	O	2.166308	0.617973	0.385594
O3	O	1.300684	0.129213	-0.114384
O4	O	1.800684	0.629213	0.385616
O5	O	1.493480	0.001376	-0.114384
O6	O	1.993480	0.501376	0.385616
O7	O	1.473511	0.245810	-0.114407
O8	O	1.973511	0.745810	0.385593
O9	O	1.493478	0.001379	0.114196
O10	O	1.993478	0.501379	0.614196
O11	O	1.300681	0.129216	0.114196
O12	O	1.800681	0.629216	0.614196
O13	O	1.666305	0.117976	0.114174
O14	O	2.166305	0.617976	0.614174
Zn15	Zn	1.483493	0.123597	0.150477
Zn16	Zn	1.983493	0.623597	0.650477
Zn17	Zn	1.483496	0.123592	-0.150687
Zn18	Zn	1.983496	0.623592	0.349313
O19	O	1.473509	0.245813	0.114173
O20	O	1.973509	0.745813	0.614173
C21	C	1.253895	0.128389	-0.000092
C22	C	1.753895	0.628389	0.499908
C23	C	1.114484	0.125920	-0.000083
C24	C	1.614484	0.625920	0.499917
C25	C	1.034024	0.201188	-0.000110
C26	C	1.534024	0.701188	0.499890
C27	C	0.903034	0.198863	-0.000134
C28	C	1.403034	0.698863	0.499866
C29	C	0.932975	0.045995	-0.000108
C30	C	1.432975	0.545995	0.499892
C31	C	1.063963	0.048321	-0.000075
C32	C	1.563963	0.548321	0.499925
C33	C	1.084545	0.278788	-0.000118
C34	C	1.584545	0.778788	0.499882
C35	C	1.004084	0.354062	-0.000147
C36	C	1.504084	0.854062	0.499853
C37	C	0.873094	0.351737	-0.000170
C38	C	1.373094	0.851737	0.499830
C39	C	0.822564	0.274137	-0.000165
C40	C	1.322564	0.774137	0.499835
C41	C	1.492650	-0.029921	-0.000093
C42	C	1.992650	0.470079	0.499907
C43	C	1.490165	-0.123182	-0.000092
C44	C	1.990165	0.376818	0.499908
C45	C	1.364720	-0.338765	-0.000104
C46	C	1.864720	0.161235	0.499896
C47	C	1.422971	-0.399443	0.112596
C48	C	1.922971	0.100557	0.612596
C49	C	1.485668	-0.293934	-0.000103
C50	C	1.985668	0.206066	0.499897
C51	C	1.423002	-0.399430	-0.112765
C52	C	1.923002	0.100570	0.387235
C53	C	1.481317	-0.458872	-0.000119
C54	C	1.981317	0.041128	0.499881
C55	C	1.543953	-0.353384	0.112691
C56	C	2.043953	0.146616	0.612691
C57	C	1.543967	-0.353364	-0.112772
C58	C	2.043967	0.146636	0.387228
C59	C	1.602306	-0.414024	-0.000045
C60	C	2.102306	0.085976	0.499955
C61	C	1.488172	-0.198917	-0.000092
C62	C	1.988172	0.301083	0.499908
C63	C	1.478822	-0.553887	-0.000119
C64	C	1.978822	-0.053887	0.499881
C65	C	1.713094	0.118800	-0.000122
C66	C	2.213094	0.618800	0.499878
C67	C	1.852505	0.121269	-0.000140
C68	C	2.352505	0.621269	0.499860
C69	C	1.474339	0.277110	-0.000120
C70	C	1.974339	0.777110	0.499880
C71	C	1.476824	0.370371	-0.000130
C72	C	1.976824	0.870371	0.499870
N73	N	1.483500	0.123599	0.356013
N74	N	1.983500	0.623599	0.856013
N75	N	1.483499	0.123583	-0.356224
N76	N	1.983499	0.623583	0.143776
C77	C	1.568892	0.067012	0.427939
C78	C	2.068892	0.567012	0.927939
C79	C	1.568889	0.067002	0.571822
C80	C	2.068889	0.567002	1.071822
C81	C	1.398098	0.180173	0.571840
C82	C	1.898098	0.680173	1.071840
C83	C	1.398096	0.180178	0.427959
C84	C	1.898096	0.680178	0.927959
C85	C	1.654296	0.010433	0.355993
C86	C	2.154296	0.510433	0.855993
C87	C	1.739696	-0.046158	0.427920
C88	C	2.239696	0.453842	0.927920
C89	C	1.739693	-0.046168	0.571803
C90	C	2.239693	0.453832	1.071803
C91	C	1.654290	0.010412	0.643759
C92	C	2.154290	0.510412	1.143759
H93	H	0.807585	0.413029	-0.000180
H94	H	1.307585	0.913029	0.499820
H95	H	1.809220	-0.092252	0.630364
H96	H	2.309220	0.407748	1.130364
H97	H	1.595065	-0.333096	0.208074
H98	H	2.095065	0.166904	0.708074
H99	H	0.891822	-0.017184	-0.000127
H100	H	1.391822	0.482816	0.499873
H101	H	1.328561	0.226256	0.369396
H102	H	1.828561	0.726256	0.869396
Cl103	Cl	1.165119	-0.046304	-0.000038
Cl104	Cl	1.665119	0.453696	0.499962
H105	H	1.264327	-0.306038	0.000015
H106	H	1.764327	0.193962	0.500015
Cl107	Cl	1.343989	-0.430908	-0.259857
Cl108	Cl	1.843989	0.069092	0.240143
Cl109	Cl	1.654282	0.010388	0.824642
Cl110	Cl	2.154282	0.510388	1.324642
Cl111	Cl	1.343992	-0.430945	0.259710
Cl112	Cl	1.843992	0.069055	0.759710
H113	H	1.702787	-0.446602	0.000013
H114	H	2.202787	0.053398	0.500013
Cl115	Cl	1.622883	-0.321826	-0.259894
Cl116	Cl	2.122883	0.178174	0.240106
H117	H	1.654309	0.010437	0.238836
H118	H	2.154309	0.510437	0.738836
Cl119	Cl	1.290746	0.251301	0.662299
Cl120	Cl	1.790746	0.751301	1.162299
H121	H	1.809222	-0.092229	0.369325
H122	H	2.309222	0.407771	0.869325
Cl123	Cl	1.067606	0.451610	-0.000138
Cl124	Cl	1.567606	0.951610	0.499862
H125	H	1.191203	0.280689	-0.000105
H126	H	1.691203	0.780689	0.499895
H127	H	0.715901	0.272250	-0.000163
H128	H	1.215901	0.772250	0.499837
