data_functionalizedCrystal
_audit_creation_method	'MofGen! by Chris Wilmer'
_symmetry_space_group_name_H-M	'P1'
_symmetry_Int_Tables_number	1
_symmetry_cell_setting	triclinic
loop_
_symmetry_equiv_pos_as_xyz
  x,y,z
_cell_length_a	16.109318
_cell_length_b	16.109301
_cell_length_c	14.048226
_cell_angle_alpha	90.005033
_cell_angle_beta	90.001267
_cell_angle_gamma	83.465022
loop_
_atom_site_label
_atom_site_type_symbol
_atom_site_fract_x
_atom_site_fract_y
_atom_site_fract_z
O1	O	1.103123	0.106934	0.079084
O2	O	0.861063	0.120219	0.079104
O3	O	0.988743	-0.007454	0.079084
O4	O	0.975444	0.234607	0.079105
O5	O	0.988731	-0.007455	-0.079237
O6	O	0.861051	0.120218	-0.079217
O7	O	1.103111	0.106933	-0.079237
Zn8	Zn	0.982079	0.113575	-0.104364
Zn9	Zn	0.982095	0.113577	0.104231
O10	O	0.975432	0.234606	-0.079217
C11	C	0.830083	0.119677	-0.000054
C12	C	0.737788	0.118057	-0.000047
C13	C	0.438721	0.112822	0.086237
C14	C	0.525442	0.114340	0.086243
C15	C	0.525448	0.114327	-0.086368
C16	C	0.438729	0.112804	-0.086373
C17	C	0.395367	0.112056	-0.000068
C18	C	0.568807	0.115096	-0.000057
C19	C	0.662835	0.116742	-0.000051
C20	C	0.301334	0.110409	-0.000073
C21	C	0.988198	-0.038430	-0.000077
C22	C	0.986583	-0.130725	-0.000078
C23	C	1.058590	-0.352993	-0.000069
C24	C	1.057066	-0.439713	-0.000061
C25	C	0.905579	-0.419848	-0.000053
C26	C	0.907104	-0.333130	-0.000054
C27	C	0.983612	-0.299704	-0.000067
C28	C	0.980563	-0.473144	-0.000058
C29	C	0.978910	-0.567170	-0.000049
C30	C	0.985265	-0.205672	-0.000074
C31	C	1.134092	0.107474	-0.000077
C32	C	1.226387	0.109095	-0.000077
C33	C	0.975976	0.265581	-0.000054
C34	C	0.977592	0.357877	-0.000046
N35	N	0.982074	0.113574	-0.246725
C36	C	1.032481	0.164020	-0.296538
C37	C	1.032492	0.164016	-0.396196
C38	C	0.982091	0.113570	-0.446038
C39	C	0.931682	0.063119	-0.396217
C40	C	0.931677	0.063118	-0.296562
C41	C	0.931696	0.063124	-0.603932
C42	C	0.931700	0.063125	-0.703594
C43	C	1.032511	0.164022	-0.703566
C44	C	1.032506	0.164022	-0.603910
C45	C	0.982096	0.113571	-0.554096
N46	N	0.982107	0.113571	0.246592
H47	H	0.403429	0.112179	-0.156657
H48	H	0.846043	-0.289740	-0.000049
N49	N	0.823062	-0.455900	-0.000043
H50	H	0.833472	-0.518923	-0.000046
H51	H	0.790252	-0.436408	-0.058733
H52	H	1.120888	-0.325781	-0.000078
N53	N	0.572199	0.115177	0.179330
H54	H	0.633716	0.116253	0.166241
H55	H	0.563790	0.063406	0.217019
N56	N	1.086839	0.218434	-0.242783
H57	H	1.118774	0.250388	-0.289466
H58	H	1.127489	0.182198	-0.201435
H59	H	0.403419	0.112212	0.156512
N60	N	0.877310	0.008709	-0.242829
H61	H	0.913522	-0.031972	-0.201488
H62	H	0.845390	-0.023193	-0.289584
N63	N	0.572216	0.115141	-0.179450
H64	H	0.633730	0.116226	-0.166353
H65	H	0.550302	0.166382	-0.217134
N66	N	1.137933	-0.497193	-0.000068
H67	H	1.171319	-0.486437	0.058616
H68	H	1.171239	-0.486423	-0.058802
N69	N	1.086899	0.218385	-0.449925
H70	H	1.118836	0.250332	-0.403228
H71	H	1.050677	0.259025	-0.491299
H72	H	1.073542	0.205103	-0.563332
H73	H	1.073553	0.205104	-0.744129
N74	N	0.877315	0.008715	-0.449974
H75	H	0.845383	-0.023244	-0.403292
H76	H	0.913577	-0.031915	-0.491326
N77	N	0.877329	0.008730	-0.757356
H78	H	0.845394	-0.023231	-0.710680
H79	H	0.913586	-0.031898	-0.798716
H80	H	0.890648	0.022041	-0.563376
