data_functionalizedCrystal
_audit_creation_method	'MofGen! by Chris Wilmer'
_symmetry_space_group_name_H-M	'P1'
_symmetry_Int_Tables_number	1
_symmetry_cell_setting	triclinic
loop_
_symmetry_equiv_pos_as_xyz
  x,y,z
_cell_length_a	27.731994
_cell_length_b	27.731996
_cell_length_c	26.809956
_cell_angle_alpha	89.998344
_cell_angle_beta	89.997334
_cell_angle_gamma	82.620961
loop_
_atom_site_label
_atom_site_type_symbol
_atom_site_fract_x
_atom_site_fract_y
_atom_site_fract_z
O1	O	0.640937	0.057387	-0.041415
O2	O	0.500139	0.066160	-0.041432
O3	O	0.574924	-0.008626	-0.041412
O4	O	0.566152	0.132173	-0.041435
O5	O	0.574910	-0.008615	0.041547
O6	O	0.500124	0.066171	0.041527
O7	O	0.640923	0.057398	0.041544
Zn8	Zn	0.570522	0.061787	0.054707
Zn9	Zn	0.570540	0.061772	-0.054595
O10	O	0.566138	0.132184	0.041524
C11	C	0.482124	0.065986	0.000045
C12	C	0.428468	0.065443	0.000039
C13	C	0.095742	0.062034	0.045280
C14	C	-0.105915	0.059972	0.045286
O15	O	-0.131994	0.059690	0.083745
N16	N	-0.131122	0.059710	0.000065
C17	C	-0.105912	0.059960	-0.045161
O18	O	-0.131978	0.059684	-0.083624
C19	C	0.095746	0.062018	-0.045166
C20	C	0.120950	0.062285	0.000058
C21	C	0.120946	0.062300	0.090500
C22	C	0.171357	0.062818	0.090498
C23	C	0.196565	0.063070	0.045276
C24	C	0.171361	0.062803	0.000056
C25	C	0.120956	0.062264	-0.090392
C26	C	0.171374	0.062778	-0.090389
C27	C	0.196578	0.063045	-0.045165
C28	C	0.246979	0.063573	-0.045168
N29	N	0.272186	0.063835	0.000053
C30	C	0.246979	0.063583	0.045275
C31	C	-0.211785	0.058880	-0.045155
C32	C	-0.262199	0.058366	-0.045154
C33	C	-0.262199	0.058378	0.045293
C34	C	-0.211784	0.058895	0.045292
C35	C	-0.186578	0.059142	0.000066
C36	C	0.352846	0.064672	0.045267
C37	C	0.403261	0.065192	0.045261
C38	C	0.403257	0.065178	-0.045185
C39	C	0.352846	0.064660	-0.045180
C40	C	0.327642	0.064406	0.000051
O41	O	0.273090	0.063850	-0.083607
O42	O	0.273056	0.063848	0.083732
C43	C	0.045331	0.061516	0.045282
C44	C	0.020127	0.061249	0.000062
C45	C	0.045335	0.061500	-0.045161
C46	C	-0.030287	0.060735	0.000063
C47	C	-0.055494	0.060484	0.045285
C48	C	-0.030287	0.060746	0.090506
C49	C	0.020124	0.061264	0.090504
C50	C	0.020128	0.061238	-0.090382
C51	C	-0.030284	0.060721	-0.090376
C52	C	-0.055491	0.060469	-0.045154
C53	C	0.574737	-0.026628	0.000069
C54	C	0.574194	-0.080284	0.000074
C55	C	0.570787	-0.413006	-0.045172
C56	C	0.568726	-0.614663	-0.045181
O57	O	0.568445	-0.640739	-0.083640
N58	N	0.568462	-0.639874	0.000040
C59	C	0.568711	-0.614667	0.045266
O60	O	0.568434	-0.640737	0.083729
C61	C	0.570768	-0.413010	0.045274
C62	C	0.571037	-0.387802	0.000051
C63	C	0.571055	-0.387798	-0.090392
C64	C	0.571573	-0.337387	-0.090389
C65	C	0.571823	-0.312183	-0.045166
C66	C	0.571555	-0.337391	0.000054
C67	C	0.571013	-0.387803	0.090500
C68	C	0.571526	-0.337385	0.090498
C69	C	0.571795	-0.312178	0.045274
C70	C	0.572322	-0.261777	0.045279
N71	N	0.572586	-0.236566	0.000058
C72	C	0.572336	-0.261769	-0.045164
C73	C	0.567631	-0.720540	0.045258
C74	C	0.567118	-0.770955	0.045256
C75	C	0.567132	-0.770947	-0.045191
C76	C	0.567649	-0.720533	-0.045188
C77	C	0.567895	-0.695329	0.000038
C78	C	0.573424	-0.155902	-0.045155
C79	C	0.573944	-0.105487	-0.045149
C80	C	0.573927	-0.105499	0.045298
C81	C	0.573410	-0.155910	0.045292
C82	C	0.573157	-0.181110	0.000061
O83	O	0.572598	-0.235669	0.083718
O84	O	0.572602	-0.235689	-0.083621
C85	C	0.570269	-0.463417	-0.045175
C86	C	0.570001	-0.488624	0.000045
C87	C	0.570251	-0.463421	0.045268
C88	C	0.569487	-0.539039	0.000043
C89	C	0.569238	-0.564242	-0.045179
C90	C	0.569501	-0.539031	-0.090400
C91	C	0.570019	-0.488620	-0.090397
C92	C	0.569987	-0.488632	0.090489
C93	C	0.569470	-0.539043	0.090482
C94	C	0.569220	-0.564246	0.045260
C95	C	0.658938	0.057573	0.000066
C96	C	0.712594	0.058115	0.000069
C97	C	0.566325	0.150186	0.000042
C98	C	0.566868	0.203842	0.000034
N99	N	0.570513	0.061797	0.129303
N100	N	0.570553	0.061758	-0.129191
C101	C	0.603651	0.028665	0.473938
C102	C	0.603663	0.028657	0.682816
O103	O	0.631818	0.000490	0.709827
N104	N	0.570543	0.061761	0.708930
C105	C	0.537416	0.094867	0.682822
O106	O	0.509243	0.123020	0.709827
C107	C	0.537403	0.094872	0.473945
C108	C	0.570528	0.061769	0.447834
C109	C	0.636773	-0.004436	0.447826
C110	C	0.636771	-0.004432	0.395610
C111	C	0.603648	0.028672	0.369506
C112	C	0.570526	0.061773	0.395617
C113	C	0.504274	0.127975	0.447838
C114	C	0.504273	0.127972	0.395616
C115	C	0.537398	0.094870	0.369504
C116	C	0.537401	0.094881	0.317297
N117	N	0.570521	0.061777	0.291182
C118	C	0.603644	0.028673	0.317287
C119	C	0.537426	0.094863	0.792485
C120	C	0.537430	0.094862	0.844704
C121	C	0.603676	0.028652	0.844694
C122	C	0.603674	0.028655	0.792475
C123	C	0.570546	0.061759	0.766371
C124	C	0.603639	0.028684	0.207629
C125	C	0.603636	0.028692	0.155408
C126	C	0.537388	0.094901	0.155422
C127	C	0.537393	0.094895	0.207639
C128	C	0.570520	0.061782	0.233740
O129	O	0.509257	0.123030	0.290253
O130	O	0.631806	0.000517	0.290273
C131	C	0.603652	0.028661	0.526154
C132	C	0.570531	0.061761	0.552266
C133	C	0.537407	0.094865	0.526162
C134	C	0.570534	0.061761	0.604485
C135	C	0.603658	0.028656	0.630590
C136	C	0.636777	-0.004448	0.604475
C137	C	0.636776	-0.004444	0.552259
C138	C	0.504288	0.127969	0.552276
C139	C	0.504292	0.127963	0.604493
C140	C	0.537416	0.094859	0.630597
H141	H	0.423789	0.065385	-0.082004
H142	H	-0.050820	0.060544	0.127328
H143	H	0.566929	-0.791476	-0.082013
O144	O	0.505147	0.127037	0.130115
C145	C	0.420877	0.155929	0.114115
C146	C	0.457340	0.119519	0.142816
H147	H	0.382217	0.149856	0.124365
H148	H	0.426832	0.194616	0.124388
H149	H	0.426591	0.150248	0.072310
H150	H	0.451648	0.125155	0.184627
H151	H	0.451376	0.080845	0.132501
O152	O	0.427734	0.065363	0.089207
C153	C	0.448929	0.023650	0.166531
C154	C	0.421204	0.023391	0.116778
H155	H	0.443652	-0.010275	0.188841
H156	H	0.489302	0.024033	0.158796
H157	H	0.434330	0.057409	0.188806
H158	H	0.435762	-0.010362	0.094479
H159	H	0.380835	0.023034	0.124549
H160	H	0.630647	0.001700	0.771217
H161	H	0.100428	0.062094	0.127328
O162	O	0.668854	-0.036684	0.526879
C163	C	0.679539	-0.102908	0.468073
C164	C	0.643178	-0.066371	0.496746
H165	H	0.658795	-0.126925	0.443712
H166	H	0.703575	-0.082332	0.443553
H167	H	0.703172	-0.126538	0.495760
H168	H	0.619513	-0.042730	0.469096
H169	H	0.619176	-0.086977	0.521274
H170	H	-0.050801	0.060507	-0.127206
H171	H	0.570238	-0.468100	-0.127223
H172	H	0.040646	0.061441	-0.127208
H173	H	0.571790	-0.316867	-0.127215
O174	O	0.668907	-0.036588	0.629916
C175	C	0.698276	-0.065909	0.710365
C176	C	0.661862	-0.029493	0.681614
H177	H	0.692600	-0.060179	0.752168
H178	H	0.692275	-0.104594	0.700138
H179	H	0.736940	-0.059892	0.700070
H180	H	0.623183	-0.035465	0.691894
H181	H	0.667906	0.009180	0.691843
H182	H	0.569300	-0.559561	-0.127222
O183	O	0.044614	0.061605	0.134422
C184	C	0.095747	0.104070	0.186904
C185	C	0.068029	0.103752	0.137152
H186	H	0.114694	0.138136	0.189122
H187	H	0.069083	0.103831	0.219241
H188	H	0.124016	0.070452	0.189165
H189	H	0.039761	0.137363	0.134842
H190	H	0.094724	0.103965	0.104838
H191	H	0.477319	0.154923	0.625749
H192	H	0.574164	-0.084966	-0.081977
O193	O	0.569189	-0.563449	0.134461
C194	C	0.569248	-0.558124	0.224171
C195	C	0.569562	-0.530426	0.174404
H196	H	0.569560	-0.531439	0.256478
H197	H	0.535154	-0.577022	0.226460
H198	H	0.602838	-0.586428	0.226415
H199	H	0.535995	-0.502099	0.172127
H200	H	0.603678	-0.511562	0.172136
O201	O	-0.286713	0.058199	-0.089071
C202	C	-0.349444	0.099489	-0.141563
C203	C	-0.321716	0.099748	-0.091812
H204	H	-0.377757	0.133073	-0.143791
H205	H	-0.322789	0.099787	-0.173902
H206	H	-0.368337	0.065390	-0.143813
H207	H	-0.302822	0.133842	-0.089513
H208	H	-0.348394	0.099425	-0.059497
H209	H	0.567834	-0.700025	0.082089
H210	H	0.477314	0.154926	0.531026
H211	H	0.191895	0.062979	-0.127218
H212	H	0.332330	0.064469	0.082098
O213	O	0.570728	-0.412204	0.134475
C214	C	0.570783	-0.406870	0.224185
C215	C	0.571097	-0.379177	0.174416
H216	H	0.571092	-0.380182	0.256490
H217	H	0.536690	-0.425770	0.226475
H218	H	0.604375	-0.435172	0.226433
H219	H	0.537529	-0.350852	0.172135
H220	H	0.605213	-0.360311	0.172147
O221	O	0.096527	0.062065	-0.134355
C222	C	0.075298	0.103790	-0.211666
C223	C	0.102991	0.104073	-0.161896
H224	H	0.080506	0.137754	-0.233942
H225	H	0.089912	0.070065	-0.233986
H226	H	0.034939	0.103353	-0.203896
H227	H	0.143354	0.104527	-0.169621
H228	H	0.088337	0.137794	-0.139591
O229	O	0.195827	0.062986	0.134443
C230	C	0.217009	0.021266	0.211766
C231	C	0.189290	0.021013	0.162009
H232	H	0.211725	-0.012659	0.234073
H233	H	0.257383	0.021646	0.204037
H234	H	0.202409	0.055025	0.234042
H235	H	0.203848	-0.012740	0.139709
H236	H	0.148919	0.020659	0.169774
O237	O	0.574095	-0.081050	0.089255
C238	C	0.532303	-0.059783	0.166521
C239	C	0.532067	-0.087508	0.116766
H240	H	0.498322	-0.064987	0.188773
H241	H	0.566011	-0.074377	0.188876
H242	H	0.532736	-0.019428	0.158732
H243	H	0.531616	-0.127867	0.124510
H244	H	0.498362	-0.072874	0.094427
O245	O	0.573193	-0.180305	-0.089136
C246	C	0.573215	-0.174957	-0.178846
C247	C	0.573492	-0.147264	-0.129075
H248	H	0.573447	-0.148254	-0.211149
H249	H	0.606820	-0.203238	-0.181150
H250	H	0.539135	-0.193880	-0.181082
H251	H	0.607550	-0.128311	-0.126805
H252	H	0.539865	-0.119010	-0.126792
H253	H	0.510448	0.121821	0.771235
H254	H	-0.191266	0.059081	-0.081985
O255	O	0.505284	0.127100	0.233027
C256	C	0.494475	0.193170	0.292009
C257	C	0.530896	0.156735	0.263285
H258	H	0.515168	0.217133	0.316487
H259	H	0.470810	0.216866	0.264399
H260	H	0.470478	0.172457	0.316431
H261	H	0.554925	0.177408	0.238862
H262	H	0.554528	0.133040	0.290922
H263	H	0.630647	0.001697	0.865957
H264	H	0.566906	-0.791475	0.082082
H265	H	0.570191	-0.468116	0.127315
H266	H	-0.191267	0.059113	0.082117
H267	H	0.571719	-0.316867	0.127327
O268	O	0.635833	-0.003513	0.130121
C269	C	0.701559	-0.069166	0.135632
C270	C	0.665117	-0.032728	0.164328
H271	H	0.725252	-0.092788	0.163276
H272	H	0.680901	-0.093200	0.111198
H273	H	0.725524	-0.048456	0.111170
H274	H	0.641142	-0.053398	0.188817
H275	H	0.685805	-0.008694	0.188730
H276	H	0.630614	0.001720	0.228875
H277	H	0.332323	0.064451	-0.082005
O278	O	0.668897	-0.036717	0.370341
C279	C	0.697803	-0.121037	0.354624
C280	C	0.661386	-0.084484	0.383213
H281	H	0.691750	-0.159664	0.365028
H282	H	0.692181	-0.115488	0.312791
H283	H	0.736466	-0.115015	0.364914
H284	H	0.622709	-0.090484	0.372964
H285	H	0.667051	-0.090042	0.425039
O286	O	0.573094	-0.180448	0.089187
C287	C	0.530600	-0.231547	0.141685
C288	C	0.530904	-0.203792	0.091952
H289	H	0.496488	-0.250420	0.143941
H290	H	0.564177	-0.259867	0.143949
H291	H	0.530896	-0.204870	0.174002
H292	H	0.530591	-0.230432	0.059607
H293	H	0.497330	-0.175465	0.089731
H294	H	0.570850	-0.408313	-0.127219
O295	O	0.567884	-0.696119	-0.089162
C296	C	0.567875	-0.701451	-0.178873
C297	C	0.567598	-0.729154	-0.129106
H298	H	0.567655	-0.728149	-0.211180
H299	H	0.534264	-0.673177	-0.181175
H300	H	0.601950	-0.682518	-0.181104
H301	H	0.533546	-0.748117	-0.126842
H302	H	0.601232	-0.757401	-0.126825
O303	O	0.505209	0.127040	0.869989
C304	C	0.439519	0.192728	0.864473
C305	C	0.475979	0.156307	0.835779
H306	H	0.415884	0.216407	0.836827
H307	H	0.415499	0.172054	0.888909
H308	H	0.460210	0.216710	0.888932
H309	H	0.455328	0.132315	0.811293
H310	H	0.499999	0.177011	0.811374
O311	O	-0.286618	0.058153	0.089268
C312	C	-0.281307	0.058176	0.178979
C313	C	-0.253593	0.058448	0.129218
H314	H	-0.254617	0.058404	0.211292
H315	H	-0.309585	0.091784	0.181272
H316	H	-0.300237	0.024099	0.181210
H317	H	-0.234633	0.092502	0.126954
H318	H	-0.225343	0.024816	0.126947
O319	O	0.668972	-0.036529	0.473234
C320	C	0.735102	-0.047289	0.532146
C321	C	0.698650	-0.010891	0.503417
H322	H	0.759113	-0.026575	0.556547
H323	H	0.714455	-0.071290	0.556632
H324	H	0.758749	-0.070952	0.504496
H325	H	0.674994	0.012804	0.531031
H326	H	0.719328	0.013076	0.478923
O327	O	0.472048	0.160149	0.473118
C328	C	0.406355	0.225833	0.467593
C329	C	0.442819	0.189413	0.438904
H330	H	0.382721	0.249509	0.439944
H331	H	0.382334	0.205158	0.492028
H332	H	0.427042	0.249818	0.492053
H333	H	0.422172	0.165418	0.414417
H334	H	0.466840	0.210118	0.414500
O335	O	0.472158	0.160152	0.370205
C336	C	0.461352	0.226272	0.311278
C337	C	0.497772	0.189848	0.340015
H338	H	0.482047	0.250297	0.286871
H339	H	0.437370	0.205600	0.286798
H340	H	0.437671	0.249906	0.338924
H341	H	0.521485	0.166204	0.312405
H342	H	0.521720	0.210550	0.364503
