data_functionalizedCrystal
_audit_creation_method	'MofGen! by Chris Wilmer'
_symmetry_space_group_name_H-M	'P1'
_symmetry_Int_Tables_number	1
_symmetry_cell_setting	triclinic
loop_
_symmetry_equiv_pos_as_xyz
  x,y,z
_cell_length_a	23.532407
_cell_length_b	16.974885
_cell_length_c	16.053802
_cell_angle_alpha	96.211606
_cell_angle_beta	87.440303
_cell_angle_gamma	83.122480
loop_
_atom_site_label
_atom_site_type_symbol
_atom_site_fract_x
_atom_site_fract_y
_atom_site_fract_z
O1	O	0.757759	0.092943	-0.063048
O2	O	0.591910	0.106875	-0.062131
O3	O	0.679728	-0.015605	-0.070385
O4	O	0.669942	0.215423	-0.054794
O5	O	0.674894	-0.008891	0.068926
O6	O	0.587076	0.113589	0.077180
O7	O	0.752926	0.099657	0.076264
Zn8	Zn	0.669234	0.107689	0.098841
Zn9	Zn	0.675602	0.098843	-0.084708
O10	O	0.665108	0.222137	0.084517
C11	C	0.568277	0.109877	0.007497
C12	C	0.505059	0.108810	0.007416
C13	C	0.677028	-0.041799	-0.002725
C14	C	0.676180	-0.129854	-0.008674
C15	C	0.673145	-0.167569	0.064467
C16	C	0.672352	-0.250306	0.058870
C17	C	0.674589	-0.295326	-0.019867
C18	C	0.677626	-0.257605	-0.093013
C19	C	0.678423	-0.174870	-0.087416
C20	C	0.672490	-0.543159	-0.044750
C21	C	0.671691	-0.625899	-0.050342
C22	C	0.666418	-0.618595	0.101543
C23	C	0.667212	-0.535858	0.107133
C24	C	0.670252	-0.498145	0.033987
N25	N	0.673776	-0.379896	-0.025590
N26	N	0.671069	-0.413577	0.039710
C27	C	0.106017	0.174602	0.011894
C28	C	0.046615	0.173612	0.011832
O29	O	0.009927	0.234602	0.015978
N30	N	0.023921	0.100797	0.006917
C31	C	0.060631	0.028969	0.002072
O32	O	0.035873	-0.033057	-0.002114
C33	C	0.120031	0.029960	0.002139
C34	C	0.142722	0.102779	0.007046
C35	C	0.128709	0.247416	0.016801
C36	C	0.188106	0.248406	0.016862
C37	C	0.224811	0.176583	0.012014
C38	C	0.202119	0.103770	0.007107
C39	C	0.156739	-0.041867	-0.002700
C40	C	0.216143	-0.040869	-0.002631
C41	C	0.238834	0.031950	0.002276
C42	C	0.298222	0.032937	0.002319
N43	N	0.320917	0.105752	0.007235
C44	C	0.284211	0.177575	0.012082
C45	C	-0.064114	0.026891	0.001931
C46	C	-0.123512	0.025898	0.001857
C47	C	-0.137524	0.170542	0.011619
C48	C	-0.078124	0.171534	0.011687
C49	C	-0.041419	0.099706	0.006846
C50	C	0.408951	0.179649	0.012207
C51	C	0.468354	0.180633	0.012263
C52	C	0.482360	0.035990	0.002506
C53	C	0.422962	0.035006	0.002445
C54	C	0.386258	0.106842	0.007299
O55	O	0.334945	-0.028021	-0.001821
O56	O	0.308977	0.239591	0.016278
C57	C	0.776559	0.096655	0.006633
C58	C	0.839777	0.097722	0.006709
C59	C	0.667808	0.248331	0.016856
C60	C	0.668656	0.336385	0.022799
N61	N	0.664891	0.113726	0.224108
N62	N	0.679949	0.092800	-0.209976
C63	C	0.702271	0.061629	0.264291
C64	C	0.699239	0.065859	0.351983
C65	C	0.658829	0.122190	0.399490
C66	C	0.621445	0.174290	0.359301
C67	C	0.624475	0.170055	0.271610
C68	C	0.645595	0.140665	0.662145
C69	C	0.642569	0.144897	0.749841
C70	C	0.720362	0.036465	0.742517
C71	C	0.723391	0.032238	0.654825
C72	C	0.686005	0.084335	0.614643
N73	N	0.655730	0.126517	0.489125
N74	N	0.689102	0.080003	0.525009
H75	H	0.671314	-0.130918	0.128584
C76	C	0.256515	-0.119882	-0.007966
H77	H	0.234489	-0.163387	-0.010905
H78	H	0.278300	-0.120165	0.040434
H79	H	0.281656	-0.124843	-0.056734
H80	H	-0.141982	-0.033399	-0.002152
H81	H	0.680895	-0.144164	-0.146975
C82	C	-0.023743	-0.052125	-0.003413
H83	H	-0.045770	-0.095628	-0.006358
H84	H	-0.001958	-0.052415	0.044988
H85	H	0.001400	-0.057085	-0.052179
C86	C	0.598116	0.206862	0.802102
H87	H	0.601673	0.201927	0.860082
H88	H	0.560632	0.197821	0.787182
H89	H	0.604631	0.259071	0.791292
C90	C	0.493311	0.260737	0.017666
H91	H	0.462939	0.303369	0.020553
H92	H	0.517872	0.261793	-0.030687
H93	H	0.514510	0.266472	0.066481
H94	H	0.750800	-0.005951	0.775241
C95	C	0.368585	0.258666	0.017535
H96	H	0.390615	0.302167	0.020457
H97	H	0.343438	0.263641	0.066293
H98	H	0.346806	0.258942	-0.030876
C99	C	0.746722	-0.000338	0.212040
H100	H	0.768546	-0.030764	0.248534
H101	H	0.771521	0.026376	0.179737
H102	H	0.727518	-0.034870	0.175624
C103	C	0.680085	-0.307124	-0.179623
H104	H	0.679169	-0.361799	-0.172482
H105	H	0.714507	-0.301377	-0.210332
H106	H	0.648085	-0.288750	-0.209483
H107	H	0.206575	0.307702	0.020857
C108	C	0.674183	-0.675426	-0.136957
H109	H	0.676121	-0.641119	-0.179719
H110	H	0.640782	-0.701558	-0.141906
H111	H	0.707202	-0.714150	-0.142684
H112	H	0.663944	-0.649310	0.161094
H113	H	0.098828	0.305906	0.020752
H114	H	-0.167420	0.229024	0.015570
C115	C	0.131791	-0.121968	-0.008086
H116	H	0.162166	-0.164593	-0.010951
H117	H	0.110590	-0.127720	-0.056892
H118	H	0.107233	-0.123016	0.040277
H119	H	0.669883	-0.281010	0.118429
H120	H	0.665403	-0.499211	0.171249
C121	C	0.398000	-0.045093	-0.002962
H122	H	0.428370	-0.087725	-0.005838
H123	H	0.376796	-0.050829	-0.051766
H124	H	0.373443	-0.046145	0.045402
C125	C	-0.053169	0.251634	0.017092
H126	H	-0.083541	0.294263	0.019973
H127	H	-0.028604	0.252690	-0.031257
H128	H	-0.031974	0.257372	0.065911
C129	C	0.522742	-0.043008	-0.002820
H130	H	0.561367	-0.031982	-0.002070
H131	H	0.517573	-0.075237	-0.053412
H132	H	0.514205	-0.070537	0.043757
C133	C	0.583360	0.227362	0.227405
H134	H	0.590948	0.216767	0.168376
H135	H	0.588879	0.280956	0.245336
H136	H	0.544882	0.219702	0.241222
C137	C	0.675824	-0.501683	-0.125207
H138	H	0.677034	-0.540345	-0.172899
H139	H	0.709452	-0.475869	-0.126611
H140	H	0.643030	-0.463251	-0.125757
H141	H	0.729677	0.023437	0.384699
H142	H	0.756296	-0.013631	0.616146
H143	H	0.615155	0.183086	0.629436
H144	H	0.588540	0.220154	0.397986
