data_functionalizedCrystal
_audit_creation_method	'MofGen! by Chris Wilmer'
_symmetry_space_group_name_H-M	'P1'
_symmetry_Int_Tables_number	1
_symmetry_cell_setting	triclinic
loop_
_symmetry_equiv_pos_as_xyz
  x,y,z
_cell_length_a	16.120530
_cell_length_b	12.645330
_cell_length_c	16.120256
_cell_angle_alpha	92.876632
_cell_angle_beta	90.128265
_cell_angle_gamma	87.108294
loop_
_atom_site_label
_atom_site_type_symbol
_atom_site_fract_x
_atom_site_fract_y
_atom_site_fract_z
Zn1	Zn	1.247519	-0.537103	-0.534584
Zn2	Zn	1.497519	-0.287103	-0.284584
Zn3	Zn	1.747519	-0.037103	-0.034584
Zn4	Zn	1.997519	0.212897	0.215416
Zn5	Zn	1.254495	-0.705860	-0.395531
Zn6	Zn	1.504495	-0.455860	-0.145531
Zn7	Zn	1.754495	-0.205860	0.104469
Zn8	Zn	2.004495	0.044140	0.354469
Zn9	Zn	1.115507	-0.519184	-0.388501
Zn10	Zn	1.365507	-0.269184	-0.138501
Zn11	Zn	1.615507	-0.019184	0.111499
Zn12	Zn	1.865507	0.230816	0.361499
Zn13	Zn	1.108451	-0.704889	-0.527501
Zn14	Zn	1.358451	-0.454889	-0.277501
Zn15	Zn	1.608451	-0.204889	-0.027501
Zn16	Zn	1.858451	0.045111	0.222499
O17	O	1.181493	-0.616759	-0.461529
O18	O	1.431493	-0.366759	-0.211529
O19	O	1.681493	-0.116759	0.038471
O20	O	1.931493	0.133241	0.288471
O21	O	1.364812	-0.567395	-0.522044
O22	O	1.614812	-0.317395	-0.272044
O23	O	1.864812	-0.067395	-0.022044
O24	O	2.114812	0.182605	0.227956
O25	O	1.241930	-0.674004	-0.278232
O26	O	1.491930	-0.424004	-0.028232
O27	O	1.741930	-0.174004	0.221768
O28	O	1.991930	0.075996	0.471768
O29	O	1.133052	-0.373217	-0.407901
O30	O	1.383052	-0.123217	-0.157901
O31	O	1.633052	0.126783	0.092099
O32	O	1.883052	0.376783	0.342099
O33	O	1.369937	-0.691380	-0.419883
O34	O	1.619937	-0.441380	-0.169883
O35	O	1.869937	-0.191380	0.080117
O36	O	2.119937	0.058620	0.330117
O37	O	1.230041	-0.386383	-0.515228
O38	O	1.480041	-0.136383	-0.265228
O39	O	1.730041	0.113617	-0.015228
O40	O	1.980041	0.363617	0.234772
O41	O	1.139816	-0.536854	-0.273067
O42	O	1.389816	-0.286854	-0.023067
O43	O	1.639816	-0.036854	0.226933
O44	O	1.889816	0.213146	0.476933
O45	O	0.998204	-0.535912	-0.401033
O46	O	1.248204	-0.285912	-0.151033
O47	O	1.498204	-0.035912	0.098967
O48	O	1.748204	0.214088	0.348967
O49	O	1.121026	-0.689725	-0.644806
O50	O	1.371026	-0.439725	-0.394806
O51	O	1.621026	-0.189725	-0.144806
O52	O	1.871026	0.060275	0.105194
O53	O	0.993020	-0.672349	-0.503155
O54	O	1.243020	-0.422349	-0.253155
O55	O	1.493020	-0.172349	-0.003155
O56	O	1.743020	0.077651	0.246845
O57	O	1.223199	-0.566453	-0.650010
O58	O	1.473199	-0.316453	-0.400010
O59	O	1.723199	-0.066453	-0.150010
O60	O	1.973199	0.183547	0.099990
O61	O	1.235088	-0.854075	-0.413015
O62	O	1.485088	-0.604075	-0.163015
O63	O	1.735088	-0.354075	0.086985
O64	O	1.985088	-0.104075	0.336985
O65	O	1.127790	-0.853361	-0.509972
O66	O	1.377790	-0.603361	-0.259972
O67	O	1.627790	-0.353361	-0.009972
O68	O	1.877790	-0.103361	0.240028
C69	C	0.965439	-0.602081	-0.450563
C70	C	1.215439	-0.352081	-0.200563
C71	C	1.465439	-0.102081	0.049437
C72	C	1.715439	0.147919	0.299437
C73	C	0.873009	-0.595829	-0.445892
C74	C	1.123009	-0.345829	-0.195892
C75	C	1.373009	-0.095829	0.054108
C76	C	1.623009	0.154171	0.304108
C77	C	1.181452	-0.892185	-0.461507
C78	C	1.431452	-0.642185	-0.211507
C79	C	1.681452	-0.392185	0.038493
C80	C	1.931452	-0.142185	0.288493
C81	C	1.181510	-1.010020	-0.461529
C82	C	1.431510	-0.760020	-0.211529
C83	C	1.681510	-0.510020	0.038471
C84	C	1.931510	-0.260020	0.288471
C85	C	0.703778	-0.584389	-0.437370
C86	C	0.953778	-0.334389	-0.187370
C87	C	1.203778	-0.084389	0.062630
C88	C	1.453778	0.165611	0.312630
C89	C	0.660046	-0.649211	-0.485749
C90	C	0.910046	-0.399211	-0.235749
C91	C	1.160046	-0.149211	0.014251
C92	C	1.410046	0.100789	0.264251
C93	C	0.565880	-0.642845	-0.481007
C94	C	0.815880	-0.392845	-0.231007
C95	C	1.065880	-0.142845	0.018993
C96	C	1.315880	0.107155	0.268993
C97	C	0.797952	-0.590753	-0.442110
C98	C	1.047952	-0.340753	-0.192110
C99	C	1.297952	-0.090753	0.057890
C100	C	1.547952	0.159247	0.307890
C101	C	1.248914	-1.177974	-0.400398
C102	C	1.498914	-0.927974	-0.150398
C103	C	1.748914	-0.677974	0.099602
C104	C	1.998914	-0.427974	0.349602
C105	C	1.249115	-1.055437	-0.400566
C106	C	1.499115	-0.805437	-0.150566
C107	C	1.749115	-0.555437	0.099434
C108	C	1.999115	-0.305437	0.349434
C109	C	1.200830	-1.061389	-0.550386
C110	C	1.450830	-0.811389	-0.300386
C111	C	1.700830	-0.561389	-0.050386
C112	C	1.950830	-0.311389	0.199614
C113	C	1.201356	-1.184000	-0.550071
C114	C	1.451356	-0.934000	-0.300071
C115	C	1.701356	-0.684000	-0.050071
C116	C	1.951356	-0.434000	0.199929
C117	C	1.094716	-1.170009	-0.434667
C118	C	1.344716	-0.920009	-0.184667
C119	C	1.594716	-0.670009	0.065333
C120	C	1.844716	-0.420009	0.315333
C121	C	1.095237	-1.047312	-0.432722
C122	C	1.345237	-0.797312	-0.182722
C123	C	1.595237	-0.547312	0.067278
C124	C	1.845237	-0.297312	0.317278
C125	C	1.398391	-0.631495	-0.472538
C126	C	1.648391	-0.381495	-0.222538
C127	C	1.898391	-0.131495	0.027462
C128	C	2.148391	0.118505	0.277462
C129	C	1.490820	-0.637774	-0.477229
C130	C	1.740820	-0.387774	-0.227229
C131	C	1.990820	-0.137774	0.022771
C132	C	2.240820	0.112226	0.272771
C133	C	1.170548	-0.629980	-0.678424
C134	C	1.420548	-0.379980	-0.428424
C135	C	1.670548	-0.129980	-0.178424
C136	C	1.920548	0.120020	0.071576
C137	C	1.165883	-0.635614	-0.770852
C138	C	1.415883	-0.385614	-0.520852
C139	C	1.665883	-0.135614	-0.270852
C140	C	1.915883	0.114386	-0.020852
C141	C	1.181556	-0.340260	-0.461570
C142	C	1.431556	-0.090260	-0.211570
C143	C	1.681556	0.159740	0.038430
C144	C	1.931556	0.409740	0.288430
C145	C	1.181582	-0.222433	-0.461588
C146	C	1.431582	0.027567	-0.211588
C147	C	1.681582	0.277567	0.038412
C148	C	1.931582	0.527567	0.288412
C149	C	1.205815	-0.587352	-0.983835
C150	C	1.455815	-0.337352	-0.733835
C151	C	1.705815	-0.087352	-0.483835
C152	C	1.955815	0.162648	-0.233835
C153	C	1.157340	-0.645854	-0.940073
C154	C	1.407340	-0.395854	-0.690073
C155	C	1.657340	-0.145854	-0.440073
C156	C	1.907340	0.104146	-0.190073
C157	C	1.162095	-0.640154	-0.845910
C158	C	1.412095	-0.390154	-0.595910
C159	C	1.662095	-0.140154	-0.345910
C160	C	1.912095	0.109846	-0.095910
C161	C	1.201061	-0.593050	-1.078006
C162	C	1.451061	-0.343050	-0.828006
C163	C	1.701061	-0.093050	-0.578006
C164	C	1.951061	0.156950	-0.328006
C165	C	1.192444	-0.603517	-0.245480
C166	C	1.442444	-0.353517	0.004520
C167	C	1.692444	-0.103517	0.254520
C168	C	1.942444	0.146483	0.504520
C169	C	1.197269	-0.597595	-0.153060
C170	C	1.447269	-0.347595	0.096940
C171	C	1.697269	-0.097595	0.346940
C172	C	1.947269	0.152405	0.596940
H173	H	0.693327	-0.709485	-0.530729
H174	H	0.943327	-0.459485	-0.280729
H175	H	1.193327	-0.209485	-0.030729
H176	H	1.443327	0.040515	0.219271
H177	H	0.670498	-0.524119	-0.392393
H178	H	0.920498	-0.274119	-0.142393
H179	H	1.170498	-0.024119	0.107607
H180	H	1.420498	0.225881	0.357607
H181	H	1.264719	-1.218043	-0.572357
H182	H	1.514719	-0.968043	-0.322357
H183	H	1.764719	-0.718043	-0.072357
H184	H	2.014719	-0.468043	0.177643
H185	H	1.237542	-1.020440	-0.334819
H186	H	1.487542	-0.770440	-0.084819
H187	H	1.737542	-0.520440	0.165181
H188	H	1.987542	-0.270440	0.415181
H189	H	1.237537	-1.202534	-0.334470
H190	H	1.487537	-0.952534	-0.084470
H191	H	1.737537	-0.702534	0.165530
H192	H	1.987537	-0.452534	0.415530
H193	H	1.313002	-1.214003	-0.418373
H194	H	1.563002	-0.964003	-0.168373
H195	H	1.813002	-0.714003	0.081627
H196	H	2.063002	-0.464003	0.331627
H197	H	1.250884	-0.532992	-0.950584
H198	H	1.500884	-0.282992	-0.700584
H199	H	1.750884	-0.032992	-0.450584
H200	H	2.000884	0.217008	-0.200584
H201	H	1.112263	-0.700213	-0.973325
H202	H	1.362263	-0.450213	-0.723325
H203	H	1.612263	-0.200213	-0.473325
H204	H	1.862263	0.049787	-0.223325
H205	H	1.313544	-1.031362	-0.418725
H206	H	1.563544	-0.781362	-0.168725
H207	H	1.813544	-0.531362	0.081275
H208	H	2.063544	-0.281362	0.331275
H209	H	1.154220	-1.213686	-0.597474
H210	H	1.404220	-0.963686	-0.347474
H211	H	1.654220	-0.713686	-0.097474
H212	H	1.904220	-0.463686	0.152526
H213	H	1.153089	-1.032196	-0.597390
H214	H	1.403089	-0.782196	-0.347390
H215	H	1.653089	-0.532196	-0.097390
H216	H	1.903089	-0.282196	0.152610
H217	H	1.263450	-1.036101	-0.572953
H218	H	1.513450	-0.786101	-0.322953
H219	H	1.763450	-0.536101	-0.072953
H220	H	2.013450	-0.286101	0.177047
Cl221	Cl	1.066265	-1.209674	-0.336013
Cl222	Cl	1.316265	-0.959674	-0.086013
Cl223	Cl	1.566265	-0.709674	0.163987
Cl224	Cl	1.816265	-0.459674	0.413987
H225	H	1.080589	-1.013145	-0.367309
H226	H	1.330589	-0.763145	-0.117309
H227	H	1.580589	-0.513145	0.132691
H228	H	1.830589	-0.263145	0.382691
H229	H	1.042724	-1.015952	-0.473664
H230	H	1.292724	-0.765952	-0.223664
H231	H	1.542724	-0.515952	0.026336
H232	H	1.792724	-0.265952	0.276336
H233	H	1.044603	-1.198656	-0.479179
H234	H	1.294603	-0.948656	-0.229179
H235	H	1.544603	-0.698656	0.020821
H236	H	1.794603	-0.448656	0.270821
