data_functionalizedCrystal
_audit_creation_method	'MofGen! by Chris Wilmer'
_symmetry_space_group_name_H-M	'P1'
_symmetry_Int_Tables_number	1
_symmetry_cell_setting	triclinic
loop_
_symmetry_equiv_pos_as_xyz
  x,y,z
_cell_length_a	18.050591
_cell_length_b	18.050589
_cell_length_c	21.395364
_cell_angle_alpha	89.998272
_cell_angle_beta	90.023013
_cell_angle_gamma	90.024227
loop_
_atom_site_label
_atom_site_type_symbol
_atom_site_fract_x
_atom_site_fract_y
_atom_site_fract_z
Zn1	Zn	1.135308	-0.295932	0.354386
Zn2	Zn	1.135214	-0.420072	0.249619
Zn3	Zn	1.011122	-0.295892	0.249612
Zn4	Zn	1.011075	-0.420076	0.354348
O5	O	1.073180	-0.357993	0.301991
O6	O	1.239220	-0.312415	0.340507
O7	O	1.118734	-0.403581	0.161940
O8	O	1.027655	-0.191972	0.263523
O9	O	1.239151	-0.403620	0.263535
O10	O	1.118893	-0.192002	0.340500
O11	O	1.027564	-0.312346	0.161935
O12	O	0.907192	-0.312350	0.263486
O13	O	1.027574	-0.403626	0.442031
O14	O	0.907157	-0.403587	0.340436
O15	O	1.118847	-0.312418	0.442059
O16	O	1.118688	-0.523997	0.263498
O17	O	1.027483	-0.524000	0.340443
C18	C	0.880228	-0.357965	0.301957
C19	C	0.797682	-0.357971	0.301957
C20	C	0.598229	-0.308299	0.260208
C21	C	0.548808	-0.376028	0.244793
C22	C	0.646552	-0.357994	0.301985
C23	C	0.548890	-0.290288	0.317398
C24	C	0.500566	-0.358010	0.302011
C25	C	0.598218	-0.425759	0.286540
C26	C	0.598305	-0.339973	0.359172
C27	C	0.548907	-0.407749	0.343779
C28	C	0.730650	-0.357984	0.301968
C29	C	0.416470	-0.358027	0.302028
C30	C	1.073090	-0.550945	0.301981
C31	C	1.073120	-0.633491	0.301997
C32	C	1.023572	-0.832970	0.343825
C33	C	1.005471	-0.882379	0.286650
C34	C	1.073193	-0.784621	0.302005
C35	C	1.091329	-0.882294	0.359187
C36	C	1.073262	-0.930606	0.302018
C37	C	1.055057	-0.832943	0.244800
C38	C	1.140947	-0.832853	0.317376
C39	C	1.122872	-0.882240	0.260162
C40	C	1.073151	-0.700523	0.301999
C41	C	1.073304	-1.014703	0.302019
C42	C	1.266885	-0.358021	0.302026
C43	C	1.349431	-0.358033	0.302041
C44	C	1.073216	-0.358027	0.465414
C45	C	1.073231	-0.358042	0.535056
C46	C	1.073290	-0.164287	0.302015
C47	C	1.073337	-0.081741	0.302026
C48	C	1.120750	-0.310558	0.567784
C49	C	1.120739	-0.310546	0.633220
C50	C	1.073217	-0.358031	0.665924
C51	C	1.025689	-0.405518	0.633187
C52	C	1.025696	-0.405524	0.567753
C53	C	1.067305	-0.424931	0.769595
C54	C	1.067303	-0.424927	0.835027
C55	C	1.073190	-0.358014	0.867745
C56	C	1.079094	-0.291103	0.835021
C57	C	1.079101	-0.291108	0.769587
C58	C	1.073203	-0.358030	0.736876
C59	C	1.120699	-0.310512	0.971426
C60	C	1.120683	-0.310499	1.036863
C61	C	1.025636	-0.405478	1.036829
C62	C	1.025649	-0.405485	0.971394
C63	C	1.073184	-0.358003	0.938696
C64	C	1.073147	-0.357981	1.139204
C65	C	1.073159	-0.357984	1.069562
H66	H	0.527068	-0.391283	0.196443
H67	H	0.948206	-0.904150	0.273662
H68	H	1.159456	-0.271893	0.541166
H69	H	0.620062	-0.324698	0.407507
F70	F	1.177761	-0.910340	0.213893
F71	F	0.975053	-0.456011	1.071631
H72	H	1.039678	-0.811356	0.196435
H73	H	1.062313	-0.479406	0.742962
H74	H	1.159401	-0.271846	0.944802
H75	H	0.986958	-0.444156	0.944746
F76	F	0.520563	-0.215440	0.334422
F77	F	1.061026	-0.496139	0.869848
H78	H	0.986997	-0.444190	0.541106
H79	H	0.981547	-0.811335	0.379140
F80	F	1.171270	-0.259965	1.071695
H81	H	1.159433	-0.271874	0.659873
H82	H	1.106642	-0.903971	0.407539
F83	F	0.520776	-0.462749	0.389972
F84	F	1.085362	-0.219883	0.869836
H85	H	1.083907	-0.236627	0.742946
H86	H	1.198198	-0.811085	0.330391
F87	F	0.975110	-0.456053	0.667994
H88	H	0.619885	-0.266318	0.224840
H89	H	0.619796	-0.483041	0.273461
