data_functionalizedCrystal
_audit_creation_method	'MofGen! by Chris Wilmer'
_symmetry_space_group_name_H-M	'P1'
_symmetry_Int_Tables_number	1
_symmetry_cell_setting	triclinic
loop_
_symmetry_equiv_pos_as_xyz
  x,y,z
_cell_length_a	12.759401
_cell_length_b	16.959453
_cell_length_c	12.759393
_cell_angle_alpha	89.964958
_cell_angle_beta	89.981433
_cell_angle_gamma	90.019032
loop_
_atom_site_label
_atom_site_type_symbol
_atom_site_fract_x
_atom_site_fract_y
_atom_site_fract_z
Zn1	Zn	1.606217	-0.314655	-0.593958
Zn2	Zn	1.606095	-0.446857	-0.418267
Zn3	Zn	1.430519	-0.314694	-0.418297
Zn4	Zn	1.430491	-0.446793	-0.593909
O5	O	1.518330	-0.380750	-0.506108
O6	O	1.753222	-0.332202	-0.570660
O7	O	1.582765	-0.429368	-0.271250
O8	O	1.453888	-0.204078	-0.441632
O9	O	1.753132	-0.429330	-0.441581
O10	O	1.582973	-0.204049	-0.570689
O11	O	1.453770	-0.332268	-0.271272
O12	O	1.283494	-0.332207	-0.441584
O13	O	1.453841	-0.429222	-0.740936
O14	O	1.283474	-0.429260	-0.570605
O15	O	1.582946	-0.332141	-0.740973
O16	O	1.582738	-0.557459	-0.441534
O17	O	1.453723	-0.557413	-0.570576
C18	C	1.245363	-0.380731	-0.506093
C19	C	1.128586	-0.380742	-0.506112
C20	C	1.073764	-0.330263	-0.573427
C21	C	0.964040	-0.330278	-0.573434
C22	C	0.963970	-0.431258	-0.438807
C23	C	1.073692	-0.431239	-0.438795
C24	C	1.073803	-0.271965	-0.651157
C25	C	0.964079	-0.271981	-0.651163
C26	C	1.518243	-0.586116	-0.506069
C27	C	1.518301	-0.673973	-0.506088
C28	C	1.585631	-1.045375	-0.573435
C29	C	1.451323	-1.045521	-0.438937
C30	C	1.451284	-0.962976	-0.438913
C31	C	1.518419	-0.921626	-0.506152
C32	C	1.585592	-0.962821	-0.573415
C33	C	1.384105	-0.921774	-0.371658
C34	C	1.384063	-0.839223	-0.371632
C35	C	1.451203	-0.797871	-0.438867
C36	C	1.518379	-0.839072	-0.506132
C37	C	1.585514	-0.797722	-0.573371
C38	C	1.652696	-0.838921	-0.640631
C39	C	1.652732	-0.921470	-0.640649
C40	C	1.451167	-0.715323	-0.438849
C41	C	1.585474	-0.715168	-0.573351
C42	C	1.792364	-0.380769	-0.506123
C43	C	1.909140	-0.380777	-0.506130
C44	C	1.518404	-0.380670	-0.780141
C45	C	1.518435	-0.380636	-0.896918
C46	C	1.518447	-0.174582	-0.506169
C47	C	1.518497	-0.086725	-0.506196
C48	C	1.585669	-0.330081	-0.951801
C49	C	1.585694	-0.330052	-1.061525
C50	C	1.451248	-0.431141	-1.061474
C51	C	1.451219	-0.431165	-0.951752
C52	C	1.663294	-0.271721	-0.951831
C53	C	1.663319	-0.271692	-1.061555
C54	C	1.518318	-0.380772	-0.233140
C55	C	1.518490	-0.380583	-0.116364
H56	H	1.107866	-0.293958	-0.728393
N57	N	1.725186	-0.965904	-0.713190
H58	H	1.715018	-1.024473	-0.703002
H59	H	1.708786	-0.951438	-0.788206
H60	H	0.930045	-0.213803	-0.622169
N61	N	0.924663	-0.293798	-0.758894
H62	H	0.986215	-0.303529	-0.806962
H63	H	0.880645	-0.343170	-0.754023
N64	N	1.765667	-0.300840	-0.906851
H65	H	1.798146	-0.258125	-0.862302
H66	H	1.752319	-0.349083	-0.862355
H67	H	1.329445	-0.955447	-0.316919
H68	H	1.707353	-0.805244	-0.695383
H69	H	1.329360	-0.805683	-0.316865
N70	N	1.657890	-0.670571	-0.645869
H71	H	1.700451	-0.709198	-0.688477
H72	H	1.615081	-0.636317	-0.694448
H73	H	1.640332	-1.078923	-0.628194
H74	H	1.396662	-1.079194	-0.384198
N75	N	0.904759	-0.485727	-0.366216
H76	H	0.956142	-0.517703	-0.323571
H77	H	0.859221	-0.453516	-0.317676
N78	N	1.113256	-0.190847	-0.622483
H79	H	1.051720	-0.154661	-0.609687
H80	H	1.157231	-0.194361	-0.556847
H81	H	1.396463	-0.681782	-0.384091
H82	H	1.396466	-0.472329	-0.907071
N83	N	1.378739	-0.485627	-1.120616
H84	H	1.388952	-0.477937	-1.198453
H85	H	1.395039	-0.542089	-1.101425
N86	N	1.634482	-0.190638	-0.912409
H87	H	1.621637	-0.154438	-0.973958
H88	H	1.568847	-0.194213	-0.868396
N89	N	1.624775	-0.194646	-1.106661
H90	H	1.671627	-0.150299	-1.082257
H91	H	1.626191	-0.197507	-1.185709
N92	N	1.771094	-0.293410	-1.101011
H93	H	1.819169	-0.303128	-1.039477
H94	H	1.766315	-0.342769	-1.144998
H95	H	1.118325	-0.472336	-0.383971
