data_functionalizedCrystal
_audit_creation_method	'MofGen! by Chris Wilmer'
_symmetry_space_group_name_H-M	'P1'
_symmetry_Int_Tables_number	1
_symmetry_cell_setting	triclinic
loop_
_symmetry_equiv_pos_as_xyz
  x,y,z
_cell_length_a	14.971482
_cell_length_b	10.654550
_cell_length_c	14.048226
_cell_angle_alpha	89.994756
_cell_angle_beta	89.994098
_cell_angle_gamma	84.048756
loop_
_atom_site_label
_atom_site_type_symbol
_atom_site_fract_x
_atom_site_fract_y
_atom_site_fract_z
O1	O	1.187840	0.163637	-0.079146
O2	O	0.927546	0.183240	-0.079150
O3	O	1.063677	-0.009365	-0.079144
O4	O	1.051708	0.356242	-0.079152
O5	O	1.063661	-0.009377	0.079177
O6	O	0.927529	0.183229	0.079171
O7	O	1.187823	0.163625	0.079176
Zn8	Zn	1.057673	0.173425	0.104310
Zn9	Zn	1.057695	0.173440	-0.104285
O10	O	1.051691	0.356231	0.079170
C11	C	0.894208	0.182359	0.000010
C12	C	0.794896	0.179734	0.000008
C13	C	0.748236	0.178491	0.086310
C14	C	0.654924	0.176005	0.086311
C15	C	0.608273	0.174770	0.000009
C16	C	0.654940	0.176009	-0.086299
C17	C	0.748251	0.178486	-0.086299
C18	C	0.460450	0.170849	-0.086293
C19	C	0.367133	0.168374	-0.086293
C20	C	0.367123	0.168368	0.086318
C21	C	0.460434	0.170845	0.086318
C22	C	0.507094	0.172086	0.000009
C23	C	1.062790	-0.056159	0.000015
C24	C	1.060161	-0.195574	0.000012
C25	C	1.140313	-0.275921	0.000016
C26	C	1.137837	-0.406916	0.000009
C27	C	0.975050	-0.377203	-0.000002
C28	C	0.977526	-0.246211	-0.000002
C29	C	1.222947	-0.225285	0.000030
C30	C	1.303106	-0.305633	0.000035
C31	C	1.300630	-0.436627	0.000028
C32	C	1.217995	-0.487273	0.000016
C33	C	1.221161	0.164507	0.000013
C34	C	1.320472	0.167132	0.000009
C35	C	1.052578	0.403025	0.000008
C36	C	1.055208	0.542440	0.000005
N37	N	1.057665	0.173414	0.246671
N38	N	1.057711	0.173441	-0.246646
C39	C	1.117963	0.088164	0.296492
C40	C	1.117969	0.088163	0.396149
C41	C	1.057681	0.173420	0.445984
C42	C	0.997376	0.258674	0.396157
C43	C	0.997366	0.258668	0.296501
C44	C	0.997402	0.258683	0.603871
C45	C	0.997412	0.258692	0.703534
C46	C	1.118005	0.088179	0.703519
C47	C	1.117995	0.088172	0.603863
C48	C	1.057691	0.173429	0.554043
H49	H	0.616939	0.174973	0.156587
H50	H	0.786241	0.179500	-0.156575
H51	H	0.948318	0.328115	0.744105
N52	N	0.891078	-0.159545	0.000028
H53	H	0.905188	-0.068879	0.000035
H54	H	0.855093	-0.175930	-0.058657
N55	N	1.182995	-0.003785	0.242744
H56	H	1.221193	-0.057792	0.289431
H57	H	1.148408	-0.059387	0.201409
H58	H	1.167068	0.018745	0.436713
H59	H	0.329127	0.167358	0.156594
H60	H	0.616951	0.174995	-0.156568
H61	H	1.224972	-0.118624	0.000038
N62	N	0.932326	0.350609	0.242761
H63	H	0.894134	0.404621	0.289451
H64	H	0.966901	0.406207	0.201395
H65	H	0.948293	0.328104	0.563310
N66	N	0.510752	0.172196	0.179397
H67	H	0.467035	0.171033	0.234074
H68	H	0.556242	0.095434	0.183160
N69	N	1.392229	-0.251017	0.000047
H70	H	1.381638	-0.155842	0.000055
H71	H	1.427325	-0.280417	0.058742
N72	N	0.932354	0.350628	0.449912
H73	H	0.943201	0.439783	0.432554
H74	H	0.868810	0.335908	0.432568
H75	H	0.786211	0.179507	0.156588
H76	H	0.329152	0.167369	-0.156568
H77	H	1.365899	-0.502044	0.000023
N78	N	1.215321	-0.628559	-0.000004
H79	H	1.278637	-0.671778	-0.000005
H80	H	1.182722	-0.654187	0.058685
H81	H	0.498439	0.171860	-0.156575
N82	N	0.885927	-0.431822	-0.000012
H83	H	0.896521	-0.526997	-0.000009
H84	H	0.850811	-0.402443	0.058679
H85	H	1.167106	0.018760	0.744089
N86	N	1.183025	-0.003772	0.550109
H87	H	1.221227	-0.057782	0.596790
H88	H	1.148435	-0.059371	0.508774
