data_functionalizedCrystal
_audit_creation_method	'MofGen! by Chris Wilmer'
_symmetry_space_group_name_H-M	'P1'
_symmetry_Int_Tables_number	1
_symmetry_cell_setting	triclinic
loop_
_symmetry_equiv_pos_as_xyz
  x,y,z
_cell_length_a	11.792241
_cell_length_b	12.837943
_cell_length_c	11.892095
_cell_angle_alpha	94.310562
_cell_angle_beta	93.915739
_cell_angle_gamma	90.488822
loop_
_atom_site_label
_atom_site_type_symbol
_atom_site_fract_x
_atom_site_fract_y
_atom_site_fract_z
O1	O	0.288690	-1.383703	-0.093984
O2	O	0.274106	-1.081816	-0.093991
O3	O	0.116971	-1.240085	-0.093980
O4	O	0.445825	-1.225434	-0.093996
O5	O	0.130050	-1.226889	0.094027
O6	O	0.287185	-1.068620	0.094016
O7	O	0.301770	-1.370507	0.094022
Zn8	Zn	0.296554	-1.217468	0.123869
Zn9	Zn	0.279322	-1.234855	-0.123838
O10	O	0.458904	-1.212238	0.094011
C11	C	0.081126	-1.232566	0.000023
C12	C	-0.045167	-1.229812	0.000022
C13	C	0.275719	-1.036570	0.000012
C14	C	0.261025	-0.921410	0.000009
C15	C	0.300157	-1.415753	0.000017
C16	C	0.314850	-1.530913	0.000012
C17	C	-0.276394	-1.224748	0.000003
C18	C	-0.147723	-1.227561	0.000014
C19	C	0.494749	-1.219756	0.000005
C20	C	0.621042	-1.222512	-0.000001
N21	N	0.308315	-1.205610	0.292922
C22	C	0.437671	-0.681444	0.000017
C23	C	0.423870	-0.573241	0.000015
C24	C	0.219624	-0.596797	0.000013
C25	C	0.233425	-0.705001	0.000015
C26	C	0.342452	-0.747320	0.000015
C27	C	0.356251	-0.855526	0.000008
C28	C	0.152006	-0.879080	0.000014
C29	C	0.138205	-0.770877	0.000013
N30	N	0.267553	-1.246721	-0.292891
C31	C	0.185651	-1.329237	0.529579
C32	C	0.193880	-1.320956	0.647920
C33	C	0.332997	-1.180761	0.647948
C34	C	0.324768	-1.189043	0.529607
C35	C	0.251093	-1.263284	0.470427
C36	C	0.242870	-1.271570	0.352083
C37	C	0.381980	-1.131371	0.352113
C38	C	0.390210	-1.123090	0.470454
H39	H	0.445026	-0.889980	0.000010
C40	C	0.018281	-0.724313	0.000011
N41	N	-0.072048	-0.689242	0.000005
H42	H	0.125670	-1.389694	0.481393
C43	C	0.557600	-0.727998	0.000009
N44	N	0.647932	-0.763061	0.000005
C45	C	0.047257	-0.951553	0.000009
N46	N	-0.031637	-1.006141	0.000001
C47	C	0.414004	-1.099077	0.713067
N48	N	0.475010	-1.037546	0.762116
H49	H	0.450192	-1.062641	0.518653
H50	H	0.182884	-1.332023	0.303899
H51	H	0.435272	-1.077670	0.303938
H52	H	0.501409	-0.519607	0.000020
C53	C	0.099704	-0.550226	0.000026
N54	N	0.009379	-0.515147	0.000036
H55	H	0.140589	-1.374660	0.696079
