data_functionalizedCrystal
_audit_creation_method	'MofGen! by Chris Wilmer'
_symmetry_space_group_name_H-M	'P1'
_symmetry_Int_Tables_number	1
_symmetry_cell_setting	triclinic
loop_
_symmetry_equiv_pos_as_xyz
  x,y,z
_cell_length_a	18.050590
_cell_length_b	25.639239
_cell_length_c	18.050582
_cell_angle_alpha	90.024638
_cell_angle_beta	89.999233
_cell_angle_gamma	90.027853
loop_
_atom_site_label
_atom_site_type_symbol
_atom_site_fract_x
_atom_site_fract_y
_atom_site_fract_z
Zn1	Zn	1.135238	-0.208335	0.419591
Zn2	Zn	1.635238	0.291665	0.919591
Zn3	Zn	1.135126	-0.295763	0.295396
Zn4	Zn	1.635126	0.204237	0.795396
Zn5	Zn	1.011058	-0.208327	0.295449
Zn6	Zn	1.511058	0.291673	0.795449
Zn7	Zn	1.010983	-0.295725	0.419579
Zn8	Zn	1.510983	0.204275	0.919579
O9	O	1.073101	-0.252037	0.357504
O10	O	1.573101	0.247963	0.857504
O11	O	1.239148	-0.219952	0.403099
O12	O	1.739148	0.280048	0.903099
O13	O	1.118653	-0.284177	0.191479
O14	O	1.618653	0.215823	0.691479
O15	O	1.027609	-0.135163	0.311944
O16	O	1.527609	0.364837	0.811944
O17	O	1.239066	-0.284185	0.311854
O18	O	1.739066	0.215815	0.811854
O19	O	1.118844	-0.135169	0.403150
O20	O	1.618844	0.364831	0.903150
O21	O	1.027500	-0.219938	0.191517
O22	O	1.527500	0.280062	0.691517
O23	O	0.907123	-0.219901	0.311932
O24	O	1.407123	0.280099	0.811932
O25	O	1.027481	-0.284120	0.523505
O26	O	1.527481	0.215880	1.023505
O27	O	0.907068	-0.284112	0.403130
O28	O	1.407068	0.215888	0.903130
O29	O	1.118771	-0.219915	0.523514
O30	O	1.618771	0.280085	1.023514
O31	O	1.118580	-0.368923	0.311843
O32	O	1.618580	0.131077	0.811843
O33	O	1.027373	-0.368895	0.403079
O34	O	1.527373	0.131105	0.903079
C35	C	0.880149	-0.252002	0.357536
C36	C	1.380149	0.247998	0.857536
C37	C	0.797603	-0.251999	0.357567
C38	C	1.297603	0.248001	0.857567
C39	C	0.598144	-0.287017	0.407043
C40	C	1.098144	0.212983	0.907043
C41	C	0.548764	-0.239344	0.425320
C42	C	1.048764	0.260656	0.925320
C43	C	0.646473	-0.252028	0.357531
C44	C	1.146473	0.247972	0.857531
C45	C	0.548772	-0.299728	0.339253
C46	C	1.048772	0.200272	0.839253
C47	C	0.500488	-0.252061	0.357497
C48	C	1.000488	0.247939	0.857497
C49	C	0.598180	-0.204330	0.375844
C50	C	1.098180	0.295670	0.875844
C51	C	0.598192	-0.264747	0.289745
C52	C	1.098192	0.235253	0.789745
C53	C	0.548834	-0.217041	0.307997
C54	C	1.048834	0.282959	0.807997
C55	C	0.730571	-0.252010	0.357552
C56	C	1.230571	0.247990	0.857552
C57	C	0.416391	-0.252073	0.357476
C58	C	0.916391	0.247927	0.857476
C59	C	1.072976	-0.387880	0.357470
C60	C	1.572976	0.112120	0.857470
C61	C	1.072991	-0.445994	0.357480
C62	C	1.572991	0.054006	0.857480
C63	C	1.120717	-0.806359	0.310078
C64	C	1.620717	-0.306359	0.810078
C65	C	1.120746	-0.860963	0.310088
C66	C	1.620746	-0.360963	0.810088
O67	O	1.161195	-0.889202	0.269748
O68	O	1.661195	-0.389202	0.769748
N69	N	1.073232	-0.888277	0.357553
N70	N	1.573232	-0.388277	0.857553
C71	C	1.025691	-0.860982	0.405017
C72	C	1.525691	-0.360982	0.905017
O73	O	0.985280	-0.889228	0.445391
O74	O	1.485280	-0.389228	0.945391
C75	C	1.025667	-0.806379	0.405010
C76	C	1.525667	-0.306379	0.905010
C77	C	1.073179	-0.779069	0.357536
C78	C	1.573179	-0.279069	0.857536
C79	C	1.168226	-0.779049	0.262609
C80	C	1.668226	-0.279049	0.762609
C81	C	1.168196	-0.724448	0.262598
C82	C	1.668196	-0.224448	0.762598
C83	C	1.120657	-0.697158	0.310057
C84	C	1.620657	-0.197158	0.810057
C85	C	1.073149	-0.724468	0.357526
C86	C	1.573149	-0.224468	0.857526
C87	C	0.978131	-0.779086	0.452477
C88	C	1.478131	-0.279086	0.952477
C89	C	0.978111	-0.724479	0.452466
C90	C	1.478111	-0.224479	0.952466
C91	C	1.025622	-0.697169	0.404993
C92	C	1.525622	-0.197169	0.904993
C93	C	1.025580	-0.642578	0.404973
C94	C	1.525580	-0.142578	0.904973
N95	N	1.073094	-0.615265	0.357508
N96	N	1.573094	-0.115265	0.857508
C97	C	1.120633	-0.642555	0.310050
C98	C	1.620633	-0.142555	0.810050
C99	C	1.025747	-0.975653	0.405028
C100	C	1.525747	-0.475653	0.905028
C101	C	1.025767	-1.030255	0.405032
C102	C	1.525767	-0.530255	0.905032
C103	C	1.120823	-1.030233	0.310104
C104	C	1.620823	-0.530233	0.810104
C105	C	1.120799	-0.975629	0.310097
C106	C	1.620799	-0.475629	0.810097
C107	C	1.073261	-0.948340	0.357563
C108	C	1.573261	-0.448340	0.857563
C109	C	1.120566	-0.527890	0.310030
C110	C	1.620566	-0.027890	0.810030
C111	C	1.120529	-0.473284	0.310022
C112	C	1.620529	0.026716	0.810022
C113	C	1.025477	-0.473312	0.404952
C114	C	1.525477	0.026688	0.904952
C115	C	1.025510	-0.527913	0.404958
C116	C	1.525510	-0.027913	0.904958
C117	C	1.073061	-0.555200	0.357495
C118	C	1.573061	-0.055200	0.857495
O119	O	0.985154	-0.614305	0.445295
O120	O	1.485154	-0.114305	0.945295
O121	O	1.161044	-0.614302	0.269689
O122	O	1.661044	-0.114302	0.769689
C123	C	1.266807	-0.252074	0.357472
C124	C	1.766807	0.247926	0.857472
C125	C	1.349353	-0.252089	0.357459
C126	C	1.849353	0.247911	0.857459
C127	C	1.073130	-0.252014	0.551210
C128	C	1.573130	0.247986	1.051210
C129	C	1.073143	-0.252004	0.633755
C130	C	1.573143	0.247996	1.133755
C131	C	1.073247	-0.115664	0.357554
C132	C	1.573247	0.384336	0.857554
C133	C	1.073309	-0.057550	0.357576
C134	C	1.573309	0.442450	0.857576
C135	C	1.073115	-0.252023	0.164552
C136	C	1.573115	0.247977	0.664552
C137	C	1.073247	-0.251885	0.082006
C138	C	1.573247	0.248115	0.582006
C139	C	1.023537	-0.286871	0.833201
C140	C	1.523537	0.213129	1.333201
C141	C	1.091289	-0.299661	0.882573
C142	C	1.591289	0.200339	1.382573
C143	C	1.073179	-0.251965	0.784886
C144	C	1.573179	0.248035	1.284886
C145	C	1.005465	-0.239161	0.882595
C146	C	1.505465	0.260839	1.382595
C147	C	1.073209	-0.251927	0.930871
C148	C	1.573209	0.248073	1.430871
C149	C	1.140967	-0.264779	0.833171
C150	C	1.640967	0.235221	1.333171
C151	C	1.055097	-0.204257	0.833188
C152	C	1.555097	0.295743	1.333188
C153	C	1.122895	-0.217028	0.882538
C154	C	1.622895	0.282972	1.382538
C155	C	1.073162	-0.251988	0.700787
C156	C	1.573162	0.248012	1.200787
C157	C	1.073234	-0.251904	1.014968
C158	C	1.573234	0.248096	1.514968
H159	H	0.527052	-0.228597	0.482631
H160	H	1.027052	0.271403	0.982631
H161	H	0.619791	-0.163992	0.391354
H162	H	1.119791	0.336008	0.891354
H163	H	0.939438	-0.801313	0.491131
H164	H	1.439438	-0.301313	0.991131
H165	H	1.039765	-0.163939	0.811479
H166	H	1.539765	0.336061	1.311479
O167	O	1.172943	-0.181729	0.908252
O168	O	1.672943	0.318271	1.408252
C169	C	1.136155	-0.143825	0.951256
C170	C	1.636155	0.356175	1.451256
H171	H	1.075285	-0.142252	0.934575
H172	H	1.575285	0.357748	1.434575
H173	H	1.162756	-0.104072	0.941572
H174	H	1.662756	0.395928	1.441572
H175	H	1.140677	-0.154499	1.012393
H176	H	1.640677	0.345501	1.512393
H177	H	1.159487	-0.953396	0.271440
H178	H	1.659487	-0.453396	0.771440
O179	O	0.937192	-0.226193	0.908583
O180	O	1.437192	0.273807	1.408583
C181	C	0.942358	-0.180384	0.951519
C182	C	1.442358	0.319616	1.451519
H183	H	1.001459	-0.175758	0.972801
H184	H	1.501459	0.324242	1.472801
H185	H	0.902660	-0.183120	1.000486
H186	H	1.402660	0.316880	1.500486
H187	H	0.927132	-0.145235	0.915992
H188	H	1.427132	0.354765	1.415992
O189	O	1.214390	-0.697864	0.216591
O190	O	1.714390	-0.197864	0.716591
C191	C	1.262328	-0.666247	0.258901
C192	C	1.762328	-0.166247	0.758901
H193	H	1.236091	-0.658056	0.315160
H194	H	1.736091	-0.158056	0.815160
H195	H	1.272291	-0.627858	0.228648
H196	H	1.772291	-0.127858	0.728648
H197	H	1.317364	-0.687260	0.267106
H198	H	1.817364	-0.187260	0.767106
H199	H	1.159288	-0.550101	0.271383
H200	H	1.659288	-0.050101	0.771383
O201	O	0.523032	-0.181758	0.258040
O202	O	1.023032	0.318242	0.758040
C203	C	0.444928	-0.182452	0.258159
C204	C	0.944928	0.317548	0.758159
H205	H	0.424586	-0.221598	0.280139
H206	H	0.924586	0.278402	0.780139
H207	H	0.423681	-0.176557	0.199282
H208	H	0.923681	0.323443	0.699282
H209	H	0.423360	-0.149763	0.295151
H210	H	0.923360	0.350237	0.795151
O211	O	1.214430	-0.805473	0.216432
O212	O	1.714430	-0.305473	0.716432
C213	C	1.256364	-0.769648	0.174554
C214	C	1.756364	-0.269648	0.674554
H215	H	1.225923	-0.730745	0.171972
H216	H	1.725923	-0.230745	0.671972
H217	H	1.264329	-0.785433	0.116043
H218	H	1.764329	-0.285433	0.616043
H219	H	1.312748	-0.763798	0.201782
H220	H	1.812748	-0.263798	0.701782
O221	O	1.167034	-1.056829	0.264125
O222	O	1.667034	-0.556829	0.764125
C223	C	1.156878	-1.110878	0.274332
C224	C	1.656878	-0.610878	0.774332
H225	H	1.132449	-1.118310	0.331604
H226	H	1.632449	-0.618310	0.831604
H227	H	1.212539	-1.131584	0.269427
H228	H	1.712539	-0.631584	0.769427
H229	H	1.117435	-1.126445	0.230219
H230	H	1.617435	-0.626445	0.730219
H231	H	0.527066	-0.340054	0.323809
H232	H	1.027066	0.159946	0.823809
H233	H	1.159219	-0.451050	0.271361
H234	H	1.659219	0.048950	0.771361
O235	O	0.623949	-0.322196	0.457146
O236	O	1.123949	0.177804	0.957146
C237	C	0.598747	-0.308611	0.528522
C238	C	1.098747	0.191389	1.028522
H239	H	0.584901	-0.265247	0.530030
H240	H	1.084901	0.234753	1.030030
H241	H	0.643906	-0.317361	0.570876
H242	H	1.143906	0.182639	1.070876
H243	H	0.547056	-0.332239	0.542377
H244	H	1.047056	0.167761	1.042377
H245	H	0.987072	-1.052487	0.443682
H246	H	1.487072	-0.552487	0.943682
O247	O	0.979595	-0.949203	0.451236
O248	O	1.479595	-0.449203	0.951236
C249	C	0.995793	-0.962503	0.525266
C250	C	1.495793	-0.462503	1.025266
H251	H	1.024365	-1.002130	0.526825
H252	H	1.524365	-0.502130	1.026825
H253	H	0.942173	-0.964396	0.558529
H254	H	1.442173	-0.464396	1.058529
H255	H	1.033938	-0.931739	0.550306
H256	H	1.533938	-0.431739	1.050306
O257	O	0.624084	-0.277672	0.221415
O258	O	1.124084	0.222328	0.721415
C259	C	0.597802	-0.327593	0.201780
C260	C	1.097802	0.172407	0.701780
H261	H	0.583115	-0.350274	0.254068
H262	H	1.083115	0.149726	0.754068
H263	H	0.642632	-0.349396	0.169851
H264	H	1.142632	0.150604	0.669851
H265	H	0.546409	-0.323478	0.165544
H266	H	1.046409	0.176522	0.665544
O267	O	0.931863	-0.698052	0.498602
O268	O	1.431863	-0.198052	0.998602
C269	C	0.889954	-0.733870	0.540515
C270	C	1.389954	-0.233870	1.040515
H271	H	0.887420	-0.772805	0.510098
H272	H	1.387420	-0.272805	1.010098
H273	H	0.831428	-0.718127	0.548407
H274	H	1.331428	-0.218127	1.048407
H275	H	0.917124	-0.739642	0.596933
H276	H	1.417124	-0.239642	1.096933
O277	O	0.979332	-0.554364	0.451140
O278	O	1.479332	-0.054364	0.951140
C279	C	0.937352	-0.518565	0.493010
C280	C	1.437352	-0.018565	0.993010
H281	H	0.967745	-0.479621	0.495585
H282	H	1.467745	0.020379	0.995585
H283	H	0.929405	-0.534319	0.551524
H284	H	1.429405	-0.034319	1.051524
H285	H	0.880962	-0.512808	0.465779
H286	H	1.380962	-0.012808	0.965779
O287	O	1.109452	-0.347767	0.908549
O288	O	1.609452	0.152233	1.408549
C289	C	1.051089	-0.367113	0.952599
C290	C	1.551089	0.132887	1.452599
H291	H	1.016565	-0.333154	0.974264
H292	H	1.516565	0.166846	1.474264
H293	H	1.074914	-0.389887	1.001307
H294	H	1.574914	0.110113	1.501307
H295	H	1.014595	-0.393939	0.917849
H296	H	1.514595	0.106061	1.417849
O297	O	1.209371	-0.277725	0.807511
O298	O	1.709371	0.222275	1.307511
C299	C	1.257230	-0.286769	0.867880
C300	C	1.757230	0.213231	1.367880
H301	H	1.235326	-0.265581	0.918906
H302	H	1.735326	0.234419	1.418906
H303	H	1.314962	-0.271630	0.853941
H304	H	1.814962	0.228370	1.353941
H305	H	1.260104	-0.330410	0.879607
H306	H	1.760104	0.169590	1.379607
O307	O	0.979410	-0.446771	0.451132
O308	O	1.479410	0.053229	0.951132
C309	C	1.021659	-0.415135	0.499097
C310	C	1.521659	0.084865	0.999097
H311	H	1.080152	-0.431561	0.503719
H312	H	1.580152	0.068439	1.003719
H313	H	0.994769	-0.414501	0.556236
H314	H	1.494769	0.085499	1.056236
H315	H	1.024219	-0.373762	0.476122
H316	H	1.524219	0.126238	0.976122
H317	H	0.981596	-0.316429	0.811539
H318	H	1.481596	0.183571	1.311539
