data_functionalizedCrystal
_audit_creation_method	'MofGen! by Chris Wilmer'
_symmetry_space_group_name_H-M	'P1'
_symmetry_Int_Tables_number	1
_symmetry_cell_setting	triclinic
loop_
_symmetry_equiv_pos_as_xyz
  x,y,z
_cell_length_a	14.519731
_cell_length_b	19.288874
_cell_length_c	18.366186
_cell_angle_alpha	90.002075
_cell_angle_beta	89.992506
_cell_angle_gamma	96.585461
loop_
_atom_site_label
_atom_site_type_symbol
_atom_site_fract_x
_atom_site_fract_y
_atom_site_fract_z
O1	O	-1.223285	0.091116	0.060569
O2	O	-0.954743	0.101823	0.060567
O3	O	-1.096769	-0.004632	0.060562
O4	O	-1.081259	0.197571	0.060574
O5	O	-1.096750	-0.004628	-0.060537
O6	O	-0.954725	0.101827	-0.060533
O7	O	-1.223266	0.091120	-0.060530
Zn8	Zn	-1.088993	0.096474	-0.079759
Zn9	Zn	-1.089017	0.096469	0.079795
O10	O	-1.081241	0.197575	-0.060526
C11	C	-0.920378	0.101323	0.000017
C12	C	-0.818007	0.099820	0.000015
C13	C	-0.734870	0.098599	0.000017
C14	C	-0.630571	0.097072	0.000016
C15	C	-0.547440	0.095861	0.000015
C16	C	-0.443134	0.094335	0.000015
C17	C	-1.096259	-0.030508	0.000013
C18	C	-1.094756	-0.107617	0.000013
C19	C	-1.083958	-0.663223	-0.065981
C20	C	-1.085360	-0.590771	-0.065985
C21	C	-1.086075	-0.554539	0.000026
C22	C	-1.085365	-0.590764	0.066045
C23	C	-1.083953	-0.663214	0.066047
C24	C	-1.142331	-0.445003	0.050598
C25	C	-1.143748	-0.372555	0.050593
C26	C	-1.090423	-0.331077	0.000022
C27	C	-1.035693	-0.362058	-0.050555
C28	C	-1.034282	-0.434508	-0.050553
C29	C	-1.087604	-0.475978	0.000031
C30	C	-1.092647	-0.216298	-0.065997
C31	C	-1.094043	-0.143844	-0.065998
C32	C	-1.094057	-0.143839	0.066033
C33	C	-1.092652	-0.216291	0.066033
C34	C	-1.091951	-0.252517	0.000015
C35	C	-0.257632	0.091620	0.000018
C36	C	-0.360003	0.093123	0.000013
C37	C	-1.081750	0.223451	0.000025
C38	C	-1.083253	0.300560	0.000030
N39	N	-1.088983	0.096477	-0.188650
C40	C	-1.144790	0.138679	-0.773196
C41	C	-1.144780	0.138685	-0.696968
C42	C	-1.089025	0.096462	-0.658861
C43	C	-1.033258	0.054241	-0.696988
C44	C	-1.033263	0.054241	-0.773214
C45	C	-1.086730	0.033829	-0.538098
C46	C	-1.086732	0.033828	-0.461873
C47	C	-1.089007	0.096463	-0.423754
C48	C	-1.091299	0.159101	-0.461868
C49	C	-1.091303	0.159101	-0.538094
C50	C	-1.089014	0.096458	-0.576206
C51	C	-1.144755	0.138692	-0.302981
C52	C	-1.144739	0.138700	-0.226752
C53	C	-1.033223	0.054250	-0.226773
C54	C	-1.033234	0.054248	-0.303000
C55	C	-1.089005	0.096468	-0.341100
N56	N	-1.089034	0.096461	0.188686
H57	H	-1.085917	-0.561276	-0.119740
O58	O	-1.199856	-0.489734	0.105145
H59	H	-1.153663	-0.518309	0.139296
H60	H	-1.083386	-0.692714	-0.119737
H61	H	-0.987821	0.019874	-0.195746
O62	O	-0.975249	-0.467926	-0.105093
H63	H	-0.938398	-0.426918	-0.140258
H64	H	-1.092084	-0.245780	0.119786
H65	H	-1.190182	0.173067	-0.665927
H66	H	-1.190163	0.173073	-0.334004
O67	O	-1.202769	-0.339145	0.105149
H68	H	-1.276543	-0.360255	0.097690
H69	H	-0.992274	-0.328288	-0.091737
O70	O	-1.204873	0.184241	-0.185633
H71	H	-1.243657	0.213593	-0.224936
O72	O	-0.973133	0.008702	-0.814340
H73	H	-1.017511	-0.028544	-0.849065
H74	H	-1.085943	-0.561259	0.119791
H75	H	-1.083378	-0.692701	0.119803
O76	O	-1.084256	-0.033729	-0.420772
H77	H	-1.020326	-0.057050	-0.435412
O78	O	-0.973113	0.008707	-0.344130
H79	H	-1.017493	-0.028536	-0.378856
H80	H	-1.093152	0.210105	-0.430832
O81	O	-1.094799	-0.104781	-0.137202
H82	H	-1.095885	-0.048314	-0.126115
O83	O	-0.973122	0.008702	-0.655887
H84	H	-0.934344	-0.020652	-0.695202
O85	O	-1.091874	-0.255377	-0.137196
H86	H	-1.092583	-0.218016	-0.183100
H87	H	-1.084869	-0.017179	-0.569129
H88	H	-1.094628	-0.114339	0.119781
H89	H	-1.190201	0.173059	-0.804212
O90	O	-1.093770	0.226653	-0.579207
H91	H	-1.095348	0.270211	-0.539900
