data_functionalizedCrystal
_audit_creation_method	'MofGen! by Chris Wilmer'
_symmetry_space_group_name_H-M	'P1'
_symmetry_Int_Tables_number	1
_symmetry_cell_setting	triclinic
loop_
_symmetry_equiv_pos_as_xyz
  x,y,z
_cell_length_a	20.453700
_cell_length_b	10.943624
_cell_length_c	10.943632
_cell_angle_alpha	88.228940
_cell_angle_beta	71.161120
_cell_angle_gamma	108.838799
loop_
_atom_site_label
_atom_site_type_symbol
_atom_site_fract_x
_atom_site_fract_y
_atom_site_fract_z
V1	V	-1.371832	-0.402520	0.178596
O2	O	-1.357735	-0.394890	-0.008617
O3	O	-1.364482	-0.399737	0.354159
O4	O	-1.364486	-0.578087	0.175834
O5	O	-1.357731	-0.215305	0.170943
V6	V	-1.530764	-0.380131	0.156205
O7	O	-1.463835	-0.451632	0.227713
O8	O	-1.588826	-0.331020	0.107088
O9	O	-1.463712	-0.382915	-0.019358
O10	O	-1.583993	-0.387762	0.343418
O11	O	-1.583998	-0.567347	0.163858
O12	O	-1.463708	-0.204564	0.158967
V13	V	-1.038498	-0.402520	0.178596
O14	O	-1.024401	-0.394890	-0.008617
O15	O	-1.031148	-0.399737	0.354159
O16	O	-1.031153	-0.578087	0.175834
O17	O	-1.024397	-0.215305	0.170943
V18	V	-1.197431	-0.380131	0.156205
O19	O	-1.130502	-0.451632	0.227713
O20	O	-1.255493	-0.331020	0.107088
O21	O	-1.130379	-0.382915	-0.019358
O22	O	-1.250660	-0.387762	0.343418
O23	O	-1.250664	-0.567347	0.163858
O24	O	-1.130374	-0.204564	0.158967
V25	V	-0.705165	-0.402520	0.178596
O26	O	-0.691068	-0.394890	-0.008617
O27	O	-0.697815	-0.399737	0.354159
O28	O	-0.697819	-0.578087	0.175834
O29	O	-0.691064	-0.215305	0.170943
V30	V	-0.864098	-0.380131	0.156205
O31	O	-0.797169	-0.451632	0.227713
O32	O	-0.922160	-0.331020	0.107088
O33	O	-0.797045	-0.382915	-0.019358
O34	O	-0.917327	-0.387762	0.343418
O35	O	-0.917331	-0.567347	0.163858
O36	O	-0.797041	-0.204564	0.158967
C37	C	-1.314673	-0.620881	0.169484
C38	C	-1.335819	-0.764408	0.168388
C39	C	-1.284096	-0.841556	0.161001
C40	C	-1.347215	-0.947527	0.270645
C41	C	-1.310388	-0.914178	0.056801
C42	C	-1.398675	-0.868502	0.278134
C43	C	-1.361822	-0.835129	0.064194
C44	C	-1.424987	-0.941070	0.173869
C45	C	-1.314668	-0.393379	0.396958
C46	C	-1.335813	-0.392273	0.540484
C47	C	-1.401307	-0.389269	-0.062151
C48	C	-1.373242	-0.390383	-0.205675
C49	C	-1.401302	-0.161764	0.165321
C50	C	-1.373234	-0.018236	0.166411
C51	C	-0.981334	-0.393379	0.396958
C52	C	-1.002479	-0.392273	0.540484
C53	C	-1.284095	-0.384920	0.617637
C54	C	-1.310373	-0.280695	0.690292
C55	C	-1.347219	-0.494542	0.723567
C56	C	-1.361798	-0.287974	0.611235
C57	C	-1.398650	-0.501916	0.644516
C58	C	-1.424965	-0.397670	0.717134
C59	C	-0.981339	-0.620881	0.169484
C60	C	-1.002486	-0.764408	0.168388
C61	C	-1.067973	-0.389269	-0.062151
C62	C	-1.039909	-0.390383	-0.205675
C63	C	-1.067968	-0.161764	0.165321
C64	C	-1.039901	-0.018236	0.166411
C65	C	-0.648001	-0.393379	0.396958
C66	C	-0.669146	-0.392273	0.540484
C67	C	-0.648006	-0.620881	0.169484
C68	C	-0.669152	-0.764408	0.168388
C69	C	-0.734640	-0.389269	-0.062151
C70	C	-0.706575	-0.390383	-0.205675
C71	C	-0.734635	-0.161764	0.165321
C72	C	-0.706568	-0.018236	0.166411
C73	C	-0.950761	-0.384920	0.617637
C74	C	-0.977040	-0.280695	0.690292
C75	C	-1.013886	-0.494542	0.723567
C76	C	-1.028464	-0.287974	0.611235
C77	C	-1.065317	-0.501916	0.644516
C78	C	-1.091632	-0.397670	0.717134
C79	C	-0.950762	-0.841556	0.161001
C80	C	-1.013882	-0.947527	0.270645
C81	C	-0.977055	-0.914178	0.056801
C82	C	-1.065342	-0.868502	0.278134
C83	C	-1.028488	-0.835129	0.064194
C84	C	-1.091653	-0.941070	0.173869
C85	C	-0.617428	-0.384920	0.617637
C86	C	-0.643707	-0.280695	0.690292
C87	C	-0.680553	-0.494542	0.723567
C88	C	-0.695131	-0.287974	0.611235
C89	C	-0.731983	-0.501916	0.644516
C90	C	-0.758298	-0.397670	0.717134
C91	C	-0.617429	-0.841556	0.161001
C92	C	-0.680549	-0.947527	0.270645
C93	C	-0.643721	-0.914178	0.056801
C94	C	-0.732009	-0.868502	0.278134
C95	C	-0.695155	-0.835129	0.064194
C96	C	-0.758320	-0.941070	0.173869
H97	H	-1.341261	-0.996461	0.357924
C98	C	-0.841655	-1.057412	0.069804
C99	C	-0.839007	-0.999455	0.181238
H100	H	-0.891468	-1.093450	0.074357
H101	H	-0.821422	-1.124717	0.065311
H102	H	-0.813881	-0.993365	-0.005828
H103	H	-0.866777	-1.063504	0.256870
H104	H	-0.859250	-0.932143	0.185744
H105	H	-0.939939	-0.934956	-0.036718
H106	H	-0.701081	-0.786160	-0.023090
H107	H	-1.273272	-0.934956	-0.036718
C108	C	-0.841652	-0.294468	0.835319
C109	C	-0.838961	-0.404901	0.775504
H110	H	-0.891449	-0.298934	0.871361
H111	H	-0.813670	-0.218091	0.772317
H112	H	-0.821673	-0.291500	0.902861
H113	H	-0.858936	-0.407864	0.707955
H114	H	-0.866954	-0.481298	0.838512
C115	C	-1.162264	-0.690022	0.041227
C116	C	-1.203458	-0.782885	0.153849
H117	H	-1.112484	-0.653807	0.036815
H118	H	-1.182335	-0.622620	0.044160
H119	H	-1.164028	-0.730672	-0.033676
H120	H	-1.201699	-0.742233	0.228753
H121	H	-1.183382	-0.850298	0.150926
H122	H	-1.435803	-0.847941	0.371779
H123	H	-0.606604	-0.187152	0.711058
H124	H	-1.341246	-0.581812	0.772480
C125	C	-1.222943	-0.186013	0.794478
C126	C	-1.260287	-0.154430	0.718348
H127	H	-1.192021	-0.108066	0.811800
H128	H	-1.193720	-0.233536	0.748708
H129	H	-1.257765	-0.237838	0.874567
H130	H	-1.225465	-0.102612	0.638253
H131	H	-1.289512	-0.106886	0.764117
C132	C	-0.693180	-0.610764	0.924440
C133	C	-0.672496	-0.612370	0.789579
H134	H	-0.688196	-0.683497	0.965185
H135	H	-0.743066	-0.615469	0.958698
H136	H	-0.662295	-0.532242	0.940899
H137	H	-0.703384	-0.690889	0.773120
H138	H	-0.622601	-0.607676	0.755310
C139	C	-1.323778	-0.054374	0.568895
C140	C	-1.369822	-0.169996	0.545425
H141	H	-1.328735	0.018458	0.528270
H142	H	-1.273994	-0.050143	0.534019
H143	H	-1.337390	-0.053015	0.660316
H144	H	-1.356206	-0.171360	0.454004
H145	H	-1.419617	-0.174227	0.580295
H146	H	-1.224324	-0.379408	0.574154
C147	C	-0.520150	-0.891699	-0.075979
C148	C	-0.593615	-0.942157	-0.069489
H149	H	-0.489214	-0.908963	-0.153946
H150	H	-0.515435	-0.931838	-0.002629
H151	H	-0.505974	-0.800067	-0.075786
H152	H	-0.607793	-1.033791	-0.069673
H153	H	-0.598333	-0.902022	-0.142858
H154	H	-1.151384	-0.403023	0.760358
C155	C	-0.823742	-0.261513	0.581263
C156	C	-0.870074	-0.377481	0.558916
H157	H	-0.773930	-0.256914	0.545000
H158	H	-0.836595	-0.260008	0.672577
H159	H	-0.829271	-0.188966	0.541345
H160	H	-0.864549	-0.450028	0.598842
H161	H	-0.857217	-0.378997	0.467584
C162	C	-1.546870	-0.517514	0.868364
C163	C	-1.505628	-0.404903	0.775503
H164	H	-1.596667	-0.521976	0.904393
H165	H	-1.526893	-0.514522	0.935899
H166	H	-1.545030	-0.592419	0.827767
H167	H	-1.507464	-0.329997	0.816102
H168	H	-1.525611	-0.407884	0.707957
C169	C	-0.933942	-0.046287	0.659266
C170	C	-0.926968	-0.154430	0.718374
H171	H	-0.903025	0.031656	0.676605
H172	H	-0.983786	-0.050746	0.693478
H173	H	-0.919730	-0.046420	0.567624
H174	H	-0.941184	-0.154302	0.810018
H175	H	-0.877113	-0.149969	0.684168
H176	H	-0.674595	-0.996461	0.357924
H177	H	-1.435725	-0.595459	0.623718
C178	C	-0.529090	-0.840166	0.262143
C179	C	-0.536792	-0.782884	0.153852
H180	H	-0.479311	-0.803935	0.257736
H181	H	-0.542205	-0.931716	0.262149
H182	H	-0.560525	-0.823674	0.339987
H183	H	-0.505362	-0.799384	0.076008
H184	H	-0.523669	-0.691312	0.153834
H185	H	-1.007928	-0.996461	0.357924
H186	H	-1.484758	-0.984314	0.179336
H187	H	-1.102392	-0.595459	0.623718
C188	C	-0.980262	-0.685431	0.694741
C189	C	-1.005835	-0.612377	0.789578
H190	H	-0.975292	-0.758176	0.735493
H191	H	-0.933693	-0.632240	0.633323
H192	H	-1.014466	-0.715438	0.651105
H193	H	-0.971628	-0.582361	0.833208
H194	H	-1.052410	-0.665577	0.851020
H195	H	-1.034409	-0.200587	0.562474
H196	H	-0.891029	-0.798109	0.155706
C197	C	-1.323248	-0.791237	-0.169386
C198	C	-1.369818	-0.769006	-0.053632
H199	H	-1.328178	-0.750404	-0.242133
H200	H	-1.336418	-0.882506	-0.171413
H201	H	-1.273564	-0.755856	-0.173124
H202	H	-1.419504	-0.804395	-0.049890
H203	H	-1.356653	-0.677718	-0.051604
H204	H	-1.102470	-0.847941	0.371779
C205	C	-1.218621	-0.976916	0.297154
C206	C	-1.172341	-0.999464	0.181245
H207	H	-1.268434	-1.012978	0.301713
H208	H	-1.205650	-0.885582	0.298610
H209	H	-1.213172	-1.016919	0.369748
H210	H	-1.177786	-0.959452	0.108651
H211	H	-1.185316	-1.090816	0.179777
C212	C	-0.774006	-0.736217	0.673510
C213	C	-0.782029	-0.628192	0.616419
H214	H	-0.804897	-0.814180	0.656154
H215	H	-0.787631	-0.736831	0.765191
H216	H	-0.724051	-0.730910	0.637884
H217	H	-0.831983	-0.633494	0.652053
H218	H	-0.768409	-0.627579	0.524720
C219	C	-1.109726	-0.821144	-0.048083
C220	C	-1.036484	-0.768993	-0.053626
H221	H	-1.114653	-0.780309	-0.120832
H222	H	-1.141308	-0.806070	0.030450
H223	H	-1.122885	-0.912421	-0.050129
H224	H	-1.023326	-0.677717	-0.051570
H225	H	-1.004891	-0.784056	-0.132180
H226	H	-0.557657	-0.379408	0.574154
C227	C	-0.683091	-0.172041	0.410670
C228	C	-0.703152	-0.169995	0.545420
H229	H	-0.688037	-0.099201	0.370039
H230	H	-0.714327	-0.250480	0.394770
H231	H	-0.633300	-0.167808	0.375814
H232	H	-0.752945	-0.174238	0.580278
H233	H	-0.671916	-0.091537	0.561330
C234	C	-0.738977	-0.772396	0.474107
C235	C	-0.782130	-0.840764	0.404560
H236	H	-0.769919	-0.755279	0.552160
H237	H	-0.704509	-0.692187	0.422044
H238	H	-0.713246	-0.823368	0.495301
H239	H	-0.807857	-0.789787	0.383358
H240	H	-0.816611	-0.920985	0.456634
