data_functionalizedCrystal
_audit_creation_method	'MofGen! by Chris Wilmer'
_symmetry_space_group_name_H-M	'P1'
_symmetry_Int_Tables_number	1
_symmetry_cell_setting	triclinic
loop_
_symmetry_equiv_pos_as_xyz
  x,y,z
_cell_length_a	10.540539
_cell_length_b	10.540539
_cell_length_c	9.016244
_cell_angle_alpha	89.999933
_cell_angle_beta	89.994699
_cell_angle_gamma	84.525492
loop_
_atom_site_label
_atom_site_type_symbol
_atom_site_fract_x
_atom_site_fract_y
_atom_site_fract_z
O1	O	1.685893	0.178895	-0.123263
O2	O	1.316480	0.195751	-0.123280
O3	O	1.509614	0.002617	-0.123269
O4	O	1.492759	0.372030	-0.123274
O5	O	1.509586	0.002621	0.123411
O6	O	1.316452	0.195755	0.123400
O7	O	1.685865	0.178900	0.123418
Cu8	Cu	1.501156	0.187328	0.145933
Cu9	Cu	1.501189	0.187323	-0.145795
O10	O	1.492730	0.372034	0.123407
C11	C	1.269163	0.194489	0.000058
C12	C	1.128215	0.190707	0.000051
C13	C	0.944788	0.045790	0.000628
C14	C	1.091406	0.049624	0.000057
C15	C	1.066558	0.258600	-0.140811
C16	C	0.920014	0.253785	-0.140914
C17	C	0.919493	0.256660	0.139608
C18	C	1.066475	0.257960	0.141455
C19	C	1.508336	-0.044684	0.000068
C20	C	1.504554	-0.185632	0.000060
C21	C	1.359637	-0.369059	-0.000500
C22	C	1.363471	-0.222441	0.000055
C23	C	1.572434	-0.247287	0.140930
C24	C	1.567619	-0.393832	0.141049
C25	C	1.570520	-0.394355	-0.139473
C26	C	1.571820	-0.247373	-0.141336
C27	C	1.733182	0.180161	0.000077
C28	C	1.874130	0.183943	0.000074
C29	C	1.494008	0.419335	0.000066
C30	C	1.497790	0.560283	0.000064
N31	N	1.501141	0.187331	0.351119
N32	N	1.501213	0.187310	-0.350982
C33	C	1.397510	0.290298	0.586146
C34	C	1.397739	0.290684	0.414255
C35	C	1.633864	0.217464	0.413464
C36	C	1.633298	0.218193	0.585409
C37	C	1.473367	0.053892	0.585663
C38	C	1.470322	0.054757	0.413709
H39	H	1.090700	0.360819	0.149959
H40	H	1.298584	0.272446	0.627535
N41	N	1.665092	0.338191	0.359412
N42	N	1.589822	0.402238	0.274994
H43	H	1.611869	0.487505	0.236819
N44	N	1.509653	-0.196031	-0.272110
N45	N	1.460730	-0.268125	-0.361131
H46	H	1.416837	-0.231854	-0.453496
N47	N	1.700870	-0.217025	-0.152021
N48	N	1.768954	-0.258446	-0.258213
H49	H	1.860102	-0.237018	-0.265750
H50	H	0.872266	0.358564	0.140559
H51	H	1.304121	-0.399265	0.099949
H52	H	1.109159	0.211434	-0.245643
N53	N	1.698347	-0.453623	-0.140676
N54	N	1.736740	-0.522939	-0.247136
H55	H	1.827013	-0.564805	-0.247974
H56	H	1.525258	-0.204686	0.245756
H57	H	1.088912	0.362208	-0.146054
H58	H	0.887935	0.211004	0.246381
N59	N	1.694892	-0.454035	0.149082
N60	N	1.737040	-0.527292	0.047773
H61	H	1.826925	-0.569806	0.053454
H62	H	0.872045	0.355250	-0.147309
H63	H	1.676041	-0.224933	0.146173
H64	H	1.310059	-0.179839	-0.100926
H65	H	0.916191	-0.009944	0.101649
H66	H	1.134008	-0.003797	0.101034
N67	N	0.906886	-0.023835	-0.125383
N68	N	0.828063	0.027851	-0.215595
H69	H	0.801291	-0.021318	-0.304594
N70	N	1.347831	0.026088	0.362626
N71	N	1.261735	0.009337	0.453901
H72	H	1.175222	-0.010906	0.417820
H73	H	1.299123	0.272553	0.372106
N74	N	1.663809	0.340314	0.635707
N75	N	1.586233	0.407736	0.714115
H76	H	1.607775	0.493990	0.749631
N77	N	1.289750	-0.404935	-0.127243
N78	N	1.340939	-0.483004	-0.218634
H79	H	1.291583	-0.508346	-0.308154
H80	H	1.415177	0.388722	0.629339
N81	N	0.884605	0.190837	-0.272993
N82	N	0.809647	0.248105	-0.363417
H83	H	0.784642	0.203645	-0.456700
H84	H	1.107425	0.208362	0.245664
H85	H	1.309661	-0.180683	0.101200
N86	N	1.504654	-0.429195	0.273147
N87	N	1.464564	-0.345682	0.364609
H88	H	1.420092	-0.370650	0.457907
H89	H	1.524871	-0.425910	-0.246244
N90	N	1.420211	0.414843	0.362597
N91	N	1.424288	0.436705	0.226506
H92	H	1.440164	0.524396	0.190020
N93	N	1.143781	-0.017870	-0.126839
N94	N	1.072033	-0.067947	-0.215262
H95	H	1.109020	-0.115616	-0.304891
H96	H	1.712941	0.146204	0.626995
H97	H	1.712919	0.144501	0.372564
N98	N	1.354489	0.017955	0.640111
N99	N	1.288840	0.090248	0.726284
H100	H	1.204873	0.064884	0.764733
H101	H	1.540849	-0.025564	0.370737
H102	H	1.548979	-0.022762	0.626319
