data_functionalizedCrystal
_audit_creation_method	'MofGen! by Chris Wilmer'
_symmetry_space_group_name_H-M	'P1'
_symmetry_Int_Tables_number	1
_symmetry_cell_setting	triclinic
loop_
_symmetry_equiv_pos_as_xyz
  x,y,z
_cell_length_a	10.723023
_cell_length_b	12.811415
_cell_length_c	9.798715
_cell_angle_alpha	84.565994
_cell_angle_beta	89.996770
_cell_angle_gamma	84.254534
loop_
_atom_site_label
_atom_site_type_symbol
_atom_site_fract_x
_atom_site_fract_y
_atom_site_fract_z
O1	O	1.656454	0.147212	-0.131694
O2	O	1.293232	0.161304	-0.133443
O3	O	1.483981	0.001531	-0.113660
O4	O	1.465706	0.306985	-0.151477
O5	O	1.483966	0.001531	0.113322
O6	O	1.293218	0.161304	0.093539
O7	O	1.656440	0.147211	0.095288
Zn8	Zn	1.474827	0.154257	0.130452
Zn9	Zn	1.474845	0.154258	-0.168607
O10	O	1.465691	0.306984	0.075506
C11	C	1.246730	0.160279	-0.019826
C12	C	1.108191	0.157211	-0.019448
C13	C	1.482949	-0.037580	0.004670
C14	C	1.479882	-0.154120	0.019089
C15	C	1.046418	0.155843	0.098303
C16	C	0.903231	0.152672	0.098696
C17	C	1.474112	-0.373100	-0.201300
C18	C	1.471230	-0.482600	-0.187758
C19	C	1.471228	-0.482621	0.059713
C20	C	1.474110	-0.373121	0.046171
C21	C	1.475553	-0.318365	-0.084339
C22	C	1.478444	-0.208864	-0.097880
C23	C	1.478433	-0.208886	0.149590
C24	C	1.475551	-0.318386	0.163132
C25	C	1.702942	0.148237	-0.018332
C26	C	1.841481	0.151305	-0.018718
C27	C	1.466723	0.346096	-0.042828
C28	C	1.469790	0.462636	-0.057256
N29	N	1.474823	0.154257	0.334552
N30	N	1.474859	0.154251	-0.372706
C31	C	1.554915	0.086877	0.410672
C32	C	1.554935	0.086873	0.567835
H33	H	1.099539	0.157013	0.198825
H34	H	1.474371	-0.362983	0.269390
O35	O	1.045031	0.155769	-0.139494
C36	C	1.130263	0.157687	-0.249059
H37	H	1.228087	0.126568	-0.209067
H38	H	1.131411	0.242055	-0.297563
C39	C	0.969523	0.126070	-0.406366
C40	C	1.089671	0.087841	-0.357248
H41	H	0.944482	0.082990	-0.473105
H42	H	0.912099	0.124781	-0.332551
H43	H	0.970495	0.196376	-0.446776
H44	H	1.088693	0.017541	-0.316823
H45	H	1.147094	0.089116	-0.431059
O46	O	1.475302	-0.319924	-0.328099
C47	C	1.366678	-0.335579	-0.401466
H48	H	1.290429	-0.357925	-0.326317
H49	H	1.389419	-0.401639	-0.470453
C50	C	1.413957	-0.205811	-0.582228
C51	C	1.320302	-0.233249	-0.489929
H52	H	1.385352	-0.142692	-0.636802
H53	H	1.487142	-0.195267	-0.532803
H54	H	1.432899	-0.260870	-0.639704
H55	H	1.301374	-0.178197	-0.432445
H56	H	1.247113	-0.243782	-0.539347
H57	H	1.406290	0.211944	0.561874
O58	O	1.393083	0.223219	0.395431
C59	C	1.414238	0.327232	0.347764
H60	H	1.462249	0.327440	0.243948
H61	H	1.476720	0.359952	0.424093
C62	C	1.229118	0.396113	0.460331
C63	C	1.288076	0.396370	0.332818
H64	H	1.151298	0.438763	0.451117
H65	H	1.214868	0.326039	0.492450
H66	H	1.281199	0.423378	0.523926
H67	H	1.236002	0.369093	0.269230
H68	H	1.302315	0.466442	0.300687
H69	H	1.470042	-0.527221	0.165968
H70	H	1.479624	-0.164283	-0.204148
O71	O	1.479614	-0.155650	0.263174
C72	C	1.373360	-0.081177	0.261372
H73	H	1.297038	-0.106395	0.194281
H74	H	1.399955	-0.000699	0.218182
C75	C	1.418207	-0.043503	0.490776
C76	C	1.324463	-0.074481	0.408383
H77	H	1.388046	-0.039368	0.581458
H78	H	1.489795	-0.093674	0.491989
H79	H	1.440361	0.023559	0.454768
H80	H	1.302321	-0.141548	0.444381
H81	H	1.252869	-0.024322	0.407179
O82	O	1.636751	0.017956	0.349848
C83	C	1.711248	-0.044675	0.451136
H84	H	1.660167	-0.046211	0.553230
H85	H	1.804274	-0.010118	0.461982
C86	C	1.798701	-0.155811	0.283819
C87	C	1.735957	-0.157704	0.409210
H88	H	1.813949	-0.225532	0.257956
H89	H	1.748515	-0.113613	0.215577
H90	H	1.876215	-0.127009	0.292874
H91	H	1.658438	-0.186494	0.400149
H92	H	1.786131	-0.199909	0.477450
H93	H	0.850107	0.151502	0.199508
H94	H	1.470051	-0.527160	-0.283000
H95	H	0.894595	0.152487	-0.119537
H96	H	1.623509	0.029190	0.633262
