data_functionalizedCrystal
_audit_creation_method	'MofGen! by Chris Wilmer'
_symmetry_space_group_name_H-M	'P1'
_symmetry_Int_Tables_number	1
_symmetry_cell_setting	triclinic
loop_
_symmetry_equiv_pos_as_xyz
  x,y,z
_cell_length_a	14.519709
_cell_length_b	23.532407
_cell_length_c	12.996460
_cell_angle_alpha	89.989202
_cell_angle_beta	90.000034
_cell_angle_gamma	83.264412
loop_
_atom_site_label
_atom_site_type_symbol
_atom_site_fract_x
_atom_site_fract_y
_atom_site_fract_z
O1	O	1.222985	0.074654	-0.085444
O2	O	0.954405	0.083445	-0.085477
O3	O	1.096794	-0.003845	-0.085440
O4	O	1.080596	0.161945	-0.085480
O5	O	1.096779	-0.003850	0.085693
O6	O	0.954390	0.083441	0.085657
O7	O	1.222971	0.074649	0.085690
Cu8	Cu	1.088679	0.079044	0.101299
Cu9	Cu	1.088696	0.079050	-0.101086
O10	O	1.080581	0.161940	0.085654
C11	C	0.920042	0.083033	0.000086
C12	C	0.817676	0.081805	0.000075
C13	C	1.096374	-0.025066	0.000129
C14	C	1.095134	-0.088288	0.000137
C15	C	0.442833	0.077286	0.000123
C16	C	0.547126	0.078541	0.000109
C17	C	0.630251	0.079545	0.000098
C18	C	0.734551	0.080801	0.000086
C19	C	1.171619	-0.487046	0.000090
C20	C	1.170467	-0.546452	0.000082
O21	O	1.241369	-0.582876	0.000052
N22	N	1.085816	-0.569460	0.000072
C23	C	1.002312	-0.533059	0.000060
O24	O	0.930205	-0.558084	0.000050
C25	C	1.003465	-0.473655	0.000061
C26	C	1.088121	-0.450650	0.000081
C27	C	1.256268	-0.464041	0.000109
C28	C	1.257420	-0.404640	0.000119
C29	C	1.173922	-0.368244	0.000110
C30	C	1.089273	-0.391249	0.000091
C31	C	0.919962	-0.437255	0.000041
C32	C	0.921123	-0.377847	0.000041
C33	C	1.005779	-0.354843	0.000061
C34	C	1.006927	-0.295451	0.000091
N35	N	1.091578	-0.272443	0.000101
C36	C	1.175075	-0.308839	0.000110
C37	C	0.999897	-0.657813	0.000057
C38	C	0.998743	-0.717216	0.000064
C39	C	1.166898	-0.730604	0.000084
C40	C	1.168051	-0.671200	0.000084
C41	C	1.084548	-0.634804	0.000067
C42	C	1.177487	-0.184092	0.000132
C43	C	1.178632	-0.124685	0.000146
C44	C	1.010477	-0.111301	0.000121
C45	C	1.009332	-0.170703	0.000112
C46	C	1.092845	-0.207098	0.000114
O47	O	0.936062	-0.258992	0.000117
O48	O	1.247171	-0.283806	0.000106
C49	C	1.257333	0.075061	0.000125
C50	C	1.359700	0.076289	0.000130
C51	C	1.081001	0.183160	0.000082
C52	C	1.082241	0.246383	0.000067
N53	N	1.088673	0.079040	0.243647
N54	N	1.088709	0.079050	-0.243433
C55	C	1.088695	0.079051	0.663461
C56	C	1.088686	0.079050	0.546656
C57	C	1.088685	0.079046	0.453557
C58	C	1.088675	0.079044	0.336745
H59	H	1.245491	-0.213718	0.000129
H60	H	1.247572	-0.105958	0.000165
C61	C	0.824865	-0.303267	-0.087949
C62	C	0.829330	-0.337842	0.000023
H63	H	0.768194	-0.278573	-0.087959
H64	H	0.875435	-0.281063	-0.087927
H65	H	0.827923	-0.326718	-0.147622
H66	H	0.826279	-0.314391	0.059696
H67	H	0.778747	-0.360048	0.000011
H68	H	0.851027	-0.455975	0.000019
C69	C	0.867491	-0.081594	0.088064
C70	C	0.918699	-0.071287	0.000105
H71	H	0.810833	-0.056887	0.088048
H72	H	0.854684	-0.120259	0.088053
H73	H	0.902223	-0.074615	0.147745
H74	H	0.883969	-0.078270	-0.059577
H75	H	0.931503	-0.032613	0.000107
H76	H	1.324266	-0.493670	0.000112
C77	C	0.903621	-0.583250	0.088026
C78	C	0.908103	-0.617807	0.000053
H79	H	0.846955	-0.558552	0.088016
H80	H	0.906664	-0.606710	0.147692
H81	H	0.954200	-0.561045	0.088020
H82	H	0.857528	-0.640015	0.000063
H83	H	0.905051	-0.594344	-0.059628
C84	C	1.423512	-0.423859	0.000127
C85	C	1.350477	-0.379359	0.000127
H86	H	1.480963	-0.408253	0.000123
H87	H	1.419557	-0.446754	0.059801
H88	H	1.419552	-0.446744	-0.059556
H89	H	1.354433	-0.356476	0.059814
H90	H	1.354433	-0.356454	-0.059553
C91	C	1.334145	-0.690415	0.000097
C92	C	1.261107	-0.645917	0.000090
H93	H	1.391595	-0.674807	0.000091
H94	H	1.330192	-0.713307	0.059774
H95	H	1.330188	-0.713302	-0.059583
H96	H	1.265059	-0.623031	0.059774
H97	H	1.265061	-0.623014	-0.059593
C98	C	1.239784	-0.827616	0.000060
C99	C	1.258683	-0.770619	0.000076
H100	H	1.296445	-0.852319	0.000047
H101	H	1.205057	-0.834605	0.059733
H102	H	1.205044	-0.834581	-0.059623
H103	H	1.293416	-0.763654	0.059763
H104	H	1.293424	-0.763628	-0.059604
H105	H	0.929808	-0.735940	0.000065
C106	C	0.910464	-0.229752	0.088064
C107	C	0.916276	-0.195991	0.000101
H108	H	0.853010	-0.245356	0.088051
H109	H	0.960016	-0.259931	0.088055
H110	H	0.914407	-0.206862	0.147743
H111	H	0.912340	-0.218882	-0.059578
H112	H	0.866710	-0.165808	0.000101
