data_functionalizedCrystal
_audit_creation_method	'MofGen! by Chris Wilmer'
_symmetry_space_group_name_H-M	'P1'
_symmetry_Int_Tables_number	1
_symmetry_cell_setting	triclinic
loop_
_symmetry_equiv_pos_as_xyz
  x,y,z
_cell_length_a	12.759401
_cell_length_b	18.101397
_cell_length_c	12.759393
_cell_angle_alpha	89.962348
_cell_angle_beta	89.981433
_cell_angle_gamma	90.019510
loop_
_atom_site_label
_atom_site_type_symbol
_atom_site_fract_x
_atom_site_fract_y
_atom_site_fract_z
Zn1	Zn	1.606213	-0.294805	-0.593939
Zn2	Zn	1.606090	-0.418666	-0.418240
Zn3	Zn	1.430515	-0.294841	-0.418278
Zn4	Zn	1.430486	-0.418607	-0.593882
O5	O	1.518326	-0.356730	-0.506085
O6	O	1.753218	-0.311245	-0.570640
O7	O	1.582760	-0.402281	-0.271224
O8	O	1.453886	-0.191203	-0.441620
O9	O	1.753127	-0.402246	-0.441555
O10	O	1.582970	-0.191177	-0.570677
O11	O	1.453766	-0.311307	-0.271252
O12	O	1.283490	-0.311249	-0.441564
O13	O	1.453836	-0.402144	-0.740910
O14	O	1.283469	-0.402180	-0.570579
O15	O	1.582942	-0.311187	-0.740952
O16	O	1.582732	-0.522291	-0.441500
O17	O	1.453717	-0.522248	-0.570543
C18	C	1.245359	-0.356712	-0.506070
C19	C	1.128582	-0.356723	-0.506089
C20	C	1.073760	-0.309428	-0.573407
C21	C	0.964036	-0.309442	-0.573414
C22	C	0.963966	-0.404052	-0.438780
C23	C	1.073688	-0.404034	-0.438769
C24	C	1.128655	-0.262117	-0.640727
C25	C	1.073833	-0.214820	-0.708052
C26	C	0.964109	-0.214834	-0.708059
C27	C	0.909207	-0.262146	-0.640740
C28	C	1.518236	-0.549140	-0.506034
C29	C	1.518294	-0.631454	-0.506047
C30	C	1.518428	-0.930545	-0.506143
C31	C	1.599375	-0.899217	-0.424735
C32	C	1.599655	-0.813598	-0.424946
C33	C	1.518362	-0.782163	-0.506095
C34	C	1.548380	-0.813161	-0.616835
C35	C	1.549006	-0.898806	-0.616392
C36	C	1.407247	-0.899056	-0.477768
C37	C	1.407796	-0.813406	-0.475296
C38	C	1.518322	-0.698303	-0.506074
C39	C	1.518470	-1.014405	-0.506171
C40	C	1.792359	-0.356748	-0.506100
C41	C	1.909136	-0.356755	-0.506106
C42	C	1.518400	-0.356655	-0.780118
C43	C	1.518431	-0.356623	-0.896895
C44	C	1.518445	-0.163568	-0.506159
C45	C	1.518496	-0.081254	-0.506190
C46	C	1.585666	-0.309257	-0.951781
C47	C	1.585691	-0.309231	-1.061505
C48	C	1.451243	-0.403942	-1.061448
C49	C	1.451214	-0.403964	-0.951726
C50	C	1.652883	-0.261916	-0.896950
C51	C	1.720124	-0.214547	-0.951836
C52	C	1.720149	-0.214521	-1.061560
C53	C	1.652933	-0.261863	-1.116398
C54	C	1.518313	-0.356751	-0.233117
C55	C	1.518486	-0.356574	-0.116341
H56	H	0.819862	-0.262138	-0.640729
H57	H	1.682011	-0.793054	-0.443719
H58	H	1.681281	-0.920684	-0.443293
H59	H	1.118542	-0.176295	-0.762853
H60	H	0.919476	-0.176316	-0.762870
H61	H	0.919255	-0.442573	-0.383975
H62	H	1.379939	-0.920723	-0.398417
H63	H	1.652946	-0.261829	-1.205743
H64	H	1.118325	-0.442545	-0.383953
H65	H	1.580874	-0.792644	-0.342833
H66	H	1.652872	-0.261934	-0.807607
H67	H	1.628739	-0.791652	-0.641278
H68	H	1.491225	-0.792795	-0.679121
H69	H	1.774842	-0.175999	-0.907179
H70	H	1.774892	-0.175945	-1.106245
H71	H	1.580820	-0.919867	-0.342376
H72	H	1.630275	-0.918724	-0.640428
H73	H	1.217998	-0.262100	-0.640729
H74	H	1.396519	-0.442485	-1.106106
H75	H	1.385161	-0.793155	-0.393800
H76	H	1.396449	-0.442522	-0.907037
H77	H	1.344240	-0.792015	-0.530248
H78	H	1.346936	-0.919315	-0.537061
H79	H	1.492631	-0.919526	-0.679137
