data_functionalizedCrystal
_audit_creation_method	'MofGen! by Chris Wilmer'
_symmetry_space_group_name_H-M	'P1'
_symmetry_Int_Tables_number	1
_symmetry_cell_setting	triclinic
loop_
_symmetry_equiv_pos_as_xyz
  x,y,z
_cell_length_a	12.759395
_cell_length_b	21.295416
_cell_length_c	12.759387
_cell_angle_alpha	89.963938
_cell_angle_beta	90.019431
_cell_angle_gamma	89.969823
loop_
_atom_site_label
_atom_site_type_symbol
_atom_site_fract_x
_atom_site_fract_y
_atom_site_fract_z
Zn1	Zn	1.606155	0.250579	0.593936
Zn2	Zn	2.106155	0.750579	1.093936
Zn3	Zn	1.605997	0.355862	0.418241
Zn4	Zn	2.105997	0.855862	0.918241
Zn5	Zn	1.430453	0.250610	0.418277
Zn6	Zn	1.930453	0.750610	0.918277
Zn7	Zn	1.430397	0.355814	0.593883
Zn8	Zn	1.930397	0.855814	1.093883
O9	O	1.518250	0.303216	0.506084
O10	O	2.018250	0.803216	1.006084
O11	O	1.753155	0.264552	0.570637
O12	O	2.253155	0.764552	1.070637
O13	O	1.582668	0.341933	0.271224
O14	O	2.082668	0.841933	0.771224
O15	O	1.453849	0.162516	0.441616
O16	O	1.953849	0.662516	0.941616
O17	O	1.753039	0.341902	0.441554
O18	O	2.253039	0.841902	0.941554
O19	O	1.582936	0.162493	0.570672
O20	O	2.082936	0.662493	1.070672
O21	O	1.453696	0.264605	0.271251
O22	O	1.953696	0.764605	0.771251
O23	O	1.283424	0.264558	0.441564
O24	O	1.783424	0.764558	0.941564
O25	O	1.453754	0.341821	0.740911
O26	O	1.953754	0.841821	1.240911
O27	O	1.283383	0.341851	0.570581
O28	O	1.783383	0.841851	1.070581
O29	O	1.582883	0.264505	0.740951
O30	O	2.082883	0.764505	1.240951
O31	O	1.582614	0.443945	0.441503
O32	O	2.082614	0.943945	0.941503
O33	O	1.453602	0.443909	0.570546
O34	O	1.953602	0.943909	1.070546
C35	C	1.245283	0.303203	0.506071
C36	C	1.745283	0.803203	1.006071
C37	C	1.128506	0.303213	0.506091
C38	C	1.628506	0.803213	1.006091
C39	C	1.128607	0.222798	0.640722
C40	C	1.628607	0.722798	1.140722
C41	C	1.073797	0.182598	0.708046
C42	C	1.573797	0.682598	1.208046
C43	C	0.964075	0.182609	0.708059
C44	C	1.464075	0.682609	1.208059
C45	C	0.909162	0.222823	0.640738
C46	C	1.409162	0.722823	1.140738
C47	C	0.963972	0.263023	0.573414
C48	C	1.463972	0.763023	1.073414
C49	C	1.073696	0.263009	0.573411
C50	C	1.573696	0.763009	1.073411
C51	C	0.963871	0.343434	0.438780
C52	C	1.463871	0.843434	0.938780
C53	C	1.073592	0.343427	0.438770
C54	C	1.573592	0.843427	0.938770
C55	C	0.908957	0.383649	0.371459
C56	C	1.408957	0.883649	0.871459
C57	C	0.963767	0.423853	0.304139
C58	C	1.463767	0.923853	0.804139
C59	C	1.073496	0.423840	0.304129
C60	C	1.573496	0.923840	0.804129
C61	C	1.128403	0.383627	0.371446
C62	C	1.628403	0.883627	0.871446
C63	C	1.518114	0.466768	0.506038
C64	C	2.018114	0.966768	1.006038
C65	C	1.518151	0.536736	0.506053
C66	C	2.018151	1.036736	1.006053
C67	C	1.585388	0.569600	0.438931
C68	C	2.085388	1.069600	0.938931
C69	C	1.585437	0.635342	0.438960
C70	C	2.085437	1.135342	0.938960
C71	C	1.518231	0.668218	0.506099
C72	C	2.018231	1.168218	1.006099
C73	C	1.450990	0.635346	0.573234
C74	C	1.950990	1.135346	1.073234
C75	C	1.450950	0.569605	0.573211
C76	C	1.950950	1.069605	1.073211
N77	N	1.426325	0.771483	0.514111
N78	N	1.926325	1.271483	1.014111
N79	N	1.426366	0.833935	0.514127
N80	N	1.926366	1.333935	1.014127
C81	C	1.518350	0.866293	0.506173
C82	C	2.018350	1.366293	1.006173
N83	N	1.610294	0.833840	0.498183
N84	N	2.110294	1.333840	0.998183
N85	N	1.610251	0.771383	0.498162
N86	N	2.110251	1.271383	0.998162
C87	C	1.518268	0.739503	0.506132
C88	C	2.018268	1.239503	1.006132
C89	C	1.585646	0.970442	0.439079
C90	C	2.085646	1.470442	0.939079
C91	C	1.585698	1.036186	0.439114
C92	C	2.085698	1.536186	0.939114
C93	C	1.451241	1.036189	0.573383
C94	C	1.951241	1.536189	1.073383
C95	C	1.451199	0.970446	0.573353
C96	C	1.951199	1.470446	1.073353
C97	C	1.518400	0.937577	0.506195
C98	C	2.018400	1.437577	1.006195
C99	C	1.792284	0.303229	0.506098
C100	C	2.292284	0.803229	1.006098
C101	C	1.909060	0.303234	0.506104
C102	C	2.409060	0.803234	1.006104
C103	C	1.518330	0.303154	0.780118
C104	C	2.018330	0.803154	1.280118
C105	C	1.518364	0.303128	0.896895
C106	C	2.018364	0.803128	1.396895
C107	C	1.518418	1.139026	0.506172
C108	C	2.018418	1.639026	1.006172
C109	C	1.518492	1.069057	0.506255
C110	C	2.018492	1.569057	1.006255
C111	C	1.518232	0.303232	0.233117
C112	C	2.018232	0.803232	0.733117
C113	C	1.518402	0.303081	0.116341
C114	C	2.018402	0.803081	0.616341
C115	C	1.652834	0.222624	0.896955
C116	C	2.152834	0.722624	1.396955
C117	C	1.720084	0.182363	0.951846
C118	C	2.220084	0.682363	1.451846
C119	C	1.720109	0.182340	1.061568
C120	C	2.220109	0.682340	1.561568
C121	C	1.652876	0.222581	1.116401
C122	C	2.152876	0.722581	1.616401
C123	C	1.585626	0.262843	1.061510
C124	C	2.085626	0.762843	1.561510
C125	C	1.585610	0.262863	0.951786
C126	C	2.085610	0.762863	1.451786
C127	C	1.451152	0.343342	1.061449
C128	C	1.951152	0.843342	1.561449
C129	C	1.451130	0.343369	0.951728
C130	C	1.951130	0.843369	1.451728
C131	C	1.383918	0.383583	1.116283
C132	C	1.883918	0.883583	1.616283
C133	C	1.316672	0.423849	1.061391
C134	C	1.816672	0.923849	1.561391
C135	C	1.316650	0.423870	0.951663
C136	C	1.816650	0.923870	1.451663
C137	C	1.383880	0.383630	0.896837
C138	C	1.883880	0.883630	1.396837
H139	H	0.919449	0.149871	0.762874
H140	H	1.419449	0.649871	1.262874
H141	H	1.652894	0.222554	1.205742
H142	H	2.152894	0.722554	1.705742
H143	H	1.217948	0.222782	0.640713
H144	H	1.717948	0.722782	1.140713
H145	H	1.118520	0.149855	0.762855
H146	H	1.618520	0.649855	1.262855
H147	H	1.118116	0.456574	0.249302
H148	H	1.618116	0.956574	0.749302
H149	H	1.652830	0.222645	0.807614
H150	H	2.152830	0.722645	1.307614
H151	H	1.261930	0.456606	1.106045
H152	H	1.761930	0.956606	1.606045
H153	H	1.640456	1.062943	0.384458
H154	H	2.140456	1.562943	0.884458
H155	H	1.383940	0.383559	1.205624
H156	H	1.883940	0.883559	1.705624
H157	H	0.819820	0.222824	0.640747
H158	H	1.319820	0.722824	1.140747
H159	H	1.396444	0.943687	0.628005
H160	H	1.896444	1.443687	1.128005
H161	H	1.396525	1.062956	0.628054
H162	H	1.896525	1.562956	1.128054
H163	H	1.774822	0.149599	0.907189
H164	H	2.274822	0.649599	1.407189
H165	H	1.640193	0.662105	0.384301
H166	H	2.140193	1.162105	0.884301
H167	H	0.819616	0.383653	0.371472
H168	H	1.319616	0.883653	0.871472
H169	H	1.640369	0.943679	0.384398
H170	H	2.140369	1.443679	0.884398
H171	H	1.774863	0.149552	1.106260
H172	H	2.274863	0.649552	1.606260
H173	H	1.261875	0.456649	0.906977
H174	H	1.761875	0.956649	1.406977
H175	H	0.919048	0.456589	0.249328
H176	H	1.419048	0.956589	0.749328
H177	H	1.383873	0.383647	0.807495
H178	H	1.883873	0.883647	1.307495
H179	H	1.640110	0.542839	0.384250
H180	H	2.140110	1.042839	0.884250
H181	H	1.217744	0.383610	0.371440
H182	H	1.717744	0.883610	0.871440
H183	H	1.396272	0.662118	0.627901
H184	H	1.896272	1.162118	1.127901
H185	H	1.396197	0.542846	0.627871
H186	H	1.896197	1.042846	1.127871
