data_functionalizedCrystal
_audit_creation_method	'MofGen! by Chris Wilmer'
_symmetry_space_group_name_H-M	'P1'
_symmetry_Int_Tables_number	1
_symmetry_cell_setting	triclinic
loop_
_symmetry_equiv_pos_as_xyz
  x,y,z
_cell_length_a	15.072220
_cell_length_b	15.995350
_cell_length_c	15.995350
_cell_angle_alpha	83.492375
_cell_angle_beta	89.998899
_cell_angle_gamma	90.008851
loop_
_atom_site_label
_atom_site_type_symbol
_atom_site_fract_x
_atom_site_fract_y
_atom_site_fract_z
O1	O	-0.073703	-1.110996	-0.107921
O2	O	-0.073721	-0.867221	-0.121249
O3	O	-0.073710	-0.995772	0.007303
O4	O	-0.073713	-0.982444	-0.236472
O5	O	0.073855	-0.995740	0.007296
O6	O	0.073844	-0.867189	-0.121256
O7	O	0.073862	-1.110964	-0.107928
Zn8	Zn	0.097283	-0.989071	-0.114593
Zn9	Zn	-0.097141	-0.989113	-0.114584
O10	O	0.073852	-0.982413	-0.236480
C11	C	0.000060	-0.836010	-0.120701
C12	C	0.000053	-0.743060	-0.119049
N13	N	0.229971	-0.989049	-0.114599
N14	N	-0.229830	-0.989142	-0.114571
C15	C	0.589173	-0.989112	-0.114580
C16	C	0.551560	-0.920095	-0.183135
C17	C	0.448735	-0.920254	-0.183385
C18	C	0.410969	-0.989080	-0.114590
C19	C	0.448266	-1.076445	-0.133671
C20	C	0.551124	-1.076058	-0.134159
C21	C	0.551272	-0.971542	-0.026741
C22	C	0.448409	-0.969537	-0.027327
C23	C	0.310255	-0.989067	-0.114593
C24	C	0.689886	-0.989130	-0.114579
C25	C	0.000070	-0.995205	0.038494
C26	C	0.000065	-0.993553	0.131444
C27	C	0.000080	-1.142175	-0.108476
C28	C	0.000081	-1.235125	-0.110127
C29	C	0.000071	-0.405312	-0.113117
C30	C	0.000401	-0.452746	-0.021565
C31	C	0.000063	-0.549436	-0.023217
C32	C	0.000063	-0.572873	-0.116060
C33	C	-0.084201	-0.531804	-0.161212
C34	C	-0.084266	-0.435168	-0.158912
C35	C	0.083543	-0.434793	-0.160812
C36	C	0.084651	-0.531738	-0.160790
C37	C	0.000055	-0.667570	-0.117727
C38	C	0.000073	-0.310614	-0.111452
C39	C	0.000069	-0.982980	-0.267671
C40	C	0.000069	-0.984631	-0.360621
C41	C	0.000068	-0.987621	0.469192
C42	C	-0.000270	-0.896069	0.421758
C43	C	0.000063	-0.897721	0.325068
C44	C	0.000066	-0.990564	0.301631
C45	C	0.084335	-1.035702	0.342705
C46	C	0.084405	-1.033402	0.439341
C47	C	-0.083404	-1.035330	0.439707
C48	C	-0.084518	-1.035308	0.342761
C49	C	0.000068	-0.992231	0.206934
C50	C	0.000072	-0.985956	0.563890
H51	H	0.576317	-0.854945	-0.171953
H52	H	0.422704	-1.016540	0.026078
O53	O	0.080068	-0.587089	0.023799
H54	H	0.121678	-0.620117	-0.019371
O55	O	0.585773	-0.934746	-0.268999
H56	H	0.629448	-0.990971	-0.263061
O57	O	0.585657	-0.888974	-0.002439
H58	H	0.565046	-0.837103	-0.050526
O59	O	0.080443	-0.428189	0.026911
H60	H	0.120942	-0.484982	0.046545
O61	O	-0.167696	-0.410923	-0.115286
H62	H	-0.149643	-0.380230	-0.058798
H63	H	-0.147274	-1.005411	0.460250
O64	O	0.582895	-1.096565	-0.219014
H65	H	0.656526	-1.096497	-0.220202
O66	O	-0.079195	-0.426805	0.026697
H67	H	-0.078317	-0.460647	0.091228
O68	O	0.091401	-0.552093	-0.250471
H69	H	0.031844	-0.527760	-0.286103
O70	O	-0.079948	-0.850710	0.287424
H71	H	-0.121569	-0.893877	0.254393
H72	H	-0.146857	-1.002306	0.315516
O73	O	0.084316	-0.392715	-0.250221
H74	H	0.025572	-0.351003	-0.260679
O75	O	-0.089350	-0.392442	-0.247941
H76	H	-0.091758	-0.440829	-0.292445
H77	H	0.424121	-0.931473	-0.248570
H78	H	-0.083968	-1.102831	0.471468
H79	H	-0.060701	-0.859490	0.440293
H80	H	0.575595	-1.021872	0.024275
H81	H	0.576003	-1.129019	-0.086195
O82	O	0.168153	-0.407595	-0.121164
H83	H	0.151650	-0.372756	-0.067017
H84	H	0.059819	-0.859626	0.441349
H85	H	-0.087335	-0.545929	-0.229421
O86	O	0.089494	-1.122430	0.482067
H87	H	0.091901	-1.166934	0.433680
O88	O	-0.091261	-1.124996	0.322425
H89	H	-0.034173	-1.139146	0.282511
O90	O	0.167226	-0.567904	-0.117131
H91	H	0.166546	-0.554802	-0.050459
O92	O	0.415866	-1.146107	-0.069297
H93	H	0.372728	-1.119135	-0.022912
O94	O	-0.080090	-0.586366	0.024113
H95	H	-0.118766	-0.535152	0.048264
H96	H	-0.146912	-0.560191	-0.129845
H97	H	0.423519	-0.855314	-0.172016
O98	O	0.080218	-0.850389	0.288144
H99	H	0.118898	-0.826235	0.339360
H100	H	0.087471	-1.103910	0.328579
O101	O	0.167838	-0.989761	0.463580
H102	H	0.207163	-1.033510	0.507935
O103	O	0.416133	-0.884403	-0.008147
H104	H	0.342528	-0.884346	-0.005960
H105	H	0.422498	-1.092297	-0.197002
H106	H	0.147042	-1.004325	0.314320
