data_functionalizedCrystal
_audit_creation_method	'MofGen! by Chris Wilmer'
_symmetry_space_group_name_H-M	'P1'
_symmetry_Int_Tables_number	1
_symmetry_cell_setting	triclinic
loop_
_symmetry_equiv_pos_as_xyz
  x,y,z
_cell_length_a	25.639239
_cell_length_b	12.759401
_cell_length_c	12.759393
_cell_angle_alpha	89.979434
_cell_angle_beta	90.035978
_cell_angle_gamma	89.963105
loop_
_atom_site_label
_atom_site_type_symbol
_atom_site_fract_x
_atom_site_fract_y
_atom_site_fract_z
Zn1	Zn	-0.208150	-1.606091	0.593970
Zn2	Zn	-0.295596	-1.605909	0.418273
Zn3	Zn	-0.208173	-1.430390	0.418306
Zn4	Zn	-0.295554	-1.430308	0.593911
O5	O	-0.251868	-1.518175	0.506115
O6	O	-0.219758	-1.753088	0.570674
O7	O	-0.284026	-1.582584	0.271256
O8	O	-0.135005	-1.453808	0.441646
O9	O	-0.284004	-1.752954	0.441590
O10	O	-0.134988	-1.582895	0.570706
O11	O	-0.219797	-1.453631	0.271280
O12	O	-0.219757	-1.283358	0.441590
O13	O	-0.283933	-1.453668	0.740940
O14	O	-0.283955	-1.283298	0.570606
O15	O	-0.219718	-1.582815	0.740983
O16	O	-0.368755	-1.582504	0.441533
O17	O	-0.368725	-1.453492	0.570574
C18	C	-0.251854	-1.245207	0.506096
C19	C	-0.251861	-1.128431	0.506113
C20	C	-0.218467	-1.073639	0.573429
C21	C	-0.218471	-0.963915	0.573434
C22	C	-0.285265	-0.963784	0.438804
C23	C	-0.285259	-1.073506	0.438794
C24	C	-0.387711	-1.517998	0.506067
C25	C	-0.445825	-1.518018	0.506081
C26	C	-0.806191	-1.585527	0.439038
C27	C	-0.860796	-1.585568	0.439052
O28	O	-0.889035	-1.642782	0.381996
N29	N	-0.888107	-1.518359	0.506184
C30	C	-0.860812	-1.451113	0.573315
O31	O	-0.889057	-1.393952	0.630418
C32	C	-0.806209	-1.451079	0.573305
C33	C	-0.778900	-1.518284	0.506161
C34	C	-0.778882	-1.652727	0.371900
C35	C	-0.724282	-1.652685	0.371884
C36	C	-0.696990	-1.585442	0.439008
C37	C	-0.724299	-1.518242	0.506146
C38	C	-0.778914	-1.383839	0.640440
C39	C	-0.724307	-1.383810	0.640426
C40	C	-0.696998	-1.451016	0.573281
C41	C	-0.642407	-1.450956	0.573254
N42	N	-0.615095	-1.518165	0.506121
C43	C	-0.642387	-1.585408	0.438998
C44	C	-0.975483	-1.451192	0.573331
C45	C	-1.030085	-1.451221	0.573336
C46	C	-1.030065	-1.585677	0.439074
C47	C	-0.975461	-1.585642	0.439065
C48	C	-0.948171	-1.518401	0.506199
C49	C	-0.527722	-1.585313	0.438971
C50	C	-0.473117	-1.585261	0.438958
C51	C	-0.473141	-1.450810	0.573224
C52	C	-0.527742	-1.450857	0.573232
C53	C	-0.555031	-1.518117	0.506102
O54	O	-0.614133	-1.393773	0.630283
O55	O	-0.614136	-1.642569	0.381914
C56	C	-0.115495	-1.518381	0.506186
C57	C	-0.057381	-1.518468	0.506217
C58	C	-0.251818	-1.518253	0.780148
C59	C	-0.251797	-1.518287	0.896925
C60	C	-0.251878	-0.792208	0.506131
C61	C	-0.251870	-0.908984	0.506128
C62	C	-0.251881	-1.518157	0.233147
C63	C	-0.251755	-1.518327	0.116371
C64	C	-0.218355	-1.585539	0.951811
C65	C	-0.218332	-1.585556	1.061535
C66	C	-0.285198	-1.451068	1.061478
C67	C	-0.285218	-1.451045	0.951756
H68	H	-0.312452	-1.118118	0.383971
C69	C	-0.321958	-1.377104	1.121802
N70	N	-0.349647	-1.321393	1.167236
C71	C	-0.322007	-1.377056	0.891377
N72	N	-0.349714	-1.321327	0.845901
C73	C	-0.808894	-1.726701	0.298047
N74	N	-0.831496	-1.782416	0.242408
C75	C	-0.181586	-1.659497	0.891501
N76	N	-0.153889	-1.715201	0.846079
H77	H	-0.191271	-1.118356	0.628241
C78	C	-0.181737	-0.903649	0.647491
N79	N	-0.154067	-0.858258	0.703274
H80	H	-0.312457	-0.919051	0.383996
H81	H	-0.450883	-1.639988	0.384277
C82	C	-0.557732	-1.659296	0.365118
N83	N	-0.580335	-1.715014	0.309486
C84	C	-0.694249	-1.726608	0.298011
N85	N	-0.671632	-1.782289	0.242363
H86	H	-0.953230	-1.640367	0.384391
H87	H	-0.191099	-1.640318	1.106219
C88	C	-1.060096	-1.659654	0.365245
N89	N	-1.082717	-1.715372	0.309642
H90	H	-1.052315	-1.396486	0.628002
H91	H	-0.953265	-1.396428	0.627997
H92	H	-0.801140	-1.329108	0.695112
H93	H	-0.549978	-1.396136	0.627910
C94	C	-0.694291	-1.309838	0.714281
N95	N	-0.671684	-1.254120	0.769906
H96	H	-0.450912	-1.396058	0.627871
