data_functionalizedCrystal
_audit_creation_method	'MofGen! by Chris Wilmer'
_symmetry_space_group_name_H-M	'P1'
_symmetry_Int_Tables_number	1
_symmetry_cell_setting	triclinic
loop_
_symmetry_equiv_pos_as_xyz
  x,y,z
_cell_length_a	6.394989
_cell_length_b	15.455313
_cell_length_c	16.992694
_cell_angle_alpha	92.857794
_cell_angle_beta	88.582967
_cell_angle_gamma	87.254133
loop_
_atom_site_label
_atom_site_type_symbol
_atom_site_fract_x
_atom_site_fract_y
_atom_site_fract_z
O1	O	-0.435072	-0.072012	-1.048122
O2	O	-0.430202	-0.072038	-0.819790
O3	O	-0.129113	-0.072026	-0.937197
O4	O	-0.736160	-0.072025	-0.930715
O5	O	-0.146255	0.072236	-0.930482
O6	O	-0.447343	0.072223	-0.813075
O7	O	-0.452214	0.072249	-1.041407
Cu8	Cu	-0.451344	0.085408	-0.926628
Cu9	Cu	-0.431071	-0.085198	-0.934569
O10	O	-0.753302	0.072236	-0.924000
C11	C	-0.432511	0.000089	-0.787158
C12	C	-0.413829	0.000079	-0.699930
N13	N	-0.465602	0.205403	-0.921049
C14	C	-0.449904	0.000120	-1.074039
C15	C	-0.468586	0.000124	-1.161267
C16	C	-0.059649	0.000102	-0.932558
C17	C	0.177240	0.000100	-0.928641
N18	N	-0.416798	-0.205192	-0.940154
C19	C	-0.337742	0.250803	-0.970946
C20	C	-0.348545	0.341610	-0.966733
C21	C	-0.487220	0.387016	-0.912628
C22	C	-0.615085	0.341611	-0.862725
C23	C	-0.604270	0.250805	-0.866934
C24	C	-0.533847	0.658596	-0.894461
C25	C	-0.544658	0.749408	-0.890257
C26	C	-0.278114	0.749401	-0.994265
C27	C	-0.267319	0.658594	-0.998472
C28	C	-0.395176	0.613196	-0.948567
N29	N	-0.498271	0.479836	-0.908323
N30	N	-0.384114	0.520378	-0.952869
C31	C	-0.594077	0.000080	-0.651470
C32	C	-0.576513	0.000092	-0.569510
C33	C	-0.378698	0.000097	-0.536010
C34	C	-0.198437	0.000099	-0.584476
C35	C	-0.216003	0.000093	-0.666434
C36	C	-0.305891	0.000120	-0.291692
C37	C	-0.288338	0.000123	-0.209727
C38	C	-0.666416	0.000118	-0.194766
C39	C	-0.683964	0.000107	-0.276728
C40	C	-0.503704	0.000113	-0.325186
N41	N	-0.360740	0.000106	-0.452233
N42	N	-0.521664	0.000110	-0.408961
H43	H	-0.224828	0.213839	-1.015007
N44	N	-0.694234	0.798395	-0.831904
H45	H	-0.842369	0.782583	-0.843143
H46	H	-0.658691	0.782595	-0.776678
H47	H	-0.244431	0.378574	-1.007363
H48	H	-0.159109	0.000126	-0.331137
N49	N	-0.860812	0.000133	-0.142490
H50	H	-0.952850	0.053614	-0.151004
H51	H	-0.940015	-0.053377	-0.155979
N52	N	-0.671732	0.609638	-0.840633
H53	H	-0.761221	0.652184	-0.805721
H54	H	-0.764812	0.571948	-0.873350
N55	N	-0.140213	0.798371	-1.048082
H56	H	0.011685	0.782575	-1.038306
H57	H	-0.171997	0.782539	-1.104769
H58	H	-0.154399	0.621626	-1.042529
N59	N	-0.764644	0.390580	-0.804362
H60	H	-0.752100	0.454994	-0.809267
H61	H	-0.912707	0.374698	-0.815631
H62	H	-0.708384	0.213841	-0.826302
N63	N	-0.807434	0.000064	-0.687600
H64	H	-0.918954	0.000068	-0.644461
H65	H	-0.829322	0.053540	-0.718799
N66	N	0.014923	0.000118	-0.548348
H67	H	-0.001296	0.000121	-0.489074
H68	H	0.100772	-0.053359	-0.568422
H69	H	-0.069226	0.000092	-0.705890
H70	H	-0.127245	0.000126	-0.182455
H71	H	-0.845045	0.000093	-0.303997
H72	H	-0.723290	0.000092	-0.530057
