data_functionalizedCrystal
_audit_creation_method	'MofGen! by Chris Wilmer'
_symmetry_space_group_name_H-M	'P1'
_symmetry_Int_Tables_number	1
_symmetry_cell_setting	triclinic
loop_
_symmetry_equiv_pos_as_xyz
  x,y,z
_cell_length_a	13.032831
_cell_length_b	13.032721
_cell_length_c	13.033255
_cell_angle_alpha	105.142687
_cell_angle_beta	76.666554
_cell_angle_gamma	90.902885
loop_
_atom_site_label
_atom_site_type_symbol
_atom_site_fract_x
_atom_site_fract_y
_atom_site_fract_z
Zn1	Zn	1.617261	-0.734619	-0.889146
Zn2	Zn	2.117261	-0.234619	-0.389146
Zn3	Zn	1.577758	-0.883949	-0.728354
Zn4	Zn	2.077758	-0.383949	-0.228354
Zn5	Zn	1.422820	-0.683795	-0.683318
Zn6	Zn	1.922820	-0.183795	-0.183318
Zn7	Zn	1.422781	-0.883855	-0.883384
Zn8	Zn	1.922781	-0.383855	-0.383384
O9	O	1.510155	-0.796554	-0.796051
O10	O	2.010155	-0.296554	-0.296051
O11	O	1.758254	-0.775738	-0.889076
O12	O	2.258254	-0.275738	-0.389076
O13	O	1.540690	-0.836167	-0.571359
O14	O	2.040690	-0.336167	-0.071359
O15	O	1.465162	-0.544316	-0.694185
O16	O	1.965162	-0.044316	-0.194185
O17	O	1.729231	-0.885449	-0.770942
O18	O	2.229231	-0.385449	-0.270942
O19	O	1.608017	-0.581657	-0.845406
O20	O	2.108017	-0.081657	-0.345406
O21	O	1.426858	-0.689114	-0.538271
O22	O	1.926858	-0.189114	-0.038271
O23	O	1.276582	-0.689023	-0.688598
O24	O	1.776582	-0.189023	-0.188598
O25	O	1.465094	-0.885289	-1.035170
O26	O	1.965094	-0.385289	-0.535170
O27	O	1.276553	-0.836007	-0.835586
O28	O	1.776553	-0.336007	-0.335586
O29	O	1.607978	-0.775647	-1.039403
O30	O	2.107978	-0.275647	-0.539403
O31	O	1.540652	-1.030157	-0.765355
O32	O	2.040652	-0.530157	-0.265355
O33	O	1.426790	-1.030088	-0.879256
O34	O	1.926790	-0.530088	-0.379256
C35	C	1.238651	-0.756990	-0.756581
C36	C	1.738651	-0.256990	-0.256581
C37	C	1.122501	-0.740094	-0.739723
C38	C	1.622501	-0.240094	-0.239723
C39	C	1.479461	-1.068043	-0.826595
C40	C	1.979461	-0.568043	-0.326595
C41	C	1.466429	-1.184206	-0.839712
C42	C	1.966429	-0.684206	-0.339712
C43	C	1.070708	-0.805373	-0.804848
C44	C	1.570708	-0.305373	-0.304848
C45	C	0.950660	-0.787911	-0.787427
C46	C	1.450660	-0.287911	-0.287427
C47	C	1.517017	-1.236010	-0.789261
C48	C	2.017017	-0.736010	-0.289261
C49	C	1.503550	-1.356071	-0.802817
C50	C	2.003550	-0.856071	-0.302817
C51	C	1.782719	-0.836273	-0.835675
C52	C	2.282719	-0.336273	-0.335675
C53	C	1.898870	-0.853199	-0.852561
C54	C	2.398870	-0.353199	-0.352561
C55	C	1.540938	-0.836127	-1.077539
C56	C	2.040938	-0.336127	-0.577539
C57	C	1.554056	-0.852990	-1.197493
C58	C	2.054056	-0.352990	-0.697493
C59	C	1.541000	-0.524013	-0.765415
C60	C	2.041000	-0.024013	-0.265415
C61	C	1.554145	-0.407872	-0.752360
C62	C	2.054145	0.092128	-0.252360
C63	C	1.517147	-0.805178	-1.358584
C64	C	2.017147	-0.305178	-0.858584
C65	C	1.503581	-0.787744	-1.234604
C66	C	2.003581	-0.287744	-0.734604
C67	C	1.479560	-0.757069	-0.515657
C68	C	1.979560	-0.257069	-0.015657
C69	C	1.466678	-0.739941	-0.395701
C70	C	1.966678	-0.239941	0.104299
H71	H	1.115242	-0.874186	-0.873504
H72	H	1.615242	-0.374186	-0.373504
C73	C	1.626103	-1.347721	-0.680421
C74	C	2.126103	-0.847721	-0.180421
H75	H	1.625701	-1.274914	-0.680728
H76	H	2.125701	-0.774914	-0.180728
H77	H	1.696064	-1.377934	-0.708446
H78	H	2.196064	-0.877934	-0.208446
H79	H	1.600914	-1.353191	-0.607687
H80	H	2.100914	-0.853191	-0.107687
H81	H	0.906132	-0.719087	-0.718774
H82	H	1.406132	-0.219087	-0.218774
C83	C	1.394451	-1.244357	-0.911621
C84	C	1.894451	-0.744357	-0.411621
H85	H	1.394837	-1.317159	-0.911293
H86	H	1.894837	-0.817159	-0.411293
H87	H	1.419607	-1.238893	-0.984355
H88	H	1.919607	-0.738893	-0.484355
H89	H	1.324491	-1.214132	-0.883561
H90	H	1.824491	-0.714132	-0.383561
C91	C	0.959009	-0.946189	-0.945293
C92	C	1.459009	-0.446189	-0.445293
H93	H	1.031802	-0.945741	-0.944826
H94	H	1.531802	-0.445741	-0.444826
H95	H	0.950844	-0.938654	-1.013565
H96	H	1.450844	-0.438654	-0.513565
H97	H	0.931490	-1.011552	-0.934675
H98	H	1.431490	-0.511552	-0.434675
C99	C	1.062351	-0.647124	-0.646981
C100	C	1.562351	-0.147124	-0.146981
H101	H	0.989555	-0.647587	-0.647437
H102	H	1.489555	-0.147587	-0.147437
H103	H	1.089860	-0.581754	-0.657568
H104	H	1.589860	-0.081754	-0.157568
H105	H	1.070519	-0.654688	-0.578715
H106	H	1.570519	-0.154688	-0.078715
C107	C	1.588998	-1.175860	-0.717354
C108	C	2.088998	-0.675860	-0.217354
H109	H	1.588602	-1.103055	-0.717672
H110	H	2.088602	-0.603055	-0.217672
H111	H	1.658952	-1.206086	-0.745403
H112	H	2.158952	-0.706086	-0.245403
H113	H	1.563831	-1.181319	-0.644614
H114	H	2.063831	-0.681319	-0.144614
H115	H	1.450270	-1.400601	-0.856054
H116	H	1.950270	-0.900601	-0.356054
H117	H	1.570393	-0.873940	-1.418593
H118	H	2.070393	-0.373940	-0.918593
C119	C	1.431639	-0.694851	-1.153550
C120	C	1.931639	-0.194851	-0.653550
H121	H	1.431964	-0.695315	-1.080855
H122	H	1.931964	-0.195315	-0.580855
H123	H	1.361698	-0.702479	-1.163482
H124	H	1.861698	-0.202479	-0.663482
H125	H	1.456889	-0.629443	-1.166298
H126	H	1.956889	-0.129443	-0.666298
C127	C	1.626004	-0.945881	-1.278545
C128	C	2.126004	-0.445881	-0.778545
H129	H	1.625692	-0.945410	-1.351241
H130	H	2.125692	-0.445410	-0.851241
H131	H	1.600769	-1.011289	-1.265798
H132	H	2.100769	-0.511289	-0.765798
H133	H	1.695948	-0.938237	-1.268610
H134	H	2.195948	-0.438237	-0.768610
C135	C	1.394740	-0.647052	-1.314643
C136	C	1.894740	-0.147052	-0.814643
H137	H	1.395065	-0.647516	-1.241948
H138	H	1.895065	-0.147516	-0.741948
H139	H	1.324799	-0.654680	-1.324575
H140	H	1.824799	-0.154680	-0.824575
H141	H	1.419991	-0.581644	-1.327391
H142	H	1.919991	-0.081644	-0.827391
