data_functionalizedCrystal
_audit_creation_method	'MofGen! by Chris Wilmer'
_symmetry_space_group_name_H-M	'P1'
_symmetry_Int_Tables_number	1
_symmetry_cell_setting	triclinic
loop_
_symmetry_equiv_pos_as_xyz
  x,y,z
_cell_length_a	33.428889
_cell_length_b	33.428139
_cell_length_c	33.424847
_cell_angle_alpha	60.004234
_cell_angle_beta	60.008465
_cell_angle_gamma	59.994972
loop_
_atom_site_label
_atom_site_type_symbol
_atom_site_fract_x
_atom_site_fract_y
_atom_site_fract_z
O1	O	0.055565	-0.584504	0.488714
O2	O	0.555565	-0.084504	0.988714
O3	O	0.020982	-0.455083	0.393778
O4	O	0.520982	0.044917	0.893778
O5	O	0.102943	-0.536959	0.393689
O6	O	0.602943	-0.036959	0.893689
O7	O	-0.026396	-0.502628	0.488803
O8	O	0.473604	-0.002628	0.988803
O9	O	0.130140	-0.509767	0.420792
O10	O	0.630140	-0.009767	0.920792
O11	O	0.048179	-0.427891	0.420881
O12	O	0.548179	0.072109	0.920881
O13	O	0.082762	-0.557312	0.515817
O14	O	0.582762	-0.057312	1.015817
Cu15	Cu	0.067954	-0.490119	0.470823
Cu16	Cu	0.567954	0.009881	0.970823
Cu17	Cu	0.035790	-0.522276	0.438771
Cu18	Cu	0.535790	-0.022276	0.938771
O19	O	0.000801	-0.475436	0.515906
O20	O	0.500801	0.024564	1.015906
N21	N	0.090577	-0.467504	0.493370
N22	N	0.590577	0.032496	0.993370
N23	N	0.013171	-0.544895	0.416225
N24	N	0.513171	-0.044895	0.916225
C25	C	0.143377	-0.280390	0.546067
C26	C	0.643377	0.219610	1.046067
C27	C	0.143515	-0.414755	0.680369
C28	C	0.643515	0.085245	1.180369
C29	C	0.143392	-0.414735	0.546069
C30	C	0.643392	0.085265	1.046069
C31	C	0.277766	-0.414702	0.545966
C32	C	0.777766	0.085298	1.045966
C33	C	0.158177	-0.324719	0.560828
C34	C	0.658177	0.175281	1.060828
C35	C	0.158255	-0.399967	0.636038
C36	C	0.658255	0.100033	1.136038
C37	C	0.233434	-0.399936	0.560773
C38	C	0.733434	0.100064	1.060773
C39	C	0.158186	-0.399955	0.560829
C40	C	0.658186	0.100045	1.060829
C41	C	0.124540	-0.223964	0.527278
C42	C	0.624540	0.276036	1.027278
C43	C	0.124565	-0.433545	0.527281
C44	C	0.624565	0.066455	1.027281
C45	C	0.177014	-0.381145	0.579617
C46	C	0.677014	0.118855	1.079617
C47	C	0.359814	-0.400540	0.502735
C48	C	0.859814	0.099460	1.002735
C49	C	0.411105	-0.417624	0.485606
C50	C	0.911105	0.082376	0.985606
C51	C	0.411136	-0.500620	0.517255
C52	C	0.911136	-0.000620	1.017255
C53	C	0.359845	-0.483534	0.534385
C54	C	0.859845	0.016466	1.034385
C55	C	0.136887	-0.198305	0.476855
C56	C	0.636887	0.301695	0.976855
C57	C	0.119761	-0.147011	0.459777
C58	C	0.619761	0.352989	0.959777
C59	C	0.077945	-0.147038	0.543547
C60	C	0.577945	0.352962	1.043547
C61	C	0.095072	-0.198332	0.560625
C62	C	0.595072	0.301668	1.060625
C63	C	0.074134	-0.421169	0.539710
C64	C	0.574134	0.078831	1.039710
C65	C	0.057023	-0.438269	0.522625
C66	C	0.557023	0.061731	1.022625
C67	C	0.140770	-0.480120	0.480694
C68	C	0.640770	0.019880	0.980694
C69	C	0.157883	-0.463020	0.497773
C70	C	0.657883	0.036980	0.997773
C71	C	0.074339	-0.421208	0.762475
C72	C	0.574339	0.078792	1.262475
C73	C	0.057288	-0.438323	0.813768
C74	C	0.557288	0.061677	1.313768
C75	C	0.141075	-0.480183	0.813699
C76	C	0.641075	0.019817	1.313699
C77	C	0.158125	-0.463069	0.762404
C78	C	0.658125	0.036931	1.262404
C79	C	0.124756	-0.433580	0.736794
C80	C	0.624756	0.066420	1.236794
C81	C	0.334186	-0.433494	0.527123
C82	C	0.834186	0.066506	1.027123
C83	C	-0.173769	-0.597444	0.363037
C84	C	0.326231	-0.097444	0.863037
C85	C	-0.039302	-0.597595	0.228856
C86	C	0.460698	-0.097595	0.728856
C87	C	-0.039496	-0.597587	0.363300
C88	C	0.460504	-0.097587	0.863300
C89	C	-0.039512	-0.731889	0.363237
C90	C	0.460488	-0.231889	0.863237
C91	C	-0.129442	-0.612265	0.348329
C92	C	0.370558	-0.112265	0.848329
C93	C	-0.054138	-0.612351	0.273187
C94	C	0.445862	-0.112351	0.773187
C95	C	-0.054257	-0.687554	0.348440
C96	C	0.445743	-0.187554	0.848440
C97	C	-0.054247	-0.612346	0.348477
C98	C	0.445753	-0.112346	0.848477
C99	C	-0.230191	-0.578579	0.381758
C100	C	0.269809	-0.078579	0.881758
C101	C	-0.020722	-0.578803	0.382168
C102	C	0.479278	-0.078803	0.882168
C103	C	-0.073020	-0.631130	0.329609
C104	C	0.426980	-0.131130	0.829609
C105	C	-0.053713	-0.813916	0.406386
C106	C	0.446287	-0.313916	0.906386
C107	C	-0.036654	-0.865210	0.423504
C108	C	0.463346	-0.365210	0.923504
C109	C	0.046338	-0.865293	0.391984
C110	C	0.546338	-0.365293	0.891984
C111	C	0.029278	-0.813999	0.374865
C112	C	0.529278	-0.313999	0.874865
C113	C	-0.255900	-0.590938	0.432169
C114	C	0.244100	-0.090938	0.932169
C115	C	-0.307191	-0.573786	0.449185
C116	C	0.192809	-0.073786	0.949185
C117	C	-0.307060	-0.531922	0.365377
C118	C	0.192940	-0.031922	0.865377
C119	C	-0.255769	-0.549074	0.348360
C120	C	0.244231	-0.049074	0.848360
C121	C	-0.033081	-0.528377	0.369764
C122	C	0.466919	-0.028377	0.869764
C123	C	-0.016014	-0.511306	0.386922
C124	C	0.483986	-0.011306	0.886922
C125	C	0.025770	-0.595083	0.428877
C126	C	0.525770	-0.095083	0.928877
C127	C	0.008703	-0.612156	0.411725
C128	C	0.508703	-0.112156	0.911725
C129	C	-0.032755	-0.528393	0.146761
C130	C	0.467245	-0.028393	0.646761
C131	C	-0.015585	-0.511324	0.095468
C132	C	0.484415	-0.011324	0.595468
C133	C	0.026262	-0.595106	0.095516
C134	C	0.526262	-0.095106	0.595516
C135	C	0.009094	-0.612174	0.146811
C136	C	0.509094	-0.112174	0.646811
C137	C	-0.020417	-0.578816	0.172432
C138	C	0.479583	-0.078816	0.672432
C139	C	-0.020748	-0.788312	0.382068
C140	C	0.479252	-0.288312	0.882068
N141	N	0.436037	-0.467415	0.493101
N142	N	0.936037	0.032585	0.993101
O143	O	0.592642	-0.471896	0.376066
O144	O	1.092642	0.028104	0.876066
O145	O	0.592838	-0.567146	0.505347
O146	O	1.092838	-0.067146	1.005347
O147	O	0.592754	-0.566928	0.423360
O148	O	1.092754	-0.066928	0.923360
O149	O	0.592727	-0.472113	0.458053
O150	O	1.092727	0.027887	0.958053
O151	O	0.511269	-0.539835	0.450606
O152	O	1.011269	-0.039835	0.950606
O153	O	0.511353	-0.540052	0.532594
O154	O	1.011353	-0.040052	1.032594
O155	O	0.511157	-0.444802	0.403312
O156	O	1.011157	0.055198	0.903312
Cu157	Cu	0.503815	-0.489954	0.470441
Cu158	Cu	1.003815	0.010046	0.970441
Cu159	Cu	0.600180	-0.521995	0.438219
Cu160	Cu	1.100180	-0.021995	0.938219
O161	O	0.511242	-0.445020	0.485300
O162	O	1.011242	0.054980	0.985300
N163	N	0.667959	-0.544533	0.415554
N164	N	1.167959	-0.044533	0.915554
N165	N	0.090544	-0.122107	0.493359
N166	N	0.590544	0.377893	0.993359
O167	O	-0.026406	0.034587	0.488773
O168	O	0.473594	0.534587	0.988773
O169	O	0.102877	0.034627	0.393499
O170	O	0.602877	0.534627	0.893499
O171	O	0.020848	0.034591	0.393771
O172	O	0.520848	0.534591	0.893771
O173	O	0.055623	0.034623	0.488500
O174	O	0.555623	0.534623	0.988500
O175	O	0.048051	-0.046899	0.420925
O176	O	0.548051	0.453101	0.920925
O177	O	0.130080	-0.046864	0.420653
O178	O	0.630080	0.453136	0.920653
O179	O	0.000796	-0.046903	0.515927
O180	O	0.500796	0.453097	1.015927
Cu181	Cu	0.067922	-0.054324	0.470769
Cu182	Cu	0.567922	0.445676	0.970769
Cu183	Cu	0.035752	0.042048	0.438656
Cu184	Cu	0.535752	0.542048	0.938656
O185	O	0.082825	-0.046867	0.515655
O186	O	0.582825	0.453133	1.015655
N187	N	0.013123	0.109830	0.416068
N188	N	0.513123	0.609830	0.916068
N189	N	0.090892	-0.467554	0.838649
N190	N	0.590892	0.032446	1.338649
O191	O	0.086330	-0.584488	0.995334
O192	O	0.586330	-0.084488	1.495334
O193	O	-0.008902	-0.455160	0.995379
O194	O	0.491098	0.044840	1.495379
O195	O	-0.008679	-0.537172	0.995355
O196	O	0.491321	-0.037172	1.495355
O197	O	0.086107	-0.502475	0.995358
O198	O	0.586107	-0.002475	1.495358
O199	O	0.018452	-0.509990	0.913868
O200	O	0.518452	-0.009990	1.413868
O201	O	0.018230	-0.427978	0.913891
O202	O	0.518230	0.072022	1.413891
O203	O	0.113461	-0.557306	0.913847
O204	O	0.613461	-0.057306	1.413847
Cu205	Cu	0.068323	-0.490160	0.906429
Cu206	Cu	0.568323	0.009840	1.406429
Cu207	Cu	0.036237	-0.522306	1.002797
Cu208	Cu	0.536237	-0.022306	1.502797
O209	O	0.113239	-0.475293	0.913870
O210	O	0.613239	0.024707	1.413870
N211	N	0.013667	-0.544916	1.070577
N212	N	0.513667	-0.044916	1.570577
C213	C	0.031339	-0.425179	0.394250
C214	C	0.531339	0.074821	0.894250
C215	C	0.132837	-0.526572	0.394139
C216	C	0.632837	-0.026572	0.894139
C217	C	0.072405	-0.587216	0.515344
C218	C	0.572405	-0.087216	1.015344
C219	C	-0.029093	-0.485823	0.515455
C220	C	0.470907	0.014177	1.015455
C221	C	0.552119	-0.566716	0.535258
C222	C	1.052119	-0.066716	1.035258
C223	C	0.552016	-0.566447	0.433726
C224	C	1.052016	-0.066447	0.933726
C225	C	0.551873	-0.445232	0.373402
C226	C	1.051873	0.054768	0.873402
C227	C	0.551980	-0.445502	0.474933
C228	C	1.051980	0.054498	0.974933
C229	C	0.132731	-0.006013	0.393923
C230	C	0.632731	0.493987	0.893923
C231	C	0.031182	-0.006158	0.394293
C232	C	0.531182	0.493842	0.894293
C233	C	-0.029092	-0.006163	0.515469
C234	C	0.470908	0.493837	1.015469
C235	C	0.072491	-0.006119	0.515133
C236	C	0.572491	0.493881	1.015133
C237	C	-0.008451	-0.425276	0.954641
C238	C	0.491549	0.074724	1.454641
C239	C	-0.008170	-0.526833	0.954596
C240	C	0.491830	-0.026833	1.454596
C241	C	0.113010	-0.587190	0.954585
C242	C	0.613010	-0.087190	1.454585
C243	C	0.112735	-0.485627	0.954611
C244	C	0.612735	0.014373	1.454611
H245	H	0.016234	-0.428240	0.834672
H246	H	0.516234	0.071760	1.334672
O247	O	0.081464	-0.006140	0.550596
O248	O	0.581464	0.493860	1.050596
C249	C	0.129621	-0.006114	0.532722
C250	C	0.629621	0.493886	1.032722
H251	H	0.152782	-0.021531	0.501264
H252	H	0.652782	0.478469	1.001264
H253	H	0.146135	-0.029774	0.563392
H254	H	0.646135	0.470226	1.063392
H255	H	0.128888	0.032985	0.519057
H256	H	0.628888	0.532985	1.019057
O257	O	0.176952	-0.005705	0.358196
O258	O	0.676952	0.494295	0.858196
C259	C	0.207436	-0.005608	0.375780
C260	C	0.707436	0.494392	0.875780
H261	H	0.183876	0.009655	0.407348
H262	H	0.683876	0.509655	0.907348
H263	H	0.230711	0.018247	0.345006
H264	H	0.730711	0.518247	0.845006
H265	H	0.232372	-0.044648	0.389203
H266	H	0.732372	0.455352	0.889203
H267	H	-0.066220	-0.006175	0.545378
H268	H	0.433780	0.493825	1.045378
O269	O	-0.073430	-0.477151	0.551074
O270	O	0.426570	0.022849	1.051074
C271	C	-0.095147	-0.510812	0.564283
C272	C	0.404853	-0.010812	1.064283
H273	H	-0.078947	-0.525106	0.532852
H274	H	0.421053	-0.025106	1.032852
H275	H	-0.136371	-0.491802	0.572345
H276	H	0.363629	0.008198	1.072345
H277	H	-0.087685	-0.542747	0.598330
H278	H	0.412315	-0.042747	1.098330
O279	O	0.551867	-0.409537	0.329107
O280	O	1.051867	0.090463	0.829107
C281	C	0.594048	-0.396348	0.307378
C282	C	1.094048	0.103652	0.807378
H283	H	0.608159	-0.406270	0.337065
H284	H	1.108159	0.093730	0.837065
H285	H	0.584505	-0.355216	0.286881
H286	H	1.084505	0.144784	0.786881
H287	H	0.623588	-0.416893	0.280619
H288	H	1.123588	0.083107	0.780619
H289	H	-0.038348	-0.388133	0.954654
H290	H	0.461652	0.111867	1.454654
O291	O	-0.043621	-0.535745	0.954532
O292	O	0.456379	-0.035745	1.454532
C293	C	-0.025771	-0.583909	0.954516
C294	C	0.474229	-0.083909	1.454516
H295	H	0.015963	-0.596807	0.939106
H296	H	0.515963	-0.096807	1.439106
H297	H	-0.040672	-0.584600	0.930829
H298	H	0.459328	-0.084600	1.430829
H299	H	-0.038170	-0.609266	0.993599
H300	H	0.461830	-0.109266	1.493599
O301	O	0.148620	-0.631533	0.954588
O302	O	0.648620	-0.131533	1.454588
C303	C	0.130990	-0.662020	0.954566
C304	C	0.630990	-0.162020	1.454566
H305	H	0.089256	-0.648755	0.970004
H306	H	0.589256	-0.148755	1.470004
H307	H	0.146025	-0.701273	0.978210
H308	H	0.646025	-0.201273	1.478210
H309	H	0.143430	-0.660685	0.915468
H310	H	0.643430	-0.160685	1.415468
H311	H	0.169984	-0.533889	0.364272
H312	H	0.669984	-0.033889	0.864272
O313	O	0.552205	-0.602345	0.579573
O314	O	1.052205	-0.102345	1.079573
C315	C	0.552210	-0.584698	0.610063
C316	C	1.052210	-0.084698	1.110063
H317	H	0.567596	-0.553223	0.586500
H318	H	1.067596	-0.053223	1.086500
H319	H	0.575911	-0.615479	0.633505
H320	H	1.075911	-0.115479	1.133505
H321	H	0.513128	-0.571122	0.634837
H322	H	1.013128	-0.071122	1.134837
H323	H	0.551974	-0.415718	0.482355
H324	H	1.051974	0.084282	0.982355
O325	O	0.148217	-0.476683	0.954583
O326	O	0.648217	0.023317	1.454583
C327	C	0.130364	-0.428523	0.954609
C328	C	0.630364	0.071477	1.454609
H329	H	0.098901	-0.405341	0.939195
H330	H	0.598901	0.094659	1.439195
H331	H	0.161042	-0.412035	0.930948
H332	H	0.661042	0.087965	1.430948
H333	H	0.116713	-0.429249	0.993706
H334	H	0.616713	0.070751	1.493706
O335	O	0.022437	-0.380808	0.358721
O336	O	0.522437	0.119192	0.858721
C337	C	-0.025709	-0.350420	0.376514
C338	C	0.474291	0.149580	0.876514
H339	H	-0.048920	-0.374069	0.407986
H340	H	0.451080	0.125931	0.907986
H341	H	-0.042173	-0.326932	0.345807
H342	H	0.457827	0.173068	0.845807
H343	H	-0.024967	-0.325686	0.390135
H344	H	0.475033	0.174314	0.890135
O345	O	0.081211	-0.631605	0.550874
O346	O	0.581211	-0.131605	1.050874
C347	C	0.092728	-0.668506	0.534054
C348	C	0.592728	-0.168506	1.034054
H349	H	0.076931	-0.651792	0.503619
H350	H	0.576931	-0.151792	1.003619
H351	H	0.076348	-0.697836	0.565632
H352	H	0.576348	-0.197836	1.065632
H353	H	0.134218	-0.685728	0.519308
H354	H	0.634218	-0.185728	1.019308
O355	O	0.041856	-0.392582	0.737675
O356	O	0.541856	0.107418	1.237675
C357	C	-0.006300	-0.385321	0.771342
C358	C	0.493700	0.114679	1.271342
H359	H	-0.006170	-0.416254	0.807895
H360	H	0.493830	0.083746	1.307895
H361	H	-0.030674	-0.385054	0.756548
H362	H	0.469326	0.114946	1.256548
H363	H	-0.020995	-0.348785	0.776809
H364	H	0.479005	0.151215	1.276809
O365	O	0.552007	-0.601922	0.424800
O366	O	1.052007	-0.101922	0.924800
C367	C	0.551959	-0.584075	0.376648
C368	C	1.051959	-0.084075	0.876648
H369	H	0.536491	-0.542340	0.363776
H370	H	1.036491	-0.042340	0.863776
H371	H	0.528307	-0.599016	0.375964
H372	H	1.028307	-0.099016	0.875964
H373	H	0.591038	-0.596436	0.351267
H374	H	1.091038	-0.096436	0.851267
H375	H	0.198948	-0.473094	0.487648
H376	H	0.698948	0.026906	0.987648
O377	O	0.022316	-0.006265	0.358830
O378	O	0.522316	0.493735	0.858830
C379	C	0.010791	-0.048479	0.375734
C380	C	0.510791	0.451521	0.875734
H381	H	0.026624	-0.077962	0.406153
H382	H	0.526624	0.422038	0.906153
H383	H	0.027130	-0.062658	0.344191
H384	H	0.527130	0.437342	0.844191
H385	H	-0.030700	-0.038953	0.390527
H386	H	0.469300	0.461047	0.890527
O387	O	0.173557	-0.508839	0.838501
O388	O	0.673557	-0.008839	1.338501
C389	C	0.221713	-0.516079	0.804836
C390	C	0.721713	-0.016079	1.304836
H391	H	0.221587	-0.510335	0.768281
H392	H	0.721587	-0.010335	1.268281
H393	H	0.246087	-0.554981	0.819629
H394	H	0.746087	-0.054981	1.319629
H395	H	0.236406	-0.488776	0.799375
H396	H	0.736406	0.011224	1.299375
H397	H	0.199181	-0.473148	0.741498
H398	H	0.699181	0.026852	1.241498
H399	H	0.047002	-0.397168	0.563734
H400	H	0.547002	0.102832	1.063734
H401	H	0.167905	-0.504126	0.456671
H402	H	0.667905	-0.004126	0.956671
O403	O	0.008031	-0.426312	0.534781
O404	O	0.508031	0.073688	1.034781
C405	C	-0.013225	-0.443868	0.586160
C406	C	0.486775	0.056132	1.086160
H407	H	0.016008	-0.475499	0.602663
H408	H	0.516008	0.024501	1.102663
H409	H	-0.043456	-0.457199	0.595997
H410	H	0.456544	0.042801	1.095997
H411	H	-0.029417	-0.413105	0.601365
H412	H	0.470583	0.086895	1.101365
O413	O	0.335028	-0.515611	0.558048
O414	O	0.835028	-0.015611	1.058048
C415	C	0.368679	-0.563442	0.560790
C416	C	0.868679	-0.063442	1.060790
H417	H	0.405224	-0.561478	0.530477
H418	H	0.905224	-0.061478	1.030477
H419	H	0.353854	-0.584501	0.556161
H420	H	0.853854	-0.084501	1.056161
H421	H	0.374170	-0.583023	0.597950
H422	H	0.874170	-0.083023	1.097950
H423	H	0.432025	-0.541365	0.523165
H424	H	0.932025	-0.041365	1.023165
H425	H	0.338923	-0.359792	0.496821
H426	H	0.838923	0.140208	0.996821
O427	O	0.435928	-0.385544	0.461903
O428	O	0.935928	0.114456	0.961903
C429	C	0.402283	-0.337714	0.459176
C430	C	0.902283	0.162286	0.959176
H431	H	0.365711	-0.335723	0.462566
H432	H	0.865711	0.164277	0.962566
H433	H	0.417074	-0.310602	0.422511
H434	H	0.917074	0.189398	0.922511
H435	H	0.396857	-0.328139	0.490245
H436	H	0.896857	0.171861	0.990245
H437	H	0.129813	-0.126117	0.418717
H438	H	0.629813	0.373883	0.918717
O439	O	0.165438	-0.223180	0.444442
O440	O	0.665438	0.276820	0.944442
C441	C	0.139507	-0.210640	0.414809
C442	C	0.639507	0.289360	0.914809
H443	H	0.098478	-0.196555	0.434643
H444	H	0.598478	0.303445	0.934643
H445	H	0.148683	-0.244370	0.407052
H446	H	0.648683	0.255630	0.907052
H447	H	0.150393	-0.180854	0.378772
H448	H	0.650393	0.319146	0.878772
O449	O	0.049311	-0.122213	0.576006
O450	O	0.549311	0.377787	1.076006
C451	C	0.042104	-0.155861	0.624174
C452	C	0.542104	0.344139	1.124174
H453	H	0.047840	-0.192427	0.624082
H454	H	0.547840	0.307573	1.124082
H455	H	0.003215	-0.141058	0.648553
H456	H	0.503215	0.358942	1.148553
H457	H	0.069427	-0.161309	0.638839
H458	H	0.569427	0.338691	1.138839
H459	H	0.085016	-0.219221	0.601683
H460	H	0.585016	0.280779	1.101683
H461	H	-0.056788	-0.501226	0.167618
H462	H	0.443212	-0.001226	0.667618
O463	O	-0.027644	-0.462325	0.070611
O464	O	0.472356	0.037675	0.570611
C465	C	-0.057364	-0.436548	0.104228
C466	C	0.442636	0.063452	0.604228
H467	H	-0.076056	-0.460986	0.140772
H468	H	0.423944	0.039014	0.640772
H469	H	-0.086348	-0.402300	0.089355
H470	H	0.413652	0.097700	0.589355
H471	H	-0.033723	-0.425512	0.109740
H472	H	0.466277	0.074488	0.609740
H473	H	0.050281	-0.622271	0.074658
H474	H	0.550281	-0.122271	0.574658
O475	O	0.021021	-0.661163	0.171725
O476	O	0.521021	-0.161163	0.671725
C477	C	0.003510	-0.682437	0.159127
C478	C	0.503510	-0.182437	0.659127
H479	H	-0.028085	-0.653206	0.144964
H480	H	0.471915	-0.153206	0.644964
H481	H	-0.009853	-0.712650	0.192846
H482	H	0.490147	-0.212650	0.692846
H483	H	0.034308	-0.698658	0.129384
H484	H	0.534308	-0.198658	0.629384
O485	O	-0.061739	-0.495956	0.341132
O486	O	0.438261	0.004044	0.841132
C487	C	-0.104764	-0.466260	0.366984
C488	C	0.395236	0.033740	0.866984
H489	H	-0.111952	-0.486056	0.408029
H490	H	0.388048	0.013944	0.908029
H491	H	-0.137046	-0.458472	0.357742
H492	H	0.362954	0.041528	0.857742
H493	H	-0.100087	-0.430241	0.356084
H494	H	0.399913	0.069759	0.856084
O495	O	-0.027924	-0.462335	0.374855
O496	O	0.472076	0.037665	0.874855
C497	C	0.015198	-0.450003	0.349102
C498	C	0.515198	0.049997	0.849102
H499	H	0.047387	-0.483835	0.358416
H500	H	0.547387	0.016165	0.858416
H501	H	0.010607	-0.420266	0.360031
H502	H	0.510607	0.079734	0.860031
H503	H	0.022470	-0.435936	0.308036
H504	H	0.522470	0.064064	0.808036
O505	O	0.054409	-0.627533	0.457528
O506	O	0.554409	-0.127533	0.957528
C507	C	0.097447	-0.657216	0.431673
C508	C	0.597447	-0.157216	0.931673
H509	H	0.090613	-0.657713	0.401778
H510	H	0.590613	-0.157713	0.901778
H511	H	0.108221	-0.696112	0.458016
H512	H	0.608221	-0.196112	0.958016
H513	H	0.128309	-0.641824	0.414318
H514	H	0.628309	-0.141824	0.914318
O515	O	0.020687	-0.661151	0.423855
O516	O	0.520687	-0.161151	0.923855
C517	C	0.003064	-0.682427	0.475226
C518	C	0.503064	-0.182427	0.975226
H519	H	-0.001985	-0.658111	0.493196
H520	H	0.498015	-0.158111	0.993196
H521	H	0.030518	-0.720173	0.487261
H522	H	0.530518	-0.220173	0.987261
H523	H	-0.033592	-0.686201	0.486762
H524	H	0.466408	-0.186201	0.986762
H525	H	0.087072	-0.886205	0.386121
H526	H	0.587072	-0.386205	0.886121
O527	O	0.061358	-0.789185	0.351193
O528	O	0.561358	-0.289185	0.851193
C529	C	0.096212	-0.801745	0.308926
C530	C	0.596212	-0.301745	0.808926
H531	H	0.098612	-0.838977	0.313548
H532	H	0.598612	-0.338977	0.813548
H533	H	0.133532	-0.803541	0.303387
H534	H	0.633532	-0.303541	0.803387
H535	H	0.084676	-0.772874	0.275665
H536	H	0.584676	-0.272874	0.775665
O537	O	-0.068744	-0.890009	0.447136
O538	O	0.431256	-0.390009	0.947136
C539	C	-0.116556	-0.856339	0.449812
C540	C	0.383444	-0.356339	0.949812
H541	H	-0.118547	-0.819783	0.446462
H542	H	0.381453	-0.319783	0.946462
H543	H	-0.143700	-0.871129	0.486443
H544	H	0.356300	-0.371129	0.986443
H545	H	-0.126084	-0.850880	0.418696
H546	H	0.373916	-0.350880	0.918696
O547	O	-0.102288	-0.788902	0.413287
O548	O	0.397712	-0.288902	0.913287
C549	C	-0.109183	-0.759245	0.367465
C550	C	0.390817	-0.259245	0.867465
H551	H	-0.073890	-0.751606	0.338935
H552	H	0.426110	-0.251606	0.838935
H553	H	-0.139963	-0.723152	0.370381
H554	H	0.360037	-0.223152	0.870381
H555	H	-0.119272	-0.778994	0.356027
H556	H	0.380728	-0.278994	0.856027
O557	O	-0.231130	-0.619575	0.464677
O558	O	0.268870	-0.119575	0.964677
C559	C	-0.264822	-0.626810	0.512822
C560	C	0.235178	-0.126810	1.012822
H561	H	-0.301362	-0.595856	0.512673
H562	H	0.198638	-0.095856	1.012673
H563	H	-0.250043	-0.627092	0.537220
H564	H	0.249957	-0.127092	1.037220
H565	H	-0.270304	-0.663332	0.527505
H566	H	0.229696	-0.163332	1.027505
H567	H	-0.327887	-0.507903	0.338181
H568	H	0.172113	-0.007903	0.838181
O569	O	-0.332188	-0.585709	0.498152
O570	O	0.167812	-0.085709	0.998152
C571	C	-0.361863	-0.542595	0.510521
C572	C	0.138137	-0.042595	1.010521
H573	H	-0.346366	-0.511807	0.481626
H574	H	0.153634	-0.011807	0.981626
H575	H	-0.362497	-0.549354	0.547782
H576	H	0.137503	-0.049354	1.047782
H577	H	-0.400720	-0.531763	0.512160
H578	H	0.099280	-0.031763	1.012160
O579	O	-0.230873	-0.537040	0.299375
O580	O	0.269127	-0.037040	0.799375
C581	C	-0.264450	-0.507308	0.273550
C582	C	0.235550	-0.007308	0.773550
H583	H	-0.301033	-0.513813	0.297958
H584	H	0.198967	-0.013813	0.797958
H585	H	-0.249589	-0.516930	0.239314
H586	H	0.250411	-0.016930	0.739314
H587	H	-0.269880	-0.467139	0.262494
H588	H	0.230120	0.032861	0.762494
