data_functionalizedCrystal
_audit_creation_method	'MofGen! by Chris Wilmer'
_symmetry_space_group_name_H-M	'P1'
_symmetry_Int_Tables_number	1
_symmetry_cell_setting	triclinic
loop_
_symmetry_equiv_pos_as_xyz
  x,y,z
_cell_length_a	14.971487
_cell_length_b	19.188930
_cell_length_c	14.048226
_cell_angle_alpha	89.988446
_cell_angle_beta	90.000286
_cell_angle_gamma	96.620407
loop_
_atom_site_label
_atom_site_type_symbol
_atom_site_fract_x
_atom_site_fract_y
_atom_site_fract_z
O1	O	-1.186466	0.090990	-0.079035
O2	O	-0.686466	0.590990	0.420965
O3	O	-0.926008	0.101886	-0.079069
O4	O	-0.426008	0.601886	0.420931
O5	O	-1.063753	-0.005194	-0.079032
O6	O	-0.563753	0.494806	0.420968
O7	O	-1.048721	0.198069	-0.079072
O8	O	-0.548721	0.698069	0.420928
O9	O	-1.063737	-0.005200	0.079289
O10	O	-0.563737	0.494800	0.579289
O11	O	-0.925992	0.101879	0.079253
O12	O	-0.425992	0.601879	0.579253
O13	O	-1.186450	0.090984	0.079286
O14	O	-0.686450	0.590984	0.579286
Zn15	Zn	-1.056218	0.096431	0.104406
Zn16	Zn	-0.556218	0.596431	0.604406
Zn17	Zn	-1.056240	0.096439	-0.104189
Zn18	Zn	-0.556240	0.596439	0.395811
O19	O	-1.048704	0.198063	0.079250
O20	O	-0.548704	0.698063	0.579250
C21	C	-0.892678	0.101395	0.000088
C22	C	-0.392678	0.601395	0.500088
C23	C	-0.793389	0.099935	0.000076
C24	C	-0.293389	0.599935	0.500076
C25	C	-0.735831	0.162841	0.000064
C26	C	-0.235831	0.662841	0.500064
C27	C	-0.642539	0.161464	0.000077
C28	C	-0.142539	0.661464	0.500077
C29	C	-0.606806	0.097181	0.000094
C30	C	-0.106806	0.597181	0.500094
C31	C	-0.664371	0.034270	0.000109
C32	C	-0.164371	0.534270	0.500109
C33	C	-0.757661	0.035647	0.000103
C34	C	-0.257661	0.535647	0.500103
C35	C	-0.469924	0.031404	0.000118
C36	C	0.030076	0.531404	0.500118
C37	C	-0.376627	0.030027	0.000122
C38	C	0.123373	0.530027	0.500122
C39	C	-0.354801	0.157221	0.000092
C40	C	0.145199	0.657221	0.500092
C41	C	-0.448092	0.158598	0.000086
C42	C	0.051908	0.658598	0.500086
C43	C	-0.505650	0.095687	0.000099
C44	C	-0.005650	0.595687	0.500099
C45	C	-1.063258	-0.031209	0.000131
C46	C	-0.563258	0.468791	0.500131
C47	C	-1.061797	-0.108719	0.000139
C48	C	-0.561797	0.391281	0.500139
C49	C	-1.142621	-0.153382	0.000154
C50	C	-0.642621	0.346618	0.500154
C51	C	-1.141248	-0.226210	0.000138
C52	C	-0.641248	0.273790	0.500138
C53	C	-1.059047	-0.254372	0.000127
C54	C	-0.559047	0.245628	0.500127
C55	C	-0.978212	-0.209698	0.000107
C56	C	-0.478212	0.290302	0.500107
C57	C	-0.979587	-0.136872	0.000113
C58	C	-0.479587	0.363128	0.500113
N59	N	-0.996208	-0.362581	0.053999
N60	N	-0.496208	0.137419	0.553999
N61	N	-0.994907	-0.431764	0.053995
N62	N	-0.494907	0.068236	0.553995
C63	C	-1.054898	-0.473794	0.000107
C64	C	-0.554898	0.026206	0.500107
N65	N	-1.116254	-0.444028	-0.053765
N66	N	-0.616254	0.055972	0.446235
N67	N	-1.117557	-0.374840	-0.053757
N68	N	-0.617557	0.125160	0.446243
C69	C	-1.057546	-0.333339	0.000120
C70	C	-0.557546	0.166661	0.500120
C71	C	-1.134240	-0.597427	0.000104
C72	C	-0.634240	-0.097427	0.500104
C73	C	-1.132863	-0.670256	0.000083
C74	C	-0.632863	-0.170256	0.500083
C75	C	-0.969824	-0.653742	0.000061
C76	C	-0.469824	-0.153742	0.500061
C77	C	-0.971203	-0.580914	0.000073
C78	C	-0.471203	-0.080914	0.500073
C79	C	-1.053413	-0.552761	0.000099
C80	C	-0.553413	-0.052761	0.500099
C81	C	-0.219780	0.091474	0.000121
C82	C	0.280220	0.591474	0.500121
C83	C	-0.319070	0.092933	0.000110
C84	C	0.180930	0.592933	0.500110
C85	C	-1.049200	0.224079	0.000084
C86	C	-0.549200	0.724079	0.500084
C87	C	-1.050661	0.301588	0.000070
C88	C	-0.550661	0.801588	0.500070
N89	N	-1.056210	0.096424	0.246767
N90	N	-0.556210	0.596424	0.746767
N91	N	-1.056255	0.096439	-0.246550
N92	N	-0.556255	0.596439	0.253450
C93	C	-1.117222	0.049029	0.296601
C94	C	-0.617222	0.549029	0.796601
C95	C	-1.117228	0.049029	0.396259
C96	C	-0.617228	0.549029	0.896259
C97	C	-1.056225	0.096428	0.446080
C98	C	-0.556225	0.596428	0.946080
C99	C	-0.995206	0.143825	0.396239
C100	C	-0.495206	0.643825	0.896239
C101	C	-0.995197	0.143821	0.296584
C102	C	-0.495197	0.643821	0.796584
C103	C	-0.995232	0.143830	0.603954
C104	C	-0.495232	0.643830	1.103954
C105	C	-0.995243	0.143834	0.703616
C106	C	-0.495243	0.643834	1.203616
C107	C	-1.117264	0.049038	0.703629
C108	C	-0.617264	0.549038	1.203629
C109	C	-1.117254	0.049034	0.603973
C110	C	-0.617254	0.549034	1.103973
C111	C	-1.056236	0.096432	0.554139
C112	C	-0.556236	0.596432	1.054139
H113	H	-0.477182	0.210943	0.000063
H114	H	0.022818	0.710943	0.500063
Cl115	Cl	-0.542282	-0.047686	0.000136
Cl116	Cl	-0.042282	0.452314	0.500136
H117	H	-0.307932	0.208446	0.000085
H118	H	0.192068	0.708446	0.500085
H119	H	-0.945542	0.182425	0.563382
H120	H	-0.445542	0.682425	1.063382
H121	H	-0.635270	-0.018071	0.000137
H122	H	-0.135270	0.481929	0.500137
Cl123	Cl	-1.245971	-0.117993	0.000160
Cl124	Cl	-0.745971	0.382007	0.500160
Cl125	Cl	-1.193921	-0.010558	0.233978
Cl126	Cl	-0.693921	0.489442	0.733978
Cl127	Cl	-0.830020	-0.043438	0.000123
Cl128	Cl	-0.330020	0.456562	0.500123
Cl129	Cl	-1.237587	-0.562031	0.000142
Cl130	Cl	-0.737587	-0.062031	0.500142
Cl131	Cl	-1.234481	-0.726406	0.000095
Cl132	Cl	-0.734481	-0.226406	0.500095
Cl133	Cl	-0.866484	-0.689138	0.000041
Cl134	Cl	-0.366484	-0.189138	0.500041
Cl135	Cl	-1.193949	-0.010549	0.541338
Cl136	Cl	-0.693949	0.489451	1.041338
H137	H	-1.207067	-0.262583	0.000147
H138	H	-0.707067	0.237417	0.500147
Cl139	Cl	-1.193972	-0.010547	0.766280
Cl140	Cl	-0.693972	0.489453	1.266280
Cl141	Cl	-0.780742	0.243659	0.000036
Cl142	Cl	-0.280742	0.743659	0.500036
H143	H	-0.945567	0.182431	0.744176
H144	H	-0.445567	0.682431	1.244176
H145	H	-0.945513	0.182414	0.256010
H146	H	-0.445513	0.682414	0.756010
Cl147	Cl	-1.193930	-0.010555	0.458909
Cl148	Cl	-0.693930	0.489445	0.958909
Cl149	Cl	-0.874872	-0.245100	0.000085
Cl150	Cl	-0.374872	0.254900	0.500085
H151	H	-0.913768	-0.100506	0.000101
H152	H	-0.413768	0.399494	0.500101
H153	H	-0.595679	0.212689	0.000066
H154	H	-0.095679	0.712689	0.500066
Cl155	Cl	-0.331707	-0.050788	0.000176
Cl156	Cl	0.168293	0.449212	0.500176
H157	H	-0.945532	0.182415	0.436810
H158	H	-0.445532	0.682415	0.936810
H159	H	-0.905387	-0.544548	0.000066
H160	H	-0.405387	-0.044548	0.500066
