data_functionalizedCrystal
_audit_creation_method	'MofGen! by Chris Wilmer'
_symmetry_space_group_name_H-M	'P1'
_symmetry_Int_Tables_number	1
_symmetry_cell_setting	triclinic
loop_
_symmetry_equiv_pos_as_xyz
  x,y,z
_cell_length_a	17.640112
_cell_length_b	12.594516
_cell_length_c	17.640968
_cell_angle_alpha	101.230308
_cell_angle_beta	87.860920
_cell_angle_gamma	101.236260
loop_
_atom_site_label
_atom_site_type_symbol
_atom_site_fract_x
_atom_site_fract_y
_atom_site_fract_z
Zn1	Zn	1.247783	-0.030581	0.195080
Zn2	Zn	1.222044	-0.250167	0.068101
Zn3	Zn	1.095125	-0.099815	0.093727
Zn4	Zn	1.120783	-0.236157	0.220683
O5	O	1.171434	-0.154180	0.144398
O6	O	1.350634	-0.036598	0.156797
O7	O	1.183698	-0.265061	-0.034772
O8	O	1.115408	0.058327	0.107182
O9	O	1.331725	-0.197927	0.063506
O10	O	1.227566	0.109193	0.181646
O11	O	1.090451	-0.154597	-0.015944
O12	O	0.992262	-0.141012	0.132008
O13	O	1.159140	-0.174049	0.323559
O14	O	1.011114	-0.241182	0.225281
O15	O	1.252446	-0.023013	0.304749
O16	O	1.208579	-0.397266	0.088331
O17	O	1.134183	-0.386973	0.200433
C18	C	0.974135	-0.197090	0.184204
C19	C	0.889733	-0.215467	0.201251
C20	C	0.563041	-0.014551	0.014898
C21	C	0.483735	-0.031838	0.030927
C22	C	0.503385	-0.136387	0.127885
C23	C	0.582695	-0.119105	0.111867
C24	C	0.612517	-0.058188	0.055372
C25	C	0.632171	-0.162741	0.152342
C26	C	0.711473	-0.145465	0.136322
C27	C	0.741300	-0.084553	0.079828
C28	C	0.691819	-0.040912	0.039353
C29	C	0.602347	-0.223665	0.208832
C30	C	0.651823	-0.267301	0.249307
C31	C	0.731128	-0.250019	0.233291
C32	C	0.760955	-0.189107	0.176797
C33	C	0.780609	-0.293661	0.273766
C34	C	0.859911	-0.276385	0.257746
C35	C	0.840257	-0.171831	0.160777
C36	C	1.171396	-0.430733	0.144392
C37	C	1.171454	-0.549020	0.144401
C38	C	1.211988	-0.623802	0.083471
C39	C	1.244557	-0.667775	0.149044
C40	C	1.138989	-0.715811	0.078852
C41	C	1.204066	-0.591415	0.210003
C42	C	1.098457	-0.639467	0.139771
C43	C	1.131009	-0.683398	0.205397
C44	C	1.369504	-0.111103	0.104437
C45	C	1.453909	-0.092746	0.087408
C46	C	1.211526	-0.089246	0.342480
C47	C	1.228611	-0.061574	0.426891
C48	C	1.171496	0.123463	0.144417
C49	C	1.171522	0.241778	0.144424
C50	C	1.131541	-0.218776	-0.052922
C51	C	1.114604	-0.246115	-0.137362
C52	C	1.041933	-0.363752	0.753468
C53	C	1.058003	-0.337734	0.832782
C54	C	1.155154	-0.180474	0.813186
C55	C	1.139090	-0.206476	0.733870
C56	C	1.082479	-0.298117	0.704017
C57	C	1.179636	-0.140840	0.684419
C58	C	1.163575	-0.166844	0.605109
C59	C	1.106969	-0.258483	0.575250
C60	C	1.066419	-0.324121	0.624707
C61	C	1.236250	-0.049204	0.714272
C62	C	1.276796	0.016432	0.664821
C63	C	1.260732	-0.009567	0.585510
C64	C	1.204125	-0.101206	0.555651
C65	C	1.301282	0.056071	0.536053
C66	C	1.285222	0.030067	0.456743
C67	C	1.188065	-0.127210	0.476342
H68	H	0.443454	0.003710	-0.002031
O69	O	1.090265	-0.714689	0.266963
C70	C	1.092535	-0.786958	0.383511
C71	C	1.138758	-0.751582	0.313815
H72	H	1.131726	-0.816772	0.421419
H73	H	1.041888	-0.856545	0.362148
H74	H	1.069780	-0.713661	0.418592
H75	H	1.161565	-0.824808	0.278705
H76	H	1.189366	-0.681960	0.335230
O77	O	1.106322	-0.779966	0.012665
C78	C	1.123187	-0.912009	-0.102386
C79	C	1.160274	-0.839395	-0.027462
H80	H	1.166785	-0.960094	-0.134842
H81	H	1.105056	-0.857586	-0.140310
H82	H	1.070234	-0.972165	-0.087443
H83	H	1.213251	-0.779229	-0.042334
H84	H	1.178350	-0.893886	0.010440
H85	H	1.306320	-0.680909	0.152977
H86	H	1.141949	-0.201812	0.452038
O87	O	1.018632	-0.401659	0.880731
C88	C	0.986687	-0.582765	0.912465
C89	C	1.031293	-0.510506	0.858094
H90	H	0.996920	-0.670776	0.894193
H91	H	0.922286	-0.582598	0.909221
H92	H	1.007877	-0.548385	0.974276
H93	H	1.010168	-0.544832	0.796259
H94	H	1.095687	-0.510674	0.861405
O95	O	1.210095	-0.091468	0.842320
C96	C	1.277931	0.018256	0.955808
C97	C	1.215679	-0.082561	0.922921
H98	H	1.282477	0.025477	1.020975
H99	H	1.261463	0.096116	0.942970
H100	H	1.335982	0.007767	0.927807
H101	H	1.157605	-0.072179	0.950902
H102	H	1.232213	-0.160383	0.935750
H103	H	0.587325	0.035073	-0.031094
H104	H	1.231503	-0.537792	0.265508
H105	H	1.093896	-0.279657	0.510670
O106	O	0.720662	0.018245	-0.015578
C107	C	0.692814	0.120173	-0.110043
C108	C	0.660045	0.053191	-0.047867
H109	H	0.643825	0.148466	-0.136155
H110	H	0.721848	0.066460	-0.157353
H111	H	0.737048	0.195254	-0.082608
H112	H	0.615783	-0.021894	-0.075233
H113	H	0.631060	0.106981	-0.000565
H114	H	1.322890	0.091044	0.689138
H115	H	1.036706	-0.626314	0.135814
H116	H	1.246281	-0.597421	0.031982
H117	H	0.995817	-0.438354	0.729165
O118	O	1.356227	0.145071	0.565188
C119	C	1.424070	0.254779	0.678676
C120	C	1.361812	0.153971	0.645788
H121	H	1.428617	0.261994	0.743843
H122	H	1.407609	0.332645	0.665842
H123	H	1.482119	0.244282	0.650674
H124	H	1.303740	0.164361	0.673771
H125	H	1.378339	0.076143	0.658613
H126	H	1.020302	-0.398723	0.600404
H127	H	1.249326	-0.028037	0.778851
O128	O	0.474291	-0.195491	0.182763
C129	C	0.360826	-0.268499	0.250386
C130	C	0.393672	-0.201524	0.188229
H131	H	0.295639	-0.273418	0.254814
H132	H	0.388777	-0.226457	0.308520
H133	H	0.373746	-0.355279	0.233801
H134	H	0.380761	-0.114736	0.204741
H135	H	0.365720	-0.243653	0.130112
H136	H	0.537773	-0.237729	0.221874
H137	H	1.318237	0.083515	0.416479
O138	O	0.622830	-0.326297	0.304273
C139	C	0.554023	-0.326731	0.424844
C140	C	0.586833	-0.259790	0.362657
H141	H	0.524897	-0.272995	0.472054
H142	H	0.602983	-0.354921	0.451088
H143	H	0.509848	-0.401873	0.397392
H144	H	0.630997	-0.184603	0.390050
H145	H	0.537831	-0.231684	0.336419
O146	O	0.869180	-0.112814	0.105795
C147	C	0.867259	-0.097891	-0.028212
C148	C	0.834450	-0.164834	0.033974
H149	H	0.839181	-0.139909	-0.086290
H150	H	0.932432	-0.093075	-0.032773
H151	H	0.854414	-0.011071	-0.011591
H152	H	0.847237	-0.251685	0.017398
H153	H	0.769285	-0.169559	0.038523
O154	O	0.818336	-0.067574	0.064268
C155	C	0.936125	0.065650	0.060953
C156	C	0.848886	0.046581	0.078585
H157	H	0.960854	0.157940	0.072536
H158	H	0.945772	0.029167	-0.002242
H159	H	0.966343	0.023943	0.099566
H160	H	0.818611	0.088287	0.040022
H161	H	0.839296	0.083036	0.141796
O162	O	0.751512	-0.352772	0.328639
C163	C	0.638042	-0.425796	0.396249
C164	C	0.670892	-0.358809	0.334099
H165	H	0.572855	-0.430718	0.400672
H166	H	0.665989	-0.383763	0.454386
H167	H	0.650964	-0.512575	0.379658
H168	H	0.657980	-0.272022	0.350617
H169	H	0.642945	-0.400929	0.275979
O170	O	0.907988	-0.318910	0.296948
C171	C	0.999597	-0.439784	0.288898
C172	C	0.945168	-0.391722	0.244410
H173	H	1.029685	-0.498643	0.246439
H174	H	0.964691	-0.486361	0.332009
H175	H	1.044752	-0.369854	0.321184
H176	H	0.900003	-0.461584	0.212079
H177	H	0.980126	-0.345114	0.201345
