data_functionalizedCrystal
_audit_creation_method	'MofGen! by Chris Wilmer'
_symmetry_space_group_name_H-M	'P1'
_symmetry_Int_Tables_number	1
_symmetry_cell_setting	triclinic
loop_
_symmetry_equiv_pos_as_xyz
  x,y,z
_cell_length_a	10.654562
_cell_length_b	14.519731
_cell_length_c	9.130313
_cell_angle_alpha	89.997760
_cell_angle_beta	89.996930
_cell_angle_gamma	84.089478
loop_
_atom_site_label
_atom_site_type_symbol
_atom_site_fract_x
_atom_site_fract_y
_atom_site_fract_z
O1	O	1.666592	0.129583	-0.121899
O2	O	1.300999	0.141911	-0.121881
O3	O	1.493475	0.001560	-0.121878
O4	O	1.474116	0.269934	-0.121903
O5	O	1.493472	0.001564	0.121721
O6	O	1.300996	0.141915	0.121717
O7	O	1.666590	0.129586	0.121700
Cu8	Cu	1.483793	0.135751	0.143951
Cu9	Cu	1.483796	0.135747	-0.144133
O10	O	1.474114	0.269937	0.121696
C11	C	1.254208	0.141006	-0.000080
C12	C	1.114792	0.138290	-0.000072
C13	C	1.049272	0.137025	0.132702
C14	C	0.918274	0.134481	0.132678
C15	C	0.918326	0.134470	-0.132907
C16	C	1.049323	0.137008	-0.132881
C17	C	1.049240	0.137036	0.286036
C18	C	0.918241	0.134491	0.286011
C19	C	1.492566	-0.032802	-0.000078
C20	C	1.489848	-0.135196	-0.000077
C21	C	1.487640	-0.218352	-0.000080
C22	C	1.484880	-0.322675	-0.000091
C23	C	1.482690	-0.405826	-0.000100
C24	C	1.479930	-0.510155	-0.000109
C25	C	1.713380	0.130492	-0.000106
C26	C	1.852797	0.133208	-0.000122
C27	C	1.475022	0.304300	-0.000107
C28	C	1.477740	0.406694	-0.000118
N29	N	1.483800	0.135754	0.346574
N30	N	1.483798	0.135737	-0.346756
C31	C	1.569050	0.073628	0.423227
C32	C	1.569047	0.073617	0.576564
C33	C	1.398539	0.197866	0.576580
C34	C	1.398537	0.197872	0.423246
C35	C	1.667495	0.001896	0.423219
C36	C	1.667492	0.001885	0.576556
H37	H	1.096105	0.073303	0.344925
H38	H	1.078174	0.204296	0.333606
N39	N	1.119984	0.138351	-0.276095
H40	H	1.087166	0.194970	-0.334175
H41	H	1.212890	0.140114	-0.255820
H42	H	0.889292	0.067234	0.333597
H43	H	1.646727	-0.068989	0.381607
N44	N	0.856115	0.218921	0.363950
H45	H	0.761605	0.217117	0.363967
H46	H	0.887662	0.219526	0.468219
N47	N	0.847715	0.133082	-0.276145
H48	H	0.754787	0.131279	-0.256017
H49	H	0.860584	0.190592	-0.334141
H50	H	1.329109	0.248451	0.360836
N51	N	1.787989	0.031645	0.360189
H52	H	1.799117	0.096469	0.394320
H53	H	1.861919	-0.012223	0.394330
H54	H	1.329120	0.248440	0.639023
N55	N	1.627960	-0.086852	0.639567
H56	H	1.608857	-0.129720	0.557233
H57	H	1.698528	-0.117711	0.701842
N58	N	1.795126	0.022819	0.631683
H59	H	1.813584	0.085619	0.594853
H60	H	1.795089	0.022766	0.742299
