data_functionalizedCrystal
_audit_creation_method	'MofGen! by Chris Wilmer'
_symmetry_space_group_name_H-M	'P1'
_symmetry_Int_Tables_number	1
_symmetry_cell_setting	triclinic
loop_
_symmetry_equiv_pos_as_xyz
  x,y,z
_cell_length_a	12.759401
_cell_length_b	10.686285
_cell_length_c	12.759393
_cell_angle_alpha	94.397013
_cell_angle_beta	90.020938
_cell_angle_gamma	85.633237
loop_
_atom_site_label
_atom_site_type_symbol
_atom_site_fract_x
_atom_site_fract_y
_atom_site_fract_z
Zn1	Zn	1.638400	-0.502237	0.562006
Zn2	Zn	1.651794	-0.713276	0.372873
Zn3	Zn	1.462703	-0.502304	0.386337
Zn4	Zn	1.476188	-0.713187	0.548516
O5	O	1.557272	-0.607751	0.467433
O6	O	1.787199	-0.530240	0.536928
O7	O	1.626673	-0.685355	0.227634
O8	O	1.474761	-0.325719	0.420919
O9	O	1.797039	-0.685290	0.397973
O10	O	1.603845	-0.325669	0.549983
O11	O	1.487749	-0.530355	0.237525
O12	O	1.317471	-0.530269	0.407839
O13	O	1.497744	-0.685139	0.697331
O14	O	1.327378	-0.685204	0.526992
O15	O	1.616921	-0.530155	0.707241
O16	O	1.639748	-0.889840	0.384893
O17	O	1.510731	-0.889775	0.513937
C18	C	1.284303	-0.607735	0.467413
C19	C	1.167528	-0.607759	0.467427
C20	C	1.578185	-0.935592	0.446513
C21	C	1.587228	-1.075844	0.437599
C22	C	1.117860	-0.688557	0.529357
C23	C	1.008136	-0.688562	0.529377
C24	C	0.997758	-0.526968	0.405531
C25	C	1.107479	-0.526957	0.405516
C26	C	1.831306	-0.607767	0.467453
C27	C	1.948083	-0.607774	0.467462
C28	C	1.557342	-0.607630	0.741474
C29	C	1.557373	-0.607578	0.858254
C30	C	1.536305	-0.278630	0.488457
C31	C	1.527370	-0.138378	0.497417
C32	C	1.557256	-0.607780	0.194464
C33	C	1.557406	-0.607477	0.077707
C34	C	1.619432	-0.526865	0.918279
C35	C	1.619446	-0.526810	1.028007
C36	C	1.495340	-0.688194	1.017674
C37	C	1.495320	-0.688241	0.907949
H38	H	1.166749	-0.754348	0.579772
C39	C	1.427101	-0.776930	1.072349
C40	C	1.478965	-0.875962	1.141456
C41	C	1.410731	-0.964703	1.196132
C42	C	1.290634	-0.954413	1.181701
C43	C	1.238764	-0.855377	1.112592
C44	C	1.306997	-0.766635	1.057916
H45	H	1.567874	-0.883583	1.152141
H46	H	1.449130	-1.038016	1.247292
H47	H	1.240123	-1.020105	1.222176
H48	H	1.149855	-0.847756	1.101907
H49	H	1.268599	-0.693322	1.006756
C50	C	0.953502	-0.777444	0.597498
C51	C	1.019557	-0.866316	0.665596
C52	C	0.964923	-0.955200	0.733722
C53	C	0.844234	-0.955212	0.733750
C54	C	0.778172	-0.866336	0.665649
C55	C	0.832806	-0.777452	0.597523
H56	H	1.108905	-0.866310	0.665578
H57	H	1.013828	-1.020992	0.784135
H58	H	0.803791	-1.021009	0.784181
H59	H	0.688824	-0.866342	0.665668
H60	H	0.783901	-0.711660	0.547111
H61	H	0.948853	-0.461184	0.355123
H62	H	1.147919	-0.461154	0.355087
C63	C	1.448796	-1.065762	0.575826
C64	C	1.360572	-0.975247	0.535918
C65	C	1.281996	-0.902623	0.614328
C66	C	1.291645	-0.920514	0.732648
C67	C	1.379874	-1.011033	0.772562
C68	C	1.458449	-1.083658	0.694151
H69	H	1.353426	-0.961999	0.448325
H70	H	1.216684	-0.835614	0.584780
H71	H	1.233479	-0.866753	0.790692
H72	H	1.387020	-1.024281	0.860154
H73	H	1.523761	-1.150666	0.723699
H74	H	1.645389	-1.129609	0.379554
C75	C	1.687679	-0.438129	0.863615
C76	C	1.773638	-0.492839	0.784705
C77	C	1.841885	-0.404098	0.730044
C78	C	1.824173	-0.260645	0.754294
C79	C	1.738210	-0.205927	0.833208
C80	C	1.669963	-0.294669	0.887869
H81	H	1.786753	-0.599038	0.766750
H82	H	1.905520	-0.444604	0.671627
H83	H	1.874693	-0.194953	0.713832
H84	H	1.725095	-0.099728	0.851163
H85	H	1.606328	-0.254162	0.946286
H86	H	1.669980	-0.461083	1.076875
H87	H	1.444776	-0.753966	0.859075
