data_functionalizedCrystal
_audit_creation_method	'MofGen! by Chris Wilmer'
_symmetry_space_group_name_H-M	'P1'
_symmetry_Int_Tables_number	1
_symmetry_cell_setting	triclinic
loop_
_symmetry_equiv_pos_as_xyz
  x,y,z
_cell_length_a	17.077402
_cell_length_b	25.639243
_cell_length_c	25.639234
_cell_angle_alpha	89.986394
_cell_angle_beta	90.017557
_cell_angle_gamma	89.973827
loop_
_atom_site_label
_atom_site_type_symbol
_atom_site_fract_x
_atom_site_fract_y
_atom_site_fract_z
Zn1	Zn	-0.312529	-0.799268	0.295669
Zn2	Zn	-0.443781	-0.799218	0.208239
Zn3	Zn	-0.312540	-0.711848	0.208243
Zn4	Zn	-0.443763	-0.711812	0.295638
O5	O	-0.378153	-0.755537	0.251947
O6	O	-0.329943	-0.872426	0.284083
O7	O	-0.426384	-0.787622	0.135074
O8	O	-0.202691	-0.723480	0.219855
O9	O	-0.426374	-0.872390	0.219848
O10	O	-0.202684	-0.787707	0.284086
O11	O	-0.329961	-0.723432	0.135077
O12	O	-0.329943	-0.638678	0.219825
O13	O	-0.426343	-0.723420	0.368808
O14	O	-0.426353	-0.638652	0.284034
O15	O	-0.329926	-0.787673	0.368830
O16	O	-0.553626	-0.787588	0.219818
O17	O	-0.553612	-0.723371	0.284030
C18	C	-0.378148	-0.619694	0.251926
C19	C	-0.378164	-0.561580	0.251930
C20	C	-0.582101	-0.755485	0.251932
C21	C	-0.669351	-0.755510	0.251943
C22	C	-0.328020	-0.201230	0.285450
C23	C	-0.328020	-0.146626	0.285453
O24	O	-0.285371	-0.118401	0.313927
N25	N	-0.378150	-0.119298	0.251961
C26	C	-0.428279	-0.146576	0.218460
O27	O	-0.470919	-0.118317	0.189973
C28	C	-0.428276	-0.201179	0.218455
C29	C	-0.378147	-0.228505	0.251953
C30	C	-0.277895	-0.228556	0.318944
C31	C	-0.277897	-0.283157	0.318941
C32	C	-0.328024	-0.310431	0.285444
C33	C	-0.378149	-0.283106	0.251950
C34	C	-0.478400	-0.228457	0.184952
C35	C	-0.478391	-0.283064	0.184949
C36	C	-0.428263	-0.310390	0.218447
C37	C	-0.428278	-0.364981	0.218450
N38	N	-0.378147	-0.392310	0.251942
C39	C	-0.328020	-0.365035	0.285439
C40	C	-0.428283	-0.031906	0.218474
C41	C	-0.428291	0.022697	0.218481
C42	C	-0.328030	0.022643	0.285473
C43	C	-0.328026	-0.031960	0.285468
C44	C	-0.378152	-0.059234	0.251965
C45	C	-0.328029	-0.479700	0.285431
C46	C	-0.328038	-0.534305	0.285427
C47	C	-0.428295	-0.534247	0.218434
C48	C	-0.428290	-0.479646	0.218439
C49	C	-0.378150	-0.452374	0.251940
O50	O	-0.470903	-0.393241	0.189989
O51	O	-0.285381	-0.393300	0.313917
C52	C	-0.710270	-0.788935	0.285415
C53	C	-0.792250	-0.788957	0.285426
C54	C	-0.833310	-0.755556	0.251962
C55	C	-0.792386	-0.722128	0.218488
C56	C	-0.710407	-0.722104	0.218480
C57	C	-0.963256	-0.722182	0.218506
C58	C	-1.045241	-0.722206	0.218513
C59	C	-1.045099	-0.789035	0.285453
C60	C	-0.963120	-0.789011	0.285444
C61	C	-0.922201	-0.755583	0.251970
C62	C	-0.173409	-0.755603	0.251974
C63	C	-0.086159	-0.755631	0.251986
C64	C	-0.378131	-0.755548	0.388320
C65	C	-0.378122	-0.755553	0.446434
C66	C	-0.378159	0.108090	0.251968
C67	C	-0.378161	0.049976	0.251977
C68	C	-0.378119	-0.755556	0.116105
C69	C	-0.377907	-0.755652	0.057991
C70	C	-0.428227	-0.722131	0.697610
C71	C	-0.428245	-0.722122	0.643006
O72	O	-0.470925	-0.693655	0.614755
N73	N	-0.378058	-0.755572	0.615708
C74	C	-0.327845	-0.789031	0.643018
O75	O	-0.285158	-0.817482	0.614785
C76	C	-0.327824	-0.789037	0.697621
C77	C	-0.378020	-0.755588	0.724916
C78	C	-0.478418	-0.688684	0.724905
C79	C	-0.478401	-0.688694	0.779506
C80	C	-0.428194	-0.722151	0.806812
C81	C	-0.378003	-0.755598	0.779517
C82	C	-0.277607	-0.822492	0.724930
C83	C	-0.277590	-0.822495	0.779537
C84	C	-0.327786	-0.789046	0.806832
C85	C	-0.327778	-0.789065	0.861423
N86	N	-0.377965	-0.755614	0.888721
C87	C	-0.428173	-0.722157	0.861415
C88	C	-0.327892	-0.789015	0.528347
C89	C	-0.327916	-0.789012	0.473745
C90	C	-0.428316	-0.722102	0.473737
C91	C	-0.428295	-0.722108	0.528340
C92	C	-0.378079	-0.755564	0.555645
C93	C	-0.428134	-0.722181	0.976080
C94	C	-0.428115	-0.722195	1.030685
C95	C	-0.327713	-0.789103	1.030689
C96	C	-0.327735	-0.789091	0.976088
C97	C	-0.377948	-0.755625	0.948785
O98	O	-0.285118	-0.817515	0.889709
O99	O	-0.470845	-0.693706	0.889654
H100	H	-0.287216	-0.556551	0.312707
H101	H	-0.468993	-0.694957	1.052907
H102	H	-0.676844	-0.816136	0.312663
H103	H	-1.078670	-0.695007	0.191266
H104	H	-0.287001	-0.816263	0.550575
H105	H	-0.929689	-0.816211	0.312691
H106	H	-0.469109	-0.556464	0.191162
H107	H	-0.287198	-0.457501	0.312709
H108	H	-0.825562	-0.816179	0.312679
H109	H	-0.677092	-0.694885	0.191224
H110	H	-0.237076	-0.305400	0.346218
H111	H	-0.286867	-0.816332	0.953863
H112	H	-0.929943	-0.694959	0.191249
H113	H	-0.469015	-0.694925	0.953856
H114	H	-0.519274	-0.661455	0.801725
H115	H	-0.519303	-0.661436	0.702679
H116	H	-0.236694	-0.849738	0.801765
H117	H	-0.286838	-0.816345	1.052931
H118	H	-0.825824	-0.694930	0.191243
H119	H	-0.469168	-0.694870	0.550560
H120	H	-1.078419	-0.816253	0.312709
H121	H	-0.469196	-0.694858	0.451495
H122	H	-0.237072	-0.206355	0.346222
H123	H	-0.519210	-0.305268	0.157666
H124	H	-0.287206	-0.054205	0.312743
H125	H	-0.287051	-0.816255	0.451526
H126	H	-0.236733	-0.849731	0.702716
H127	H	-0.469119	0.044941	0.191210
H128	H	-0.287212	0.044860	0.312747
H129	H	-0.519219	-0.206218	0.157674
H130	H	-0.469108	-0.054109	0.191193
H131	H	-0.469117	-0.457396	0.191169
