data_functionalizedCrystal
_audit_creation_method	'MofGen! by Chris Wilmer'
_symmetry_space_group_name_H-M	'P1'
_symmetry_Int_Tables_number	1
_symmetry_cell_setting	triclinic
loop_
_symmetry_equiv_pos_as_xyz
  x,y,z
_cell_length_a	11.792241
_cell_length_b	9.065218
_cell_length_c	8.140239
_cell_angle_alpha	89.998314
_cell_angle_beta	90.001479
_cell_angle_gamma	84.604650
loop_
_atom_site_label
_atom_site_type_symbol
_atom_site_fract_x
_atom_site_fract_y
_atom_site_fract_z
O1	O	1.508028	0.202221	-0.136447
O2	O	2.008028	0.702221	0.363553
O3	O	1.177802	0.223063	-0.136484
O4	O	1.677802	0.723063	0.363516
O5	O	1.349740	-0.002064	-0.136461
O6	O	1.849740	0.497936	0.363539
O7	O	1.336089	0.427349	-0.136470
O8	O	1.836089	0.927349	0.363530
O9	O	1.349731	-0.002067	0.136766
O10	O	1.849731	0.497933	0.636766
O11	O	1.177792	0.223060	0.136743
O12	O	1.677792	0.723060	0.636743
O13	O	1.508018	0.202219	0.136780
O14	O	2.008018	0.702219	0.636780
Zn15	Zn	1.342904	0.212639	0.180142
Zn16	Zn	1.842904	0.712639	0.680142
Zn17	Zn	1.342916	0.212643	-0.179846
Zn18	Zn	1.842916	0.712643	0.320154
O19	O	1.336079	0.427346	0.136757
O20	O	1.836079	0.927346	0.636757
C21	C	1.348424	-0.057040	0.000149
C22	C	1.848424	0.442960	0.500149
C23	C	1.344501	-0.220846	0.000141
C24	C	1.844501	0.279154	0.500141
C25	C	1.135499	0.221752	0.000124
C26	C	1.635499	0.721752	0.500124
C27	C	1.009464	0.217834	0.000110
C28	C	1.509464	0.717834	0.500110
C29	C	0.778711	0.210629	0.000157
C30	C	1.278711	0.710629	0.500157
C31	C	0.907119	0.214632	0.000131
C32	C	1.407119	0.714632	0.500131
C33	C	1.550321	0.203529	0.000168
C34	C	2.050321	0.703529	0.500168
C35	C	1.676356	0.207448	0.000172
C36	C	2.176356	0.707448	0.500172
C37	C	1.337396	0.482322	0.000143
C38	C	1.837396	0.982322	0.500143
C39	C	1.341319	0.646128	0.000141
C40	C	1.841319	1.146128	0.500141
N41	N	1.342903	0.212636	0.425825
N42	N	1.842903	0.712636	0.925825
N43	N	1.342926	0.212634	-0.425529
N44	N	1.842926	0.712634	0.074471
