data_functionalizedCrystal
_audit_creation_method	'MofGen! by Chris Wilmer'
_symmetry_space_group_name_H-M	'P1'
_symmetry_Int_Tables_number	1
_symmetry_cell_setting	triclinic
loop_
_symmetry_equiv_pos_as_xyz
  x,y,z
_cell_length_a	14.908783
_cell_length_b	14.908520
_cell_length_c	13.032268
_cell_angle_alpha	99.985811
_cell_angle_beta	93.464427
_cell_angle_gamma	96.791586
loop_
_atom_site_label
_atom_site_type_symbol
_atom_site_fract_x
_atom_site_fract_y
_atom_site_fract_z
Zn1	Zn	1.281471	-0.362110	-0.700819
Zn2	Zn	1.291862	-0.494278	-0.535602
Zn3	Zn	1.151547	-0.349436	-0.516551
Zn4	Zn	1.121341	-0.522146	-0.700736
O5	O	1.211555	-0.431992	-0.613427
O6	O	1.408587	-0.373284	-0.686910
O7	O	1.290238	-0.458098	-0.386849
O8	O	1.177075	-0.223524	-0.533057
O9	O	1.416221	-0.470387	-0.565526
O10	O	1.272530	-0.232836	-0.668438
O11	O	1.187150	-0.351683	-0.372853
O12	O	1.021803	-0.378705	-0.532976
O13	O	1.125593	-0.517884	-0.846973
O14	O	0.999611	-0.505594	-0.668296
O15	O	1.243240	-0.400306	-0.847034
O16	O	1.260949	-0.625567	-0.565445
O17	O	1.135668	-0.646042	-0.686769
C18	C	0.978105	-0.443799	-0.598561
C19	C	0.878229	-0.448874	-0.592227
C20	C	0.682567	-0.357482	-0.706937
C21	C	0.588725	-0.362248	-0.700989
C22	C	0.596702	-0.463167	-0.574378
C23	C	0.690544	-0.458401	-0.580326
C24	C	0.733473	-0.405558	-0.646609
C25	C	0.827316	-0.400797	-0.652562
C26	C	0.835292	-0.501711	-0.525946
C27	C	0.741450	-0.506477	-0.519998
C28	C	1.196180	-0.668889	-0.628189
C29	C	1.189681	-0.770235	-0.634545
C30	C	1.308028	-0.939299	-0.520269
C31	C	1.301924	-1.034522	-0.526237
C32	C	1.171375	-1.055904	-0.652455
C33	C	1.177478	-0.960682	-0.646487
C34	C	1.245806	-0.902382	-0.580390
C35	C	1.251905	-0.807157	-0.574417
C36	C	1.121360	-0.828542	-0.700639
C37	C	1.115257	-0.923765	-0.706608
C38	C	1.445918	-0.420141	-0.628352
C39	C	1.545789	-0.415090	-0.634713
C40	C	1.179888	-0.463617	-0.885979
C41	C	1.166394	-0.477094	-1.002124
C42	C	1.227013	-0.194172	-0.598632
C43	C	1.233599	-0.092827	-0.592327
C44	C	1.218587	-0.424927	-1.053935
C45	C	1.204640	-0.438854	-1.173977
C46	C	1.243155	-0.400422	-0.341935
C47	C	1.256841	-0.386680	-0.225786
H48	H	0.717520	-0.314459	-0.760912
C49	C	1.292901	-0.350656	-0.993805
N50	N	1.348877	-0.294714	-0.948516
H51	H	1.111379	-0.532061	-1.046636
C52	C	1.130317	-0.513123	-1.234103
N53	N	1.074337	-0.569061	-1.279391
C54	C	0.694217	-0.564603	-0.447092
N55	N	0.658641	-0.608387	-0.392180
H56	H	0.862267	-0.357770	-0.706533
C57	C	0.532731	-0.309364	-0.767358
N58	N	0.490557	-0.269529	-0.817350
C59	C	1.331163	-0.312409	-1.165662
N60	N	1.387143	-0.256470	-1.120376
H61	H	0.876748	-0.540866	-0.476831
C62	C	0.549465	-0.521282	-0.501464
N63	N	0.513885	-0.565054	-0.446544
C64	C	1.327067	-0.743029	-0.501710
N65	N	1.383682	-0.694730	-0.446948
H66	H	1.363658	-0.891830	-0.466443
H67	H	1.070693	-0.798474	-0.749591
H68	H	1.352593	-1.064575	-0.477282
H69	H	1.115751	-1.103388	-0.706274
H70	H	1.059628	-0.971245	-0.760424
