data_functionalizedCrystal
_audit_creation_method	'MofGen! by Chris Wilmer'
_symmetry_space_group_name_H-M	'P1'
_symmetry_Int_Tables_number	1
_symmetry_cell_setting	triclinic
loop_
_symmetry_equiv_pos_as_xyz
  x,y,z
_cell_length_a	14.519709
_cell_length_b	14.519731
_cell_length_c	7.540329
_cell_angle_alpha	89.995423
_cell_angle_beta	90.002655
_cell_angle_gamma	83.684499
loop_
_atom_site_label
_atom_site_type_symbol
_atom_site_fract_x
_atom_site_fract_y
_atom_site_fract_z
O1	O	1.223875	0.120889	-0.147256
O2	O	1.723875	0.620889	0.352744
O3	O	0.955399	0.135125	-0.147310
O4	O	1.455399	0.635125	0.352690
O5	O	1.096745	-0.006230	-0.147265
O6	O	1.596745	0.493770	0.352735
O7	O	1.082529	0.262244	-0.147300
O8	O	1.582529	0.762244	0.352700
O9	O	1.096737	-0.006232	0.147700
O10	O	1.596737	0.493768	0.647700
O11	O	0.955391	0.135123	0.147655
O12	O	1.455391	0.635123	0.647655
O13	O	1.223866	0.120887	0.147710
O14	O	1.723866	0.620887	0.647710
Cu15	Cu	1.089628	0.128005	0.174615
Cu16	Cu	1.589628	0.628005	0.674615
Cu17	Cu	1.089638	0.128007	-0.174216
Cu18	Cu	1.589638	0.628007	0.325784
O19	O	1.082520	0.262242	0.147665
O20	O	1.582520	0.762242	0.647665
C21	C	0.921035	0.134461	0.000165
C22	C	1.421035	0.634461	0.500165
C23	C	0.818654	0.132473	0.000145
C24	C	1.318654	0.632473	0.500145
C25	C	0.443757	0.125153	0.000227
C26	C	0.943757	0.625153	0.500227
C27	C	0.548065	0.127186	0.000203
C28	C	1.048065	0.627186	0.500203
C29	C	0.631202	0.128813	0.000184
C30	C	1.131202	0.628813	0.500184
C31	C	0.735517	0.130846	0.000164
C32	C	1.235517	0.630846	0.500164
C33	C	1.096075	-0.040591	0.000217
C34	C	1.596075	0.459409	0.500217
C35	C	1.094079	-0.142971	0.000218
C36	C	1.594079	0.357029	0.500218
C37	C	1.092457	-0.226115	0.000214
C38	C	1.592457	0.273885	0.500214
C39	C	1.090430	-0.330424	0.000200
C40	C	1.590430	0.169576	0.500200
C41	C	1.088822	-0.413563	0.000188
C42	C	1.588822	0.086437	0.500188
C43	C	1.086795	-0.517878	0.000177
C44	C	1.586795	-0.017878	0.500177
C45	C	1.258230	0.121551	0.000230
C46	C	1.758230	0.621551	0.500230
C47	C	1.360612	0.123539	0.000239
C48	C	1.860612	0.623539	0.500239
C49	C	1.083191	0.296603	0.000178
C50	C	1.583191	0.796603	0.500178
C51	C	1.085187	0.398983	0.000166
C52	C	1.585187	0.898983	0.500166
N53	N	1.089627	0.128003	0.419963
N54	N	1.589627	0.628003	0.919963
N55	N	1.089645	0.128002	-0.419564
N56	N	1.589645	0.628002	0.080436
