data_functionalizedCrystal
_audit_creation_method	'MofGen! by Chris Wilmer'
_symmetry_space_group_name_H-M	'P1'
_symmetry_Int_Tables_number	1
_symmetry_cell_setting	triclinic
loop_
_symmetry_equiv_pos_as_xyz
  x,y,z
_cell_length_a	17.699077
_cell_length_b	8.597304
_cell_length_c	16.776229
_cell_angle_alpha	82.293521
_cell_angle_beta	89.993415
_cell_angle_gamma	84.313138
loop_
_atom_site_label
_atom_site_type_symbol
_atom_site_fract_x
_atom_site_fract_y
_atom_site_fract_z
O1	O	1.005727	0.198423	-0.079902
O2	O	0.785562	0.224253	-0.081679
O3	O	0.899976	-0.017147	-0.065097
O4	O	0.891313	0.439823	-0.096485
O5	O	0.899960	-0.017162	0.067481
O6	O	0.785546	0.224239	0.050898
O7	O	1.005711	0.198408	0.052676
Zn8	Zn	0.895626	0.211321	0.072836
Zn9	Zn	0.895647	0.211340	-0.101840
O10	O	0.891297	0.439808	0.036093
C11	C	0.757349	0.223322	-0.015328
C12	C	0.673308	0.220550	-0.015139
C13	C	0.633821	0.219236	0.057220
C14	C	0.554857	0.216606	0.057401
C15	C	0.515380	0.215302	-0.014777
C16	C	0.554873	0.216612	-0.087141
C17	C	0.633836	0.219230	-0.087321
C18	C	0.236422	0.206050	-0.086417
C19	C	0.157452	0.203437	-0.086232
C20	C	0.157443	0.203427	0.058305
C21	C	0.236406	0.206045	0.058125
C22	C	0.275892	0.207346	-0.014238
C23	C	0.361514	0.210194	-0.014433
C24	C	0.429759	0.212465	-0.014583
C25	C	0.899037	-0.075623	0.005206
C26	C	0.896254	-0.249840	0.017167
C27	C	1.033924	0.199339	-0.013678
C28	C	1.117965	0.202111	-0.013872
C29	C	0.892236	0.498284	-0.034212
C30	C	0.895019	0.672501	-0.046178
N31	N	0.895618	0.211307	0.192049
N32	N	0.895661	0.211342	-0.221052
C33	C	0.946296	0.104458	0.241105
C34	C	0.946301	0.104457	0.324558
C35	C	0.895629	0.211313	0.358951
C36	C	0.844945	0.318166	0.309888
C37	C	0.844938	0.318159	0.226438
C38	C	0.844973	0.318197	0.646433
C39	C	0.844986	0.318199	0.729889
C40	C	0.946335	0.104495	0.744553
C41	C	0.946328	0.104488	0.661103
C42	C	0.895642	0.211335	0.612047
C43	C	0.895637	0.211333	0.521559
C44	C	0.895637	0.211323	0.449437
H45	H	0.665985	0.220303	-0.146243
H46	H	0.895173	-0.316639	0.080560
C47	C	1.002085	-0.013054	0.798522
N48	N	1.044076	-0.101588	0.839171
C49	C	0.896474	-0.237268	-0.131815
N50	N	0.897573	-0.169296	-0.196319
H51	H	0.987562	0.017451	0.213108
H52	H	0.522712	0.215510	0.116325
H53	H	0.803720	0.405217	0.757890
C54	C	0.789199	0.435694	0.347725
N55	N	0.747209	0.524218	0.376222
C56	C	0.789194	0.435713	0.172474
N57	N	0.747206	0.524259	0.131830
H58	H	0.665957	0.220311	0.115995
H59	H	0.803704	0.405198	0.606498
C60	C	0.114030	0.201984	-0.165637
N61	N	0.081325	0.200888	-0.225442
C62	C	1.002033	-0.013122	0.378520
N63	N	1.044005	-0.101703	0.419165
H64	H	0.987592	0.017481	0.633103
H65	H	0.125284	0.202360	0.117227
C66	C	0.279847	0.207468	-0.166018
N67	N	0.312558	0.208530	-0.225976
C68	C	0.279826	0.207476	0.137527
N69	N	0.312530	0.208545	0.197336
C70	C	0.511445	0.215173	-0.166539
N71	N	0.478737	0.214094	-0.226343
