data_functionalizedCrystal
_audit_creation_method	'MofGen! by Chris Wilmer'
_symmetry_space_group_name_H-M	'P1'
_symmetry_Int_Tables_number	1
_symmetry_cell_setting	triclinic
loop_
_symmetry_equiv_pos_as_xyz
  x,y,z
_cell_length_a	19.188930
_cell_length_b	16.992694
_cell_length_c	16.053802
_cell_angle_alpha	92.750953
_cell_angle_beta	92.551696
_cell_angle_gamma	93.093497
loop_
_atom_site_label
_atom_site_type_symbol
_atom_site_fract_x
_atom_site_fract_y
_atom_site_fract_z
O1	O	0.145267	-1.043197	-0.069340
O2	O	0.478600	-0.709863	0.263993
O3	O	0.811934	-0.376530	0.597327
O4	O	0.143642	-0.814918	-0.069364
O5	O	0.476976	-0.481585	0.263969
O6	O	0.810309	-0.148252	0.597302
O7	O	0.043185	-0.935644	-0.069335
O8	O	0.376519	-0.602311	0.263998
O9	O	0.709852	-0.268978	0.597331
O10	O	0.245724	-0.922471	-0.069369
O11	O	0.579057	-0.589137	0.263964
O12	O	0.912391	-0.255804	0.597297
O13	O	0.048690	-0.928999	0.069522
O14	O	0.382024	-0.595666	0.402855
O15	O	0.715357	-0.262333	0.736189
O16	O	0.149147	-0.808273	0.069493
O17	O	0.482481	-0.474940	0.402826
O18	O	0.815814	-0.141607	0.736159
O19	O	0.150772	-1.036552	0.069517
O20	O	0.484106	-0.703218	0.402851
O21	O	0.817439	-0.369885	0.736184
Zn22	Zn	0.150834	-0.921357	0.091552
Zn23	Zn	0.484167	-0.588024	0.424885
Zn24	Zn	0.817501	-0.254691	0.758218
Zn25	Zn	0.143581	-0.930113	-0.091399
Zn26	Zn	0.476914	-0.596779	0.241934
Zn27	Zn	0.810247	-0.263446	0.575268
O28	O	0.251229	-0.915826	0.069488
O29	O	0.584563	-0.582492	0.402821
O30	O	0.917896	-0.249159	0.736155
C31	C	0.144306	-0.782390	0.000061
C32	C	0.477639	-0.449057	0.333395
C33	C	0.810972	-0.115724	0.666728
C34	C	0.138072	-0.695368	0.000053
C35	C	0.471406	-0.362035	0.333386
C36	C	0.804739	-0.028701	0.666719
C37	C	0.019902	-0.931895	0.000096
C38	C	0.353235	-0.598562	0.333429
C39	C	0.686569	-0.265228	0.666762
C40	C	-0.057677	-0.930614	0.000103
C41	C	0.275656	-0.597281	0.333436
C42	C	0.608989	-0.263947	0.666769
C43	C	0.150109	-1.069080	0.000090
C44	C	0.483442	-0.735746	0.333423
C45	C	0.816775	-0.402413	0.666756
C46	C	0.156342	-1.156102	0.000093
C47	C	0.489675	-0.822769	0.333426
C48	C	0.823008	-0.489436	0.666759
C49	C	-0.098456	-1.001452	0.000114
C50	C	0.234878	-0.668119	0.333448
C51	C	0.568211	-0.334786	0.666781
C52	C	-0.171350	-1.000250	0.000101
C53	C	0.161983	-0.666916	0.333434
C54	C	0.495316	-0.333583	0.666768
C55	C	-0.203463	-0.928204	0.000093
C56	C	0.129870	-0.594870	0.333426
C57	C	0.463204	-0.261537	0.666759
C58	C	-0.162676	-0.857356	0.000076
C59	C	0.170658	-0.524023	0.333410
C60	C	0.503991	-0.190690	0.666743
C61	C	-0.089783	-0.858561	0.000081
C62	C	0.243550	-0.525228	0.333415
C63	C	0.576884	-0.191895	0.666748
N64	N	-0.312817	-0.870872	0.047342
N65	N	0.020516	-0.537539	0.380676
N66	N	0.353849	-0.204205	0.714009
N67	N	-0.382063	-0.869732	0.047339
N68	N	-0.048729	-0.536399	0.380673
N69	N	0.284604	-0.203065	0.714006
C70	C	-0.423085	-0.924569	0.000075
C71	C	-0.089752	-0.591236	0.333409
C72	C	0.243581	-0.257902	0.666742
N73	N	-0.392247	-0.980600	-0.047175
N74	N	-0.058913	-0.647267	0.286158
N75	N	0.274420	-0.313934	0.619492
N76	N	-0.322995	-0.981742	-0.047168
N77	N	0.010339	-0.648409	0.286165
N78	N	0.343672	-0.315076	0.619498
C79	C	-0.282503	-0.926889	0.000086
C80	C	0.050831	-0.593556	0.333420
C81	C	0.384164	-0.260223	0.666753
C82	C	-0.542905	-0.994108	0.000071
C83	C	-0.209571	-0.660775	0.333404
C84	C	0.123762	-0.327442	0.666738
C85	C	-0.615801	-0.992903	0.000052
C86	C	-0.282467	-0.659569	0.333386
C87	C	0.050866	-0.326236	0.666719
C88	C	-0.607124	-0.850007	0.000036
C89	C	-0.273791	-0.516674	0.333369
C90	C	0.059542	-0.183340	0.666703
C91	C	-0.534230	-0.851215	0.000046
C92	C	-0.200897	-0.517881	0.333380
C93	C	0.132437	-0.184548	0.666713
C94	C	-0.502125	-0.923267	0.000068
C95	C	-0.168791	-0.589934	0.333401
C96	C	0.164542	-0.256601	0.666734
C97	C	0.274513	-0.919575	0.000055
C98	C	0.607846	-0.586242	0.333388
C99	C	0.941179	-0.252908	0.666722
C100	C	0.352091	-0.920856	0.000043
C101	C	0.685425	-0.587523	0.333376
C102	C	1.018758	-0.254190	0.666709
N103	N	0.155784	-0.915388	0.216410
N104	N	0.489117	-0.582055	0.549744
N105	N	0.822451	-0.248721	0.883077
C106	C	0.198212	-0.644922	0.000043
C107	C	0.531545	-0.311588	0.333377
C108	C	0.864878	0.021745	0.666710
C109	C	0.192351	-0.563155	0.000056
C110	C	0.525685	-0.229821	0.333389
C111	C	0.859018	0.103512	0.666722
C112	C	0.126351	-0.531836	0.000072
C113	C	0.459684	-0.198502	0.333405
C114	C	0.793018	0.134831	0.666738
C115	C	0.066208	-0.582288	0.000084
C116	C	0.399541	-0.248955	0.333417
C117	C	0.732874	0.084378	0.666750
C118	C	0.072069	-0.664054	0.000077
C119	C	0.405402	-0.330720	0.333410
C120	C	0.738735	0.002613	0.666744
C121	C	0.102059	-0.288320	0.000098
C122	C	0.435393	0.045013	0.333431
C123	C	0.768726	0.378347	0.666765
C124	C	0.096203	-0.206548	0.000102
C125	C	0.429536	0.126785	0.333435
C126	C	0.762869	0.460118	0.666769
C127	C	0.222347	-0.187420	0.000076
C128	C	0.555680	0.145913	0.333409
C129	C	0.889014	0.479246	0.666742
C130	C	0.228202	-0.269188	0.000064
C131	C	0.561536	0.064145	0.333398
C132	C	0.894869	0.397478	0.666731
C133	C	0.168059	-0.319633	0.000081
C134	C	0.501392	0.013700	0.333414
C135	C	0.834725	0.347033	0.666747
N136	N	0.120359	-0.448257	0.000082
N137	N	0.453693	-0.114924	0.333415
N138	N	0.787026	0.218410	0.666749
N139	N	0.174051	-0.403210	0.000076
N140	N	0.507385	-0.069877	0.333410
N141	N	0.840718	0.263456	0.666743
N142	N	0.138625	-0.936088	-0.216258
N143	N	0.471959	-0.602755	0.117076
N144	N	0.805292	-0.269421	0.450409
C145	C	0.113057	-0.966776	0.260117
C146	C	0.446390	-0.633442	0.593450
C147	C	0.779723	-0.300109	0.926784
C148	C	0.116526	-0.962607	0.347523
C149	C	0.449860	-0.629274	0.680856
C150	C	0.783193	-0.295941	1.014189
C151	C	0.162727	-0.907054	0.391220
C152	C	0.496061	-0.573721	0.724554
C153	C	0.829394	-0.240388	1.057887
C154	C	0.205456	-0.855661	0.347508
C155	C	0.538790	-0.522328	0.680841
C156	C	0.872123	-0.188995	1.014175
C157	C	0.201983	-0.859826	0.260104
C158	C	0.535316	-0.526493	0.593437
C159	C	0.868649	-0.193160	0.926770
C160	C	0.177881	-0.888860	0.652626
C161	C	0.511214	-0.555527	0.985959
C162	C	0.844547	-0.222193	1.319292
C163	C	0.181353	-0.884700	0.740036
C164	C	0.514686	-0.551367	1.073369
C165	C	0.848019	-0.218034	1.406703
C166	C	0.092421	-0.991646	0.740045
C167	C	0.425755	-0.658313	1.073378
C168	C	0.759088	-0.324979	1.406711
C169	C	0.088955	-0.995810	0.652639
C170	C	0.422288	-0.662476	0.985972
C171	C	0.755621	-0.329143	1.319305
C172	C	0.131681	-0.944414	0.608934
C173	C	0.465014	-0.611080	0.942267
C174	C	0.798348	-0.277747	1.275601
N175	N	0.166276	-0.902794	0.480563
N176	N	0.499610	-0.569461	0.813896
N177	N	0.832943	-0.236127	1.147230
N178	N	0.128128	-0.948671	0.519593
N179	N	0.461461	-0.615338	0.852926
N180	N	0.794795	-0.282004	1.186259
H181	H	-0.072320	-1.060123	0.000129
H182	H	0.261013	-0.726790	0.333462
H183	H	0.594347	-0.393457	0.666796
H184	H	0.212672	-0.847013	0.617048
H185	H	0.546005	-0.513680	0.950381
H186	H	0.879338	-0.180346	1.283715
F187	F	0.256360	-0.509469	0.000042
F188	F	0.589693	-0.176136	0.333375
F189	F	0.923027	0.157198	0.666709
F190	F	0.025954	-0.173219	0.000134
F191	F	0.359287	0.160115	0.333467
F192	F	0.692620	0.493448	0.666800
F193	F	-0.214758	-1.075649	0.000112
F194	F	0.118575	-0.742315	0.333445
F195	F	0.451909	-0.408982	0.666779
H196	H	0.281946	-0.294682	0.000042
H197	H	0.615279	0.038651	0.333375
H198	H	0.948613	0.371985	0.666708
H199	H	-0.516763	-1.052778	0.000085
H200	H	-0.183430	-0.719445	0.333418
H201	H	0.149904	-0.386111	0.666751
H202	H	0.075438	-1.012016	0.224544
H203	H	0.408771	-0.678683	0.557877
H204	H	0.742105	-0.345349	0.891210
H205	H	0.243072	-0.810425	0.383092
H206	H	0.576405	-0.477091	0.716425
H207	H	0.909738	-0.143758	1.049758
H208	H	-0.633270	-0.791346	0.000025
H209	H	-0.299937	-0.458013	0.333359
H210	H	0.033397	-0.124679	0.666692
H211	H	-0.649002	-1.050591	0.000057
H212	H	-0.315669	-0.717257	0.333390
H213	H	0.017665	-0.383924	0.666724
F214	F	0.039783	-1.054936	0.606133
F215	F	0.373117	-0.721602	0.939467
F216	F	0.706450	-0.388269	1.272800
F217	F	0.071050	-1.017299	0.394038
F218	F	0.404384	-0.683966	0.727372
F219	F	0.737717	-0.350632	1.060705
H220	H	0.057635	-1.033489	0.775637
H221	H	0.390968	-0.700156	1.108970
H222	H	0.724301	-0.366823	1.442304
F223	F	-0.490829	-0.775818	0.000037
F224	F	-0.157495	-0.442484	0.333371
F225	F	0.175838	-0.109151	0.666704
H226	H	0.251956	-0.670415	0.000030
H227	H	0.585289	-0.337081	0.333363
H228	H	0.918623	-0.003748	0.666696
F229	F	0.286351	-0.133728	0.000060
F230	F	0.619685	0.199605	0.333394
F231	F	0.953018	0.532939	0.666727
H232	H	0.053086	-0.329383	0.000112
H233	H	0.386419	0.003950	0.333445
H234	H	0.719753	0.337283	0.666779
F235	F	-0.046382	-0.783162	0.000069
F236	F	0.286951	-0.449829	0.333402
F237	F	0.620285	-0.116495	0.666735
H238	H	-0.188827	-0.798696	0.000068
H239	H	0.144507	-0.465363	0.333401
H240	H	0.477840	-0.132029	0.666734
F241	F	-0.004035	-0.548954	0.000106
F242	F	0.329298	-0.215621	0.333439
F243	F	0.662632	0.117713	0.666773
F244	F	0.008060	-0.717742	0.000090
F245	F	0.341394	-0.384409	0.333423
F246	F	0.674727	-0.051076	0.666757
F247	F	0.230531	-0.825570	0.786537
F248	F	0.563864	-0.492237	1.119870
F249	F	0.897197	-0.158904	1.453204
H250	H	0.236775	-0.817980	0.224519
H251	H	0.570108	-0.484647	0.557852
H252	H	0.903441	-0.151313	0.891185
