data_functionalizedCrystal
_audit_creation_method	'MofGen! by Chris Wilmer'
_symmetry_space_group_name_H-M	'P1'
_symmetry_Int_Tables_number	1
_symmetry_cell_setting	triclinic
loop_
_symmetry_equiv_pos_as_xyz
  x,y,z
_cell_length_a	23.532407
_cell_length_b	23.532407
_cell_length_c	22.010155
_cell_angle_alpha	90.000423
_cell_angle_beta	89.996931
_cell_angle_gamma	97.151322
loop_
_atom_site_label
_atom_site_type_symbol
_atom_site_fract_x
_atom_site_fract_y
_atom_site_fract_z
O1	O	0.755264	-0.069127	-0.050455
O2	O	0.589400	-0.079130	-0.050474
O3	O	0.677334	0.008803	-0.050453
O4	O	0.667330	-0.157060	-0.050476
O5	O	0.677318	0.008790	0.050597
O6	O	0.589384	-0.079143	0.050576
O7	O	0.755248	-0.069140	0.050595
Cu8	Cu	0.672315	-0.074143	0.059812
Cu9	Cu	0.672333	-0.074127	-0.059691
O10	O	0.667314	-0.157073	0.050574
C11	C	0.568176	-0.078882	0.000049
C12	C	0.504959	-0.078116	0.000042
C13	C	0.105856	-0.125350	0.000063
C14	C	0.046456	-0.124638	0.000067
O15	O	0.009711	-0.168424	0.000083
N16	N	0.023830	-0.072362	0.000073
C17	C	0.060607	-0.020794	0.000082
O18	O	0.035908	0.023737	0.000088
C19	C	0.120006	-0.021506	0.000082
C20	C	0.142629	-0.073785	0.000070
C21	C	0.128479	-0.177625	0.000051
C22	C	0.187876	-0.178336	0.000046
C23	C	0.224649	-0.126772	0.000053
C24	C	0.202025	-0.074497	0.000065
C25	C	0.156783	0.030062	0.000096
C26	C	0.216185	0.029345	0.000097
C27	C	0.238808	-0.022934	0.000084
C28	C	0.298194	-0.023643	0.000067
N29	N	0.320820	-0.075920	0.000061
C30	C	0.284048	-0.127484	0.000054
C31	C	-0.064135	-0.019302	0.000082
C32	C	-0.123533	-0.018589	0.000077
C33	C	-0.137680	-0.122434	0.000063
C34	C	-0.078281	-0.123146	0.000064
C35	C	-0.041509	-0.071578	0.000076
C36	C	0.408784	-0.128974	0.000043
C37	C	0.468186	-0.129680	0.000035
C38	C	0.482329	-0.025836	0.000052
C39	C	0.422932	-0.025129	0.000057
C40	C	0.386160	-0.076702	0.000054
O41	O	0.334974	0.020119	0.000054
O42	O	0.308755	-0.172007	0.000055
C43	C	0.677071	0.030013	0.000074
C44	C	0.676305	0.093230	0.000078
C45	C	0.776472	-0.069388	0.000071
C46	C	0.839689	-0.070154	0.000073
C47	C	0.667577	-0.178283	0.000046
C48	C	0.668343	-0.241500	0.000037
N49	N	0.672305	-0.074153	0.143865
C50	C	0.723539	0.492333	0.000050
C51	C	0.722827	0.551733	0.000046
O52	O	0.766613	0.588478	0.000028
N53	N	0.670551	0.574359	0.000040
C54	C	0.618983	0.537582	0.000033
O55	O	0.574452	0.562281	0.000027
C56	C	0.619695	0.478182	0.000033
C57	C	0.671974	0.455560	0.000045
C58	C	0.775814	0.469710	0.000061
C59	C	0.776525	0.410313	0.000067
C60	C	0.724961	0.373540	0.000062
C61	C	0.672685	0.396164	0.000051
C62	C	0.568127	0.441406	0.000022
C63	C	0.568844	0.382004	0.000022
C64	C	0.621123	0.359381	0.000034
C65	C	0.621832	0.299995	0.000052
N66	N	0.674109	0.277368	0.000057
C67	C	0.725673	0.314141	0.000062
C68	C	0.617491	0.662324	0.000031
C69	C	0.616778	0.721722	0.000035
C70	C	0.720623	0.735869	0.000047
C71	C	0.721335	0.676470	0.000047
C72	C	0.669767	0.639698	0.000037
C73	C	0.727163	0.189405	0.000075
C74	C	0.727869	0.130003	0.000083
C75	C	0.624025	0.115860	0.000069
C76	C	0.623318	0.175257	0.000064
C77	C	0.674891	0.212029	0.000065
O78	O	0.578070	0.263215	0.000067
O79	O	0.770196	0.289433	0.000060
N80	N	0.672347	-0.074112	-0.143744
C81	C	0.711273	-0.035196	0.563653
C82	C	0.711275	-0.035192	0.627261
O83	O	0.744384	-0.002076	0.660160
N84	N	0.672333	-0.074115	0.659072
C85	C	0.633382	-0.113041	0.627272
O86	O	0.600259	-0.146148	0.660170
C87	C	0.633377	-0.113042	0.563665
C88	C	0.672326	-0.074120	0.531858
C89	C	0.750217	0.003723	0.531846
C90	C	0.750215	0.003719	0.468243
C91	C	0.711268	-0.035205	0.436447
C92	C	0.672324	-0.074125	0.468255
C93	C	0.594424	-0.151965	0.531866
C94	C	0.594422	-0.151962	0.468256
C95	C	0.633370	-0.113040	0.436448
C96	C	0.633374	-0.113054	0.372856
N97	N	0.672317	-0.074130	0.341045
C98	C	0.711263	-0.035206	0.372841
C99	C	0.633395	-0.113036	0.760850
C100	C	0.633402	-0.113039	0.824455
C101	C	0.711294	-0.035188	0.824440
C102	C	0.711290	-0.035189	0.760833
C103	C	0.672337	-0.074113	0.729039
C104	C	0.711256	-0.035220	0.239269
C105	C	0.711252	-0.035229	0.175660
C106	C	0.633358	-0.113077	0.175681
C107	C	0.633364	-0.113070	0.239284
C108	C	0.672315	-0.074136	0.271077
O109	O	0.600282	-0.146151	0.339916
O110	O	0.744376	-0.002100	0.339935
H111	H	0.138375	0.072634	0.000106
H112	H	0.574207	0.740136	0.000036
H113	H	0.525555	0.459814	0.000009
C114	C	0.551576	-0.194776	0.566846
C115	C	0.573567	-0.238227	0.610572
C116	C	0.530716	-0.281039	0.645551
C117	C	0.465874	-0.280401	0.636804
C118	C	0.443879	-0.236949	0.593076
C119	C	0.486731	-0.194136	0.558097
H120	H	0.621570	-0.238701	0.617049
H121	H	0.546998	-0.313206	0.677922
H122	H	0.434153	-0.312093	0.662698
H123	H	0.395876	-0.236475	0.586599
H124	H	0.470449	-0.161970	0.525726
H125	H	0.601654	-0.144769	0.265183
C126	C	0.754130	0.007629	0.725848
C127	C	0.753545	0.072478	0.734601
C128	C	0.796386	0.115300	0.699620
C129	C	0.839812	0.093272	0.655886
C130	C	0.840398	0.028419	0.647132
C131	C	0.797557	-0.014402	0.682113
H132	H	0.721397	0.088788	0.766977
H133	H	0.795951	0.163308	0.706101
H134	H	0.871525	0.124970	0.629991
H135	H	0.872547	0.012110	0.614755
H136	H	0.797992	-0.062410	0.675632
H137	H	0.582043	0.085909	0.000067
H138	H	0.743006	-0.003493	0.850339
C139	C	0.834033	0.385432	0.000071
C140	C	0.848811	0.346544	-0.052402
C141	C	0.906321	0.321666	-0.052401
C142	C	0.949054	0.335676	0.000071
C143	C	0.934278	0.374565	0.052548
C144	C	0.876767	0.399443	0.052547
H145	H	0.817176	0.336172	-0.091249
H146	H	0.917260	0.292878	-0.091248
H147	H	0.991627	0.317260	0.000072
H148	H	0.965913	0.384938	0.091395
H149	H	0.865829	0.428232	0.091394
C150	C	0.793053	0.046539	0.433258
C151	C	0.792462	0.111387	0.442009
C152	C	0.835300	0.154212	0.407028
C153	C	0.878729	0.132187	0.363295
C154	C	0.879322	0.067336	0.354542
C155	C	0.836484	0.024511	0.389523
H156	H	0.760311	0.127694	0.474384
H157	H	0.834861	0.202219	0.413508
H158	H	0.910440	0.163889	0.337400
H159	H	0.911473	0.051029	0.322167
H160	H	0.836923	-0.023496	0.383043
C161	C	0.754096	0.007589	0.140672
C162	C	0.754100	0.007588	0.070708
C163	C	0.796941	0.050406	0.035722
C164	C	0.839779	0.093224	0.070701
C165	C	0.839777	0.093226	0.140670
C166	C	0.796935	0.050408	0.175655
H167	H	0.722388	-0.024109	0.044811
H168	H	0.796943	0.050404	-0.016073
H169	H	0.871493	0.124920	0.044803
H170	H	0.871489	0.124923	0.166567
H171	H	0.796934	0.050410	0.227451
H172	H	0.601692	-0.144738	0.850348
C173	C	0.398046	0.032379	0.000065
C174	C	0.359154	0.047161	-0.052398
C175	C	0.334274	0.104671	-0.052383
C176	C	0.348286	0.147398	0.000097
C177	C	0.387179	0.132617	0.052564
C178	C	0.412059	0.075108	0.052549
H179	H	0.348781	0.015531	-0.091250
H180	H	0.305483	0.115612	-0.091223
H181	H	0.329868	0.189970	0.000108
H182	H	0.397552	0.164248	0.091416
H183	H	0.440850	0.064166	0.091389
C184	C	0.590516	-0.155891	0.140700
C185	C	0.590512	-0.155889	0.070735
C186	C	0.547666	-0.198700	0.035753
C187	C	0.504822	-0.241513	0.070735
C188	C	0.504824	-0.241517	0.140703
C189	C	0.547671	-0.198706	0.175686
H190	H	0.622229	-0.124195	0.044836
H191	H	0.547665	-0.198697	-0.016043
H192	H	0.473105	-0.273205	0.044839
H193	H	0.473107	-0.273211	0.166603
H194	H	0.547672	-0.198709	0.227481
H195	H	0.580748	0.193677	0.000071
C196	C	0.560761	0.621877	0.000031
C197	C	0.517834	0.624212	-0.052443
C198	C	0.461105	0.583769	-0.052443
C199	C	0.447303	0.540990	0.000030
C200	C	0.490232	0.538653	0.052508
C201	C	0.546961	0.579096	0.052509
H202	H	0.528050	0.655881	-0.091290
H203	H	0.429326	0.585499	-0.091291
H204	H	0.405309	0.511051	0.000030
H205	H	0.480016	0.506984	0.091356
H206	H	0.578740	0.577366	0.091357
H207	H	0.770443	0.111587	0.000094
C208	C	0.368342	-0.185704	0.000034
C209	C	0.370681	-0.228623	-0.052450
C210	C	0.330238	-0.285353	-0.052463
C211	C	0.287456	-0.299163	0.000008
C212	C	0.285115	-0.256243	0.052496
C213	C	0.325558	-0.199513	0.052509
H214	H	0.402352	-0.218401	-0.091296
H215	H	0.331971	-0.317125	-0.091319
H216	H	0.257518	-0.341158	-0.000002
H217	H	0.253444	-0.266465	0.091342
H218	H	0.323825	-0.167741	0.091365
C219	C	0.088036	-0.234352	0.000041
C220	C	0.090382	-0.277271	-0.052442
C221	C	0.049943	-0.334003	-0.052458
C222	C	0.007158	-0.347816	0.000010
C223	C	0.004810	-0.304896	0.052497
C224	C	0.045249	-0.248164	0.052512
H225	H	0.122056	-0.267047	-0.091286
H226	H	0.051681	-0.365775	-0.091313
H227	H	-0.022778	-0.389813	-0.000002
H228	H	-0.026864	-0.315120	0.091340
H229	H	0.043510	-0.216392	0.091367
H230	H	0.486602	-0.172255	0.000025
C231	C	0.512117	0.341554	0.000013
C232	C	0.469195	0.343885	-0.052468
C233	C	0.412469	0.303437	-0.052475
C234	C	0.398665	0.260658	-0.000003
C235	C	0.441587	0.258325	0.052482
C236	C	0.498313	0.298773	0.052489
H237	H	0.479413	0.375554	-0.091315
H238	H	0.380695	0.305164	-0.091328
H239	H	0.356673	0.230715	-0.000009
H240	H	0.431370	0.226656	0.091329
H241	H	0.530087	0.297046	0.091342
H242	H	0.206289	-0.220908	0.000036
C243	C	-0.023688	0.037428	0.000084
C244	C	-0.026027	0.080356	0.052559
C245	C	0.014417	0.137085	0.052562
C246	C	0.057199	0.150885	0.000090
C247	C	0.059540	0.107956	-0.052389
C248	C	0.019096	0.051227	-0.052392
H249	H	-0.057698	0.070142	0.091406
H250	H	0.012684	0.168865	0.091411
H251	H	0.087138	0.192880	0.000092
H252	H	0.091212	0.118170	-0.091236
H253	H	0.020829	0.019447	-0.091241
H254	H	0.817806	0.499645	0.000063
H255	H	-0.059867	-0.165717	0.000057
H256	H	0.562700	-0.183658	0.442372
C257	C	0.778843	0.651588	0.000054
C258	C	0.821571	0.665595	0.052532
C259	C	0.879081	0.640717	0.052538
C260	C	0.893864	0.601831	0.000066
C261	C	0.851135	0.587822	-0.052415
C262	C	0.793624	0.612700	-0.052421
H263	H	0.810629	0.694383	0.091378
H264	H	0.910712	0.651088	0.091389
H265	H	0.936436	0.583415	0.000071
H266	H	0.862077	0.559035	-0.091262
H267	H	0.761994	0.602330	-0.091272
H268	H	-0.167632	-0.164421	0.000060
H269	H	-0.141947	0.023982	0.000078
H270	H	0.246123	0.071339	0.000107
H271	H	0.769159	0.219337	0.000073
H272	H	0.512280	0.016146	0.000056
H273	H	0.762610	0.765821	0.000048
H274	H	0.742973	-0.003516	0.265148
H275	H	0.781933	0.035423	0.557728
H276	H	0.601676	-0.144737	0.734966
