data_functionalizedCrystal
_audit_creation_method	'MofGen! by Chris Wilmer'
_symmetry_space_group_name_H-M	'P1'
_symmetry_Int_Tables_number	1
_symmetry_cell_setting	triclinic
loop_
_symmetry_equiv_pos_as_xyz
  x,y,z
_cell_length_a	17.639181
_cell_length_b	17.640280
_cell_length_c	11.169409
_cell_angle_alpha	78.765552
_cell_angle_beta	101.199872
_cell_angle_gamma	70.392638
loop_
_atom_site_label
_atom_site_type_symbol
_atom_site_fract_x
_atom_site_fract_y
_atom_site_fract_z
Zn1	Zn	1.326091	-0.582484	-0.092163
Zn2	Zn	1.353868	-0.720298	0.159332
Zn3	Zn	1.188298	-0.554696	0.057614
Zn4	Zn	1.216137	-0.692410	-0.092213
O5	O	1.271098	-0.637472	0.008142
O6	O	1.445083	-0.624067	-0.016211
O7	O	1.331880	-0.698373	0.313794
O8	O	1.183301	-0.443072	-0.004802
O9	O	1.465491	-0.725318	0.168561
O10	O	1.284536	-0.463488	-0.114843
O11	O	1.210236	-0.576705	0.239062
O12	O	1.076683	-0.549663	-0.004852
O13	O	1.230748	-0.677786	-0.260162
O14	O	1.097136	-0.650841	-0.114929
O15	O	1.311530	-0.597024	-0.260124
O16	O	1.358874	-0.831908	0.168512
O17	O	1.257683	-0.811419	-0.016297
C18	C	1.057012	-0.594211	-0.070934
C19	C	0.965428	-0.575723	-0.104785
C20	C	0.717298	-0.778103	0.265353
C21	C	0.631239	-0.760720	0.233531
C22	C	0.610022	-0.655457	0.040962
C23	C	0.696080	-0.672828	0.072772
C24	C	0.749712	-0.734153	0.184968
C25	C	0.728493	-0.628878	-0.007614
C26	C	0.814544	-0.646251	0.024190
C27	C	0.868182	-0.707575	0.136379
C28	C	0.835763	-0.751526	0.216772
C29	C	0.674861	-0.567558	-0.119814
C30	C	0.707274	-0.523608	-0.200200
C31	C	0.793326	-0.540976	-0.168392
C32	C	0.846964	-0.602300	-0.056203
C33	C	0.825745	-0.497025	-0.248785
C34	C	0.911796	-0.514398	-0.216981
C35	C	0.933015	-0.619673	-0.024399
C36	C	1.314336	-0.851567	0.087122
C37	C	1.332908	-0.943173	0.120897
C38	C	1.130343	-1.191206	-0.248758
C39	C	1.147797	-1.277284	-0.216982
C40	C	1.253232	-1.298567	-0.024671
C41	C	1.235790	-1.212490	-0.056434
C42	C	1.174345	-1.158816	-0.168478
C43	C	1.279792	-1.180100	0.023846
C44	C	1.262348	-1.094029	-0.007911
C45	C	1.200903	-1.040349	-0.119949
C46	C	1.156901	-1.072745	-0.200236
C47	C	1.341233	-1.233775	0.135894
C48	C	1.385234	-1.201385	0.216174
C49	C	1.367795	-1.115313	0.184413
C50	C	1.306350	-1.061633	0.072375
C51	C	1.411798	-1.082918	0.264699
C52	C	1.394354	-0.996847	0.232942
C53	C	1.288907	-0.975563	0.040618
C54	C	1.486021	-0.680903	0.087527
C55	C	1.577609	-0.699411	0.121356
C56	C	1.271146	-0.637394	-0.304909
C57	C	1.271166	-0.637361	-0.438313
C58	C	1.227715	-0.422546	-0.071163
C59	C	1.209227	-0.330957	-0.104959
C60	C	1.271086	-0.637500	0.319972
C61	C	1.271179	-0.637333	0.453349
H62	H	0.566344	-0.605529	-0.050390
O63	O	0.951772	-0.724450	0.167498
C64	C	0.976182	-0.708977	0.285231
H65	H	0.929400	-0.712984	0.341229
H66	H	1.041249	-0.757752	0.341636
H67	H	0.977637	-0.643684	0.268032
O68	O	1.437120	-0.965298	0.310737
C69	C	1.480225	-0.926203	0.243602
H70	H	1.448515	-0.907417	0.137175
H71	H	1.479020	-0.867924	0.274232
H72	H	1.547996	-0.971654	0.265112
O73	O	1.229286	-0.923513	-0.068350
C74	C	1.251523	-0.948096	-0.173614
H75	H	1.295848	-1.016965	-0.141393
H76	H	1.192642	-0.939035	-0.248254
H77	H	1.284059	-0.908167	-0.216315
H78	H	0.604854	-0.796516	0.298997
O79	O	0.985109	-0.679354	0.084492
C80	C	0.980676	-0.757258	0.081017
H81	H	0.957901	-0.756724	-0.022019
H82	H	1.045489	-0.809383	0.127372
H83	H	0.935054	-0.768664	0.134887
H84	H	1.355436	-1.303859	0.161745
H85	H	0.663596	-0.473679	-0.291553
H86	H	0.879433	-0.801458	0.308139
O87	O	0.773766	-0.437462	-0.357848
C88	C	0.820825	-0.402379	-0.421964
H89	H	0.888989	-0.448513	-0.390908
H90	H	0.794238	-0.388654	-0.528939
H91	H	0.817302	-0.341601	-0.397895
H92	H	0.604793	-0.553417	-0.145708
H93	H	0.760968	-0.828035	0.356721
O94	O	1.444909	-1.253647	0.324944
C95	C	1.450849	-1.336557	0.335788
H96	H	1.426220	-1.342843	0.237551
H97	H	1.519189	-1.381698	0.378728
H98	H	1.411944	-1.352172	0.399852
H99	H	1.106872	-1.029042	-0.291480
O100	O	0.943351	-0.471832	-0.295130
C101	C	1.002659	-0.528868	-0.336769
H102	H	0.989837	-0.588536	-0.329674
H103	H	0.997667	-0.499339	-0.439796
H104	H	1.068430	-0.544848	-0.274511
H105	H	1.111971	-1.303653	-0.282374
O106	O	1.070614	-1.139173	-0.357631
C107	C	1.035537	-1.186220	-0.421713
H108	H	1.045124	-1.247020	-0.350958
H109	H	0.965584	-1.148274	-0.467602
H110	H	1.067537	-1.201408	-0.498395
O111	O	1.471573	-1.134996	0.373487
C112	C	1.549422	-1.130507	0.369700
H113	H	1.538456	-1.068339	0.301124
H114	H	1.585803	-1.135045	0.468852
H115	H	1.586956	-1.184508	0.336064
H116	H	1.186696	-0.970264	-0.145797
O117	O	1.312907	-1.350829	0.084100
C118	C	1.318847	-1.433739	0.094943
H119	H	1.294218	-1.440026	-0.003294
H120	H	1.387187	-1.478881	0.137883
H121	H	1.279941	-1.449355	0.159007
