data_functionalizedCrystal
_audit_creation_method	'MofGen! by Chris Wilmer'
_symmetry_space_group_name_H-M	'P1'
_symmetry_Int_Tables_number	1
_symmetry_cell_setting	triclinic
loop_
_symmetry_equiv_pos_as_xyz
  x,y,z
_cell_length_a	10.686220
_cell_length_b	12.827892
_cell_length_c	10.686551
_cell_angle_alpha	85.594733
_cell_angle_beta	90.307919
_cell_angle_gamma	94.397169
loop_
_atom_site_label
_atom_site_type_symbol
_atom_site_fract_x
_atom_site_fract_y
_atom_site_fract_z
Zn1	Zn	1.972286	-0.254765	-0.562394
Zn2	Zn	2.472286	0.245235	-0.062394
Zn3	Zn	1.956055	-0.443910	-0.352637
Zn4	Zn	2.456055	0.056090	0.147363
Zn5	Zn	1.746404	-0.281498	-0.368711
Zn6	Zn	2.246404	0.218502	0.131289
Zn7	Zn	1.762485	-0.441793	-0.578414
Zn8	Zn	2.262485	0.058207	-0.078414
O9	O	1.859308	-0.355491	-0.465539
O10	O	2.359308	0.144509	0.034461
O11	O	2.145675	-0.269554	-0.521138
O12	O	2.645675	0.230446	-0.021138
O13	O	1.914722	-0.434439	-0.179224
O14	O	2.414722	0.065561	0.320776
O15	O	1.776431	-0.131710	-0.394426
O16	O	2.276431	0.368290	0.105574
O17	O	2.133750	-0.408517	-0.367031
O18	O	2.633750	0.091483	0.132969
O19	O	1.942385	-0.112070	-0.536725
O20	O	2.442385	0.387930	-0.036725
O21	O	1.760692	-0.315116	-0.191034
O22	O	2.260692	0.184884	0.308966
O23	O	1.572995	-0.313063	-0.409960
O24	O	2.072995	0.186937	0.090040
O25	O	1.803838	-0.404909	-0.751835
O26	O	2.303838	0.095091	-0.251835
O27	O	1.584810	-0.430831	-0.564028
O28	O	2.084810	0.069169	-0.064028
O29	O	1.957978	-0.267501	-0.740065
O30	O	2.457978	0.232499	-0.240065
O31	O	1.930315	-0.589870	-0.382565
O32	O	2.430315	-0.089870	0.117435
O33	O	1.788100	-0.588315	-0.548442
O34	O	2.288100	-0.088315	-0.048442
C35	C	1.533387	-0.374619	-0.490478
C36	C	2.033387	0.125381	0.009522
C37	C	1.393958	-0.382825	-0.501176
C38	C	1.893958	0.117175	-0.001176
C39	C	1.859227	-0.627008	-0.465522
C40	C	2.359227	-0.127008	0.034478
C41	C	1.859311	-0.743154	-0.465548
C42	C	2.359311	-0.243154	0.034452
C43	C	1.941402	-0.785133	-0.536033
C44	C	2.441402	-0.285133	-0.036033
C45	C	1.941490	-0.905176	-0.536061
C46	C	2.441490	-0.405176	-0.036061
C47	C	2.186501	-0.336290	-0.440504
C48	C	2.686501	0.163710	0.059496
C49	C	2.325932	-0.328107	-0.429836
C50	C	2.825932	0.171893	0.070164
C51	C	1.884513	-0.332987	-0.792739
C52	C	2.384513	0.167013	-0.292739
C53	C	1.895253	-0.323397	-0.932173
C54	C	2.395253	0.176603	-0.432173
C55	C	1.859424	-0.082911	-0.465582
C56	C	2.359424	0.417089	0.034418
C57	C	1.859474	0.033246	-0.465599
C58	C	2.359474	0.533246	0.034401
C59	C	1.834273	-0.377829	-0.139607
C60	C	2.334273	0.122171	0.360393
C61	C	1.823775	-0.387110	-0.000156
C62	C	2.323775	0.112890	0.499844
H63	H	2.011614	-0.732205	-0.596362
H64	H	2.511614	-0.232205	-0.096362
F65	F	2.033362	-0.952409	-0.614932
F66	F	2.533362	-0.452409	-0.114932
H67	H	1.374363	-0.274985	-0.360563
H68	H	1.874363	0.225015	0.139437
F69	F	1.733050	-0.468004	-0.936808
F70	F	2.233050	0.031996	-0.436808
H71	H	1.789090	-0.796084	-0.405231
H72	H	2.289090	-0.296084	0.094769
F73	F	1.330665	-0.452268	-0.591706
F74	F	1.830665	0.047732	-0.091706
F75	F	1.767610	-0.919528	-0.386712
F76	F	2.267610	-0.419528	0.113288
H77	H	1.964676	-0.261512	-0.980646
H78	H	2.464676	0.238488	-0.480646
