data_functionalizedCrystal
_audit_creation_method	'MofGen! by Chris Wilmer'
_symmetry_space_group_name_H-M	'P1'
_symmetry_Int_Tables_number	1
_symmetry_cell_setting	triclinic
loop_
_symmetry_equiv_pos_as_xyz
  x,y,z
_cell_length_a	23.532407
_cell_length_b	10.540539
_cell_length_c	9.016244
_cell_angle_alpha	90.000067
_cell_angle_beta	90.001983
_cell_angle_gamma	83.687084
loop_
_atom_site_label
_atom_site_type_symbol
_atom_site_fract_x
_atom_site_fract_y
_atom_site_fract_z
O1	O	-0.756280	-0.154076	-0.123149
O2	O	-0.590564	-0.176370	-0.123191
O3	O	-0.677203	0.019607	-0.123167
O4	O	-0.669641	-0.350054	-0.123173
O5	O	-0.677190	0.019603	0.123514
O6	O	-0.590551	-0.176375	0.123490
O7	O	-0.756267	-0.154081	0.123532
Cu8	Cu	-0.673408	-0.165228	0.146035
Cu9	Cu	-0.673423	-0.165223	-0.145694
O10	O	-0.669628	-0.350058	0.123508
C11	C	-0.569338	-0.175805	0.000144
C12	C	-0.506109	-0.174098	0.000127
C13	C	-0.676629	0.066889	0.000170
C14	C	-0.674933	0.207782	0.000162
C15	C	-0.777493	-0.154646	0.000194
C16	C	-0.840722	-0.156353	0.000201
C17	C	-0.107702	-0.279368	0.000193
C18	C	-0.048291	-0.277782	0.000202
O19	O	-0.012191	-0.375368	0.000254
N20	N	-0.024895	-0.161273	0.000201
C21	C	-0.060914	-0.046343	0.000206
O22	O	-0.035558	0.052903	0.000208
C23	C	-0.120323	-0.047930	0.000208
C24	C	-0.143715	-0.164446	0.000194
C25	C	-0.131094	-0.395874	0.000180
C26	C	-0.190501	-0.397459	0.000168
C27	C	-0.226515	-0.282538	0.000169
C28	C	-0.203122	-0.166031	0.000182
C29	C	-0.156340	0.066999	0.000224
C30	C	-0.215753	0.065402	0.000227
C31	C	-0.239146	-0.051114	0.000212
C32	C	-0.298542	-0.052694	0.000171
N33	N	-0.321938	-0.169203	0.000171
C34	C	-0.285924	-0.284125	0.000171
C35	C	0.063851	-0.043019	0.000206
C36	C	0.123259	-0.041431	0.000194
C37	C	0.135878	-0.272870	0.000192
C38	C	0.076468	-0.274457	0.000193
C39	C	0.040455	-0.159528	0.000207
C40	C	-0.410683	-0.287445	0.000144
C41	C	-0.470095	-0.289020	0.000126
C42	C	-0.482709	-0.057581	0.000136
C43	C	-0.423302	-0.056005	0.000146
C44	C	-0.387290	-0.170947	0.000155
O45	O	-0.334677	0.044840	0.000124
O46	O	-0.311288	-0.383354	0.000188
C47	C	-0.670202	-0.397340	0.000167
C48	C	-0.671898	-0.538233	0.000166
N49	N	-0.673401	-0.165231	0.351221
C50	C	-0.609924	0.389075	-0.000408
C51	C	-0.611644	0.242514	0.000147
C52	C	-0.705383	0.270436	0.141037
C53	C	-0.703223	0.416910	0.141155
C54	C	-0.704525	0.417476	-0.139367
C55	C	-0.705108	0.270513	-0.141229
N56	N	-0.673434	-0.165210	-0.350880
C57	C	-0.626913	-0.269725	0.586241
C58	C	-0.627016	-0.270107	0.414349
C59	C	-0.732940	-0.193411	0.413574
C60	C	-0.732686	-0.194149	0.585519
C61	C	-0.660942	-0.032202	0.585763
C62	C	-0.659576	-0.033111	0.413808
H63	H	-0.381368	-0.381042	0.000156
O64	O	-0.579894	0.185035	-0.133600
H65	H	-0.600493	0.226254	-0.236131
O66	O	-0.579681	0.186148	0.134139
H67	H	-0.534629	0.207904	0.129232
O68	O	-0.521563	0.066361	0.000150
H69	H	-0.513197	0.122168	-0.100389
H70	H	-0.743611	-0.291128	0.625610
O71	O	-0.677356	0.213089	0.279895
H72	H	-0.631657	0.230221	0.281278
O73	O	-0.398065	0.069661	0.000157
H74	H	-0.433091	0.149305	0.000162
H75	H	0.057427	-0.369335	0.000190
O76	O	0.174727	-0.396829	0.000216
H77	H	0.219966	-0.376141	0.000238
H78	H	-0.691214	0.048248	0.370841
O79	O	-0.675638	0.215322	-0.279282
H80	H	-0.697214	0.260147	-0.378715
O81	O	-0.705836	0.070859	0.639687
H82	H	-0.728500	0.117963	0.543044
O83	O	-0.568128	-0.248037	0.641071
H84	H	-0.571437	-0.162539	0.713733
H85	H	-0.618444	-0.004917	0.629200
O86	O	-0.601554	-0.004764	0.359849
H87	H	-0.601498	-0.001453	0.236806
O88	O	-0.495327	-0.414695	0.000135
H89	H	-0.460300	-0.494337	0.000159
H90	H	-0.582777	-0.253427	0.372194
O91	O	-0.747739	-0.320404	0.356530
H92	H	-0.753104	-0.384881	0.451634
H93	H	-0.209541	-0.492339	0.000156
H94	H	-0.768413	-0.120986	0.627111
O95	O	0.025012	0.080954	0.000197
H96	H	-0.002352	0.085783	0.100747
O97	O	-0.576934	0.427995	0.132644
H98	H	-0.533253	0.376141	0.131161
H99	H	-0.748739	0.466372	0.147557
H100	H	-0.101777	-0.489463	0.000185
H101	H	-0.634838	-0.367888	0.629435
H102	H	0.142300	0.053449	0.000182
H103	H	-0.137305	0.161879	0.000237
H104	H	-0.751860	0.249608	0.146286
O105	O	-0.779922	-0.095231	0.359415
H106	H	-0.761290	-0.025146	0.287301
H107	H	-0.245073	0.158995	0.000238
O108	O	-0.673394	0.453298	0.280616
H109	H	-0.660642	0.366316	0.347335
O110	O	-0.677400	0.458366	-0.280810
H111	H	-0.640358	0.510719	-0.253230
O112	O	-0.766232	0.240453	-0.152493
H113	H	-0.776104	0.180070	-0.057059
H114	H	-0.750238	0.466202	-0.140303
O115	O	-0.576808	0.425899	-0.134208
H116	H	-0.599255	0.401144	-0.236739
H117	H	-0.635046	-0.368827	0.373204
