data_functionalizedCrystal
_audit_creation_method	'MofGen! by Chris Wilmer'
_symmetry_space_group_name_H-M	'P1'
_symmetry_Int_Tables_number	1
_symmetry_cell_setting	triclinic
loop_
_symmetry_equiv_pos_as_xyz
  x,y,z
_cell_length_a	12.759395
_cell_length_b	12.594516
_cell_length_c	12.594510
_cell_angle_alpha	90.032254
_cell_angle_beta	89.980990
_cell_angle_gamma	89.973424
loop_
_atom_site_label
_atom_site_type_symbol
_atom_site_fract_x
_atom_site_fract_y
_atom_site_fract_z
Zn1	Zn	1.606177	0.423655	-0.601765
Zn2	Zn	1.606032	0.601683	-0.423792
Zn3	Zn	1.430476	0.423718	-0.423806
Zn4	Zn	1.430430	0.601591	-0.601734
O5	O	1.518279	0.512662	-0.512774
O6	O	1.753178	0.447282	-0.578164
O7	O	1.582702	0.578140	-0.274848
O8	O	1.453863	0.274764	-0.447432
O9	O	1.753072	0.578079	-0.447408
O10	O	1.582949	0.274717	-0.578178
O11	O	1.453722	0.447390	-0.274858
O12	O	1.283449	0.447301	-0.447401
O13	O	1.453785	0.577922	-0.750684
O14	O	1.283415	0.577984	-0.578124
O15	O	1.582905	0.447193	-0.750707
O16	O	1.582658	0.750616	-0.447377
O17	O	1.453644	0.750549	-0.578110
C18	C	1.245311	0.512640	-0.512761
C19	C	1.128534	0.512657	-0.512781
C20	C	1.128626	0.376679	-0.649157
C21	C	1.073811	0.308703	-0.717354
C22	C	0.964089	0.308721	-0.717367
C23	C	0.909180	0.376722	-0.649174
C24	C	0.963995	0.444698	-0.580977
C25	C	1.073719	0.444674	-0.580974
C26	C	0.963904	0.580669	-0.444597
C27	C	1.073625	0.580657	-0.444587
C28	C	0.908994	0.648669	-0.376404
C29	C	0.963810	0.716652	-0.308211
C30	C	1.073538	0.716631	-0.308201
C31	C	1.128440	0.648633	-0.376391
C32	C	1.518159	0.789203	-0.512762
C33	C	1.518204	0.907508	-0.512792
C34	C	1.448014	0.976763	-0.583848
C35	C	1.422400	1.047638	-0.486726
C36	C	1.543874	1.047432	-0.609930
C37	C	1.492540	0.976825	-0.415619
C38	C	1.614059	0.976612	-0.538888
C39	C	1.588481	1.047455	-0.441700
C40	C	1.792312	0.512683	-0.512788
C41	C	1.909089	0.512693	-0.512794
C42	C	1.518356	0.512541	-0.790395
C43	C	1.518389	0.512489	-0.908701
C44	C	1.518381	1.235041	-0.512808
C45	C	1.518307	1.116735	-0.512819
C46	C	1.588642	0.441364	-1.048730
C47	C	1.614276	0.538485	-0.977910
C48	C	1.492802	0.415379	-0.977949
C49	C	1.544116	0.609629	-1.048667
C50	C	1.422597	0.486457	-1.048711
C51	C	1.448195	0.583645	-0.977924
C52	C	1.518262	0.512705	-0.236233
C53	C	1.518433	0.512457	-0.117928
H54	H	0.819839	0.376722	-0.649182
H55	H	1.470775	0.945937	-0.333459
C56	C	1.572710	1.088998	-0.719387
C57	C	1.573280	1.200154	-0.717715
C58	C	1.599815	1.238477	-0.818532
H59	H	1.640297	1.063748	-0.738503
H60	H	1.522719	1.064854	-0.769795
H61	H	1.623269	1.224287	-0.667323
H62	H	1.505703	1.225432	-0.698617
H63	H	1.549824	1.214333	-0.868939
H64	H	1.667401	1.213220	-0.837639
H65	H	1.600196	1.313899	-0.817413
H66	H	0.819653	0.648677	-0.376417
C67	C	0.904328	0.790646	-0.234242
C68	C	0.931008	0.895981	-0.257216
C69	C	0.876241	0.964175	-0.189089
H70	H	0.831116	0.781061	-0.243945
H71	H	0.922310	0.775047	-0.162735
H72	H	0.913019	0.911574	-0.328705
H73	H	1.004210	0.905600	-0.247506
H74	H	0.894223	0.948576	-0.117582
H75	H	0.803032	0.954580	-0.198797
H76	H	0.894342	1.035651	-0.204660
C77	C	1.573184	0.719054	-1.090112
C78	C	1.572946	0.717738	-1.201274
C79	C	1.599743	0.818510	-1.239491
H80	H	1.523659	0.769709	-1.065420
H81	H	1.641063	0.737642	-1.065334
H82	H	1.505076	0.699163	-1.226041
H83	H	1.622471	0.667104	-1.225994
H84	H	1.667623	0.837098	-1.214714
H85	H	1.550216	0.869157	-1.214792
H86	H	1.599595	0.817628	-1.314918
H87	H	1.118162	0.771983	-0.252663
H88	H	1.217967	0.376652	-0.649149
H89	H	1.695054	0.945394	-0.560985
C90	C	1.668057	0.361422	-1.090137
C91	C	1.768232	0.389164	-1.054281
C92	C	1.841417	0.315561	-1.092417
H93	H	1.650674	0.292582	-1.064909
H94	H	1.667144	0.361531	-1.165565
H95	H	1.769142	0.389044	-0.978869
H96	H	1.785648	0.457992	-1.079506
H97	H	1.840504	0.315670	-1.167845
H98	H	1.824024	0.246725	-1.067187
H99	H	1.909395	0.334379	-1.068103
H100	H	1.118530	0.253336	-0.772874
C101	C	1.247567	0.648810	-0.376491
C102	C	1.283859	0.750162	-0.403483
C103	C	1.393593	0.750356	-0.403600
H104	H	1.272497	0.630379	-0.307871
H105	H	1.272457	0.598627	-0.426900
H106	H	1.258980	0.800329	-0.353076
H107	H	1.258958	0.768613	-0.472103
H108	H	1.418482	0.700174	-0.454010
H109	H	1.418512	0.731922	-0.334979
H110	H	1.418231	0.819119	-0.421923
C111	C	1.314453	1.089305	-0.457093
C112	C	1.321840	1.150448	-0.364521
C113	C	1.222418	1.188833	-0.337193
H114	H	1.288027	1.131922	-0.513242
H115	H	1.268428	1.031241	-0.445182
H116	H	1.367849	1.208503	-0.376438
H117	H	1.348248	1.107854	-0.308352
H118	H	1.176392	1.130770	-0.325281
H119	H	1.195999	1.231446	-0.393348
H120	H	1.227414	1.230315	-0.274375
C121	C	1.667549	1.088536	-0.361337
C122	C	1.640240	1.052590	-0.259858
C123	C	1.713039	1.090426	-0.185798
H124	H	1.735441	1.063166	-0.379135
H125	H	1.667548	1.163966	-0.362126
H126	H	1.640252	0.977176	-0.259072
H127	H	1.572360	1.077957	-0.242027
H128	H	1.713039	1.165855	-0.186587
H129	H	1.780927	1.065053	-0.203606
H130	H	1.694515	1.066050	-0.116935
C131	C	1.722325	0.568011	-0.936591
C132	C	1.749596	0.668959	-0.973990
C133	C	1.849132	0.696179	-0.935969
H134	H	1.721490	0.568537	-0.861176
H135	H	1.772188	0.517476	-0.960866
H136	H	1.699746	0.719481	-0.949709
H137	H	1.750454	0.668459	-1.049400
H138	H	1.898995	0.645644	-0.960244
H139	H	1.848287	0.696700	-0.860555
H140	H	1.867652	0.764670	-0.961346
H141	H	0.919459	0.253363	-0.772893
C142	C	1.368588	0.935422	-0.663714
C143	C	1.268423	0.971395	-0.635902
C144	C	1.195227	0.933320	-0.709436
H145	H	1.385978	0.960611	-0.732576
H146	H	1.369479	0.859993	-0.663586
H147	H	1.267534	1.046809	-0.636042
H148	H	1.250999	0.946209	-0.567053
H149	H	1.196118	0.857891	-0.709307
H150	H	1.212627	0.958512	-0.778293
H151	H	1.127256	0.957714	-0.690571
C152	C	1.369140	0.664084	-0.936777
C153	C	1.396439	0.765530	-0.972781
C154	C	1.323652	0.839660	-0.934883
H155	H	1.301240	0.646334	-0.962067
H156	H	1.369163	0.663315	-0.861347
H157	H	1.396405	0.766296	-1.048195
H158	H	1.464327	0.783313	-0.947494
H159	H	1.323675	0.838891	-0.859453
H160	H	1.255756	0.821901	-0.960176
H161	H	1.342169	0.908501	-0.959298
H162	H	1.341594	0.464417	-1.079836
H163	H	1.471142	0.333269	-0.946881
