data_functionalizedCrystal
_audit_creation_method	'MofGen! by Chris Wilmer'
_symmetry_space_group_name_H-M	'P1'
_symmetry_Int_Tables_number	1
_symmetry_cell_setting	triclinic
loop_
_symmetry_equiv_pos_as_xyz
  x,y,z
_cell_length_a	25.639242
_cell_length_b	25.639239
_cell_length_c	11.169409
_cell_angle_alpha	89.960777
_cell_angle_beta	89.975137
_cell_angle_gamma	90.030990
loop_
_atom_site_label
_atom_site_type_symbol
_atom_site_fract_x
_atom_site_fract_y
_atom_site_fract_z
Zn1	Zn	0.799279	-0.208216	-0.678622
Zn2	Zn	0.799187	-0.295666	-0.477915
Zn3	Zn	0.711840	-0.208235	-0.477942
Zn4	Zn	0.711801	-0.295611	-0.678545
O5	O	0.755527	-0.251932	-0.578256
O6	O	0.872432	-0.219832	-0.652019
O7	O	0.787577	-0.284099	-0.309969
O8	O	0.723494	-0.135067	-0.504606
O9	O	0.872364	-0.284081	-0.504560
O10	O	0.787735	-0.135053	-0.652045
O11	O	0.723404	-0.219864	-0.309988
O12	O	0.638669	-0.219810	-0.504531
O13	O	0.723427	-0.283986	-0.846505
O14	O	0.638641	-0.284005	-0.651913
O15	O	0.787698	-0.219778	-0.846562
O16	O	0.787540	-0.368824	-0.504485
O17	O	0.723338	-0.368783	-0.651887
C18	C	0.619684	-0.251904	-0.578217
C19	C	0.561570	-0.251904	-0.578229
C20	C	0.310420	-0.218537	-0.655178
C21	C	0.365024	-0.218532	-0.655171
O22	O	0.393298	-0.190139	-0.720587
N23	N	0.392296	-0.251926	-0.578270
C24	C	0.364961	-0.285331	-0.501379
O25	O	0.393171	-0.313735	-0.435968
C26	C	0.310357	-0.285339	-0.501392
C27	C	0.283088	-0.251938	-0.578290
C28	C	0.283151	-0.185140	-0.732070
C29	C	0.228550	-0.185144	-0.732075
C30	C	0.201219	-0.218546	-0.655188
C31	C	0.228488	-0.251943	-0.578295
C32	C	0.283023	-0.318746	-0.424508
C33	C	0.228416	-0.318751	-0.424529
C34	C	0.201147	-0.285351	-0.501427
C35	C	0.146556	-0.285349	-0.501413
N36	N	0.119284	-0.251955	-0.578314
C37	C	0.146616	-0.218553	-0.655201
C38	C	0.479631	-0.285314	-0.501357
C39	C	0.534234	-0.285304	-0.501336
C40	C	0.534294	-0.218505	-0.655131
C41	C	0.479690	-0.218512	-0.655144
C42	C	0.452360	-0.251919	-0.578258
C43	C	0.031950	-0.218565	-0.655205
C44	C	-0.022655	-0.218571	-0.655200
C45	C	-0.022710	-0.285372	-0.501411
C46	C	0.031891	-0.285364	-0.501411
C47	C	0.059220	-0.251959	-0.578318
O48	O	0.118248	-0.313729	-0.436033
O49	O	0.118398	-0.190159	-0.720612
C50	C	0.755439	-0.387774	-0.578201
C51	C	0.755449	-0.445889	-0.578217
C52	C	0.789044	-0.806260	-0.501634
C53	C	0.789064	-0.860865	-0.501651
O54	O	0.817537	-0.889109	-0.436477
N55	N	0.755618	-0.888171	-0.578335
C56	C	0.722154	-0.860870	-0.655018
O57	O	0.693708	-0.889110	-0.720246
C58	C	0.722137	-0.806267	-0.655007
C59	C	0.755581	-0.778963	-0.578308
C60	C	0.822486	-0.778957	-0.424943
C61	C	0.822465	-0.724356	-0.424926
C62	C	0.789002	-0.697059	-0.501600
C63	C	0.755560	-0.724363	-0.578291
C64	C	0.688676	-0.778967	-0.731694
C65	C	0.688661	-0.724360	-0.731678
C66	C	0.722106	-0.697057	-0.654979
C67	C	0.722076	-0.642465	-0.654948
N68	N	0.755522	-0.615159	-0.578263
C69	C	0.788984	-0.642456	-0.501589
C70	C	0.722194	-0.975541	-0.655036
C71	C	0.722208	-1.030143	-0.655042
C72	C	0.789119	-1.030134	-0.501676
C73	C	0.789101	-0.975530	-0.501665
C74	C	0.755639	-0.948234	-0.578351
C75	C	0.788937	-0.527791	-0.501558
C76	C	0.788912	-0.473185	-0.501544
C77	C	0.722003	-0.473200	-0.654913
C78	C	0.722026	-0.527800	-0.654924
C79	C	0.755498	-0.555094	-0.578242
O80	O	0.693619	-0.614187	-0.720092
O81	O	0.817430	-0.614209	-0.436382
C82	C	0.891900	-0.251961	-0.578295
C83	C	0.950014	-0.251973	-0.578312
C84	C	0.755568	-0.251874	-0.891298
C85	C	0.755586	-0.251849	-1.024699
C86	C	0.755629	-0.115559	-0.578337
C87	C	0.755673	-0.057445	-0.578372
C88	C	0.755515	-0.251952	-0.266431
C89	C	0.755598	-0.251829	-0.133032
H90	H	0.457382	-0.312517	-0.438737
H91	H	0.694940	-0.953319	-0.717480
Br92	Br	0.191551	-0.139817	-0.836452
Br93	Br	0.571397	-0.173173	-0.759477
Br94	Br	0.069031	-0.173229	-0.759580
Br95	Br	0.320233	-0.139804	-0.836436
Br96	Br	0.867907	-0.815992	-0.320874
H97	H	0.457491	-0.191315	-0.717760
H98	H	0.305216	-0.345944	-0.361890
H99	H	0.556431	-0.312496	-0.438705
H100	H	0.206166	-0.345957	-0.361921
H101	H	0.816146	-0.450956	-0.439082
Br102	Br	0.643248	-0.687319	-0.835763
Br103	Br	-0.059660	-0.173238	-0.759564
Br104	Br	0.676625	-0.564856	-0.758986
Br105	Br	0.867863	-0.687310	-0.320847
Br106	Br	0.068900	-0.330696	-0.397056
H107	H	0.816194	-0.550007	-0.439119
Br108	Br	0.834531	-1.067190	-0.397612
H109	H	0.816335	-0.953303	-0.439211
Br110	Br	-0.059813	-0.330699	-0.397064
Br111	Br	0.643290	-0.816008	-0.835805
H112	H	0.694969	-1.052369	-0.717486
Br113	Br	0.676593	-0.436143	-0.758971
