data_functionalizedCrystal
_audit_creation_method	'MofGen! by Chris Wilmer'
_symmetry_space_group_name_H-M	'P1'
_symmetry_Int_Tables_number	1
_symmetry_cell_setting	triclinic
loop_
_symmetry_equiv_pos_as_xyz
  x,y,z
_cell_length_a	14.853558
_cell_length_b	14.853569
_cell_length_c	13.330367
_cell_angle_alpha	89.994190
_cell_angle_beta	89.992972
_cell_angle_gamma	83.633349
loop_
_atom_site_label
_atom_site_type_symbol
_atom_site_fract_x
_atom_site_fract_y
_atom_site_fract_z
O1	O	1.196375	0.117664	-0.083414
O2	O	0.933914	0.131694	-0.083419
O3	O	1.072154	-0.006551	-0.083407
O4	O	1.058134	0.255909	-0.083426
O5	O	1.072134	-0.006554	0.083440
O6	O	0.933894	0.131691	0.083428
O7	O	1.196355	0.117661	0.083433
Cu8	Cu	1.065122	0.124675	0.098665
Cu9	Cu	1.065146	0.124679	-0.098651
O10	O	1.058114	0.255905	0.083421
C11	C	0.900315	0.131058	0.000004
C12	C	0.800231	0.129158	0.000002
C13	C	0.753222	0.128268	-0.090950
C14	C	0.753198	0.128254	0.090954
C15	C	0.659165	0.126463	0.090955
C16	C	0.612155	0.125574	0.000003
C17	C	0.659180	0.126475	-0.090951
C18	C	0.612134	0.125553	0.181908
C19	C	0.518095	0.123762	0.181913
C20	C	0.471083	0.122879	0.090960
C21	C	0.518113	0.123780	0.000002
C22	C	0.471104	0.122891	-0.090950
C23	C	0.518132	0.123799	-0.181909
C24	C	0.612168	0.125591	-0.181904
C25	C	0.377047	0.121086	0.090955
C26	C	0.377062	0.121098	-0.090951
C27	C	1.071509	-0.040141	0.000017
C28	C	1.069604	-0.140225	0.000018
C29	C	0.986593	-0.176599	0.000018
C30	C	1.150826	-0.197894	0.000011
C31	C	1.149040	-0.291928	0.000006
C32	C	1.066029	-0.328302	0.000006
C33	C	0.984804	-0.270641	0.000011
C34	C	1.230263	-0.349595	-0.000008
C35	C	1.228480	-0.443635	-0.000014
C36	C	1.145468	-0.480011	-0.000007
C37	C	1.064240	-0.422344	-0.000001
C38	C	0.981229	-0.458718	-0.000001
C39	C	0.900000	-0.401053	0.000012
C40	C	0.901792	-0.307017	0.000018
C41	C	1.143675	-0.574047	-0.000013
C42	C	0.979439	-0.552760	-0.000008
C43	C	1.229953	0.118296	0.000008
C44	C	1.330038	0.120197	0.000003
C45	C	1.058760	0.289496	-0.000005
C46	C	1.060664	0.389579	-0.000013
N47	N	1.065112	0.124672	0.237447
N48	N	1.065163	0.124675	-0.237432
C49	C	1.003931	0.185870	0.710064
C50	C	1.126386	0.063481	0.710043
C51	C	1.126376	0.063478	0.605025
C52	C	1.065143	0.124673	0.552521
C53	C	1.003920	0.185871	0.605036
C54	C	1.187603	0.002288	0.552502
C55	C	1.187596	0.002284	0.447477
C56	C	1.126358	0.063475	0.394972
C57	C	1.065133	0.124674	0.447493
C58	C	1.003900	0.185869	0.394990
C59	C	0.942669	0.247065	0.447509
C60	C	0.942683	0.247062	0.552531
C61	C	1.126345	0.063477	0.289950
C62	C	1.003890	0.185870	0.289962
H63	H	0.338760	0.120355	0.165012
C64	C	0.812448	-0.243583	0.000022
C65	C	0.791108	-0.176000	-0.086619
C66	C	0.701767	-0.112562	-0.086619
C67	C	0.633766	-0.116707	0.000021
C68	C	0.655104	-0.184293	0.086668
C69	C	0.744446	-0.247731	0.086669
H70	H	0.841448	-0.172929	-0.150760
H71	H	0.685971	-0.062530	-0.150761
H72	H	0.567630	-0.069746	0.000020
H73	H	0.604764	-0.187364	0.150810
H74	H	0.760242	-0.297763	0.150811
C75	C	0.466371	0.122769	0.281964
C76	C	0.469154	0.201233	0.356997
C77	C	0.417429	0.200242	0.457049
C78	C	0.362920	0.120787	0.482069
C79	C	0.360135	0.042317	0.407035
C80	C	0.411860	0.043308	0.306982
H81	H	0.509506	0.260056	0.338477
H82	H	0.419491	0.258332	0.512594
H83	H	0.324630	0.120054	0.556133
H84	H	0.319782	-0.016505	0.425554
H85	H	0.409798	-0.014781	0.251437
C86	C	0.804917	0.129239	0.190989
C87	C	0.859421	0.208697	0.215976
C88	C	0.911148	0.209688	0.316013
C89	C	0.908372	0.131221	0.391061
C90	C	0.853866	0.051757	0.366075
C91	C	0.802139	0.050766	0.266039
H92	H	0.861478	0.266789	0.160420
H93	H	0.951497	0.268513	0.334508
H94	H	0.946664	0.131954	0.465113
H95	H	0.851809	-0.006335	0.421632
H96	H	0.761790	-0.008059	0.247543
C97	C	0.888124	-0.592768	-0.000008
C98	C	0.864311	-0.654472	-0.086653
C99	C	0.772996	-0.694480	-0.086653
C100	C	0.705493	-0.672783	-0.000007
C101	C	0.729303	-0.611075	0.086645
C102	C	0.820619	-0.571068	0.086644
H103	H	0.914283	-0.670537	-0.150799
H104	H	0.755371	-0.740160	-0.150798
H105	H	0.637896	-0.702399	-0.000007
H106	H	0.679332	-0.595011	0.150791
H107	H	0.838244	-0.525388	0.150790
H108	H	1.294622	-0.490579	-0.000023
H109	H	0.479845	0.123070	-0.255962
H110	H	1.218411	-0.168272	0.000030
H111	H	1.237462	-0.047531	0.595254
C112	C	0.663863	0.126545	0.281935
C113	C	0.718358	0.206013	0.306909
C114	C	0.770101	0.207013	0.406934
C115	C	0.767350	0.128545	0.481986
C116	C	0.712853	0.049070	0.457014
C117	C	0.661110	0.048070	0.356989
H118	H	0.720397	0.264105	0.251350
H119	H	0.810444	0.265845	0.425420
H120	H	0.805653	0.129285	0.556031
H121	H	0.710814	-0.009022	0.512574
H122	H	0.620767	-0.010762	0.338503
H123	H	0.338793	0.120379	-0.165016
H124	H	1.209811	-0.620993	-0.000033
H125	H	0.920459	-0.129644	0.000033
H126	H	0.954023	0.235699	0.247220
H127	H	0.832412	-0.430681	0.000006
H128	H	1.297847	-0.319972	0.000053
H129	H	0.954075	0.235692	0.752828
H130	H	0.892817	0.296894	0.404749
H131	H	0.892832	0.296886	0.595298
H132	H	1.176244	0.013662	0.752795
C133	C	1.254940	-0.065034	0.389708
C134	C	1.253301	-0.167700	0.404165
C135	C	1.320642	-0.235020	0.346393
C136	C	1.389621	-0.199674	0.274165
C137	C	1.391261	-0.097003	0.259705
C138	C	1.323921	-0.029683	0.317477
H139	H	1.202237	-0.193870	0.457635
H140	H	1.319427	-0.311024	0.357098
H141	H	1.439470	-0.249509	0.231399
H142	H	1.442326	-0.070833	0.206235
H143	H	1.325136	0.046321	0.306773
C144	C	1.193692	-0.003830	0.232181
C145	C	1.192066	-0.106497	0.246637
C146	C	1.259417	-0.173810	0.188869
C147	C	1.328394	-0.138455	0.116645
C148	C	1.330023	-0.035783	0.102186
C149	C	1.262672	0.031530	0.159954
H150	H	1.141003	-0.132674	0.300104
H151	H	1.258211	-0.249815	0.199573
H152	H	1.378251	-0.188284	0.073882
H153	H	1.381086	-0.009606	0.048719
H154	H	1.263878	0.107535	0.149250
H155	H	0.650466	0.126330	-0.255957
H156	H	0.791515	0.129011	-0.165006
