data_functionalizedCrystal
_audit_creation_method	'MofGen! by Chris Wilmer'
_symmetry_space_group_name_H-M	'P1'
_symmetry_Int_Tables_number	1
_symmetry_cell_setting	triclinic
loop_
_symmetry_equiv_pos_as_xyz
  x,y,z
_cell_length_a	12.811457
_cell_length_b	14.519731
_cell_length_c	11.295483
_cell_angle_alpha	94.102025
_cell_angle_beta	91.289320
_cell_angle_gamma	83.867127
loop_
_atom_site_label
_atom_site_type_symbol
_atom_site_fract_x
_atom_site_fract_y
_atom_site_fract_z
O1	O	1.389267	0.127391	0.051003
O2	O	1.086047	0.138855	0.018255
O3	O	1.245684	-0.001040	0.035506
O4	O	1.229630	0.267286	0.033751
O5	O	1.231663	0.011228	0.232042
O6	O	1.072026	0.151123	0.214790
O7	O	1.375246	0.139659	0.247538
Cu8	Cu	1.222356	0.146511	0.249109
Cu9	Cu	1.238937	0.132003	0.016683
O10	O	1.215609	0.279554	0.230286
C11	C	1.040230	0.143971	0.112331
C12	C	0.924599	0.140925	0.099843
C13	C	0.692029	0.148562	0.290664
C14	C	0.583384	0.145700	0.278937
C15	C	0.598660	0.132335	0.064662
C16	C	0.707306	0.135196	0.076389
C17	C	0.753986	0.143311	0.189394
C18	C	0.862633	0.146179	0.201121
C19	C	0.877909	0.132807	-0.013153
C20	C	0.769263	0.129946	-0.024881
C21	C	1.237921	-0.029272	0.133693
C22	C	1.235667	-0.131673	0.133450
C23	C	1.233835	-0.214834	0.133250
C24	C	1.231547	-0.319164	0.132994
C25	C	1.229731	-0.402320	0.132790
C26	C	1.227443	-0.506657	0.132536
C27	C	1.421063	0.134543	0.153459
C28	C	1.536695	0.137588	0.165939
C29	C	1.223372	0.307786	0.132097
C30	C	1.225627	0.410187	0.132332
N31	N	1.210700	0.156715	0.412586
N32	N	1.250601	0.121792	-0.146792
C33	C	1.334501	0.048286	0.675255
C34	C	1.325701	0.056004	0.798967
C35	C	1.184295	0.179864	0.783726
C36	C	1.193095	0.172146	0.660013
C37	C	1.268202	0.106356	0.605782
C38	C	1.277007	0.098643	0.482068
C39	C	1.135596	0.222498	0.466828
C40	C	1.126796	0.230216	0.590541
H41	H	0.560636	0.125712	-0.027341
C42	C	0.760384	0.038577	-0.209890
C43	C	0.717947	0.121032	-0.149092
H44	H	0.728700	0.033077	-0.286572
H45	H	0.833947	0.039537	-0.217395
H46	H	0.747270	-0.012806	-0.166942
H47	H	0.731068	0.172415	-0.192036
H48	H	0.644367	0.120079	-0.141593
C49	C	1.051236	0.131263	-0.090327
C50	C	0.946016	0.127035	-0.124479
H51	H	1.093280	0.127697	-0.159055
H52	H	1.058056	0.188135	-0.045239
H53	H	1.073736	0.080811	-0.043542
H54	H	0.923514	0.177491	-0.171258
H55	H	0.939190	0.070156	-0.169588
H56	H	1.123137	0.233423	0.827896
H57	H	0.900638	0.152792	0.293135
C58	C	1.473397	-0.073364	0.702742
C59	C	1.417058	-0.024025	0.615636
H60	H	1.524360	-0.118010	0.665934
H61	H	1.507501	-0.031549	0.755033
H62	H	1.426537	-0.104008	0.746320
H63	H	1.463917	0.006625	0.572063
H64	H	1.382952	-0.065847	0.563325
C65	C	1.050521	0.297048	0.773418
C66	C	1.044246	0.302534	0.650159
H67	H	0.999563	0.341701	0.810219
H68	H	1.037638	0.236646	0.792455
H69	H	1.118617	0.309092	0.801171
H70	H	0.976152	0.290483	0.622404
H71	H	1.057122	0.362950	0.631112
C72	C	1.077460	0.379106	0.422189
C73	C	1.062714	0.286339	0.390464
H74	H	1.032474	0.418518	0.375040
H75	H	1.061468	0.393105	0.503619
H76	H	1.148440	0.388611	0.409401
H77	H	0.991737	0.276832	0.403260
H78	H	1.078700	0.272335	0.309014
C79	C	0.579200	0.159206	0.491914
C80	C	0.515278	0.151478	0.390255
H81	H	0.537151	0.162778	0.560638
H82	H	0.629727	0.106385	0.492878
H83	H	0.614060	0.213708	0.491174
H84	H	0.480424	0.096971	0.390990
H85	H	0.464733	0.204304	0.389291
H86	H	1.379687	0.008717	0.855529
C87	C	0.816911	0.080439	0.429408
C88	C	0.743352	0.157487	0.414871
H89	H	0.848599	0.085955	0.506087
H90	H	0.782679	0.025394	0.421241
H91	H	0.869354	0.077726	0.370763
H92	H	0.690905	0.160197	0.473511
H93	H	0.777585	0.212547	0.423050
H94	H	1.338165	0.045076	0.437915
