data_functionalizedCrystal
_audit_creation_method	'MofGen! by Chris Wilmer'
_symmetry_space_group_name_H-M	'P1'
_symmetry_Int_Tables_number	1
_symmetry_cell_setting	triclinic
loop_
_symmetry_equiv_pos_as_xyz
  x,y,z
_cell_length_a	16.109301
_cell_length_b	17.699083
_cell_length_c	14.586319
_cell_angle_alpha	89.995320
_cell_angle_beta	89.999213
_cell_angle_gamma	83.372248
loop_
_atom_site_label
_atom_site_type_symbol
_atom_site_fract_x
_atom_site_fract_y
_atom_site_fract_z
O1	O	1.102963	0.097285	-0.076184
O2	O	0.860880	0.109391	-0.076199
O3	O	0.988761	-0.006841	-0.076183
O4	O	0.975082	0.213517	-0.076200
O5	O	0.988752	-0.006843	0.076298
O6	O	0.860872	0.109390	0.076282
O7	O	1.102954	0.097283	0.076297
Cu8	Cu	0.981912	0.103336	0.090212
Cu9	Cu	0.981923	0.103338	-0.090114
O10	O	0.975074	0.213516	0.076281
C11	C	0.829902	0.108900	0.000040
C12	C	0.737609	0.107430	0.000034
C13	C	0.515224	0.172981	0.000040
C14	C	0.428506	0.171594	0.000046
C15	C	0.448618	0.033688	0.000053
C16	C	0.535334	0.035076	0.000053
C17	C	0.568635	0.104725	0.000042
C18	C	0.395200	0.101949	0.000047
C19	C	0.301177	0.100445	0.000054
C20	C	0.662664	0.106230	0.000037
C21	C	0.988267	-0.035040	0.000057
C22	C	0.986796	-0.119060	0.000058
C23	C	1.061860	-0.167574	0.000064
C24	C	1.060473	-0.246519	0.000055
C25	C	0.984022	-0.276949	0.000048
C26	C	0.908953	-0.228429	0.000039
C27	C	0.910341	-0.149485	0.000041
C28	C	0.903356	-0.546800	0.000031
C29	C	0.901974	-0.625750	0.000033
C30	C	1.053488	-0.643834	0.000046
C31	C	1.054876	-0.564890	0.000048
C32	C	0.979807	-0.516377	0.000034
C33	C	0.981312	-0.430776	0.000041
C34	C	0.982517	-0.362549	0.000047
C35	C	1.133933	0.097774	0.000056
C36	C	1.226226	0.099244	0.000055
C37	C	0.975568	0.241714	0.000038
C38	C	0.977039	0.325734	0.000032
N39	N	0.981911	0.103334	0.217044
N40	N	0.981931	0.103334	-0.216946
C41	C	1.038555	0.051884	0.452057
C42	C	1.038558	0.051882	0.548038
C43	C	0.925280	0.154787	0.548034
C44	C	0.925274	0.154785	0.452054
C45	C	0.981917	0.103334	0.404068
C46	C	0.981925	0.103334	0.596029
C47	C	0.981927	0.103333	0.700096
C48	C	0.981914	0.103334	0.299995
H49	H	0.542334	0.229694	0.000038
C50	C	0.862976	0.211379	0.600827
N51	N	0.816046	0.254005	0.640590
H52	H	1.084677	0.009985	0.587108
H53	H	1.121597	-0.286017	0.000062
C54	C	0.594090	-0.040016	0.000056
N55	N	0.638345	-0.096572	0.000060
C56	C	0.369757	0.246682	0.000048
N57	N	0.325508	0.303241	0.000052
C58	C	0.411979	-0.042922	0.000056
N59	N	0.384383	-0.100627	0.000055
H60	H	1.124115	-0.142805	0.000075
C61	C	0.820778	-0.493446	0.000012
N62	N	0.758576	-0.453256	-0.000006
C63	C	1.138977	-0.531422	0.000056
N64	N	1.202325	-0.506216	0.000058
H65	H	1.114613	-0.683343	0.000052
H66	H	1.084675	0.009988	0.412989
H67	H	0.839715	-0.650523	0.000028
H68	H	0.846705	-0.253211	0.000027
C69	C	0.827765	-0.096120	0.000037
N70	N	0.765566	-0.055926	0.000031
H71	H	0.879149	0.196682	0.412979
