data_functionalizedCrystal
_audit_creation_method	'MofGen! by Chris Wilmer'
_symmetry_space_group_name_H-M	'P1'
_symmetry_Int_Tables_number	1
_symmetry_cell_setting	triclinic
loop_
_symmetry_equiv_pos_as_xyz
  x,y,z
_cell_length_a	14.519709
_cell_length_b	12.996460
_cell_length_c	14.853559
_cell_angle_alpha	90.003953
_cell_angle_beta	83.655799
_cell_angle_gamma	89.999966
loop_
_atom_site_label
_atom_site_type_symbol
_atom_site_fract_x
_atom_site_fract_y
_atom_site_fract_z
O1	O	1.223817	0.085428	0.118181
O2	O	0.955334	0.085459	0.132099
O3	O	1.096751	0.085441	-0.006088
O4	O	1.082400	0.085445	0.256367
O5	O	1.096736	-0.085693	-0.006095
O6	O	0.955319	-0.085675	0.132091
O7	O	1.223802	-0.085706	0.118174
Cu8	Cu	1.089559	-0.101317	0.125132
Cu9	Cu	1.089577	0.101069	0.125141
O10	O	1.082385	-0.085689	0.256360
C11	C	0.920967	-0.000104	0.131446
C12	C	0.818587	-0.000092	0.129502
C13	C	0.443694	-0.000139	0.122347
C14	C	0.548001	-0.000126	0.124334
C15	C	0.631137	-0.000115	0.125925
C16	C	0.735451	-0.000103	0.127912
N17	N	1.089554	-0.243664	0.125125
C18	C	1.089576	-0.663478	0.125142
C19	C	1.089567	-0.546673	0.125140
C20	C	1.089565	-0.453575	0.125134
C21	C	1.089556	-0.336762	0.125131
C22	C	1.258169	-0.000141	0.118826
C23	C	1.360550	-0.000146	0.120770
C24	C	1.096095	-0.000124	-0.039681
C25	C	1.094151	-0.000118	-0.139765
N26	N	1.089590	0.243416	0.125140
C27	C	1.085910	0.093168	-0.562939
C28	C	1.085894	-0.093408	-0.562942
C29	C	1.087728	-0.093409	-0.468909
C30	C	1.088652	-0.000120	-0.421885
C31	C	1.087742	0.093170	-0.468896
C32	C	1.088629	-0.186698	-0.421889
C33	C	1.090463	-0.186703	-0.327849
C34	C	1.091394	-0.093412	-0.280826
C35	C	1.090484	-0.000118	-0.327842
C36	C	1.091408	0.093171	-0.280819
C37	C	1.090505	0.186466	-0.327835
C38	C	1.088672	0.186461	-0.421872
C39	C	1.093227	-0.093407	-0.186788
C40	C	1.093240	0.093173	-0.186776
C41	C	1.083041	-0.000122	0.289953
C42	C	1.084986	-0.000121	0.390037
H43	H	1.093997	0.169141	-0.148497
F44	F	1.091491	0.285748	-0.277779
F45	F	1.087628	-0.285976	-0.471936
F46	F	1.087715	0.285743	-0.471916
H47	H	1.085178	0.169127	-0.601224
F48	F	1.094185	-0.192691	-0.136754
H49	H	1.085135	-0.169360	-0.601234
F50	F	1.091420	-0.285994	-0.277820
