data_functionalizedCrystal
_audit_creation_method	'MofGen! by Chris Wilmer'
_symmetry_space_group_name_H-M	'P1'
_symmetry_Int_Tables_number	1
_symmetry_cell_setting	triclinic
loop_
_symmetry_equiv_pos_as_xyz
  x,y,z
_cell_length_a	14.519731
_cell_length_b	14.519731
_cell_length_c	13.596369
_cell_angle_alpha	89.993029
_cell_angle_beta	89.994584
_cell_angle_gamma	83.688853
loop_
_atom_site_label
_atom_site_type_symbol
_atom_site_fract_x
_atom_site_fract_y
_atom_site_fract_z
O1	O	1.223866	0.120985	-0.081796
O2	O	1.723866	0.620985	0.418204
O3	O	0.955392	0.135201	-0.081798
O4	O	1.455392	0.635201	0.418202
O5	O	1.096737	-0.006144	-0.081788
O6	O	1.596737	0.493856	0.418212
O7	O	1.082521	0.262330	-0.081806
O8	O	1.582521	0.762330	0.418194
O9	O	1.096723	-0.006151	0.081795
O10	O	1.596723	0.493849	0.581795
O11	O	0.955378	0.135194	0.081785
O12	O	1.455378	0.635194	0.581785
O13	O	1.223851	0.120978	0.081787
O14	O	1.723851	0.620978	0.581787
Zn15	Zn	1.089613	0.128084	0.107759
Zn16	Zn	1.589613	0.628084	0.607759
Zn17	Zn	1.089631	0.128094	-0.107769
Zn18	Zn	1.589631	0.628094	0.392231
O19	O	1.082507	0.262322	0.081777
O20	O	1.582507	0.762322	0.581777
C21	C	0.921026	0.134531	-0.000006
C22	C	1.421026	0.634531	0.499994
C23	C	0.818645	0.132535	-0.000007
C24	C	1.318645	0.632535	0.499993
C25	C	0.735501	0.130913	-0.000010
C26	C	1.235501	0.630913	0.499990
C27	C	0.631192	0.128887	-0.000011
C28	C	1.131192	0.628887	0.499989
C29	C	0.548053	0.127278	-0.000011
C30	C	1.048053	0.627278	0.499989
C31	C	0.443738	0.125252	-0.000013
C32	C	0.943738	0.625252	0.499987
C33	C	1.096064	-0.040507	0.000004
C34	C	1.596064	0.459493	0.500004
C35	C	1.094068	-0.142887	0.000005
C36	C	1.594068	0.357113	0.500005
C37	C	1.092446	-0.226031	0.000002
C38	C	1.592446	0.273969	0.500002
C39	C	1.090419	-0.330340	-0.000005
C40	C	1.590419	0.169660	0.499995
C41	C	1.088811	-0.413479	-0.000012
C42	C	1.588811	0.086521	0.499988
C43	C	1.086785	-0.517795	-0.000017
C44	C	1.586785	-0.017795	0.499983
C45	C	1.258218	0.121648	-0.000006
C46	C	1.758218	0.621648	0.499994
C47	C	1.360598	0.123644	-0.000012
C48	C	1.860598	0.623644	0.499988
C49	C	1.083180	0.296685	-0.000017
C50	C	1.583180	0.796685	0.499983
C51	C	1.085176	0.399066	-0.000024
C52	C	1.585176	0.899066	0.499976
N53	N	1.089607	0.128077	0.254850
N54	N	1.589607	0.628077	0.754850
N55	N	1.089644	0.128094	-0.254861
N56	N	1.589644	0.628094	0.245139
C57	C	1.089630	0.128095	0.656141
C58	C	1.589630	0.628095	1.156141
C59	C	1.089621	0.128093	0.544490
C60	C	1.589621	0.628093	1.044490
C61	C	1.089619	0.128087	0.455499
C62	C	1.589619	0.628087	0.955499
C63	C	1.089609	0.128083	0.343841
C64	C	1.589609	0.628083	0.843841
