data_functionalizedCrystal
_audit_creation_method	'MofGen! by Chris Wilmer'
_symmetry_space_group_name_H-M	'P1'
_symmetry_Int_Tables_number	1
_symmetry_cell_setting	triclinic
loop_
_symmetry_equiv_pos_as_xyz
  x,y,z
_cell_length_a	6.817900
_cell_length_b	12.840946
_cell_length_c	9.582874
_cell_angle_alpha	82.971586
_cell_angle_beta	68.035181
_cell_angle_gamma	88.344365
loop_
_atom_site_label
_atom_site_type_symbol
_atom_site_fract_x
_atom_site_fract_y
_atom_site_fract_z
V1	V	-3.940493	0.284419	0.210601
O2	O	-3.887023	0.320279	-0.006470
O3	O	-3.933596	0.242778	0.414076
O4	O	-3.835765	0.426574	0.208963
O5	O	-3.985532	0.135210	0.200063
V6	V	-4.426042	0.271395	0.184448
O7	O	-4.197307	0.312989	0.267971
O8	O	-4.619425	0.242825	0.127078
O9	O	-4.209733	0.313035	-0.019027
O10	O	-4.596910	0.235535	0.401519
O11	O	-4.498401	0.420603	0.194986
O12	O	-4.307565	0.129239	0.186086
C13	C	-3.790516	0.228048	0.463629
C14	C	-3.865788	0.194950	0.629983
C15	C	-4.082750	0.183128	0.715792
C16	C	-4.153506	0.152044	0.872103
C17	C	-4.007296	0.132774	0.942601
C18	C	-3.790316	0.144600	0.856782
C19	C	-3.719564	0.175691	0.700475
C20	C	-3.665733	0.462499	0.201980
C21	C	-3.661586	0.580630	0.201985
C22	C	-4.123978	-0.024825	0.193127
C23	C	-4.140972	0.093310	0.193094
V24	V	-3.923473	0.770578	0.210644
O25	O	-3.957910	0.923823	0.200124
O26	O	-3.828874	0.623714	0.208988
O27	O	-3.915039	0.772566	0.414120
O28	O	-3.871149	0.773941	-0.006427
V29	V	-4.407081	0.813087	0.184503
O30	O	-4.182223	0.743938	0.268015
O31	O	-4.597737	0.862412	0.127142
O32	O	-4.278865	0.948704	0.186155
O33	O	-4.489834	0.665758	0.195026
O34	O	-4.576595	0.815640	0.401578
O35	O	-4.192700	0.799853	-0.018977
C36	C	-4.016158	0.327761	-0.068572
C37	C	-3.920121	0.360866	-0.234924
C38	C	-3.771508	0.770503	0.463662
C39	C	-3.845447	0.775269	0.630016
C40	C	-4.000161	0.784950	-0.068534
C41	C	-3.905498	0.779148	-0.234891
C42	C	-4.048146	0.372690	-0.320732
C43	C	-3.957933	0.403779	-0.477043
C44	C	-3.739695	0.423052	-0.547540
C45	C	-3.611662	0.411223	-0.461722
C46	C	-3.701874	0.380127	-0.305416
H47	H	-4.201831	0.198808	0.658412
C48	C	-3.577421	0.263506	-0.141895
C49	C	-3.561125	0.367143	-0.211105
H50	H	-3.490505	0.255493	-0.083686
H51	H	-3.720281	0.247584	-0.077531
H52	H	-3.532492	0.217158	-0.217536
H53	H	-3.606070	0.413491	-0.135463
H54	H	-3.418234	0.383077	-0.275473
H55	H	-4.330187	0.142417	0.941956
H56	H	-3.433965	0.426918	-0.519145
H57	H	-4.064935	0.107458	1.069878
H58	H	-3.542892	0.185308	0.630619
C59	C	-3.652636	0.019306	1.002549
C60	C	-3.629616	0.123403	0.934286
H61	H	-3.553419	0.006215	1.050391
H62	H	-3.791973	0.007831	1.076008
H63	H	-3.628090	-0.026725	0.927536
H64	H	-3.654176	0.169434	1.009301
H65	H	-3.490246	0.134888	0.860820
H66	H	-3.666266	0.448371	-0.674816
C67	C	-4.082341	0.520426	-0.640568
C68	C	-4.098690	0.416787	-0.571354
H69	H	-4.169232	0.528452	-0.698794
H70	H	-4.127251	0.566771	-0.564940
H71	H	-3.939451	0.536333	-0.704930
H72	H	-4.241579	0.400882	-0.506983
H73	H	-4.053792	0.370428	-0.646991
H74	H	-4.225851	0.357003	-0.263354
