data_functionalizedCrystal
_audit_creation_method	'MofGen! by Chris Wilmer'
_symmetry_space_group_name_H-M	'P1'
_symmetry_Int_Tables_number	1
_symmetry_cell_setting	triclinic
loop_
_symmetry_equiv_pos_as_xyz
  x,y,z
_cell_length_a	12.811457
_cell_length_b	9.065218
_cell_length_c	11.892277
_cell_angle_alpha	94.310675
_cell_angle_beta	80.240024
_cell_angle_gamma	95.472633
loop_
_atom_site_label
_atom_site_type_symbol
_atom_site_fract_x
_atom_site_fract_y
_atom_site_fract_z
O1	O	1.397728	-0.203141	-0.049290
O2	O	1.897728	0.296859	0.450710
O3	O	1.090319	-0.221917	-0.017775
O4	O	1.590319	0.278083	0.482225
O5	O	1.250377	0.002135	-0.034186
O6	O	1.750377	0.502135	0.465814
O7	O	1.237669	-0.427192	-0.032879
O8	O	1.737669	0.072808	0.467121
O9	O	1.262575	-0.014886	-0.223438
O10	O	1.762575	0.485114	0.276562
O11	O	1.102516	-0.238937	-0.207027
O12	O	1.602516	0.261063	0.292973
O13	O	1.409925	-0.220161	-0.238542
O14	O	1.909925	0.279839	0.261458
Zn15	Zn	1.258157	-0.232252	-0.252833
Zn16	Zn	1.758157	0.267748	0.247167
Zn17	Zn	1.242087	-0.209826	-0.003484
Zn18	Zn	1.742087	0.290174	0.496516
O19	O	1.249866	-0.444213	-0.222131
O20	O	1.749866	0.055787	0.277869
C21	C	1.057042	-0.228853	-0.108364
C22	C	1.557042	0.271147	0.391636
C23	C	0.939715	-0.224147	-0.096336
C24	C	1.439715	0.275853	0.403664
C25	C	0.732544	-0.233832	-0.280079
C26	C	1.232544	0.266168	0.219921
C27	C	0.622305	-0.229410	-0.268783
C28	C	1.122305	0.270590	0.231217
C29	C	0.608997	-0.210869	-0.062449
C30	C	1.108997	0.289131	0.437551
C31	C	0.719236	-0.215291	-0.073745
C32	C	1.219236	0.284709	0.426255
C33	C	0.781006	-0.226775	-0.182563
C34	C	1.281006	0.273225	0.317437
C35	C	0.891246	-0.231208	-0.193858
C36	C	1.391246	0.268792	0.306142
C37	C	0.877937	-0.212657	0.012475
C38	C	1.377937	0.287343	0.512475
C39	C	0.767698	-0.208234	0.023771
C40	C	1.267698	0.291766	0.523771
C41	C	1.255255	0.048607	-0.128685
C42	C	1.755255	0.548607	0.371315
C43	C	1.251602	0.212438	-0.128305
C44	C	1.751602	0.712438	0.371695
C45	C	1.443202	-0.213224	-0.147950
C46	C	1.943202	0.286776	0.352050
C47	C	1.560528	-0.217930	-0.159971
C48	C	2.060528	0.282070	0.340029
C49	C	1.244989	-0.490685	-0.127629
C50	C	1.744989	0.009315	0.372371
C51	C	1.248641	-0.654515	-0.128002
C52	C	1.748641	-0.154515	0.371998
N53	N	1.269132	-0.247556	-0.423007
N54	N	1.769132	0.252444	0.076993
C55	C	1.154636	-0.087933	-0.647969
C56	C	1.654636	0.412067	-0.147969
C57	C	1.162332	-0.098640	-0.767096
C58	C	1.662332	0.401360	-0.267096
C59	C	1.292214	-0.279683	-0.780391
C60	C	1.792214	0.220317	-0.280391
C61	C	1.284518	-0.268977	-0.661263
C62	C	1.784518	0.231023	-0.161263
C63	C	1.215728	-0.173097	-0.595056
C64	C	1.715728	0.326903	-0.095056
C65	C	1.208038	-0.162383	-0.475927
C66	C	1.708038	0.337617	0.024073
C67	C	1.337913	-0.343433	-0.489223
C68	C	1.837913	0.156567	0.010777
C69	C	1.345609	-0.354140	-0.608351
C70	C	1.845609	0.145860	-0.108351
N71	N	1.231120	-0.194511	0.166689
N72	N	1.731120	0.305489	0.666689
H73	H	0.717391	-0.198877	0.112368
H74	H	1.217391	0.301123	0.612368
H75	H	1.112583	-0.029294	-0.810172
H76	H	1.612583	0.470706	-0.310172
H77	H	0.558688	-0.201494	0.026146
H78	H	1.058688	0.298506	0.526146
H79	H	0.917404	-0.206919	0.091880
H80	H	1.417404	0.293081	0.591880
H81	H	1.152028	-0.084311	-0.422023
H82	H	1.652028	0.415689	0.077977
H83	H	1.098630	-0.009857	-0.594062
H84	H	1.598630	0.490143	-0.094062
H85	H	1.348215	-0.357750	-0.834316
H86	H	1.848215	0.142250	-0.334316
F87	F	1.418810	-0.456185	-0.678824
F88	F	1.918810	0.043815	-0.178824
H89	H	1.387660	-0.412778	-0.446130
H90	H	1.887660	0.087222	0.053870
F91	F	0.956983	-0.243436	-0.309671
F92	F	1.456983	0.256564	0.190329
H93	H	0.582852	-0.235164	-0.348191
H94	H	1.082852	0.264836	0.151809
F95	F	0.798285	-0.246072	-0.395890
F96	F	1.298285	0.253928	0.104110
