data_functionalizedCrystal
_audit_creation_method	'MofGen! by Chris Wilmer'
_symmetry_space_group_name_H-M	'P1'
_symmetry_Int_Tables_number	1
_symmetry_cell_setting	triclinic
loop_
_symmetry_equiv_pos_as_xyz
  x,y,z
_cell_length_a	18.050591
_cell_length_b	13.897449
_cell_length_c	13.897441
_cell_angle_alpha	89.978378
_cell_angle_beta	90.018081
_cell_angle_gamma	89.997485
loop_
_atom_site_label
_atom_site_type_symbol
_atom_site_fract_x
_atom_site_fract_y
_atom_site_fract_z
Zn1	Zn	-1.135476	-0.383987	-0.545373
Zn2	Zn	-1.135427	-0.545308	-0.384100
Zn3	Zn	-1.011280	-0.384029	-0.384099
Zn4	Zn	-1.011298	-0.545241	-0.545360
O5	O	-1.073370	-0.464641	-0.464733
O6	O	-1.239394	-0.405397	-0.523986
O7	O	-1.118930	-0.523960	-0.249118
O8	O	-1.027767	-0.249042	-0.405498
O9	O	-1.239358	-0.523919	-0.405499
O10	O	-1.119014	-0.249011	-0.523985
O11	O	-1.027720	-0.405469	-0.249117
O12	O	-0.907358	-0.405403	-0.405485
O13	O	-1.027799	-0.523805	-0.680343
O14	O	-0.907371	-0.523845	-0.523962
O15	O	-1.119032	-0.405332	-0.680353
O16	O	-1.118948	-0.680281	-0.405486
O17	O	-1.027752	-0.680232	-0.523963
C18	C	-0.880418	-0.464622	-0.464723
C19	C	-0.797872	-0.464638	-0.464741
C20	C	-0.549076	-0.529186	-0.529078
C21	C	-0.598445	-0.552670	-0.441040
C22	C	-0.500752	-0.464675	-0.464735
C23	C	-0.598464	-0.441217	-0.552771
C24	C	-0.646737	-0.464659	-0.464743
C25	C	-0.549034	-0.488206	-0.376651
C26	C	-0.549048	-0.376711	-0.488441
C27	C	-0.598396	-0.400163	-0.400342
C28	C	-0.416654	-0.464687	-0.464733
C29	C	-0.730834	-0.464647	-0.464736
C30	C	-1.073367	-0.715256	-0.464744
C31	C	-1.073433	-0.822470	-0.464781
C32	C	-1.073423	-0.464556	-0.716326
C33	C	-1.073445	-0.464520	-0.823540
C34	C	-0.267076	-0.464667	-0.464741
C35	C	-0.349622	-0.464693	-0.464736
C36	C	-1.073394	-0.213048	-0.464743
C37	C	-1.073404	-0.105834	-0.464747
C38	C	-1.073427	0.090461	-0.464777
C39	C	-1.073416	-0.018772	-0.464763
C40	C	-1.073465	-0.464454	-1.019835
C41	C	-1.073452	-0.464493	-0.910603
C42	C	-1.073360	-0.464657	-0.214119
C43	C	-1.073482	-0.464421	-0.106905
H44	H	-0.527414	-0.508130	-0.302183
N45	N	-0.520381	-0.601513	-0.601051
H46	H	-0.464432	-0.600575	-0.600972
H47	H	-0.539185	-0.584444	-0.667348
N48	N	-0.626911	-0.327895	-0.328191
H49	H	-0.682862	-0.327889	-0.328986
H50	H	-0.608095	-0.261687	-0.345538
N51	N	-0.520306	-0.278195	-0.515016
H52	H	-0.538262	-0.260532	-0.581557
H53	H	-0.464360	-0.278820	-0.514139
H54	H	-0.620142	-0.627053	-0.420985
H55	H	-0.620176	-0.421383	-0.627219
