data_functionalizedCrystal
_audit_creation_method	'MofGen! by Chris Wilmer'
_symmetry_space_group_name_H-M	'P1'
_symmetry_Int_Tables_number	1
_symmetry_cell_setting	triclinic
loop_
_symmetry_equiv_pos_as_xyz
  x,y,z
_cell_length_a	14.044191
_cell_length_b	14.044220
_cell_length_c	12.503572
_cell_angle_alpha	86.156832
_cell_angle_beta	86.162165
_cell_angle_gamma	86.809673
loop_
_atom_site_label
_atom_site_type_symbol
_atom_site_fract_x
_atom_site_fract_y
_atom_site_fract_z
O1	O	1.282208	-0.225145	-0.089273
O2	O	1.005536	-0.216832	-0.089287
O3	O	1.139719	-0.082653	-0.089269
O4	O	1.148026	-0.359324	-0.089290
O5	O	1.129629	-0.092762	0.089371
O6	O	0.995447	-0.226941	0.089354
O7	O	1.272118	-0.235254	0.089368
Cu8	Cu	1.132861	-0.232021	0.105672
Cu9	Cu	1.144794	-0.220065	-0.105591
O10	O	1.137936	-0.369433	0.089350
C11	C	0.964870	-0.218250	0.000032
C12	C	0.858727	-0.207402	0.000027
C13	C	0.613268	-0.264503	0.000034
C14	C	0.664393	-0.187587	0.000038
C15	C	0.772531	-0.198615	0.000032
C16	C	0.505121	-0.253477	0.000040
C17	C	1.131038	-0.052086	0.000051
C18	C	1.120194	0.054057	0.000052
C19	C	1.312785	-0.233836	0.000046
C20	C	1.418929	-0.244683	0.000044
C21	C	1.146617	-0.400000	0.000027
C22	C	1.157462	-0.506143	0.000020
N23	N	1.124476	-0.240429	0.254263
C24	C	1.100368	0.248396	0.000036
C25	C	1.177283	0.299524	0.000036
C26	C	1.166252	0.407661	0.000027
C27	C	1.111398	0.140249	0.000045
N28	N	1.153186	-0.211650	-0.254182
C29	C	1.112141	-0.252807	0.473377
C30	C	1.165518	-0.199275	0.526711
C31	C	1.158655	-0.206162	0.648633
C32	C	1.119003	-0.245921	0.351444
H33	H	1.251420	0.262087	-0.000032
H34	H	0.650710	-0.338629	0.000025
H35	H	1.026241	0.285835	0.000029
O36	O	1.225982	-0.138322	0.471788
C37	C	1.287700	-0.075462	0.298425
C38	C	1.219328	-0.144665	0.360495
H39	H	1.282329	-0.080553	0.208434
H40	H	1.364138	-0.095252	0.320214
H41	H	1.267199	0.000708	0.320687
H42	H	1.239742	-0.220857	0.338267
H43	H	1.142908	-0.124794	0.338701
H44	H	0.626954	-0.113450	-0.000032
O45	O	1.051562	-0.313637	0.528298
C46	C	0.989345	-0.375982	0.701670
C47	C	1.058000	-0.307067	0.639590
H48	H	0.994511	-0.370678	0.791660
H49	H	1.009605	-0.452283	0.679712
H50	H	0.913033	-0.355953	0.679586
H51	H	1.134333	-0.327008	0.661640
H52	H	1.037658	-0.230784	0.661553
