data_functionalizedCrystal
_audit_creation_method	'MofGen! by Chris Wilmer'
_symmetry_space_group_name_H-M	'P1'
_symmetry_Int_Tables_number	1
_symmetry_cell_setting	triclinic
loop_
_symmetry_equiv_pos_as_xyz
  x,y,z
_cell_length_a	14.044220
_cell_length_b	19.288840
_cell_length_c	18.366186
_cell_angle_alpha	90.016305
_cell_angle_beta	90.005656
_cell_angle_gamma	88.157446
loop_
_atom_site_label
_atom_site_type_symbol
_atom_site_fract_x
_atom_site_fract_y
_atom_site_fract_z
O1	O	0.118099	0.928952	0.060674
O2	O	0.451432	1.262285	0.394008
O3	O	0.784766	1.595619	0.727341
O4	O	0.134070	0.727715	0.060649
O5	O	0.467404	1.061049	0.393983
O6	O	0.800737	1.394382	0.727316
O7	O	-0.011887	0.825313	0.060654
O8	O	0.321447	1.158646	0.393988
O9	O	0.654780	1.491980	0.727321
O10	O	0.264056	0.831354	0.060669
O11	O	0.597389	1.164688	0.394003
O12	O	0.930723	1.498021	0.727336
O13	O	-0.011891	0.825294	-0.060445
O14	O	0.321443	1.158628	0.272888
O15	O	0.654776	1.491961	0.606222
O16	O	0.134066	0.727697	-0.060450
O17	O	0.467400	1.061030	0.272883
O18	O	0.800733	1.394363	0.606217
O19	O	0.118095	0.928933	-0.060425
O20	O	0.451428	1.262267	0.272908
O21	O	0.784762	1.595600	0.606242
Zn22	Zn	0.126080	0.828312	-0.079665
Zn23	Zn	0.459413	1.161645	0.253669
Zn24	Zn	0.792747	1.494979	0.587002
Zn25	Zn	0.126085	0.828337	0.079889
Zn26	Zn	0.459419	1.161670	0.413222
Zn27	Zn	0.792752	1.495003	0.746556
O28	O	0.264052	0.831336	-0.060430
O29	O	0.597385	1.164669	0.272903
O30	O	0.930719	1.498002	0.606237
C31	C	0.133559	0.701796	0.000096
C32	C	0.466892	1.035130	0.333430
C33	C	0.800225	1.368463	0.666763
C34	C	0.132028	0.624594	0.000087
C35	C	0.465361	0.957927	0.333420
C36	C	0.798694	1.291260	0.666753
C37	C	-0.047191	0.822659	0.000104
C38	C	0.286142	1.155993	0.333437
C39	C	0.619475	1.489326	0.666771
C40	C	-0.152383	0.814772	0.000102
C41	C	0.180951	1.148105	0.333435
C42	C	0.514284	1.481438	0.666769
C43	C	0.131295	0.588353	0.066100
C44	C	0.464628	0.921686	0.399433
C45	C	0.797961	1.255020	0.732766
C46	C	0.129846	0.515813	0.066109
C47	C	0.463179	0.849146	0.399442
C48	C	0.796512	1.182480	0.732775
C49	C	0.129111	0.479517	0.000101
C50	C	0.462444	0.812850	0.333434
C51	C	0.795777	1.146184	0.666767
C52	C	0.129850	0.515766	-0.065921
C53	C	0.463183	0.849099	0.267412
C54	C	0.796516	1.182433	0.600745
C55	C	0.131308	0.588304	-0.065928
C56	C	0.464641	0.921638	0.267405
C57	C	0.797975	1.254971	0.600739
C58	C	0.071294	0.366467	-0.050464
C59	C	0.404627	0.699800	0.282870
C60	C	0.737960	1.033133	0.616203
C61	C	0.069829	0.293930	-0.050454
C62	C	0.403163	0.627263	0.282879
C63	C	0.736496	0.960597	0.616213
C64	C	0.124617	0.255785	0.000119
C65	C	0.457950	0.589118	0.333453
C66	C	0.791283	0.922451	0.666786
C67	C	0.180856	0.290185	0.050695
C68	C	0.514190	0.623519	0.384029
C69	C	0.847523	0.956852	0.717362
C70	C	0.182315	0.362724	0.050688
C71	C	0.515648	0.696057	0.384022
C72	C	0.848981	1.029390	0.717355
C73	C	0.127530	0.400861	0.000101
C74	C	0.460863	0.734195	0.333434
C75	C	0.794197	1.067528	0.666767
C76	C	0.122314	0.140888	0.066147
C77	C	0.455647	0.474221	0.399480
C78	C	0.788980	0.807554	0.732813
C79	C	0.120871	0.068346	0.066153
C80	C	0.454204	0.401680	0.399486
C81	C	0.787537	0.735013	0.732819
C82	C	0.120865	0.068301	-0.065879
C83	C	0.454198	0.401634	0.267454
C84	C	0.787532	0.734968	0.600788
C85	C	0.122318	0.140841	-0.065883
C86	C	0.455651	0.474174	0.267450
C87	C	0.788984	0.807508	0.600783
C88	C	0.123037	0.177130	0.000132
C89	C	0.456371	0.510463	0.333465
C90	C	0.789704	0.843797	0.666798
C91	C	-0.344981	0.800351	0.000111
C92	C	-0.011647	1.133684	0.333444
C93	C	0.321686	1.467018	0.666777
C94	C	-0.402860	0.856295	0.000120
C95	C	-0.069526	1.189628	0.333453
C96	C	0.263807	1.522961	0.666787
C97	C	-0.510028	0.848271	0.000125
C98	C	-0.176694	1.181604	0.333458
C99	C	0.156639	1.514937	0.666791
C100	C	-0.237802	0.808374	0.000106
C101	C	0.095531	1.141707	0.333439
C102	C	0.428864	1.475040	0.666773
C103	C	0.299357	0.833989	0.000122
C104	C	0.632690	1.167323	0.333455
C105	C	0.966023	1.500656	0.666789
C106	C	0.404548	0.841877	0.000129
C107	C	0.737881	1.175210	0.333462
C108	C	1.071215	1.508544	0.666795
C109	C	0.118607	0.954852	0.000129
C110	C	0.451940	1.288186	0.333463
C111	C	0.785273	1.621519	0.666796
C112	C	0.120138	1.032055	0.000144
C113	C	0.453471	1.365389	0.333477
C114	C	0.786804	1.698722	0.666811
N115	N	0.126076	0.828300	-0.188556
N116	N	0.459409	1.161634	0.144778
N117	N	0.792742	1.494967	0.478111
C118	C	0.183403	0.873972	-0.226641
C119	C	0.516737	1.207305	0.106692
C120	C	0.850070	1.540638	0.440025
C121	C	0.183401	0.873983	-0.302869
C122	C	0.516734	1.207316	0.030464
C123	C	0.850067	1.540650	0.363798
C124	C	0.126082	0.828310	-0.341009
C125	C	0.459415	1.161644	-0.007675
C126	C	0.792748	1.494977	0.325658
C127	C	0.068743	0.782635	-0.302914
C128	C	0.402076	1.115969	0.030420
C129	C	0.735409	1.449302	0.363753
C130	C	0.068740	0.782630	-0.226687
C131	C	0.402073	1.115964	0.106646
C132	C	0.735406	1.449297	0.439979
C133	C	0.123692	0.765544	-0.461798
C134	C	0.457026	1.098878	-0.128464
C135	C	0.790359	1.432211	0.204869
C136	C	0.123702	0.765548	-0.538022
C137	C	0.457035	1.098882	-0.204689
C138	C	0.790369	1.432215	0.128644
C139	C	0.126085	0.828326	-0.576116
C140	C	0.459418	1.161659	-0.242783
C141	C	0.792751	1.494993	0.090551
C142	C	0.128478	0.891102	-0.537975
C143	C	0.461811	1.224436	-0.204642
C144	C	0.795144	1.557769	0.128691
C145	C	0.128475	0.891097	-0.461749
C146	C	0.461808	1.224431	-0.128416
C147	C	0.795141	1.557764	0.204918
C148	C	0.126078	0.828311	-0.423663
C149	C	0.459411	1.161644	-0.090330
C150	C	0.792744	1.494978	0.243003
C151	C	0.183412	0.874014	-0.696856
C152	C	0.516746	1.207347	-0.363523
C153	C	0.850079	1.540680	-0.030190
C154	C	0.183403	0.874026	-0.773086
C155	C	0.516736	1.207359	-0.439752
C156	C	0.850069	1.540692	-0.106419
C157	C	0.068750	0.782672	-0.773129
C158	C	0.402084	1.116006	-0.439796
C159	C	0.735417	1.449339	-0.106462
C160	C	0.068754	0.782666	-0.696901
C161	C	0.402088	1.115999	-0.363568
C162	C	0.735421	1.449333	-0.030235
C163	C	0.126090	0.828336	-0.658770
C164	C	0.459424	1.161669	-0.325436
C165	C	0.792757	1.495003	0.007897
N166	N	0.126082	0.828354	0.188780
N167	N	0.459415	1.161687	0.522113
N168	N	0.792749	1.495020	0.855447
H169	H	0.131881	0.617895	0.119854
H170	H	0.465214	0.951228	0.453188
H171	H	0.798547	1.284562	0.786521
Br172	Br	0.128853	0.466618	0.155704
Br173	Br	0.462186	0.799951	0.489037
Br174	Br	0.795519	1.133285	0.822371
H175	H	0.120273	0.038749	-0.119624
H176	H	0.453606	0.372083	0.213709
H177	H	0.786939	0.705416	0.547043
Br178	Br	-0.396537	0.710484	0.000106
Br179	Br	-0.063204	1.043817	0.333439
Br180	Br	0.270130	1.377150	0.666773
Br181	Br	-0.351306	0.946168	0.000125
Br182	Br	-0.017973	1.279501	0.333458
Br183	Br	0.315361	1.612834	0.666791
H184	H	0.230087	0.911162	-0.195599
H185	H	0.563420	1.244496	0.137734
H186	H	0.896754	1.577829	0.471067
H187	H	0.230086	0.911175	-0.333884
H188	H	0.563419	1.244508	-0.000551
H189	H	0.896753	1.577841	0.332782
H190	H	0.130421	0.942212	-0.430698
H191	H	0.463754	1.275545	-0.097364
H192	H	0.797087	1.608878	0.235969
Br193	Br	0.131715	0.976307	-0.589663
Br194	Br	0.465048	1.309640	-0.256330
Br195	Br	0.798382	1.642974	0.077003
Br196	Br	0.261202	0.936006	-0.645102
Br197	Br	0.594535	1.269340	-0.311769
Br198	Br	0.927869	1.602673	0.021565
Br199	Br	0.261204	0.936019	-0.824775
Br200	Br	0.594537	1.269353	-0.491442
Br201	Br	0.927870	1.602686	-0.158108
Br202	Br	0.258638	0.409409	0.119321
Br203	Br	0.591971	0.742742	0.452655
Br204	Br	0.925305	1.076075	0.785988
Br205	Br	-0.009057	0.720697	-0.824881
Br206	Br	0.324277	1.054030	-0.491548
Br207	Br	0.657610	1.387363	-0.158215
Br208	Br	-0.009034	0.720668	-0.645210
Br209	Br	0.324300	1.054001	-0.311877
Br210	Br	0.657633	1.387334	0.021457
Br211	Br	-0.009064	0.720640	-0.174996
Br212	Br	0.324270	1.053973	0.158337
Br213	Br	0.657603	1.387306	0.491671
Br214	Br	0.120469	0.680353	-0.589777
Br215	Br	0.453802	1.013687	-0.256444
Br216	Br	0.787135	1.347020	0.076889
Br217	Br	0.120368	0.680342	-0.410107
Br218	Br	0.453701	1.013675	-0.076774
Br219	Br	0.787035	1.347009	0.256560
Br220	Br	-0.009054	0.720655	-0.354672
Br221	Br	0.324279	1.053988	-0.021339
Br222	Br	0.657612	1.387321	0.311994
H223	H	0.122910	0.170436	0.119900
H224	H	0.456243	0.503769	0.453233
H225	H	0.789577	0.837102	0.786566
Br226	Br	0.119888	0.019160	0.155750
Br227	Br	0.453221	0.352494	0.489083
Br228	Br	0.786554	0.685827	0.822417
Br229	Br	0.255218	0.238426	0.119335
Br230	Br	0.588552	0.571759	0.452668
Br231	Br	0.921885	0.905093	0.786001
H232	H	0.122909	0.170349	-0.119638
H233	H	0.456242	0.503682	0.213695
H234	H	0.789575	0.837015	0.547028
H235	H	0.129254	0.486209	-0.119665
H236	H	0.462587	0.819542	0.213668
H237	H	0.795920	1.152876	0.547001
H238	H	0.026677	0.397519	-0.091650
H239	H	0.360010	0.730852	0.241683
H240	H	0.693343	1.064186	0.575016
Br241	Br	-0.006471	0.247250	-0.119106
Br242	Br	0.326863	0.580583	0.214227
Br243	Br	0.660196	0.913916	0.547560
H244	H	0.131906	0.617811	-0.119686
H245	H	0.465239	0.951144	0.213648
H246	H	0.798573	1.284478	0.546981
