data_functionalizedCrystal
_audit_creation_method	'MofGen! by Chris Wilmer'
_symmetry_space_group_name_H-M	'P1'
_symmetry_Int_Tables_number	1
_symmetry_cell_setting	triclinic
loop_
_symmetry_equiv_pos_as_xyz
  x,y,z
_cell_length_a	14.560438
_cell_length_b	14.560438
_cell_length_c	14.560438
_cell_angle_alpha	60.000069
_cell_angle_beta	89.999635
_cell_angle_gamma	60.000378
loop_
_atom_site_label
_atom_site_type_symbol
_atom_site_fract_x
_atom_site_fract_y
_atom_site_fract_z
Zr1	Zr	0.884754	1.005292	-0.120514
O2	O	0.738108	1.196893	-0.267158
O3	O	0.929709	0.813691	-0.075562
O4	O	0.929709	1.005295	-0.267163
O5	O	0.738109	1.005286	0.075584
O6	O	1.080847	1.005298	-0.267164
O7	O	0.738108	1.005289	-0.075557
O8	O	1.080847	0.662553	0.075575
O9	O	0.738109	1.348031	-0.267155
O10	O	1.061675	0.892501	-0.056388
O11	O	0.948882	0.892497	0.056407
O12	O	0.948882	1.118086	-0.169178
O13	O	0.836090	1.118082	-0.056383
Zr14	Zr	1.125803	1.005292	0.120537
Zr15	Zr	1.125803	1.005296	-0.120516
Zr16	Zr	0.884755	1.005288	0.120538
Zr17	Zr	0.884755	1.246339	-0.120509
Zr18	Zr	1.125802	0.764244	0.120532
O19	O	1.080848	1.196892	0.075585
O20	O	1.080848	1.196898	-0.267160
O21	O	0.738109	1.196887	0.075587
O22	O	1.272449	0.813691	0.267181
O23	O	1.272448	0.813697	-0.075565
O24	O	0.929710	0.813685	0.267183
O25	O	1.272449	1.005298	-0.075561
O26	O	1.080848	1.005288	0.267186
O27	O	0.929710	1.005286	0.267187
O28	O	1.272449	1.005295	0.075580
O29	O	0.929710	1.348034	-0.267156
O30	O	1.080848	0.662550	0.267179
O31	O	1.272449	0.662553	0.267178
O32	O	1.272448	0.662556	0.075574
O33	O	0.738109	1.348027	-0.075551
O34	O	0.929710	1.348030	-0.075552
O35	O	1.061675	0.892497	0.169201
O36	O	1.174468	0.892501	0.056405
O37	O	1.061675	1.118086	-0.056384
O38	O	0.948883	1.118082	0.056411
C39	C	1.005278	0.703778	0.000006
C40	C	1.005278	0.601447	0.000004
C41	C	0.703764	1.005287	0.000014
C42	C	0.601433	1.005285	0.000014
C43	C	1.064152	0.553373	-0.058874
C44	C	1.064157	0.457213	-0.058864
C45	C	0.946403	0.457215	0.058905
C46	C	0.946406	0.553366	0.058900
C47	C	0.612231	0.887534	0.058885
C48	C	0.516076	0.887540	0.058886
C49	C	0.398328	1.123059	-0.058864
C50	C	0.494482	1.123051	-0.058858
C51	C	1.306793	1.005297	0.000009
C52	C	1.409124	1.005299	0.000009
C53	C	1.005278	1.005297	-0.301508
C54	C	1.005278	1.005299	-0.403841
C55	C	1.005279	1.306806	0.000017
C56	C	1.005279	1.409137	0.000019
C57	C	1.088541	1.005301	-0.451918
C58	C	1.088545	1.005290	-0.548064
C59	C	0.922012	1.005278	-0.548051
C60	C	0.922014	1.005281	-0.451902
C61	C	1.005279	1.005286	0.301531
C62	C	1.005279	1.005285	0.403864
C63	C	1.306793	0.703783	0.000004
C64	C	1.409124	0.601454	0.000001
C65	C	1.005279	0.703773	0.301525
C66	C	1.005278	0.601440	0.403856
C67	C	1.306793	0.703778	0.301523
C68	C	1.409124	0.601447	0.403854
C69	C	0.703764	1.306806	-0.301500
C70	C	0.601433	1.409137	-0.403831
C71	C	0.703765	1.306800	0.000019
C72	C	0.601434	1.409130	0.000022
C73	C	1.005279	1.306811	-0.301502
C74	C	1.005279	1.409144	-0.403834
C75	C	1.398325	0.553377	-0.058875
C76	C	1.494480	0.457235	-0.058881
C77	C	1.612228	0.457252	0.058873
C78	C	1.516075	0.553399	0.058872
C79	C	1.064154	0.553362	0.510809
C80	C	1.064141	0.457218	0.606956
C81	C	0.946375	0.457235	0.489184
C82	C	0.946383	0.553384	0.393040
C83	C	1.516076	0.553371	0.393053
C84	C	1.612223	0.457228	0.489207
C85	C	1.494453	0.457242	0.606959
C86	C	1.398308	0.553389	0.510806
H87	H	1.112099	0.418073	-0.106806
H88	H	1.112091	0.592516	-0.106829
H89	H	0.485681	1.218944	-0.106795
H90	H	1.112082	0.418079	0.694039
O91	O	1.484190	0.410423	-0.116048
C92	C	1.591988	0.315234	-0.103404
H93	H	1.655716	0.331035	-0.081735
H94	H	1.616492	0.214665	-0.032905
C95	C	1.512284	0.306356	-0.240714
C96	C	1.590554	0.325770	-0.214108
H97	H	1.511399	0.312850	-0.308998
H98	H	1.439657	0.370483	-0.249229
H99	H	1.532713	0.222549	-0.181956
H100	H	1.570116	0.409582	-0.272858
H101	H	1.663177	0.261657	-0.205605
H102	H	1.524876	0.592547	0.106816
H103	H	0.898426	0.418095	0.480391
O104	O	1.294465	0.600115	0.521438
C105	C	1.282126	0.655767	0.580724
H106	H	1.368677	0.612327	0.633800
H107	H	1.236182	0.765275	0.518444
C108	C	1.107492	0.680661	0.592727
C109	C	1.213795	0.627299	0.657924
H110	H	1.065338	0.663107	0.640345
H111	H	1.115803	0.643172	0.552782
H112	H	1.069220	0.771915	0.540831
H113	H	1.252070	0.536046	0.709809
H114	H	1.205490	0.664772	0.697880
O115	O	0.841274	1.005098	-0.594761
C116	C	0.892230	0.893203	-0.594415
H117	H	0.983175	0.855906	-0.590171
H118	H	0.890311	0.814859	-0.518188
C119	C	0.715931	0.972997	-0.707952
C120	C	0.827629	0.927194	-0.702749
H121	H	0.676081	0.993960	-0.774774
H122	H	0.681600	1.048380	-0.708182
H123	H	0.714348	0.907702	-0.644423
H124	H	0.829211	0.992494	-0.766269
H125	H	0.861959	0.851821	-0.702532
O126	O	1.716203	0.410379	0.116048
C127	C	1.798758	0.315228	0.103405
H128	H	1.761294	0.273171	0.081724
H129	H	1.828836	0.361225	0.032915
C130	C	1.944927	0.257622	0.240735
C131	C	1.898916	0.205959	0.214114
H132	H	2.006712	0.190221	0.309023
H133	H	1.889310	0.321730	0.249250
H134	H	1.969983	0.295952	0.181984
H135	H	1.873848	0.167644	0.272858
H136	H	1.954532	0.141841	0.205612
O137	O	0.294522	1.237567	-0.116087
C138	C	0.305613	1.341496	-0.168074
H139	H	0.391407	1.306974	-0.121880
H140	H	0.297757	1.377688	-0.259455
C141	C	0.107076	1.495166	-0.220559
C142	C	0.212445	1.452769	-0.163817
H143	H	0.049603	1.563808	-0.217938
H144	H	0.099601	1.425149	-0.185538
H145	H	0.100545	1.525317	-0.296705
H146	H	0.218980	1.422604	-0.087670
H147	H	0.219918	1.522785	-0.198825
O148	O	0.526366	0.773273	0.116054
C149	C	0.418567	0.798524	0.103410
H150	H	0.354838	0.899725	0.081733
H151	H	0.394068	0.792949	0.032915
C152	C	0.498270	0.572636	0.240730
C153	C	0.419998	0.696929	0.214116
H154	H	0.499152	0.509965	0.309016
H155	H	0.570897	0.555622	0.249246
H156	H	0.477844	0.568009	0.181976
H157	H	0.440433	0.701560	0.272862
H158	H	0.347375	0.713941	0.205612
O159	O	0.889287	0.410522	0.116298
C160	C	0.837353	0.473546	0.168294
H161	H	0.883477	0.513276	0.179833
H162	H	0.745923	0.556970	0.113216
C163	C	0.785174	0.327235	0.269734
C164	C	0.841830	0.376021	0.283915
H165	H	0.787930	0.267080	0.341053
H166	H	0.820159	0.284777	0.234701
H167	H	0.708987	0.396765	0.223832
H168	H	0.918018	0.306493	0.329805
H169	H	0.806858	0.418466	0.318959
H170	H	1.311245	0.592512	-0.106824
H171	H	0.854210	1.005274	-0.412753
H172	H	1.485660	0.418100	0.694048
H173	H	0.898463	0.592506	0.106851
O174	O	0.889208	0.600272	0.289052
C175	C	0.901866	0.695419	0.206514
H176	H	0.923551	0.737460	0.243995
H177	H	0.972360	0.649422	0.176439
C178	C	0.764540	0.753061	0.060317
C179	C	0.791164	0.804704	0.106349
H180	H	0.696256	0.820471	-0.001473
H181	H	0.756014	0.688956	0.115923
H182	H	0.823293	0.714731	0.035264
H183	H	0.732418	0.843018	0.131414
H184	H	0.799677	0.868819	0.050745
O185	O	1.716200	0.410446	0.478916
C186	C	1.798746	0.315270	0.586714
H187	H	1.761261	0.331050	0.650445
H188	H	1.828854	0.214692	0.611212
C189	C	1.944919	0.306475	0.507008
C190	C	1.898882	0.325862	0.585282
H191	H	2.006690	0.313003	0.506125
H192	H	1.889308	0.370593	0.434382
H193	H	1.970000	0.222660	0.527433
H194	H	1.873789	0.409681	0.564848
H195	H	1.954491	0.261758	0.657905
H196	H	1.156341	1.005314	-0.412788
H197	H	0.699312	0.791641	0.106835
O198	O	1.169478	1.005353	-0.594653
C199	C	1.242982	1.005334	-0.531594
H200	H	1.198119	1.046236	-0.483507
H201	H	1.320405	0.901701	-0.469547
C202	C	1.334389	1.039818	-0.670545
C203	C	1.279285	1.090064	-0.611491
H204	H	1.356788	1.092078	-0.719827
H205	H	1.284872	1.039826	-0.713028
H206	H	1.398902	0.953458	-0.618829
H207	H	1.214766	1.176416	-0.663206
H208	H	1.328792	1.090073	-0.569019
H209	H	1.112107	0.592490	0.519623
H210	H	1.524888	0.592499	0.305972
