data_functionalizedCrystal
_audit_creation_method	'MofGen! by Chris Wilmer'
_symmetry_space_group_name_H-M	'P1'
_symmetry_Int_Tables_number	1
_symmetry_cell_setting	triclinic
loop_
_symmetry_equiv_pos_as_xyz
  x,y,z
_cell_length_a	12.811445
_cell_length_b	12.837942
_cell_length_c	9.730223
_cell_angle_alpha	89.996108
_cell_angle_beta	84.565292
_cell_angle_gamma	89.412982
loop_
_atom_site_label
_atom_site_type_symbol
_atom_site_fract_x
_atom_site_fract_y
_atom_site_fract_z
O1	O	1.406644	0.139717	-0.289597
O2	O	1.102579	0.154899	-0.251704
O3	O	1.247869	-0.003624	-0.269802
O4	O	1.261353	0.298240	-0.271499
O5	O	1.247858	-0.003628	-0.041221
O6	O	1.102568	0.154895	-0.023123
O7	O	1.406633	0.139713	-0.061015
Zn8	Zn	1.254599	0.147303	-0.005777
Zn9	Zn	1.254613	0.147309	-0.306943
O10	O	1.261343	0.298236	-0.042918
C11	C	1.063384	0.154045	-0.132530
C12	C	0.946611	0.151493	-0.117978
C13	C	0.727191	0.146723	-0.339857
C14	C	0.617473	0.144327	-0.326190
C15	C	0.617454	0.144310	-0.076977
C16	C	0.727172	0.146707	-0.090644
C17	C	0.782037	0.147912	-0.222089
C18	C	0.891758	0.150301	-0.235755
C19	C	0.891736	0.150292	0.013457
C20	C	0.782018	0.147896	0.027124
C21	C	1.243308	-0.042267	-0.154944
C22	C	1.229722	-0.157403	-0.153253
C23	C	1.393052	-0.397653	-0.173636
C24	C	1.380291	-0.505834	-0.172048
C25	C	1.191442	-0.481948	-0.148500
C26	C	1.204202	-0.373767	-0.150088
C27	C	1.305010	-0.331623	-0.162654
C28	C	1.317770	-0.223440	-0.164232
C29	C	1.128921	-0.199557	-0.140693
C30	C	1.116161	-0.307738	-0.139106
C31	C	1.445828	0.140567	-0.180193
C32	C	1.562600	0.143118	-0.194754
C33	C	1.265903	0.336878	-0.157778
C34	C	1.279489	0.452014	-0.159478
N35	N	1.254597	0.147299	0.199760
N36	N	1.254622	0.147305	-0.512480
C37	C	1.318958	0.077134	0.263669
C38	C	1.318969	0.077135	0.407550
C39	C	1.190253	0.217473	0.423602
C40	C	1.190238	0.217466	0.279723
H41	H	0.572763	0.143339	0.030039
F42	F	1.387468	0.002454	0.475562
H43	H	1.137822	0.274603	0.227686
F44	F	1.121765	0.292150	0.508713
F45	F	0.723615	0.146618	0.167009
F46	F	0.950148	0.151580	-0.375647
F47	F	1.473997	-0.576104	-0.183741
F48	F	1.008879	-0.352602	-0.125743
H49	H	0.936403	0.151259	0.109353
H50	H	1.371361	0.019998	0.198565
H51	H	1.399853	-0.189129	-0.174459
H52	H	1.475134	-0.363339	-0.183855
H53	H	0.572822	0.143361	-0.422089
H54	H	0.771864	0.147699	-0.446884
H55	H	1.109368	-0.516281	-0.138283
H56	H	1.057231	-0.145783	-0.131740
