data_functionalizedCrystal
_audit_creation_method	'MofGen! by Chris Wilmer'
_symmetry_space_group_name_H-M	'P1'
_symmetry_Int_Tables_number	1
_symmetry_cell_setting	triclinic
loop_
_symmetry_equiv_pos_as_xyz
  x,y,z
_cell_length_a	14.519709
_cell_length_b	10.654550
_cell_length_c	9.130313
_cell_angle_alpha	90.004369
_cell_angle_beta	89.997908
_cell_angle_gamma	84.082538
loop_
_atom_site_label
_atom_site_type_symbol
_atom_site_fract_x
_atom_site_fract_y
_atom_site_fract_z
O1	O	-1.224720	-0.164623	-0.121608
O2	O	-0.956343	-0.184009	-0.121653
O3	O	-1.096702	0.008483	-0.121620
O4	O	-1.084361	-0.357115	-0.121641
O5	O	-1.096692	0.008488	0.121979
O6	O	-0.956334	-0.184004	0.121946
O7	O	-1.224710	-0.164617	0.121991
Cu8	Cu	-1.090521	-0.174310	0.144211
Cu9	Cu	-1.090532	-0.174317	-0.143873
O10	O	-1.084351	-0.357109	0.121958
C11	C	-0.921974	-0.183103	0.000141
C12	C	-0.819579	-0.180396	0.000124
C13	C	-1.259079	-0.165524	0.000194
C14	C	-1.361475	-0.168231	0.000201
C15	C	-1.095791	0.055275	0.000178
C16	C	-1.093080	0.194692	0.000176
C17	C	-0.444631	-0.170428	0.000191
C18	C	-0.548954	-0.173196	0.000172
C19	C	-0.632102	-0.175412	0.000156
C20	C	-0.736431	-0.178180	0.000140
C21	C	-1.085262	-0.403901	0.000156
C22	C	-1.087973	-0.543318	0.000150
N23	N	-1.090520	-0.174305	0.346834
C24	C	-1.175721	0.274972	0.000189
C25	C	-1.173168	0.405968	0.000171
C26	C	-1.005326	0.376391	0.000132
C27	C	-1.007880	0.245397	0.000140
N28	N	-1.090541	-0.174312	-0.346496
C29	C	-1.152692	-0.089105	0.423500
C30	C	-1.152701	-0.089105	0.576837
C31	C	-1.028362	-0.259516	0.576827
C32	C	-1.028350	-0.259509	0.423493
H33	H	-1.240463	0.471328	0.000178
C34	C	-0.913387	0.080919	-0.125107
C35	C	-0.917033	0.157144	0.000121
H36	H	-0.857302	0.026442	-0.125125
H37	H	-0.964487	0.031978	-0.125081
H38	H	-0.915886	0.132645	-0.210044
H39	H	-0.914541	0.105418	0.085059
H40	H	-0.865919	0.206089	0.000108
C41	C	-0.869186	-0.332759	0.624067
C42	C	-0.960031	-0.353169	0.661103
H43	H	-0.827003	-0.390575	0.676103
H44	H	-0.860284	-0.344956	0.521788
H45	H	-0.858657	-0.248908	0.649217
H46	H	-0.970562	-0.437019	0.635943
H47	H	-0.968937	-0.340983	0.763405
H48	H	-0.935959	0.417692	0.000106
C49	C	-1.275586	0.079348	0.438916
C50	C	-1.221019	0.004561	0.339234
H51	H	-1.317764	0.137181	0.386894
H52	H	-1.309095	0.026969	0.498703
H53	H	-1.236905	0.124630	0.498739
H54	H	-1.259700	-0.040728	0.279417
H55	H	-1.187508	0.056947	0.279422
C56	C	-0.975571	-0.476759	0.376240
C57	C	-0.960008	-0.353172	0.339210
H58	H	-0.933383	-0.534575	0.324198
H59	H	-0.966677	-0.488953	0.478518
H60	H	-1.037205	-0.490569	0.351092
H61	H	-0.898375	-0.339359	0.364368
H62	H	-0.968894	-0.340973	0.236909
H63	H	-1.245096	0.233692	0.000215
H64	H	-1.203325	-0.019726	0.639254
