data_functionalizedCrystal
_audit_creation_method	'MofGen! by Chris Wilmer'
_symmetry_space_group_name_H-M	'P1'
_symmetry_Int_Tables_number	1
_symmetry_cell_setting	triclinic
loop_
_symmetry_equiv_pos_as_xyz
  x,y,z
_cell_length_a	14.044220
_cell_length_b	14.853567
_cell_length_c	13.930277
_cell_angle_alpha	90.004245
_cell_angle_beta	89.994760
_cell_angle_gamma	91.588096
loop_
_atom_site_label
_atom_site_type_symbol
_atom_site_fract_x
_atom_site_fract_y
_atom_site_fract_z
O1	O	0.123767	-1.206174	-0.079767
O2	O	0.623767	-0.706174	0.420233
O3	O	0.138510	-0.944883	-0.079784
O4	O	0.638510	-0.444883	0.420216
O5	O	-0.006851	-1.071607	-0.079766
O6	O	0.493149	-0.571607	0.420234
O7	O	0.269128	-1.079450	-0.079785
O8	O	0.769128	-0.579450	0.420215
O9	O	-0.006854	-1.071587	0.079896
O10	O	0.493146	-0.571587	0.579896
O11	O	0.138507	-0.944863	0.079878
O12	O	0.638507	-0.444863	0.579878
O13	O	0.123764	-1.206155	0.079895
O14	O	0.623764	-0.706155	0.579895
Zn15	Zn	0.131135	-1.075506	0.105236
Zn16	Zn	0.631135	-0.575506	0.605236
Zn17	Zn	0.131139	-1.075532	-0.105125
Zn18	Zn	0.631139	-0.575532	0.394875
O19	O	0.269125	-1.079431	0.079877
O20	O	0.769125	-0.579431	0.579877
C21	C	0.137841	-0.911231	0.000045
C22	C	0.637841	-0.411231	0.500045
C23	C	0.135839	-0.810989	0.000039
C24	C	0.635839	-0.310989	0.500039
C25	C	-0.042172	-1.068163	0.000065
C26	C	0.457828	-0.568163	0.500065
C27	C	-0.147411	-1.057921	0.000066
C28	C	0.352589	-0.557921	0.500066
C29	C	0.124433	-1.239806	0.000064
C30	C	0.624433	-0.739806	0.500064
C31	C	0.126435	-1.340048	0.000064
C32	C	0.626435	-0.840048	0.500064
C33	C	-0.340097	-1.039197	0.000051
C34	C	0.159903	-0.539197	0.500051
C35	C	-0.397635	-1.111836	0.000052
C36	C	0.102365	-0.611836	0.500052
C37	C	-0.504852	-1.101418	0.000044
C38	C	-0.004852	-0.601418	0.500044
C39	C	-0.232870	-1.049614	0.000059
C40	C	0.267130	-0.549614	0.500059
C41	C	0.304446	-1.082874	0.000044
C42	C	0.804446	-0.582874	0.500044
C43	C	0.409685	-1.093116	0.000037
C44	C	0.909685	-0.593116	0.500037
N45	N	0.131132	-1.075495	0.248802
N46	N	0.631132	-0.575495	0.748802
C47	C	0.041029	-0.390944	0.000067
C48	C	0.541029	0.109056	0.500067
C49	C	0.213721	-0.383345	0.000054
C50	C	0.713721	0.116655	0.500054
C51	C	0.215604	-0.477528	0.000051
C52	C	0.715604	0.022472	0.500051
C53	C	0.130197	-0.528423	0.000054
C54	C	0.630197	-0.028423	0.500054
C55	C	0.042908	-0.485135	0.000061
C56	C	0.542908	0.014865	0.500061
C57	C	0.302891	-0.520822	0.000035
C58	C	0.802891	-0.020822	0.500035
C59	C	0.304777	-0.615011	0.000031
C60	C	0.804777	-0.115011	0.500031
C61	C	0.219369	-0.665908	0.000041
C62	C	0.719369	-0.165908	0.500041
C63	C	0.132077	-0.622615	0.000048
C64	C	0.632077	-0.122615	0.500048
C65	C	0.046670	-0.673510	0.000052
C66	C	0.546670	-0.173510	0.500052
C67	C	-0.040623	-0.630218	0.000066
C68	C	0.459377	-0.130218	0.500066
C69	C	-0.042499	-0.536032	0.000071
C70	C	0.457501	-0.036032	0.500071
C71	C	0.221246	-0.760094	0.000036
C72	C	0.721246	-0.260094	0.500036
C73	C	0.048550	-0.767702	0.000046
C74	C	0.548550	-0.267702	0.500046
N75	N	0.131135	-1.075549	-0.248691
N76	N	0.631135	-0.575549	0.251309
C77	C	0.195480	-1.019414	0.701064
C78	C	0.695480	-0.519414	1.201064
C79	C	0.066791	-1.131673	0.701049
C80	C	0.566791	-0.631673	1.201049
C81	C	0.066788	-1.131663	0.600553
C82	C	0.566788	-0.631663	1.100553
C83	C	0.131133	-1.075527	0.550308
C84	C	0.631133	-0.575527	1.050308
C85	C	0.195481	-1.019403	0.600559
C86	C	0.695481	-0.519403	1.100559
C87	C	0.002448	-1.187792	0.550295
C88	C	0.502448	-0.687792	1.050295
C89	C	0.002443	-1.187784	0.449793
C90	C	0.502443	-0.687784	0.949793
C91	C	0.066784	-1.131644	0.399546
C92	C	0.566784	-0.631644	0.899546
C93	C	0.131134	-1.075517	0.449803
C94	C	0.631134	-0.575517	0.949803
C95	C	0.195479	-1.019382	0.399558
C96	C	0.695479	-0.519382	0.899558
C97	C	0.259825	-0.963249	0.449813
C98	C	0.759825	-0.463249	0.949813
C99	C	0.259822	-0.963263	0.550312
C100	C	0.759822	-0.463263	1.050312
C101	C	0.066787	-1.131630	0.299047
C102	C	0.566787	-0.631630	0.799047
C103	C	0.195480	-1.019371	0.299053
C104	C	0.695480	-0.519371	0.799053
H105	H	-0.366371	-1.181849	-0.000008
H106	H	0.133629	-0.681849	0.499992
Cl107	Cl	-0.068706	-0.336523	0.000090
Cl108	Cl	0.431294	0.163477	0.500090
H109	H	0.372424	-0.479377	0.000023
H110	H	0.872424	0.020623	0.500023
H111	H	-0.371358	-0.969191	0.000044
H112	H	0.128642	-0.469191	0.500044
H113	H	0.014408	-1.177382	0.741962
H114	H	0.514408	-0.677382	1.241962
Cl115	Cl	-0.147987	-0.694212	0.000063
Cl116	Cl	0.352013	-0.194212	0.500063
H117	H	0.312219	-0.917547	0.408892
H118	H	0.812219	-0.417547	0.908892
H119	H	0.247874	-0.973655	0.258150
H120	H	0.747874	-0.473655	0.758150
H121	H	0.312211	-0.917562	0.591236
H122	H	0.812211	-0.417562	1.091236
Cl123	Cl	-0.058825	-0.831677	0.000057
Cl124	Cl	0.441175	-0.331677	0.500057
Cl125	Cl	-0.152229	-0.481603	0.000083
Cl126	Cl	0.347771	0.018397	0.500083
Cl127	Cl	0.321083	-0.319362	0.000037
Cl128	Cl	0.821083	0.180638	0.500037
Cl129	Cl	-0.014094	-1.202197	0.235876
Cl130	Cl	0.485906	-0.702197	0.735876
Cl131	Cl	0.414515	-0.669426	0.000016
Cl132	Cl	0.914515	-0.169426	0.500016
H133	H	0.292318	-0.795338	0.000026
H134	H	0.792318	-0.295338	0.500026
Cl135	Cl	0.276365	-0.948847	0.764236
Cl136	Cl	0.776365	-0.448847	1.264236
H137	H	-0.049936	-1.233501	0.591208
H138	H	0.450064	-0.733501	1.091208
H139	H	-0.049952	-1.233489	0.408882
H140	H	0.450048	-0.733489	0.908882
