data_functionalizedCrystal
_audit_creation_method	'MofGen! by Chris Wilmer'
_symmetry_space_group_name_H-M	'P1'
_symmetry_Int_Tables_number	1
_symmetry_cell_setting	triclinic
loop_
_symmetry_equiv_pos_as_xyz
  x,y,z
_cell_length_a	23.532407
_cell_length_b	14.519709
_cell_length_c	12.996460
_cell_angle_alpha	89.999966
_cell_angle_beta	89.989202
_cell_angle_gamma	96.735588
loop_
_atom_site_label
_atom_site_type_symbol
_atom_site_fract_x
_atom_site_fract_y
_atom_site_fract_z
O1	O	0.074654	-1.222985	-0.085444
O2	O	0.083445	-0.954405	-0.085477
O3	O	-0.003845	-1.096794	-0.085440
O4	O	0.161945	-1.080596	-0.085480
O5	O	-0.003850	-1.096779	0.085693
O6	O	0.083441	-0.954390	0.085657
O7	O	0.074649	-1.222971	0.085690
Cu8	Cu	0.079044	-1.088679	0.101299
Cu9	Cu	0.079050	-1.088696	-0.101086
O10	O	0.161940	-1.080581	0.085654
C11	C	0.083033	-0.920042	0.000086
C12	C	0.081805	-0.817676	0.000075
C13	C	-0.025066	-1.096374	0.000129
C14	C	-0.088288	-1.095134	0.000137
C15	C	0.075061	-1.257333	0.000125
C16	C	0.076289	-1.359700	0.000130
C17	C	-0.487046	-1.171619	0.000090
C18	C	-0.546452	-1.170467	0.000082
O19	O	-0.582876	-1.241369	0.000052
N20	N	-0.569460	-1.085816	0.000072
C21	C	-0.533059	-1.002312	0.000060
O22	O	-0.558084	-0.930205	0.000050
C23	C	-0.473655	-1.003465	0.000061
C24	C	-0.450650	-1.088121	0.000081
C25	C	-0.464041	-1.256268	0.000109
C26	C	-0.404640	-1.257420	0.000119
C27	C	-0.368244	-1.173922	0.000110
C28	C	-0.391249	-1.089273	0.000091
C29	C	-0.437255	-0.919962	0.000041
C30	C	-0.377847	-0.921123	0.000041
C31	C	-0.354843	-1.005779	0.000061
C32	C	-0.295451	-1.006927	0.000091
N33	N	-0.272443	-1.091578	0.000101
C34	C	-0.308839	-1.175075	0.000110
C35	C	-0.657813	-0.999897	0.000057
C36	C	-0.717216	-0.998743	0.000064
C37	C	-0.730604	-1.166898	0.000084
C38	C	-0.671200	-1.168051	0.000084
C39	C	-0.634804	-1.084548	0.000067
C40	C	-0.184092	-1.177487	0.000132
C41	C	-0.124685	-1.178632	0.000146
C42	C	-0.111301	-1.010477	0.000121
C43	C	-0.170703	-1.009332	0.000112
C44	C	-0.207098	-1.092845	0.000114
O45	O	-0.258992	-0.936062	0.000117
O46	O	-0.283806	-1.247171	0.000106
C47	C	0.183160	-1.081001	0.000082
C48	C	0.246383	-1.082241	0.000067
N49	N	0.079040	-1.088673	0.243647
C50	C	0.077286	-0.442833	0.000123
C51	C	0.078541	-0.547126	0.000109
C52	C	0.079545	-0.630251	0.000098
C53	C	0.080801	-0.734551	0.000086
N54	N	0.079050	-1.088709	-0.243433
C55	C	0.079051	-1.088695	0.663461
C56	C	0.079050	-1.088686	0.546656
C57	C	0.079046	-1.088685	0.453557
C58	C	0.079044	-1.088675	0.336745
H59	H	-0.105958	-1.247572	0.000165
Cl60	Cl	-0.776371	-1.271867	0.000088
H61	H	-0.652474	-1.236985	0.000100
H62	H	-0.735940	-0.929808	0.000065
H63	H	-0.348216	-0.853122	0.000025
H64	H	-0.628182	-0.931894	0.000052
H65	H	-0.455975	-0.851027	0.000019
H66	H	-0.081657	-0.942496	0.000117
Cl67	Cl	-0.229836	-1.282476	0.000136
H68	H	-0.189434	-0.940399	0.000124
H69	H	-0.385915	-1.326355	0.000131
H70	H	-0.493670	-1.324266	0.000112
