data_functionalizedCrystal
_audit_creation_method	'MofGen! by Chris Wilmer'
_symmetry_space_group_name_H-M	'P1'
_symmetry_Int_Tables_number	1
_symmetry_cell_setting	triclinic
loop_
_symmetry_equiv_pos_as_xyz
  x,y,z
_cell_length_a	14.519709
_cell_length_b	17.038272
_cell_length_c	12.996460
_cell_angle_alpha	89.993697
_cell_angle_beta	90.000034
_cell_angle_gamma	87.395851
loop_
_atom_site_label
_atom_site_type_symbol
_atom_site_fract_x
_atom_site_fract_y
_atom_site_fract_z
O1	O	1.231711	0.102503	-0.085433
O2	O	1.731711	0.602503	0.414567
O3	O	0.964158	0.114573	-0.085465
O4	O	1.464158	0.614573	0.414535
O5	O	1.096345	-0.005280	-0.085441
O6	O	1.596345	0.494720	0.414559
O7	O	1.099525	0.222356	-0.085457
O8	O	1.599525	0.722356	0.414543
O9	O	1.096329	-0.005287	0.085693
O10	O	1.596329	0.494713	0.585693
O11	O	0.964143	0.114567	0.085669
O12	O	1.464143	0.614567	0.585669
O13	O	1.231696	0.102496	0.085701
O14	O	1.731696	0.602496	0.585701
Cu15	Cu	1.097918	0.108531	0.101311
Cu16	Cu	1.597918	0.608531	0.601311
Cu17	Cu	1.097936	0.108539	-0.101075
Cu18	Cu	1.597936	0.608539	0.398925
O19	O	1.099510	0.222349	0.085677
O20	O	1.599510	0.722349	0.585677
C21	C	0.929748	0.114008	0.000098
C22	C	1.429748	0.614008	0.500098
C23	C	0.827237	0.112322	0.000086
C24	C	1.327237	0.612322	0.500086
C25	C	0.451867	0.106116	0.000134
C26	C	0.951867	0.606116	0.500134
C27	C	0.556307	0.107839	0.000120
C28	C	1.056307	0.607839	0.500120
C29	C	0.639549	0.109219	0.000109
C30	C	1.139549	0.609219	0.500109
C31	C	0.743995	0.110942	0.000098
C32	C	1.243995	0.610942	0.500098
C33	C	1.093444	-0.034416	0.000125
C34	C	1.593444	0.465584	0.500125
C35	C	1.084814	-0.121223	0.000124
C36	C	1.584814	0.378777	0.500124
C37	C	1.164047	-0.171209	0.000135
C38	C	1.664047	0.328791	0.500135
C39	C	1.155933	-0.252773	0.000124
C40	C	1.655933	0.247227	0.500124
C41	C	1.068585	-0.284349	0.000110
C42	C	1.568585	0.215651	0.500110
C43	C	0.989347	-0.234357	0.000097
C44	C	1.489347	0.265643	0.500097
C45	C	0.997462	-0.152795	0.000100
C46	C	1.497462	0.347205	0.500100
C47	C	1.039916	-0.530153	0.000093
C48	C	1.539916	-0.030153	0.500093
C49	C	1.031807	-0.611722	0.000092
C50	C	1.531807	-0.111722	0.500092
C51	C	1.198394	-0.630132	0.000118
C52	C	1.698394	-0.130132	0.500118
C53	C	1.206502	-0.548568	0.000127
C54	C	1.706502	-0.048568	0.500127
C55	C	1.127263	-0.498583	0.000108
C56	C	1.627263	0.001417	0.500108
C57	C	1.060289	-0.367720	0.000102
C58	C	1.560289	0.132280	0.500102
C59	C	1.135560	-0.415213	0.000109
C60	C	1.635560	0.084787	0.500109
C61	C	1.266107	0.103062	0.000135
C62	C	1.766107	0.603062	0.500135
C63	C	1.368617	0.104748	0.000141
C64	C	1.868617	0.604748	0.500141
C65	C	1.102410	0.251486	0.000108
C66	C	1.602410	0.751486	0.500108
C67	C	1.111040	0.338292	0.000103
C68	C	1.611040	0.838292	0.500103
N69	N	1.097912	0.108525	0.243658
N70	N	1.597912	0.608525	0.743658
N71	N	1.097949	0.108538	-0.243422
N72	N	1.597949	0.608538	0.256578
C73	C	1.097935	0.108539	0.663472
C74	C	1.597935	0.608539	1.163472
C75	C	1.097926	0.108538	0.546667
C76	C	1.597926	0.608538	1.046667
C77	C	1.097924	0.108533	0.453569
C78	C	1.597924	0.608533	0.953569
C79	C	1.097914	0.108530	0.336756
C80	C	1.597914	0.608530	0.836756
H81	H	1.235175	-0.145506	0.000152
H82	H	1.735175	0.354494	0.500152
H83	H	1.262906	-0.670838	0.000131
H84	H	1.762906	-0.170838	0.500131
C85	C	0.894487	-0.268594	-0.000133
C86	C	1.394487	0.231406	0.499867
C87	C	0.846230	-0.243210	-0.088199
C88	C	1.346230	0.256790	0.411801
C89	C	0.758846	-0.274740	-0.088450
C90	C	1.258846	0.225260	0.411550
H91	H	0.861472	-0.251471	0.059469
H92	H	1.361472	0.248529	0.559469
H93	H	0.900963	-0.324332	-0.000187
H94	H	1.400963	0.175668	0.499813
H95	H	0.839750	-0.187484	-0.088136
H96	H	1.339750	0.312516	0.411864
H97	H	0.879216	-0.260332	-0.147816
H98	H	1.379216	0.239668	0.352184
H99	H	0.765322	-0.330478	-0.088504
H100	H	1.265322	0.169522	0.411496
H101	H	0.725840	-0.257615	-0.028844
H102	H	1.225840	0.242385	0.471156
H103	H	0.726095	-0.257527	-0.148206
H104	H	1.226095	0.242473	0.351794
H105	H	1.277629	-0.522865	0.000139
H106	H	1.777629	-0.022865	0.500139
C107	C	0.911469	-0.098482	-0.000121
C108	C	1.411469	0.401518	0.499879
C109	C	0.911262	-0.051128	-0.088180
C110	C	1.411262	0.448872	0.411820
C111	C	0.832052	-0.001094	-0.088431
C112	C	1.332052	0.498906	0.411569
H113	H	0.911082	-0.066212	0.059486
H114	H	1.411082	0.433788	0.559486
H115	H	0.858260	-0.128940	-0.000184
H116	H	1.358260	0.371060	0.499816
H117	H	0.964456	-0.020673	-0.088108
H118	H	1.464456	0.479327	0.411892
H119	H	0.911635	-0.083377	-0.147802
H120	H	1.411635	0.416623	0.352198
H121	H	0.778843	-0.031551	-0.088494
H122	H	1.278843	0.468449	0.411506
H123	H	0.831672	0.031171	-0.028820
H124	H	1.331672	0.531171	0.471180
H125	H	0.831896	0.031037	-0.148182
H126	H	1.331896	0.531037	0.351818
H127	H	1.206678	-0.389500	0.000097
H128	H	1.706678	0.110500	0.500097
H129	H	0.960675	-0.637427	0.000098
H130	H	1.460675	-0.137427	0.500098
H131	H	0.975394	-0.489465	0.000078
H132	H	1.475394	0.010535	0.500078
C133	C	1.241878	-0.307139	0.000294
C134	C	1.741878	0.192861	0.500294
C135	C	1.242062	-0.354530	0.088318
C136	C	1.742062	0.145470	0.588318
C137	C	1.321215	-0.404630	0.088499
C138	C	1.821215	0.095370	0.588499
H139	H	1.295132	-0.276754	0.000359
H140	H	1.795132	0.223246	0.500359
H141	H	1.242182	-0.339376	-0.059358
H142	H	1.742182	0.160624	0.440642
H143	H	1.241766	-0.322297	0.147955
H144	H	1.741766	0.177703	0.647955
H145	H	1.188826	-0.384932	0.088272
H146	H	1.688826	0.115068	0.588272
H147	H	1.321520	-0.436867	0.028847
H148	H	1.821520	0.063133	0.528847
H149	H	1.374463	-0.374238	0.088561
H150	H	1.874463	0.125762	0.588561
H151	H	1.321347	-0.436796	0.148217
H152	H	1.821347	0.063204	0.648217
H153	H	0.989170	-0.393438	0.000093
H154	H	1.489170	0.106562	0.500093
