data_functionalizedCrystal
_audit_creation_method	'MofGen! by Chris Wilmer'
_symmetry_space_group_name_H-M	'P1'
_symmetry_Int_Tables_number	1
_symmetry_cell_setting	triclinic
loop_
_symmetry_equiv_pos_as_xyz
  x,y,z
_cell_length_a	13.262522
_cell_length_b	11.804365
_cell_length_c	10.654541
_cell_angle_alpha	78.050366
_cell_angle_beta	84.457654
_cell_angle_gamma	117.340743
loop_
_atom_site_label
_atom_site_type_symbol
_atom_site_fract_x
_atom_site_fract_y
_atom_site_fract_z
O1	O	1.519383	0.591088	0.018445
O2	O	1.191382	0.484863	0.063923
O3	O	1.362925	0.540419	-0.142215
O4	O	1.347839	0.535532	0.224583
O5	O	1.317764	0.327737	-0.087997
O6	O	1.146221	0.272182	0.118141
O7	O	1.474221	0.378406	0.072662
Cu8	Cu	1.306098	0.305874	0.100352
Cu9	Cu	1.359506	0.557395	0.036234
O10	O	1.302678	0.322851	0.278801
C11	C	1.126803	0.364921	0.093469
C12	C	1.001659	0.324393	0.100717
N13	N	1.268541	0.128971	0.145448
C14	C	0.918255	0.189413	0.133679
C15	C	0.800675	0.151324	0.140479
C16	C	0.766487	0.248212	0.114327
C17	C	0.849891	0.383195	0.081373
C18	C	0.967483	0.421287	0.074562
C19	C	0.815715	0.480086	0.055210
C20	C	0.899119	0.615069	0.022256
C21	C	1.016699	0.653155	0.015448
C22	C	1.050887	0.556267	0.041600
C23	C	0.698123	0.441994	0.062021
C24	C	0.747351	0.673868	0.002904
C25	C	0.864931	0.711957	-0.003896
C26	C	1.487257	-0.174145	-0.117188
C27	C	1.515667	-0.040282	-0.151308
C28	C	1.453888	0.002038	-0.077122
C29	C	1.363694	-0.089518	0.031190
C30	C	1.335288	-0.223392	0.065320
C31	C	1.301918	-0.047209	0.105385
C32	C	1.211725	-0.138765	0.213698
C33	C	1.183322	-0.272625	0.247821
C34	C	1.245101	-0.314945	0.173635
C35	C	1.330325	0.086664	0.071256
C36	C	1.178355	0.037417	0.253763
C37	C	1.149945	-0.096445	0.287884
C38	C	1.538802	0.498352	0.043116
C39	C	1.663947	0.538888	0.035866
N40	N	1.397071	0.734302	-0.008872
C41	C	1.326366	0.429550	0.298393
C42	C	1.329678	0.430622	0.437547
C43	C	1.339238	0.433723	-0.161808
C44	C	1.335928	0.432658	-0.300964
C45	C	1.124549	0.364176	0.483453
C46	C	1.023544	0.331453	0.571780
C47	C	1.026663	0.332463	0.702525
C48	C	1.130799	0.366203	0.744943
C49	C	1.231804	0.398926	0.656617
C50	C	1.228673	0.397908	0.525872
C51	C	1.436933	0.465381	0.610709
C52	C	1.433814	0.464363	0.479966
C53	C	1.541069	0.499121	0.653128
C54	C	1.642074	0.531835	0.564803
C55	C	1.638950	0.530822	0.434051
C56	C	1.534819	0.497085	0.391639
H57	H	0.630225	0.332090	0.088862
O58	O	1.118519	0.078700	0.325843
C59	C	1.195911	0.175867	0.378904
H60	H	1.287976	0.224374	0.317001
H61	H	1.168996	0.254808	0.378389
H62	H	1.193344	0.126993	0.484225
H63	H	1.403761	0.161198	-0.016932
H64	H	1.532266	0.496259	0.285182
O65	O	0.652226	0.211118	0.121203
C66	C	0.587554	0.130906	0.249311
H67	H	0.647442	0.152230	0.321461
H68	H	0.515477	0.154048	0.277959
H69	H	0.547448	0.021583	0.252106
H70	H	1.589103	0.034258	-0.239494
O71	O	1.062193	-0.185382	0.392971
C72	C	0.957405	-0.188858	0.372842
H73	H	0.963888	-0.152480	0.263018
H74	H	0.882273	-0.295191	0.414070
H75	H	0.941318	-0.121718	0.425161
O76	O	0.951629	0.095439	0.158878
C77	C	1.030066	0.114381	0.047071
H78	H	1.073011	0.222031	-0.016157
H79	H	1.099665	0.091243	0.079437
H80	H	0.980950	0.045187	-0.012477
H81	H	1.121998	0.363347	0.376997
H82	H	1.146628	0.587272	0.036070
H83	H	0.732777	0.041422	0.167293
H84	H	1.477023	0.111036	-0.104908
H85	H	1.084608	0.763067	-0.011403
O86	O	1.736958	0.562417	0.348175
C87	C	1.717929	0.453663	0.299278
H88	H	1.620617	0.387935	0.308977
H89	H	1.764404	0.491788	0.191310
H90	H	1.753379	0.393327	0.358005
O91	O	0.928512	0.300826	0.788167
C92	C	0.888748	0.390533	0.742128
H93	H	0.923430	0.435966	0.631310
H94	H	0.789553	0.335331	0.764978
H95	H	0.921104	0.472839	0.792867
H96	H	1.221967	-0.423948	0.201412
O97	O	1.544208	0.499980	0.780143
C98	C	1.578108	0.408375	0.839317
H99	H	1.628404	0.390476	0.759928
H100	H	1.635878	0.450158	0.909189
H101	H	1.497456	0.310419	0.896684
H102	H	1.109890	-0.347169	0.336024
H103	H	0.938759	0.303986	0.537227
H104	H	0.932855	0.821862	-0.030728
O105	O	1.547234	-0.215140	-0.189447
C106	C	1.534858	-0.188723	-0.320608
H107	H	1.512051	-0.105595	-0.341892
H108	H	1.620066	-0.156866	-0.390118
H109	H	1.462454	-0.282343	-0.335874
O110	O	0.714074	0.767939	-0.022262
C111	C	0.635593	0.748967	0.089518
H112	H	0.648736	0.691963	0.180857
H113	H	0.652024	0.849777	0.100248
H114	H	0.542558	0.689821	0.077840
O115	O	1.743188	0.564757	0.606120
C116	C	1.774524	0.677504	0.652254
H117	H	1.693735	0.685532	0.682395
H118	H	1.814866	0.667513	0.740801
H119	H	1.840311	0.770635	0.570875
H120	H	1.133333	0.367039	0.851401
