data_functionalizedCrystal
_audit_creation_method	'MofGen! by Chris Wilmer'
_symmetry_space_group_name_H-M	'P1'
_symmetry_Int_Tables_number	1
_symmetry_cell_setting	triclinic
loop_
_symmetry_equiv_pos_as_xyz
  x,y,z
_cell_length_a	21.295418
_cell_length_b	17.077402
_cell_length_c	17.077396
_cell_angle_alpha	90.030619
_cell_angle_beta	89.963466
_cell_angle_gamma	89.961304
loop_
_atom_site_label
_atom_site_type_symbol
_atom_site_fract_x
_atom_site_fract_y
_atom_site_fract_z
Zn1	Zn	0.962344	0.312170	-0.444240
Zn2	Zn	1.462344	0.812170	0.055760
Zn3	Zn	0.962274	0.443447	-0.312971
Zn4	Zn	1.462274	0.943447	0.187029
Zn5	Zn	0.857081	0.312235	-0.312944
Zn6	Zn	1.357081	0.812235	0.187056
Zn7	Zn	0.857051	0.443434	-0.444150
Zn8	Zn	1.357051	0.943434	0.055850
O9	O	0.909688	0.377822	-0.378576
O10	O	1.409688	0.877822	0.121424
O11	O	1.050424	0.329562	-0.426876
O12	O	1.550424	0.829562	0.073124
O13	O	0.948303	0.426074	-0.203120
O14	O	1.448303	0.926074	0.296880
O15	O	0.871086	0.202380	-0.330386
O16	O	1.371086	0.702380	0.169614
O17	O	1.050373	0.426011	-0.330433
O18	O	1.550373	0.926011	0.169567
O19	O	0.948423	0.202332	-0.426849
O20	O	1.448423	0.702332	0.073151
O21	O	0.871018	0.329674	-0.203100
O22	O	1.371018	0.829674	0.296900
O23	O	0.768987	0.329661	-0.330299
O24	O	1.268987	0.829661	0.169701
O25	O	0.871035	0.425989	-0.554009
O26	O	1.371035	0.925989	-0.054009
O27	O	0.768966	0.426052	-0.426696
O28	O	1.268966	0.926052	0.073304
O29	O	0.948394	0.329550	-0.554075
O30	O	1.448394	0.829550	-0.054075
O31	O	0.948274	0.553292	-0.330346
O32	O	1.448274	1.053292	0.169654
O33	O	0.870967	0.553283	-0.426723
O34	O	1.370967	1.053283	0.073277
C35	C	0.746136	0.377863	-0.378486
C36	C	1.246136	0.877863	0.121514
C37	C	0.676168	0.377900	-0.378466
C38	C	1.176168	0.877900	0.121534
C39	C	0.909627	0.581770	-0.378545
C40	C	1.409627	1.081770	0.121455
C41	C	0.909658	0.669019	-0.378558
C42	C	1.409658	1.169019	0.121442
C43	C	0.909719	0.377761	-0.583320
C44	C	1.409719	0.877761	-0.083320
C45	C	0.909733	0.377735	-0.670570
C46	C	1.409733	0.877735	-0.170570
C47	C	0.643306	0.428157	-0.428585
C48	C	1.143306	0.928157	0.071415
C49	C	0.577564	0.428138	-0.428620
C50	C	1.077564	0.928138	0.071380
C51	C	0.544685	0.377869	-0.378522
C52	C	1.044685	0.877869	0.121478
C53	C	0.577555	0.327602	-0.328400
C54	C	1.077555	0.827602	0.171600
C55	C	0.643296	0.327617	-0.328372
C56	C	1.143296	0.827617	0.171628
N57	N	0.441416	0.371740	-0.309865
N58	N	0.941416	0.871740	0.190135
N59	N	0.378964	0.371730	-0.309894
N60	N	0.878964	0.871730	0.190106
C61	C	0.346611	0.377819	-0.378605
C62	C	0.846611	0.877819	0.121395
N63	N	0.379068	0.383934	-0.447288
N64	N	0.879068	0.883934	0.052712
N65	N	0.441525	0.383948	-0.447258
N66	N	0.941525	0.883948	0.052742
C67	C	0.473400	0.377847	-0.378548
C68	C	0.973400	0.877847	0.121452
C69	C	0.242464	0.428058	-0.428767
C70	C	0.742464	0.928058	0.071233
C71	C	0.176720	0.428033	-0.428803
C72	C	0.676720	0.928033	0.071197
C73	C	0.176712	0.327502	-0.328576
C74	C	0.676712	0.827502	0.171424
C75	C	0.242455	0.327523	-0.328547
C76	C	0.742455	0.827523	0.171453
C77	C	0.275326	0.377805	-0.378641
C78	C	0.775326	0.877805	0.121359
C79	C	1.073878	0.377781	-0.378667
C80	C	1.573878	0.877781	0.121333
C81	C	1.143846	0.377763	-0.378706
C82	C	1.643846	0.877763	0.121294
C83	C	0.909766	0.173077	-0.378625
C84	C	1.409766	0.673077	0.121375
C85	C	0.909799	0.085828	-0.378645
C86	C	1.409799	0.585828	0.121355
C87	C	0.949953	0.709988	-0.328428
C88	C	1.449953	1.209988	0.171572
C89	C	0.949984	0.791969	-0.328448
C90	C	1.449984	1.291969	0.171552
C91	C	0.909716	0.832979	-0.378594
C92	C	1.409716	1.332979	0.121406
C93	C	0.869420	0.792004	-0.428729
C94	C	1.369420	1.292004	0.071271
C95	C	0.869393	0.710025	-0.428713
C96	C	1.369393	1.210025	0.071287
C97	C	0.869478	0.962874	-0.428759
C98	C	1.369478	1.462874	0.071241
C99	C	0.869504	1.044859	-0.428775
C100	C	1.369504	1.544859	0.071225
C101	C	0.950069	1.044818	-0.328495
C102	C	1.450069	1.544818	0.171505
C103	C	0.950042	0.962839	-0.328478
C104	C	1.450042	1.462839	0.171522
C105	C	0.909745	0.921870	-0.378612
C106	C	1.409745	1.421870	0.121388
C107	C	0.869503	0.327533	-0.711549
C108	C	1.369503	0.827533	-0.211549
C109	C	0.869513	0.327515	-0.793530
C110	C	1.369513	0.827515	-0.293530
C111	C	0.909757	0.377696	-0.834530
C112	C	1.409757	0.877696	-0.334530
C113	C	0.949989	0.427903	-0.793545
C114	C	1.449989	0.927903	-0.293545
C115	C	0.949975	0.427925	-0.711566
C116	C	1.449975	0.927925	-0.211566
C117	C	0.950016	0.427854	-0.964415
C118	C	1.450016	0.927854	-0.464415
C119	C	0.950031	0.427832	-1.046400
C120	C	1.450031	0.927832	-0.546400
C121	C	0.869554	0.327445	-1.046379
C122	C	1.369554	0.827445	-0.546379
C123	C	0.869540	0.327466	-0.964400
C124	C	1.369540	0.827466	-0.464400
C125	C	0.909773	0.377673	-0.923421
C126	C	1.409773	0.877673	-0.423421
C127	C	0.909692	0.377826	-0.174628
C128	C	1.409692	0.877826	0.325372
C129	C	0.909801	0.377630	-0.087379
C130	C	1.409801	0.877630	0.412621
H131	H	0.670066	0.469100	-0.469376
H132	H	1.170066	0.969100	0.030624
H133	H	0.836581	0.676669	-0.469534
H134	H	1.336581	1.176669	0.030466
N135	N	0.543974	0.276243	-0.277237
N136	N	1.043974	0.776243	0.222763
N137	N	0.507346	0.226249	-0.304964
N138	N	1.007346	0.726249	0.195036
H139	H	0.483630	0.189971	-0.268832
H140	H	0.983630	0.689971	0.231168
N141	N	0.991228	1.086659	-0.277273
N142	N	1.491228	1.586659	0.222727
N143	N	0.969120	1.132469	-0.227226
N144	N	1.469120	1.632469	0.272774
H145	H	0.998185	1.162021	-0.191048
H146	H	1.498185	1.662021	0.308952
H147	H	0.982801	0.468694	-1.079780
H148	H	1.482801	0.968694	-0.579780
H149	H	0.982796	0.825322	-0.287627
H150	H	1.482796	1.325322	0.212373
H151	H	0.149943	0.286569	-0.287789
H152	H	0.649943	0.786569	0.212211
H153	H	0.550803	0.469063	-0.469436
H154	H	1.050803	0.969063	0.030564
N155	N	0.143141	0.479378	-0.479987
N156	N	0.643141	0.979378	0.020013
N157	N	0.084444	0.479359	-0.480005
N158	N	0.584444	0.979359	0.019995
H159	H	0.060726	0.515624	-0.516151
H160	H	0.560726	1.015624	-0.016151
H161	H	0.670052	0.286689	-0.287559
H162	H	1.170052	0.786689	0.212441
N163	N	0.828467	0.276156	-1.088246
N164	N	1.328467	0.776156	-0.588246
N165	N	0.828485	0.276140	-1.161441
N166	N	1.328485	0.776140	-0.661441
H167	H	0.799472	0.239914	-1.191014
H168	H	1.299472	0.739914	-0.691014
H169	H	0.269211	0.286601	-0.287731
H170	H	0.769211	0.786601	0.212269
H171	H	0.269229	0.468997	-0.469560
H172	H	0.769229	0.968997	0.030440
N173	N	0.991085	0.668114	-0.277192
N174	N	1.491085	1.168114	0.222808
N175	N	1.027060	0.704707	-0.232438
N176	N	1.527060	1.204707	0.267562
H177	H	1.056112	0.675136	-0.196251
H178	H	1.556112	1.175136	0.303749
N179	N	0.991113	0.479148	-0.922567
N180	N	1.491113	0.979148	-0.422567
N181	N	1.027043	0.523948	-0.959181
N182	N	1.527043	1.023948	-0.459181
H183	H	1.056069	0.560172	-0.929626
H184	H	1.556069	1.060172	-0.429626
N185	N	0.991172	0.920959	-0.277244
N186	N	1.491172	1.420959	0.222756
N187	N	1.027148	0.957545	-0.232485
N188	N	1.527148	1.457545	0.267515
H189	H	1.056197	0.927968	-0.196300
H190	H	1.556197	1.427968	0.303700
N191	N	0.828365	1.086739	-0.479998
N192	N	1.328365	1.586739	0.020002
N193	N	0.792390	1.050153	-0.524757
N194	N	1.292390	1.550153	-0.024757
H195	H	0.763333	1.079730	-0.560933
H196	H	1.263333	1.579730	-0.060933
H197	H	0.836636	0.825401	-0.469563
H198	H	1.336636	1.325401	0.030437
N199	N	0.991098	0.479147	-0.835440
N200	N	1.491098	0.979147	-0.335440
N201	N	1.031225	0.451497	-0.881213
N202	N	1.531225	0.951497	-0.381213
H203	H	1.060261	0.487686	-0.910804
H204	H	1.560261	0.987686	-0.410804
N205	N	0.828316	0.921036	-0.479980
N206	N	1.328316	1.421036	0.020020
N207	N	0.792365	0.957659	-0.524750
N208	N	1.292365	1.457659	-0.024750
H209	H	0.763293	0.928111	-0.560923
H210	H	1.263293	1.428111	-0.060923
H211	H	0.836735	0.286666	-0.678173
H212	H	1.336735	0.786666	-0.178173
H213	H	0.836751	0.286639	-0.826892
H214	H	1.336751	0.786639	-0.326892
N215	N	0.991069	0.479214	-0.669716
N216	N	1.491069	0.979214	-0.169716
N217	N	1.026998	0.524016	-0.706330
N218	N	1.526998	1.024016	-0.206330
H219	H	1.056021	0.560244	-0.676775
H220	H	1.556021	1.060244	-0.176775
H221	H	0.836773	0.286601	-0.931020
H222	H	1.336773	0.786601	-0.431020
