data_functionalizedCrystal
_audit_creation_method	'MofGen! by Chris Wilmer'
_symmetry_space_group_name_H-M	'P1'
_symmetry_Int_Tables_number	1
_symmetry_cell_setting	triclinic
loop_
_symmetry_equiv_pos_as_xyz
  x,y,z
_cell_length_a	14.908571
_cell_length_b	19.805405
_cell_length_c	19.805399
_cell_angle_alpha	90.029301
_cell_angle_beta	86.688856
_cell_angle_gamma	93.277652
loop_
_atom_site_label
_atom_site_type_symbol
_atom_site_fract_x
_atom_site_fract_y
_atom_site_fract_z
Zn1	Zn	1.379162	0.329282	-0.442290
Zn2	Zn	1.879162	0.829282	0.057710
Zn3	Zn	1.379049	0.442466	-0.329094
Zn4	Zn	1.879049	0.942466	0.170906
Zn5	Zn	1.228302	0.322759	-0.322598
Zn6	Zn	1.728302	0.822759	0.177402
Zn7	Zn	1.228253	0.435891	-0.435726
Zn8	Zn	1.728253	0.935891	0.064274
O9	O	1.303691	0.382600	-0.382427
O10	O	1.803691	0.882600	0.117573
O11	O	1.505391	0.349778	-0.432740
O12	O	2.005391	0.849778	0.067260
O13	O	1.359025	0.426608	-0.233514
O14	O	1.859025	0.926608	0.266486
O15	O	1.248381	0.228911	-0.338504
O16	O	1.748381	0.728911	0.161496
O17	O	1.505308	0.432933	-0.349575
O18	O	2.005308	0.932933	0.150425
O19	O	1.359218	0.233703	-0.426441
O20	O	1.859218	0.733703	0.073559
O21	O	1.248271	0.338660	-0.228742
O22	O	1.748271	0.838660	0.271258
O23	O	1.102051	0.332285	-0.332139
O24	O	1.602051	0.832285	0.167861
O25	O	1.248298	0.421727	-0.531315
O26	O	1.748298	0.921727	-0.031315
O27	O	1.102015	0.415402	-0.415254
O28	O	1.602015	0.915402	0.084746
O29	O	1.359171	0.343402	-0.536137
O30	O	1.859171	0.843402	-0.036137
O31	O	1.358977	0.536307	-0.343210
O32	O	1.858977	1.036307	0.156790
O33	O	1.248188	0.531477	-0.421553
O34	O	1.748188	1.031477	0.078447
C35	C	1.069299	0.372423	-0.372280
C36	C	1.569299	0.872423	0.127720
C37	C	0.969025	0.368085	-0.367954
C38	C	1.469025	0.868085	0.132046
C39	C	1.303590	0.558451	-0.382390
C40	C	1.803590	1.058451	0.117610
C41	C	1.303629	0.633685	-0.382400
C42	C	1.803629	1.133685	0.117600
C43	C	1.303742	0.382559	-0.558972
C44	C	1.803742	0.882559	-0.058972
C45	C	1.303764	0.382542	-0.634205
C46	C	1.803764	0.882542	-0.134205
C47	C	0.780611	0.446620	-0.446258
C48	C	1.280611	0.946620	0.053742
C49	C	0.686394	0.442546	-0.442197
C50	C	1.186394	0.942546	0.057803
C51	C	0.686374	0.355863	-0.355774
C52	C	1.186374	0.855863	0.144226
C53	C	0.780591	0.359936	-0.359835
C54	C	1.280591	0.859936	0.140165
C55	C	0.827706	0.405317	-0.405078
C56	C	1.327706	0.905317	0.094922
C57	C	0.921924	0.409393	-0.409136
C58	C	1.421924	0.909393	0.090864
C59	C	0.921902	0.322706	-0.322717
C60	C	1.421902	0.822706	0.177283
C61	C	0.827685	0.318633	-0.318656
C62	C	1.327685	0.818633	0.181344
C63	C	1.538999	0.392816	-0.392614
C64	C	2.038999	0.892816	0.107386
C65	C	1.639273	0.397170	-0.396956
C66	C	2.139273	0.897170	0.103044
C67	C	1.303818	0.206062	-0.382480
C68	C	1.803818	0.706062	0.117520
C69	C	1.303872	0.130833	-0.382503
C70	C	1.803872	0.630833	0.117497
C71	C	1.361373	0.671524	-0.341655
C72	C	1.861373	1.171524	0.158345
C73	C	1.361411	0.742214	-0.341672
C74	C	1.861411	1.242214	0.158328
C75	C	1.303700	0.775063	-0.382430
C76	C	1.803700	1.275063	0.117570
C77	C	1.245954	0.737219	-0.423180
C78	C	1.745954	1.237219	0.076820
C79	C	1.245921	0.666531	-0.423167
C80	C	1.745921	1.166531	0.076833
C81	C	1.246087	1.022298	-0.423236
C82	C	1.746087	1.522298	0.076764
C83	C	1.246123	1.092992	-0.423245
C84	C	1.746123	1.592992	0.076755
C85	C	1.361577	1.097982	-0.341741
C86	C	1.861577	1.597982	0.158259
C87	C	1.361544	1.027293	-0.341727
C88	C	1.861544	1.527293	0.158273
C89	C	1.303802	0.989455	-0.382480
C90	C	1.803802	1.489455	0.117520
C91	C	1.303762	0.912805	-0.382462
C92	C	1.803762	1.412805	0.117538
C93	C	1.303735	0.851712	-0.382445
C94	C	1.803735	1.351712	0.117555
C95	C	1.361496	0.341756	-0.672061
C96	C	1.861496	0.841756	-0.172061
C97	C	1.361505	0.341737	-0.742750
C98	C	1.861505	0.841737	-0.242750
C99	C	1.303786	0.382507	-0.775582
C100	C	1.803786	0.882507	-0.275582
C101	C	1.246047	0.423295	-0.737720
C102	C	1.746047	0.923295	-0.237720
C103	C	1.246034	0.423310	-0.667032
C104	C	1.746034	0.923310	-0.167032
C105	C	1.246098	0.423234	-1.022796
C106	C	1.746098	0.923234	-0.522796
C107	C	1.246117	0.423217	-1.093489
C108	C	1.746117	0.923217	-0.593489
C109	C	1.361569	0.341661	-1.098514
C110	C	1.861569	0.841661	-0.598514
C111	C	1.361556	0.341676	-1.027826
C112	C	1.861556	0.841676	-0.527826
C113	C	1.303814	0.382460	-0.989970
C114	C	1.803814	0.882460	-0.489970
C115	C	1.303804	0.382480	-0.913321
C116	C	1.803804	0.882480	-0.413321
C117	C	1.303800	0.382492	-0.852229
C118	C	1.803800	0.882492	-0.352229
C119	C	1.303693	0.382593	-0.206571
C120	C	1.803693	0.882593	0.293429
C121	C	1.303846	0.382427	-0.131346
C122	C	1.803846	0.882427	0.368654
H123	H	0.960283	0.446345	-0.445974
H124	H	1.460283	0.946345	0.054026
H125	H	1.198969	0.763971	-0.456370
H126	H	1.698969	1.263971	0.043630
H127	H	0.818972	0.483574	-0.483093
H128	H	1.318972	0.983574	0.016907
H129	H	0.648053	0.476178	-0.475731
H130	H	1.148053	0.976178	0.024269
Cl131	Cl	0.768447	0.261584	-0.261785
Cl132	Cl	1.268447	0.761584	0.238215
H133	H	1.199013	0.456515	-0.636210
H134	H	1.699013	0.956515	-0.136210
Cl135	Cl	0.627129	0.298808	-0.298913
Cl136	Cl	1.127129	0.798808	0.201087
Cl137	Cl	1.173494	0.974739	-0.474466
Cl138	Cl	1.673494	1.474739	0.025534
H139	H	0.960256	0.289076	-0.289184
H140	H	1.460256	0.789076	0.210816
Cl141	Cl	1.434067	0.290502	-0.630795
Cl142	Cl	1.934067	0.790502	-0.130795
Cl143	Cl	1.433922	0.630235	-0.290408
Cl144	Cl	1.933922	1.130235	0.209592
Cl145	Cl	1.434010	0.789781	-0.290449
Cl146	Cl	1.934010	1.289781	0.209551
Cl147	Cl	1.434098	0.986001	-0.290486
Cl148	Cl	1.934098	1.486001	0.209514
H149	H	1.408598	1.128798	-0.308561
H150	H	1.908598	1.628798	0.191439
Cl151	Cl	1.173328	0.618961	-0.474394
Cl152	Cl	1.673328	1.118961	0.025606
Cl153	Cl	1.173568	1.134287	-0.474490
Cl154	Cl	1.673568	1.634287	0.025510
H155	H	1.408519	0.308526	-0.773570
H156	H	1.908519	0.808526	-0.273570
Cl157	Cl	1.434123	0.290421	-0.986556
Cl158	Cl	1.934123	0.790421	-0.486556
Cl159	Cl	1.434157	0.290385	-1.146108
Cl160	Cl	1.934157	0.790385	-0.646108
Cl161	Cl	1.173549	0.474475	-1.134761
Cl162	Cl	1.673549	0.974475	-0.634761
Cl163	Cl	1.173508	0.474507	-0.975215
Cl164	Cl	1.673508	0.974507	-0.475215
H165	H	1.199048	0.456489	-0.764457
H166	H	1.699048	0.956489	-0.264457
