data_functionalizedCrystal
_audit_creation_method	'MofGen! by Chris Wilmer'
_symmetry_space_group_name_H-M	'P1'
_symmetry_Int_Tables_number	1
_symmetry_cell_setting	triclinic
loop_
_symmetry_equiv_pos_as_xyz
  x,y,z
_cell_length_a	6.394989
_cell_length_b	16.992694
_cell_length_c	15.455313
_cell_angle_alpha	92.857794
_cell_angle_beta	87.254133
_cell_angle_gamma	88.582967
loop_
_atom_site_label
_atom_site_type_symbol
_atom_site_fract_x
_atom_site_fract_y
_atom_site_fract_z
O1	O	-0.435072	-1.048122	-0.072012
O2	O	-0.430202	-0.819790	-0.072038
O3	O	-0.129113	-0.937197	-0.072026
O4	O	-0.736160	-0.930715	-0.072025
O5	O	-0.146255	-0.930482	0.072236
O6	O	-0.447343	-0.813075	0.072223
O7	O	-0.452214	-1.041407	0.072249
Cu8	Cu	-0.451344	-0.926628	0.085408
Cu9	Cu	-0.431071	-0.934569	-0.085198
O10	O	-0.753302	-0.924000	0.072236
C11	C	-0.432511	-0.787158	0.000089
C12	C	-0.413829	-0.699930	0.000079
N13	N	-0.465602	-0.921049	0.205403
N14	N	-0.416798	-0.940154	-0.205192
C15	C	-0.059649	-0.932558	0.000102
C16	C	0.177240	-0.928641	0.000100
C17	C	-0.449904	-1.074039	0.000120
C18	C	-0.468586	-1.161267	0.000124
C19	C	-0.594077	-0.651470	0.000080
C20	C	-0.576513	-0.569510	0.000092
C21	C	-0.378698	-0.536010	0.000097
C22	C	-0.198437	-0.584476	0.000099
C23	C	-0.216003	-0.666434	0.000093
C24	C	-0.305891	-0.291692	0.000120
C25	C	-0.288338	-0.209727	0.000123
C26	C	-0.666416	-0.194766	0.000118
C27	C	-0.683964	-0.276728	0.000107
C28	C	-0.503704	-0.325186	0.000113
N29	N	-0.360740	-0.452233	0.000106
N30	N	-0.521664	-0.408961	0.000110
C31	C	-0.337742	-0.970946	0.250803
C32	C	-0.348545	-0.966733	0.341610
C33	C	-0.487220	-0.912628	0.387016
C34	C	-0.615085	-0.862725	0.341611
C35	C	-0.604270	-0.866934	0.250805
C36	C	-0.533847	-0.894461	0.658596
C37	C	-0.544658	-0.890257	0.749408
C38	C	-0.278114	-0.994265	0.749401
C39	C	-0.267319	-0.998472	0.658594
C40	C	-0.395176	-0.948567	0.613196
N41	N	-0.498271	-0.908323	0.479836
N42	N	-0.384114	-0.952869	0.520378
H43	H	-0.723290	-0.530057	0.000092
H44	H	-0.154399	-1.042529	0.621626
H45	H	-0.813173	-0.155303	0.000115
O46	O	-0.876072	-0.309299	-0.000071
C47	C	-1.106371	-0.396620	-0.074848
C48	C	-0.888743	-0.359783	-0.074743
H49	H	-1.116672	-0.437456	-0.135204
H50	H	-1.232236	-0.347928	-0.074911
H51	H	-1.131272	-0.431790	-0.014461
H52	H	-0.863641	-0.324619	-0.135120
H53	H	-0.762992	-0.408511	-0.074635
H54	H	-0.224828	-1.015007	0.213839
H55	H	-0.755159	-0.678739	0.000075
O56	O	-0.224660	-1.015236	0.385811
C57	C	-0.210444	-1.117332	0.488288
C58	C	-0.350990	-1.062433	0.438298
H59	H	-0.312524	-1.155516	0.530722
H60	H	-0.105310	-1.080465	0.530868
H61	H	-0.109427	-1.156697	0.440226
H62	H	-0.452135	-1.023057	0.486298
H63	H	-0.455985	-1.099347	0.395705
O64	O	-0.153599	-1.042699	0.793409
C65	C	0.199154	-1.083793	0.821242
C66	C	0.058367	-1.028913	0.771334
H67	H	0.370556	-1.072655	0.803427
H68	H	0.163612	-1.147812	0.803365
H69	H	0.167501	-1.071501	0.893938
H70	H	0.089939	-1.041134	0.698627
H71	H	0.093935	-0.964912	0.789283
O72	O	-0.096294	-0.177090	0.000249
C73	C	0.134097	-0.089805	0.075024
C74	C	-0.083470	-0.126694	0.074981
H75	H	0.144552	-0.049065	0.135448
H76	H	0.158997	-0.054558	0.014693
H77	H	0.259878	-0.138535	0.074988
H78	H	-0.209386	-0.078014	0.075048
H79	H	-0.108190	-0.161959	0.135307
O80	O	-0.679401	-0.837618	0.793383
C81	C	-0.942675	-0.734915	0.783813
C82	C	-0.790154	-0.794476	0.733903
H83	H	-1.032291	-0.700030	0.735745
H84	H	-0.850862	-0.692777	0.826310
H85	H	-1.057894	-0.767888	0.826341
H86	H	-0.674901	-0.761569	0.691327
H87	H	-0.882104	-0.836612	0.691460
H88	H	-0.159109	-0.331137	0.000126
O89	O	-0.006307	-0.551906	-0.000050
C90	C	0.241774	-0.471486	-0.074757
C91	C	0.024154	-0.508338	-0.074703
H92	H	0.266454	-0.436240	-0.135098
H93	H	0.367685	-0.520172	-0.074813
H94	H	0.252233	-0.430719	-0.014355
H95	H	0.013490	-0.549098	-0.135095
H96	H	-0.101655	-0.459612	-0.074602
H97	H	-0.637958	-0.853827	0.621640
H98	H	-0.069226	-0.705890	0.000092
H99	H	-0.708384	-0.826302	0.213841
H100	H	-0.727990	-0.818667	0.378586
