data_functionalizedCrystal
_audit_creation_method	'MofGen! by Chris Wilmer'
_symmetry_space_group_name_H-M	'P1'
_symmetry_Int_Tables_number	1
_symmetry_cell_setting	triclinic
loop_
_symmetry_equiv_pos_as_xyz
  x,y,z
_cell_length_a	13.897449
_cell_length_b	12.759399
_cell_length_c	12.759386
_cell_angle_alpha	89.937142
_cell_angle_beta	89.954185
_cell_angle_gamma	90.015943
loop_
_atom_site_label
_atom_site_type_symbol
_atom_site_fract_x
_atom_site_fract_y
_atom_site_fract_z
Zn1	Zn	1.474933	-0.417861	-0.594111
Zn2	Zn	1.474772	-0.593674	-0.418429
Zn3	Zn	1.313559	-0.418013	-0.418435
Zn4	Zn	1.313612	-0.593501	-0.594057
O5	O	1.394219	-0.505762	-0.506258
O6	O	1.609894	-0.441192	-0.570826
O7	O	1.453297	-0.570509	-0.271409
O8	O	1.335012	-0.270971	-0.441764
O9	O	1.609775	-0.570361	-0.441754
O10	O	1.453573	-0.270860	-0.570832
O11	O	1.334855	-0.441451	-0.271413
O12	O	1.178585	-0.441282	-0.441712
O13	O	1.335101	-0.570066	-0.741085
O14	O	1.178623	-0.570213	-0.570740
O15	O	1.453623	-0.441024	-0.741125
O16	O	1.453347	-0.740672	-0.441701
O17	O	1.334944	-0.740545	-0.570734
C18	C	1.394160	-0.778730	-0.506234
C19	C	1.394223	-0.895506	-0.506259
C20	C	1.143605	-0.505746	-0.506221
C21	C	1.036391	-0.505764	-0.506231
C22	C	1.455946	-0.950400	-0.439148
C23	C	1.456008	-1.060124	-0.439183
C24	C	1.332615	-1.060051	-0.573443
C25	C	1.332559	-0.950329	-0.573413
C26	C	1.569849	-1.210021	-0.401803
C27	C	1.631563	-1.264918	-0.334676
C28	C	1.646367	-1.229435	-0.232166
C29	C	1.599442	-1.139057	-0.196763
C30	C	1.537720	-1.084165	-0.263885
C31	C	1.522935	-1.119647	-0.366409
C32	C	1.218717	-0.800429	-0.610782
C33	C	1.156990	-0.745536	-0.677899
C34	C	1.142176	-0.781017	-0.780411
C35	C	1.189084	-0.871399	-0.815810
C36	C	1.250811	-0.926292	-0.748692
C37	C	1.265626	-0.890804	-0.646182
C38	C	0.949321	-0.505768	-0.506248
C39	C	0.840088	-0.505775	-0.506280
C40	C	1.645812	-0.505779	-0.506295
C41	C	1.753026	-0.505786	-0.506311
C42	C	1.394386	-0.505508	-0.780292
C43	C	1.394457	-0.505400	-0.897069
C44	C	1.394305	-0.231729	-0.506305
C45	C	1.394341	-0.114952	-0.506325
C46	C	1.394108	-0.505939	-0.233290
C47	C	1.394224	-0.505751	-0.116514
C48	C	1.332168	-0.438963	-0.061704
C49	C	1.332286	-0.438785	0.048020
C50	C	1.456520	-0.572192	0.048114
C51	C	1.456406	-0.572364	-0.061608
C52	C	1.297190	-0.314918	0.197714
C53	C	1.235119	-0.248139	0.252528
C54	C	1.140862	-0.232805	0.217075
C55	C	1.108657	-0.284265	0.126809
C56	C	1.170723	-0.351052	0.072001
C57	C	1.264993	-0.366366	0.107453
C58	C	1.491492	-0.696232	-0.211304
C59	C	1.553554	-0.763025	-0.266114
C60	C	1.647813	-0.778370	-0.230663
C61	C	1.680014	-0.726928	-0.140395
C62	C	1.617952	-0.660135	-0.085585
C63	C	1.523694	-0.644789	-0.121043
H64	H	1.506158	-0.905765	-0.384469
C65	C	1.524895	-0.645487	0.108513
C66	C	1.525009	-0.645319	0.229203
C67	C	1.593376	-0.718627	0.289599
C68	C	1.661628	-0.792104	0.229306
C69	C	1.661516	-0.792275	0.108610
C70	C	1.593149	-0.718967	0.048213
H71	H	1.474483	-0.590924	0.273841
H72	H	1.593459	-0.718500	0.378947
H73	H	1.712238	-0.846371	0.274015
H74	H	1.712043	-0.846670	0.063971
H75	H	1.593067	-0.719094	-0.041135
C76	C	1.235027	-0.761386	-0.498020
C77	C	1.183429	-0.661972	-0.459081
C78	C	1.199741	-0.622923	-0.346323
C79	C	1.267651	-0.683290	-0.272503
C80	C	1.319254	-0.782710	-0.311440
C81	C	1.302942	-0.821758	-0.424199
H82	H	1.133154	-0.617279	-0.513729
H83	H	1.161541	-0.549325	-0.317499
H84	H	1.279727	-0.654384	-0.189032
H85	H	1.369529	-0.827402	-0.256793
H86	H	1.341142	-0.895357	-0.453022
H87	H	1.499517	-1.010580	-0.235061
H88	H	1.090323	-0.178431	0.261712
H89	H	1.144502	-0.392949	-0.001491
C90	C	1.653372	-0.603545	0.013713
C91	C	1.585107	-0.530082	0.074005
C92	C	1.620523	-0.473495	0.173302
C93	C	1.724206	-0.490371	0.212308
C94	C	1.792477	-0.563838	0.152015
C95	C	1.757060	-0.620425	0.052718
H96	H	1.508349	-0.517586	0.045131
H97	H	1.569984	-0.419110	0.217934
H98	H	1.750423	-0.448482	0.285813
H99	H	1.869235	-0.576334	0.180889
H100	H	1.807600	-0.674811	0.008086
C101	C	1.615723	-1.100029	-0.083995
C102	C	1.564114	-1.000621	-0.045057
C103	C	1.580399	-0.961588	0.067711
C104	C	1.648294	-1.021962	0.141541
C105	C	1.699908	-1.121376	0.102604
C106	C	1.683623	-1.160409	-0.010164
H107	H	1.513850	-0.955923	-0.099712
H108	H	1.542191	-0.887994	0.096534
H109	H	1.660350	-0.993067	0.225019
H110	H	1.750172	-1.166074	0.157259
H111	H	1.721831	-1.234003	-0.038987
C112	C	1.783702	-0.743798	-0.101389
C113	C	1.818127	-0.854474	-0.071156
C114	C	1.921815	-0.871348	-0.032151
C115	C	1.991077	-0.777545	-0.023377
C116	C	1.956653	-0.666861	-0.053611
C117	C	1.852965	-0.649987	-0.092617
H118	H	1.766854	-0.923920	-0.077650
H119	H	1.947297	-0.953285	-0.009770
H120	H	2.067833	-0.790036	0.005497
H121	H	2.007926	-0.597416	-0.047117
H122	H	1.827483	-0.568051	-0.114997
C123	C	1.716082	-0.851849	-0.290952
C124	C	1.680668	-0.908449	-0.390236
C125	C	1.748938	-0.981923	-0.450519
C126	C	1.852622	-0.998796	-0.411518
C127	C	1.888041	-0.942194	-0.312229
C128	C	1.819771	-0.868720	-0.251945
H129	H	1.603910	-0.895960	-0.419111
H130	H	1.722718	-1.023823	-0.524020
H131	H	1.903160	-1.053185	-0.456143
H132	H	1.964799	-0.954683	-0.283353
H133	H	1.845991	-0.826819	-0.178444
C134	C	1.714253	-1.289829	-0.158333
C135	C	1.693148	-1.405120	-0.130854
C136	C	1.761037	-1.465522	-0.057031
C137	C	1.850031	-1.410634	-0.010687
C138	C	1.871140	-1.295336	-0.038166
C139	C	1.803251	-1.234934	-0.111989
H140	H	1.627266	-1.445758	-0.165161
H141	H	1.745410	-1.550873	-0.036690
H142	H	1.900286	-1.455347	0.043961
H143	H	1.937023	-1.254699	-0.003859
H144	H	1.818879	-1.149584	-0.132330
H145	H	1.031899	-0.271783	0.097957
C146	C	1.553579	-1.249045	-0.514574
C147	C	1.605187	-1.348457	-0.553505
C148	C	1.588918	-1.387485	-0.666278
C149	C	1.521041	-1.327102	-0.740120
C150	C	1.469428	-1.227684	-0.701191
C151	C	1.485697	-1.188656	-0.588418
H152	H	1.655438	-1.393161	-0.498842
H153	H	1.627126	-1.461080	-0.695096
H154	H	1.508998	-1.355992	-0.823601
H155	H	1.419177	-1.182980	-0.755854
H156	H	1.447489	-1.115061	-0.559600
H157	H	1.527327	-0.804911	-0.339617
H158	H	1.091909	-0.736313	-0.835055
H159	H	1.414741	-0.683734	-0.240184
H160	H	1.669770	-1.338505	-0.363511
H161	H	1.281539	-0.384719	-0.106405
H162	H	1.282409	-1.104701	-0.628116
H163	H	1.289010	-0.999884	-0.777525
C164	C	1.172796	-0.910437	-0.928575
C165	C	1.070903	-0.940488	-0.965169
C166	C	1.054610	-0.979526	-1.077934
C167	C	1.140209	-0.988513	-1.154105
C168	C	1.242109	-0.958461	-1.117513
C169	C	1.258403	-0.919423	-1.004747
H170	H	1.007531	-0.933836	-0.908781
H171	H	0.979176	-1.001772	-1.105022
H172	H	1.128148	-1.017411	-1.237581
H173	H	1.305482	-0.965113	-1.173900
H174	H	1.333836	-0.897177	-0.977659
H175	H	1.118800	-0.671937	-0.649071
H176	H	1.261349	-0.206240	0.326022
H177	H	1.373945	-0.327386	0.226582
