data_functionalizedCrystal
_audit_creation_method	'MofGen! by Chris Wilmer'
_symmetry_space_group_name_H-M	'P1'
_symmetry_Int_Tables_number	1
_symmetry_cell_setting	triclinic
loop_
_symmetry_equiv_pos_as_xyz
  x,y,z
_cell_length_a	16.120490
_cell_length_b	12.594516
_cell_length_c	16.120297
_cell_angle_alpha	87.123691
_cell_angle_beta	89.870317
_cell_angle_gamma	87.104371
loop_
_atom_site_label
_atom_site_type_symbol
_atom_site_fract_x
_atom_site_fract_y
_atom_site_fract_z
Zn1	Zn	1.247532	-0.539337	0.534562
Zn2	Zn	1.747532	-0.039337	1.034562
Zn3	Zn	1.254509	-0.708781	0.395513
Zn4	Zn	1.754509	-0.208781	0.895513
Zn5	Zn	1.115519	-0.521341	0.388482
Zn6	Zn	1.615519	-0.021341	0.888482
Zn7	Zn	1.108465	-0.707790	0.527485
Zn8	Zn	1.608465	-0.207790	1.027485
O9	O	1.181506	-0.619312	0.461510
O10	O	1.681506	-0.119312	0.961510
O11	O	1.364825	-0.569759	0.522020
O12	O	1.864825	-0.069759	1.022020
O13	O	1.241944	-0.676800	0.278214
O14	O	1.741944	-0.176800	0.778214
O15	O	1.133062	-0.374786	0.407879
O16	O	1.633062	0.125214	0.907879
O17	O	1.369952	-0.694249	0.419862
O18	O	1.869952	-0.194249	0.919862
O19	O	1.230052	-0.388007	0.515203
O20	O	1.730052	0.111993	1.015203
O21	O	1.139828	-0.539089	0.273049
O22	O	1.639828	-0.039089	0.773049
O23	O	0.998215	-0.538129	0.401017
O24	O	1.498215	-0.038129	0.901017
O25	O	1.121040	-0.692561	0.644790
O26	O	1.621040	-0.192561	1.144790
O27	O	0.993032	-0.675112	0.503142
O28	O	1.493032	-0.175112	1.003142
O29	O	1.223212	-0.568799	0.649989
O30	O	1.723212	-0.068799	1.149989
O31	O	1.235104	-0.857592	0.413000
O32	O	1.735104	-0.357592	0.913000
O33	O	1.127806	-0.856864	0.509960
O34	O	1.627806	-0.356864	1.009960
C35	C	0.965450	-0.604561	0.450550
C36	C	1.465450	-0.104561	0.950550
C37	C	0.873020	-0.598277	0.445880
C38	C	1.373020	-0.098277	0.945880
C39	C	0.660066	-0.651900	0.485733
C40	C	1.160066	-0.151900	0.985733
C41	C	0.703793	-0.586814	0.437354
C42	C	1.203793	-0.086814	0.937354
C43	C	0.797960	-0.593194	0.442099
C44	C	1.297960	-0.093194	0.942099
C45	C	0.565891	-0.645521	0.480988
C46	C	1.065891	-0.145521	0.980988
C47	C	1.181468	-0.895850	0.461494
C48	C	1.681468	-0.395850	0.961494
C49	C	1.181527	-1.014161	0.461519
C50	C	1.681527	-0.514161	0.961519
C51	C	1.239948	-1.083779	0.408845
C52	C	1.739948	-0.583779	0.908845
C53	C	1.256420	-1.160534	0.485772
C54	C	1.756420	-0.660534	0.985772
C55	C	1.165156	-1.148214	0.384645
C56	C	1.665156	-0.648214	0.884645
C57	C	1.198036	-1.089362	0.538487
C58	C	1.698036	-0.589362	1.038487
C59	C	1.106739	-1.077031	0.437308
C60	C	1.606739	-0.577031	0.937308
C61	C	1.123180	-1.153756	0.514286
C62	C	1.623180	-0.653756	1.014286
C63	C	1.398405	-0.634122	0.472515
C64	C	1.898405	-0.134122	0.972515
C65	C	1.490835	-0.640433	0.477204
C66	C	1.990835	-0.140433	0.977204
C67	C	1.170561	-0.632577	0.678406
C68	C	1.670561	-0.132577	1.178406
C69	C	1.165897	-0.638230	0.770833
C70	C	1.665897	-0.138230	1.270833
C71	C	1.181566	-0.341698	0.461546
C72	C	1.681566	0.158302	0.961546
C73	C	1.181591	-0.223395	0.461562
C74	C	1.681591	0.276605	0.961562
C75	C	1.192456	-0.606026	0.245462
C76	C	1.692456	-0.106026	0.745462
C77	C	1.197282	-0.600084	0.153042
C78	C	1.697282	-0.100084	0.653042
C79	C	1.157351	-0.648524	0.940059
C80	C	1.657351	-0.148524	1.440059
C81	C	1.205825	-0.589793	0.983822
C82	C	1.705825	-0.089793	1.483822
C83	C	1.201070	-0.595520	1.077985
C84	C	1.701070	-0.095520	1.577985
C85	C	1.162105	-0.642798	0.845887
C86	C	1.662105	-0.142798	1.345887
H87	H	0.670508	-0.526301	0.392372
H88	H	1.170508	-0.026301	0.892372
H89	H	1.043486	-1.040538	0.416786
H90	H	1.543486	-0.540538	0.916786
H91	H	0.693350	-0.712409	0.530711
H92	H	1.193350	-0.212409	1.030711
N93	N	1.305389	-1.043064	0.349893
N94	N	1.805389	-0.543064	0.849893
H95	H	1.361886	-1.073621	0.368310
H96	H	1.861886	-0.573621	0.868310
H97	H	1.304473	-0.962825	0.349923
H98	H	1.804473	-0.462825	0.849923
H99	H	1.319693	-1.197004	0.506272
H100	H	1.819693	-0.697004	1.006272
H101	H	1.151283	-1.174266	0.319617
H102	H	1.651283	-0.674266	0.819617
H103	H	1.250896	-0.535208	0.950571
H104	H	1.750896	-0.035208	1.450571
H105	H	1.112283	-0.703105	0.973308
H106	H	1.612283	-0.203105	1.473308
N107	N	1.216508	-1.055050	0.624658
N108	N	1.716508	-0.555050	1.124658
H109	H	1.216393	-0.974817	0.624105
H110	H	1.716393	-0.474817	1.124105
H111	H	1.272820	-1.086294	0.643027
H112	H	1.772820	-0.586294	1.143027
N113	N	1.057757	-1.194201	0.573375
N114	N	1.557757	-0.694201	1.073375
H115	H	1.070253	-1.172812	0.631413
H116	H	1.570253	-0.672812	1.131413
H117	H	1.057829	-1.274344	0.572650
H118	H	1.557829	-0.774344	1.072650
