data_functionalizedCrystal
_audit_creation_method	'MofGen! by Chris Wilmer'
_symmetry_space_group_name_H-M	'P1'
_symmetry_Int_Tables_number	1
_symmetry_cell_setting	triclinic
loop_
_symmetry_equiv_pos_as_xyz
  x,y,z
_cell_length_a	17.077404
_cell_length_b	19.805404
_cell_length_c	17.077396
_cell_angle_alpha	90.029459
_cell_angle_beta	90.018362
_cell_angle_gamma	90.027563
loop_
_atom_site_label
_atom_site_type_symbol
_atom_site_fract_x
_atom_site_fract_y
_atom_site_fract_z
Zn1	Zn	1.200018	-0.269500	0.443813
Zn2	Zn	1.533351	0.063833	0.777147
Zn3	Zn	1.866685	0.397167	1.110480
Zn4	Zn	1.199910	-0.382693	0.312545
Zn5	Zn	1.533243	-0.049360	0.645879
Zn6	Zn	1.866576	0.283974	0.979212
Zn7	Zn	1.068750	-0.269519	0.312564
Zn8	Zn	1.402083	0.063814	0.645897
Zn9	Zn	1.735416	0.397148	0.979231
Zn10	Zn	1.068702	-0.382648	0.443771
Zn11	Zn	1.402036	-0.049315	0.777105
Zn12	Zn	1.735369	0.284018	1.110438
O13	O	1.134345	-0.326090	0.378174
O14	O	1.467678	0.007243	0.711507
O15	O	1.801012	0.340577	1.044840
O16	O	1.309851	-0.284526	0.426410
O17	O	1.643184	0.048808	0.759744
O18	O	1.976517	0.382141	1.093077
O19	O	1.182486	-0.367707	0.202701
O20	O	1.515819	-0.034374	0.536034
O21	O	1.849152	0.298960	0.869367
O22	O	1.086228	-0.174800	0.330000
O23	O	1.419561	0.158533	0.663333
O24	O	1.752895	0.491867	0.996667
O25	O	1.309771	-0.367688	0.329968
O26	O	1.643104	-0.034355	0.663301
O27	O	1.976438	0.298978	0.996635
O28	O	1.182670	-0.174786	0.426428
O29	O	1.516003	0.158548	0.759762
O30	O	1.849337	0.491881	1.093095
O31	O	1.086123	-0.284559	0.202715
O32	O	1.419456	0.048775	0.536048
O33	O	1.752790	0.382108	0.869381
O34	O	0.958897	-0.284515	0.329959
O35	O	1.292230	0.048818	0.663293
O36	O	1.625563	0.382151	0.996626
O37	O	1.086147	-0.367612	0.553624
O38	O	1.419481	-0.034279	0.886957
O39	O	1.752814	0.299055	1.220291
O40	O	0.958862	-0.367631	0.426357
O41	O	1.292195	-0.034298	0.759690
O42	O	1.625528	0.299036	1.093023
O43	O	1.182624	-0.284482	0.553655
O44	O	1.515958	0.048851	0.886988
O45	O	1.849291	0.382184	1.220322
O46	O	1.182440	-0.477404	0.329927
O47	O	1.515773	-0.144070	0.663261
O48	O	1.849106	0.189263	0.996594
O49	O	1.086042	-0.477371	0.426339
O50	O	1.419376	-0.144037	0.759672
O51	O	1.752709	0.189296	1.093005
C52	C	0.930397	-0.326071	0.378156
C53	C	1.263730	0.007262	0.711489
C54	C	1.597064	0.340596	1.044823
C55	C	0.843147	-0.326079	0.378167
C56	C	1.176481	0.007254	0.711500
C57	C	1.509814	0.340588	1.044834
C58	C	0.802199	-0.282853	0.428461
C59	C	1.135533	0.050480	0.761794
C60	C	1.468866	0.383813	1.095128
C61	C	0.720219	-0.282858	0.428465
C62	C	1.053552	0.050476	0.761798
C63	C	1.386886	0.383809	1.095131
C64	C	0.679188	-0.326092	0.378178
C65	C	1.012521	0.007242	0.711511
C66	C	1.345855	0.340575	1.044844
C67	C	0.720142	-0.369319	0.327878
C68	C	1.053475	-0.035986	0.661211
C69	C	1.386808	0.297347	0.994545
C70	C	0.802121	-0.369311	0.327871
C71	C	1.135454	-0.035978	0.661204
C72	C	1.468787	0.297356	0.994538
C73	C	0.549272	-0.369335	0.327897
C74	C	0.882605	-0.036001	0.661231
C75	C	1.215938	0.297332	0.994564
C76	C	0.467287	-0.369344	0.327905
C77	C	0.800620	-0.036011	0.661239
C78	C	1.133954	0.297323	0.994572
C79	C	0.467370	-0.282881	0.428491
C80	C	0.800703	0.050452	0.761825
C81	C	1.134037	0.383785	1.095158
C82	C	0.549349	-0.282873	0.428484
C83	C	0.882682	0.050460	0.761818
C84	C	1.216016	0.383794	1.095151
C85	C	0.590297	-0.326102	0.378185
C86	C	0.923630	0.007232	0.711519
C87	C	1.256964	0.340565	1.044852
C88	C	1.134245	-0.501946	0.378143
C89	C	1.467579	-0.168613	0.711477
C90	C	1.800912	0.164721	1.044810
C91	C	1.134275	-0.577178	0.378157
C92	C	1.467608	-0.243845	0.711490
C93	C	1.800941	0.089489	1.044823
C94	C	1.184732	-1.038964	0.328082
C95	C	1.518065	-0.705630	0.661415
C96	C	1.851399	-0.372297	0.994749
C97	C	1.184695	-0.968275	0.328067
C98	C	1.518029	-0.634942	0.661400
C99	C	1.851362	-0.301608	0.994733
C100	C	1.134448	-0.932940	0.378215
C101	C	1.467781	-0.599606	0.711548
C102	C	1.801115	-0.266273	1.044882
C103	C	1.084229	-0.968296	0.428377
C104	C	1.417562	-0.634963	0.761710
C105	C	1.750895	-0.301630	1.095043
C106	C	1.084262	-1.038984	0.428387
C107	C	1.417595	-0.705650	0.761721
C108	C	1.750929	-0.372317	1.095054
C109	C	1.084092	-0.683223	0.428333
C110	C	1.417425	-0.349890	0.761667
C111	C	1.750759	-0.016556	1.095000
C112	C	1.084064	-0.612531	0.428320
C113	C	1.417397	-0.279198	0.761654
C114	C	1.750731	0.054136	1.094987
C115	C	1.184525	-0.612515	0.328013
C116	C	1.517858	-0.279181	0.661346
C117	C	1.851192	0.054152	0.994680
C118	C	1.184559	-0.683202	0.328024
C119	C	1.517892	-0.349869	0.661357
C120	C	1.851225	-0.016535	0.994690
C121	C	1.134337	-0.718552	0.378182
C122	C	1.467670	-0.385219	0.711515
C123	C	1.801003	-0.051886	1.044848
C124	C	1.134376	-0.795201	0.378197
C125	C	1.467709	-0.461867	0.711530
C126	C	1.801043	-0.128534	1.044863
C127	C	1.134412	-0.856293	0.378205
C128	C	1.467745	-0.522959	0.711538
C129	C	1.801079	-0.189626	1.044871
C130	C	1.339089	-0.326110	0.378192
C131	C	1.672423	0.007224	0.711525
C132	C	2.005756	0.340557	1.044858
C133	C	1.426339	-0.326118	0.378199
C134	C	1.759672	0.007215	0.711533
C135	C	2.093006	0.340548	1.044866
C136	C	1.134393	-0.326040	0.582918
C137	C	1.467726	0.007293	0.916251
C138	C	1.801059	0.340626	1.249585
C139	C	1.134413	-0.326019	0.670168
C140	C	1.467746	0.007314	1.003501
C141	C	1.801079	0.340648	1.336834
C142	C	1.134466	-0.149547	0.378221
C143	C	1.467800	0.183786	0.711554
C144	C	1.801133	0.517119	1.044888
C145	C	1.134518	-0.074315	0.378241
C146	C	1.467852	0.259018	0.711575
C147	C	1.801185	0.592351	1.044908
C148	C	1.134343	-0.326091	0.174226
C149	C	1.467676	0.007242	0.507559
C150	C	1.801010	0.340576	0.840892
C151	C	1.134475	-0.325921	0.086976
C152	C	1.467808	0.007412	0.420310
C153	C	1.801141	0.340745	0.753643
C154	C	1.184650	-0.282730	0.711175
C155	C	1.517983	0.050604	1.044509
C156	C	1.851317	0.383937	1.377842
C157	C	1.184660	-0.282707	0.793156
C158	C	1.517993	0.050626	1.126489
C159	C	1.851326	0.383959	1.459822
C160	C	1.134435	-0.325978	0.834127
C161	C	1.467768	0.007356	1.167461
C162	C	1.801102	0.340689	1.500794
C163	C	1.084192	-0.369269	0.793114
C164	C	1.417525	-0.035936	1.126447
C165	C	1.750859	0.297398	1.459781
C166	C	1.084179	-0.369288	0.711135
C167	C	1.417513	-0.035954	1.044468
C168	C	1.750846	0.297379	1.377802
C169	C	1.084224	-0.369228	0.963984
C170	C	1.417557	-0.035895	1.297318
C171	C	1.750890	0.297438	1.630651
C172	C	1.084237	-0.369211	1.045969
C173	C	1.417571	-0.035877	1.379302
C174	C	1.750904	0.297456	1.712635
C175	C	1.184704	-0.282648	1.046005
C176	C	1.518037	0.050685	1.379338
C177	C	1.851371	0.384019	1.712672
C178	C	1.184691	-0.282666	0.964026
C179	C	1.518025	0.050667	1.297359
C180	C	1.851358	0.384000	1.630693
C181	C	1.134449	-0.325959	0.923018
C182	C	1.467782	0.007375	1.256352
C183	C	1.801116	0.340708	1.589685
H184	H	0.433882	-0.404549	0.286958
H185	H	0.767215	-0.071216	0.620291
H186	H	1.100548	0.262117	0.953624
Cl187	Cl	0.853598	-0.423655	0.264642
Cl188	Cl	1.186932	-0.090321	0.597975
Cl189	Cl	1.520265	0.243012	0.931309
H190	H	1.043312	-0.939522	0.469206
H191	H	1.376646	-0.606189	0.802539
H192	H	1.709979	-0.272856	1.135872
Cl193	Cl	1.247866	-0.228224	1.097557
Cl194	Cl	1.581200	0.105109	1.430890
Cl195	Cl	1.914533	0.438442	1.764223
Cl196	Cl	0.668560	-0.423667	0.264655
Cl197	Cl	1.001893	-0.090334	0.597989
Cl198	Cl	1.335226	0.242999	0.931322
H199	H	1.225593	-0.247436	0.930669
H200	H	1.558926	0.085898	1.264002
H201	H	1.892260	0.419231	1.597336
Cl202	Cl	1.021088	-0.423601	1.097475
Cl203	Cl	1.354422	-0.090268	1.430808
Cl204	Cl	1.687755	0.243065	1.764142
H205	H	1.225570	-0.247458	0.826540
H206	H	1.558903	0.085875	1.159874
H207	H	1.892236	0.419208	1.493207
H208	H	1.225653	-1.067729	0.287250
H209	H	1.558987	-0.734395	0.620583
H210	H	1.892320	-0.401062	0.953916
Cl211	Cl	1.021049	-0.423664	0.844621
Cl212	Cl	1.354383	-0.090331	1.177955
Cl213	Cl	1.687716	0.243002	1.511288
Cl214	Cl	1.021060	-0.423653	0.912433
Cl215	Cl	1.354393	-0.090319	1.245766
Cl216	Cl	1.687727	0.243014	1.579100
Cl217	Cl	1.021019	-0.423708	0.659582
Cl218	Cl	1.354352	-0.090375	0.992916
Cl219	Cl	1.687685	0.242958	1.326249
H220	H	0.434026	-0.247682	0.469445
H221	H	0.767359	0.085652	0.802778
H222	H	1.100693	0.418985	1.136112
H223	H	1.225582	-0.939492	0.287223
H224	H	1.558916	-0.606159	0.620556
H225	H	1.892249	-0.272825	0.953890
Cl226	Cl	0.668745	-0.228516	0.491697
Cl227	Cl	1.002078	0.104817	0.825030
Cl228	Cl	1.335411	0.438151	1.158364
Cl229	Cl	0.853773	-0.228502	0.491687
Cl230	Cl	1.187106	0.104832	0.825020
Cl231	Cl	1.520440	0.438165	1.158353
H232	H	1.043144	-0.583762	0.469159
H233	H	1.376477	-0.250429	0.802492
H234	H	1.709811	0.082905	1.135825
H235	H	1.225478	-0.711969	0.287190
H236	H	1.558811	-0.378635	0.620524
H237	H	1.892144	-0.045302	0.953857
Cl238	Cl	0.600748	-0.423685	0.264669
Cl239	Cl	0.934081	-0.090351	0.598002
Cl240	Cl	1.267415	0.242982	0.931336
Cl241	Cl	1.021129	-1.083426	0.491442
Cl242	Cl	1.354462	-0.750093	0.824776
Cl243	Cl	1.687795	-0.416759	1.158109
H244	H	0.582754	-0.247672	0.469437
H245	H	0.916087	0.085661	0.802770
H246	H	1.249421	0.418995	1.136104
H247	H	1.225551	-0.247496	0.677822
H248	H	1.558885	0.085838	1.011156
H249	H	1.892218	0.419171	1.344489
H250	H	1.225416	-0.583725	0.287169
H251	H	1.558750	-0.250392	0.620502
H252	H	1.892083	0.082942	0.953835
H253	H	1.043192	-0.711997	0.469169
H254	H	1.376526	-0.378664	0.802503
H255	H	1.709859	-0.045330	1.135836
