data_functionalizedCrystal
_audit_creation_method	'MofGen! by Chris Wilmer'
_symmetry_space_group_name_H-M	'P1'
_symmetry_Int_Tables_number	1
_symmetry_cell_setting	triclinic
loop_
_symmetry_equiv_pos_as_xyz
  x,y,z
_cell_length_a	18.050589
_cell_length_b	12.759401
_cell_length_c	18.050583
_cell_angle_alpha	90.016417
_cell_angle_beta	89.971909
_cell_angle_gamma	89.970254
loop_
_atom_site_label
_atom_site_type_symbol
_atom_site_fract_x
_atom_site_fract_y
_atom_site_fract_z
Zn1	Zn	-0.295604	-1.606121	-0.419899
Zn2	Zn	-0.419809	-1.605984	-0.295719
Zn3	Zn	-0.295640	-1.430433	-0.295727
Zn4	Zn	-0.419760	-1.430370	-0.419871
O5	O	-0.357703	-1.518227	-0.357804
O6	O	-0.312085	-1.753124	-0.403434
O7	O	-0.403373	-1.582667	-0.191795
O8	O	-0.191711	-1.453822	-0.312214
O9	O	-0.403338	-1.753023	-0.312200
O10	O	-0.191684	-1.582899	-0.403443
O11	O	-0.312147	-1.453690	-0.191801
O12	O	-0.312100	-1.283404	-0.312187
O13	O	-0.403255	-1.453714	-0.523799
O14	O	-0.403290	-1.283357	-0.403395
O15	O	-0.312038	-1.582838	-0.523820
O16	O	-0.523727	-1.582605	-0.312172
O17	O	-0.523691	-1.453582	-0.403387
C18	C	-0.357694	-1.245260	-0.357789
C19	C	-0.357708	-1.128483	-0.357801
C20	C	-0.550655	-1.518100	-0.357792
C21	C	-0.633201	-1.518142	-0.357811
C22	C	-0.357713	-1.792260	-0.357819
C23	C	-0.357717	-1.909037	-0.357826
C24	C	-0.832659	-1.448048	-0.407396
C25	C	-0.882105	-1.422440	-0.339629
C26	C	-0.784331	-1.518245	-0.357821
C27	C	-0.881967	-1.543905	-0.425595
C28	C	-0.930317	-1.518343	-0.357836
C29	C	-0.832690	-1.492587	-0.290018
C30	C	-0.832548	-1.614097	-0.376030
C31	C	-0.881972	-1.588525	-0.308216
C32	C	-0.700233	-1.518186	-0.357813
C33	C	-1.014413	-1.518402	-0.357836
C34	C	-0.163998	-1.518383	-0.357833
C35	C	-0.081452	-1.518450	-0.357845
C36	C	-0.357637	-1.518284	-0.551510
C37	C	-0.357609	-1.518308	-0.634055
C38	C	-0.405263	-1.073624	-0.405218
C39	C	-0.405266	-0.963900	-0.405232
C40	C	-0.310157	-0.963903	-0.310406
C41	C	-0.310151	-1.073625	-0.310396
C42	C	-0.431916	-0.813986	-0.492786
C43	C	-0.479483	-0.759123	-0.540197
C44	C	-0.551959	-0.794696	-0.551471
C45	C	-0.576883	-0.885128	-0.515324
C46	C	-0.529321	-0.939985	-0.467907
C47	C	-0.456834	-0.904415	-0.456647
C48	C	-0.283508	-1.223542	-0.222841
C49	C	-0.235949	-1.278401	-0.175421
C50	C	-0.163471	-1.242831	-0.164139
C51	C	-0.138550	-1.152394	-0.200273
C52	C	-0.186109	-1.097535	-0.247694
C53	C	-0.258586	-1.133113	-0.258977
C54	C	-0.307955	-1.588591	-0.882892
C55	C	-0.375718	-1.614228	-0.833483
C56	C	-0.357561	-1.518376	-0.931176
C57	C	-0.289826	-1.492755	-0.833504
C58	C	-0.357581	-1.518346	-0.785191
C59	C	-0.425360	-1.544063	-0.882854
C60	C	-0.339422	-1.422546	-0.882879
C61	C	-0.407232	-1.448146	-0.833492
C62	C	-0.357549	-1.518397	-1.015274
C63	C	-0.357601	-1.518325	-0.701094
C64	C	-0.357716	-1.518231	-0.164852
C65	C	-0.357535	-1.518410	-0.082306
H66	H	-0.811006	-1.388598	-0.449261
H67	H	-0.324047	-1.341541	-0.904593
Br68	Br	-0.520878	-1.580318	-0.918828
H69	H	-0.590688	-0.750019	-0.590075
Br70	Br	-0.194339	-1.456659	-0.797367
H71	H	-0.549614	-1.013613	-0.438477
H72	H	-0.256247	-1.352039	-0.145998
Br73	Br	-0.401315	-1.749280	-0.797320
Br74	Br	-0.477242	-1.349150	-0.797567
Br75	Br	-0.381917	-1.271717	-0.238048
Br76	Br	-0.445658	-0.636399	-0.589254
H77	H	-0.266048	-1.648028	-0.904582
H78	H	-0.443986	-1.118286	-0.443820
Br79	Br	-0.918384	-1.287407	-0.313959
Br80	Br	-0.333545	-0.765716	-0.477503
H81	H	-0.811134	-1.470828	-0.232693
H82	H	-0.079537	-1.123420	-0.191076
H83	H	-0.903487	-1.647930	-0.266250
H84	H	-0.810765	-1.695091	-0.391450
H85	H	-0.903613	-1.565570	-0.482905
H86	H	-0.271438	-0.919225	-0.271810
Br87	Br	-0.675255	-0.933388	-0.530614
H88	H	-0.124752	-1.287502	-0.125519
Br89	Br	-0.152290	-0.974791	-0.296728
