data_functionalizedCrystal
_audit_creation_method	'MofGen! by Chris Wilmer'
_symmetry_space_group_name_H-M	'P1'
_symmetry_Int_Tables_number	1
_symmetry_cell_setting	triclinic
loop_
_symmetry_equiv_pos_as_xyz
  x,y,z
_cell_length_a	12.837943
_cell_length_b	12.837942
_cell_length_c	11.892095
_cell_angle_alpha	94.302569
_cell_angle_beta	85.689438
_cell_angle_gamma	94.828940
loop_
_atom_site_label
_atom_site_type_symbol
_atom_site_fract_x
_atom_site_fract_y
_atom_site_fract_z
O1	O	-1.408367	-0.266110	0.093982
O2	O	-1.105234	-0.252667	0.093989
O3	O	-1.250078	-0.107822	0.093979
O4	O	-1.263522	-0.410955	0.093992
O5	O	-1.237999	-0.119879	-0.094028
O6	O	-1.093155	-0.264723	-0.094018
O7	O	-1.396288	-0.278167	-0.094025
Zn8	Zn	-1.242803	-0.273359	-0.123871
Zn9	Zn	-1.258718	-0.257474	0.123836
O10	O	-1.251443	-0.423011	-0.094014
C11	C	-1.060125	-0.254153	-0.000014
C12	C	-0.943710	-0.240609	-0.000011
C13	C	-1.239497	-0.074781	-0.000024
C14	C	-1.225953	0.041634	-0.000022
C15	C	-1.441397	-0.276680	-0.000020
C16	C	-1.557812	-0.290224	-0.000015
C17	C	-1.262024	-0.456052	-0.000009
C18	C	-1.275569	-0.572467	-0.000004
C19	C	-0.718835	-0.403439	-0.000020
C20	C	-0.609453	-0.390717	-0.000019
C21	C	-0.615561	-0.202446	-0.000015
C22	C	-0.724943	-0.215167	-0.000017
C23	C	-0.776577	-0.315667	-0.000017
C24	C	-0.885961	-0.328387	-0.000011
C25	C	-0.892066	-0.140117	-0.000015
C26	C	-0.782684	-0.127395	-0.000014
N27	N	-1.231950	-0.284200	-0.292925
C28	C	-1.388784	0.266509	-0.000002
C29	C	-1.376062	0.375892	0.000000
C30	C	-1.187791	0.369784	-0.000007
C31	C	-1.200512	0.260402	-0.000009
C32	C	-1.301011	0.208768	-0.000008
C33	C	-1.313731	0.099383	-0.000019
C34	C	-1.125461	0.093278	-0.000018
C35	C	-1.112740	0.202660	-0.000016
C36	C	-1.345098	-0.171130	-0.529580
C37	C	-1.337519	-0.178716	-0.647922
C38	C	-1.209210	-0.306952	-0.647951
C39	C	-1.216788	-0.299366	-0.529610
C40	C	-1.284736	-0.231454	-0.470428
C41	C	-1.292319	-0.223874	-0.352085
C42	C	-1.164005	-0.352104	-0.352116
C43	C	-1.156426	-0.359690	-0.470458
N44	N	-1.269579	-0.246626	0.292889
H45	H	-0.760876	-0.485269	-0.000019
H46	H	-1.030916	0.244716	-0.000012
C47	C	-0.954576	-0.044679	0.000042
C48	C	-0.885943	0.046053	0.000072
C49	C	-0.943490	0.133987	0.000144
H50	H	-0.993175	-0.049780	-0.065500
H51	H	-1.001563	-0.041467	0.065633
H52	H	-0.838975	0.042841	-0.065512
H53	H	-0.847343	0.051188	0.065609
H54	H	-0.990476	0.137199	0.065735
H55	H	-0.982086	0.128876	-0.065399
H56	H	-0.896932	0.195560	0.000175
C57	C	-0.726577	-0.018297	0.000224
C58	C	-0.670193	0.000707	0.096964
C59	C	-0.618508	0.101204	0.097232
H60	H	-0.679746	-0.013503	-0.065261
H61	H	-0.776606	0.032194	0.000289
H62	H	-0.620170	-0.049770	0.096888
H63	H	-0.717000	-0.004065	0.162464
H64	H	-0.668536	0.151695	0.097298
H65	H	-0.571682	0.105989	0.031743
H66	H	-0.580253	0.114115	0.162874
H67	H	-1.395563	0.057344	-0.000022
H68	H	-0.562444	-0.462191	-0.000024
H69	H	-0.573495	-0.120630	-0.000108
H70	H	-1.447536	0.422901	0.000009
H71	H	-1.053990	0.046252	-0.000033
H72	H	-1.153882	-0.362237	-0.696151
H73	H	-1.386671	-0.129593	-0.696080
C74	C	-1.098648	-0.417670	-0.287752
C75	C	-1.165102	-0.482917	-0.219787
C76	C	-1.104940	-0.543326	-0.160471
H77	H	-1.057091	-0.459291	-0.339825
H78	H	-1.054326	-0.372761	-0.241526
H79	H	-1.209406	-0.527822	-0.266010
H80	H	-1.206659	-0.441324	-0.167694
H81	H	-1.060618	-0.498417	-0.114244
H82	H	-1.063385	-0.584941	-0.212551
H83	H	-1.150019	-0.587597	-0.114342
H84	H	-1.101102	-0.414980	-0.518656
C85	C	-1.418876	-0.097533	-0.465115
C86	C	-1.412624	-0.103833	-0.348815
C87	C	-1.480597	-0.036075	-0.289396
H88	H	-1.399471	-0.027722	-0.484359
H89	H	-1.488641	-0.117123	-0.484443
H90	H	-1.342874	-0.084237	-0.329495
H91	H	-1.432038	-0.173629	-0.329538
H92	H	-1.550363	-0.055665	-0.308724
H93	H	-1.461186	0.033732	-0.308650
H94	H	-1.476372	-0.040347	-0.210482
C95	C	-1.497852	0.210374	-0.000239
C96	C	-1.504449	0.141578	-0.096980
C97	C	-1.604912	0.089861	-0.097244
H98	H	-1.511048	0.171944	0.065245
H99	H	-1.548334	0.260396	-0.000301
H100	H	-1.453983	0.091563	-0.096908
H101	H	-1.491273	0.179981	-0.162480
H102	H	-1.655394	0.139883	-0.097306
H103	H	-1.618099	0.051438	-0.031756
H104	H	-1.609405	0.043184	-0.162886
C105	C	-1.078678	0.425820	0.000238
C106	C	-1.031205	0.403588	0.096978
C107	C	-0.930697	0.455204	0.097254
H108	H	-1.037740	0.402498	-0.065247
H109	H	-1.083642	0.499246	0.000309
H110	H	-1.026235	0.330178	0.096897
H111	H	-1.072112	0.426913	0.162479
H112	H	-0.935662	0.528629	0.097324
H113	H	-0.889769	0.431878	0.031765
H114	H	-0.898478	0.440134	0.162895
H115	H	-0.928000	-0.410219	-0.000013
H116	H	-1.347647	-0.168579	-0.303901
