data_functionalizedCrystal
_audit_creation_method	'MofGen! by Chris Wilmer'
_symmetry_space_group_name_H-M	'P1'
_symmetry_Int_Tables_number	1
_symmetry_cell_setting	triclinic
loop_
_symmetry_equiv_pos_as_xyz
  x,y,z
_cell_length_a	18.050589
_cell_length_b	18.050591
_cell_length_c	18.050582
_cell_angle_alpha	90.022741
_cell_angle_beta	89.981795
_cell_angle_gamma	89.978346
loop_
_atom_site_label
_atom_site_type_symbol
_atom_site_fract_x
_atom_site_fract_y
_atom_site_fract_z
Zn1	Zn	-0.295837	-1.135293	-0.420090
Zn2	Zn	0.204163	-0.635293	0.079910
Zn3	Zn	-0.420020	-1.135203	-0.295909
Zn4	Zn	0.079980	-0.635203	0.204091
Zn5	Zn	-0.295834	-1.011112	-0.295897
Zn6	Zn	0.204166	-0.511112	0.204103
Zn7	Zn	-0.419975	-1.011060	-0.420041
Zn8	Zn	0.080025	-0.511060	0.079959
O9	O	-0.357916	-1.073167	-0.357984
O10	O	0.142084	-0.573167	0.142016
O11	O	-0.312330	-1.239205	-0.403643
O12	O	0.187670	-0.739205	0.096357
O13	O	-0.403564	-1.118727	-0.191983
O14	O	0.096436	-0.618727	0.308017
O15	O	-0.191910	-1.027644	-0.312387
O16	O	0.308090	-0.527644	0.187613
O17	O	-0.403567	-1.239140	-0.312408
O18	O	0.096433	-0.739140	0.187592
O19	O	-0.191912	-1.118879	-0.403631
O20	O	0.308088	-0.618879	0.096369
O21	O	-0.312325	-1.027557	-0.191974
O22	O	0.187675	-0.527557	0.308026
O23	O	-0.312282	-0.907180	-0.312339
O24	O	0.187718	-0.407180	0.187661
O25	O	-0.403490	-1.027555	-0.523972
O26	O	0.096510	-0.527555	-0.023972
O27	O	-0.403488	-0.907142	-0.403547
O28	O	0.096512	-0.407142	0.096453
O29	O	-0.312286	-1.118828	-0.524008
O30	O	0.187714	-0.618828	-0.024008
O31	O	-0.523939	-1.118676	-0.312360
O32	O	-0.023939	-0.618676	0.187640
O33	O	-0.523906	-1.027468	-0.403559
O34	O	-0.023906	-0.527468	0.096441
C35	C	-0.357880	-0.880215	-0.357937
C36	C	0.142120	-0.380215	0.142063
C37	C	-0.357883	-0.797669	-0.357935
C38	C	0.142117	-0.297669	0.142065
C39	C	-0.308220	-0.548843	-0.308440
C40	C	0.191780	-0.048843	0.191560
C41	C	-0.290142	-0.598275	-0.376217
C42	C	0.209858	-0.098275	0.123783
C43	C	-0.357905	-0.500548	-0.357980
C44	C	0.142095	-0.000548	0.142020
C45	C	-0.375937	-0.598198	-0.290184
C46	C	0.124063	-0.098198	0.209816
C47	C	-0.357892	-0.646534	-0.357954
C48	C	0.142108	-0.146534	0.142046
C49	C	-0.339791	-0.548893	-0.425793
C50	C	0.160209	-0.048893	0.074207
C51	C	-0.425618	-0.548813	-0.339714
C52	C	0.074382	-0.048813	0.160286
C53	C	-0.407566	-0.598222	-0.407538
C54	C	0.092434	-0.098222	0.092462
C55	C	-0.357910	-0.416450	-0.357994
C56	C	0.142090	0.083550	0.142006
C57	C	-0.357887	-0.730630	-0.357948
C58	C	0.142113	-0.230630	0.142052
C59	C	-0.550869	-1.073077	-0.357972
C60	C	-0.050869	-0.573077	0.142028
C61	C	-0.633414	-1.073107	-0.357992
C62	C	-0.133414	-0.573107	0.142008
C63	C	-0.832874	-1.023557	-0.407568
C64	C	-0.332874	-0.523557	0.092432
C65	C	-0.882306	-1.005459	-0.339798
C66	C	-0.382306	-0.505459	0.160202
C67	C	-0.784545	-1.073180	-0.358001
C68	C	-0.284545	-0.573180	0.141999
C69	C	-0.882195	-1.091314	-0.425779
C70	C	-0.382195	-0.591314	0.074221
C71	C	-0.930530	-1.073249	-0.358017
C72	C	-0.430530	-0.573249	0.141983
C73	C	-0.832889	-1.055046	-0.290196
C74	C	-0.332889	-0.555046	0.209804
C75	C	-0.832774	-1.140933	-0.376222
C76	C	-0.332774	-0.640933	0.123778
C77	C	-0.882183	-1.122861	-0.308405
C78	C	-0.382183	-0.622861	0.191595
C79	C	-0.700446	-1.073138	-0.357993
C80	C	-0.200446	-0.573138	0.142007
C81	C	-1.014626	-1.073291	-0.358017
C82	C	-0.514626	-0.573291	0.141983
C83	C	-0.164211	-1.073277	-0.358013
C84	C	0.335789	-0.573277	0.141987
C85	C	-0.081665	-1.073324	-0.358025
C86	C	0.418335	-0.573324	0.141975
C87	C	-0.357884	-1.073196	-0.551690
C88	C	0.142116	-0.573196	-0.051690
C89	C	-0.357870	-1.073208	-0.634236
C90	C	0.142130	-0.573208	-0.134236
C91	C	-0.357940	-0.266872	-0.358019
C92	C	0.142060	0.233128	0.141981
C93	C	-0.357917	-0.349418	-0.358001
C94	C	0.142083	0.150582	0.141999
C95	C	-0.407399	-1.023612	-0.833667
C96	C	0.092601	-0.523612	-0.333667
C97	C	-0.425560	-1.091367	-0.883069
C98	C	0.074440	-0.591367	-0.383069
C99	C	-0.357813	-1.073245	-0.785366
C100	C	0.142187	-0.573245	-0.285366
C101	C	-0.339631	-1.005527	-0.883046
C102	C	0.160369	-0.505527	-0.383046
C103	C	-0.357760	-1.073274	-0.931352
C104	C	0.142240	-0.573274	-0.431352
C105	C	-0.376010	-1.141036	-0.833681
C106	C	0.123990	-0.641036	-0.333681
C107	C	-0.290049	-1.055150	-0.833654
C108	C	0.209951	-0.555150	-0.333654
C109	C	-0.308185	-1.122952	-0.883034
C110	C	0.191815	-0.622952	-0.383034
C111	C	-0.357845	-1.073227	-0.701268
C112	C	0.142155	-0.573227	-0.201268
C113	C	-0.357727	-1.073300	-1.015448
C114	C	0.142273	-0.573300	-0.515448
C115	C	-0.357896	-1.073181	-0.165032
C116	C	0.142104	-0.573181	0.334968
C117	C	-0.357701	-1.073312	-0.082487
C118	C	0.142299	-0.573312	0.417513
H119	H	-0.324467	-0.527325	-0.483133
H120	H	0.175533	-0.027325	0.016867
H121	H	-0.482871	-0.527071	-0.324251
H122	H	0.017129	-0.027071	0.175749
H123	H	-0.391431	-1.198333	-0.812088
H124	H	0.108569	-0.698333	-0.312088
H125	H	-0.449386	-0.981678	-0.811992
H126	H	0.050614	-0.481678	-0.311992
H127	H	-0.903852	-1.106625	-0.483091
H128	H	-0.403852	-0.606625	0.016909
H129	H	-0.482843	-1.106690	-0.904775
H130	H	0.017157	-0.606690	-0.404775
H131	H	-0.266229	-1.164986	-0.904572
H132	H	0.233771	-0.664986	-0.404572
H133	H	-0.391194	-0.619858	-0.232861
H134	H	0.108806	-0.119858	0.267139
Cl135	Cl	-0.201633	-1.031462	-0.800113
Cl136	Cl	0.298367	-0.531462	-0.300113
H137	H	-0.324275	-0.948246	-0.904731
H138	H	0.175725	-0.448246	-0.404731
H139	H	-0.232870	-0.619987	-0.391669
H140	H	0.267130	-0.119987	0.108331
Cl141	Cl	-0.243313	-0.515364	-0.243857
Cl142	Cl	0.256687	-0.015364	0.256143
H143	H	-0.811222	-0.981531	-0.449426
H144	H	-0.311222	-0.481531	0.050574
Cl145	Cl	-0.472430	-0.631487	-0.472274
Cl146	Cl	0.027570	-0.131487	0.027726
Cl147	Cl	-0.799156	-1.229325	-0.400044
Cl148	Cl	-0.299156	-0.729325	0.099956
Cl149	Cl	-0.915896	-0.917043	-0.316006
Cl150	Cl	-0.415896	-0.417043	0.183994
H151	H	-0.811321	-1.039669	-0.232867
H152	H	-0.311321	-0.539669	0.267133
H153	H	-0.903698	-1.164855	-0.266446
H154	H	-0.403698	-0.664855	0.233554
