data_functionalizedCrystal
_audit_creation_method	'MofGen! by Chris Wilmer'
_symmetry_space_group_name_H-M	'P1'
_symmetry_Int_Tables_number	1
_symmetry_cell_setting	triclinic
loop_
_symmetry_equiv_pos_as_xyz
  x,y,z
_cell_length_a	15.944551
_cell_length_b	15.944499
_cell_length_c	16.176319
_cell_angle_alpha	89.996444
_cell_angle_beta	89.997076
_cell_angle_gamma	83.488174
loop_
_atom_site_label
_atom_site_type_symbol
_atom_site_fract_x
_atom_site_fract_y
_atom_site_fract_z
O1	O	1.114507	0.108337	-0.068654
O2	O	0.869955	0.121693	-0.068674
O3	O	0.998932	-0.007263	-0.068665
O4	O	0.985530	0.237293	-0.068663
O5	O	0.998914	-0.007271	0.068828
O6	O	0.869937	0.121685	0.068819
O7	O	1.114490	0.108329	0.068839
Cu8	Cu	0.992212	0.115006	0.081383
Cu9	Cu	0.992233	0.115016	-0.081218
O10	O	0.985513	0.237285	0.068830
C11	C	0.998375	-0.038562	0.000079
C12	C	0.996730	-0.131810	0.000073
C13	C	0.838653	0.121135	0.000070
C14	C	0.745407	0.119472	0.000062
C15	C	1.071662	-0.423346	0.000084
C16	C	1.032701	-0.362325	0.067875
C17	C	0.990753	-0.467446	0.000082
C18	C	1.032697	-0.362323	-0.067683
C19	C	0.993694	-0.302538	0.000076
C20	C	0.951770	-0.407653	0.067929
C21	C	0.951778	-0.407658	-0.067689
C22	C	0.912758	-0.346654	0.000119
C23	C	0.989062	-0.562446	0.000086
C24	C	0.995379	-0.207539	0.000078
C25	C	0.530566	0.035566	0.000077
C26	C	0.469547	0.074533	-0.067714
C27	C	0.574681	0.116465	0.000072
C28	C	0.469552	0.074544	0.067844
C29	C	0.409769	0.113554	0.000085
C30	C	0.514891	0.155455	-0.067775
C31	C	0.514902	0.155454	0.067843
C32	C	0.453901	0.194481	0.000035
C33	C	0.669683	0.118140	0.000064
C34	C	0.314768	0.111886	0.000087
C35	C	1.145792	0.108887	0.000093
C36	C	1.239038	0.110549	0.000096
C37	C	0.986070	0.268583	0.000084
C38	C	0.987715	0.361832	0.000085
N39	N	0.992203	0.114999	0.195748
N40	N	0.992248	0.115017	-0.195584
C41	C	1.049331	0.057920	0.239017
C42	C	1.049336	0.057919	0.325564
C43	C	0.992215	0.115002	0.368841
C44	C	0.935081	0.172083	0.325567
C45	C	0.935073	0.172079	0.239021
C46	C	0.935110	0.172099	0.674595
C47	C	0.935123	0.172100	0.761147
C48	C	1.049372	0.057939	0.761137
C49	C	1.049364	0.057935	0.674592
C50	C	0.992228	0.115013	0.631325
C51	C	0.992223	0.115012	0.537481
C52	C	0.992224	0.115007	0.462684
H53	H	1.138808	-0.456676	0.000154
H54	H	0.420730	0.261689	-0.000002
H55	H	1.095849	0.011441	0.203786
C56	C	0.442391	0.028311	-0.145137
N57	N	0.421938	-0.006509	-0.203450
C58	C	0.821973	-0.301814	0.000169
N59	N	0.753596	-0.268037	0.000212
H60	H	0.535020	0.189640	0.125159
H61	H	1.095894	0.011460	0.796374
C62	C	0.575582	-0.055149	-0.000013
N63	N	0.609490	-0.123474	-0.000086
H64	H	0.534880	0.189649	-0.125150
H65	H	0.449465	0.040309	0.125154
C66	C	1.078921	-0.335192	0.145310
N67	N	1.113738	-0.314761	0.203633
H68	H	0.888606	0.218584	0.796382
H69	H	0.917570	-0.427638	0.125301
C70	C	1.112161	-0.004892	0.373155
N71	N	1.159476	-0.052211	0.409000
H72	H	1.095880	0.011456	0.639358
C73	C	1.078955	-0.335195	-0.145105
N74	N	1.113801	-0.314767	-0.203417
H75	H	0.888588	0.218575	0.639374
C76	C	0.872240	0.234866	0.373175
N77	N	0.824906	0.282155	0.409033
H78	H	0.917592	-0.427767	-0.125008
C79	C	0.872235	0.234876	0.191427
N80	N	0.824903	0.282178	0.155580
