data_functionalizedCrystal
_audit_creation_method	'MofGen! by Chris Wilmer'
_symmetry_space_group_name_H-M	'P1'
_symmetry_Int_Tables_number	1
_symmetry_cell_setting	triclinic
loop_
_symmetry_equiv_pos_as_xyz
  x,y,z
_cell_length_a	14.519709
_cell_length_b	10.654541
_cell_length_c	9.730217
_cell_angle_alpha	89.999538
_cell_angle_beta	90.004205
_cell_angle_gamma	84.082036
loop_
_atom_site_label
_atom_site_type_symbol
_atom_site_fract_x
_atom_site_fract_y
_atom_site_fract_z
O1	O	1.224716	0.164621	-0.114102
O2	O	0.956340	0.184008	-0.114143
O3	O	1.096699	-0.008484	-0.114122
O4	O	1.084356	0.357113	-0.114123
O5	O	1.096695	-0.008486	0.114458
O6	O	0.956335	0.184006	0.114437
O7	O	1.224712	0.164619	0.114478
Zn8	Zn	1.090523	0.174312	0.150749
Zn9	Zn	1.090528	0.174315	-0.150415
O10	O	1.084352	0.357112	0.114457
C11	C	0.921973	0.183103	0.000142
C12	C	0.819578	0.180396	0.000126
N13	N	1.090526	0.174310	0.356286
C14	C	1.095791	-0.055275	0.000165
C15	C	1.093081	-0.194692	0.000155
C16	C	0.444630	0.170429	0.000188
C17	C	0.548952	0.173197	0.000170
C18	C	0.632101	0.175412	0.000156
C19	C	0.736429	0.178181	0.000140
C20	C	1.259078	0.165524	0.000190
C21	C	1.361474	0.168231	0.000197
C22	C	1.085260	0.403902	0.000167
C23	C	1.087970	0.543319	0.000168
C24	C	0.920132	0.572904	0.000159
C25	C	0.837489	0.653193	0.000160
C26	C	0.840042	0.784186	0.000160
C27	C	0.925245	0.834892	0.000156
C28	C	1.007887	0.754603	0.000155
C29	C	1.005326	0.623609	0.000159
C30	C	1.175723	0.725019	0.000154
C31	C	1.173173	0.594025	0.000164
C32	C	1.260927	0.775725	0.000150
C33	C	1.343571	0.695436	0.000159
C34	C	1.341015	0.564435	0.000160
C35	C	1.255815	0.513736	0.000163
N36	N	1.090533	0.174307	-0.355951
C37	C	1.214865	0.003908	0.356295
C38	C	1.277042	-0.081290	0.428240
C39	C	1.277051	-0.081291	0.572119
C40	C	1.214876	0.003913	0.644058
C41	C	1.152700	0.089110	0.572114
C42	C	1.152699	0.089104	0.428230
C43	C	1.028357	0.259505	0.572104
C44	C	1.028350	0.259514	0.428225
C45	C	0.966181	0.344708	0.644043
C46	C	0.904008	0.429914	0.572099
C47	C	0.904002	0.429912	0.428210
C48	C	0.966174	0.344711	0.356280
H49	H	0.918045	0.466244	0.000162
N50	N	1.214886	0.003911	0.799241
H51	H	1.166069	0.070814	0.833897
H52	H	1.200964	-0.081505	0.833789
H53	H	0.768118	0.611893	0.000159
N54	N	1.344077	-0.173196	0.350626
H55	H	1.385207	-0.125088	0.290917
H56	H	1.383404	-0.227163	0.418106
N57	N	0.928006	0.976176	0.000151
H58	H	0.961569	1.001914	-0.084585
H59	H	0.862700	1.019252	0.000197
H60	H	0.966178	0.344707	0.239126
H61	H	0.853367	0.499286	0.369640
N62	N	0.750910	0.870792	0.000149
H63	H	0.696547	0.818800	0.000147
H64	H	0.748321	0.925785	0.084886
H65	H	0.853385	0.499275	0.630680
N66	N	1.263685	0.917009	0.000135
H67	H	1.198405	0.960180	0.000138
H68	H	1.297297	0.942647	0.084870
N69	N	1.214852	0.003897	0.201112
H70	H	1.166027	0.070794	0.166451
H71	H	1.277651	0.022327	0.166556
H72	H	1.327677	-0.150671	0.630697
H73	H	1.408313	0.499070	0.000149
N74	N	1.435460	0.750123	0.000161
H75	H	1.424536	0.845289	0.000157
H76	H	1.471655	0.720771	0.084908
N77	N	1.253060	0.372452	0.000178
H78	H	1.186546	0.352518	0.000181
H79	H	1.285430	0.335181	-0.084561
N80	N	0.966185	0.344710	0.799227
H81	H	1.015009	0.277813	0.833890
H82	H	0.980104	0.430130	0.833765
