data_functionalizedCrystal
_audit_creation_method	'MofGen! by Chris Wilmer'
_symmetry_space_group_name_H-M	'P1'
_symmetry_Int_Tables_number	1
_symmetry_cell_setting	triclinic
loop_
_symmetry_equiv_pos_as_xyz
  x,y,z
_cell_length_a	15.297475
_cell_length_b	13.897448
_cell_length_c	13.897449
_cell_angle_alpha	90.009266
_cell_angle_beta	99.667134
_cell_angle_gamma	80.320483
loop_
_atom_site_label
_atom_site_type_symbol
_atom_site_fract_x
_atom_site_fract_y
_atom_site_fract_z
Zn1	Zn	1.379089	-0.639836	0.800151
Zn2	Zn	1.379034	-0.801088	0.638843
Zn3	Zn	1.228265	-0.611859	0.611007
Zn4	Zn	1.228203	-0.773121	0.772231
O5	O	1.303648	-0.706476	0.705558
O6	O	1.505325	-0.684639	0.802087
O7	O	1.359037	-0.775982	0.500169
O8	O	1.248320	-0.480598	0.636132
O9	O	1.505285	-0.803110	0.683575
O10	O	1.359130	-0.501153	0.775096
O11	O	1.248267	-0.636957	0.479718
O12	O	1.102013	-0.609838	0.609059
O13	O	1.248216	-0.755444	0.910916
O14	O	1.101968	-0.728316	0.727510
O15	O	1.359071	-0.657521	0.931429
O16	O	1.358977	-0.932350	0.656501
O17	O	1.248162	-0.911803	0.754501
C18	C	1.069257	-0.663007	0.662235
C19	C	0.968983	-0.644434	0.643724
C20	C	1.303582	-0.957078	0.705518
C21	C	1.303636	-1.064302	0.705548
C22	C	0.686335	-0.839226	0.837860
C23	C	0.780547	-0.856684	0.855249
C24	C	0.827660	-0.803623	0.802370
C25	C	0.780553	-0.733102	0.732098
C26	C	0.686332	-0.715648	0.714701
C27	C	0.827657	-0.680044	0.679211
C28	C	0.780550	-0.609523	0.608939
C29	C	0.686338	-0.592072	0.591546
C30	C	0.639224	-0.645133	0.644426
C31	C	0.921879	-0.697498	0.696607
C32	C	0.921876	-0.573920	0.573448
C33	C	0.827664	-0.556462	0.556059
C34	C	1.303731	-1.260615	0.705626
C35	C	1.303676	-1.151372	0.705585
C36	C	1.538954	-0.750115	0.749051
C37	C	1.639227	-0.768712	0.767585
C38	C	1.303642	-0.706484	0.957150
C39	C	1.303640	-0.706487	1.064363
C40	C	1.303738	-0.454900	0.705624
C41	C	1.303777	-0.347693	0.705652
C42	C	1.303638	-0.706490	1.151433
C43	C	1.303637	-0.706485	1.260665
C44	C	1.303644	-0.706487	1.454943
C45	C	1.303641	-0.706477	1.347728
H46	H	0.960224	-0.754916	0.753824
H47	H	0.904372	-0.817840	0.816533
C48	C	0.832358	-0.934256	0.932545
N49	N	0.871383	-0.992688	0.990768
C50	C	0.634504	-0.897588	0.896016
N51	N	0.595463	-0.941550	0.939822
H52	H	0.960235	-0.530714	0.530388
C53	C	0.535585	-0.625919	0.625315
N54	N	0.457522	-0.611445	0.610929
C55	C	0.634522	-0.514499	0.514243
N56	N	0.595496	-0.456068	0.456020
H57	H	0.789295	-0.499044	0.498842
