data_functionalizedCrystal
_audit_creation_method	'MofGen! by Chris Wilmer'
_symmetry_space_group_name_H-M	'P1'
_symmetry_Int_Tables_number	1
_symmetry_cell_setting	triclinic
loop_
_symmetry_equiv_pos_as_xyz
  x,y,z
_cell_length_a	14.519709
_cell_length_b	13.339070
_cell_length_c	12.376457
_cell_angle_alpha	75.601917
_cell_angle_beta	101.308721
_cell_angle_gamma	99.654720
loop_
_atom_site_label
_atom_site_type_symbol
_atom_site_fract_x
_atom_site_fract_y
_atom_site_fract_z
O1	O	-1.270325	-0.113336	-0.093849
O2	O	-0.770325	0.386664	0.406151
O3	O	-1.005827	-0.128953	-0.093882
O4	O	-0.505827	0.371047	0.406118
O5	O	-1.107720	0.026174	-0.093866
O6	O	-0.607720	0.526174	0.406134
O7	O	-1.168433	-0.268463	-0.093865
O8	O	-0.668433	0.231537	0.406135
O9	O	-1.082246	-0.012555	0.094142
O10	O	-0.582246	0.487445	0.594142
O11	O	-0.980353	-0.167681	0.094126
O12	O	-0.480353	0.332319	0.594126
O13	O	-1.244851	-0.152065	0.094159
O14	O	-0.744851	0.347935	0.594159
Zn15	Zn	-1.108558	-0.166022	0.123993
Zn16	Zn	-0.608558	0.333978	0.623993
Zn17	Zn	-1.142121	-0.114995	-0.123716
Zn18	Zn	-0.642121	0.385005	0.376284
O19	O	-1.142959	-0.307192	0.094143
O20	O	-0.642959	0.192808	0.594143
C21	C	-0.958546	-0.147588	0.000117
C22	C	-0.458546	0.352412	0.500117
C23	C	-0.855611	-0.145403	0.000104
C24	C	-0.355611	0.354597	0.500104
C25	C	-1.084728	0.044518	0.000135
C26	C	-0.584728	0.544518	0.500135
C27	C	-1.054160	0.156877	0.000127
C28	C	-0.554160	0.656877	0.500127
C29	C	-1.292133	-0.133429	0.000157
C30	C	-0.792133	0.366571	0.500157
C31	C	-1.395069	-0.135612	0.000163
C32	C	-0.895069	0.364388	0.500163
C33	C	-0.478665	-0.137381	0.000155
C34	C	0.021335	0.362619	0.500155
C35	C	-0.583543	-0.139609	0.000141
C36	C	-0.083543	0.360391	0.500141
C37	C	-0.667135	-0.141392	0.000129
C38	C	-0.167135	0.358608	0.500129
C39	C	-0.772019	-0.143620	0.000116
C40	C	-0.272019	0.356380	0.500116
C41	C	-1.165951	-0.325535	0.000139
C42	C	-0.665951	0.174465	0.500139
C43	C	-1.196520	-0.437892	0.000140
C44	C	-0.696520	0.062108	0.500140
N45	N	-1.085658	-0.200846	0.293047
N46	N	-0.585658	0.299154	0.793047
C47	C	-1.291847	0.521234	0.000157
C48	C	-0.791847	1.021234	0.500157
C49	C	-1.320569	0.415666	0.000172
C50	C	-0.820569	0.915666	0.500172
C51	C	-1.253969	0.350964	0.000160
C52	C	-0.753969	0.850964	0.500160
C53	C	-1.158642	0.391839	0.000135
C54	C	-0.658642	0.891839	0.500135
C55	C	-1.129915	0.497415	0.000129
C56	C	-0.629915	0.997415	0.500129
C57	C	-1.092038	0.327146	0.000132
C58	C	-0.592038	0.827146	0.500132
C59	C	-0.996711	0.368021	0.000107
C60	C	-0.496711	0.868021	0.500107
C61	C	-0.967989	0.473587	0.000101
C62	C	-0.467989	0.973587	0.500101
C63	C	-1.034589	0.538289	0.000112
C64	C	-0.534589	1.038289	0.500112
C65	C	-1.120764	0.221569	0.000137
C66	C	-0.620764	0.721569	0.500137
C67	C	-0.958833	0.197751	0.000109
C68	C	-0.458833	0.697751	0.500109
C69	C	-0.930111	0.303319	0.000095
C70	C	-0.430111	0.803319	0.500095
N71	N	-1.165026	-0.080163	-0.292771
N72	N	-0.665026	0.419837	0.207229
C73	C	-1.218177	0.000694	0.648054
C74	C	-0.718177	0.500694	1.148054
C75	C	-1.234200	0.025068	0.529716
C76	C	-0.734200	0.525068	1.029716
C77	C	-1.197065	-0.031408	0.470543
C78	C	-0.697065	0.468592	0.970543
C79	C	-1.143907	-0.112263	0.529719
C80	C	-0.643907	0.387737	1.029719
C81	C	-1.127889	-0.136644	0.648068
C82	C	-0.627889	0.363356	1.148068
C83	C	-1.106777	-0.168747	0.470558
C84	C	-0.606777	0.331253	0.970558
C85	C	-1.053619	-0.249601	0.529734
C86	C	-0.553619	0.250399	1.029734
C87	C	-1.037603	-0.273977	0.648071
C88	C	-0.537603	0.226023	1.148071
C89	C	-1.074737	-0.217501	0.707244
C90	C	-0.574737	0.282499	1.207244
C91	C	-1.122795	-0.144365	0.352209
C92	C	-0.622795	0.355635	0.852209
C93	C	-1.032506	-0.281703	0.352223
C94	C	-0.532506	0.218297	0.852223
C95	C	-1.016484	-0.306077	0.470560
C96	C	-0.516484	0.193923	0.970560
H97	H	-1.198380	0.188299	0.000158
H98	H	-0.698380	0.688299	0.500158
F99	F	-0.992987	-0.341817	0.289252
F100	F	-0.492987	0.158183	0.789252
F101	F	-1.214117	-0.005465	0.344598
F102	F	-0.714117	0.494535	0.844598
F103	F	-0.981039	-0.360039	0.711050
F104	F	-0.481039	0.139961	1.211050
H105	H	-1.277482	0.090897	0.481540
H106	H	-0.777482	0.590897	0.981540
H107	H	-1.398184	0.382393	0.000194
H108	H	-0.898184	0.882393	0.500194
H109	H	-1.248414	0.046665	0.696240
H110	H	-0.748414	0.546665	1.196240
F111	F	-1.004039	0.650671	-0.000009
F112	F	-0.504039	1.150671	0.499991
H113	H	-1.277361	0.265007	0.000172
H114	H	-0.777361	0.765007	0.500172
F115	F	-1.362713	0.590095	0.000188
F116	F	-0.862713	1.090095	0.500188
H117	H	-0.852493	0.336615	0.000075
H118	H	-0.352493	0.836615	0.500075
F119	F	-0.866531	0.517084	0.000088
F120	F	-0.366531	1.017084	0.500088
H121	H	-1.166077	-0.078534	0.304038
H122	H	-0.666077	0.421466	0.804038
F123	F	-0.887946	0.128894	0.000104
F124	F	-0.387946	0.628894	0.500104
H125	H	-0.973202	-0.371911	0.518756
H126	H	-0.473202	0.128089	1.018756
H127	H	-1.061689	-0.237343	0.803604
H128	H	-0.561689	0.262657	1.303604
