data_functionalizedCrystal
_audit_creation_method	'MofGen! by Chris Wilmer'
_symmetry_space_group_name_H-M	'P1'
_symmetry_Int_Tables_number	1
_symmetry_cell_setting	triclinic
loop_
_symmetry_equiv_pos_as_xyz
  x,y,z
_cell_length_a	11.792241
_cell_length_b	12.503552
_cell_length_c	11.792241
_cell_angle_alpha	93.543652
_cell_angle_beta	95.806584
_cell_angle_gamma	93.543175
loop_
_atom_site_label
_atom_site_type_symbol
_atom_site_fract_x
_atom_site_fract_y
_atom_site_fract_z
O1	O	1.513413	0.089217	-0.149055
O2	O	2.013413	0.589217	0.350945
O3	O	1.183074	0.089242	-0.165086
O4	O	1.683074	0.589242	0.334914
O5	O	1.356260	0.089221	0.008100
O6	O	1.856260	0.589221	0.508100
O7	O	1.340228	0.089237	-0.322240
O8	O	1.840228	0.589237	0.177760
O9	O	1.343220	-0.089420	-0.004936
O10	O	1.843220	0.410580	0.495064
O11	O	1.170035	-0.089399	-0.178122
O12	O	1.670035	0.410601	0.321878
O13	O	1.500374	-0.089424	-0.162091
O14	O	2.000374	0.410576	0.337909
Cu15	Cu	1.334014	-0.105723	-0.171296
Cu16	Cu	1.834014	0.394277	0.328704
Cu17	Cu	1.349434	0.105540	-0.155880
Cu18	Cu	1.849434	0.605540	0.344120
O19	O	1.327188	-0.089404	-0.335276
O20	O	1.827188	0.410596	0.164724
C21	C	1.134264	-0.000076	-0.170596
C22	C	1.634264	0.499924	0.329404
C23	C	1.008251	-0.000066	-0.167581
C24	C	1.508251	0.499934	0.332419
N25	N	1.323176	-0.254315	-0.182139
N26	N	1.823176	0.245685	0.317861
C27	C	0.777536	-0.000097	-0.162041
C28	C	1.277536	0.499903	0.337959
C29	C	0.905923	-0.000080	-0.165119
C30	C	1.405923	0.499920	0.334881
C31	C	1.376218	-0.526754	-0.129075
C32	C	1.876218	-0.026754	0.370925
C33	C	1.307242	-0.473422	-0.198089
C34	C	1.807242	0.026578	0.301911
C35	C	1.316110	-0.351499	-0.189212
C36	C	1.816110	0.148501	0.310788
C37	C	1.367352	-0.648688	-0.137950
C38	C	1.867352	-0.148688	0.362050
C39	C	1.549185	-0.000105	-0.156580
C40	C	2.049185	0.499895	0.343420
C41	C	1.675198	-0.000107	-0.159594
C42	C	2.175198	0.499893	0.340406
C43	C	1.348733	-0.000099	0.043873
C44	C	1.848733	0.499901	0.543873
C45	C	1.345718	-0.000098	0.169887
C46	C	1.845718	0.499902	0.669887
N47	N	1.360281	0.254132	-0.145028
N48	N	1.860281	0.754132	0.354972
C49	C	1.334715	-0.000081	-0.371049
C50	C	1.834715	0.499919	0.128951
C51	C	1.337730	-0.000076	-0.497062
C52	C	1.837730	0.499924	0.002938
C53	C	1.340177	-0.000079	0.400600
C54	C	1.840177	0.499921	0.900600
C55	C	1.343256	-0.000089	0.272214
C56	C	1.843256	0.499911	0.772214
H57	H	1.441927	-0.480852	-0.063329
H58	H	1.941927	0.019148	0.436671
H59	H	1.241531	-0.519330	-0.263840
H60	H	1.741531	-0.019330	0.236160
