data_functionalizedCrystal
_audit_creation_method	'MofGen! by Chris Wilmer'
_symmetry_space_group_name_H-M	'P1'
_symmetry_Int_Tables_number	1
_symmetry_cell_setting	triclinic
loop_
_symmetry_equiv_pos_as_xyz
  x,y,z
_cell_length_a	23.532407
_cell_length_b	9.130313
_cell_length_c	10.654550
_cell_angle_alpha	90.000110
_cell_angle_beta	83.666786
_cell_angle_gamma	89.993801
loop_
_atom_site_label
_atom_site_type_symbol
_atom_site_fract_x
_atom_site_fract_y
_atom_site_fract_z
O1	O	-0.756249	-0.121576	-0.152433
O2	O	-0.590530	-0.121627	-0.174489
O3	O	-0.677200	-0.121595	0.019399
O4	O	-0.669579	-0.121608	-0.346321
O5	O	-0.677199	0.122004	0.019394
O6	O	-0.590529	0.121972	-0.174495
O7	O	-0.756248	0.122022	-0.152438
Cu8	Cu	-0.673388	0.144240	-0.163467
Cu9	Cu	-0.673390	-0.143844	-0.163461
O10	O	-0.669578	0.121991	-0.346326
C11	C	-0.569310	0.000166	-0.173930
C12	C	-0.506081	0.000147	-0.172242
N13	N	-0.673392	0.346862	-0.163470
C14	C	-0.676640	0.000202	0.066176
C15	C	-0.674966	0.000197	0.205567
C16	C	-0.107657	0.000190	-0.276389
C17	C	-0.048247	0.000196	-0.274820
O18	O	-0.012131	0.000244	-0.371366
N19	N	-0.024869	0.000197	-0.159554
C20	C	-0.060906	0.000206	-0.045849
O21	O	-0.035567	0.000208	0.052339
C22	C	-0.120315	0.000210	-0.047419
C23	C	-0.143689	0.000195	-0.162693
C24	C	-0.131031	0.000176	-0.391654
C25	C	-0.190438	0.000167	-0.393222
C26	C	-0.226470	0.000172	-0.279525
C27	C	-0.203095	0.000186	-0.164261
C28	C	-0.156351	0.000230	0.066285
C29	C	-0.215764	0.000235	0.064705
C30	C	-0.239138	0.000220	-0.050569
C31	C	-0.298534	0.000182	-0.052133
N32	N	-0.321911	0.000182	-0.167399
C33	C	-0.285879	0.000177	-0.281095
C34	C	0.063858	0.000199	-0.042560
C35	C	0.123266	0.000185	-0.040989
C36	C	0.135922	0.000178	-0.269961
C37	C	0.076512	0.000182	-0.271531
C38	C	0.040481	0.000199	-0.157827
C39	C	-0.410637	0.000157	-0.284380
C40	C	-0.470049	0.000142	-0.285938
C41	C	-0.482700	0.000157	-0.056967
C42	C	-0.423293	0.000164	-0.055408
C43	C	-0.387262	0.000169	-0.169125
O44	O	-0.334684	0.000140	0.044362
O45	O	-0.311227	0.000194	-0.379266
C46	C	0.222531	0.000214	-0.152997
C47	C	0.159303	0.000187	-0.154686
N48	N	-0.673391	-0.346467	-0.163447
C49	C	-0.711779	0.423528	-0.077645
C50	C	-0.711778	0.576865	-0.077630
C51	C	-0.634999	0.576856	-0.249276
C52	C	-0.634999	0.423522	-0.249284
C53	C	-0.750172	0.346868	0.008169
C54	C	-0.788563	0.423534	0.094000
C55	C	-0.788562	0.576871	0.094015
C56	C	-0.750169	0.653542	0.008199
C57	C	-0.670138	0.000190	-0.393104
C58	C	-0.671812	0.000186	-0.532494
C59	C	-0.725996	0.000217	0.286669
C60	C	-0.724419	0.000206	0.417640
C61	C	-0.620779	0.000161	0.386393
C62	C	-0.622356	0.000162	0.255425
C63	C	-0.778606	0.000252	0.236811
C64	C	-0.829640	0.000273	0.317915
C65	C	-0.828064	0.000263	0.448886
C66	C	-0.775453	0.000230	0.498753
H67	H	-0.381308	0.000166	-0.376980
H68	H	-0.489077	0.000128	-0.379812
H69	H	-0.774174	0.000206	0.605400
H70	H	-0.512048	0.000155	0.035602
H71	H	-0.819818	0.361101	0.163876
O72	O	-0.400519	0.000363	0.056489
C73	C	-0.366557	0.126557	0.064262
H74	H	-0.352162	0.168614	-0.034902
H75	H	-0.327458	0.098202	0.113828
H76	H	-0.392587	0.214896	0.120145
H77	H	-0.750178	0.222014	0.008162
O78	O	-0.825905	0.651120	0.177438
C79	C	-0.859778	0.550571	0.253195
H80	H	-0.860622	0.441276	0.201705
H81	H	-0.905180	0.594886	0.272859
H82	H	-0.840925	0.534245	0.346278
O83	O	-0.213160	-0.000115	-0.505174
C84	C	-0.247146	-0.126268	-0.512928
H85	H	-0.232839	-0.214431	-0.447463
H86	H	-0.242203	-0.168637	-0.614195
H87	H	-0.293877	-0.097749	-0.483400
H88	H	-0.603739	0.361100	-0.319170
H89	H	-0.603742	0.639292	-0.319146
O90	O	-0.750256	0.802494	0.008353
C91	C	-0.792357	0.853727	0.102537
H92	H	-0.826196	0.765379	0.124808
H93	H	-0.813239	0.956328	0.067407
H94	H	-0.771680	0.880904	0.191555
H95	H	-0.779895	0.000265	0.130170
O96	O	-0.880778	0.000490	0.269630
C97	C	-0.911911	0.126677	0.311119
H98	H	-0.896031	0.168730	0.401768
H99	H	-0.959263	0.098315	0.329893
H100	H	-0.905616	0.215023	0.235245
H101	H	-0.577945	0.000137	0.427006
O102	O	-0.877673	0.000081	0.527543
C103	C	-0.909580	-0.126082	0.505058
H104	H	-0.895990	-0.168145	0.405524
H105	H	-0.957039	-0.097683	0.514865
H106	H	-0.901514	-0.214433	0.576602
O107	O	-0.572733	0.000206	0.176812
C108	C	-0.525959	0.000148	0.248899
H109	H	-0.540022	0.046280	0.346837
H110	H	-0.490171	0.070849	0.200123
H111	H	-0.509863	-0.116727	0.258028
H112	H	0.057486	0.000178	-0.365397
O113	O	-0.096116	0.000102	-0.502223
C114	C	-0.129499	0.000130	-0.604279
H115	H	-0.173701	-0.045974	-0.571809
H116	H	-0.107914	-0.070610	-0.683896
H117	H	-0.133875	0.116992	-0.639656
O118	O	0.170987	-0.000013	-0.380329
C119	C	0.205727	-0.126191	-0.386280
H120	H	0.209129	-0.168252	-0.286644
H121	H	0.250183	-0.097814	-0.433618
H122	H	0.185962	-0.214536	-0.443388
O123	O	0.028940	0.000127	0.068016
C124	C	0.062319	0.000161	0.170078
H125	H	0.106525	-0.045954	0.137618
H126	H	0.040736	-0.070566	0.249696
H127	H	0.066688	0.117027	0.205449
H128	H	-0.137331	0.000244	0.160153
O129	O	-0.250823	0.000050	0.175079
C130	C	-0.285549	-0.126134	0.181048
H131	H	-0.288954	-0.168205	0.081418
H132	H	-0.330005	-0.097761	0.228402
H133	H	-0.265769	-0.214469	0.238151
H134	H	0.142291	0.000174	0.052879
