data_functionalizedCrystal
_audit_creation_method	'MofGen! by Chris Wilmer'
_symmetry_space_group_name_H-M	'P1'
_symmetry_Int_Tables_number	1
_symmetry_cell_setting	triclinic
loop_
_symmetry_equiv_pos_as_xyz
  x,y,z
_cell_length_a	21.395362
_cell_length_b	10.686285
_cell_length_c	10.686551
_cell_angle_alpha	80.915481
_cell_angle_beta	85.584807
_cell_angle_gamma	85.645931
loop_
_atom_site_label
_atom_site_type_symbol
_atom_site_fract_x
_atom_site_fract_y
_atom_site_fract_z
Zn1	Zn	1.000976	-0.449548	-0.679783
Zn2	Zn	1.000925	-0.678128	-0.451280
Zn3	Zn	0.888729	-0.465971	-0.467458
Zn4	Zn	0.903664	-0.661805	-0.663409
O5	O	0.948573	-0.563863	-0.565482
O6	O	1.088648	-0.479828	-0.649554
O7	O	0.979771	-0.663689	-0.275791
O8	O	0.897390	-0.286174	-0.509246
O9	O	1.088611	-0.647765	-0.481674
O10	O	0.979857	-0.274108	-0.665240
O11	O	0.897341	-0.507818	-0.287677
O12	O	0.803031	-0.491990	-0.493369
O13	O	0.922844	-0.619944	-0.843216
O14	O	0.814003	-0.635869	-0.637333
O15	O	0.994338	-0.464000	-0.855246
O16	O	0.994252	-0.853581	-0.465797
O17	O	0.922795	-0.841589	-0.621646
C18	C	0.785783	-0.563941	-0.565330
C19	C	0.716143	-0.564003	-0.565293
C20	C	0.689159	-0.639038	-0.640125
C21	C	0.623724	-0.639002	-0.640184
C22	C	0.585276	-0.563947	-0.565387
C23	C	0.612267	-0.488898	-0.490550
C24	C	0.677700	-0.488925	-0.490503
C25	C	0.477172	-0.562530	-0.451892
C26	C	0.411740	-0.562511	-0.451937
C27	C	0.383457	-0.563854	-0.565533
C28	C	0.420615	-0.565242	-0.679087
C29	C	0.486048	-0.565270	-0.679040
C30	C	0.514324	-0.563908	-0.565430
C31	C	0.285522	-0.638854	-0.640436
C32	C	0.220086	-0.638809	-0.640498
C33	C	0.208630	-0.488712	-0.490852
C34	C	0.274065	-0.488749	-0.490802
C35	C	0.312507	-0.563827	-0.565592
C36	C	0.960157	-0.893638	-0.540217
C37	C	0.965171	-1.034713	-0.529451
C38	C	1.112000	-0.563785	-0.565636
C39	C	1.181642	-0.563752	-0.565702
C40	C	0.960263	-0.538320	-0.896578
C41	C	0.965244	-0.527435	-1.037671
C42	C	0.936963	-0.232798	-0.590874
C43	C	0.932016	-0.091718	-0.601695
C44	C	0.936963	-0.589215	-0.235682
C45	C	0.932090	-0.599743	-0.094617
H46	H	0.699669	-0.427820	-0.429565
O47	O	0.893487	-1.021263	-0.685183
C48	C	0.831208	-1.055882	-0.654858
H49	H	0.825785	-1.100266	-0.550681
H50	H	0.797573	-0.967877	-0.672299
H51	H	0.819904	-1.127496	-0.717071
H52	H	0.316824	-0.699979	-0.701341
H53	H	0.997389	-1.093844	-0.459349
O54	O	0.893765	-0.683607	-1.023871
C55	C	0.929641	-0.771433	-0.940954
H56	H	0.974866	-0.728147	-0.924707
H57	H	0.901464	-0.795567	-0.846344
H58	H	0.941604	-0.861603	-0.984761
O59	O	1.003564	-0.443497	-1.108341
C60	C	0.967695	-0.355706	-1.191305
H61	H	0.916674	-0.350948	-1.151834
H62	H	0.986985	-0.257888	-1.200446
H63	H	0.970421	-0.387291	-1.288721
O64	O	0.726409	-0.711989	-0.712898
C65	C	0.688555	-0.778233	-0.778936
H66	H	0.640259	-0.725886	-0.787431
H67	H	0.711506	-0.784225	-0.877867
H68	H	0.683292	-0.878154	-0.724915
H69	H	0.601750	-0.700103	-0.701126
O70	O	0.193798	-0.711776	-0.713013
C71	C	0.156229	-0.799222	-0.634355
H72	H	0.141428	-0.761708	-0.541684
H73	H	0.112656	-0.812305	-0.684757
H74	H	0.184220	-0.894363	-0.613021
H75	H	0.516300	-0.566396	-0.771500
H76	H	0.381492	-0.561388	-0.359473
O77	O	0.393190	-0.566749	-0.789450
C78	C	0.415330	-0.676945	-0.840556
H79	H	0.433117	-0.752629	-0.761508
H80	H	0.375468	-0.714233	-0.886085
H81	H	0.455307	-0.653080	-0.915400
O82	O	0.504723	-0.561400	-0.341590
C83	C	0.545739	-0.670736	-0.316753
H84	H	0.560537	-0.708385	-0.409355
H85	H	0.589102	-0.645583	-0.272708
H86	H	0.520745	-0.746650	-0.248114
H87	H	0.177326	-0.427594	-0.429957
H88	H	0.580958	-0.427785	-0.429652
O89	O	0.300178	-0.415838	-0.417982
C90	C	0.252214	-0.349557	-0.352000
H91	H	0.207223	-0.401864	-0.343570
H92	H	0.267073	-0.343584	-0.253044
H93	H	0.243560	-0.249630	-0.406029
