data_functionalizedCrystal
_audit_creation_method	'MofGen! by Chris Wilmer'
_symmetry_space_group_name_H-M	'P1'
_symmetry_Int_Tables_number	1
_symmetry_cell_setting	triclinic
loop_
_symmetry_equiv_pos_as_xyz
  x,y,z
_cell_length_a	27.731994
_cell_length_b	27.732048
_cell_length_c	26.809956
_cell_angle_alpha	89.999364
_cell_angle_beta	89.997334
_cell_angle_gamma	82.631595
loop_
_atom_site_label
_atom_site_type_symbol
_atom_site_fract_x
_atom_site_fract_y
_atom_site_fract_z
O1	O	0.640948	0.057385	-0.041414
O2	O	1.140948	0.557385	0.458586
O3	O	0.500151	0.066158	-0.041431
O4	O	1.000151	0.566158	0.458569
O5	O	0.574922	-0.008626	-0.041412
O6	O	1.074922	0.491374	0.458588
O7	O	0.566177	0.132169	-0.041432
O8	O	1.066177	0.632169	0.458568
O9	O	0.574908	-0.008614	0.041547
O10	O	1.074908	0.491386	0.541547
O11	O	0.500137	0.066170	0.041528
O12	O	1.000137	0.566170	0.541528
O13	O	0.640934	0.057397	0.041545
O14	O	1.140934	0.557397	0.541545
Zn15	Zn	0.570533	0.061785	0.054708
Zn16	Zn	1.070533	0.561785	0.554708
Zn17	Zn	0.570552	0.061770	-0.054594
Zn18	Zn	1.070552	0.561770	0.445406
O19	O	0.566163	0.132181	0.041527
O20	O	1.066163	0.632181	0.541527
C21	C	0.574732	-0.026627	0.000069
C22	C	1.074732	0.473373	0.500069
C23	C	0.574179	-0.080282	0.000073
C24	C	1.074179	0.419718	0.500073
C25	C	0.482137	0.065984	0.000046
C26	C	0.982137	0.565984	0.500046
C27	C	0.428480	0.065442	0.000040
C28	C	0.928480	0.565442	0.500040
C29	C	0.614884	-0.419105	0.000052
C30	C	1.114884	0.080895	0.500052
C31	C	0.612833	-0.620764	0.000045
C32	C	1.112833	-0.120764	0.500045
O33	O	0.650055	-0.652027	0.000028
O34	O	1.150055	-0.152027	0.500028
N35	N	0.568496	-0.639879	0.000040
N36	N	1.068496	-0.139879	0.500040
C37	C	0.524670	-0.608576	0.000033
C38	C	1.024670	-0.108576	0.500033
O39	O	0.486912	-0.629462	0.000024
O40	O	0.986912	-0.129462	0.500024
C41	C	0.526721	-0.406918	0.000037
C42	C	1.026721	0.093082	0.500037
C43	C	0.571061	-0.387805	0.000047
C44	C	1.071061	0.112195	0.500047
C45	C	0.659220	-0.399992	0.000061
C46	C	1.159220	0.100008	0.500061
C47	C	0.659732	-0.349580	0.000066
C48	C	1.159732	0.150420	0.500066
C49	C	0.615908	-0.318281	0.000061
C50	C	1.115908	0.181719	0.500061
C51	C	0.571573	-0.337394	0.000052
C52	C	1.071573	0.162606	0.500052
C53	C	0.482895	-0.375615	0.000027
C54	C	0.982895	0.124385	0.500027
C55	C	0.483412	-0.325198	0.000027
C56	C	0.983412	0.174802	0.500027
C57	C	0.527751	-0.306086	0.000037
C58	C	1.027751	0.193914	0.500037
C59	C	0.528262	-0.255683	0.000051
C60	C	1.028262	0.244317	0.500051
N61	N	0.572598	-0.236567	0.000056
N62	N	1.072598	0.263433	0.500056
C63	C	0.616421	-0.267867	0.000061
C64	C	1.116421	0.232133	0.500061
C65	C	0.523596	-0.714450	0.000032
C66	C	1.023596	-0.214450	0.500032
C67	C	0.523083	-0.764864	0.000032
C68	C	1.023083	-0.264864	0.500032
C69	C	0.611246	-0.777049	0.000043
C70	C	1.111246	-0.277049	0.500043
C71	C	0.611759	-0.726633	0.000047
C72	C	1.111759	-0.226633	0.500047
C73	C	0.567932	-0.695335	0.000037
C74	C	1.067932	-0.195335	0.500037
C75	C	0.617494	-0.161998	0.000071
C76	C	1.117494	0.338002	0.500071
C77	C	0.618002	-0.111581	0.000078
C78	C	1.118002	0.388419	0.500078
C79	C	0.529839	-0.099401	0.000064
C80	C	1.029839	0.400599	0.500064
C81	C	0.529331	-0.149813	0.000060
C82	C	1.029331	0.350187	0.500060
C83	C	0.573162	-0.181111	0.000062
C84	C	1.073162	0.318889	0.500062
O85	O	0.491060	-0.224391	0.000063
O86	O	0.991060	0.275609	0.500063
O87	O	0.654174	-0.246971	0.000060
O88	O	1.154174	0.253029	0.500060
C89	C	0.614372	-0.469517	0.000047
C90	C	1.114372	0.030483	0.500047
C91	C	0.570036	-0.488629	0.000038
C92	C	1.070036	0.011371	0.500038
C93	C	0.526213	-0.457330	0.000033
C94	C	1.026213	0.042670	0.500033
C95	C	0.569523	-0.539043	0.000038
C96	C	1.069523	-0.039043	0.500038
C97	C	0.613346	-0.570343	0.000043
C98	C	1.113346	-0.070343	0.500043
C99	C	0.657683	-0.551228	0.000048
C100	C	1.157683	-0.051228	0.500048
C101	C	0.658195	-0.500816	0.000052
C102	C	1.158195	-0.000816	0.500052
C103	C	0.481876	-0.476445	0.000028
C104	C	0.981876	0.023555	0.500028
C105	C	0.481367	-0.526857	0.000024
C106	C	0.981367	-0.026857	0.500024
C107	C	0.525191	-0.558157	0.000029
C108	C	1.025191	-0.058157	0.500029
C109	C	0.095754	0.062032	0.045281
C110	C	0.595754	0.562032	0.545281
C111	C	-0.105904	0.059970	0.045287
C112	C	0.394096	0.559970	0.545287
O113	O	-0.131983	0.059688	0.083746
O114	O	0.368017	0.559688	0.583746
N115	N	-0.131111	0.059708	0.000066
N116	N	0.368889	0.559708	0.500066
C117	C	-0.105900	0.059958	-0.045160
C118	C	0.394100	0.559958	0.454840
O119	O	-0.131967	0.059683	-0.083623
O120	O	0.368033	0.559683	0.416377
C121	C	0.095757	0.062016	-0.045165
C122	C	0.595757	0.562016	0.454835
C123	C	0.120961	0.062283	0.000059
C124	C	0.620961	0.562283	0.500059
C125	C	0.120958	0.062299	0.090501
C126	C	0.620958	0.562299	0.590501
C127	C	0.171369	0.062817	0.090499
C128	C	0.671369	0.562817	0.590499
C129	C	0.196576	0.063068	0.045277
C130	C	0.696576	0.563068	0.545277
C131	C	0.171372	0.062802	0.000057
C132	C	0.671372	0.562802	0.500057
C133	C	0.120968	0.062263	-0.090390
C134	C	0.620968	0.562263	0.409610
C135	C	0.171386	0.062776	-0.090388
C136	C	0.671386	0.562776	0.409612
C137	C	0.196590	0.063043	-0.045164
C138	C	0.696590	0.563043	0.454836
C139	C	0.246991	0.063571	-0.045167
C140	C	0.746991	0.563571	0.454833
N141	N	0.272198	0.063833	0.000054
N142	N	0.772198	0.563833	0.500054
C143	C	0.246991	0.063582	0.045276
C144	C	0.746991	0.563582	0.545276
C145	C	-0.211774	0.058879	-0.045154
C146	C	0.288226	0.558879	0.454846
C147	C	-0.262188	0.058365	-0.045152
C148	C	0.237812	0.558365	0.454848
C149	C	-0.262188	0.058376	0.045294
C150	C	0.237812	0.558376	0.545294
C151	C	-0.211773	0.058893	0.045293
C152	C	0.288227	0.558893	0.545293
C153	C	-0.186566	0.059141	0.000067
C154	C	0.313434	0.559141	0.500067
C155	C	0.352858	0.064670	0.045268
C156	C	0.852858	0.564670	0.545268
C157	C	0.403273	0.065190	0.045262
C158	C	0.903273	0.565190	0.545262
C159	C	0.403269	0.065176	-0.045184
C160	C	0.903269	0.565176	0.454816
C161	C	0.352858	0.064659	-0.045179
C162	C	0.852858	0.564659	0.454821
C163	C	0.327654	0.064404	0.000052
C164	C	0.827654	0.564404	0.500052
O165	O	0.273102	0.063848	-0.083606
O166	O	0.773102	0.563848	0.416394
O167	O	0.273068	0.063846	0.083733
O168	O	0.773068	0.563846	0.583733
C169	C	0.045343	0.061514	0.045283
C170	C	0.545343	0.561514	0.545283
C171	C	0.020139	0.061247	0.000063
C172	C	0.520139	0.561247	0.500063
C173	C	0.045346	0.061499	-0.045160
C174	C	0.545346	0.561499	0.454840
C175	C	-0.030275	0.060734	0.000064
C176	C	0.469725	0.560734	0.500064
C177	C	-0.055483	0.060482	0.045286
C178	C	0.444517	0.560482	0.545286
C179	C	-0.030275	0.060745	0.090507
C180	C	0.469725	0.560745	0.590507
C181	C	0.020136	0.061263	0.090505
C182	C	0.520136	0.561263	0.590505
C183	C	0.020139	0.061237	-0.090381
C184	C	0.520139	0.561237	0.409619
C185	C	-0.030272	0.060719	-0.090375
C186	C	0.469728	0.560719	0.409625
C187	C	-0.055479	0.060468	-0.045153
C188	C	0.444521	0.560468	0.454847
C189	C	0.658949	0.057571	0.000067
C190	C	1.158949	0.557571	0.500067
C191	C	0.712605	0.058114	0.000070
C192	C	1.212605	0.558114	0.500070
C193	C	0.566353	0.150182	0.000045
C194	C	1.066353	0.650182	0.500045
C195	C	0.566906	0.203837	0.000037
C196	C	1.066906	0.703837	0.500037
N197	N	0.570524	0.061795	0.129304
N198	N	1.070524	0.561795	0.629304
N199	N	0.570565	0.061756	-0.129190
N200	N	1.070565	0.561756	0.370810
C201	C	0.603656	0.028664	0.473939
C202	C	1.103656	0.528664	0.973939
C203	C	0.603668	0.028656	0.682816
C204	C	1.103668	0.528656	1.182816
O205	O	0.631818	0.000490	0.709827
O206	O	1.131818	0.500490	1.209827
N207	N	0.570555	0.061759	0.708931
N208	N	1.070555	0.561759	1.208931
C209	C	0.537434	0.094864	0.682824
C210	C	1.037434	0.594864	1.182824
O211	O	0.509266	0.123017	0.709829
O212	O	1.009266	0.623017	1.209829
C213	C	0.537420	0.094869	0.473947
C214	C	1.037420	0.594869	0.973947
C215	C	0.570539	0.061767	0.447835
C216	C	1.070539	0.561767	0.947835
C217	C	0.636772	-0.004436	0.447826
C218	C	1.136772	0.495564	0.947826
C219	C	0.636771	-0.004432	0.395610
C220	C	1.136771	0.495568	0.895610
C221	C	0.603653	0.028672	0.369506
C222	C	1.103653	0.528672	0.869506
C223	C	0.570538	0.061771	0.395618
C224	C	1.070538	0.561771	0.895618
C225	C	0.504298	0.127972	0.447841
C226	C	1.004298	0.627972	0.947841
C227	C	0.504297	0.127969	0.395618
C228	C	1.004297	0.627969	0.895618
C229	C	0.537415	0.094867	0.369506
C230	C	1.037415	0.594867	0.869506
C231	C	0.537419	0.094879	0.317298
C232	C	1.037419	0.594879	0.817298
N233	N	0.570532	0.061776	0.291183
N234	N	1.070532	0.561776	0.791183
C235	C	0.603650	0.028672	0.317287
C236	C	1.103650	0.528672	0.817287
C237	C	0.537444	0.094860	0.792487
C238	C	1.037444	0.594860	1.292487
C239	C	0.537448	0.094860	0.844706
C240	C	1.037448	0.594860	1.344706
C241	C	0.603681	0.028651	0.844695
C242	C	1.103681	0.528651	1.344695
C243	C	0.603679	0.028654	0.792475
C244	C	1.103679	0.528654	1.292475
C245	C	0.570557	0.061757	0.766372
C246	C	1.070557	0.561757	1.266372
C247	C	0.603644	0.028683	0.207629
C248	C	1.103644	0.528683	0.707629
C249	C	0.603641	0.028692	0.155408
C250	C	1.103641	0.528692	0.655408
C251	C	0.537406	0.094898	0.155424
C252	C	1.037406	0.594898	0.655424
C253	C	0.537411	0.094892	0.207640
C254	C	1.037411	0.594892	0.707640
C255	C	0.570532	0.061781	0.233742
C256	C	1.070532	0.561781	0.733742
O257	O	0.509280	0.123027	0.290255
O258	O	1.009280	0.623027	0.790255
O259	O	0.631806	0.000517	0.290273
O260	O	1.131806	0.500517	0.790273
C261	C	0.603658	0.028660	0.526155
C262	C	1.103658	0.528660	1.026155
C263	C	0.570542	0.061759	0.552267
C264	C	1.070542	0.561759	1.052267
C265	C	0.537425	0.094863	0.526163
C266	C	1.037425	0.594863	1.026163
C267	C	0.570546	0.061759	0.604486
C268	C	1.070546	0.561759	1.104486
C269	C	0.603663	0.028655	0.630590
C270	C	1.103663	0.528655	1.130590
C271	C	0.636776	-0.004448	0.604475
C272	C	1.136776	0.495552	1.104475
C273	C	0.636775	-0.004444	0.552259
C274	C	1.136775	0.495556	1.052259
C275	C	0.504312	0.127966	0.552279
C276	C	1.004312	0.627966	1.052279
C277	C	0.504316	0.127960	0.604495
C278	C	1.004316	0.627960	1.104495
C279	C	0.537433	0.094856	0.630599
C280	C	1.037433	0.594856	1.130599
H281	H	0.654110	-0.096023	0.000087
H282	H	1.154110	0.403977	0.500087
H283	H	0.694301	-0.485260	0.000060
H284	H	1.194301	0.014740	0.500060
O285	O	0.701761	-0.430441	0.000133
O286	O	1.201761	0.069559	0.500133
C287	C	0.704104	-0.459957	0.043106
C288	C	1.204104	0.040043	0.543106
H289	H	0.665753	-0.462226	0.057423
H290	H	1.165753	0.037774	0.557423
H291	H	0.722409	-0.497986	0.033448
H292	H	1.222409	0.002014	0.533448
H293	H	0.726044	-0.443529	0.073196
H294	H	1.226044	0.056471	0.573196
H295	H	0.693365	-0.576720	0.000054
H296	H	1.193365	-0.076720	0.500054
H297	H	0.653186	-0.187475	0.000070
H298	H	1.153186	0.312525	0.500070
H299	H	-0.050808	0.060542	0.127329
H300	H	0.449192	0.560542	0.627329
O301	O	0.668880	-0.036642	0.473201
O302	O	1.168880	0.463358	0.973201
C303	C	0.643230	-0.066280	0.503421
C304	C	1.143230	0.433720	1.003421
H305	H	0.605111	-0.066829	0.487697
H306	H	1.105111	0.433171	0.987697
H307	H	0.663244	-0.104841	0.504003
H308	H	1.163244	0.395159	1.004003
H309	H	0.640592	-0.051140	0.542999
H310	H	1.140592	0.448860	1.042999
O311	O	0.702816	-0.331043	-0.000018
O312	O	1.202816	0.168957	0.499982
C313	C	0.729515	-0.347085	-0.042975
C314	C	1.229515	0.152915	0.457025
H315	H	0.703582	-0.357372	-0.073007
H316	H	1.203582	0.142628	0.426993
H317	H	0.749856	-0.316700	-0.057395
H318	H	1.249856	0.183300	0.442605
H319	H	0.756695	-0.380153	-0.033259
H320	H	1.256695	0.119847	0.466741
H321	H	0.493226	-0.165375	0.000066
H322	H	0.993226	0.334625	0.500066
H323	H	0.630647	0.001700	0.771217
H324	H	1.130647	0.501700	1.271217
O325	O	0.472123	0.160173	0.527003
O326	O	0.972123	0.660173	1.027003
C327	C	0.442892	0.189377	0.561256
C328	C	0.942892	0.689377	1.061256
H329	H	0.462710	0.189773	0.598476
H330	H	0.962710	0.689773	1.098476
H331	H	0.435228	0.228037	0.546177
H332	H	0.935228	0.728037	1.046177
H333	H	0.407101	0.173937	0.566812
H334	H	0.907101	0.673937	1.066812
H335	H	0.447722	-0.299716	0.000018
H336	H	0.947722	0.200284	0.500018
O337	O	0.654872	-0.708150	0.000029
O338	O	1.154872	-0.208150	0.500029
C339	C	0.693438	-0.746592	0.000048
C340	C	1.193438	-0.246592	0.500048
H341	H	0.680147	-0.780742	-0.015657
H342	H	1.180147	-0.280742	0.484343
H343	H	0.724421	-0.736294	-0.024036
H344	H	1.224421	-0.236294	0.475964
H345	H	0.706931	-0.753827	0.039849
H346	H	1.206931	-0.253827	0.539849
H347	H	0.646929	-0.802541	0.000047
H348	H	1.146929	-0.302541	0.500047
H349	H	0.423802	0.065383	-0.082003
H350	H	0.923802	0.565383	0.417997
H351	H	0.040658	0.061440	-0.127207
H352	H	0.540658	0.561440	0.372793
H353	H	0.663744	-0.031400	0.625737
H354	H	1.163744	0.468600	1.125737
H355	H	0.332342	0.064467	0.082099
H356	H	0.832342	0.564467	0.582099
O357	O	-0.054675	0.060440	-0.134354
O358	O	0.445325	0.560440	0.365646
C359	C	-0.021611	0.060784	-0.174265
C360	C	0.478389	0.560784	0.325735
H361	H	0.016442	0.045849	-0.161000
H362	H	0.516442	0.545849	0.339000
H363	H	-0.032922	0.037149	-0.205888
H364	H	0.467078	0.537149	0.294112
H365	H	-0.021616	0.099631	-0.188179
H366	H	0.478384	0.599631	0.311821
O367	O	0.487316	-0.068923	0.000037
O368	O	0.987316	0.431077	0.500037
C369	C	0.497281	-0.020330	0.000053
C370	C	0.997281	0.479670	0.500053
H371	H	0.535240	-0.018687	-0.015644
H372	H	1.035240	0.481313	0.484356
H373	H	0.469333	0.002725	-0.024039
H374	H	0.969333	0.502725	0.475961
H375	H	0.495328	-0.005734	0.039852
H376	H	0.995328	0.494266	0.539852
H377	H	0.487905	-0.688970	0.000025
H378	H	0.987905	-0.188970	0.500025
O379	O	0.438250	-0.545339	-0.000007
O380	O	0.938250	-0.045339	0.499993
C381	C	0.399684	-0.506897	0.000001
C382	C	0.899684	-0.006897	0.500001
H383	H	0.412981	-0.472746	-0.015696
H384	H	0.912981	0.027254	0.484304
H385	H	0.368711	-0.517194	-0.024094
H386	H	0.868711	-0.017194	0.475906
H387	H	0.386174	-0.499665	0.039798
H388	H	0.886174	0.000335	0.539798
O389	O	0.328329	0.064339	-0.089077
O390	O	0.828329	0.564339	0.410923
C391	C	0.304975	0.022150	-0.091785
C392	C	0.804975	0.522150	0.408215
H393	H	0.299350	0.008115	-0.052520
H394	H	0.799350	0.508115	0.447480
H395	H	0.268223	0.031200	-0.110929
H396	H	0.768223	0.531200	0.389071
H397	H	0.328467	-0.006978	-0.114096
H398	H	0.828467	0.493022	0.385904
H399	H	0.630612	0.001736	0.134149
H400	H	1.130612	0.501736	0.634149
O401	O	0.479969	-0.783346	0.000006
O402	O	0.979969	-0.283346	0.500006
C403	C	0.441403	-0.744904	0.000013
C404	C	0.941403	-0.244904	0.500013
H405	H	0.454699	-0.710755	-0.015690
H406	H	0.954699	-0.210755	0.484310
H407	H	0.410428	-0.755204	-0.024078
H408	H	0.910428	-0.255204	0.475922
H409	H	0.427896	-0.737667	0.039811
H410	H	0.927896	-0.237667	0.539811
O411	O	0.195838	0.063105	-0.134334
O412	O	0.695838	0.563105	0.365666
C413	C	0.177716	0.104849	-0.161856
C414	C	0.677716	0.604849	0.338144
H415	H	0.159807	0.133982	-0.135399
H416	H	0.659807	0.633982	0.364601
H417	H	0.208924	0.119245	-0.182374
H418	H	0.708924	0.619245	0.317626
H419	H	0.149762	0.095075	-0.190050
H420	H	0.649762	0.595075	0.309950
H421	H	0.100456	0.062045	-0.127217
H422	H	0.600456	0.562045	0.372783
O423	O	0.439836	-0.394197	0.000100
O424	O	0.939836	0.105803	0.500100
C425	C	0.436886	-0.423007	0.043054
C426	C	0.936886	0.076993	0.543054
H427	H	0.462046	-0.411279	0.073095
H428	H	0.962046	0.088721	0.573095
H429	H	0.397887	-0.418184	0.057463
H430	H	0.897887	0.081816	0.557463
H431	H	0.448337	-0.462852	0.033340
H432	H	0.948337	0.037148	0.533340
H433	H	0.477348	0.154919	0.625752
H434	H	0.977348	0.654919	1.125752
O435	O	-0.286702	0.058197	-0.089070
O436	O	0.213298	0.558197	0.410930
C437	C	-0.321663	0.099773	-0.091781
C438	C	0.178337	0.599773	0.408219
H439	H	-0.310522	0.129204	-0.066122
H440	H	0.189478	0.629204	0.433878
H441	H	-0.324172	0.113819	-0.131781
H442	H	0.175828	0.613819	0.368219
H443	H	-0.358563	0.089916	-0.079634
H444	H	0.141437	0.589916	0.420366
O445	O	0.427684	0.065426	0.089240
O446	O	0.927684	0.565426	0.589240
C447	C	0.394619	0.065103	0.129153
C448	C	0.894619	0.565103	0.629153
H449	H	0.360802	0.049423	0.115896
H450	H	0.860802	0.549423	0.615896
H451	H	0.412430	0.041779	0.160785
H452	H	0.912430	0.541779	0.660785
H453	H	0.383890	0.103844	0.143052
H454	H	0.883890	0.603844	0.643052
O455	O	0.439316	-0.446026	-0.000063
O456	O	0.939316	0.053974	0.499937
C457	C	0.436979	-0.416486	-0.043019
C458	C	0.936979	0.083514	0.456981
H459	H	0.461845	-0.435129	-0.073050
H460	H	0.961845	0.064871	0.426950
H461	H	0.397999	-0.410531	-0.057443
H462	H	0.897999	0.089469	0.442557
H463	H	0.449202	-0.379913	-0.033300
H464	H	0.949202	0.120087	0.466700
O465	O	0.195778	0.063049	0.134475
O466	O	0.695778	0.563049	0.634475
C467	C	0.162709	0.062727	0.174384
C468	C	0.662709	0.562727	0.674384
H469	H	0.128891	0.047051	0.161122
H470	H	0.628891	0.547051	0.661122
H471	H	0.180514	0.039401	0.206017
H472	H	0.680514	0.539401	0.706017
H473	H	0.151980	0.101468	0.188285
H474	H	0.651980	0.601468	0.688285
O475	O	0.044626	0.061604	0.134423
O476	O	0.544626	0.561604	0.634423
C477	C	0.068007	0.103776	0.137124
C478	C	0.568007	0.603776	0.637124
H479	H	0.048771	0.132891	0.111457
H480	H	0.548771	0.632891	0.611457
H481	H	0.066627	0.117842	0.177120
H482	H	0.566627	0.617842	0.677120
H483	H	0.107526	0.094696	0.124981
H484	H	0.607526	0.594696	0.624981
H485	H	-0.282721	0.058173	0.082116
H486	H	0.217279	0.558173	0.582116
O487	O	0.096468	0.061968	0.134422
O488	O	0.596468	0.561968	0.634422
C489	C	0.073087	0.019797	0.137140
C490	C	0.573087	0.519797	0.637140
H491	H	0.092320	-0.009325	0.111478
H492	H	0.592320	0.490675	0.611478
H493	H	0.074467	0.005741	0.177140
H494	H	0.574467	0.505741	0.677140
H495	H	0.033567	0.028875	0.125001
H496	H	0.533567	0.528875	0.625001
H497	H	0.663737	-0.031387	0.374352
H498	H	1.163737	0.468613	0.874352
O499	O	-0.187363	0.059126	0.089267
O500	O	0.312637	0.559126	0.589267
C501	C	-0.220431	0.058808	0.129178
C502	C	0.279569	0.558808	0.629178
H503	H	-0.254251	0.043133	0.115919
H504	H	0.245749	0.543133	0.615919
H505	H	-0.202625	0.035483	0.160811
H506	H	0.297375	0.535483	0.660811
H507	H	-0.231156	0.097550	0.143078
H508	H	0.268844	0.597550	0.643078
H509	H	0.630614	0.001720	0.228875
H510	H	1.130614	0.501720	0.728875
O511	O	0.635803	-0.003490	0.870134
O512	O	1.135803	0.496510	1.370134
C513	C	0.628708	0.003620	0.921822
C514	C	1.128708	0.503620	1.421822
H515	H	0.590144	0.021966	0.928952
H516	H	1.090144	0.521966	1.428952
H517	H	0.634354	-0.033025	0.941671
H518	H	1.134354	0.466975	1.441671
H519	H	0.655889	0.027668	0.936640
H520	H	1.155889	0.527668	1.436640
O521	O	0.505213	0.126971	0.870046
O522	O	1.005213	0.626971	1.370046
C523	C	0.457423	0.119457	0.857278
C524	C	0.957423	0.619457	1.357278
H525	H	0.457480	0.080755	0.842926
H526	H	0.957480	0.580755	1.342926
H527	H	0.433121	0.125190	0.891619
H528	H	0.933121	0.625190	1.391619
H529	H	0.443024	0.146349	0.826966
H530	H	0.943024	0.646349	1.326966
O531	O	-0.187369	0.059142	-0.089133
O532	O	0.312631	0.559142	0.410867
C533	C	-0.220433	0.058789	-0.129041
C534	C	0.279567	0.558789	0.370959
H535	H	-0.258485	0.073734	-0.115777
H536	H	0.241515	0.573734	0.384223
H537	H	-0.209117	0.082412	-0.160675
H538	H	0.290883	0.582412	0.339325
H539	H	-0.220432	0.019939	-0.142940
H540	H	0.279568	0.519939	0.357060
H541	H	0.510471	0.121818	0.771238
H542	H	1.010471	0.621818	1.271238
O543	O	0.472078	0.160145	0.473121
O544	O	0.972078	0.660145	0.973121
C545	C	0.442858	0.189364	0.438873
C546	C	0.942858	0.689364	0.938873
H547	H	0.442468	0.169545	0.401651
H548	H	0.942468	0.669545	0.901651
H549	H	0.404198	0.197010	0.453957
H550	H	0.904198	0.697010	0.953957
H551	H	0.458280	0.225165	0.433316
H552	H	0.958280	0.725165	0.933316
O553	O	0.472188	0.160148	0.370207
O554	O	0.972188	0.660148	0.870207
C555	C	0.497847	0.189800	0.340012
C556	C	0.997847	0.689800	0.840012
H557	H	0.535816	0.170282	0.332182
H558	H	1.035816	0.670282	0.832182
H559	H	0.477610	0.197594	0.303294
H560	H	0.977610	0.697594	0.803294
H561	H	0.500862	0.225501	0.360140
H562	H	1.000862	0.725501	0.860140
O563	O	0.505193	0.127065	0.232932
O564	O	1.005193	0.627065	0.732932
C565	C	0.475972	0.156292	0.198691
C566	C	0.975972	0.656292	0.698691
H567	H	0.475582	0.136482	0.161464
H568	H	0.975582	0.636482	0.661464
H569	H	0.437312	0.163932	0.213777
H570	H	0.937312	0.663932	0.713777
H571	H	0.491392	0.192095	0.193145
H572	H	0.991392	0.692095	0.693145
O573	O	0.505255	0.127005	0.129984
O574	O	1.005255	0.627005	0.629984
C575	C	0.512365	0.119912	0.078296
C576	C	1.012365	0.619912	0.578296
H577	H	0.530726	0.081354	0.071167
H578	H	1.030726	0.581354	0.571167
H579	H	0.475719	0.125542	0.058451
H580	H	0.975719	0.625542	0.558451
H581	H	0.536399	0.147105	0.063474
H582	H	1.036399	0.647105	0.563474
O583	O	0.668963	-0.036648	0.526974
O584	O	1.168963	0.463352	1.026974
C585	C	0.698197	-0.065855	0.561221
C586	C	1.198197	0.434145	1.061221
H587	H	0.678381	-0.066256	0.598444
H588	H	1.178381	0.433744	1.098444
H589	H	0.705862	-0.104513	0.546137
H590	H	1.205862	0.395487	1.046137
H591	H	0.733987	-0.050413	0.566773
H592	H	1.233987	0.449587	1.066773
