data_functionalizedCrystal
_audit_creation_method	'MofGen! by Chris Wilmer'
_symmetry_space_group_name_H-M	'P1'
_symmetry_Int_Tables_number	1
_symmetry_cell_setting	triclinic
loop_
_symmetry_equiv_pos_as_xyz
  x,y,z
_cell_length_a	14.560438
_cell_length_b	20.875641
_cell_length_c	20.875641
_cell_angle_alpha	89.846015
_cell_angle_beta	57.589020
_cell_angle_gamma	57.591306
loop_
_atom_site_label
_atom_site_type_symbol
_atom_site_fract_x
_atom_site_fract_y
_atom_site_fract_z
Zr1	Zr	0.944750	-0.063042	0.639072
O2	O	1.159581	-0.173572	0.528536
O3	O	0.746028	-0.029160	0.672957
O4	O	0.952805	-0.168277	0.667655
O5	O	0.940833	0.075285	0.538020
O6	O	0.940834	-0.164099	0.777395
O7	O	0.952804	-0.034454	0.533838
O8	O	0.570948	0.084757	0.786879
O9	O	1.310720	-0.173570	0.528535
O10	O	0.812866	-0.011590	0.769306
O11	O	0.812865	0.067190	0.690530
O12	O	1.056319	-0.096603	0.684287
O13	O	1.056318	-0.017824	0.605511
Zr14	Zr	0.906567	0.118644	0.820764
Zr15	Zr	0.925659	-0.056378	0.814094
Zr16	Zr	0.925658	0.111980	0.645742
Zr17	Zr	1.185799	-0.063039	0.639071
Zr18	Zr	0.665518	0.118642	0.820764
O19	O	1.105289	0.084762	0.786878
O20	O	1.132436	-0.164097	0.777395
O21	O	1.132435	0.075287	0.538020
O22	O	0.691736	0.229174	0.931300
O23	O	0.718882	-0.019685	0.921816
O24	O	0.718881	0.219699	0.682441
O25	O	0.910484	-0.019683	0.921816
O26	O	0.898512	0.223879	0.792181
O27	O	0.910483	0.219701	0.682441
O28	O	0.898513	0.090057	0.925998
O29	O	1.295545	-0.168273	0.667655
O30	O	0.555772	0.223876	0.792181
O31	O	0.540597	0.229172	0.931300
O32	O	0.555773	0.090053	0.925999
O33	O	1.295544	-0.034451	0.533837
O34	O	1.280369	-0.029154	0.672956
O35	O	0.794998	0.152205	0.775548
O36	O	0.794999	0.073426	0.854325
O37	O	1.038452	-0.011587	0.769306
O38	O	1.038451	0.067192	0.690529
C39	C	0.624144	0.027798	0.729918
C40	C	0.521812	0.027797	0.729918
C41	C	0.949539	0.019466	0.510992
C42	C	0.957644	0.016637	0.436690
C43	C	0.901777	0.246727	0.738261
C44	C	0.893672	0.321028	0.741093
C45	C	0.473738	-0.013326	0.771036
C46	C	0.377580	-0.013320	0.771038
C47	C	0.377582	0.068934	0.688799
C48	C	0.473731	0.068932	0.688802
C49	C	0.521820	-0.054462	0.812152
C50	C	0.473747	-0.095589	0.853272
C51	C	0.377588	-0.095583	0.853275
C52	C	0.329503	-0.054449	0.812157
C53	C	1.227173	0.027804	0.729917
C54	C	1.329505	0.027805	0.729917
C55	C	0.949540	-0.191125	0.721575
C56	C	0.957645	-0.265426	0.718743
C57	C	1.016941	0.311561	0.698046
C58	C	1.009318	0.381378	0.700703
C59	C	0.878424	0.460661	0.746412
C60	C	0.755146	0.470126	0.789461
C61	C	0.762771	0.400310	0.786798
C62	C	0.841992	0.674223	0.759129
C63	C	0.834376	0.744041	0.761790
C64	C	1.088549	0.655288	0.673031
C65	C	1.096162	0.585474	0.670376
C66	C	0.972885	0.594945	0.713421
N67	N	0.870628	0.532026	0.749131
N68	N	0.980682	0.523581	0.710697
C69	C	0.834375	0.059680	0.446160
C70	C	0.841999	0.057020	0.376343
C71	C	0.972893	0.011312	0.297057
C72	C	1.096171	-0.031732	0.287589
C73	C	1.088545	-0.029067	0.357405
C74	C	1.009325	-0.001413	0.083494
C75	C	1.016942	-0.004077	0.013676
C76	C	0.762769	0.084676	0.102435
C77	C	0.755155	0.087333	0.172248
C78	C	0.878432	0.044293	0.162775
N79	N	0.980689	0.008590	0.225692
N80	N	0.870635	0.047020	0.234139
C81	C	0.901778	0.036137	0.948844
C82	C	0.893673	0.038965	1.023145
C83	C	0.600263	0.036133	0.948844
C84	C	0.489827	0.038961	1.023146
C85	C	0.600262	0.246724	0.738262
C86	C	0.489826	0.321024	0.741093
C87	C	0.576382	0.255059	0.957187
C88	C	0.457840	0.332188	1.034321
C89	C	1.274935	-0.199457	0.502648
C90	C	1.393477	-0.276586	0.425515
C91	C	1.251054	0.019469	0.510991
C92	C	1.361490	0.016641	0.436690
C93	C	1.251055	-0.191121	0.721574
C94	C	1.361491	-0.265422	0.718742
C95	C	0.447292	-0.004095	1.013660
C96	C	0.343541	-0.001455	1.083467
C97	C	0.282320	0.044247	1.162759
C98	C	0.324864	0.087305	1.172244
C99	C	0.428620	0.084660	1.102438
C100	C	0.428636	0.400301	0.786802
C101	C	0.324883	0.470121	0.789460
C102	C	0.282313	0.460662	0.746413
C103	C	0.343514	0.381377	0.700699
C104	C	0.447272	0.311559	0.698037
C105	C	0.402171	0.327287	1.111671
C106	C	0.290803	0.399752	1.184152
C107	C	0.235098	0.477117	1.179282
C108	C	0.290778	0.482016	1.101923
C109	C	0.402151	0.409552	1.029443
C110	C	1.449157	-0.271685	0.348165
C111	C	1.560556	-0.344150	0.275683
C112	C	1.616265	-0.421515	0.280554
C113	C	1.560580	-0.426414	0.357913
C114	C	1.449190	-0.353950	0.430392
C115	C	1.404036	0.059690	0.446176
C116	C	1.507815	0.057031	0.376368
C117	C	1.569040	0.011326	0.297075
C118	C	1.526491	-0.031729	0.287591
C119	C	1.422720	-0.029073	0.357397
C120	C	1.404026	-0.255936	0.761799
C121	C	1.507778	-0.325742	0.759154
C122	C	1.569000	-0.405033	0.713448
C123	C	1.526455	-0.414516	0.670391
C124	C	1.422698	-0.344711	0.673041
H125	H	0.600120	-0.054473	0.812153
F126	F	0.512379	0.227188	0.649389
F127	F	1.734817	-0.498631	0.203407
H128	H	1.188915	0.647586	0.637985
F129	F	0.171892	0.047057	1.237047
F130	F	1.619883	-0.508758	0.363084
H131	H	0.512894	-0.129073	0.886755
H132	H	0.245407	0.545016	1.097969
H133	H	0.741611	0.681946	0.794182
H134	H	0.648570	0.534685	0.826674
H135	H	1.576356	-0.068941	0.223021
F136	F	1.338887	-0.171556	0.810448
H137	H	0.275064	0.534671	0.826689
F138	F	0.631571	0.410389	0.832613
H139	H	1.653484	-0.461866	0.711297
F140	F	1.619797	-0.338918	0.193361
F141	F	1.389934	-0.359178	0.512712
F142	F	1.591634	-0.498910	0.621744
F143	F	0.326423	-0.139349	0.897041
H144	H	0.308838	0.373687	0.665652
F145	F	1.377445	-0.074890	0.347289
H146	H	0.197825	0.517519	0.748588
H147	H	1.109708	-0.036475	0.075768
F148	F	0.524898	0.112700	0.645040
H149	H	0.447463	0.413554	0.966464
F150	F	0.695059	0.108324	0.530540
H151	H	0.497139	-0.041321	0.949101
H152	H	0.463283	0.408018	0.821857
H153	H	0.308916	-0.036518	1.075728
H154	H	0.275003	0.124515	1.236813
H155	H	1.188923	-0.064107	0.349690
H156	H	1.388079	-0.352446	0.637975
H157	H	0.463238	0.119727	1.110173
F158	F	0.326402	0.112709	0.645042
F159	F	0.461442	0.244957	1.116874
F160	F	0.227149	-0.054437	0.812170
F161	F	1.156257	0.227185	0.649400
H162	H	1.542440	0.092094	0.384107
F163	F	0.231560	0.394521	1.266475
H164	H	0.144411	0.536115	1.238305
H165	H	1.109696	0.373663	0.665650
F166	F	1.235478	0.501097	0.621724
F167	F	0.695052	0.828425	0.810465
H168	H	1.202747	-0.068944	0.223028
F169	F	1.553044	-0.315632	0.804980
F170	F	1.389885	-0.189355	0.342962
H171	H	0.648569	0.124538	0.236803
F172	F	1.679480	0.008508	0.222787
F173	F	0.710798	0.102839	0.386428
F174	F	0.631578	0.130482	0.112510
F175	F	1.338896	0.108336	0.530559
F176	F	1.156265	-0.052735	-0.070711
