data_functionalizedCrystal
_audit_creation_method	'MofGen! by Chris Wilmer'
_symmetry_space_group_name_H-M	'P1'
_symmetry_Int_Tables_number	1
_symmetry_cell_setting	triclinic
loop_
_symmetry_equiv_pos_as_xyz
  x,y,z
_cell_length_a	16.625546
_cell_length_b	12.594517
_cell_length_c	16.625539
_cell_angle_alpha	90.025391
_cell_angle_beta	89.969603
_cell_angle_gamma	89.982595
loop_
_atom_site_label
_atom_site_type_symbol
_atom_site_fract_x
_atom_site_fract_y
_atom_site_fract_z
Zn1	Zn	-0.321109	-1.627215	-0.456001
Zn2	Zn	0.012224	-1.293882	-0.122668
Zn3	Zn	0.345558	-0.960548	0.210665
Zn4	Zn	-0.455952	-1.627087	-0.321164
Zn5	Zn	-0.122619	-1.293754	0.012170
Zn6	Zn	0.210715	-0.960421	0.345503
Zn7	Zn	-0.321125	-1.449220	-0.321171
Zn8	Zn	0.012208	-1.115887	0.012163
Zn9	Zn	0.345541	-0.782554	0.345496
Zn10	Zn	-0.455891	-1.449181	-0.455942
Zn11	Zn	-0.122558	-1.115848	-0.122609
Zn12	Zn	0.210775	-0.782515	0.210725
O13	O	-0.388519	-1.538176	-0.388569
O14	O	-0.055186	-1.204843	-0.055236
O15	O	0.278147	-0.871509	0.278097
O16	O	-0.339015	-1.776144	-0.438137
O17	O	-0.005682	-1.442811	-0.104803
O18	O	0.327652	-1.109477	0.228530
O19	O	-0.438099	-1.603456	-0.208332
O20	O	-0.104766	-1.270122	0.125001
O21	O	0.228567	-0.936789	0.458335
O22	O	-0.208291	-1.472901	-0.339084
O23	O	0.125043	-1.139568	-0.005750
O24	O	0.458376	-0.806235	0.327583
O25	O	-0.438084	-1.776050	-0.339072
O26	O	-0.104750	-1.442717	-0.005739
O27	O	0.228583	-1.109383	0.327595
O28	O	-0.208279	-1.603673	-0.438143
O29	O	0.125055	-1.270340	-0.104810
O30	O	0.458388	-0.937007	0.228523
O31	O	-0.339043	-1.472778	-0.208337
O32	O	-0.005709	-1.139444	0.124996
O33	O	0.327624	-0.806111	0.458330
O34	O	-0.338984	-1.300269	-0.339026
O35	O	-0.005650	-0.966936	-0.005693
O36	O	0.327683	-0.633603	0.327640
O37	O	-0.437980	-1.472835	-0.568782
O38	O	-0.104647	-1.139502	-0.235449
O39	O	0.228687	-0.806168	0.097884
O40	O	-0.437996	-1.300241	-0.438043
O41	O	-0.104663	-0.966907	-0.104709
O42	O	0.228671	-0.633574	0.228624
O43	O	-0.338956	-1.603636	-0.568826
O44	O	-0.005623	-1.270302	-0.235493
O45	O	0.327711	-0.936969	0.097841
O46	O	-0.568777	-1.603418	-0.339015
O47	O	-0.235443	-1.270085	-0.005681
O48	O	0.097890	-0.936751	0.327652
O49	O	-0.568732	-1.472711	-0.438036
O50	O	-0.235399	-1.139378	-0.104702
O51	O	0.097935	-0.806044	0.228631
C52	C	-0.598010	-1.538075	-0.388536
C53	C	-0.264677	-1.204742	-0.055202
C54	C	0.068656	-0.871409	0.278131
C55	C	-0.687631	-1.538129	-0.388548
C56	C	-0.354298	-1.204796	-0.055215
C57	C	-0.020965	-0.871463	0.278119
C58	C	-0.388486	-1.261635	-0.388529
C59	C	-0.055152	-0.928302	-0.055196
C60	C	0.278181	-0.594968	0.278137
C61	C	-0.388490	-1.143330	-0.388531
C62	C	-0.055157	-0.809996	-0.055198
C63	C	0.278176	-0.476663	0.278135
C64	C	-1.015807	-1.538315	-0.388632
C65	C	-0.682474	-1.204982	-0.055299
C66	C	-0.349140	-0.871649	0.278035
C67	C	-0.924499	-1.538260	-0.388611
C68	C	-0.591165	-1.204927	-0.055278
C69	C	-0.257832	-0.871593	0.278056
C70	C	-0.851722	-1.538221	-0.388590
C71	C	-0.518389	-1.204888	-0.055256
C72	C	-0.185055	-0.871555	0.278077
C73	C	-0.760408	-1.538168	-0.388569
C74	C	-0.427075	-1.204835	-0.055236
C75	C	-0.093741	-0.871501	0.278097
C76	C	-0.334560	-1.074061	-0.334775
C77	C	-0.001226	-0.740728	-0.001442
C78	C	0.332107	-0.407394	0.331892
C79	C	-0.408103	-1.003239	-0.314932
C80	C	-0.074770	-0.669906	0.018401
C81	C	0.258564	-0.336573	0.351735
C82	C	-0.314970	-1.003352	-0.408375
C83	C	0.018363	-0.670019	-0.075042
C84	C	0.351697	-0.336686	0.258291
C85	C	-0.462072	-1.074066	-0.368650
C86	C	-0.128739	-0.740733	-0.035316
C87	C	0.204594	-0.407399	0.298017
C88	C	-0.368890	-1.074185	-0.462128
C89	C	-0.035556	-0.740852	-0.128794
C90	C	0.297777	-0.407518	0.204539
C91	C	-0.442484	-1.003395	-0.442312
C92	C	-0.109150	-0.670062	-0.108979
C93	C	0.224183	-0.336729	0.224354
C94	C	-0.178211	-1.538306	-0.388621
C95	C	0.155123	-1.204973	-0.055288
C96	C	0.488456	-0.871639	0.278046
C97	C	-0.088589	-1.538362	-0.388643
C98	C	0.244744	-1.205028	-0.055310
C99	C	0.578077	-0.871695	0.278024
C100	C	-0.388459	-1.538245	-0.598878
C101	C	-0.055126	-1.204912	-0.265545
C102	C	0.278207	-0.871578	0.067788
C103	C	-0.388434	-1.538275	-0.688500
C104	C	-0.055101	-1.204941	-0.355166
C105	C	0.278233	-0.871608	-0.021833
C106	C	-0.388538	-0.815797	-0.388595
C107	C	-0.055205	-0.482463	-0.055262
C108	C	0.278129	-0.149130	0.278071
C109	C	-0.388505	-0.934102	-0.388568
C110	C	-0.055171	-0.600769	-0.055235
C111	C	0.278162	-0.267436	0.278098
C112	C	-0.388344	-1.538324	-1.016675
C113	C	-0.055010	-1.204990	-0.683342
C114	C	0.278323	-0.871657	-0.350009
C115	C	-0.388371	-1.538307	-0.925367
C116	C	-0.055038	-1.204974	-0.592034
C117	C	0.278295	-0.871640	-0.258700
C118	C	-0.388389	-1.538300	-0.852590
C119	C	-0.055056	-1.204966	-0.519257
C120	C	0.278277	-0.871633	-0.185924
C121	C	-0.388416	-1.538282	-0.761276
C122	C	-0.055082	-1.204949	-0.427943
C123	C	0.278251	-0.871615	-0.094609
C124	C	-0.388521	-1.538168	-0.179079
C125	C	-0.055188	-1.204835	0.154255
C126	C	0.278146	-0.871502	0.487588
C127	C	-0.388320	-1.538345	-0.089458
C128	C	-0.054986	-1.205012	0.243875
C129	C	0.278347	-0.871678	0.577209
H130	H	-0.289003	-1.105089	-0.289264
H131	H	0.044331	-0.771756	0.044069
H132	H	0.377664	-0.438423	0.377402
Br133	Br	-0.341205	-1.126162	-0.565810
Br134	Br	-0.007871	-0.792828	-0.232477
Br135	Br	0.325462	-0.459495	0.100856
Br136	Br	-0.435757	-0.951301	-0.211224
Br137	Br	-0.102424	-0.617968	0.122109
Br138	Br	0.230910	-0.284634	0.455442
Br139	Br	-0.211334	-0.951567	-0.436322
Br140	Br	0.122000	-0.618234	-0.102989
Br141	Br	0.455333	-0.284900	0.230344
H142	H	-0.524272	-1.104999	-0.351812
H143	H	-0.190939	-0.771665	-0.018479
H144	H	0.142395	-0.438332	0.314855
Br145	Br	-0.518592	-0.952001	-0.518111
Br146	Br	-0.185258	-0.618668	-0.184778
Br147	Br	0.148075	-0.285334	0.148555
