data_functionalizedCrystal
_audit_creation_method	'MofGen! by Chris Wilmer'
_symmetry_space_group_name_H-M	'P1'
_symmetry_Int_Tables_number	1
_symmetry_cell_setting	triclinic
loop_
_symmetry_equiv_pos_as_xyz
  x,y,z
_cell_length_a	14.044220
_cell_length_b	14.044190
_cell_length_c	13.101039
_cell_angle_alpha	93.663707
_cell_angle_beta	86.340132
_cell_angle_gamma	93.190328
loop_
_atom_site_label
_atom_site_type_symbol
_atom_site_fract_x
_atom_site_fract_y
_atom_site_fract_z
O1	O	1.281975	0.225348	-0.085126
O2	O	1.615308	0.558681	0.248208
O3	O	1.948642	0.892015	0.581541
O4	O	1.005305	0.217041	-0.085151
O5	O	1.338638	0.550374	0.248183
O6	O	1.671972	0.883708	0.581516
O7	O	1.139483	0.082859	-0.085118
O8	O	1.472816	0.416193	0.248215
O9	O	1.806149	0.749526	0.581548
O10	O	1.147797	0.359530	-0.085158
O11	O	1.481131	0.692863	0.248175
O12	O	1.814464	1.026196	0.581509
O13	O	1.129857	0.092504	0.085309
O14	O	1.463190	0.425838	0.418643
O15	O	1.796524	0.759171	0.751976
O16	O	0.995679	0.226686	0.085277
O17	O	1.329013	0.560019	0.418610
O18	O	1.662346	0.893352	0.751944
O19	O	1.272349	0.234993	0.085302
O20	O	1.605683	0.568326	0.418635
O21	O	1.939016	0.901660	0.751969
Zn22	Zn	1.132486	0.232371	0.112348
Zn23	Zn	1.465819	0.565704	0.445682
Zn24	Zn	1.799153	0.899037	0.779015
Zn25	Zn	1.145168	0.219663	-0.112197
Zn26	Zn	1.478502	0.552997	0.221136
Zn27	Zn	1.811835	0.886330	0.554470
O28	O	1.138172	0.369174	0.085270
O29	O	1.471505	0.702508	0.418603
O30	O	1.804838	1.035841	0.751936
C31	C	0.964870	0.218228	0.000060
C32	C	1.298204	0.551561	0.333393
C33	C	1.631537	0.884894	0.666727
C34	C	0.858728	0.207382	0.000051
C35	C	1.192061	0.540716	0.333385
C36	C	1.525394	0.874049	0.666718
C37	C	0.664388	0.187557	0.000075
C38	C	0.997722	0.520891	0.333408
C39	C	1.331055	0.854224	0.666741
C40	C	0.613261	0.264472	0.000068
C41	C	0.946594	0.597805	0.333401
C42	C	1.279927	0.931138	0.666735
C43	C	0.505123	0.253441	0.000081
C44	C	0.838457	0.586774	0.333414
C45	C	1.171790	0.920107	0.666747
C46	C	0.772535	0.198587	0.000062
C47	C	1.105869	0.531920	0.333395
C48	C	1.439202	0.865254	0.666728
C49	C	1.131033	0.052060	0.000098
C50	C	1.464366	0.385393	0.333431
C51	C	1.797700	0.718727	0.666765
C52	C	1.120185	-0.054083	0.000106
C53	C	1.453519	0.279251	0.333439
C54	C	1.786852	0.612584	0.666773
C55	C	1.177288	-0.299543	0.000071
C56	C	1.510621	0.033790	0.333404
C57	C	1.843954	0.367124	0.666738
C58	C	1.100371	-0.248418	0.000071
C59	C	1.433705	0.084916	0.333405
C60	C	1.767038	0.418249	0.666738
C61	C	1.111398	-0.140280	0.000091
C62	C	1.444732	0.193054	0.333424
C63	C	1.778065	0.526387	0.666757
C64	C	1.166262	-0.407691	0.000052
C65	C	1.499595	-0.074358	0.333385
C66	C	1.832929	0.258976	0.666718
C67	C	1.312784	0.233806	0.000089
C68	C	1.646118	0.567140	0.333422
C69	C	1.979451	0.900473	0.666756
C70	C	1.418927	0.244651	0.000091
C71	C	1.752260	0.577984	0.333424
C72	C	2.085594	0.911318	0.666758
C73	C	1.146621	0.399974	0.000051
C74	C	1.479955	0.733307	0.333384
C75	C	1.813288	1.066640	0.666718
C76	C	1.157470	0.506116	0.000036
C77	C	1.490803	0.839449	0.333370
C78	C	1.824136	1.172783	0.666703
N79	N	1.123838	0.241043	0.265595
N80	N	1.457171	0.574376	0.598928
N81	N	1.790504	0.907710	0.932262
N82	N	1.153824	0.210984	-0.265444
N83	N	1.487157	0.544317	0.067890
N84	N	1.820490	0.877651	0.401223
C85	C	1.112072	0.252851	0.474635
C86	C	1.445405	0.586184	0.807968
C87	C	1.778739	0.919518	1.141301
C88	C	1.165586	0.199179	0.525523
C89	C	1.498920	0.532512	0.858857
C90	C	1.832253	0.865845	1.192190
C91	C	1.159040	0.205749	0.641840
C92	C	1.492373	0.539082	0.975173
C93	C	1.825706	0.872416	1.308507
C94	C	1.118618	0.246282	0.358307
C95	C	1.451951	0.579615	0.691641
C96	C	1.785284	0.912949	1.024974
H97	H	0.650703	0.338605	0.000052
H98	H	0.984036	0.671938	0.333386
H99	H	1.317369	1.005271	0.666719
H100	H	0.626948	0.113431	0.000091
H101	H	0.960282	0.446764	0.333424
H102	H	1.293615	0.780097	0.666757
H103	H	1.026240	-0.285862	0.000059
H104	H	1.359573	0.047472	0.333392
H105	H	1.692906	0.380805	0.666725
O106	O	1.044889	0.320268	0.532625
O107	O	1.378222	0.653601	0.865958
O108	O	1.711555	0.986934	1.199292
H109	H	0.992312	0.278941	0.581527
H110	H	1.325646	0.612274	0.914860
H111	H	1.658979	0.945607	1.248194
O112	O	1.275481	-0.249956	0.000100
O113	O	1.608814	0.083378	0.333433
O114	O	1.942148	0.416711	0.666767
H115	H	1.268840	-0.171570	0.000123
H116	H	1.602173	0.161763	0.333456
H117	H	1.935506	0.495096	0.666789
H118	H	1.216319	0.148295	0.481733
H119	H	1.549652	0.481628	0.815067
H120	H	1.882985	0.814962	1.148400
