data_functionalizedCrystal
_audit_creation_method	'MofGen! by Chris Wilmer'
_symmetry_space_group_name_H-M	'P1'
_symmetry_Int_Tables_number	1
_symmetry_cell_setting	triclinic
loop_
_symmetry_equiv_pos_as_xyz
  x,y,z
_cell_length_a	16.109293
_cell_length_b	16.109301
_cell_length_c	15.186229
_cell_angle_alpha	89.994833
_cell_angle_beta	90.006769
_cell_angle_gamma	96.540124
loop_
_atom_site_label
_atom_site_type_symbol
_atom_site_fract_x
_atom_site_fract_y
_atom_site_fract_z
O1	O	-1.103135	0.106835	-0.073301
O2	O	-0.861072	0.120141	-0.073288
O3	O	-0.988753	-0.007543	-0.073286
O4	O	-0.975454	0.234519	-0.073303
O5	O	-0.988744	-0.007545	0.073172
O6	O	-0.861063	0.120139	0.073169
O7	O	-1.103126	0.106833	0.073156
Zn8	Zn	-0.982093	0.113486	0.096416
Zn9	Zn	-0.982105	0.113488	-0.096548
O10	O	-0.975445	0.234517	0.073154
C11	C	-0.830093	0.119602	-0.000057
C12	C	-0.737797	0.117990	-0.000052
C13	C	-0.988210	-0.038519	-0.000057
C14	C	-0.986595	-0.130814	-0.000055
C15	C	-0.525451	0.114260	0.079779
C16	C	-0.438730	0.112736	0.079779
C17	C	-0.438750	0.112742	-0.079897
C18	C	-0.525469	0.114260	-0.079896
C19	C	-0.568817	0.115024	-0.000055
C20	C	-0.395377	0.111981	-0.000057
C21	C	-0.301351	0.110329	-0.000058
C22	C	-0.662849	0.116675	-0.000053
C23	C	-1.058603	-0.353089	-0.000073
C24	C	-1.057079	-0.439809	-0.000080
C25	C	-0.905589	-0.419930	-0.000069
C26	C	-0.907114	-0.333212	-0.000068
C27	C	-0.983624	-0.299793	-0.000066
C28	C	-0.980575	-0.473232	-0.000074
C29	C	-0.978921	-0.567258	-0.000081
C30	C	-0.985277	-0.205761	-0.000059
C31	C	-0.134104	0.107380	-0.000069
C32	C	-0.226397	0.109015	-0.000060
C33	C	-0.975988	0.265493	-0.000077
C34	C	-0.977603	0.357788	-0.000084
N35	N	-0.982092	0.113484	0.228109
N36	N	-0.982113	0.113484	-0.228240
C37	C	-1.038648	0.056964	0.453833
C38	C	-1.038651	0.056962	0.546022
C39	C	-0.925550	0.170006	0.546030
C40	C	-0.925544	0.170003	0.453842
C41	C	-0.982098	0.113483	0.407745
C42	C	-0.982107	0.113484	0.592123
C43	C	-0.982109	0.113482	0.692079
C44	C	-0.982095	0.113484	0.307783
H45	H	-0.560742	0.114882	0.144791
H46	H	-1.084698	0.010938	0.583544
C47	C	-0.391066	0.111910	-0.167720
C48	C	-0.393540	0.184273	-0.233587
C49	C	-0.345859	0.183443	-0.321412
C50	C	-0.295704	0.110250	-0.343370
C51	C	-0.293228	0.037882	-0.277501
C52	C	-0.340909	0.038712	-0.189676
H53	H	-0.430670	0.238459	-0.217334
H54	H	-0.347693	0.237015	-0.370173
H55	H	-0.260408	0.109635	-0.408384
H56	H	-0.256099	-0.016305	-0.293755
H57	H	-0.339076	-0.014860	-0.140916
H58	H	-0.879507	0.216025	0.583570
H59	H	-0.560780	0.114880	-0.144910
H60	H	-0.403425	0.112115	0.144787
H61	H	-0.846053	-0.289816	-0.000064
C62	C	-0.863336	0.232179	0.403137
C63	C	-0.801159	0.294381	0.453836
C64	C	-0.738952	0.356550	0.403131
C65	C	-0.738921	0.356518	0.301727
C66	C	-0.801100	0.294314	0.251024
C67	C	-0.863308	0.232145	0.301729
H68	H	-0.801180	0.294406	0.528905
H69	H	-0.692923	0.402597	0.440665
H70	H	-0.692872	0.402540	0.264193
H71	H	-0.801079	0.294288	0.175954
H72	H	-0.909336	0.186097	0.264194
H73	H	-0.843298	-0.447150	-0.000069
C74	C	-1.142760	-0.316327	-0.000080
C75	C	-1.205040	-0.336460	0.075962
C76	C	-1.289199	-0.299701	0.075952
C77	C	-1.311079	-0.242808	-0.000099
C78	C	-1.248798	-0.222672	-0.076147
C79	C	-1.164638	-0.259431	-0.076137
H80	H	-1.188844	-0.378578	0.132265
H81	H	-1.335304	-0.314607	0.132248
H82	H	-1.373379	-0.215597	-0.000107
H83	H	-1.264993	-0.180554	-0.132450
H84	H	-1.118534	-0.244525	-0.132433
C85	C	-1.139558	-0.498434	-0.000086
C86	C	-1.223711	-0.461671	-0.000086
C87	C	-1.306193	-0.520296	-0.000093
C88	C	-1.304523	-0.615684	-0.000101
C89	C	-1.220367	-0.652452	-0.000102
C90	C	-1.137884	-0.593827	-0.000094
H91	H	-1.224950	-0.391055	-0.000080
H92	H	-1.368491	-0.493078	-0.000093
H93	H	-1.365582	-0.659082	-0.000107
H94	H	-1.219128	-0.723069	-0.000108
H95	H	-1.075586	-0.621046	-0.000095
C96	C	-1.100849	-0.005212	0.403126
C97	C	-1.163049	-0.067386	0.453827
C98	C	-1.225250	-0.129566	0.403124
C99	C	-1.225251	-0.129574	0.301721
C100	C	-1.163049	-0.067398	0.251015
C101	C	-1.100848	-0.005217	0.301718
H102	H	-1.163051	-0.067382	0.528896
H103	H	-1.271296	-0.175593	0.440660
H104	H	-1.271296	-0.175604	0.264187
H105	H	-1.163047	-0.067401	0.175945
H106	H	-1.054801	0.040809	0.264181
