data_functionalizedCrystal
_audit_creation_method	'MofGen! by Chris Wilmer'
_symmetry_space_group_name_H-M	'P1'
_symmetry_Int_Tables_number	1
_symmetry_cell_setting	triclinic
loop_
_symmetry_equiv_pos_as_xyz
  x,y,z
_cell_length_a	8.597267
_cell_length_b	8.559649
_cell_length_c	12.996460
_cell_angle_alpha	90.005498
_cell_angle_beta	97.697429
_cell_angle_gamma	102.376255
loop_
_atom_site_label
_atom_site_type_symbol
_atom_site_fract_x
_atom_site_fract_y
_atom_site_fract_z
O1	O	0.053140	2.119302	0.090262
O2	O	0.553140	2.619302	0.590262
O3	O	-0.027760	1.655359	0.083094
O4	O	0.472240	2.155359	0.583094
O5	O	0.242256	1.896468	0.107027
O6	O	0.742256	2.396468	0.607027
O7	O	-0.216877	1.878193	0.066328
O8	O	0.283123	2.378193	0.566328
O9	O	0.242267	1.896443	-0.064106
O10	O	0.742267	2.396443	0.435894
O11	O	-0.027750	1.655333	-0.088039
O12	O	0.472250	2.155333	0.411961
O13	O	0.053150	2.119276	-0.080871
O14	O	0.553150	2.619276	0.419129
Cu15	Cu	0.012701	1.887302	-0.100081
Cu16	Cu	0.512701	2.387302	0.399919
Cu17	Cu	0.012689	1.887333	0.102303
Cu18	Cu	0.512689	2.387333	0.602303
O19	O	-0.216867	1.878167	-0.104805
O20	O	0.283133	2.378167	0.395195
C21	C	-0.033886	1.595912	-0.003016
C22	C	0.466114	2.095912	0.496984
C23	C	-0.052135	1.418816	-0.004632
C24	C	0.447865	1.918816	0.495368
C25	C	0.300497	1.894496	0.026625
C26	C	0.800497	2.394496	0.526625
C27	C	0.474016	1.888639	0.042013
C28	C	0.974016	2.388639	0.542013
C29	C	0.724894	1.880143	-0.024401
C30	C	1.224894	2.380143	0.475599
C31	C	0.551378	1.886012	-0.039783
C32	C	1.051378	2.386012	0.460217
C33	C	0.059276	2.178723	0.005240
C34	C	0.559276	2.678723	0.505240
C35	C	0.077525	2.355819	0.006863
C36	C	0.577525	2.855819	0.506863
N37	N	0.012712	1.887293	-0.242427
N38	N	0.512712	2.387293	0.257573
C39	C	0.012687	1.887331	-0.662244
C40	C	0.512687	2.387331	-0.162244
C41	C	0.012688	1.887315	-0.545438
C42	C	0.512688	2.387315	-0.045438
C43	C	0.012698	1.887312	-0.452339
C44	C	0.512698	2.387312	0.047661
C45	C	0.012702	1.887296	-0.335526
C46	C	0.512702	2.387296	0.164474
N47	N	0.012692	1.887355	0.244651
N48	N	0.512692	2.387355	0.744651
H49	H	0.202494	1.437367	0.017946
H50	H	0.702494	1.937367	0.517946
Cl51	Cl	0.576707	1.885199	0.168307
Cl52	Cl	1.076707	2.385199	0.668307
Cl53	Cl	0.448687	1.889477	-0.166083
Cl54	Cl	0.948687	2.389477	0.333917
Cl55	Cl	-0.245094	1.292908	-0.021726
Cl56	Cl	0.254906	1.792908	0.478274
