data_functionalizedCrystal
_audit_creation_method	'MofGen! by Chris Wilmer'
_symmetry_space_group_name_H-M	'P1'
_symmetry_Int_Tables_number	1
_symmetry_cell_setting	triclinic
loop_
_symmetry_equiv_pos_as_xyz
  x,y,z
_cell_length_a	17.699083
_cell_length_b	19.188930
_cell_length_c	16.776229
_cell_angle_alpha	89.988225
_cell_angle_beta	89.998886
_cell_angle_gamma	83.213899
loop_
_atom_site_label
_atom_site_type_symbol
_atom_site_fract_x
_atom_site_fract_y
_atom_site_fract_z
O1	O	1.003962	0.088294	-0.066185
O2	O	0.783569	0.099782	-0.066213
O3	O	0.900126	-0.007611	-0.066183
O4	O	0.887405	0.195686	-0.066215
O5	O	0.900110	-0.007617	0.066394
O6	O	0.783553	0.099775	0.066364
O7	O	1.003947	0.088288	0.066391
Zn8	Zn	0.893748	0.094030	0.087427
Zn9	Zn	0.893768	0.094039	-0.087249
O10	O	0.887390	0.195680	0.066361
C11	C	0.755365	0.099367	0.000072
C12	C	0.671348	0.098132	0.000062
C13	C	0.622644	0.161169	0.000053
C14	C	0.543702	0.160004	0.000063
C15	C	0.513466	0.095802	0.000078
C16	C	0.562176	0.032761	0.000090
C17	C	0.641117	0.033926	0.000085
C18	C	0.243819	0.028060	0.000111
C19	C	0.164873	0.026900	0.000113
C20	C	0.146405	0.154139	0.000088
C21	C	0.225345	0.155304	0.000084
C22	C	0.274049	0.092263	0.000100
C23	C	0.359646	0.093526	0.000090
C24	C	0.427870	0.094538	0.000082
C25	C	0.899706	-0.033625	0.000108
C26	C	0.898469	-0.111131	0.000114
C27	C	0.966861	-0.155978	0.000127
C28	C	0.965699	-0.228804	0.000114
C29	C	0.896142	-0.256778	0.000105
C30	C	0.827741	-0.211921	0.000088
C31	C	0.828905	-0.139098	0.000093
N32	N	0.842969	-0.364845	0.045216
N33	N	0.841868	-0.434025	0.045213
C34	C	0.892632	-0.476191	0.000088
N35	N	0.944550	-0.446565	-0.045024
N36	N	0.945653	-0.377379	-0.045018
C37	C	0.894873	-0.335742	0.000099
C38	C	0.959769	-0.600004	0.000085
C39	C	0.958604	-0.672830	0.000067
C40	C	0.820644	-0.655946	0.000049
C41	C	0.821811	-0.583121	0.000059
C42	C	0.891375	-0.555155	0.000081
C43	C	1.032151	0.088703	0.000104
C44	C	1.116167	0.089938	0.000109
C45	C	0.887810	0.221695	0.000069
C46	C	0.889046	0.299201	0.000057
N47	N	0.893739	0.094024	0.206638
N48	N	0.893782	0.094040	-0.206460
C49	C	0.945366	0.046490	0.248368
C50	C	0.945370	0.046490	0.331821
C51	C	0.893751	0.094027	0.373541
C52	C	0.842118	0.141563	0.331805
C53	C	0.842111	0.141559	0.248354
C54	C	0.842146	0.141576	0.668352
C55	C	0.842158	0.141578	0.751808
C56	C	0.945405	0.046507	0.751818
C57	C	0.945398	0.046503	0.668368
C58	C	0.893763	0.094037	0.626639
C59	C	0.893758	0.094036	0.536150
C60	C	0.893759	0.094031	0.464028
H61	H	0.283465	-0.023272	0.000125
O62	O	0.995525	0.000229	0.792269
C63	C	1.040250	-0.121229	0.817864
C64	C	0.983462	-0.068900	0.771992
H65	H	1.030507	-0.177132	0.801500
H66	H	1.100853	-0.112260	0.801434
H67	H	1.031397	-0.113030	0.884671
H68	H	0.992246	-0.077068	0.705175
H69	H	0.922880	-0.077882	0.788488
O70	O	0.792030	0.187692	0.627700
C71	C	0.746299	0.229873	0.499138
C72	C	0.803080	0.177592	0.545081
H73	H	0.755224	0.221736	0.432333
H74	H	0.685693	0.220856	0.515495
H75	H	0.755979	0.285774	0.515584
H76	H	0.793470	0.121671	0.528660
H77	H	0.863667	0.186670	0.528720
H78	H	0.647256	0.213450	0.000040
H79	H	0.249959	0.207584	0.000068
H80	H	1.016412	-0.577233	0.000099
O81	O	0.791934	0.187803	0.207938
C82	C	0.689493	0.282076	0.216730
C83	C	0.746294	0.229756	0.262598
H84	H	0.652568	0.315998	0.260903
H85	H	0.722007	0.316966	0.177667
H86	H	0.651818	0.251958	0.177653
H87	H	0.783983	0.259816	0.301718
H88	H	0.713733	0.194867	0.301611
H89	H	0.764009	-0.678722	0.000038
H90	H	0.680771	-0.017406	0.000093
H91	H	0.773210	-0.102582	0.000083
O92	O	0.099170	0.215426	0.000186
C93	C	0.059206	0.323807	0.068869
C94	C	0.112751	0.254437	0.068853
H95	H	0.070156	0.355360	0.124388
H96	H	0.070179	0.355457	0.013415
H97	H	-0.002403	0.311934	0.068839
H98	H	0.174379	0.266246	0.068911
H99	H	0.101712	0.222807	0.124302
O100	O	1.025094	-0.716325	-0.000028
C101	C	1.142645	-0.753044	-0.068712
C102	C	1.067380	-0.703734	-0.068694
H103	H	1.176846	-0.742892	-0.124230
H104	H	1.176929	-0.742894	-0.013256
H105	H	1.129850	-0.809892	-0.068685
H106	H	1.080106	-0.646868	-0.068749
H107	H	1.033118	-0.713945	-0.124144
H108	H	0.766119	-0.546605	0.000054
O109	O	0.760154	-0.239059	-0.000062
C110	C	0.641879	-0.246866	-0.068743
C111	C	0.718404	-0.216101	-0.068677
H112	H	0.608095	-0.228305	-0.124204
H113	H	0.652750	-0.306622	-0.068793
H114	H	0.608115	-0.228408	-0.013240
H115	H	0.752206	-0.234505	-0.124170
H116	H	0.707479	-0.156348	-0.068584
H117	H	0.987434	0.007797	0.634402
O118	O	0.995540	0.000245	0.207968
C119	C	1.097978	-0.094030	0.216796
C120	C	1.041187	-0.041703	0.262645
H121	H	1.134909	-0.127949	0.260982
H122	H	1.065457	-0.128923	0.177763
H123	H	1.135648	-0.063918	0.177691
H124	H	1.003502	-0.071758	0.301793
H125	H	1.073755	-0.006811	0.301628
O126	O	0.995422	0.000248	0.372389
C127	C	1.011882	-0.095103	0.466658
C128	C	0.955112	-0.042781	0.420754
H129	H	0.979313	-0.129895	0.505786
H130	H	1.048766	-0.129123	0.422536
H131	H	1.049604	-0.064985	0.505679
H132	H	0.917340	-0.072842	0.381732
H133	H	0.918281	-0.008761	0.464919
O134	O	0.791903	0.187684	0.792302
C135	C	0.660169	0.228761	0.817816
C136	C	0.716994	0.176500	0.771922
H137	H	0.599593	0.219747	0.801343
H138	H	0.668982	0.220598	0.884637
H139	H	0.669871	0.284669	0.801401
H140	H	0.707327	0.120572	0.788269
H141	H	0.708167	0.184724	0.705112
O142	O	0.496499	0.221303	0.000017
C143	C	0.486512	0.347634	0.000037
C144	C	0.540055	0.278263	0.000068
H145	H	0.521705	0.393704	0.000095
H146	H	0.449101	0.350320	-0.055455
H147	H	0.449082	0.350231	0.055511
H148	H	0.577533	0.275619	-0.055369
H149	H	0.577414	0.275606	0.055597
O150	O	0.135627	-0.035531	0.000168
C151	C	0.162271	-0.161617	0.000155
C152	C	0.195494	-0.090970	0.000113
H153	H	0.210657	-0.206458	0.000094
H154	H	0.125801	-0.165387	0.055652
H155	H	0.125748	-0.165305	-0.055314
H156	H	0.232050	-0.087235	0.055545
H157	H	0.231920	-0.087230	-0.055421
H158	H	0.800085	0.180266	0.365778
O159	O	0.532681	-0.029545	0.000070
C160	C	0.419258	-0.087734	0.000133
C161	C	0.452556	-0.017123	0.000140
H162	H	0.354473	-0.077716	0.000206
H163	H	0.439278	-0.118887	-0.055357
H164	H	0.439380	-0.118879	0.055609
H165	H	0.432449	0.014079	-0.055298
H166	H	0.432540	0.013977	0.055667
O167	O	1.032187	-0.272309	0.000023
C168	C	1.149735	-0.309048	-0.068654
C169	C	1.074477	-0.259730	-0.068643
H170	H	1.183941	-0.298905	-0.124173
H171	H	1.184020	-0.298897	-0.013199
H172	H	1.136932	-0.365894	-0.068620
H173	H	1.087211	-0.202866	-0.068704
H174	H	1.040214	-0.269941	-0.124093
H175	H	1.023506	-0.133213	0.000142
