data_functionalizedCrystal
_audit_creation_method	'MofGen! by Chris Wilmer'
_symmetry_space_group_name_H-M	'P1'
_symmetry_Int_Tables_number	1
_symmetry_cell_setting	triclinic
loop_
_symmetry_equiv_pos_as_xyz
  x,y,z
_cell_length_a	19.077105
_cell_length_b	10.686285
_cell_length_c	19.077579
_cell_angle_alpha	83.145707
_cell_angle_beta	85.300666
_cell_angle_gamma	83.162422
loop_
_atom_site_label
_atom_site_type_symbol
_atom_site_fract_x
_atom_site_fract_y
_atom_site_fract_z
Zn1	Zn	1.116541	-0.552729	-0.419179
Zn2	Zn	1.120835	-0.773194	-0.292247
Zn3	Zn	0.993928	-0.552750	-0.296574
Zn4	Zn	1.007048	-0.756720	-0.406042
O5	O	1.059588	-0.658848	-0.353511
O6	O	1.216046	-0.588860	-0.406028
O7	O	1.100307	-0.750855	-0.193887
O8	O	1.002905	-0.375120	-0.320146
O9	O	1.219200	-0.750834	-0.312772
O10	O	1.092988	-0.375105	-0.410224
O11	O	1.007068	-0.588896	-0.197066
O12	O	0.896734	-0.572922	-0.307408
O13	O	1.025267	-0.722756	-0.506719
O14	O	0.906373	-0.722777	-0.387834
O15	O	1.105711	-0.572885	-0.516371
O16	O	1.113029	-0.948636	-0.300034
O17	O	1.029431	-0.936532	-0.383638
C18	C	0.875901	-0.646065	-0.346665
C19	C	0.797320	-0.640626	-0.343753
C20	C	0.765443	-0.716219	-0.384181
C21	C	0.691608	-0.711092	-0.381449
C22	C	0.649651	-0.630376	-0.338283
C23	C	0.681534	-0.554774	-0.297852
C24	C	0.755367	-0.559896	-0.300589
C25	C	0.428291	-0.606671	-0.325618
C26	C	0.354453	-0.601558	-0.322882
C27	C	0.364532	-0.757874	-0.406480
C28	C	0.438367	-0.762994	-0.409210
C29	C	0.470242	-0.687388	-0.368783
N30	N	0.574180	-0.625136	-0.335487
N31	N	0.545712	-0.692622	-0.371583
C32	C	1.073139	-0.988641	-0.339957
C33	C	1.079002	-1.129730	-0.334185
C34	C	1.243993	-0.671682	-0.360383
C35	C	1.322575	-0.677151	-0.363311
C36	C	1.066474	-0.645981	-0.537915
C37	C	1.069408	-0.640498	-0.616497
C38	C	1.046004	-0.327768	-0.367133
C39	C	1.040215	-0.186681	-0.372938
C40	C	1.090456	-0.601263	-1.059372
C41	C	1.087695	-0.606421	-0.985535
C42	C	1.044428	-0.687022	-0.943595
C43	C	1.003925	-0.762480	-0.975495
C44	C	1.006690	-0.757328	-1.049331
C45	C	1.031670	-0.710803	-0.722232
C46	C	1.028906	-0.715947	-0.648392
C47	C	1.112678	-0.559889	-0.658437
C48	C	1.115436	-0.554738	-0.732273
C49	C	1.074936	-0.630201	-0.764167
N50	N	1.041603	-0.692293	-0.868122
N51	N	1.077765	-0.624936	-0.839639
C52	C	1.052766	-0.671577	-0.169829
C53	C	1.049955	-0.676712	-0.091267
H54	H	0.338570	-0.819427	-0.439395
H55	H	1.145652	-0.498453	-0.632461
O56	O	1.123979	-1.200518	-0.289406
C57	C	1.171000	-1.410401	-0.242604
C58	C	1.120036	-1.330389	-0.293340
H59	H	1.167818	-1.515417	-0.245756
H60	H	1.227401	-1.387475	-0.258274
H61	H	1.155473	-1.387532	-0.186176
H62	H	1.135498	-1.353213	-0.349784
H63	H	1.063647	-1.353327	-0.277609
H64	H	1.125685	-0.535620	-1.093514
H65	H	1.002523	-1.127503	-0.410534
H66	H	0.320293	-0.535814	-0.287736
H67	H	1.120678	-0.544985	-0.959569
H68	H	0.665657	-0.772649	-0.414369
O69	O	1.157531	-0.476420	-0.772906
C70	C	1.240301	-0.322126	-0.775075
C71	C	1.192673	-0.410791	-0.728975
H72	H	1.268715	-0.269022	-0.739577
H73	H	1.280995	-0.380514	-0.808603
H74	H	1.206407	-0.251133	-0.811185
H75	H	1.226509	-0.481801	-0.692824
H76	H	1.151975	-0.352321	-0.695495
O77	O	0.479157	-0.841533	-0.451042
C78	C	0.569956	-1.017998	-0.456453
C79	C	0.523791	-0.929161	-0.408997
H80	H	0.606064	-1.088849	-0.422482
H81	H	0.534528	-1.071244	-0.484870
H82	H	0.603487	-0.959596	-0.497156
H83	H	0.490253	-0.987467	-0.368255
H84	H	0.559259	-0.875909	-0.380631
O85	O	0.992298	-0.783923	-0.753299
C86	C	0.900658	-0.788570	-0.832395
C87	C	0.945204	-0.705603	-0.797265
H88	H	0.862562	-0.725282	-0.867938
H89	H	0.937109	-0.854758	-0.865478
H90	H	0.869291	-0.847102	-0.789729
H91	H	0.976577	-0.646993	-0.839885
H92	H	0.908716	-0.639497	-0.764167
O93	O	0.986883	-0.794399	-0.607753
C94	C	0.904106	-0.948682	-0.605577
C95	C	0.951663	-0.859899	-0.651684
H96	H	0.875606	-1.001642	-0.641076
H97	H	0.937991	-1.019783	-0.569513
H98	H	0.863474	-0.890269	-0.572002
H99	H	0.992302	-0.918207	-0.685302
H100	H	0.917732	-0.788794	-0.687702
H101	H	0.454235	-0.545117	-0.292693
H102	H	0.968699	-0.828113	-0.941342
O103	O	0.967276	-0.830661	-1.080203
C104	C	0.883929	-0.986051	-1.062451
C105	C	0.928513	-0.903040	-1.027399
H106	H	0.852588	-1.044610	-1.019775
H107	H	0.845821	-0.922848	-1.098021
H108	H	0.920416	-1.052217	-1.095514
H109	H	0.892080	-0.836862	-0.994300
H110	H	0.966628	-0.966318	-0.991870
H111	H	0.799599	-0.781951	-0.419329
H112	H	0.781321	-0.498333	-0.267672
H113	H	0.647367	-0.489048	-0.262709
