data_functionalizedCrystal
_audit_creation_method	'MofGen! by Chris Wilmer'
_symmetry_space_group_name_H-M	'P1'
_symmetry_Int_Tables_number	1
_symmetry_cell_setting	triclinic
loop_
_symmetry_equiv_pos_as_xyz
  x,y,z
_cell_length_a	16.109302
_cell_length_b	17.699083
_cell_length_c	15.186229
_cell_angle_alpha	89.988702
_cell_angle_beta	90.005906
_cell_angle_gamma	96.627603
loop_
_atom_site_label
_atom_site_type_symbol
_atom_site_fract_x
_atom_site_fract_y
_atom_site_fract_z
O1	O	1.102963	-0.097288	0.073282
O2	O	1.602963	0.402712	0.573282
O3	O	0.860881	-0.109394	0.073277
O4	O	1.360881	0.390606	0.573277
O5	O	0.988761	0.006839	0.073258
O6	O	1.488761	0.506839	0.573258
O7	O	0.975083	-0.213520	0.073301
O8	O	1.475083	0.286480	0.573301
O9	O	0.988752	0.006841	-0.073199
O10	O	1.488752	0.506841	0.426801
O11	O	0.860871	-0.109391	-0.073180
O12	O	1.360871	0.390609	0.426820
O13	O	1.102954	-0.097285	-0.073175
O14	O	1.602954	0.402715	0.426825
Zn15	Zn	0.981911	-0.103338	-0.096431
Zn16	Zn	1.481911	0.396662	0.403569
Zn17	Zn	0.981924	-0.103341	0.096533
Zn18	Zn	1.481924	0.396659	0.596533
O19	O	0.975073	-0.213518	-0.073157
O20	O	1.475073	0.286482	0.426843
C21	C	0.829902	-0.108902	0.000047
C22	C	1.329902	0.391098	0.500047
C23	C	0.737609	-0.107432	0.000044
C24	C	1.237609	0.392568	0.500044
C25	C	0.525268	-0.104030	-0.079782
C26	C	1.025268	0.395970	0.420218
C27	C	0.438551	-0.102640	-0.079779
C28	C	0.938551	0.397360	0.420221
C29	C	0.438572	-0.102647	0.079897
C30	C	0.938572	0.397353	0.579897
C31	C	0.525289	-0.104031	0.079893
C32	C	1.025289	0.395969	0.579893
C33	C	0.568634	-0.104727	0.000051
C34	C	1.068634	0.395273	0.500051
C35	C	0.395200	-0.101952	0.000058
C36	C	0.895200	0.398048	0.500058
C37	C	0.301177	-0.100445	0.000062
C38	C	0.801177	0.399555	0.500062
C39	C	0.662664	-0.106232	0.000047
C40	C	1.162664	0.393768	0.500047
C41	C	0.988266	0.035038	0.000026
C42	C	1.488266	0.535038	0.500026
C43	C	0.986796	0.119058	0.000015
C44	C	1.486796	0.619058	0.500015
C45	C	1.061859	0.167571	0.000010
C46	C	1.561859	0.667571	0.500010
C47	C	1.060473	0.246517	0.000008
C48	C	1.560473	0.746517	0.500008
C49	C	0.984022	0.276947	0.000004
C50	C	1.484022	0.776947	0.500004
C51	C	0.908953	0.228427	0.000012
C52	C	1.408953	0.728427	0.500012
C53	C	0.910340	0.149483	0.000021
C54	C	1.410340	0.649483	0.500021
C55	C	0.903356	0.546798	-0.000020
C56	C	1.403356	1.046798	0.499980
C57	C	0.901974	0.625748	-0.000031
C58	C	1.401974	1.125748	0.499969
C59	C	1.053488	0.643832	-0.000034
C60	C	1.553488	1.143832	0.499966
C61	C	1.054876	0.564888	-0.000025
C62	C	1.554876	1.064888	0.499975
C63	C	0.979807	0.516375	-0.000013
C64	C	1.479807	1.016375	0.499987
C65	C	0.981311	0.430774	-0.000009
C66	C	1.481311	0.930774	0.499991
C67	C	0.982517	0.362547	-0.000006
C68	C	1.482517	0.862547	0.499994
C69	C	1.133932	-0.097777	0.000056
C70	C	1.633932	0.402223	0.500056
C71	C	1.226225	-0.099247	0.000065
C72	C	1.726225	0.400753	0.500065
N73	N	0.981908	-0.103335	-0.228124
N74	N	1.481908	0.396665	0.271876
C75	C	0.975568	0.758283	0.000046
C76	C	1.475568	1.258283	0.500046
C77	C	0.977038	0.674263	-0.000030
C78	C	1.477038	1.174263	0.499970
C79	C	1.038556	-0.051884	-0.546050
C80	C	1.538556	0.448116	-0.046050
C81	C	1.038554	-0.051885	-0.453861
C82	C	1.538554	0.448115	0.046139
C83	C	0.925282	-0.154794	-0.453854
C84	C	1.425282	0.345206	0.046146
C85	C	0.925289	-0.154797	-0.546042
C86	C	1.425289	0.345203	-0.046042
C87	C	0.981925	-0.103338	-0.592138
C88	C	1.481925	0.396662	-0.092138
C89	C	0.981916	-0.103335	-0.407760
C90	C	1.481916	0.396665	0.092240
C91	C	0.981913	-0.103336	-0.307804
C92	C	1.481913	0.396664	0.192196
C93	C	0.981929	-0.103338	-0.692101
C94	C	1.481929	0.396662	-0.192101
N95	N	0.981933	-0.103338	0.228225
N96	N	1.481933	0.396662	0.728225
H97	H	1.124114	0.142802	0.000007
H98	H	1.624114	0.642802	0.500007
N99	N	0.819508	0.658564	-0.000037
N100	N	1.319508	1.158564	0.499963
H101	H	0.786636	0.640872	0.054260
H102	H	1.286636	1.140872	0.554260
H103	H	0.830089	0.715931	-0.000083
H104	H	1.330089	1.215931	0.499917
H105	H	1.114613	0.683341	-0.000039
H106	H	1.614613	1.183341	0.499961
H107	H	0.403246	-0.102073	-0.144787
H108	H	0.903246	0.397927	0.355213
N109	N	0.391821	-0.101896	0.166009
N110	N	0.891821	0.398104	0.666009
H111	H	0.330305	-0.100914	0.153899
H112	H	0.830305	0.399086	0.653899
H113	H	0.400148	-0.149030	0.200881
H114	H	0.900148	0.350970	0.700881
H115	H	0.560599	-0.104597	0.144907
H116	H	1.060599	0.395403	0.644907
N117	N	1.099647	0.003609	-0.595770
N118	N	1.599647	0.503609	-0.095770
H119	H	1.135525	0.036201	-0.552581
H120	H	1.635525	0.536201	-0.052581
H121	H	1.136341	-0.025383	-0.634001
H122	H	1.636341	0.474617	-0.134001
H123	H	1.121597	0.286014	0.000001
H124	H	1.621597	0.786014	0.500001
N125	N	0.864187	-0.210286	-0.404139
N126	N	1.364187	0.289714	0.095861
H127	H	0.873653	-0.264008	-0.420163
H128	H	1.373653	0.235992	0.079837
H129	H	0.872801	-0.202410	-0.338760
H130	H	1.372801	0.297590	0.161240
N131	N	1.137332	0.532066	-0.000029
N132	N	1.637332	1.032066	0.499971
H133	H	1.184676	0.574780	-0.000031
H134	H	1.684676	1.074780	0.499969
H135	H	1.141211	0.499701	0.054268
H136	H	1.641211	0.999701	0.554268
H137	H	1.084669	-0.009987	-0.416339
H138	H	1.584669	0.490013	0.083661
N139	N	0.822393	0.494480	-0.000011
N140	N	1.322393	0.994480	0.499989
H141	H	0.773754	0.525739	-0.000019
H142	H	1.273754	1.025739	0.499981
H143	H	0.819663	0.461335	-0.054300
H144	H	1.319663	0.961335	0.445700
H145	H	0.879172	-0.196700	-0.583569
H146	H	1.379172	0.303300	-0.083569
H147	H	0.846705	0.253209	0.000015
H148	H	1.346705	0.753209	0.500015
N149	N	0.829385	0.097146	0.000023
N150	N	1.329385	0.597146	0.500023
H151	H	0.796025	0.106923	0.054312
H152	H	1.296025	0.606923	0.554312
H153	H	0.796084	0.106954	-0.054308
H154	H	1.296084	0.606954	0.445692
N155	N	0.572022	-0.104780	-0.165892
N156	N	1.072022	0.395220	0.334108
H157	H	0.531388	-0.104126	-0.216465
H158	H	1.031388	0.395874	0.283535
H159	H	0.614838	-0.058463	-0.169379
H160	H	1.114838	0.441537	0.330621
