data_functionalizedCrystal
_audit_creation_method	'MofGen! by Chris Wilmer'
_symmetry_space_group_name_H-M	'P1'
_symmetry_Int_Tables_number	1
_symmetry_cell_setting	triclinic
loop_
_symmetry_equiv_pos_as_xyz
  x,y,z
_cell_length_a	8.559649
_cell_length_b	8.559649
_cell_length_c	7.681481
_cell_angle_alpha	85.087270
_cell_angle_beta	94.930900
_cell_angle_gamma	69.778664
loop_
_atom_site_label
_atom_site_type_symbol
_atom_site_fract_x
_atom_site_fract_y
_atom_site_fract_z
O1	O	-0.037794	2.109659	0.146423
O2	O	0.045987	1.634173	0.146425
O3	O	-0.233646	1.913807	0.146422
O4	O	0.241839	1.830025	0.146426
O5	O	-0.268134	1.948234	-0.146436
O6	O	0.011499	1.668600	-0.146433
O7	O	-0.072282	2.144085	-0.146435
Zn8	Zn	-0.035867	1.911809	-0.192932
Zn9	Zn	0.009572	1.866450	0.192921
O10	O	0.207351	1.864452	-0.146432
C11	C	0.035092	1.591078	-0.000004
C12	C	0.053992	1.411378	-0.000003
C13	C	-0.311199	1.937369	-0.000004
C14	C	-0.490897	1.956267	0.000006
C15	C	0.284904	1.840889	-0.000003
C16	C	0.464604	1.821990	-0.000001
C17	C	-0.061387	2.187180	-0.000003
C18	C	-0.080285	2.366879	0.000008
N19	N	-0.066880	1.942777	-0.456266
N20	N	0.040571	1.835496	0.456256
H21	H	-0.209713	1.466267	0.000008
O22	O	0.208469	1.292855	0.000324
C23	C	0.488452	1.159093	0.152003
C24	C	0.313570	1.293366	0.151871
H25	H	0.573485	1.159486	0.274497
H26	H	0.476816	1.030367	0.152138
H27	H	0.544557	1.188106	0.029381
H28	H	0.257366	1.264512	0.274472
H29	H	0.325315	1.422051	0.151644
H30	H	-0.436019	1.692571	-0.000006
O31	O	-0.197782	2.073567	-0.545701
C32	C	-0.441426	2.316702	-0.526603
C33	C	-0.293233	2.168686	-0.425101
H34	H	-0.518659	2.393626	-0.429143
H35	H	-0.391602	2.399462	-0.612853
H36	H	-0.523798	2.266517	-0.612978
H37	H	-0.210804	2.218724	-0.338631
H38	H	-0.343172	2.085953	-0.338963
H39	H	-0.590287	2.085697	-0.000009
H40	H	0.150247	1.725986	-0.468546
