data_functionalizedCrystal
_audit_creation_method	'MofGen! by Chris Wilmer'
_symmetry_space_group_name_H-M	'P1'
_symmetry_Int_Tables_number	1
_symmetry_cell_setting	triclinic
loop_
_symmetry_equiv_pos_as_xyz
  x,y,z
_cell_length_a	16.992694
_cell_length_b	23.532407
_cell_length_c	16.053802
_cell_angle_alpha	92.544672
_cell_angle_beta	87.249047
_cell_angle_gamma	86.758451
loop_
_atom_site_label
_atom_site_type_symbol
_atom_site_fract_x
_atom_site_fract_y
_atom_site_fract_z
O1	O	1.042772	0.118472	-0.069339
O2	O	0.814498	0.117146	-0.069363
O3	O	0.935518	0.035219	-0.069335
O4	O	0.921752	0.200399	-0.069367
O5	O	0.928857	0.039709	0.069523
O6	O	0.807837	0.121636	0.069494
O7	O	1.036111	0.122961	0.069519
Zn8	Zn	0.920917	0.123011	0.091553
Zn9	Zn	0.929693	0.117096	-0.091397
O10	O	0.915091	0.204888	0.069490
C11	C	0.781969	0.117687	0.000063
C12	C	0.694964	0.112604	0.000054
C13	C	0.644342	0.161650	0.000045
C14	C	0.562592	0.156871	0.000058
C15	C	0.531466	0.103045	0.000073
C16	C	0.582095	0.053995	0.000084
C17	C	0.663843	0.058775	0.000078
C18	C	0.288022	0.083234	0.000099
C19	C	0.206267	0.078457	0.000103
C20	C	0.186770	0.181334	0.000078
C21	C	0.268521	0.186109	0.000066
C22	C	0.319142	0.137059	0.000082
N23	N	0.447905	0.098158	0.000083
N24	N	0.402702	0.141946	0.000078
C25	C	0.931837	0.016231	0.000096
C26	C	0.930783	-0.047038	0.000102
C27	C	0.995791	-0.442917	0.000063
C28	C	0.994812	-0.502366	0.000057
O29	O	1.055075	-0.536121	0.000033
N30	N	0.922865	-0.528562	0.000050
C31	C	0.851893	-0.495307	0.000041
O32	O	0.790607	-0.523048	0.000033
C33	C	0.852873	-0.435859	0.000041
C34	C	0.924824	-0.409666	0.000057
C35	C	1.067736	-0.416723	0.000078
C36	C	1.068715	-0.357278	0.000086
C37	C	0.997748	-0.324027	0.000079
C38	C	0.925803	-0.350221	0.000065
C39	C	0.781902	-0.402605	0.000026
C40	C	0.782889	-0.343154	0.000026
C41	C	0.854840	-0.316960	0.000042
C42	C	0.855814	-0.257525	0.000066
N43	N	0.927761	-0.231328	0.000073
C44	C	0.998728	-0.264579	0.000080
C45	C	0.849841	-0.620151	0.000038
C46	C	0.848860	-0.679598	0.000044
C47	C	0.991779	-0.686653	0.000058
C48	C	0.992759	-0.627205	0.000059
C49	C	0.921788	-0.593955	0.000045
C50	C	1.000777	-0.139740	0.000097
C51	C	1.001749	-0.080289	0.000109
C52	C	0.858831	-0.073240	0.000090
C53	C	0.857858	-0.132685	0.000083
C54	C	0.928838	-0.165934	0.000084
O55	O	0.795583	-0.223734	0.000087
O56	O	1.060004	-0.236831	0.000076
C57	C	1.068641	0.122420	0.000091
C58	C	1.155645	0.127503	0.000094
C59	C	0.918773	0.223877	0.000058
C60	C	0.919827	0.287146	0.000046
N61	N	0.914933	0.127048	0.216412
N62	N	0.935683	0.113055	-0.216256
C63	C	0.966445	0.092202	0.260118
C64	C	0.962267	0.095032	0.347524
C65	C	0.906579	0.132711	0.391222
C66	C	0.855061	0.167558	0.347510
C67	C	0.859236	0.164725	0.260106
C68	C	0.888340	0.145069	0.652627
C69	C	0.884170	0.147901	0.740038
C70	C	0.991376	0.075374	0.740045
C71	C	0.995550	0.072546	0.652640
C72	C	0.944029	0.107392	0.608935
N73	N	0.902308	0.135606	0.480565
N74	N	0.948296	0.104494	0.519594
H75	H	0.669678	0.205481	0.000032
N76	N	0.302080	0.244168	0.000040
H77	H	0.281130	0.267492	0.051508
H78	H	0.361545	0.239710	0.000001
N79	N	1.046937	0.037787	0.787181
H80	H	1.103239	0.046407	0.771959
H81	H	1.035776	0.045315	0.849167
N82	N	1.144283	-0.452584	0.000091
H83	H	1.178167	-0.445438	-0.051376
H84	H	1.173151	-0.442097	0.051607
H85	H	0.799269	-0.154012	0.000093
N86	N	1.070362	-0.598955	0.000076
H87	H	1.115166	-0.629046	0.000083
H88	H	1.076356	-0.576105	-0.051400
H89	H	0.809714	0.198235	0.383094
H90	H	0.705059	0.018836	0.000085
N91	N	1.079356	-0.052038	0.000130
H92	H	1.124162	-0.082127	0.000131
H93	H	1.085348	-0.029183	-0.051341
N94	N	0.803673	0.202306	0.212961
H95	H	0.767761	0.226606	0.253905
H96	H	0.835210	0.227677	0.176680
H97	H	0.145546	0.221267	0.000067
N98	N	1.077332	-0.175596	0.000099
H99	H	1.123051	-0.149974	0.000111
H100	H	1.077571	-0.198757	0.051573
N101	N	0.706344	-0.307285	0.000016
H102	H	0.677403	-0.317744	-0.051464
H103	H	0.672524	-0.314444	0.051519
H104	H	0.180928	0.034624	0.000115
N105	N	0.508028	0.209790	0.000064
H106	H	0.476124	0.208458	-0.051400
H107	H	0.471275	0.211746	0.051583
N108	N	1.055614	0.031908	0.605509
H109	H	1.087613	0.010261	0.646461
H110	H	1.027538	0.004186	0.569258
N111	N	0.342613	0.030333	0.000122
H112	H	0.310488	-0.004489	0.000131
H113	H	0.379423	0.028406	-0.051353
N114	N	1.146319	-0.329031	0.000100
H115	H	1.191121	-0.359123	0.000101
H116	H	1.152311	-0.306179	-0.051375
N117	N	1.026506	0.051553	0.213003
H118	H	0.998479	0.023795	0.176757
H119	H	1.062764	0.073759	0.176770
N120	N	0.548527	-0.004061	0.000114
H121	H	0.489059	0.000352	0.000117
H122	H	0.569536	-0.027356	-0.051355
N123	N	1.068325	-0.722522	0.000066
H124	H	1.056780	-0.764156	0.000060
H125	H	1.102170	-0.715333	-0.051407
H126	H	0.790270	-0.700919	0.000046
H127	H	0.838820	0.178586	0.775613
H128	H	0.792043	-0.593082	0.000034
H129	H	0.723313	-0.423922	0.000008
H130	H	0.846391	0.173443	0.617050
H131	H	0.801051	-0.046156	0.000087
N132	N	1.017853	0.057469	0.394665
H133	H	1.053777	0.033180	0.353719
H134	H	1.050585	0.082054	0.430900
