data_functionalizedCrystal
_audit_creation_method	'MofGen! by Chris Wilmer'
_symmetry_space_group_name_H-M	'P1'
_symmetry_Int_Tables_number	1
_symmetry_cell_setting	triclinic
loop_
_symmetry_equiv_pos_as_xyz
  x,y,z
_cell_length_a	12.759401
_cell_length_b	18.050589
_cell_length_c	18.050583
_cell_angle_alpha	90.028091
_cell_angle_beta	90.015033
_cell_angle_gamma	90.028382
loop_
_atom_site_label
_atom_site_type_symbol
_atom_site_fract_x
_atom_site_fract_y
_atom_site_fract_z
Zn1	Zn	1.606121	-0.295631	0.419872
Zn2	Zn	1.605984	-0.419836	0.295691
Zn3	Zn	1.430433	-0.295664	0.295703
Zn4	Zn	1.430370	-0.419784	0.419847
O5	O	1.518227	-0.357729	0.357778
O6	O	1.753124	-0.312115	0.403405
O7	O	1.582666	-0.403400	0.191768
O8	O	1.453822	-0.191735	0.312189
O9	O	1.753023	-0.403367	0.312170
O10	O	1.582899	-0.191711	0.403416
O11	O	1.453690	-0.312172	0.191777
O12	O	1.283404	-0.312122	0.312165
O13	O	1.453714	-0.403279	0.523775
O14	O	1.283357	-0.403312	0.403373
O15	O	1.582838	-0.312065	0.523793
O16	O	1.582605	-0.523753	0.312145
O17	O	1.453582	-0.523716	0.403362
C18	C	1.245260	-0.357715	0.357768
C19	C	1.128483	-0.357727	0.357781
C20	C	1.518100	-0.550681	0.357766
C21	C	1.518142	-0.633227	0.357785
C22	C	1.073624	-0.405286	0.405195
C23	C	0.963900	-0.405295	0.405203
C24	C	0.963903	-0.310185	0.310378
C25	C	1.073626	-0.310173	0.310374
C26	C	1.073622	-0.460199	0.459939
C27	C	0.963897	-0.460209	0.459947
C28	C	1.448048	-0.832684	0.407371
C29	C	1.422440	-0.882129	0.339605
C30	C	1.518245	-0.784357	0.357795
C31	C	1.543905	-0.881993	0.425569
C32	C	1.518343	-0.930342	0.357810
C33	C	1.492587	-0.832716	0.289993
C34	C	1.614097	-0.832575	0.376002
C35	C	1.588525	-0.881998	0.308189
C36	C	1.518186	-0.700259	0.357787
C37	C	1.518402	-1.014439	0.357810
C38	C	1.792260	-0.357743	0.357789
C39	C	1.909037	-0.357749	0.357793
C40	C	1.518284	-0.357662	0.551484
C41	C	1.518308	-0.357634	0.634030
C42	C	1.518383	-0.164023	0.357807
C43	C	1.518449	-0.081477	0.357819
C44	C	1.518231	-0.357741	0.164826
C45	C	1.518410	-0.357560	0.082281
C46	C	1.588591	-0.307981	0.882865
C47	C	1.614228	-0.375745	0.833455
C48	C	1.518376	-0.357587	0.931150
C49	C	1.492755	-0.289851	0.833478
C50	C	1.518345	-0.357607	0.785165
C51	C	1.544063	-0.425386	0.882827
C52	C	1.422546	-0.339446	0.882855
C53	C	1.448146	-0.407256	0.833467
C54	C	1.518397	-0.357575	1.015248
C55	C	1.518325	-0.357626	0.701068
H56	H	1.118287	-0.271441	0.271770
Br57	Br	1.687543	-0.917862	0.238246
H58	H	1.341427	-0.903912	0.324219
H59	H	1.695256	-0.391100	0.811755
H60	H	1.471100	-0.232560	0.811799
H61	H	1.565570	-0.903639	0.482879
Br62	Br	1.580317	-0.520904	0.918801
Br63	Br	1.456326	-0.796793	0.194444
H64	H	0.919225	-0.271467	0.271781
H65	H	1.103430	-0.444863	0.517483
Br66	Br	1.749095	-0.796269	0.401700
Br67	Br	1.348967	-0.796590	0.477153
Br68	Br	1.130298	-0.551240	0.425516
H69	H	1.648028	-0.266076	0.904554
H70	H	0.929902	-0.439681	0.514624
Br71	Br	0.914196	-0.556039	0.434084
Br72	Br	1.349150	-0.477265	0.797544
Br73	Br	1.287530	-0.313817	0.919053
