data_functionalizedCrystal
_audit_creation_method	'MofGen! by Chris Wilmer'
_symmetry_space_group_name_H-M	'P1'
_symmetry_Int_Tables_number	1
_symmetry_cell_setting	triclinic
loop_
_symmetry_equiv_pos_as_xyz
  x,y,z
_cell_length_a	29.839131
_cell_length_b	29.839135
_cell_length_c	29.839125
_cell_angle_alpha	89.984512
_cell_angle_beta	89.982291
_cell_angle_gamma	90.043950
loop_
_atom_site_label
_atom_site_type_symbol
_atom_site_fract_x
_atom_site_fract_y
_atom_site_fract_z
Zn1	Zn	-0.178886	0.686720	-0.254047
Zn2	Zn	0.321114	1.186720	0.245953
Zn3	Zn	-0.253998	0.686652	-0.178917
Zn4	Zn	0.246002	1.186652	0.321083
Zn5	Zn	-0.178886	0.611602	-0.178925
Zn6	Zn	0.321114	1.111602	0.321075
Zn7	Zn	-0.253993	0.611550	-0.254014
Zn8	Zn	0.246007	1.111550	0.245986
O9	O	-0.216441	0.649131	-0.216476
O10	O	0.283559	1.149131	0.283524
O11	O	-0.188852	0.749578	-0.244092
O12	O	0.311148	1.249578	0.255908
O13	O	-0.244036	0.676690	-0.116051
O14	O	0.255964	1.176690	0.383949
O15	O	-0.116019	0.621617	-0.188908
O16	O	0.383981	1.121617	0.311092
O17	O	-0.244036	0.749528	-0.188894
O18	O	0.255964	1.249528	0.311106
O19	O	-0.116019	0.676805	-0.244099
O20	O	0.383981	1.176805	0.255901
O21	O	-0.188852	0.621551	-0.116057
O22	O	0.311148	1.121551	0.383943
O23	O	-0.188847	0.548728	-0.188876
O24	O	0.311153	1.048728	0.311124
O25	O	-0.244028	0.621528	-0.316886
O26	O	0.255972	1.121528	0.183114
O27	O	-0.244028	0.548690	-0.244043
O28	O	0.255972	1.048690	0.255957
O29	O	-0.188847	0.676755	-0.316910
O30	O	0.311153	1.176755	0.183090
O31	O	-0.316865	0.676639	-0.188862
O32	O	0.183135	1.176639	0.311138
O33	O	-0.316861	0.621462	-0.244035
O34	O	0.183139	1.121462	0.255965
C35	C	-0.216437	0.532408	-0.216457
C36	C	0.283563	1.032408	0.283543
C37	C	-0.216447	0.482474	-0.216459
C38	C	0.283553	0.982474	0.283541
C39	C	-0.187750	0.172854	-0.245260
C40	C	0.312250	0.672854	0.254740
C41	C	-0.187753	-0.014819	-0.245273
C42	C	0.312247	0.485181	0.254727
O43	O	-0.163344	-0.039065	-0.269738
O44	O	0.336656	0.460935	0.230262
N45	N	-0.216441	-0.038311	-0.216492
N46	N	0.283559	0.461689	0.283508
C47	C	-0.245129	-0.014882	-0.187705
C48	C	0.254871	0.485118	0.312295
O49	O	-0.269527	-0.039169	-0.163223
O50	O	0.230473	0.460831	0.336777
C51	C	-0.245123	0.172791	-0.187690
C52	C	0.254877	0.672791	0.312310
C53	C	-0.216436	0.196280	-0.216475
C54	C	0.283564	0.696280	0.283525
C55	C	-0.159065	0.196343	-0.274042
C56	C	0.340935	0.696343	0.225958
C57	C	-0.159066	0.243258	-0.274040
C58	C	0.340934	0.743258	0.225960
C59	C	-0.187752	0.266684	-0.245256
C60	C	0.312248	0.766684	0.254744
C61	C	-0.216437	0.243195	-0.216474
C62	C	0.283563	0.743195	0.283526
C63	C	-0.273808	0.196219	-0.158901
C64	C	0.226192	0.696219	0.341099
C65	C	-0.273803	0.243140	-0.158899
C66	C	0.226197	0.743140	0.341101
C67	C	-0.245116	0.266630	-0.187684
C68	C	0.254884	0.766630	0.312316
C69	C	-0.245125	0.313537	-0.187688
C70	C	0.254875	0.813537	0.312312
N71	N	-0.216437	0.337029	-0.216468
N72	N	0.283563	0.837029	0.283532
C73	C	-0.187750	0.313602	-0.245252
C74	C	0.312250	0.813602	0.254748
C75	C	-0.245130	-0.113412	-0.187715
C76	C	0.254870	0.386588	0.312285
C77	C	-0.245133	-0.160330	-0.187720
C78	C	0.254867	0.339670	0.312280
C79	C	-0.187756	-0.160265	-0.245287
C80	C	0.312244	0.339735	0.254713
C81	C	-0.187756	-0.113346	-0.245284
C82	C	0.312244	0.386654	0.254716
C83	C	-0.216442	-0.089921	-0.216495
C84	C	0.283558	0.410079	0.283505
C85	C	-0.187755	0.412128	-0.245246
C86	C	0.312245	0.912128	0.254754
C87	C	-0.187760	0.459048	-0.245243
C88	C	0.312240	0.959048	0.254757
C89	C	-0.245135	0.458978	-0.187675
C90	C	0.254865	0.958978	0.312325
C91	C	-0.245132	0.412063	-0.187679
C92	C	0.254868	0.912063	0.312321
C93	C	-0.216438	0.388639	-0.216467
C94	C	0.283562	0.888639	0.283533
O95	O	-0.269518	0.337811	-0.163231
O96	O	0.230482	0.837811	0.336769
O97	O	-0.163349	0.337898	-0.269724
O98	O	0.336651	0.837898	0.230276
C99	C	-0.187749	0.125938	-0.245262
C100	C	0.312251	0.625938	0.254738
C101	C	-0.216434	0.102449	-0.216479
C102	C	0.283566	0.602449	0.283521
C103	C	-0.245120	0.125875	-0.187695
C104	C	0.254880	0.625875	0.312305
C105	C	-0.216436	0.055531	-0.216483
C106	C	0.283564	0.555531	0.283517
C107	C	-0.187749	0.032105	-0.245267
C108	C	0.312251	0.532105	0.254733
C109	C	-0.159061	0.055596	-0.274048
C110	C	0.340939	0.555596	0.225952
C111	C	-0.159062	0.102512	-0.274046
C112	C	0.340938	0.602512	0.225954
C113	C	-0.273808	0.102384	-0.158915
C114	C	0.226192	0.602384	0.341085
C115	C	-0.273805	0.055468	-0.158919
C116	C	0.226195	0.555468	0.341081
C117	C	-0.245119	0.032042	-0.187703
C118	C	0.254881	0.532042	0.312297
C119	C	-0.333163	0.649050	-0.216454
C120	C	0.166837	1.149050	0.283546
C121	C	-0.383098	0.649056	-0.216459
C122	C	0.116902	1.149056	0.283541
C123	C	-0.692730	0.677914	-0.187789
C124	C	-0.192730	1.177914	0.312211
C125	C	-0.880403	0.677969	-0.187807
C126	C	-0.380403	1.177969	0.312193
O127	O	-0.904659	0.702441	-0.163413
O128	O	-0.404659	1.202441	0.336587
N129	N	-0.903883	0.649224	-0.216510
N130	N	-0.403883	1.149224	0.283490
C131	C	-0.880441	0.620465	-0.245213
C132	C	-0.380441	1.120465	0.254787
O133	O	-0.904718	0.596020	-0.269630
O134	O	-0.404718	1.096020	0.230370
C135	C	-0.692769	0.620412	-0.245197
C136	C	-0.192769	1.120412	0.254803
C137	C	-0.669292	0.649156	-0.216489
C138	C	-0.169292	1.149156	0.283511
C139	C	-0.669253	0.706656	-0.159084
C140	C	-0.169253	1.206656	0.340916
C141	C	-0.622338	0.706640	-0.159078
C142	C	-0.122338	1.206640	0.340922
C143	C	-0.598900	0.677882	-0.187778
C144	C	-0.098900	1.177882	0.312222
C145	C	-0.622377	0.649140	-0.216483
C146	C	-0.122377	1.149140	0.283517
C147	C	-0.669328	0.591656	-0.273902
C148	C	-0.169328	1.091656	0.226098
C149	C	-0.622407	0.591646	-0.273897
C150	C	-0.122407	1.091646	0.226103
C151	C	-0.598930	0.620390	-0.245188
C152	C	-0.098930	1.120390	0.254812
C153	C	-0.552023	0.620367	-0.245177
C154	C	-0.052023	1.120367	0.254823
N155	N	-0.528543	0.649112	-0.216474
N156	N	-0.028543	1.149112	0.283526
C157	C	-0.551982	0.677869	-0.187774
C158	C	-0.051982	1.177869	0.312226
C159	C	-0.978972	0.620494	-0.245218
C160	C	-0.478972	1.120494	0.254782
C161	C	-1.025889	0.620507	-0.245222
C162	C	-0.525889	1.120507	0.254778
C163	C	-1.025849	0.678012	-0.187816
C164	C	-0.525849	1.178012	0.312184
C165	C	-0.978930	0.677997	-0.187811
C166	C	-0.478930	1.177997	0.312189
C167	C	-0.955492	0.649239	-0.216515
C168	C	-0.455492	1.149239	0.283485
C169	C	-0.453456	0.677834	-0.187764
C170	C	0.046544	1.177834	0.312236
C171	C	-0.406536	0.677814	-0.187759
C172	C	0.093464	1.177814	0.312241
C173	C	-0.406581	0.620311	-0.245167
C174	C	0.093419	1.120311	0.254833
C175	C	-0.453497	0.620329	-0.245170
C176	C	0.046503	1.120329	0.254830
C177	C	-0.476933	0.649094	-0.216467
C178	C	0.023067	1.149094	0.283533
O179	O	-0.527738	0.595912	-0.269561
O180	O	-0.027738	1.095912	0.230439
O181	O	-0.527697	0.702318	-0.163367
O182	O	-0.027697	1.202318	0.336633
C183	C	-0.739646	0.677930	-0.187795
C184	C	-0.239646	1.177930	0.312205
C185	C	-0.763123	0.649188	-0.216501
C186	C	-0.263123	1.149188	0.283499
C187	C	-0.739684	0.620430	-0.245200
C188	C	-0.239684	1.120430	0.254800
C189	C	-0.810041	0.649200	-0.216504
C190	C	-0.310041	1.149200	0.283496
C191	C	-0.833479	0.677958	-0.187804
C192	C	-0.333479	1.177958	0.312196
C193	C	-0.810000	0.706703	-0.159101
C194	C	-0.310000	1.206703	0.340899
C195	C	-0.763084	0.706687	-0.159095
C196	C	-0.263084	1.206687	0.340905
C197	C	-0.763164	0.591685	-0.273904
C198	C	-0.263164	1.091685	0.226096
C199	C	-0.810079	0.591703	-0.273907
C200	C	-0.310079	1.091703	0.226093
C201	C	-0.833518	0.620461	-0.245207
C202	C	-0.333518	1.120461	0.254793
C203	C	-0.099262	0.649225	-0.216508
C204	C	0.400738	1.149225	0.283492
C205	C	-0.049328	0.649265	-0.216522
C206	C	0.450672	1.149265	0.283478
C207	C	-0.216437	0.649143	-0.333654
C208	C	0.283563	1.149143	0.166346
C209	C	-0.216435	0.649148	-0.383589
C210	C	0.283565	1.149148	0.116411
C211	C	-0.216445	0.766309	-0.216495
C212	C	0.283555	1.266309	0.283505
C213	C	-0.216446	0.816244	-0.216504
C214	C	0.283554	1.316244	0.283496
C215	C	-0.187627	0.677935	-0.693248
C216	C	0.312373	1.177935	-0.193248
C217	C	-0.187589	0.677957	-0.880921
C218	C	0.312411	1.177957	-0.380921
O219	O	-0.163138	0.702400	-0.905199
O220	O	0.336862	1.202400	-0.405199
N221	N	-0.216315	0.649208	-0.904374
N222	N	0.283685	1.149208	-0.404374
C223	C	-0.245050	0.620449	-0.880906
C224	C	0.254950	1.120449	-0.380906
O225	O	-0.269479	0.595993	-0.905160
O226	O	0.230521	1.095993	-0.405160
C227	C	-0.245086	0.620425	-0.693234
C228	C	0.254914	1.120425	-0.193234
C229	C	-0.216361	0.649179	-0.669783
C230	C	0.283639	1.149179	-0.169783
C231	C	-0.158905	0.706687	-0.669797
C232	C	0.341095	1.206687	-0.169797
C233	C	-0.158916	0.706683	-0.622882
C234	C	0.341084	1.206683	-0.122882
C235	C	-0.187650	0.677927	-0.599417
C236	C	0.312350	1.177927	-0.099417
C237	C	-0.216373	0.649175	-0.622868
C238	C	0.283627	1.149175	-0.122868
C239	C	-0.273819	0.591663	-0.669766
C240	C	0.226181	1.091663	-0.169766
C241	C	-0.273824	0.591659	-0.622845
C242	C	0.226176	1.091659	-0.122845
C243	C	-0.245100	0.620414	-0.599395
C244	C	0.254900	1.120414	-0.099395
C245	C	-0.245119	0.620415	-0.552487
C246	C	0.254881	1.120415	-0.052487
N247	N	-0.216393	0.649164	-0.529034
N248	N	0.283607	1.149164	-0.029034
C249	C	-0.187659	0.677920	-0.552499
C250	C	0.312341	1.177920	-0.052499
C251	C	-0.245030	0.620464	-0.979437
C252	C	0.254970	1.120464	-0.479437
C253	C	-0.245022	0.620471	-1.026354
C254	C	0.254978	1.120471	-0.526354
C255	C	-0.187560	0.677979	-1.026366
C256	C	0.312440	1.177979	-0.526366
C257	C	-0.187571	0.677974	-0.979448
C258	C	0.312429	1.177974	-0.479448
C259	C	-0.216304	0.649214	-0.955984
C260	C	0.283696	1.149214	-0.455984
C261	C	-0.187685	0.677910	-0.453973
C262	C	0.312315	1.177910	0.046027
C263	C	-0.187701	0.677904	-0.407054
C264	C	0.312299	1.177904	0.092946
C265	C	-0.245161	0.620395	-0.407046
C266	C	0.254839	1.120395	0.092954
C267	C	-0.245147	0.620402	-0.453961
C268	C	0.254853	1.120402	0.046039
C269	C	-0.216406	0.649161	-0.477424
C270	C	0.283594	1.149161	0.022576
O271	O	-0.269553	0.595982	-0.528180
O272	O	0.230447	1.095982	-0.028180
O273	O	-0.163226	0.702366	-0.528237
O274	O	0.336774	1.202366	-0.028237
C275	C	-0.187616	0.677939	-0.740163
C276	C	0.312384	1.177939	-0.240163
C277	C	-0.216338	0.649187	-0.763614
C278	C	0.283662	1.149187	-0.263614
C279	C	-0.245072	0.620431	-0.740149
C280	C	0.254928	1.120431	-0.240149
C281	C	-0.216330	0.649194	-0.810532
C282	C	0.283670	1.149194	-0.310532
C283	C	-0.187596	0.677950	-0.833997
C284	C	0.312404	1.177950	-0.333997
C285	C	-0.158870	0.706699	-0.810544
C286	C	0.341130	1.206699	-0.310544
C287	C	-0.158881	0.706695	-0.763628
C288	C	0.341119	1.206695	-0.263628
C289	C	-0.273798	0.591682	-0.763602
C290	C	0.226202	1.091682	-0.263602
C291	C	-0.273785	0.591689	-0.810518
C292	C	0.226215	1.091689	-0.310518
C293	C	-0.245050	0.620445	-0.833983
C294	C	0.254950	1.120445	-0.333983
C295	C	-0.216412	0.649145	-0.099753
C296	C	0.283588	1.149145	0.400247
C297	C	-0.216288	0.649227	-0.049819
C298	C	0.283712	1.149227	0.450181
H299	H	-0.268491	-0.094343	-0.164271
H300	H	0.231509	0.405657	0.335729
H301	H	-0.164180	0.701388	-0.960357
H302	H	0.335820	1.201388	-0.460357
C303	C	-0.596772	0.737802	-0.127928
C304	C	-0.096772	1.237802	0.372072
C305	C	-0.550665	0.731634	-0.134053
C306	C	-0.050665	1.231634	0.365947
C307	C	-0.527103	0.760332	-0.105361
C308	C	-0.027103	1.260332	0.394639
H309	H	-0.604376	0.768002	-0.134507
H310	H	-0.104376	1.268002	0.365493
H311	H	-0.604456	0.731247	-0.097728
H312	H	-0.104456	1.231247	0.402272
H313	H	-0.542983	0.738192	-0.164246
H314	H	-0.042983	1.238192	0.335754
H315	H	-0.543047	0.701441	-0.127471
H316	H	-0.043047	1.201441	0.372529
H317	H	-0.534787	0.753776	-0.075161
H318	H	-0.034787	1.253776	0.424839
H319	H	-0.534710	0.790529	-0.111943
H320	H	-0.034710	1.290529	0.388057
H321	H	-0.495817	0.756147	-0.109510
H322	H	0.004183	1.256147	0.390490
H323	H	-0.472532	0.701258	-0.164392
H324	H	0.027468	1.201258	0.335608
H325	H	-0.744084	0.568268	-0.297275
H326	H	-0.244084	1.068268	0.202725
H327	H	-0.164399	0.478171	-0.268685
H328	H	0.335601	0.978171	0.231315
C329	C	-0.156554	0.709101	-0.381513
C330	C	0.343446	1.209101	0.118487
C331	C	-0.162717	0.702952	-0.335401
C332	C	0.337283	1.202952	0.164599
C333	C	-0.134035	0.731682	-0.311861
C334	C	0.365965	1.231682	0.188139
H335	H	-0.126351	0.702573	-0.389153
H336	H	0.373649	1.202573	0.110847
H337	H	-0.163127	0.739293	-0.389179
H338	H	0.336873	1.239293	0.110821
H339	H	-0.156141	0.672767	-0.327737
H340	H	0.343859	1.172767	0.172263
H341	H	-0.192914	0.709483	-0.327748
H342	H	0.307086	1.209483	0.172252
H343	H	-0.140608	0.761874	-0.319527
H344	H	0.359392	1.261874	0.180473
H345	H	-0.103834	0.725152	-0.319504
H346	H	0.396166	1.225152	0.180496
H347	H	-0.138216	0.727517	-0.280571
H348	H	0.361784	1.227517	0.219429
H349	H	-0.297168	0.121452	-0.135474
H350	H	0.202832	0.621452	0.364526
H351	H	-1.044940	0.701427	-0.164447
H352	H	-0.544940	1.201427	0.335553
C353	C	-0.127654	0.737969	-0.835945
C354	C	0.372346	1.237969	-0.335945
C355	C	-0.102504	0.763158	-0.805370
C356	C	0.397496	1.263158	-0.305370
C357	C	-0.073748	0.791968	-0.828755
C358	C	0.426252	1.291968	-0.328755
H359	H	-0.108038	0.720847	-0.854247
H360	H	0.391962	1.220847	-0.354247
H361	H	-0.144827	0.757554	-0.854240
H362	H	0.355173	1.257554	-0.354240
H363	H	-0.085333	0.743575	-0.787082
H364	H	0.414667	1.243575	-0.287082
H365	H	-0.122108	0.780288	-0.787067
H366	H	0.377892	1.280288	-0.287067
H367	H	-0.090920	0.811553	-0.847051
H368	H	0.409080	1.311553	-0.347051
H369	H	-0.054135	0.774843	-0.847057
H370	H	0.445865	1.274843	-0.347057
H371	H	-0.056683	0.809065	-0.808014
H372	H	0.443317	1.309065	-0.308014
C373	C	-0.156466	0.709185	-0.479361
C374	C	0.343534	1.209185	0.020639
C375	C	-0.131326	0.734369	-0.448775
C376	C	0.368674	1.234369	0.051225
C377	C	-0.102569	0.763190	-0.472145
C378	C	0.397431	1.263190	0.027855
H379	H	-0.136843	0.692071	-0.497665
H380	H	0.363157	1.192071	0.002335
H381	H	-0.173637	0.728773	-0.497655
H382	H	0.326363	1.228773	0.002345
H383	H	-0.114156	0.714783	-0.430488
H384	H	0.385844	1.214783	0.069512
H385	H	-0.150937	0.751491	-0.430470
H386	H	0.349063	1.251491	0.069530
H387	H	-0.119741	0.782778	-0.490439
H388	H	0.380259	1.282778	0.009561
H389	H	-0.082950	0.746073	-0.490448
H390	H	0.417050	1.246073	0.009552
H391	H	-0.085512	0.780284	-0.451396
H392	H	0.414488	1.280284	0.048604
H393	H	-0.135525	0.730097	-0.603793
H394	H	0.364475	1.230097	-0.103793
H395	H	-0.829190	0.568292	-0.297284
H396	H	-0.329190	1.068292	0.202716
C397	C	-0.276389	0.589259	-0.479450
C398	C	0.223611	1.089259	0.020550
C399	C	-0.305185	0.614671	-0.506385
C400	C	0.194815	1.114671	-0.006385
C401	C	-0.333970	0.585993	-0.529865
C402	C	0.166030	1.085993	-0.029865
H403	H	-0.259246	0.569691	-0.497784
H404	H	0.240754	1.069691	0.002216
H405	H	-0.293531	0.572140	-0.458770
H406	H	0.206469	1.072140	0.041230
H407	H	-0.288044	0.631782	-0.527064
H408	H	0.211956	1.131782	-0.027064
H409	H	-0.322337	0.634237	-0.488063
H410	H	0.177663	1.134237	0.011937
H411	H	-0.351112	0.568874	-0.509185
H412	H	0.148888	1.068874	-0.009185
H413	H	-0.316824	0.566427	-0.548196
H414	H	0.183176	1.066427	-0.048196
H415	H	-0.353514	0.603231	-0.548140
H416	H	0.146486	1.103231	-0.048140
C417	C	-0.304951	0.560378	-0.597350
C418	C	0.195049	1.060378	-0.097350
C419	C	-0.279523	0.531590	-0.570419
C420	C	0.220477	1.031590	-0.070419
C421	C	-0.308183	0.502765	-0.546934
C422	C	0.191817	1.002765	-0.046934
H423	H	-0.324542	0.577492	-0.579013
H424	H	0.175458	1.077492	-0.079013
H425	H	-0.322046	0.543231	-0.618027
H426	H	0.177954	1.043231	-0.118027
H427	H	-0.262436	0.548735	-0.549745
H428	H	0.237564	1.048735	-0.049745
H429	H	-0.259933	0.514466	-0.588745
H430	H	0.240067	1.014466	-0.088745
H431	H	-0.325278	0.485619	-0.567611
H432	H	0.174722	0.985619	-0.067611
H433	H	-0.327772	0.519883	-0.528600
H434	H	0.172228	1.019883	-0.028600
H435	H	-0.290934	0.483227	-0.528662
H436	H	0.209066	0.983227	-0.028662
C437	C	-0.156374	0.709146	-1.051929
C438	C	0.343626	1.209146	-0.551929
C439	C	-0.162509	0.702984	-1.098036
C440	C	0.337491	1.202984	-0.598036
C441	C	-0.133782	0.731678	-1.121600
C442	C	0.366218	1.231678	-0.621600
H443	H	-0.162914	0.739346	-1.044302
H444	H	0.337086	1.239346	-0.544302
H445	H	-0.126182	0.702583	-1.044268
H446	H	0.373818	1.202583	-0.544268
H447	H	-0.192694	0.709550	-1.105693
H448	H	0.307306	1.209550	-0.605693
H449	H	-0.155965	0.672790	-1.105675
H450	H	0.344035	1.172790	-0.605675
H451	H	-0.103590	0.725115	-1.113939
H452	H	0.396410	1.225115	-0.613939
H453	H	-0.140325	0.761876	-1.113970
H454	H	0.359675	1.261876	-0.613970
H455	H	-0.137938	0.727498	-1.152885
H456	H	0.362062	1.227498	-0.652885
C457	C	-0.953524	0.709255	-0.156626
C458	C	-0.453524	1.209255	0.343374
C459	C	-0.984098	0.734447	-0.131502
C460	C	-0.484098	1.234447	0.368498
C461	C	-0.960714	0.763252	-0.102773
C462	C	-0.460714	1.263252	0.397227
H463	H	-0.935244	0.692130	-0.136993
H464	H	-0.435244	1.192130	0.363007
H465	H	-0.935205	0.728839	-0.173818
H466	H	-0.435205	1.228839	0.326182
H467	H	-1.002409	0.714865	-0.114311
H468	H	-0.502409	1.214865	0.385689
H469	H	-1.002379	0.751581	-0.151123
H470	H	-0.502379	1.251581	0.348877
H471	H	-0.942395	0.782836	-0.119965
H472	H	-0.442395	1.282836	0.380035
H473	H	-0.942435	0.746124	-0.083143
H474	H	-0.442435	1.246124	0.416857
H475	H	-0.981455	0.780351	-0.085726
H476	H	-0.481455	1.280351	0.414274
C477	C	-0.276230	0.589206	-1.051731
C478	C	0.223770	1.089206	-0.551731
C479	C	-0.301384	0.564014	-1.021133
C480	C	0.198616	1.064014	-0.521133
C481	C	-0.330132	0.535201	-1.044492
C482	C	0.169868	1.035201	-0.544492
H483	H	-0.295843	0.606325	-1.070035
H484	H	0.204157	1.106325	-0.570035
H485	H	-0.259051	0.569622	-1.070023
H486	H	0.240949	1.069622	-0.570023
H487	H	-0.318562	0.583596	-1.002849
H488	H	0.181438	1.083596	-0.502849
H489	H	-0.281783	0.546885	-1.002828
H490	H	0.218217	1.046885	-0.502828
H491	H	-0.312953	0.515617	-1.062783
H492	H	0.187047	1.015617	-0.562783
H493	H	-0.349743	0.552324	-1.062795
H494	H	0.150257	1.052324	-0.562795
H495	H	-0.347200	0.518103	-1.023735
H496	H	0.152800	1.018103	-0.523735
C497	C	-0.156683	-0.087822	-0.276590
C498	C	0.343317	0.412178	0.223410
C499	C	-0.182161	-0.060902	-0.305344
C500	C	0.317839	0.439098	0.194656
C501	C	-0.153550	-0.037390	-0.334193
C502	C	0.346450	0.462610	0.165807
H503	H	-0.137071	-0.069475	-0.259492
H504	H	0.362929	0.430525	0.240508
H505	H	-0.139609	-0.108483	-0.293759
H506	H	0.360391	0.391517	0.206241
H507	H	-0.199227	-0.040243	-0.288177
H508	H	0.300773	0.459757	0.211823
H509	H	-0.201772	-0.079237	-0.322452
H510	H	0.298228	0.420763	0.177548
H511	H	-0.136476	-0.058051	-0.351363
H512	H	0.363524	0.441949	0.148637
H513	H	-0.133939	-0.019046	-0.317092
H514	H	0.366061	0.480954	0.182908
H515	H	-0.170833	-0.019125	-0.353710
H516	H	0.329167	0.480875	0.146290
H517	H	-0.603326	0.568229	-0.297273
H518	H	-0.103326	1.068229	0.202727
H519	H	-0.297170	0.036347	-0.135480
H520	H	0.202830	0.536347	0.364520
H521	H	-0.387490	0.596895	-0.268532
H522	H	0.112510	1.096895	0.231468
H523	H	-0.688332	0.730076	-0.135713
H524	H	-0.188332	1.230076	0.364287
H525	H	-0.135503	0.730104	-0.688898
H526	H	0.364497	1.230104	-0.188898
H527	H	-0.268557	0.596984	-0.387932
H528	H	0.231443	1.096984	0.112068
H529	H	-0.472613	0.596925	-0.268548
H530	H	0.027387	1.096925	0.231452
C531	C	-0.737680	0.737947	-0.127911
C532	C	-0.237680	1.237947	0.372089
C533	C	-0.768256	0.763140	-0.102790
C534	C	-0.268256	1.263140	0.397210
C535	C	-0.744874	0.791948	-0.074062
C536	C	-0.244874	1.291948	0.425938
H537	H	-0.719402	0.720824	-0.108275
H538	H	-0.219402	1.220824	0.391725
H539	H	-0.719360	0.757530	-0.145102
H540	H	-0.219360	1.257530	0.354898
H541	H	-0.786569	0.743560	-0.085600
H542	H	-0.286569	1.243560	0.414400
H543	H	-0.786536	0.780273	-0.122413
H544	H	-0.286536	1.280273	0.377587
H545	H	-0.726554	0.811531	-0.091253
H546	H	-0.226554	1.311531	0.408747
H547	H	-0.726596	0.774821	-0.054429
H548	H	-0.226596	1.274821	0.445571
H549	H	-0.765616	0.809048	-0.057017
H550	H	-0.265616	1.309048	0.442983
C551	C	-1.051295	0.589278	-0.276437
C552	C	-0.551295	1.089278	0.223563
C553	C	-1.020720	0.564102	-0.301577
C554	C	-0.520720	1.064102	0.198423
C555	C	-1.044105	0.535335	-0.330344
C556	C	-0.544105	1.035335	0.169656
H557	H	-1.069626	0.569679	-0.259286
H558	H	-0.569626	1.069679	0.240714
H559	H	-1.069561	0.606444	-0.296055
H560	H	-0.569561	1.106444	0.203945
H561	H	-1.002461	0.546937	-0.281961
H562	H	-0.502461	1.046937	0.218039
H563	H	-1.002387	0.583689	-0.318737
H564	H	-0.502387	1.083689	0.181263
H565	H	-1.062372	0.552501	-0.349962
H566	H	-0.562372	1.052501	0.150038
H567	H	-1.062436	0.515739	-0.313190
H568	H	-0.562436	1.015739	0.186810
H569	H	-1.023364	0.518253	-0.347408
H570	H	-0.523364	1.018253	0.152592
C571	C	-0.127898	0.030238	-0.305348
C572	C	0.372102	0.530238	0.194652
C573	C	-0.102779	0.060846	-0.330565
C574	C	0.397221	0.560846	0.169435
C575	C	-0.074072	0.037499	-0.359405
C576	C	0.425928	0.537499	0.140595
H577	H	-0.108261	0.011943	-0.288247
H578	H	0.391739	0.511943	0.211753
H579	H	-0.145105	0.011937	-0.324915
H580	H	0.354895	0.511937	0.175085
H581	H	-0.085574	0.079138	-0.311001
H582	H	0.414426	0.579138	0.188999
H583	H	-0.122405	0.079142	-0.347676
H584	H	0.377595	0.579142	0.152324
H585	H	-0.091278	0.019199	-0.378971
H586	H	0.408722	0.519199	0.121029
H587	H	-0.054437	0.019205	-0.342300
H588	H	0.445563	0.519205	0.157700
H589	H	-0.057028	0.058263	-0.376521
H590	H	0.442972	0.558263	0.123479
H591	H	-0.297168	0.177102	-0.135460
H592	H	0.202832	0.677102	0.364540
H593	H	-0.268431	0.597044	-0.960336
H594	H	0.231569	1.097044	-0.460336
H595	H	-0.297180	0.568274	-0.829607
H596	H	0.202820	1.068274	-0.329607
C597	C	-0.305020	0.560391	-0.695138
C598	C	0.194980	1.060391	-0.195138
C599	C	-0.330171	0.535199	-0.664537
C600	C	0.169829	1.035199	-0.164537
C601	C	-0.358915	0.506379	-0.687891
C602	C	0.141085	1.006379	-0.187891
H603	H	-0.324636	0.577505	-0.713444
H604	H	0.175364	1.077505	-0.213444
H605	H	-0.287839	0.540807	-0.713427
H606	H	0.212161	1.040807	-0.213427
H607	H	-0.347351	0.554780	-0.646255
H608	H	0.152649	1.054780	-0.146255
H609	H	-0.310567	0.518076	-0.646229
H610	H	0.189433	1.018076	-0.146229
H611	H	-0.341733	0.486796	-0.706181
H612	H	0.158267	0.986796	-0.206181
H613	H	-0.378528	0.523498	-0.706197
H614	H	0.121472	1.023498	-0.206197
H615	H	-0.375980	0.489281	-0.667133
H616	H	0.124020	0.989281	-0.167133
H617	H	-0.959892	0.597076	-0.268594
H618	H	-0.459892	1.097076	0.231406
H619	H	-0.135491	0.730110	-0.744539
H620	H	0.364509	1.230110	-0.244539
H621	H	-0.297198	0.568265	-0.744502
H622	H	0.202802	1.068265	-0.244502
H623	H	-0.164389	0.393062	-0.268686
H624	H	0.335611	0.893062	0.231314
H625	H	-0.135705	0.262379	-0.297480
H626	H	0.364295	0.762379	0.202520
H627	H	-0.135702	0.177274	-0.297482
H628	H	0.364298	0.677274	0.202518
H629	H	-0.297163	0.262211	-0.135454
H630	H	0.202837	0.762211	0.364546
H631	H	-0.688435	0.568248	-0.297278
H632	H	-0.188435	1.068248	0.202722
H633	H	-0.268497	-0.179451	-0.164285
H634	H	0.231503	0.320549	0.335715
H635	H	-0.164399	-0.179346	-0.268724
H636	H	0.335601	0.320654	0.231276
C637	C	-0.276354	0.484396	-0.156481
C638	C	0.223646	0.984396	0.343519
C639	C	-0.320821	0.472966	-0.166185
C640	C	0.179179	0.972966	0.333815
C641	C	-0.349590	0.496378	-0.137461
C642	C	0.150410	0.996378	0.362539
H643	H	-0.269792	0.476724	-0.126291
H644	H	0.230208	0.976724	0.373709
H645	H	-0.272272	0.515706	-0.160608
H646	H	0.227728	1.015706	0.339392
H647	H	-0.324901	0.441663	-0.162054
H648	H	0.175099	0.941663	0.337946
H649	H	-0.327397	0.480639	-0.196369
H650	H	0.172603	0.980639	0.303631
H651	H	-0.345508	0.527688	-0.141588
H652	H	0.154492	1.027688	0.358412
H653	H	-0.343024	0.488704	-0.107273
H654	H	0.156976	0.988704	0.392727
H655	H	-0.379764	0.488629	-0.144044
H656	H	0.120236	0.988629	0.355956
C657	C	-0.276335	0.386532	-0.156505
C658	C	0.223665	0.886532	0.343495
C659	C	-0.305174	0.359587	-0.181888
C660	C	0.194826	0.859587	0.318112
C661	C	-0.333925	0.336069	-0.153183
C662	C	0.166075	0.836069	0.346817
H663	H	-0.259170	0.368203	-0.136953
H664	H	0.240830	0.868203	0.363047
H665	H	-0.293447	0.407190	-0.139370
H666	H	0.206553	0.907190	0.360630
H667	H	-0.288063	0.338931	-0.199015
H668	H	0.211937	0.838931	0.300985
H669	H	-0.322349	0.377905	-0.201439
H670	H	0.177651	0.877905	0.298561
H671	H	-0.351037	0.356728	-0.136048
H672	H	0.148963	0.856728	0.363952
H673	H	-0.316756	0.317743	-0.133632
H674	H	0.183244	0.817743	0.366368
H675	H	-0.353498	0.317787	-0.170401
H676	H	0.146502	0.817787	0.329599
H677	H	-0.135702	0.121633	-0.297485
H678	H	0.364298	0.621633	0.202515
H679	H	-0.387423	0.701220	-0.164380
H680	H	0.112577	1.201220	0.335620
H681	H	-0.829092	0.730118	-0.135731
H682	H	-0.329092	1.230118	0.364269
