data_functionalizedCrystal
_audit_creation_method	'MofGen! by Chris Wilmer'
_symmetry_space_group_name_H-M	'P1'
_symmetry_Int_Tables_number	1
_symmetry_cell_setting	triclinic
loop_
_symmetry_equiv_pos_as_xyz
  x,y,z
_cell_length_a	11.169417
_cell_length_b	12.594516
_cell_length_c	11.169409
_cell_angle_alpha	90.031354
_cell_angle_beta	90.019824
_cell_angle_gamma	90.016931
loop_
_atom_site_label
_atom_site_type_symbol
_atom_site_fract_x
_atom_site_fract_y
_atom_site_fract_z
Zn1	Zn	1.834915	-0.423631	0.678551
Zn2	Zn	1.834784	-0.601657	0.477871
Zn3	Zn	1.634201	-0.423696	0.477885
Zn4	Zn	1.634188	-0.601571	0.678516
O5	O	1.734522	-0.512639	0.578206
O6	O	2.002847	-0.447256	0.651939
O7	O	1.808127	-0.578114	0.309923
O8	O	1.660886	-0.274741	0.504524
O9	O	2.002751	-0.578051	0.504501
O10	O	1.808349	-0.274694	0.651953
O11	O	1.660759	-0.447366	0.309934
O12	O	1.466249	-0.447282	0.504491
O13	O	1.660864	-0.577903	0.846471
O14	O	1.466240	-0.577966	0.651893
O15	O	1.808337	-0.447172	0.846496
O16	O	1.808115	-0.750592	0.504467
O17	O	1.660738	-0.750528	0.651880
C18	C	1.422697	-0.512623	0.578190
C19	C	1.289297	-0.512641	0.578212
C20	C	1.734443	-0.789180	0.578194
C21	C	1.734519	-0.907485	0.578229
C22	C	1.654353	-0.976742	0.658351
C23	C	1.625107	-1.047617	0.548838
C24	C	1.763875	-1.047410	0.687761
C25	C	1.705215	-0.976801	0.468658
C26	C	1.844034	-0.976588	0.607656
C27	C	1.814829	-1.047430	0.498067
C28	C	2.047564	-0.512656	0.578222
C29	C	2.180964	-0.512663	0.578229
C30	C	1.734614	-0.512520	0.891249
C31	C	1.734653	-0.512470	1.024649
C32	C	1.734634	-0.235018	0.578244
C33	C	1.734681	-0.116712	0.578260
C34	C	1.734499	-0.512680	0.266381
C35	C	1.734692	-0.512430	0.132982
H36	H	1.532568	-1.078839	0.523974
O37	O	1.954370	-0.939383	0.637585
C38	C	1.984903	-0.975314	0.753159
H39	H	1.899843	-0.995239	0.804868
H40	H	2.036365	-0.910446	0.802421
H41	H	2.043190	-1.049309	0.745646
O42	O	1.793286	-1.084287	0.798340
C43	C	1.708424	-1.048292	0.882498
H44	H	1.662668	-0.973825	0.846886
H45	H	1.755418	-1.029120	0.970515
H46	H	1.638569	-1.112820	0.898145
H47	H	1.586438	-0.945703	0.726008
H48	H	1.680344	-0.945914	0.376015
O49	O	1.895654	-1.084186	0.417000
C50	C	1.864362	-1.047993	0.301734
H51	H	1.764773	-1.028319	0.299363
H52	H	1.884591	-1.112606	0.233151
H53	H	1.918416	-0.973791	0.279479
