data_functionalizedCrystal
_audit_creation_method	'MofGen! by Chris Wilmer'
_symmetry_space_group_name_H-M	'P1'
_symmetry_Int_Tables_number	1
_symmetry_cell_setting	triclinic
loop_
_symmetry_equiv_pos_as_xyz
  x,y,z
_cell_length_a	19.188933
_cell_length_b	18.266242
_cell_length_c	15.995292
_cell_angle_alpha	90.003154
_cell_angle_beta	83.307093
_cell_angle_gamma	90.007623
loop_
_atom_site_label
_atom_site_type_symbol
_atom_site_fract_x
_atom_site_fract_y
_atom_site_fract_z
O1	O	0.926396	0.060851	0.104545
O2	O	0.723119	0.060858	0.118616
O3	O	0.830335	0.060855	-0.010330
O4	O	0.819180	0.060854	0.233492
O5	O	0.830317	-0.060906	-0.010337
O6	O	0.723101	-0.060904	0.118610
O7	O	0.926378	-0.060911	0.104539
Zn8	Zn	0.824736	-0.080240	0.111573
Zn9	Zn	0.824760	0.080187	0.111582
O10	O	0.819161	-0.060908	0.233486
C11	C	0.697098	-0.000023	0.118157
C12	C	0.619590	-0.000020	0.116788
N13	N	0.824725	-0.189727	0.111567
C14	C	0.066321	0.066345	0.107024
C15	C	0.139149	0.066348	0.108305
C16	C	0.175557	-0.000025	0.108946
C17	C	0.139135	-0.066405	0.108284
C18	C	0.066310	-0.066406	0.106994
N19	N	0.284688	-0.049429	0.158614
N20	N	0.353868	-0.049424	0.159841
C21	C	0.394975	-0.000026	0.112829
N22	N	0.364287	0.049377	0.064554
N23	N	0.295099	0.049374	0.063331
C24	C	0.254524	-0.000031	0.110343
C25	C	0.510357	0.066353	0.114873
C26	C	0.583186	0.066353	0.116149
C27	C	0.583170	-0.066401	0.116136
C28	C	0.510343	-0.066399	0.114852
C29	C	0.473940	-0.000020	0.114225
C30	C	0.872216	-0.228037	0.054497
C31	C	0.872221	-0.304681	0.054493
C32	C	0.824741	-0.343014	0.111573
C33	C	0.777241	-0.304695	0.168647
C34	C	0.777233	-0.228051	0.168644
N35	N	0.815841	-0.463346	0.185697
N36	N	0.815853	-0.536154	0.185697
C37	C	0.824760	-0.573936	0.111586
N38	N	0.833670	-0.536159	0.037471
N39	N	0.833662	-0.463344	0.037471
C40	C	0.824744	-0.426121	0.111583
C41	C	0.872259	-0.695353	0.054507
C42	C	0.872259	-0.771999	0.054502
C43	C	0.777282	-0.772011	0.168663
C44	C	0.777279	-0.695366	0.168661
C45	C	0.824771	-0.657042	0.111584
C46	C	0.952399	-0.000029	0.104998
C47	C	1.029907	-0.000027	0.106367
C48	C	0.829872	-0.000024	-0.041528
C49	C	0.828511	-0.000018	-0.134476
N50	N	0.824777	0.189674	0.111582
C51	C	0.823507	-0.000025	-0.472196
C52	C	0.900893	-0.000299	-0.449166
C53	C	0.902364	-0.000022	-0.352496
C54	C	0.825990	-0.000022	-0.304649
C55	C	0.787311	0.069509	-0.333605
C56	C	0.786379	0.069565	-0.430392
C57	C	0.784778	-0.068901	-0.430251
C58	C	0.787646	-0.069818	-0.333769
C59	C	0.827389	-0.000018	-0.209958
C60	C	0.822105	-0.000024	-0.566886
C61	C	0.819625	-0.000028	0.264683
C62	C	0.820986	-0.000028	0.357631
H63	H	0.036687	0.120396	0.106509
N64	N	0.473179	0.134160	0.114227
N65	N	0.505705	0.193418	0.114803
H66	H	0.479451	0.241308	0.114345
N67	N	0.176345	0.134154	0.108971
N68	N	0.143835	0.193413	0.108406
H69	H	0.170102	0.241302	0.108877
H70	H	0.813182	0.121540	-0.457303
H71	H	0.168783	-0.120445	0.108804
N72	N	0.029121	-0.134212	0.106320
N73	N	0.061633	-0.193470	0.106884
H74	H	0.035368	-0.241360	0.106409
N75	N	0.620375	0.134160	0.116810
N76	N	0.587861	0.193417	0.116247
H77	H	0.614126	0.241308	0.116712
N78	N	0.620363	-0.134193	0.116780
N79	N	0.685385	-0.134185	0.117926
H80	H	0.711658	-0.182065	0.118377
H81	H	0.480694	-0.120446	0.114320
N82	N	0.728713	-0.188926	0.226946
N83	N	0.686318	-0.223155	0.277903
H84	H	0.652050	-0.195523	0.319080
H85	H	0.910886	-0.196835	0.008019
H86	H	0.910928	-0.664148	0.008028
H87	H	0.910895	-0.335879	0.008018
H88	H	0.738581	-0.335908	0.215122
N89	N	0.920771	-0.811123	-0.003810
N90	N	0.963167	-0.776892	-0.054765
H91	H	0.997430	-0.804523	-0.095949
H92	H	0.738620	-0.803220	0.215136
H93	H	0.738610	-0.664172	0.215136
H94	H	0.932657	-0.049863	-0.333584
N95	N	0.938300	-0.062852	-0.484436
N96	N	0.908366	-0.107961	-0.526962
H97	H	0.934785	-0.152141	-0.551879
N98	N	0.938109	0.061903	-0.485704
N99	N	0.907886	0.106434	-0.528630
H100	H	0.934167	0.150366	-0.554436
N101	N	0.940610	0.062614	-0.329550
N102	N	0.966294	0.106263	-0.384966
H103	H	0.993306	0.150504	-0.368763
H104	H	0.731900	-0.074017	-0.300596
H105	H	0.729640	0.072715	-0.444735
H106	H	0.809141	-0.121606	-0.458431
H107	H	0.731110	0.072094	-0.301532
N108	N	0.821029	0.134418	-0.308557
N109	N	0.873537	0.129650	-0.269390
H110	H	0.897355	0.175490	-0.251701
H111	H	0.815810	-0.121256	-0.315309
N112	N	0.713321	-0.069481	-0.447542
N113	N	0.690933	-0.019442	-0.490555
H114	H	0.640468	-0.019844	-0.502771
