data_functionalizedCrystal
_audit_creation_method	'MofGen! by Chris Wilmer'
_symmetry_space_group_name_H-M	'P1'
_symmetry_Int_Tables_number	1
_symmetry_cell_setting	triclinic
loop_
_symmetry_equiv_pos_as_xyz
  x,y,z
_cell_length_a	10.654562
_cell_length_b	14.044190
_cell_length_c	9.730223
_cell_angle_alpha	89.993542
_cell_angle_beta	89.996961
_cell_angle_gamma	88.840940
loop_
_atom_site_label
_atom_site_type_symbol
_atom_site_fract_x
_atom_site_fract_y
_atom_site_fract_z
O1	O	1.681223	0.133286	-0.114398
O2	O	1.317021	0.145966	-0.114383
O3	O	1.493651	0.001605	-0.114363
O4	O	1.504593	0.277647	-0.114418
O5	O	1.493649	0.001609	0.114217
O6	O	1.317019	0.145970	0.114197
O7	O	1.681221	0.133289	0.114182
Zn8	Zn	1.499120	0.139630	0.150481
Zn9	Zn	1.499122	0.139625	-0.150683
O10	O	1.504592	0.277651	0.114162
C11	C	1.270129	0.145035	-0.000091
C12	C	1.130405	0.142241	-0.000084
C13	C	1.064743	0.140941	0.124505
C14	C	0.933458	0.138324	0.124482
C15	C	0.933509	0.138312	-0.124728
C16	C	1.064792	0.140923	-0.124704
C17	C	1.064712	0.140951	0.268385
C18	C	0.933427	0.138334	0.268362
C19	C	1.488863	-0.033739	-0.000069
C20	C	1.474584	-0.139060	-0.000057
C21	C	1.549749	-0.388849	-0.000114
C22	C	1.448499	-0.331889	-0.000100
C23	C	1.463016	-0.224589	-0.000076
C24	C	1.535234	-0.496160	-0.000138
C25	C	1.728114	0.134221	-0.000114
C26	C	1.867837	0.137014	-0.000130
C27	C	1.509379	0.312995	-0.000135
C28	C	1.523659	0.418315	-0.000157
N29	N	1.499127	0.139633	0.356018
N30	N	1.499124	0.139615	-0.356219
C31	C	1.577363	0.075732	0.427952
C32	C	1.577359	0.075720	0.571835
C33	C	1.420880	0.203520	0.571836
C34	C	1.420878	0.203526	0.427956
C35	C	1.667709	0.001950	0.427953
C36	C	1.667705	0.001939	0.571836
H37	H	0.893730	0.203892	0.323585
H38	H	1.350913	-0.363710	-0.000104
C39	C	1.335881	0.273004	0.350102
C40	C	1.267383	0.328970	0.443902
C41	C	1.189078	0.392993	0.372234
H42	H	1.279644	0.238617	0.293977
H43	H	1.385476	0.312871	0.293997
H44	H	1.217791	0.289108	0.499984
H45	H	1.323588	0.363378	0.500031
H46	H	1.238674	0.432861	0.316129
H47	H	1.132849	0.358599	0.316111
H48	H	1.142602	0.430980	0.435866
H49	H	1.647327	-0.357031	-0.000104
C50	C	1.117556	0.053427	0.341832
C51	C	1.078642	-0.028687	0.273740
C52	C	1.127311	-0.109330	0.341344
H53	H	1.087883	0.052701	0.433877
H54	H	1.206650	0.055143	0.341812
H55	H	0.989566	-0.030404	0.273775
H56	H	1.108313	-0.027993	0.181699
H57	H	1.216405	-0.107613	0.341324
H58	H	1.097635	-0.110046	0.433387
H59	H	1.100925	-0.165053	0.295147
C60	C	1.335854	0.272737	0.650122
C61	C	1.253288	0.221654	0.732753
C62	C	1.174955	0.285386	0.804901
H63	H	1.289140	0.310823	0.586830
H64	H	1.385446	0.312527	0.706328
H65	H	1.203700	0.181881	0.676552
H66	H	1.299967	0.183571	0.796071
H67	H	1.224547	0.325177	0.861106
H68	H	1.128249	0.323469	0.741598
H69	H	1.118932	0.250737	0.860983
C70	C	1.629253	-0.095310	0.376155
C71	C	1.605731	-0.154812	0.488314
C72	C	1.570286	-0.244407	0.440651
H73	H	1.694972	-0.122383	0.321948
H74	H	1.555424	-0.088651	0.321963
H75	H	1.679551	-0.161473	0.542483
H76	H	1.540006	-0.127769	0.542532
H77	H	1.496457	-0.237748	0.386459
H78	H	1.636010	-0.271471	0.386443
H79	H	1.554311	-0.284787	0.516742
C80	C	1.798668	0.023474	0.623724
C81	C	1.883596	-0.046204	0.575548
C82	C	2.004246	-0.026392	0.623307
H83	H	1.798844	0.023441	0.721347
H84	H	1.822736	0.084212	0.591153
H85	H	1.859535	-0.106926	0.608127
H86	H	1.883460	-0.046182	0.477931
H87	H	2.028314	0.034345	0.590735
H88	H	2.004408	-0.026425	0.720928
H89	H	2.061886	-0.073660	0.590616
H90	H	1.761215	0.025056	0.383318
H91	H	1.630266	-0.066962	0.616467
H92	H	0.880071	0.137239	-0.226190
H93	H	1.118251	0.141967	-0.226156
H94	H	1.101240	0.210133	0.313014
H95	H	0.896884	0.069155	0.313022
