data_functionalizedCrystal
_audit_creation_method	'MofGen! by Chris Wilmer'
_symmetry_space_group_name_H-M	'P1'
_symmetry_Int_Tables_number	1
_symmetry_cell_setting	triclinic
loop_
_symmetry_equiv_pos_as_xyz
  x,y,z
_cell_length_a	12.759401
_cell_length_b	17.077402
_cell_length_c	12.759393
_cell_angle_alpha	89.967664
_cell_angle_beta	90.020938
_cell_angle_gamma	89.974142
loop_
_atom_site_label
_atom_site_type_symbol
_atom_site_fract_x
_atom_site_fract_y
_atom_site_fract_z
Zn1	Zn	1.606196	0.312438	0.594007
Zn2	Zn	1.606058	0.443724	0.418321
Zn3	Zn	1.430495	0.312480	0.418342
Zn4	Zn	1.430457	0.443669	0.593958
O5	O	1.518301	0.378078	0.506157
O6	O	1.753199	0.329859	0.570713
O7	O	1.582727	0.426355	0.271303
O8	O	1.453876	0.202628	0.441673
O9	O	1.753097	0.426314	0.441638
O10	O	1.582963	0.202597	0.570733
O11	O	1.453741	0.329930	0.271318
O12	O	1.283469	0.329877	0.441626
O13	O	1.453811	0.426221	0.740986
O14	O	1.283441	0.426261	0.570651
O15	O	1.582926	0.329806	0.741021
O16	O	1.582690	0.553564	0.441591
O17	O	1.453677	0.553524	0.570631
C18	C	1.245334	0.378068	0.506136
C19	C	1.128557	0.378083	0.506152
C20	C	1.073709	0.428347	0.573230
C21	C	0.963984	0.428350	0.573250
C22	C	0.963968	0.327823	0.439107
C23	C	1.073690	0.327817	0.439093
C24	C	1.518193	0.582026	0.506126
C25	C	1.518243	0.669276	0.506148
C26	C	1.585487	0.710261	0.439032
C27	C	1.585536	0.792241	0.439063
C28	C	1.518334	0.833235	0.506206
C29	C	1.451087	0.792244	0.573330
C30	C	1.451044	0.710265	0.573304
C31	C	1.451178	0.963114	0.573380
C32	C	1.451219	1.045099	0.573405
C33	C	1.585670	1.045090	0.439139
C34	C	1.585627	0.963111	0.439112
C35	C	1.518378	0.922126	0.506235
C36	C	1.792335	0.378088	0.506179
C37	C	1.909111	0.378093	0.506188
C38	C	1.518380	0.378003	0.780190
C39	C	1.518414	0.377971	0.896967
C40	C	1.518430	1.173334	0.506225
C41	C	1.518463	1.086084	0.506289
C42	C	1.518284	0.378096	0.233190
C43	C	1.518454	0.377907	0.116414
C44	C	1.585649	0.327759	0.951849
C45	C	1.585666	0.327725	1.061573
C46	C	1.451211	0.428121	1.061524
C47	C	1.451189	0.428150	0.951802
H48	H	1.640206	0.676889	0.384351
H49	H	1.640342	0.929734	0.384434
H50	H	1.396289	0.676896	0.627958
C51	C	1.134059	0.483635	0.647005
N52	N	1.179512	0.525278	0.702578
H53	H	1.640292	0.825608	0.384409
H54	H	1.640384	0.286897	0.907206
C55	C	1.377305	1.090191	0.647278
N56	N	1.321635	1.124154	0.702923
H57	H	1.118349	0.286881	0.384470
H58	H	0.919331	0.469279	0.627873
C59	C	0.903603	0.272538	0.365340
N60	N	0.858138	0.230897	0.309775
C61	C	1.659633	0.272491	1.121939
N62	N	1.715348	0.230885	1.167405
C63	C	1.377266	0.483314	1.121852
N64	N	1.321569	0.524887	1.167290
H65	H	1.396421	0.929747	0.628042
C66	C	1.659653	1.090175	0.365312
N67	N	1.715375	1.124137	0.309707
C68	C	1.377161	0.837340	0.647186
N69	N	1.321473	0.871306	0.702810
C70	C	1.377218	0.483387	0.891428
N71	N	1.321503	0.524988	0.845954
