data_functionalizedCrystal
_audit_creation_method	'MofGen! by Chris Wilmer'
_symmetry_space_group_name_H-M	'P1'
_symmetry_Int_Tables_number	1
_symmetry_cell_setting	triclinic
loop_
_symmetry_equiv_pos_as_xyz
  x,y,z
_cell_length_a	18.050591
_cell_length_b	18.050589
_cell_length_c	18.050571
_cell_angle_alpha	89.916021
_cell_angle_beta	89.932189
_cell_angle_gamma	90.024669
loop_
_atom_site_label
_atom_site_type_symbol
_atom_site_fract_x
_atom_site_fract_y
_atom_site_fract_z
Zn1	Zn	1.135645	-0.295295	-0.420032
Zn2	Zn	1.385645	-0.045295	-0.170032
Zn3	Zn	1.635645	0.204705	0.079968
Zn4	Zn	1.885645	0.454705	0.329968
Zn5	Zn	1.135451	-0.419621	-0.295851
Zn6	Zn	1.385451	-0.169621	-0.045851
Zn7	Zn	1.635451	0.080379	0.204149
Zn8	Zn	1.885451	0.330379	0.454149
Zn9	Zn	1.011360	-0.295441	-0.295845
Zn10	Zn	1.261360	-0.045441	-0.045845
Zn11	Zn	1.511360	0.204559	0.204155
Zn12	Zn	1.761360	0.454559	0.454155
Zn13	Zn	1.011412	-0.419440	-0.419989
Zn14	Zn	1.261412	-0.169440	-0.169989
Zn15	Zn	1.511412	0.080560	0.080011
Zn16	Zn	1.761412	0.330560	0.330011
O17	O	1.073467	-0.357449	-0.357929
O18	O	1.323467	-0.107449	-0.107929
O19	O	1.573467	0.142551	0.142071
O20	O	1.823467	0.392551	0.392071
O21	O	1.239544	-0.311801	-0.403579
O22	O	1.489544	-0.061801	-0.153579
O23	O	1.739544	0.188199	0.096421
O24	O	1.989544	0.438199	0.346421
O25	O	1.118888	-0.403285	-0.191925
O26	O	1.368888	-0.153285	0.058075
O27	O	1.618888	0.096715	0.308075
O28	O	1.868888	0.346715	0.558075
O29	O	1.027906	-0.191497	-0.312334
O30	O	1.277906	0.058503	-0.062334
O31	O	1.527906	0.308503	0.187666
O32	O	1.777906	0.558503	0.437666
O33	O	1.239402	-0.403143	-0.312344
O34	O	1.489402	-0.153143	-0.062344
O35	O	1.739402	0.096857	0.187656
O36	O	1.989402	0.346857	0.437656
O37	O	1.119217	-0.191389	-0.403574
O38	O	1.369217	0.058611	-0.153574
O39	O	1.619217	0.308611	0.096426
O40	O	1.869217	0.558611	0.346426
O41	O	1.027718	-0.312051	-0.191921
O42	O	1.277718	-0.062051	0.058079
O43	O	1.527718	0.187949	0.308079
O44	O	1.777718	0.437949	0.558079
O45	O	0.907442	-0.311876	-0.312293
O46	O	1.157442	-0.061876	-0.062293
O47	O	1.407442	0.188124	0.187707
O48	O	1.657442	0.438124	0.437707
O49	O	1.027995	-0.402835	-0.523920
O50	O	1.277995	-0.152835	-0.273920
O51	O	1.527995	0.097165	-0.023920
O52	O	1.777995	0.347165	0.226080
O53	O	0.907481	-0.402977	-0.403501
O54	O	1.157481	-0.152977	-0.153501
O55	O	1.407481	0.097023	0.096499
O56	O	1.657481	0.347023	0.346499
O57	O	1.119268	-0.311626	-0.523951
O58	O	1.369268	-0.061626	-0.273951
O59	O	1.619268	0.188374	-0.023951
O60	O	1.869268	0.438374	0.226049
O61	O	1.118938	-0.523521	-0.312303
O62	O	1.368938	-0.273521	-0.062303
O63	O	1.618938	-0.023521	0.187697
O64	O	1.868938	0.226479	0.437697
O65	O	1.027807	-0.523388	-0.403507
O66	O	1.277807	-0.273388	-0.153507
O67	O	1.527807	-0.023388	0.096493
O68	O	1.777807	0.226612	0.346493
C69	C	0.880515	-0.357423	-0.357892
C70	C	1.130515	-0.107423	-0.107892
C71	C	1.380515	0.142577	0.142108
C72	C	1.630515	0.392577	0.392108
C73	C	0.797969	-0.357430	-0.357894
C74	C	1.047969	-0.107430	-0.107894
C75	C	1.297969	0.142570	0.142106
C76	C	1.547969	0.392570	0.392106
C77	C	0.549101	-0.307837	-0.308412
C78	C	0.799101	-0.057837	-0.058412
C79	C	1.049101	0.192163	0.191588
C80	C	1.299101	0.442163	0.441588
C81	C	0.598590	-0.289678	-0.376187
C82	C	0.848590	-0.039678	-0.126187
C83	C	1.098590	0.210322	0.123813
C84	C	1.348590	0.460322	0.373813
C85	C	0.500849	-0.357467	-0.357955
C86	C	0.750849	-0.107467	-0.107955
C87	C	1.000849	0.142533	0.142045
C88	C	1.250849	0.392533	0.392045
C89	C	0.598442	-0.375573	-0.290154
C90	C	0.848442	-0.125573	-0.040154
C91	C	1.098442	0.124427	0.209846
C92	C	1.348442	0.374427	0.459846
C93	C	0.646834	-0.357447	-0.357921
C94	C	0.896834	-0.107447	-0.107921
C95	C	1.146834	0.142553	0.142079
C96	C	1.396834	0.392553	0.392079
C97	C	0.549251	-0.339274	-0.425766
C98	C	0.799251	-0.089274	-0.175766
C99	C	1.049251	0.160726	0.074234
C100	C	1.299251	0.410726	0.324234
C101	C	0.549098	-0.425199	-0.339687
C102	C	0.799098	-0.175199	-0.089687
C103	C	1.049098	0.074801	0.160313
C104	C	1.299098	0.324801	0.410313
C105	C	0.598564	-0.407066	-0.407508
C106	C	0.848564	-0.157066	-0.157508
C107	C	1.098564	0.092934	0.092492
C108	C	1.348564	0.342934	0.342492
C109	C	0.416751	-0.357477	-0.357973
C110	C	0.666751	-0.107477	-0.107973
C111	C	0.916751	0.142523	0.142027
C112	C	1.166751	0.392523	0.392027
C113	C	0.730930	-0.357437	-0.357911
C114	C	0.980930	-0.107437	-0.107911
C115	C	1.230930	0.142563	0.142089
C116	C	1.480930	0.392563	0.392089
C117	C	1.073377	-0.550401	-0.357917
C118	C	1.323377	-0.300401	-0.107917
C119	C	1.573377	-0.050401	0.142083
C120	C	1.823377	0.199599	0.392083
C121	C	1.073407	-0.632947	-0.357937
C122	C	1.323407	-0.382947	-0.107937
C123	C	1.573407	-0.132947	0.142063
C124	C	1.823407	0.117053	0.392063
C125	C	1.023899	-0.832352	-0.407516
C126	C	1.273899	-0.582352	-0.157516
C127	C	1.523899	-0.332352	0.092484
C128	C	1.773899	-0.082352	0.342484
C129	C	1.005744	-0.881863	-0.339747
C130	C	1.255744	-0.631863	-0.089747
C131	C	1.505744	-0.381863	0.160253
C132	C	1.755744	-0.131863	0.410253
C133	C	1.073480	-0.784077	-0.357946
C134	C	1.323480	-0.534077	-0.107946
C135	C	1.573480	-0.284077	0.142054
C136	C	1.823480	-0.034077	0.392054
C137	C	1.091671	-0.881648	-0.425723
C138	C	1.341671	-0.631648	-0.175723
C139	C	1.591671	-0.381648	0.074277
C140	C	1.841671	-0.131648	0.324277
C141	C	1.073549	-0.930062	-0.357962
C142	C	1.323549	-0.680062	-0.107962
C143	C	1.573549	-0.430062	0.142038
C144	C	1.823549	-0.180062	0.392038
C145	C	1.055290	-0.832501	-0.290141
C146	C	1.305290	-0.582501	-0.040141
C147	C	1.555290	-0.332501	0.209859
C148	C	1.805290	-0.082501	0.459859
C149	C	1.141249	-0.832282	-0.376163
C150	C	1.391249	-0.582282	-0.126163
C151	C	1.641249	-0.332282	0.123837
C152	C	1.891249	-0.082282	0.373837
C153	C	1.123119	-0.881770	-0.308348
C154	C	1.373119	-0.631770	-0.058348
C155	C	1.623119	-0.381770	0.191652
C156	C	1.873119	-0.131770	0.441652
C157	C	1.073438	-0.699979	-0.357938
C158	C	1.323438	-0.449979	-0.107938
C159	C	1.573438	-0.199979	0.142062
C160	C	1.823438	0.050021	0.392062
C161	C	1.073591	-1.014159	-0.357962
C162	C	1.323591	-0.764159	-0.107962
C163	C	1.573591	-0.514159	0.142038
C164	C	1.823591	-0.264159	0.392038
C165	C	1.267173	-0.357476	-0.357967
C166	C	1.517173	-0.107476	-0.107967
C167	C	1.767173	0.142524	0.142033
C168	C	2.017173	0.392524	0.392033
C169	C	1.349719	-0.357487	-0.357983
C170	C	1.599719	-0.107487	-0.107983
C171	C	1.849719	0.142513	0.142017
C172	C	2.099719	0.392513	0.392017
C173	C	1.073659	-0.357194	-0.551635
C174	C	1.323659	-0.107194	-0.301635
C175	C	1.573659	0.142806	-0.051635
C176	C	1.823659	0.392806	0.198365
C177	C	1.073740	-0.357085	-0.634182
C178	C	1.323740	-0.107085	-0.384182
C179	C	1.573740	0.142915	-0.134182
C180	C	1.823740	0.392915	0.115818
C181	C	1.073577	-0.163743	-0.357958
C182	C	1.323577	0.086257	-0.107958
C183	C	1.573577	0.336257	0.142042
C184	C	1.823577	0.586257	0.392042
C185	C	1.073624	-0.081198	-0.357970
C186	C	1.323624	0.168802	-0.107970
C187	C	1.573624	0.418802	0.142030
C188	C	1.823624	0.668802	0.392030
C189	C	1.073319	-0.357650	-0.164977
C190	C	1.323319	-0.107650	0.085023
C191	C	1.573319	0.142350	0.335023
C192	C	1.823319	0.392350	0.585023
C193	C	1.073381	-0.357549	-0.082431
C194	C	1.323381	-0.107549	0.167569
C195	C	1.573381	0.142451	0.417569
C196	C	1.823381	0.392451	0.667569
C197	C	1.023637	-0.308031	0.166358
C198	C	1.273637	-0.058031	0.416358
C199	C	1.523637	0.191969	0.666358
C200	C	1.773637	0.441969	0.916358
C201	C	1.005883	-0.375963	0.117174
C202	C	1.255883	-0.125963	0.367174
C203	C	1.505883	0.124037	0.617174
C204	C	1.755883	0.374037	0.867174
C205	C	1.073619	-0.357243	0.214688
C206	C	1.323619	-0.107243	0.464688
C207	C	1.573619	0.142757	0.714688
C208	C	1.823619	0.392757	0.964688
C209	C	1.091220	-0.289466	0.116792
C210	C	1.341220	-0.039466	0.366792
C211	C	1.591220	0.210534	0.616792
C212	C	1.841220	0.460534	0.866792
C213	C	1.073500	-0.357390	0.068704
C214	C	1.323500	-0.107390	0.318704
C215	C	1.573500	0.142610	0.568704
C216	C	1.823500	0.392610	0.818704
C217	C	1.055831	-0.425211	0.166591
C218	C	1.305831	-0.175211	0.416591
C219	C	1.555831	0.074789	0.666591
C220	C	1.805831	0.324789	0.916591
C221	C	1.141200	-0.338668	0.166213
C222	C	1.391200	-0.088668	0.416213
C223	C	1.641200	0.161332	0.666213
C224	C	1.891200	0.411332	0.916213
C225	C	1.123472	-0.406647	0.117051
C226	C	1.373472	-0.156647	0.367051
C227	C	1.623472	0.093353	0.617051
C228	C	1.873472	0.343353	0.867051
C229	C	1.073686	-0.357157	0.298787
C230	C	1.323686	-0.107157	0.548787
C231	C	1.573686	0.142843	0.798787
C232	C	1.823686	0.392843	1.048787
C233	C	1.073434	-0.357483	-0.015393
C234	C	1.323434	-0.107483	0.234607
C235	C	1.573434	0.142517	0.484607
C236	C	1.823434	0.392517	0.734607
H237	H	0.527343	-0.482471	-0.324225
H238	H	0.777343	-0.232471	-0.074225
H239	H	1.027343	0.017529	0.175775
H240	H	1.277343	0.267529	0.425775
O241	O	1.111018	-0.213462	0.087831
O242	O	1.361018	0.036538	0.337831
O243	O	1.611018	0.286538	0.587831
O244	O	1.861018	0.536538	0.837831
H245	H	1.064942	-0.192122	0.053186
H246	H	1.314942	0.057878	0.303186
H247	H	1.564942	0.307878	0.553186
H248	H	1.814942	0.557878	0.803186
H249	H	1.039865	-0.810999	-0.232814
H250	H	1.289865	-0.560999	0.017186
H251	H	1.539865	-0.310999	0.267186
H252	H	1.789865	-0.060999	0.517186
H253	H	0.620054	-0.390894	-0.232829
H254	H	0.870054	-0.140894	0.017171
H255	H	1.120054	0.109106	0.267171
H256	H	1.370054	0.359106	0.517171
O257	O	1.035948	-0.501240	0.195427
O258	O	1.285948	-0.251240	0.445427
O259	O	1.535948	-0.001240	0.695427
O260	O	1.785948	0.248760	0.945427
H261	H	1.036124	-0.500572	0.256913
H262	H	1.286124	-0.250572	0.506913
H263	H	1.536124	-0.000572	0.756913
H264	H	1.786124	0.249428	1.006913
H265	H	0.620316	-0.232388	-0.391638
H266	H	0.870316	0.017612	-0.141638
H267	H	1.120316	0.267612	0.108362
H268	H	1.370316	0.517612	0.358362
H269	H	1.165078	-0.903331	-0.266386
H270	H	1.415078	-0.653331	-0.016386
H271	H	1.665078	-0.403331	0.233614
H272	H	1.915078	-0.153331	0.483614
O273	O	0.967684	-0.252887	0.195049
O274	O	1.217684	-0.002887	0.445049
O275	O	1.467684	0.247113	0.695049
O276	O	1.717684	0.497113	0.945049
H277	H	0.968604	-0.252942	0.256532
H278	H	1.218604	-0.002942	0.506532
H279	H	1.468604	0.247058	0.756532
H280	H	1.718604	0.497058	1.006532
H281	H	0.527731	-0.323885	-0.483106
H282	H	0.777731	-0.073885	-0.233106
H283	H	1.027731	0.176115	0.016894
H284	H	1.277731	0.426115	0.266894
O285	O	1.179392	-0.461914	0.088538
O286	O	1.429392	-0.211914	0.338538
O287	O	1.679392	0.038086	0.588538
O288	O	1.929392	0.288086	0.838538
H289	H	1.164555	-0.518159	0.108594
H290	H	1.414555	-0.268159	0.358594
H291	H	1.664555	-0.018159	0.608594
H292	H	1.914555	0.231841	0.858594
H293	H	0.948467	-0.903657	-0.324353
H294	H	1.198467	-0.653657	-0.074353
H295	H	1.448467	-0.403657	0.175647
H296	H	1.698467	-0.153657	0.425647
H297	H	0.981908	-0.810655	-0.449376
H298	H	1.231908	-0.560655	-0.199376
H299	H	1.481908	-0.310655	0.050624
H300	H	1.731908	-0.060655	0.300624
H301	H	0.620143	-0.449028	-0.449439
H302	H	0.870143	-0.199028	-0.199439
H303	H	1.120143	0.050972	0.050561
H304	H	1.370143	0.300972	0.300561
H305	H	1.107030	-0.903239	-0.483035
H306	H	1.357030	-0.653239	-0.233035
H307	H	1.607030	-0.403239	0.016965
H308	H	1.857030	-0.153239	0.266965
H309	H	1.198386	-0.322870	0.187777
H310	H	1.448386	-0.072870	0.437777
H311	H	1.698386	0.177130	0.687777
H312	H	1.948386	0.427130	0.937777
O313	O	0.520325	-0.252219	-0.253003
O314	O	0.770325	-0.002219	-0.003003
O315	O	1.020325	0.247781	0.246997
O316	O	1.270325	0.497781	0.496997
H317	H	0.540149	-0.196030	-0.268335
H318	H	0.790149	0.053970	-0.018335
H319	H	1.040149	0.303970	0.231665
H320	H	1.290149	0.553970	0.481665
O321	O	1.217187	-0.803576	-0.396509
O322	O	1.467187	-0.553576	-0.146509
O323	O	1.717187	-0.303576	0.103491
O324	O	1.967187	-0.053576	0.353491
H325	H	1.232167	-0.823282	-0.452784
H326	H	1.482167	-0.573282	-0.202784
H327	H	1.732167	-0.323282	0.047216
H328	H	1.982167	-0.073282	0.297216
O329	O	0.930118	-0.396868	0.088622
O330	O	1.180118	-0.146868	0.338622
O331	O	1.430118	0.103132	0.588622
O332	O	1.680118	0.353132	0.838622
H333	H	0.888773	-0.355878	0.108361
H334	H	1.138773	-0.105878	0.358361
H335	H	1.388773	0.144122	0.608361
H336	H	1.638773	0.394122	0.858361
