data_functionalizedCrystal
_audit_creation_method	'MofGen! by Chris Wilmer'
_symmetry_space_group_name_H-M	'P1'
_symmetry_Int_Tables_number	1
_symmetry_cell_setting	triclinic
loop_
_symmetry_equiv_pos_as_xyz
  x,y,z
_cell_length_a	27.732064
_cell_length_b	27.732048
_cell_length_c	12.996460
_cell_angle_alpha	89.988908
_cell_angle_beta	90.002042
_cell_angle_gamma	82.646040
loop_
_atom_site_label
_atom_site_type_symbol
_atom_site_fract_x
_atom_site_fract_y
_atom_site_fract_z
O1	O	0.640923	0.057556	-0.085394
O2	O	0.890923	0.307556	0.164606
O3	O	1.140923	0.557556	0.414606
O4	O	1.390923	0.807556	0.664606
O5	O	0.500130	0.066293	-0.085438
O6	O	0.750130	0.316293	0.164562
O7	O	1.000130	0.566293	0.414562
O8	O	1.250130	0.816293	0.664562
O9	O	0.574899	-0.008472	-0.085395
O10	O	0.824899	0.241528	0.164605
O11	O	1.074899	0.491528	0.414605
O12	O	1.324899	0.741528	0.664605
O13	O	0.566154	0.132321	-0.085437
O14	O	0.816154	0.382321	0.164563
O15	O	1.066154	0.632321	0.414563
O16	O	1.316154	0.882321	0.664563
O17	O	0.574891	-0.008476	0.085739
O18	O	0.824891	0.241524	0.335739
O19	O	1.074891	0.491524	0.585739
O20	O	1.324891	0.741524	0.835739
O21	O	0.500123	0.066289	0.085696
O22	O	0.750123	0.316289	0.335696
O23	O	1.000123	0.566289	0.585696
O24	O	1.250123	0.816289	0.835696
O25	O	0.640915	0.057552	0.085740
O26	O	0.890915	0.307552	0.335740
O27	O	1.140915	0.557552	0.585740
O28	O	1.390915	0.807552	0.835740
Cu29	Cu	0.570518	0.061920	0.101344
Cu30	Cu	0.820518	0.311920	0.351344
Cu31	Cu	1.070518	0.561920	0.601344
Cu32	Cu	1.320518	0.811920	0.851344
Cu33	Cu	0.570527	0.061925	-0.101042
Cu34	Cu	0.820527	0.311925	0.148958
Cu35	Cu	1.070527	0.561925	0.398958
Cu36	Cu	1.320527	0.811925	0.648958
O37	O	0.566146	0.132317	0.085697
O38	O	0.816146	0.382317	0.335697
O39	O	1.066146	0.632317	0.585697
O40	O	1.316146	0.882317	0.835697
C41	C	0.482120	0.066106	0.000123
C42	C	0.732120	0.316106	0.250123
C43	C	0.982120	0.566106	0.500123
C44	C	1.232120	0.816106	0.750123
C45	C	0.428465	0.065551	0.000108
C46	C	0.678465	0.315551	0.250108
C47	C	0.928465	0.565551	0.500108
C48	C	1.178465	0.815551	0.750108
C49	C	0.051392	0.017583	0.000180
C50	C	0.301392	0.267583	0.250180
C51	C	0.551392	0.517583	0.500180
C52	C	0.801392	0.767583	0.750180
C53	C	0.253053	0.019630	0.000153
C54	C	0.503053	0.269630	0.250153
C55	C	0.753053	0.519630	0.500153
C56	C	1.003053	0.769630	0.750153
O57	O	0.284305	-0.017591	0.000203
O58	O	0.534305	0.232409	0.250203
O59	O	0.784305	0.482409	0.500203
O60	O	1.034305	0.732409	0.750203
N61	N	0.272180	0.063964	0.000135
N62	N	0.522180	0.313964	0.250135
N63	N	0.772180	0.563964	0.500135
N64	N	1.022180	0.813964	0.750135
C65	C	0.240889	0.107790	0.000131
C66	C	0.490889	0.357790	0.250131
C67	C	0.740889	0.607790	0.500131
C68	C	0.990889	0.857790	0.750131
O69	O	0.261785	0.145546	0.000126
O70	O	0.511785	0.395546	0.250126
O71	O	0.761785	0.645546	0.500126
O72	O	1.011785	0.895546	0.750126
C73	C	0.039230	0.105743	0.000166
C74	C	0.289230	0.355743	0.250166
C75	C	0.539230	0.605743	0.500166
C76	C	0.789230	0.855743	0.750166
C77	C	0.020105	0.061406	0.000173
C78	C	0.270105	0.311406	0.250173
C79	C	0.520105	0.561406	0.500173
C80	C	0.770105	0.811406	0.750173
C81	C	0.032267	-0.026750	0.000189
C82	C	0.282267	0.223250	0.250189
C83	C	0.532267	0.473250	0.500189
C84	C	0.782267	0.723250	0.750189
C85	C	-0.018145	-0.027261	0.000190
C86	C	0.231855	0.222739	0.250190
C87	C	0.481855	0.472739	0.500190
C88	C	0.731855	0.722739	0.750190
C89	C	-0.049432	0.016561	0.000183
C90	C	0.200568	0.266561	0.250183
C91	C	0.450568	0.516561	0.500183
C92	C	0.700568	0.766561	0.750183
C93	C	-0.030307	0.060895	0.000174
C94	C	0.219693	0.310895	0.250174
C95	C	0.469693	0.560895	0.500174
C96	C	0.719693	0.810895	0.750174
C97	C	0.007940	0.149568	0.000169
C98	C	0.257940	0.399568	0.250169
C99	C	0.507940	0.649568	0.500169
C100	C	0.757940	0.899568	0.750169
C101	C	-0.042478	0.149053	0.000180
C102	C	0.207522	0.399053	0.250180
C103	C	0.457522	0.649053	0.500180
C104	C	0.707522	0.899053	0.750180
C105	C	-0.061602	0.104716	0.000188
C106	C	0.188398	0.354716	0.250188
C107	C	0.438398	0.604716	0.500188
C108	C	0.688398	0.854716	0.750188
C109	C	-0.112006	0.104206	0.000168
C110	C	0.137994	0.354206	0.250168
C111	C	0.387994	0.604206	0.500168
C112	C	0.637994	0.854206	0.750168
N113	N	-0.131134	0.059872	0.000186
N114	N	0.118866	0.309872	0.250186
N115	N	0.368866	0.559872	0.500186
N116	N	0.618866	0.809872	0.750186
C117	C	-0.099846	0.016049	0.000193
C118	C	0.150154	0.266049	0.250193
C119	C	0.400154	0.516049	0.500193
C120	C	0.650154	0.766049	0.750193
C121	C	0.346763	0.108861	0.000111
C122	C	0.596763	0.358861	0.250111
C123	C	0.846763	0.608861	0.500111
C124	C	1.096763	0.858861	0.750111
C125	C	0.397178	0.109373	0.000100
C126	C	0.647178	0.359373	0.250100
C127	C	0.897178	0.609373	0.500100
C128	C	1.147178	0.859373	0.750100
C129	C	0.409338	0.021213	0.000124
C130	C	0.659338	0.271213	0.250124
C131	C	0.909338	0.521213	0.500124
C132	C	1.159338	0.771213	0.750124
C133	C	0.358923	0.020701	0.000127
C134	C	0.608923	0.270701	0.250127
C135	C	0.858923	0.520701	0.500127
C136	C	1.108923	0.770701	0.750127
C137	C	0.327636	0.064527	0.000129
C138	C	0.577636	0.314527	0.250129
C139	C	0.827636	0.564527	0.500129
C140	C	1.077636	0.814527	0.750129
C141	C	-0.205716	0.014979	0.000195
C142	C	0.044284	0.264979	0.250195
C143	C	0.294284	0.514979	0.500195
C144	C	0.544284	0.764979	0.750195
C145	C	-0.256133	0.014472	0.000192
C146	C	-0.006133	0.264472	0.250192
C147	C	0.243867	0.514472	0.500192
C148	C	0.493867	0.764472	0.750192
C149	C	-0.268289	0.102632	0.000174
C150	C	-0.018289	0.352632	0.250174
C151	C	0.231711	0.602632	0.500174
C152	C	0.481711	0.852632	0.750174
C153	C	-0.217876	0.103140	0.000171
C154	C	0.032124	0.353140	0.250171
C155	C	0.282124	0.603140	0.500171
C156	C	0.532124	0.853140	0.750171
C157	C	-0.186590	0.059309	0.000185
C158	C	0.063410	0.309309	0.250185
C159	C	0.313410	0.559309	0.500185
C160	C	0.563410	0.809309	0.750185
O161	O	-0.143287	0.141407	0.000131
O162	O	0.106713	0.391407	0.250131
O163	O	0.356713	0.641407	0.500131
O164	O	0.606713	0.891407	0.750131
O165	O	-0.120752	-0.021701	0.000221
O166	O	0.129248	0.228299	0.250221
O167	O	0.379248	0.478299	0.500221
O168	O	0.629248	0.728299	0.750221
C169	C	0.101805	0.018094	0.000179
C170	C	0.351805	0.268094	0.250179
C171	C	0.601805	0.518094	0.500179
C172	C	0.851805	0.768094	0.750179
C173	C	0.120930	0.062428	0.000171
C174	C	0.370930	0.312428	0.250171
C175	C	0.620930	0.562428	0.500171
C176	C	0.870930	0.812428	0.750171
C177	C	0.089642	0.106250	0.000163
C178	C	0.339642	0.356250	0.250163
C179	C	0.589642	0.606250	0.500163
C180	C	0.839642	0.856250	0.750163
C181	C	0.171344	0.062940	0.000160
C182	C	0.421344	0.312940	0.250160
C183	C	0.671344	0.562940	0.500160
C184	C	0.921344	0.812940	0.750160
C185	C	0.202631	0.019117	0.000167
C186	C	0.452631	0.269117	0.250167
C187	C	0.702631	0.519117	0.500167
C188	C	0.952631	0.769117	0.750167
C189	C	0.183504	-0.025217	0.000185
C190	C	0.433504	0.224783	0.250185
C191	C	0.683504	0.474783	0.500185
C192	C	0.933504	0.724783	0.750185
C193	C	0.133092	-0.025728	0.000186
C194	C	0.383092	0.224272	0.250186
C195	C	0.633092	0.474272	0.500186
C196	C	0.883092	0.724272	0.750186
C197	C	0.108770	0.150585	0.000146
C198	C	0.358770	0.400585	0.250146
C199	C	0.608770	0.650585	0.500146
C200	C	0.858770	0.900585	0.750146
C201	C	0.159183	0.151092	0.000143
C202	C	0.409183	0.401092	0.250143
C203	C	0.659183	0.651092	0.500143
C204	C	0.909183	0.901092	0.750143
C205	C	0.190470	0.107270	0.000151
C206	C	0.440470	0.357270	0.250151
C207	C	0.690470	0.607270	0.500151
C208	C	0.940470	0.857270	0.750151
C209	C	0.574712	-0.026481	0.000174
C210	C	0.824712	0.223519	0.250174
C211	C	1.074712	0.473519	0.500174
C212	C	1.324712	0.723519	0.750174
C213	C	0.574159	-0.080136	0.000183
C214	C	0.824159	0.169864	0.250183
C215	C	1.074159	0.419864	0.500183
C216	C	1.324159	0.669864	0.750183
C217	C	0.614862	-0.418948	0.000143
C218	C	0.864862	-0.168948	0.250143
C219	C	1.114862	0.081052	0.500143
C220	C	1.364862	0.331052	0.750143
C221	C	0.612811	-0.620608	0.000128
C222	C	0.862811	-0.370608	0.250128
C223	C	1.112811	-0.120608	0.500128
C224	C	1.362811	0.129392	0.750128
O225	O	0.650032	-0.651862	0.000094
O226	O	0.900032	-0.401862	0.250094
O227	O	1.150032	-0.151862	0.500094
O228	O	1.400032	0.098138	0.750094
N229	N	0.568476	-0.639735	0.000115
N230	N	0.818476	-0.389735	0.250115
N231	N	1.068476	-0.139735	0.500115
N232	N	1.318476	0.110265	0.750115
C233	C	0.524651	-0.608442	0.000099
C234	C	0.774651	-0.358442	0.250099
C235	C	1.024651	-0.108442	0.500099
C236	C	1.274651	0.141558	0.750099
O237	O	0.486895	-0.629338	0.000077
O238	O	0.736895	-0.379338	0.250077
O239	O	0.986895	-0.129338	0.500077
O240	O	1.236895	0.120662	0.750077
C241	C	0.526703	-0.406784	0.000107
C242	C	0.776703	-0.156784	0.250107
C243	C	1.026703	0.093216	0.500107
C244	C	1.276703	0.343216	0.750107
C245	C	0.571040	-0.387660	0.000130
C246	C	0.821040	-0.137660	0.250130
C247	C	1.071040	0.112340	0.500130
C248	C	1.321040	0.362340	0.750130
C249	C	0.659196	-0.399824	0.000165
C250	C	0.909196	-0.149824	0.250165
C251	C	1.159196	0.100176	0.500165
C252	C	1.409196	0.350176	0.750165
C253	C	0.659709	-0.349412	0.000174
C254	C	0.909709	-0.099412	0.250174
C255	C	1.159709	0.150588	0.500174
C256	C	1.409709	0.400588	0.750174
C257	C	0.615887	-0.318124	0.000161
C258	C	0.865887	-0.068124	0.250161
C259	C	1.115887	0.181876	0.500161
C260	C	1.365887	0.431876	0.750161
C261	C	0.571553	-0.337248	0.000139
C262	C	0.821553	-0.087248	0.250139
C263	C	1.071553	0.162752	0.500139
C264	C	1.321553	0.412752	0.750139
C265	C	0.482878	-0.375493	0.000083
C266	C	0.732878	-0.125493	0.250083
C267	C	0.982878	0.124507	0.500083
C268	C	1.232878	0.374507	0.750083
C269	C	0.483395	-0.325075	0.000083
C270	C	0.733395	-0.075075	0.250083
C271	C	0.983395	0.174925	0.500083
C272	C	1.233395	0.424925	0.750083
C273	C	0.527733	-0.305952	0.000106
C274	C	0.777733	-0.055952	0.250106
C275	C	1.027733	0.194048	0.500106
C276	C	1.277733	0.444048	0.750106
C277	C	0.528243	-0.255548	0.000136
C278	C	0.778243	-0.005548	0.250136
C279	C	1.028243	0.244452	0.500136
C280	C	1.278243	0.494452	0.750136
N281	N	0.572578	-0.236422	0.000149
N282	N	0.822578	0.013578	0.250149
N283	N	1.072578	0.263578	0.500149
N284	N	1.322578	0.513578	0.750149
C285	C	0.616400	-0.267710	0.000161
C286	C	0.866400	-0.017710	0.250161
C287	C	1.116400	0.232290	0.500161
C288	C	1.366400	0.482290	0.750161
C289	C	0.523577	-0.714317	0.000097
C290	C	0.773577	-0.464317	0.250097
C291	C	1.023577	-0.214317	0.500097
C292	C	1.273577	0.035683	0.750097
C293	C	0.523064	-0.764731	0.000097
C294	C	0.773064	-0.514731	0.250097
C295	C	1.023064	-0.264731	0.500097
C296	C	1.273064	-0.014731	0.750097
C297	C	0.611225	-0.776893	0.000124
C298	C	0.861225	-0.526893	0.250124
C299	C	1.111225	-0.276893	0.500124
C300	C	1.361225	-0.026893	0.750124
C301	C	0.611737	-0.726478	0.000131
C302	C	0.861737	-0.476478	0.250131
C303	C	1.111737	-0.226478	0.500131
C304	C	1.361737	0.023522	0.750131
C305	C	0.567912	-0.695190	0.000110
C306	C	0.817912	-0.445190	0.250110
C307	C	1.067912	-0.195190	0.500110
C308	C	1.317912	0.054810	0.750110
C309	C	0.617472	-0.161841	0.000182
C310	C	0.867472	0.088159	0.250182
C311	C	1.117472	0.338159	0.500182
C312	C	1.367472	0.588159	0.750182
C313	C	0.617981	-0.111424	0.000196
C314	C	0.867981	0.138576	0.250196
C315	C	1.117981	0.388576	0.500196
C316	C	1.367981	0.638576	0.750196
C317	C	0.529821	-0.099266	0.000163
C318	C	0.779821	0.150734	0.250163
C319	C	1.029821	0.400734	0.500163
C320	C	1.279821	0.650734	0.750163
C321	C	0.529312	-0.149679	0.000155
C322	C	0.779312	0.100321	0.250155
C323	C	1.029312	0.350321	0.500155
C324	C	1.279312	0.600321	0.750155
C325	C	0.573142	-0.180965	0.000161
C326	C	0.823142	0.069035	0.250161
C327	C	1.073142	0.319035	0.500161
C328	C	1.323142	0.569035	0.750161
O329	O	0.491043	-0.224267	0.000158
O330	O	0.741043	0.025733	0.250158
O331	O	0.991043	0.275733	0.500158
O332	O	1.241043	0.525733	0.750158
O333	O	0.654151	-0.246805	0.000160
O334	O	0.904151	0.003195	0.250160
O335	O	1.154151	0.253195	0.500160
O336	O	1.404151	0.503195	0.750160
C337	C	0.614350	-0.469360	0.000133
C338	C	0.864350	-0.219360	0.250133
C339	C	1.114350	0.030640	0.500133
C340	C	1.364350	0.280640	0.750133
C341	C	0.570016	-0.488484	0.000111
C342	C	0.820016	-0.238484	0.250111
C343	C	1.070016	0.011516	0.500111
C344	C	1.320016	0.261516	0.750111
C345	C	0.526194	-0.457196	0.000098
C346	C	0.776194	-0.207196	0.250098
C347	C	1.026194	0.042804	0.500098
C348	C	1.276194	0.292804	0.750098
C349	C	0.569503	-0.538899	0.000111
C350	C	0.819503	-0.288899	0.250111
C351	C	1.069503	-0.038899	0.500111
C352	C	1.319503	0.211101	0.750111
C353	C	0.613325	-0.570187	0.000124
C354	C	0.863325	-0.320187	0.250124
C355	C	1.113325	-0.070187	0.500124
C356	C	1.363325	0.179813	0.750124
C357	C	0.657660	-0.551060	0.000137
C358	C	0.907660	-0.301060	0.250137
C359	C	1.157660	-0.051060	0.500137
C360	C	1.407660	0.198940	0.750137
C361	C	0.658172	-0.500648	0.000146
C362	C	0.908172	-0.250648	0.250146
C363	C	1.158172	-0.000648	0.500146
C364	C	1.408172	0.249352	0.750146
C365	C	0.481859	-0.476323	0.000085
C366	C	0.731859	-0.226323	0.250085
C367	C	0.981859	0.023677	0.500085
C368	C	1.231859	0.273677	0.750085
C369	C	0.481351	-0.526735	0.000077
C370	C	0.731351	-0.276735	0.250077
C371	C	0.981351	-0.026735	0.500077
C372	C	1.231351	0.223265	0.750077
C373	C	0.525172	-0.558023	0.000090
C374	C	0.775172	-0.308023	0.250090
C375	C	1.025172	-0.058023	0.500090
C376	C	1.275172	0.191977	0.750090
C377	C	0.658925	0.057739	0.000176
C378	C	0.908925	0.307739	0.250176
C379	C	1.158925	0.557739	0.500176
C380	C	1.408925	0.807739	0.750176
C381	C	0.712580	0.058295	0.000185
C382	C	0.962580	0.308295	0.250185
C383	C	1.212580	0.558295	0.500185
C384	C	1.462580	0.808295	0.750185
C385	C	0.566333	0.150326	0.000125
C386	C	0.816333	0.400326	0.250125
C387	C	1.066333	0.650326	0.500125
C388	C	1.316333	0.900326	0.750125
C389	C	0.566886	0.203981	0.000110
C390	C	0.816886	0.453981	0.250110
C391	C	1.066886	0.703981	0.500110
C392	C	1.316886	0.953981	0.750110
N393	N	0.570515	0.061916	0.243691
N394	N	0.820515	0.311916	0.493691
N395	N	1.070515	0.561916	0.743691
N396	N	1.320515	0.811916	0.993691
N397	N	0.570534	0.061925	-0.243389
N398	N	0.820534	0.311925	0.006611
N399	N	1.070534	0.561925	0.256611
N400	N	1.320534	0.811925	0.506611
C401	C	0.570526	0.061925	0.663505
C402	C	0.820526	0.311925	0.913505
C403	C	1.070526	0.561925	1.163505
C404	C	1.320526	0.811925	1.413505
C405	C	0.570522	0.061925	0.546700
C406	C	0.820522	0.311925	0.796700
C407	C	1.070522	0.561925	1.046700
C408	C	1.320522	0.811925	1.296700
C409	C	0.570521	0.061921	0.453601
C410	C	0.820521	0.311921	0.703601
C411	C	1.070521	0.561921	0.953601
C412	C	1.320521	0.811921	1.203601
C413	C	0.570516	0.061920	0.336789
C414	C	0.820516	0.311920	0.586789
C415	C	1.070516	0.561920	0.836789
C416	C	1.320516	0.811920	1.086789
H417	H	-0.033711	-0.063365	0.000200
H418	H	0.216289	0.186635	0.250200
H419	H	0.466289	0.436635	0.500200
H420	H	0.716289	0.686635	0.750200
H421	H	0.693341	-0.576544	0.000152
H422	H	0.943341	-0.326544	0.250152
H423	H	1.193341	-0.076544	0.500152
H424	H	1.443341	0.173456	0.750152
H425	H	0.057737	-0.062438	0.000198
H426	H	0.307737	0.187562	0.250198
H427	H	0.557737	0.437562	0.500198
H428	H	0.807737	0.687562	0.750198
H429	H	-0.202304	0.139243	0.000164
H430	H	0.047696	0.389243	0.250164
H431	H	0.297696	0.639243	0.500164
H432	H	0.547696	0.889243	0.750164
H433	H	-0.180248	-0.020712	0.000206
H434	H	0.069752	0.229288	0.250206
H435	H	0.319752	0.479288	0.500206
H436	H	0.569752	0.729288	0.750206
H437	H	0.493209	-0.165249	0.000165
H438	H	0.743209	0.084751	0.250165
H439	H	0.993209	0.334751	0.500165
H440	H	1.243209	0.584751	0.750165
H441	H	0.321293	0.144551	0.000110
H442	H	0.571293	0.394551	0.250110
H443	H	0.821293	0.644551	0.500110
H444	H	1.071293	0.894551	0.750110
H445	H	-0.271701	-0.021634	0.000195
H446	H	-0.021701	0.228366	0.250195
H447	H	0.228299	0.478366	0.500195
H448	H	0.478299	0.728366	0.750195
H449	H	-0.293772	0.138311	0.000163
H450	H	-0.043772	0.388311	0.250163
H451	H	0.206228	0.638311	0.500163
H452	H	0.456228	0.888311	0.750163
C453	C	0.083459	-0.077455	-0.087773
C454	C	0.333459	0.172545	0.162227
C455	C	0.583459	0.422545	0.412227
C456	C	0.833459	0.672545	0.662227
C457	C	0.112076	-0.074466	0.000198
C458	C	0.362076	0.175534	0.250198
C459	C	0.612076	0.425534	0.500198
C460	C	0.862076	0.675534	0.750198
H461	H	0.070490	-0.107547	-0.087766
H462	H	0.320490	0.142453	0.162234
H463	H	0.570490	0.392453	0.412234
H464	H	0.820490	0.642453	0.662234
H465	H	0.057607	-0.051437	-0.087768
H466	H	0.307607	0.198563	0.162232
H467	H	0.557607	0.448563	0.412232
H468	H	0.807607	0.698563	0.662232
H469	H	0.102875	-0.075416	-0.147446
H470	H	0.352875	0.174584	0.102554
H471	H	0.602875	0.424584	0.352554
H472	H	0.852875	0.674584	0.602554
H473	H	0.092659	-0.076502	0.059872
H474	H	0.342659	0.173498	0.309872
H475	H	0.592659	0.423498	0.559872
H476	H	0.842659	0.673498	0.809872
H477	H	0.137931	-0.100491	0.000203
H478	H	0.387931	0.149509	0.250203
H479	H	0.637931	0.399509	0.500203
H480	H	0.887931	0.649509	0.750203
C481	C	0.376018	-0.066388	0.000149
C482	C	0.626018	0.183612	0.250149
C483	C	0.876018	0.433612	0.500149
C484	C	1.126018	0.683612	0.750149
C485	C	0.337904	-0.028035	0.000146
C486	C	0.587904	0.221965	0.250146
C487	C	0.837904	0.471965	0.500146
C488	C	1.087904	0.721965	0.750146
H489	H	0.363042	-0.096476	0.000168
H490	H	0.613042	0.153524	0.250168
H491	H	0.863042	0.403524	0.500168
H492	H	1.113042	0.653524	0.750168
H493	H	0.395421	-0.064350	-0.059532
H494	H	0.645421	0.185650	0.190468
H495	H	0.895421	0.435650	0.440468
H496	H	1.145421	0.685650	0.690468
H497	H	0.395434	-0.064351	0.059825
H498	H	0.645434	0.185649	0.309825
H499	H	0.895434	0.435649	0.559825
H500	H	1.145434	0.685649	0.809825
H501	H	0.318490	-0.030070	-0.059534
H502	H	0.568490	0.219930	0.190466
H503	H	0.818490	0.469930	0.440466
H504	H	1.068490	0.719930	0.690466
H505	H	0.318492	-0.030074	0.059833
H506	H	0.568492	0.219926	0.309833
H507	H	0.818492	0.469926	0.559833
H508	H	1.068492	0.719926	0.809833
C509	C	0.471330	-0.814370	0.088055
C510	C	0.721330	-0.564370	0.338055
C511	C	0.971330	-0.314370	0.588055
C512	C	1.221330	-0.064370	0.838055
C513	C	0.474327	-0.785748	0.000083
C514	C	0.724327	-0.535748	0.250083
C515	C	0.974327	-0.285748	0.500083
C516	C	1.224327	-0.035748	0.750083
H517	H	0.441239	-0.827340	0.088042
H518	H	0.691239	-0.577340	0.338042
H519	H	0.941239	-0.327340	0.588042
H520	H	1.191239	-0.077340	0.838042
H521	H	0.497349	-0.840220	0.088056
H522	H	0.747349	-0.590220	0.338056
H523	H	0.997349	-0.340220	0.588056
H524	H	1.247349	-0.090220	0.838056
H525	H	0.473361	-0.794956	0.147728
H526	H	0.723361	-0.544956	0.397728
H527	H	0.973361	-0.294956	0.647728
H528	H	1.223361	-0.044956	0.897728
H529	H	0.472299	-0.805162	-0.059590
H530	H	0.722299	-0.555162	0.190410
H531	H	0.972299	-0.305162	0.440410
H532	H	1.222299	-0.055162	0.690410
H533	H	0.448300	-0.759894	0.000072
H534	H	0.698300	-0.509894	0.250072
H535	H	0.948300	-0.259894	0.500072
H536	H	1.198300	-0.009894	0.750072
H537	H	0.412744	0.145477	0.000080
H538	H	0.662744	0.395477	0.250080
H539	H	0.912744	0.645477	0.500080
H540	H	1.162744	0.895477	0.750080
H541	H	0.494142	-0.073782	0.000157
H542	H	0.744142	0.176218	0.250157
H543	H	0.994142	0.426218	0.500157
H544	H	1.244142	0.676218	0.750157
H545	H	0.023502	0.185672	0.000158
H546	H	0.273502	0.435672	0.250158
H547	H	0.523502	0.685672	0.500158
H548	H	0.773502	0.935672	0.750158
H549	H	0.654087	-0.095857	0.000217
H550	H	0.904087	0.154143	0.250217
H551	H	1.154087	0.404143	0.500217
H552	H	1.404087	0.654143	0.750217
H553	H	-0.067950	0.184742	0.000186
H554	H	0.182050	0.434742	0.250186
H555	H	0.432050	0.684742	0.500186
H556	H	0.682050	0.934742	0.750186
H557	H	0.694276	-0.485083	0.000165
H558	H	0.944276	-0.235083	0.250165
H559	H	1.194276	0.014917	0.500165
H560	H	1.444276	0.264917	0.750165
C561	C	0.266188	-0.063569	0.000197
C562	C	0.516188	0.186431	0.250197
C563	C	0.766188	0.436431	0.500197
C564	C	1.016188	0.686431	0.750197
C565	C	0.217902	-0.073388	0.000198
C566	C	0.467902	0.176612	0.250198
C567	C	0.717902	0.426612	0.500198
C568	C	0.967902	0.676612	0.750198
H569	H	0.287425	-0.093306	0.000215
H570	H	0.537425	0.156694	0.250215
H571	H	0.787425	0.406694	0.500215
H572	H	1.037425	0.656694	0.750215
H573	H	0.271945	-0.045376	-0.059485
H574	H	0.521945	0.204624	0.190515
H575	H	0.771945	0.454624	0.440515
H576	H	1.021945	0.704624	0.690515
H577	H	0.271945	-0.045372	0.059872
H578	H	0.521945	0.204628	0.309872
H579	H	0.771945	0.454628	0.559872
H580	H	1.021945	0.704628	0.809872
H581	H	0.212144	-0.091581	-0.059481
H582	H	0.462144	0.158419	0.190519
H583	H	0.712144	0.408419	0.440519
H584	H	0.962144	0.658419	0.690519
H585	H	0.212143	-0.091589	0.059886
H586	H	0.462143	0.158411	0.309886
H587	H	0.712143	0.408411	0.559886
H588	H	0.962143	0.658411	0.809886
C589	C	0.394258	-0.509636	0.000032
C590	C	0.644258	-0.259636	0.250032
C591	C	0.894258	-0.009636	0.500032
C592	C	1.144258	0.240364	0.750032
C593	C	0.432610	-0.547751	0.000048
C594	C	0.682610	-0.297751	0.250048
C595	C	0.932610	-0.047751	0.500048
C596	C	1.182610	0.202249	0.750048
H597	H	0.364169	-0.522611	0.000001
H598	H	0.614169	-0.272611	0.250001
H599	H	0.864169	-0.022611	0.500001
H600	H	1.114169	0.227389	0.750001
H601	H	0.396287	-0.490237	0.059715
H602	H	0.646287	-0.240237	0.309715
H603	H	0.896287	0.009763	0.559715
H604	H	1.146287	0.259763	0.809715
H605	H	0.396304	-0.490217	-0.059642
H606	H	0.646304	-0.240217	0.190358
H607	H	0.896304	0.009783	0.440358
H608	H	1.146304	0.259783	0.690358
H609	H	0.430565	-0.567169	0.059727
H610	H	0.680565	-0.317169	0.309727
H611	H	0.930565	-0.067169	0.559727
H612	H	1.180565	0.182831	0.809727
H613	H	0.430579	-0.567159	-0.059640
H614	H	0.680579	-0.317159	0.190360
H615	H	0.930579	-0.067159	0.440360
H616	H	1.180579	0.182841	0.690360
C617	C	0.431283	-0.412567	-0.087895
C618	C	0.681283	-0.162567	0.162105
C619	C	0.931283	0.087433	0.412105
C620	C	1.181283	0.337433	0.662105
C621	C	0.433685	-0.441936	0.000074
C622	C	0.683685	-0.191936	0.250074
C623	C	0.933685	0.058064	0.500074
C624	C	1.183685	0.308064	0.750074
H625	H	0.401538	-0.391342	-0.087899
H626	H	0.651538	-0.141342	0.162101
H627	H	0.901538	0.108658	0.412101
H628	H	1.151538	0.358658	0.662101
H629	H	0.457752	-0.393957	-0.087877
H630	H	0.707752	-0.143957	0.162123
H631	H	0.957752	0.106043	0.412123
H632	H	1.207752	0.356043	0.662123
H633	H	0.432921	-0.432484	-0.147570
H634	H	0.682921	-0.182484	0.102430
H635	H	0.932921	0.067516	0.352430
H636	H	1.182921	0.317516	0.602430
H637	H	0.432051	-0.422019	0.059749
H638	H	0.682051	-0.172019	0.309749
H639	H	0.932051	0.077981	0.559749
H640	H	1.182051	0.327981	0.809749
H641	H	0.407208	-0.460547	0.000065
H642	H	0.657208	-0.210547	0.250065
H643	H	0.907208	0.039453	0.500065
H644	H	1.157208	0.289453	0.750065
C645	C	0.473092	-0.029353	-0.087834
C646	C	0.723092	0.220647	0.162166
C647	C	0.973092	0.470647	0.412166
C648	C	1.223092	0.720647	0.662166
C649	C	0.443736	-0.026958	0.000139
C650	C	0.693736	0.223042	0.250139
C651	C	0.943736	0.473042	0.500139
C652	C	1.193736	0.723042	0.750139
H653	H	0.494331	-0.059089	-0.087814
H654	H	0.744331	0.190911	0.162186
H655	H	0.994331	0.440911	0.412186
H656	H	1.244331	0.690911	0.662186
H657	H	0.453170	-0.027727	-0.147500
H658	H	0.703170	0.222273	0.102500
H659	H	0.953170	0.472273	0.352500
H660	H	1.203170	0.722273	0.602500
H661	H	0.491691	-0.002870	-0.087840
H662	H	0.741691	0.247130	0.162160
H663	H	0.991691	0.497130	0.412160
H664	H	1.241691	0.747130	0.662160
H665	H	0.425134	-0.053439	0.000141
H666	H	0.675134	0.196561	0.250141
H667	H	0.925134	0.446561	0.500141
H668	H	1.175134	0.696561	0.750141
H669	H	0.463661	-0.028588	0.059820
H670	H	0.713661	0.221412	0.309820
H671	H	0.963661	0.471412	0.559820
H672	H	1.213661	0.721412	0.809820
H673	H	0.174748	0.187200	0.000130
H674	H	0.424748	0.437200	0.250130
H675	H	0.674748	0.687200	0.500130
H676	H	0.924748	0.937200	0.750130
H677	H	0.083300	0.186271	0.000141
H678	H	0.333300	0.436271	0.250141
H679	H	0.583300	0.686271	0.500141
H680	H	0.833300	0.936271	0.750141
H681	H	0.653163	-0.187309	0.000183
H682	H	0.903163	0.062691	0.250183
H683	H	1.153163	0.312691	0.500183
H684	H	1.403163	0.562691	0.750183
C685	C	0.661786	-0.840636	-0.087855
C686	C	0.911786	-0.590636	0.162145
C687	C	1.161786	-0.340636	0.412145
C688	C	1.411786	-0.090636	0.662145
C689	C	0.659396	-0.811290	0.000124
C690	C	0.909396	-0.561290	0.250124
C691	C	1.159396	-0.311290	0.500124
C692	C	1.409396	-0.061290	0.750124
H693	H	0.691525	-0.861869	-0.087862
H694	H	0.941525	-0.611869	0.162138
H695	H	1.191525	-0.361869	0.412138
H696	H	1.441525	-0.111869	0.662138
H697	H	0.635309	-0.859236	-0.087848
H698	H	0.885309	-0.609236	0.162152
H699	H	1.135309	-0.359236	0.412152
H700	H	1.385309	-0.109236	0.662152
H701	H	0.660153	-0.820702	-0.147523
H702	H	0.910153	-0.570702	0.102477
H703	H	1.160153	-0.320702	0.352477
H704	H	1.410153	-0.070702	0.602477
H705	H	0.661026	-0.831223	0.059792
H706	H	0.911026	-0.581223	0.309792
H707	H	1.161026	-0.331223	0.559792
H708	H	1.411026	-0.081223	0.809792
H709	H	0.685880	-0.792688	0.000127
H710	H	0.935880	-0.542688	0.250127
H711	H	1.185880	-0.292688	0.500127
H712	H	1.435880	-0.042688	0.750127
C713	C	0.746797	-0.366514	0.000189
C714	C	0.996797	-0.116514	0.250189
C715	C	1.246797	0.133486	0.500189
C716	C	1.496797	0.383486	0.750189
C717	C	0.708447	-0.328397	0.000186
C718	C	0.958447	-0.078397	0.250186
C719	C	1.208447	0.171603	0.500186
C720	C	1.458447	0.421603	0.750186
H721	H	0.776886	-0.353541	0.000188
H722	H	1.026886	-0.103541	0.250188
H723	H	1.276886	0.146459	0.500188
H724	H	1.526886	0.396459	0.750188
H725	H	0.744759	-0.385927	0.059864
H726	H	0.994759	-0.135927	0.309864
H727	H	1.244759	0.114073	0.559864
H728	H	1.494759	0.364073	0.809864
H729	H	0.744756	-0.385918	-0.059493
H730	H	0.994756	-0.135918	0.190507
H731	H	1.244756	0.114082	0.440507
H732	H	1.494756	0.364082	0.690507
H733	H	0.710485	-0.308994	0.059873
H734	H	0.960485	-0.058994	0.309873
H735	H	1.210485	0.191006	0.559873
H736	H	1.460485	0.441006	0.809873
H737	H	0.710485	-0.308975	-0.059494
H738	H	0.960485	-0.058975	0.190506
H739	H	1.210485	0.191025	0.440506
H740	H	1.460485	0.441025	0.690506
H741	H	0.447706	-0.299603	0.000064
H742	H	0.697706	-0.049603	0.250064
H743	H	0.947706	0.200397	0.500064
H744	H	1.197706	0.450397	0.750064
C745	C	0.709784	-0.463562	-0.087792
C746	C	0.959784	-0.213562	0.162208
C747	C	1.209784	0.036438	0.412208
C748	C	1.459784	0.286438	0.662208
C749	C	0.707372	-0.434210	0.000179
C750	C	0.957372	-0.184210	0.250179
C751	C	1.207372	0.065790	0.500179
C752	C	1.457372	0.315790	0.750179
H753	H	0.739530	-0.484785	-0.087779
H754	H	0.989530	-0.234785	0.162221
H755	H	1.239530	0.015215	0.412221
H756	H	1.489530	0.265215	0.662221
H757	H	0.683316	-0.482173	-0.087795
H758	H	0.933316	-0.232173	0.162205
H759	H	1.183316	0.017827	0.412205
H760	H	1.433316	0.267827	0.662205
H761	H	0.708151	-0.443632	-0.147465
H762	H	0.958151	-0.193632	0.102535
H763	H	1.208151	0.056368	0.352535
H764	H	1.458151	0.306368	0.602535
H765	H	0.709002	-0.454140	0.059853
H766	H	0.959002	-0.204140	0.309853
H767	H	1.209002	0.045860	0.559853
H768	H	1.459002	0.295860	0.809853
H769	H	0.733848	-0.415598	0.000192
H770	H	0.983848	-0.165598	0.250192
H771	H	1.233848	0.084402	0.500192
H772	H	1.483848	0.334402	0.750192
H773	H	0.647841	-0.710911	0.000149
H774	H	0.897841	-0.460911	0.250149
H775	H	1.147841	-0.210911	0.500149
H776	H	1.397841	0.039089	0.750149
C777	C	0.436383	-0.707370	0.000085
C778	C	0.686383	-0.457370	0.250085
C779	C	0.936383	-0.207370	0.500085
C780	C	1.186383	0.042630	0.750085
C781	C	0.475400	-0.679929	0.000088
C782	C	0.725400	-0.429929	0.250088
C783	C	0.975400	-0.179929	0.500088
C784	C	1.225400	0.070071	0.750088
H785	H	0.406641	-0.686141	0.000091
H786	H	0.656641	-0.436141	0.250091
H787	H	0.906641	-0.186141	0.500091
H788	H	1.156641	0.063859	0.750091
H789	H	0.438020	-0.727278	-0.059591
H790	H	0.688020	-0.477278	0.190409
H791	H	0.938020	-0.227278	0.440409
H792	H	1.188020	0.022722	0.690409
H793	H	0.438025	-0.727295	0.059766
H794	H	0.688025	-0.477295	0.309766
H795	H	0.938025	-0.227295	0.559766
H796	H	1.188025	0.022705	0.809766
H797	H	0.473761	-0.660006	-0.059596
H798	H	0.723761	-0.410006	0.190404
H799	H	0.973761	-0.160006	0.440404
H800	H	1.223761	0.089994	0.690404
H801	H	0.473763	-0.660012	0.059771
H802	H	0.723763	-0.410012	0.309771
H803	H	0.973763	-0.160012	0.559771
H804	H	1.223763	0.089988	0.809771
H805	H	0.446774	-0.391054	0.000058
H806	H	0.696774	-0.141054	0.250058
H807	H	0.946774	0.108946	0.500058
H808	H	1.196774	0.358946	0.750058
