data_functionalizedCrystal
_audit_creation_method	'MofGen! by Chris Wilmer'
_symmetry_space_group_name_H-M	'P1'
_symmetry_Int_Tables_number	1
_symmetry_cell_setting	triclinic
loop_
_symmetry_equiv_pos_as_xyz
  x,y,z
_cell_length_a	11.169417
_cell_length_b	11.169416
_cell_length_c	11.169417
_cell_angle_alpha	89.993855
_cell_angle_beta	89.999137
_cell_angle_gamma	90.011219
loop_
_atom_site_label
_atom_site_type_symbol
_atom_site_fract_x
_atom_site_fract_y
_atom_site_fract_z
Zn1	Zn	-1.834738	0.477975	0.678554
Zn2	Zn	-1.501404	0.811308	1.011888
Zn3	Zn	-1.168071	1.144641	1.345221
Zn4	Zn	-1.834693	0.678629	0.477877
Zn5	Zn	-1.501360	1.011962	0.811210
Zn6	Zn	-1.168027	1.345295	1.144543
Zn7	Zn	-1.634090	0.477961	0.477889
Zn8	Zn	-1.300757	0.811295	0.811222
Zn9	Zn	-0.967423	1.144628	1.144556
Zn10	Zn	-1.634031	0.678618	0.678521
Zn11	Zn	-1.300698	1.011951	1.011855
Zn12	Zn	-0.967364	1.345284	1.345188
O13	O	-1.734388	0.578296	0.578210
O14	O	-1.401055	0.911629	0.911544
O15	O	-1.067721	1.244962	1.244877
O16	O	-2.002682	0.504602	0.651943
O17	O	-1.669348	0.837936	0.985276
O18	O	-1.336015	1.171269	1.318609
O19	O	-1.808089	0.652009	0.309929
O20	O	-1.474756	0.985342	0.643262
O21	O	-1.141423	1.318675	0.976595
O22	O	-1.660750	0.310013	0.504527
O23	O	-1.327416	0.643347	0.837860
O24	O	-0.994083	0.976680	1.171193
O25	O	-2.002649	0.652022	0.504506
O26	O	-1.669316	0.985355	0.837839
O27	O	-1.335982	1.318688	1.171172
O28	O	-1.808164	0.310023	0.651955
O29	O	-1.474831	0.643357	0.985288
O30	O	-1.141498	0.976690	1.318621
O31	O	-1.660707	0.504579	0.309938
O32	O	-1.327373	0.837913	0.643271
O33	O	-0.994040	1.171246	0.976604
O34	O	-1.466133	0.504568	0.504495
O35	O	-1.132799	0.837902	0.837828
O36	O	-0.799466	1.171235	1.171161
O37	O	-1.660649	0.652003	0.846475
O38	O	-1.327316	0.985336	1.179809
O39	O	-0.993982	1.318670	1.513142
O40	O	-1.466089	0.651990	0.651898
O41	O	-1.132756	0.985323	0.985232
O42	O	-0.799423	1.318656	1.318565
O43	O	-1.808107	0.504591	0.846500
O44	O	-1.474774	0.837925	1.179833
O45	O	-1.141441	1.171258	1.513166
O46	O	-1.808032	0.846577	0.504473
O47	O	-1.474699	1.179910	0.837807
O48	O	-1.141365	1.513244	1.171140
O49	O	-1.660606	0.846569	0.651886
O50	O	-1.327273	1.179902	0.985220
O51	O	-0.993940	1.513235	1.318553
C52	C	-1.422563	0.578277	0.578195
C53	C	-1.089230	0.911611	0.911528
C54	C	-0.755897	1.244944	1.244861
C55	C	-1.289163	0.578298	0.578217
C56	C	-0.955830	0.911632	0.911550
C57	C	-0.622497	1.244965	1.244883
C58	C	-1.734341	0.890120	0.578201
C59	C	-1.401007	1.223454	0.911534
C60	C	-1.067674	1.556787	1.244868
C61	C	-1.734430	1.023520	0.578237
C62	C	-1.401097	1.356854	0.911571
C63	C	-1.067763	1.690187	1.244904
C64	C	-1.734377	0.578297	0.891253
C65	C	-1.401043	0.911631	1.224586
C66	C	-1.067710	1.244964	1.557919
C67	C	-1.734372	0.578298	1.024653
C68	C	-1.401038	0.911632	1.357986
C69	C	-1.067705	1.244965	1.691319
C70	C	-2.047430	0.578315	0.578226
C71	C	-1.714097	0.911648	0.911560
C72	C	-1.380764	1.244981	1.244893
C73	C	-2.180830	0.578323	0.578233
C74	C	-1.847497	0.911656	0.911567
C75	C	-1.514164	1.244990	1.244900
C76	C	-1.734469	0.265253	0.578246
C77	C	-1.401135	0.598587	0.911579
C78	C	-1.067802	0.931920	1.244912
C79	C	-1.734503	0.131853	0.578261
C80	C	-1.401169	0.465187	0.911594
C81	C	-1.067836	0.798520	1.244927
C82	C	-1.734385	0.578316	1.266386
C83	C	-1.401052	0.911649	1.599719
C84	C	-1.067719	1.244982	1.933052
C85	C	-1.734375	0.578300	1.132986
C86	C	-1.401042	0.911633	1.466319
C87	C	-1.067708	1.244967	1.799652
