data_functionalizedCrystal
_audit_creation_method	'MofGen! by Chris Wilmer'
_symmetry_space_group_name_H-M	'P1'
_symmetry_Int_Tables_number	1
_symmetry_cell_setting	triclinic
loop_
_symmetry_equiv_pos_as_xyz
  x,y,z
_cell_length_a	19.288864
_cell_length_b	9.130313
_cell_length_c	19.288874
_cell_angle_alpha	90.001753
_cell_angle_beta	83.138236
_cell_angle_gamma	90.014070
loop_
_atom_site_label
_atom_site_type_symbol
_atom_site_fract_x
_atom_site_fract_y
_atom_site_fract_z
O1	O	0.921347	0.122271	0.086644
O2	O	0.719087	0.122171	0.098333
O3	O	0.826058	0.122212	-0.008641
O4	O	0.814376	0.122229	0.193618
O5	O	0.826057	-0.121387	-0.008638
O6	O	0.719086	-0.121428	0.098336
O7	O	0.921346	-0.121328	0.086647
Cu8	Cu	0.820216	-0.143621	0.092492
Cu9	Cu	0.820217	0.144463	0.092488
O10	O	0.814375	-0.121370	0.193621
C11	C	0.693210	0.000358	0.097958
C12	C	0.616106	0.000320	0.096829
N13	N	0.820220	-0.346243	0.092494
C14	C	0.571412	0.000348	0.159597
C15	C	0.498965	0.000364	0.158536
C16	C	0.471215	0.000382	0.094704
C17	C	0.515919	0.000345	0.031928
C18	C	0.588365	0.000314	0.032991
C19	C	0.362952	0.085770	0.044524
C20	C	0.290508	0.085810	0.043465
C21	C	0.247770	0.000470	0.091425
C22	C	0.277484	-0.084891	0.140456
C23	C	0.349929	-0.084922	0.141519
C24	C	0.392661	0.000414	0.093545
C25	C	0.124520	0.000514	0.153046
C26	C	0.052071	0.000521	0.151983
C27	C	0.069027	0.000516	0.025374
C28	C	0.141474	0.000494	0.026439
C29	C	0.169215	0.000500	0.090277
C30	C	0.867598	-0.422877	0.045141
C31	C	0.867597	-0.576214	0.045133
C32	C	0.772835	-0.576270	0.139835
C33	C	0.772834	-0.422936	0.139840
C34	C	0.922310	-0.422846	-0.009532
C35	C	0.922308	-0.576183	-0.009541
C36	C	0.947223	0.000487	0.087022
C37	C	1.024327	0.000535	0.088151
C38	C	0.825680	0.000413	-0.034516
C39	C	0.824549	0.000413	-0.111619
N40	N	0.820219	0.347086	0.092481
C41	C	0.816422	-0.132341	-0.667187
C42	C	0.817478	-0.132349	-0.594739
C43	C	0.818010	0.000436	-0.558510
C44	C	0.817468	0.133237	-0.594732
C45	C	0.816405	0.133241	-0.667177
C46	C	0.860376	0.102183	-0.449180
C47	C	0.861443	0.102174	-0.376736
C48	C	0.821285	0.000430	-0.335064
C49	C	0.780069	-0.101330	-0.365845
C50	C	0.779006	-0.101326	-0.438290
C51	C	0.819162	0.000447	-0.479955
C52	C	0.822967	-0.132371	-0.220294
C53	C	0.824018	-0.132373	-0.147844
C54	C	0.824015	0.133217	-0.147839
C55	C	0.822957	0.133215	-0.220286
C56	C	0.822436	0.000417	-0.256510
C57	C	0.814753	0.000433	0.219496
C58	C	0.815884	0.000443	0.296599
H59	H	0.593994	0.000356	0.211579
Cl60	Cl	0.644555	0.000280	-0.045924
H61	H	0.745447	-0.184183	-0.463349
H62	H	0.906027	-0.623743	-0.059797
Cl63	Cl	0.904971	-0.358594	-0.091747
H64	H	0.815966	0.241373	-0.696661
Cl65	Cl	0.713262	-0.326595	0.199360
H66	H	0.734255	-0.638729	0.178383
H67	H	0.374119	-0.154430	0.181440
Cl68	Cl	0.197664	0.000467	-0.052474
Cl69	Cl	0.818162	-0.299290	-0.549205
Cl70	Cl	0.481035	0.000358	-0.048317
Cl71	Cl	0.999864	-0.349365	0.015676
H72	H	0.815997	-0.240476	-0.696676
Cl73	Cl	0.442768	0.000397	0.237450
Cl74	Cl	0.223764	-0.192183	0.200754
H75	H	0.822523	0.241342	-0.249772
H76	H	0.975550	-0.617771	0.001729
H77	H	0.747370	-0.184184	-0.331916
H78	H	0.266320	0.155322	0.003543
H79	H	0.822536	-0.240503	-0.249788
H80	H	0.147108	0.000497	0.205027
Cl81	Cl	0.824681	-0.299318	-0.102316
Cl82	Cl	0.824656	0.300148	-0.102296
Cl83	Cl	-0.004117	0.000549	0.230899
H84	H	0.895007	0.185027	-0.351680
Cl85	Cl	0.034149	0.000520	-0.054873
H86	H	0.893074	0.185052	-0.483104
Cl87	Cl	0.818140	0.300166	-0.549187
H88	H	0.397744	0.155273	0.005468
