data_functionalizedCrystal
_audit_creation_method	'MofGen! by Chris Wilmer'
_symmetry_space_group_name_H-M	'P1'
_symmetry_Int_Tables_number	1
_symmetry_cell_setting	triclinic
loop_
_symmetry_equiv_pos_as_xyz
  x,y,z
_cell_length_a	10.654550
_cell_length_b	11.792241
_cell_length_c	9.130313
_cell_angle_alpha	89.995332
_cell_angle_beta	89.999724
_cell_angle_gamma	84.339173
loop_
_atom_site_label
_atom_site_type_symbol
_atom_site_fract_x
_atom_site_fract_y
_atom_site_fract_z
O1	O	1.667388	0.159420	-0.121691
O2	O	1.301867	0.174608	-0.121718
O3	O	1.493498	0.001864	-0.121693
O4	O	1.475758	0.332164	-0.121715
O5	O	1.493485	0.001859	0.121906
O6	O	1.301854	0.174603	0.121881
O7	O	1.667375	0.159415	0.121908
Cu8	Cu	1.484613	0.167009	0.144137
Cu9	Cu	1.484629	0.167015	-0.143947
O10	O	1.475744	0.332159	0.121884
C11	C	1.255066	0.173491	0.000078
C12	C	1.115632	0.170154	0.000068
C13	C	1.492377	-0.040432	0.000106
C14	C	1.489042	-0.166453	0.000104
C15	C	1.035859	0.271863	0.000066
C16	C	0.904847	0.268721	0.000092
C17	C	0.933394	0.062152	0.000116
C18	C	1.064403	0.065295	0.000101
C19	C	1.482908	-0.397180	0.000079
C20	C	1.486316	-0.268787	0.000093
C21	C	1.714177	0.160533	0.000109
C22	C	1.853611	0.163869	0.000109
C23	C	1.476865	0.374455	0.000082
C24	C	1.480201	0.500477	0.000074
N25	N	1.484612	0.167004	0.346760
N26	N	1.484641	0.167011	-0.346569
C27	C	1.569495	0.090545	0.423422
C28	C	1.569507	0.090545	0.576759
C29	C	1.399749	0.243473	0.576757
C30	C	1.399732	0.243466	0.423423
H31	H	0.839900	0.351543	0.000092
O32	O	1.317256	0.317594	0.651396
C33	C	1.239364	0.256157	0.740092
H34	H	1.288787	0.167760	0.763068
H35	H	1.146489	0.247663	0.681020
C36	C	1.152275	0.428503	0.857517
C37	C	1.212981	0.319935	0.885748
H38	H	1.135995	0.467845	0.947363
H39	H	1.204748	0.469895	0.797758
H40	H	1.074885	0.421408	0.808287
H41	H	1.290376	0.327031	0.934960
H42	H	1.160520	0.278545	0.945519
O43	O	0.883566	-0.039673	-0.000125
C44	C	0.808607	-0.047657	-0.126262
H45	H	0.839984	0.011900	-0.214450
H46	H	0.705484	-0.022290	-0.097733
C47	C	0.785102	-0.244248	-0.075144
C48	C	0.823648	-0.171105	-0.183463
H49	H	0.794375	-0.320397	-0.110426
H50	H	0.835600	-0.238869	0.009840
H51	H	0.699170	-0.223095	-0.051380
H52	H	0.909583	-0.192250	-0.207212
H53	H	0.773165	-0.176491	-0.268453
H54	H	1.129359	-0.017534	0.000107
O55	O	1.651982	0.016156	0.349177
C56	C	1.726923	-0.051309	0.449731
H57	H	1.675437	-0.053017	0.559040
H58	H	1.820465	-0.013670	0.466017
C59	C	1.815210	-0.171444	0.255654
C60	C	1.751969	-0.173550	0.389907
H61	H	1.830666	-0.246846	0.218751
H62	H	1.764725	-0.125989	0.187908
H63	H	1.893155	-0.140073	0.269245
H64	H	1.674020	-0.204907	0.376312
H65	H	1.802442	-0.219013	0.457650
O66	O	1.317226	0.317853	0.349170
C67	C	1.242298	0.385330	0.449712
H68	H	1.293803	0.387057	0.559006
H69	H	1.148762	0.347688	0.466042
C70	C	1.153969	0.505432	0.255601
C71	C	1.217233	0.507561	0.389836
H72	H	1.138501	0.580828	0.218666
H73	H	1.204445	0.459969	0.187863
H74	H	1.076029	0.474058	0.269228
H75	H	1.295177	0.538921	0.376204
H76	H	1.166769	0.553031	0.457570
H77	H	1.077564	0.357246	0.000050
H78	H	1.638624	0.028284	0.639174
