data_functionalizedCrystal
_audit_creation_method	'MofGen! by Chris Wilmer'
_symmetry_space_group_name_H-M	'P1'
_symmetry_Int_Tables_number	1
_symmetry_cell_setting	triclinic
loop_
_symmetry_equiv_pos_as_xyz
  x,y,z
_cell_length_a	12.759393
_cell_length_b	12.759401
_cell_length_c	12.759399
_cell_angle_alpha	89.983359
_cell_angle_beta	89.967969
_cell_angle_gamma	90.019837
loop_
_atom_site_label
_atom_site_type_symbol
_atom_site_fract_x
_atom_site_fract_y
_atom_site_fract_z
Zn1	Zn	-0.594017	-1.606252	-0.418161
Zn2	Zn	-0.094017	-1.106252	0.081839
Zn3	Zn	-0.418336	-1.606145	-0.593880
Zn4	Zn	0.081664	-1.106145	-0.093880
Zn5	Zn	-0.418352	-1.430554	-0.418220
Zn6	Zn	0.081648	-0.930554	0.081780
Zn7	Zn	-0.593973	-1.430541	-0.593803
Zn8	Zn	-0.093973	-0.930541	-0.093803
O9	O	-0.506170	-1.518373	-0.506016
O10	O	-0.006170	-1.018373	-0.006016
O11	O	-0.570724	-1.753259	-0.441478
O12	O	-0.070724	-1.253259	0.058522
O13	O	-0.271317	-1.582813	-0.570635
O14	O	0.228683	-1.082813	-0.070635
O15	O	-0.441680	-1.453911	-0.271191
O16	O	0.058320	-0.953911	0.228809
O17	O	-0.441652	-1.753180	-0.570578
O18	O	0.058348	-1.253180	-0.070578
O19	O	-0.570740	-1.582995	-0.271148
O20	O	-0.070740	-1.082995	0.228852
O21	O	-0.271329	-1.453807	-0.441579
O22	O	0.228671	-0.953807	0.058421
O23	O	-0.441637	-1.283531	-0.441505
O24	O	0.058363	-0.783531	0.058495
O25	O	-0.741000	-1.453889	-0.570447
O26	O	-0.241000	-0.953889	-0.070447
O27	O	-0.570665	-1.283522	-0.570504
O28	O	-0.070665	-0.783522	-0.070504
O29	O	-0.741032	-1.582983	-0.441403
O30	O	-0.241032	-1.082983	0.058597
O31	O	-0.441609	-1.582801	-0.740891
O32	O	0.058391	-1.082801	-0.240891
O33	O	-0.570649	-1.453785	-0.740834
O34	O	-0.070649	-0.953785	-0.240834
C35	C	-0.506149	-1.245406	-0.506003
C36	C	-0.006149	-0.745406	-0.006003
C37	C	-0.506165	-1.128629	-0.506023
C38	C	-0.006165	-0.628629	-0.006023
C39	C	-0.506146	-1.518309	-0.778984
C40	C	-0.006146	-1.018309	-0.278984
C41	C	-0.506171	-1.518377	-0.895760
C42	C	-0.006171	-1.018377	-0.395760
C43	C	-0.780203	-1.518446	-0.505910
C44	C	-0.280203	-1.018446	-0.005910
C45	C	-0.896980	-1.518478	-0.505865
C46	C	-0.396980	-1.018478	-0.005865
C47	C	-0.951848	-1.451328	-0.438653
C48	C	-0.451848	-0.951328	0.061347
C49	C	-1.061572	-1.451353	-0.438620
C50	C	-0.561572	-0.951353	0.061380
C51	C	-1.061551	-1.585685	-0.573015
C52	C	-0.561551	-1.085685	-0.073015
C53	C	-0.951829	-1.585654	-0.573052
C54	C	-0.451829	-1.085654	-0.073052
C55	C	-0.233202	-1.518360	-0.506046
C56	C	0.266798	-1.018360	-0.006046
C57	C	-0.116426	-1.518533	-0.505796
C58	C	0.383574	-1.018533	-0.005796
C59	C	-0.506191	-1.792406	-0.506030
C60	C	-0.006191	-1.292406	-0.006030
C61	C	-0.506200	-1.909183	-0.506036
C62	C	-0.006200	-1.409183	-0.006036
C63	C	-0.573244	-1.073790	-0.573296
C64	C	-0.073244	-0.573790	-0.073296
C65	C	-0.573265	-0.964066	-0.573300
C66	C	-0.073265	-0.464066	-0.073300
C67	C	-0.439118	-0.964030	-0.438756
C68	C	0.060882	-0.464030	0.061244
C69	C	-0.439104	-1.073752	-0.438747
C70	C	0.060896	-0.573752	0.061253
C71	C	-0.439056	-1.585632	-0.950617
C72	C	0.060944	-1.085632	-0.450617
C73	C	-0.439091	-1.585700	-1.060341
C74	C	0.060909	-1.085700	-0.560341
C75	C	-0.573359	-1.451248	-1.060342
C76	C	-0.073359	-0.951248	-0.560342
C77	C	-0.573328	-1.451187	-0.950620
C78	C	-0.073328	-0.951187	-0.450620
C79	C	-0.506217	-1.518466	-0.231983
C80	C	-0.006217	-1.018466	0.268017
C81	C	-0.506237	-1.518506	-0.115206
C82	C	-0.006237	-1.018506	0.384794
H83	H	-0.907193	-1.396629	-0.383945
H84	H	-0.407193	-0.896629	0.116055
F85	F	-0.367750	-0.905617	-0.367161
F86	F	0.132250	-0.405617	0.132839
H87	H	-1.106240	-1.396672	-0.383891
H88	H	-0.606240	-0.896672	0.116109
F89	F	-0.367583	-1.657144	-0.892234
F90	F	0.132417	-1.157144	-0.392234
F91	F	-0.644769	-1.379606	-0.892234
F92	F	-0.144769	-0.879606	-0.392234
H93	H	-0.384480	-1.118403	-0.383959
H94	H	0.115520	-0.618403	0.116041
H95	H	-1.106222	-1.640379	-0.627715
H96	H	-0.606222	-1.140379	-0.127715
F97	F	-0.644619	-1.132190	-0.644894
F98	F	-0.144619	-0.632190	-0.144894
F99	F	-0.893431	-1.657124	-0.644596
F100	F	-0.393431	-1.157124	-0.144596
F101	F	-0.367661	-1.657284	-1.118718
F102	F	0.132339	-1.157284	-0.618718
H103	H	-0.627889	-0.919420	-0.628078
H104	H	-0.127889	-0.419420	-0.128078
H105	H	-0.628034	-1.396543	-1.105022
H106	H	-0.128034	-0.896543	-0.605022
