data_functionalizedCrystal
_audit_creation_method	'MofGen! by Chris Wilmer'
_symmetry_space_group_name_H-M	'P1'
_symmetry_Int_Tables_number	1
_symmetry_cell_setting	triclinic
loop_
_symmetry_equiv_pos_as_xyz
  x,y,z
_cell_length_a	19.288840
_cell_length_b	8.965430
_cell_length_c	19.288865
_cell_angle_alpha	90.004806
_cell_angle_beta	83.131131
_cell_angle_gamma	90.011013
loop_
_atom_site_label
_atom_site_type_symbol
_atom_site_fract_x
_atom_site_fract_y
_atom_site_fract_z
O1	O	0.921359	0.124305	0.086560
O2	O	0.719096	0.124256	0.098267
O3	O	0.826072	0.124253	-0.008718
O4	O	0.814383	0.124309	0.193544
O5	O	0.826063	-0.123826	-0.008711
O6	O	0.719087	-0.123823	0.098274
O7	O	0.921350	-0.123773	0.086567
Cu8	Cu	0.820218	-0.146450	0.092421
Cu9	Cu	0.820229	0.146932	0.092412
O10	O	0.814374	-0.123770	0.193551
C11	C	0.693215	0.000210	0.097896
C12	C	0.616110	0.000190	0.096774
N13	N	0.820215	-0.352799	0.092426
C14	C	0.579912	0.135421	0.096231
C15	C	0.507465	0.135439	0.095169
C16	C	0.471221	0.000218	0.094636
C17	C	0.507428	-0.135031	0.095183
C18	C	0.579873	-0.135045	0.096252
C19	C	0.361890	-0.103371	0.052261
C20	C	0.289447	-0.103352	0.051188
C21	C	0.247778	0.000256	0.091342
C22	C	0.278561	0.103869	0.132561
C23	C	0.351005	0.103855	0.133630
C24	C	0.392667	0.000218	0.093477
C25	C	0.133024	0.135516	0.089649
C26	C	0.060575	0.135529	0.088591
C27	C	0.060540	-0.134946	0.088598
C28	C	0.132987	-0.134954	0.089662
C29	C	0.169225	0.000281	0.090185
C30	C	0.770728	-0.450103	0.141887
C31	C	0.833453	-0.549497	0.155163
C32	C	0.757517	-0.549533	0.079156
C33	C	0.882972	-0.450003	0.105733
C34	C	0.806995	-0.450031	0.029700
C35	C	0.869766	-0.549379	0.042949
C36	C	0.947232	0.000276	0.086937
C37	C	1.024336	0.000306	0.088059
C38	C	0.825692	0.000209	-0.034591
C39	C	0.824563	0.000195	-0.111694
N40	N	0.820237	0.353281	0.092401
C41	C	0.887331	0.000203	-0.156396
C42	C	0.886270	0.000227	-0.228843
C43	C	0.822438	0.000212	-0.256585
C44	C	0.759661	0.000212	-0.211873
C45	C	0.760723	0.000204	-0.139428
C46	C	0.772254	-0.086697	-0.364865
C47	C	0.771194	-0.086698	-0.437310
C48	C	0.819158	0.000245	-0.480030
C49	C	0.868193	0.087168	-0.450299
C50	C	0.869256	0.087160	-0.377854
C51	C	0.821278	0.000222	-0.335139
C52	C	0.880781	0.000280	-0.603288
C53	C	0.879717	0.000313	-0.675736
C54	C	0.753106	0.000283	-0.658764
C55	C	0.754171	0.000266	-0.586318
C56	C	0.818010	0.000257	-0.558584
C57	C	0.814755	0.000277	0.219424
C58	C	0.815884	0.000300	0.296527
H59	H	0.609412	0.245540	0.096657
H60	H	0.162461	-0.245075	0.090100
H61	H	0.733195	-0.157504	-0.330087
N62	N	0.715342	-0.392369	0.197341
H63	H	0.737885	-0.328810	0.231639
H64	H	0.680529	-0.330457	0.174702
N65	N	0.953233	-0.392350	0.120679
H66	H	0.985063	-0.479247	0.127415
H67	H	0.974450	-0.329509	0.080132
H68	H	0.911670	-0.592696	0.001108
H69	H	0.609345	-0.245171	0.096695
H70	H	0.844650	-0.593187	0.208199
N71	N	0.947424	0.000317	-0.723950
H72	H	0.949796	-0.091639	-0.754393
H73	H	0.949775	0.092348	-0.754333
N74	N	0.021531	0.281396	0.088000
H75	H	-0.029862	0.260888	0.087246
H76	H	0.028431	0.340470	0.131231
N77	N	0.468225	-0.280674	0.094268
H78	H	0.432260	-0.286953	0.136757
H79	H	0.444128	-0.285876	0.050638
N80	N	0.468410	0.281301	0.094585
H81	H	0.502359	0.366967	0.095079
H82	H	0.444128	0.287172	0.051090
H83	H	0.907249	0.157966	-0.485081
N84	N	0.233627	0.215629	0.175872
H85	H	0.248285	0.320021	0.160861
H86	H	0.183078	0.199783	0.168925
N87	N	0.687269	-0.607432	0.064301
H88	H	0.676889	-0.569696	0.017296
H89	H	0.687979	-0.720071	0.063989
N90	N	0.172115	0.281367	0.090215
H91	H	0.138186	0.367042	0.089716
H92	H	0.196403	0.287261	0.133706
N93	N	0.686470	0.000248	-0.538098
H94	H	0.645870	0.000242	-0.566663
H95	H	0.684150	-0.091722	-0.507676
N96	N	0.384210	0.215599	0.178081
H97	H	0.346825	0.281243	0.203357
H98	H	0.409600	0.161000	0.213276
H99	H	0.031031	-0.245046	0.088168
N100	N	0.718312	-0.180465	-0.469367
H101	H	0.669628	-0.148021	-0.450209
H102	H	0.724977	-0.167250	-0.521739
N103	N	0.256248	-0.215091	0.006730
H104	H	0.293636	-0.280740	-0.018539
H105	H	0.221994	-0.278694	0.037497
H106	H	0.795778	-0.406306	-0.023319
H107	H	0.701132	0.000279	-0.681351
N108	N	0.693024	0.000185	-0.091203
H109	H	0.665165	0.092143	-0.100090
H110	H	0.665214	-0.091843	-0.100129
H111	H	0.707687	0.000204	-0.234465
H112	H	0.395812	-0.187748	0.019561
H113	H	0.939314	0.000201	-0.133820
N114	N	0.953973	0.000238	-0.277070
H115	H	0.994575	0.000234	-0.248507
H116	H	0.956279	-0.091726	-0.307501
N117	N	0.922137	0.180907	-0.345784
H118	H	0.952363	0.235989	-0.383835
H119	H	0.897018	0.255132	-0.312296
N120	N	0.949631	0.000277	-0.573368
H121	H	0.989236	0.000298	-0.612683
H122	H	0.952833	0.092235	-0.543671
