data_functionalizedCrystal
_audit_creation_method	'MofGen! by Chris Wilmer'
_symmetry_space_group_name_H-M	'P1'
_symmetry_Int_Tables_number	1
_symmetry_cell_setting	triclinic
loop_
_symmetry_equiv_pos_as_xyz
  x,y,z
_cell_length_a	16.109302
_cell_length_b	15.538191
_cell_length_c	15.186229
_cell_angle_alpha	89.999546
_cell_angle_beta	89.994701
_cell_angle_gamma	65.366938
loop_
_atom_site_label
_atom_site_type_symbol
_atom_site_fract_x
_atom_site_fract_y
_atom_site_fract_z
O1	O	1.066615	0.121097	-0.073258
O2	O	0.820009	0.136166	-0.073250
O3	O	0.991316	-0.008513	-0.073260
O4	O	0.895308	0.265775	-0.073248
O5	O	0.991308	-0.008515	0.073198
O6	O	0.820001	0.136164	0.073207
O7	O	1.066607	0.121095	0.073199
Zn8	Zn	0.943303	0.128629	0.096456
Zn9	Zn	0.943313	0.128632	-0.096507
O10	O	0.895300	0.265773	0.073209
C11	C	0.789214	0.135554	-0.000020
C12	C	0.697471	0.133724	-0.000018
C13	C	0.486402	0.129490	0.079807
C14	C	0.400204	0.127760	0.079804
C15	C	0.400221	0.127767	-0.079872
C16	C	0.486421	0.129491	-0.079868
C17	C	0.529507	0.130357	-0.000026
C18	C	0.357109	0.126904	-0.000033
C19	C	0.263649	0.125028	-0.000037
C20	C	0.622974	0.132231	-0.000021
C21	C	1.001357	-0.043612	-0.000034
C22	C	1.031277	-0.148195	-0.000044
C23	C	0.734025	-0.435895	-0.000015
C24	C	0.762160	-0.534170	-0.000014
C25	C	0.920418	-0.556661	-0.000020
C26	C	0.892296	-0.458386	-0.000025
C27	C	0.799098	-0.398011	-0.000022
C28	C	0.957369	-0.420502	-0.000032
C29	C	0.929248	-0.322236	-0.000033
C30	C	0.836054	-0.261855	-0.000027
C31	C	0.770977	-0.299745	-0.000023
C32	C	1.050566	-0.480879	-0.000029
C33	C	1.115639	-0.442995	-0.000036
C34	C	1.087519	-0.344727	-0.000043
C35	C	0.994325	-0.284346	-0.000037
C36	C	1.152596	-0.306837	-0.000047
C37	C	1.124475	-0.208571	-0.000047
C38	C	0.966204	-0.186080	-0.000037
C39	C	1.097402	0.121706	-0.000032
C40	C	1.189145	0.123537	-0.000041
N41	N	0.943302	0.128626	0.228149
C42	C	0.885259	0.300873	-0.000018
C43	C	0.855339	0.405456	-0.000014
N44	N	0.943323	0.128626	-0.228200
C45	C	1.019169	0.064584	0.453868
C46	C	1.019173	0.064582	0.546057
C47	C	0.867449	0.192672	0.546075
C48	C	0.867444	0.192669	0.453887
C49	C	0.943308	0.128626	0.407786
C50	C	0.943317	0.128627	0.592163
C51	C	0.943320	0.128625	0.692120
C52	C	0.943305	0.128627	0.307823
H53	H	0.890313	-0.136918	-0.000041
C54	C	1.101599	-0.005058	0.403973
C55	C	1.168024	-0.061160	0.464066
C56	C	1.243966	-0.125337	0.418139
H57	H	1.126089	0.028729	0.368001
H58	H	1.083564	-0.044337	0.368035
H59	H	1.186059	-0.021886	0.499989
H60	H	1.143564	-0.094968	0.500041
H61	H	1.225931	-0.164616	0.382201
H62	H	1.268448	-0.091543	0.382168
H63	H	1.289041	-0.163416	0.458905
H64	H	0.695086	-0.250583	-0.000027
H65	H	0.805664	0.244820	0.416365
H66	H	1.080945	0.012432	0.583575
C67	C	0.353573	0.126676	0.166548
C68	C	0.408353	0.046106	0.214719
C69	C	0.365434	0.045080	0.294640
H70	H	0.296073	0.125474	0.155242
H71	H	0.344814	0.181836	0.199401
H72	H	0.417100	-0.009040	0.181872
H73	H	0.465852	0.047291	0.226048
H74	H	0.356676	0.100240	0.327494
H75	H	0.307935	0.043880	0.283325
H76	H	0.402600	-0.009581	0.327337
C77	C	0.805646	-0.155182	0.000109
C78	C	0.839473	-0.128792	0.075444
C79	C	0.811490	-0.030536	0.075592
H80	H	0.740838	-0.124538	0.000157
H81	H	0.828542	-0.137077	-0.050940
H82	H	0.816573	-0.146887	0.126479
H83	H	0.904279	-0.159412	0.075412
H84	H	0.834386	-0.012431	0.024544
H85	H	0.746682	0.000099	0.075638
H86	H	0.834445	-0.012619	0.126701
H87	H	0.805682	0.244815	0.583620
C88	C	0.632794	-0.370492	0.000022
C89	C	0.581818	-0.424698	0.000041
C90	C	0.488567	-0.364482	0.000085
H91	H	0.618422	-0.331674	-0.051039
H92	H	0.618486	-0.331700	0.051114
H93	H	0.596119	-0.463473	-0.051046
H94	H	0.596161	-0.463514	0.051097
H95	H	0.474259	-0.325690	0.051177
H96	H	0.474205	-0.325667	-0.050976
H97	H	0.453968	-0.401252	0.000106
H98	H	0.365130	0.127063	-0.144876
C99	C	0.533355	0.130274	0.166425
C100	C	0.616652	0.050272	0.171072
C101	C	0.659934	0.050965	0.250848
H102	H	0.495451	0.129461	0.214043
H103	H	0.544130	0.185823	0.169760
H104	H	0.605874	-0.005263	0.167745
H105	H	0.654579	0.051069	0.123472
H106	H	0.670710	0.106515	0.254184
H107	H	0.622023	0.050155	0.298460
H108	H	0.716460	-0.003310	0.254008
H109	H	0.521519	0.130194	-0.144881
H110	H	0.709163	-0.565010	0.000004
H111	H	0.996300	-0.605831	-0.000019
H112	H	1.073459	-0.560893	-0.000036
H113	H	1.191521	-0.492165	-0.000035
C114	C	1.253736	-0.372550	-0.000088
C115	C	1.264435	-0.466715	-0.000101
C116	C	1.357592	-0.527275	-0.000150
H117	H	1.281735	-0.361182	0.050968
H118	H	1.281672	-0.361130	-0.051184
H119	H	1.236511	-0.478131	0.050989
H120	H	1.236457	-0.478112	-0.051154
H121	H	1.385528	-0.515855	-0.051246
H122	H	1.385583	-0.515899	0.050907
H123	H	1.364863	-0.591172	-0.000167
C124	C	1.195263	-0.167614	-0.000109
C125	C	1.282900	-0.241520	-0.000141
C126	C	1.348133	-0.203827	-0.000209
H127	H	1.187706	-0.129758	0.050947
H128	H	1.187631	-0.129778	-0.051205
H129	H	1.290528	-0.279340	0.050950
H130	H	1.290486	-0.279382	-0.051194
H131	H	1.340501	-0.165990	-0.051305
H132	H	1.340567	-0.165971	0.050849
H133	H	1.407601	-0.253965	-0.000238
