data_functionalizedCrystal
_audit_creation_method	'MofGen! by Chris Wilmer'
_symmetry_space_group_name_H-M	'P1'
_symmetry_Int_Tables_number	1
_symmetry_cell_setting	triclinic
loop_
_symmetry_equiv_pos_as_xyz
  x,y,z
_cell_length_a	16.120484
_cell_length_b	16.959455
_cell_length_c	16.959447
_cell_angle_alpha	89.982129
_cell_angle_beta	92.870259
_cell_angle_gamma	92.924951
loop_
_atom_site_label
_atom_site_type_symbol
_atom_site_fract_x
_atom_site_fract_y
_atom_site_fract_z
Zn1	Zn	-0.331933	1.192421	-0.462858
Zn2	Zn	-0.471354	1.185621	-0.337375
Zn3	Zn	-0.331957	1.060241	-0.330696
Zn4	Zn	-0.471306	1.053501	-0.469510
O5	O	-0.401637	1.122946	-0.400110
O6	O	-0.350438	1.302129	-0.446223
O7	O	-0.452892	1.168963	-0.225879
O8	O	-0.215288	1.083441	-0.342648
O9	O	-0.452869	1.297133	-0.354032
O10	O	-0.215271	1.180553	-0.439747
O11	O	-0.350478	1.076847	-0.220972
O12	O	-0.350432	0.948736	-0.349098
O13	O	-0.452788	1.071954	-0.579237
O14	O	-0.452811	0.943784	-0.451085
O15	O	-0.350392	1.174018	-0.574350
O16	O	-0.588013	1.162428	-0.360482
O17	O	-0.587978	1.065360	-0.457562
C18	C	-0.401619	0.917580	-0.400089
C19	C	-0.401632	0.829723	-0.400100
C20	C	-0.454887	0.785850	-0.352025
C21	C	-0.348383	0.791043	-0.448182
C22	C	-0.348389	0.708496	-0.448192
C23	C	-0.401645	0.664623	-0.400117
C24	C	-0.454893	0.703296	-0.352031
C25	C	-0.295136	0.669818	-0.496271
C26	C	-0.295139	0.587267	-0.496282
C27	C	-0.348400	0.543391	-0.448210
C28	C	-0.401651	0.582069	-0.400123
C29	C	-0.454906	0.538196	-0.352048
C30	C	-0.508163	0.576872	-0.303965
C31	C	-0.508154	0.659421	-0.303959
C32	C	-0.348409	0.460843	-0.448215
C33	C	-0.454913	0.455642	-0.352054
C34	C	-0.618246	1.112446	-0.410486
C35	C	-0.710912	1.108027	-0.414952
C36	C	-0.880574	1.099963	-0.423121
C37	C	-0.921861	1.146070	-0.377112
C38	C	-1.016266	1.141583	-0.381657
C39	C	-0.786159	1.104449	-0.418576
C40	C	-0.184183	1.133508	-0.389710
C41	C	-0.091517	1.138008	-0.385278
C42	C	-0.401582	1.122993	-0.606275
C43	C	-0.401558	1.123013	-0.694131
C44	C	-0.401656	1.329113	-0.400131
C45	C	-0.401664	1.416969	-0.400140
C46	C	-0.454861	1.069883	-0.737951
C47	C	-0.348228	1.176157	-0.732863
C48	C	-0.348201	1.176175	-0.815408
C49	C	-0.401504	1.123045	-0.859228
C50	C	-0.454834	1.069898	-0.820503
C51	C	-0.294865	1.229315	-0.854139
C52	C	-0.294835	1.229335	-0.936688
C53	C	-0.348143	1.176208	-0.980510
C54	C	-0.401476	1.123059	-0.941780
C55	C	-0.454779	1.069930	-0.985600
C56	C	-0.508117	1.016784	-0.946872
C57	C	-0.508141	1.016771	-0.864324
C58	C	-0.348118	1.176221	-1.063057
C59	C	-0.454752	1.069944	-1.068152
C60	C	-0.401633	1.122947	-0.194743
C61	C	-0.401421	1.123092	-0.106877
H62	H	-0.551510	0.690918	-0.264811
N63	N	-0.565593	0.529549	-0.252104
H64	H	-0.557508	0.471387	-0.259404
H65	H	-0.625153	0.541089	-0.267167
N66	N	-0.512327	0.827557	-0.300166
H67	H	-0.504246	0.886509	-0.307455
H68	H	-0.499275	0.813737	-0.243110
H69	H	-0.498284	0.419926	-0.312908
N70	N	-0.927657	1.043204	-0.479807
H71	H	-0.912509	1.056143	-0.535582
H72	H	-0.989385	1.048028	-0.474985
N73	N	-0.874774	1.202818	-0.320408
H74	H	-0.889810	1.258588	-0.333444
H75	H	-0.813046	1.197951	-0.325183
H76	H	-0.305021	0.826769	-0.487320
N77	N	-0.237303	1.286645	-0.978456
H78	H	-0.203537	1.320296	-0.938170
H79	H	-0.271221	1.321589	-1.014338
H80	H	-0.498161	1.026682	-1.103825
N81	N	-0.565663	0.959449	-0.822558
H82	H	-0.604307	0.989691	-0.790159
H83	H	-0.531729	0.924470	-0.786726
H84	H	-0.251775	0.705545	-0.535408
H85	H	-0.551511	0.973522	-0.982560
N86	N	-0.512392	1.012567	-0.696187
H87	H	-0.504326	1.020618	-0.637244
H88	H	-0.499410	0.956747	-0.709985
H89	H	-0.304828	1.219409	-0.697180
N90	N	-0.237413	1.286648	-0.806881
H91	H	-0.245542	1.278588	-0.748712
H92	H	-0.250424	1.342457	-0.821965
H93	H	-0.305042	0.429356	-0.487357
H94	H	-0.304685	1.219486	-1.094586
H95	H	-0.251776	0.555784	-0.535435
