data_functionalizedCrystal
_audit_creation_method	'MofGen! by Chris Wilmer'
_symmetry_space_group_name_H-M	'P1'
_symmetry_Int_Tables_number	1
_symmetry_cell_setting	triclinic
loop_
_symmetry_equiv_pos_as_xyz
  x,y,z
_cell_length_a	19.121102
_cell_length_b	21.295417
_cell_length_c	19.120904
_cell_angle_alpha	87.591662
_cell_angle_beta	89.911827
_cell_angle_gamma	87.584620
loop_
_atom_site_label
_atom_site_type_symbol
_atom_site_fract_x
_atom_site_fract_y
_atom_site_fract_z
Zn1	Zn	1.054814	-0.307921	0.442032
Zn2	Zn	1.554814	0.192079	0.942032
Zn3	Zn	1.059724	-0.408895	0.324785
Zn4	Zn	1.559724	0.091105	0.824785
Zn5	Zn	0.942584	-0.298967	0.319816
Zn6	Zn	1.442584	0.201033	0.819816
Zn7	Zn	0.937535	-0.408472	0.436987
Zn8	Zn	1.437535	0.091528	0.936987
O9	O	0.998664	-0.356064	0.380905
O10	O	1.498664	0.143936	0.880905
O11	O	1.153571	-0.325239	0.430669
O12	O	1.653571	0.174761	0.930669
O13	O	1.048352	-0.390743	0.226021
O14	O	1.548352	0.109257	0.726021
O15	O	0.957530	-0.212069	0.336060
O16	O	1.457530	0.287931	0.836060
O17	O	1.157177	-0.399425	0.344528
O18	O	1.657177	0.100575	0.844528
O19	O	1.039985	-0.218647	0.425851
O20	O	1.539985	0.281353	0.925851
O21	O	0.962291	-0.309980	0.222371
O22	O	1.462291	0.190020	0.722371
O23	O	0.843809	-0.309569	0.331169
O24	O	1.343809	0.190431	0.831169
O25	O	0.948925	-0.398703	0.535761
O26	O	1.448925	0.101297	1.035761
O27	O	0.840100	-0.390022	0.417254
O28	O	1.340100	0.109978	0.917254
O29	O	1.035089	-0.324829	0.539467
O30	O	1.535089	0.175171	1.039467
O31	O	1.043456	-0.496925	0.339637
O32	O	1.543456	0.003075	0.839637
O33	O	0.953685	-0.496614	0.422072
O34	O	1.453685	0.003386	0.922072
C35	C	0.816517	-0.348778	0.373125
C36	C	1.316517	0.151222	0.873125
C37	C	0.738593	-0.345677	0.369814
C38	C	1.238593	0.154323	0.869814
C39	C	0.700074	-0.386166	0.413007
C40	C	1.200074	0.113834	0.913007
C41	C	0.626856	-0.383244	0.409899
C42	C	1.126856	0.116756	0.909899
C43	C	0.592158	-0.339836	0.363593
C44	C	1.092158	0.160164	0.863593
C45	C	0.630682	-0.299344	0.320398
C46	C	1.130682	0.200656	0.820398
C47	C	0.703899	-0.302263	0.323510
C48	C	1.203899	0.197737	0.823510
C49	C	0.371187	-0.328921	0.351961
C50	C	0.871187	0.171079	0.851961
C51	C	0.297965	-0.326006	0.348850
C52	C	0.797965	0.173994	0.848850
C53	C	0.294144	-0.409906	0.438353
C54	C	0.794144	0.090094	0.938353
C55	C	0.367362	-0.412824	0.441458
C56	C	0.867362	0.087176	0.941458
C57	C	0.405880	-0.372329	0.398265
C58	C	0.905880	0.127671	0.898265
C59	C	0.517318	-0.336850	0.360413
C60	C	1.017318	0.163150	0.860413
C61	C	0.480719	-0.375313	0.401449
C62	C	0.980719	0.124687	0.901449
C63	C	0.998574	-0.519610	0.380862
C64	C	1.498574	-0.019610	0.880862
C65	C	0.998599	-0.589580	0.380870
C66	C	1.498599	-0.089580	0.880870
C67	C	1.045380	-0.622590	0.337994
C68	C	1.545380	-0.122590	0.837994
C69	C	1.045413	-0.688335	0.338011
C70	C	1.545413	-0.188335	0.838011
C71	C	0.998651	-0.721065	0.380897
C72	C	1.498651	-0.221065	0.880897
C73	C	0.951865	-0.688046	0.423781
C74	C	1.451865	-0.188046	0.923781
C75	C	0.951839	-0.622304	0.423768
C76	C	1.451839	-0.122304	0.923768
N77	N	0.937094	-0.822078	0.383622
N78	N	1.437094	-0.322078	0.883622
N79	N	0.937121	-0.884530	0.383630
N80	N	1.437121	-0.384530	0.883630
C81	C	0.998728	-0.919144	0.380940
C82	C	1.498728	-0.419144	0.880940
N83	N	1.060308	-0.888946	0.378228
N84	N	1.560308	-0.388946	0.878228
N85	N	1.060281	-0.826487	0.378215
N86	N	1.560281	-0.326487	0.878215
C87	C	0.998674	-0.792352	0.380916
C88	C	1.498674	-0.292352	0.880916
C89	C	1.045548	-1.023443	0.338080
C90	C	1.545548	-0.523443	0.838080
C91	C	1.045581	-1.089189	0.338103
C92	C	1.545581	-0.589189	0.838103
C93	C	0.952028	-1.088899	0.423869
C94	C	1.452028	-0.588899	0.923869
C95	C	0.952001	-1.023154	0.423850
C96	C	1.452001	-0.523154	0.923850
C97	C	0.998760	-0.990430	0.380953
C98	C	1.498760	-0.490430	0.880953
C99	C	1.181523	-0.363378	0.388716
C100	C	1.681523	0.136622	0.888716
C101	C	1.259446	-0.366495	0.392044
C102	C	1.759446	0.133505	0.892044
C103	C	0.990896	-0.362718	0.563763
C104	C	1.490896	0.137282	1.063763
C105	C	0.987586	-0.365553	0.641686
C106	C	1.487586	0.134447	1.141686
C107	C	0.998773	-0.191880	0.380964
C108	C	1.498773	0.308120	0.880964
C109	C	0.998820	-0.121914	0.380989
C110	C	1.498820	0.378086	0.880989
C111	C	1.006442	-0.349392	0.198761
C112	C	1.506442	0.150608	0.698761
C113	C	1.009889	-0.346384	0.120844
C114	C	1.509889	0.153616	0.620844
C115	C	1.030890	-0.328425	0.680225
C116	C	1.530890	0.171575	1.180225
C117	C	1.027771	-0.331086	0.753441
C118	C	1.527771	0.168914	1.253441
C119	C	0.981351	-0.370880	0.788118
C120	C	1.481351	0.129120	1.288118
C121	C	0.938043	-0.408010	0.749573
C122	C	1.438043	0.091990	1.249573
C123	C	0.941159	-0.405345	0.676358
C124	C	1.441159	0.094655	1.176358
C125	C	0.969696	-0.380849	1.009084
C126	C	1.469696	0.119151	1.509084
C127	C	0.966585	-0.383513	1.082305
C128	C	1.466585	0.116487	1.582305
C129	C	1.056312	-0.306588	1.086168
C130	C	1.556312	0.193412	1.586168
C131	C	1.059427	-0.303929	1.012951
C132	C	1.559427	0.196071	1.512951
C133	C	1.016116	-0.341056	0.974413
C134	C	1.516116	0.158944	1.474413
C135	C	0.978164	-0.373603	0.862957
C136	C	1.478164	0.126397	1.362957
C137	C	1.019300	-0.338330	0.899575
C138	C	1.519300	0.161670	1.399575
H139	H	0.735260	-0.269289	0.288341
H140	H	1.235260	0.230711	0.788341
H141	H	1.083510	-0.715218	0.303097
H142	H	1.583510	-0.215218	0.803097
H143	H	0.508972	-0.410653	0.439154
H144	H	1.008972	0.089347	0.939154
C145	C	0.479143	-0.289106	0.309476
C146	C	0.979143	0.210894	0.809476
C147	C	0.427543	-0.238837	0.337826
C148	C	0.927543	0.261163	0.837826
C149	C	0.389364	-0.191093	0.286892
C150	C	0.889364	0.308907	0.786892
C151	C	0.402784	-0.193618	0.207609
C152	C	0.902784	0.306382	0.707609
C153	C	0.454386	-0.243889	0.179255
C154	C	0.954386	0.256111	0.679255
C155	C	0.492566	-0.291633	0.230189
C156	C	0.992566	0.208367	0.730189
H157	H	0.417607	-0.236966	0.396520
H158	H	0.917607	0.263034	0.896520
H159	H	0.351164	-0.153878	0.307881
H160	H	0.851164	0.346122	0.807881
H161	H	0.374521	-0.158274	0.169904
H162	H	0.874521	0.341726	0.669904
H163	H	0.464323	-0.245760	0.120561
H164	H	0.964323	0.254240	0.620561
H165	H	0.530765	-0.328848	0.209200
H166	H	1.030765	0.171152	0.709200
C167	C	1.075407	-0.290248	0.795838
C168	C	1.575407	0.209752	1.295838
C169	C	1.042923	-0.241443	0.844888
C170	C	1.542923	0.258557	1.344888
C171	C	1.090561	-0.200603	0.887286
C172	C	1.590561	0.299397	1.387286
C173	C	1.170683	-0.208569	0.880633
C174	C	1.670683	0.291431	1.380633
C175	C	1.203172	-0.257377	0.831580
C176	C	1.703172	0.242623	1.331580
C177	C	1.155534	-0.298216	0.789183
C178	C	1.655534	0.201784	1.289183
H179	H	0.983607	-0.235544	0.849815
H180	H	1.483607	0.264456	1.349815
H181	H	1.066510	-0.164473	0.923598
H182	H	1.566510	0.335527	1.423598
H183	H	1.205948	-0.178337	0.912019
H184	H	1.705948	0.321663	1.412019
H185	H	1.262487	-0.263275	0.826654
H186	H	1.762487	0.236725	1.326654
H187	H	1.179585	-0.334347	0.752871
H188	H	1.679585	0.165653	1.252871
C189	C	0.251773	-0.454445	0.485867
C190	C	0.751773	0.045555	0.985867
C191	C	0.289939	-0.502191	0.536803
C192	C	0.789939	-0.002191	1.036803
C193	C	0.247569	-0.546730	0.584323
C194	C	0.747569	-0.046730	1.084323
C195	C	0.167033	-0.543522	0.580906
C196	C	0.667033	-0.043522	1.080906
C197	C	0.128863	-0.495774	0.529968
C198	C	0.628863	0.004226	1.029968
C199	C	0.171233	-0.451235	0.482449
C200	C	0.671233	0.048765	0.982449
H201	H	0.349560	-0.504567	0.539335
H202	H	0.849560	-0.004567	1.039335
H203	H	0.275826	-0.582076	0.622030
H204	H	0.775826	-0.082076	1.122030
H205	H	0.135669	-0.576492	0.616082
H206	H	0.635669	-0.076492	1.116082
H207	H	0.069242	-0.493397	0.527436
H208	H	0.569242	0.006603	1.027436
H209	H	0.142977	-0.415889	0.444741
H210	H	0.642977	0.084111	0.944741
H211	H	0.940372	-0.406006	0.891199
H212	H	1.440372	0.093994	1.391199
H213	H	1.068692	-0.296022	0.651997
H214	H	1.568692	0.203978	1.151997
C215	C	0.900426	-0.724046	0.470956
C216	C	1.400426	-0.224046	0.970956
C217	C	0.900450	-0.796361	0.470970
C218	C	1.400450	-0.296361	0.970970
C219	C	0.849012	-0.832360	0.518150
C220	C	1.349012	-0.332360	1.018150
C221	C	0.797551	-0.796045	0.565316
C222	C	1.297551	-0.296045	1.065316
C223	C	0.797525	-0.723727	0.565303
C224	C	1.297525	-0.223727	1.065303
C225	C	0.848963	-0.687728	0.518123
C226	C	1.348963	-0.187728	1.018123
H227	H	0.938547	-0.823247	0.436054
H228	H	1.438547	-0.323247	0.936054
H229	H	0.849031	-0.885895	0.518159
H230	H	1.349031	-0.385895	1.018159
H231	H	0.759473	-0.822694	0.600241
H232	H	1.259473	-0.322694	1.100241
H233	H	0.759429	-0.696841	0.600220
H234	H	1.259429	-0.196841	1.100220
H235	H	0.848944	-0.634193	0.518114
H236	H	1.348944	-0.134193	1.018114
H237	H	1.083625	-0.996798	0.303153
H238	H	1.583625	-0.496798	0.803153
C239	C	0.915542	-0.427309	1.120452
C240	C	1.415542	0.072691	1.620452
C241	C	0.867917	-0.468164	1.078064
C242	C	1.367917	0.031836	1.578064
C243	C	0.816890	-0.511970	1.116212
C244	C	1.316890	-0.011970	1.616212
C245	C	0.813488	-0.514921	1.196747
C246	C	1.313488	-0.014921	1.696747
C247	C	0.861114	-0.474064	1.239139
C248	C	1.361114	0.025936	1.739139
C249	C	0.912141	-0.430258	1.200991
C250	C	1.412141	0.069742	1.700991
H251	H	0.870435	-0.465981	1.018443
H252	H	1.370435	0.034019	1.518443
H253	H	0.781635	-0.542215	1.084830
H254	H	1.281635	-0.042215	1.584830
H255	H	0.775715	-0.547348	1.224986
H256	H	1.275715	-0.047348	1.724986
H257	H	0.858597	-0.476247	1.298760
H258	H	1.358597	0.023753	1.798760
H259	H	0.947397	-0.400014	1.232373
H260	H	1.447397	0.099986	1.732373
C261	C	0.592520	-0.251589	0.269463
C262	C	1.092520	0.248411	0.769463
C263	C	0.605958	-0.254108	0.190182
C264	C	1.105958	0.245892	0.690182
C265	C	0.567799	-0.206352	0.139246
C266	C	1.067799	0.293648	0.639246
C267	C	0.516203	-0.156077	0.167591
C268	C	1.016203	0.343923	0.667591
C269	C	0.502763	-0.153557	0.246875
C270	C	1.002763	0.346443	0.746875
C271	C	0.540922	-0.201313	0.297812
C272	C	1.040922	0.298687	0.797812
H273	H	0.644155	-0.291326	0.169196
H274	H	1.144155	0.208674	0.669196
H275	H	0.577749	-0.208219	0.080554
H276	H	1.077749	0.291781	0.580554
H277	H	0.487956	-0.120726	0.129884
H278	H	0.987956	0.379274	0.629884
H279	H	0.464566	-0.116339	0.267861
H280	H	0.964566	0.383661	0.767861
H281	H	0.530972	-0.199446	0.356504
H282	H	1.030972	0.300554	0.856504
H283	H	0.269716	-0.290651	0.311147
H284	H	0.769716	0.209349	0.811147
C285	C	0.584488	-0.427786	0.457412
C286	C	1.084488	0.072214	0.957412
C287	C	0.594766	-0.499525	0.451963
C288	C	1.094766	0.000475	0.951963
C289	C	0.552400	-0.544068	0.499481
C290	C	1.052400	-0.044068	0.999481
C291	C	0.499756	-0.516872	0.552447
C292	C	0.999756	-0.016872	1.052447
C293	C	0.489476	-0.445130	0.557898
C294	C	0.989476	0.054870	1.057898
C295	C	0.531842	-0.400586	0.510381
C296	C	1.031842	0.099414	1.010381
H297	H	0.633739	-0.519660	0.412753
H298	H	1.133739	-0.019660	0.912753
H299	H	0.560011	-0.597177	0.495445
H300	H	1.060011	-0.097177	0.995445
H301	H	0.468394	-0.549846	0.587622
H302	H	0.968394	-0.049846	1.087622
H303	H	0.450503	-0.424995	0.597109
H304	H	0.950503	0.075005	1.097109
H305	H	0.524231	-0.347478	0.514417
H306	H	1.024231	0.152522	1.014417
C307	C	0.900588	-1.124892	0.471045
C308	C	1.400588	-0.624892	0.971045
C309	C	0.821137	-1.112525	0.461855
C310	C	1.321137	-0.612525	0.961855
C311	C	0.769698	-1.148522	0.509036
C312	C	1.269698	-0.648522	1.009036
C313	C	0.797709	-1.196885	0.565408
C314	C	1.297709	-0.696885	1.065408
C315	C	0.877165	-1.209254	0.574600
C316	C	1.377165	-0.709254	1.074600
C317	C	0.928604	-1.173257	0.527419
C318	C	1.428604	-0.673257	1.027419
H319	H	0.800398	-1.076722	0.420123
H320	H	1.300398	-0.576722	0.920123
H321	H	0.710880	-1.139365	0.502231
H322	H	1.210880	-0.639365	1.002231
H323	H	0.759631	-1.223531	0.600334
H324	H	1.259631	-0.723531	1.100334
H325	H	0.897904	-1.245057	0.616332
H326	H	1.397904	-0.745057	1.116332
H327	H	0.987422	-1.182414	0.534225
H328	H	1.487422	-0.682414	1.034225
H329	H	0.402539	-0.295952	0.316785
H330	H	0.902539	0.204048	0.816785
H331	H	1.083456	-0.595949	0.303066
H332	H	1.583456	-0.095949	0.803066
H333	H	0.913743	-0.595426	0.458684
H334	H	1.413743	-0.095426	0.958684
H335	H	1.083681	-1.116065	0.303189
H336	H	1.583681	-0.616065	0.803189
H337	H	0.913904	-0.996275	0.458761
H338	H	1.413904	-0.496275	0.958761
H339	H	1.097229	-0.271526	0.984722
H340	H	1.597229	0.228474	1.484722
H341	H	1.091573	-0.276360	1.117553
H342	H	1.591573	0.223640	1.617553
C343	C	0.922047	-0.421693	0.966713
C344	C	1.422047	0.078307	1.466713
C345	C	0.841927	-0.413727	0.973401
C346	C	1.341927	0.086273	1.473401
C347	C	0.794270	-0.454574	0.931033
C348	C	1.294270	0.045426	1.431033
C349	C	0.826733	-0.503387	0.881979
C350	C	1.326733	-0.003387	1.381979
C351	C	0.906857	-0.511355	0.875289
C352	C	1.406857	-0.011355	1.375289
C353	C	0.954514	-0.470508	0.917657
C354	C	1.454514	0.029492	1.417657
H355	H	0.817893	-0.377591	1.009716
H356	H	1.317893	0.122409	1.509716
H357	H	0.734957	-0.448675	0.935985
H358	H	1.234957	0.051325	1.435985
H359	H	0.791454	-0.533624	0.850616
H360	H	1.291454	-0.033624	1.350616
H361	H	0.930891	-0.547491	0.838974
H362	H	1.430891	-0.047491	1.338974
H363	H	1.013827	-0.476407	0.912704
H364	H	1.513827	0.023593	1.412704
C365	C	0.893528	-0.446188	0.633959
C366	C	1.393528	0.053812	1.133959
C367	C	0.813405	-0.438231	0.640616
C368	C	1.313405	0.061769	1.140616
C369	C	0.765771	-0.479073	0.598217
C370	C	1.265771	0.020927	1.098217
C371	C	0.798260	-0.527872	0.549161
C372	C	1.298260	-0.027872	1.049161
C373	C	0.878387	-0.535831	0.542502
C374	C	1.378387	-0.035831	1.042502
C375	C	0.926021	-0.494989	0.584902
C376	C	1.426021	0.005011	1.084902
H377	H	0.789351	-0.402105	0.676932
H378	H	1.289351	0.097895	1.176932
H379	H	0.706455	-0.473181	0.603147
H380	H	1.206455	0.026819	1.103147
H381	H	0.762998	-0.558106	0.517775
H382	H	1.262998	-0.058106	1.017775
H383	H	0.902441	-0.571957	0.506187
H384	H	1.402441	-0.071957	1.006187
H385	H	0.985336	-0.500881	0.579972
H386	H	1.485336	-0.000881	1.079972
H387	H	0.728320	-0.421515	0.450712
H388	H	1.228320	0.078485	0.950712
H389	H	1.057092	-0.305927	0.871338
H390	H	1.557092	0.194073	1.371338
H391	H	0.395608	-0.448173	0.479164
H392	H	0.895608	0.051827	0.979164
H393	H	0.900244	-0.440409	0.777813
H394	H	1.400244	0.059591	1.277813
