data_functionalizedCrystal
_audit_creation_method	'MofGen! by Chris Wilmer'
_symmetry_space_group_name_H-M	'P1'
_symmetry_Int_Tables_number	1
_symmetry_cell_setting	triclinic
loop_
_symmetry_equiv_pos_as_xyz
  x,y,z
_cell_length_a	19.188905
_cell_length_b	19.188930
_cell_length_c	17.666332
_cell_angle_alpha	90.011603
_cell_angle_beta	90.016479
_cell_angle_gamma	83.139668
loop_
_atom_site_label
_atom_site_type_symbol
_atom_site_fract_x
_atom_site_fract_y
_atom_site_fract_z
O1	O	0.926161	0.087086	0.063081
O2	O	1.426161	0.587086	0.563081
O3	O	0.722847	0.098838	0.063057
O4	O	1.222847	0.598838	0.563057
O5	O	0.830371	-0.008694	0.063055
O6	O	1.330371	0.491306	0.563055
O7	O	0.818637	0.194618	0.063083
O8	O	1.318637	0.694618	0.563083
O9	O	0.830352	-0.008700	-0.062842
O10	O	1.330352	0.491300	0.437158
O11	O	0.722828	0.098832	-0.062840
O12	O	1.222828	0.598832	0.437160
O13	O	0.926142	0.087080	-0.062815
O14	O	1.426142	0.587080	0.437185
Cu15	Cu	0.824483	0.092956	-0.074323
Cu16	Cu	1.324483	0.592956	0.425677
Cu17	Cu	0.824506	0.092962	0.074565
Cu18	Cu	1.324506	0.592962	0.574565
O19	O	0.818618	0.194612	-0.062814
O20	O	1.318618	0.694612	0.437186
C21	C	0.696826	0.098458	0.000105
C22	C	1.196826	0.598458	0.500105
C23	C	0.619321	0.097324	0.000095
C24	C	1.119321	0.597324	0.500095
C25	C	0.582939	0.096782	0.068723
C26	C	1.082939	0.596782	0.568723
C27	C	0.510116	0.095709	0.068732
C28	C	1.010116	0.595709	0.568732
C29	C	0.473678	0.095164	0.000110
C30	C	0.973678	0.595164	0.500110
C31	C	0.510068	0.095709	-0.068528
C32	C	1.010068	0.595709	0.431472
C33	C	0.582889	0.096789	-0.068535
C34	C	1.082889	0.596789	0.431465
N35	N	0.364650	0.053733	-0.050966
N36	N	0.864650	0.553733	0.449034
N37	N	0.295473	0.052705	-0.050954
N38	N	0.795473	0.552705	0.449046
C39	C	0.254272	0.091911	0.000127
C40	C	0.754272	0.591911	0.500127
N41	N	0.284861	0.132174	0.051208
N42	N	0.784861	0.632174	0.551208
N43	N	0.354045	0.133199	0.051199
N44	N	0.854045	0.633199	0.551199
C45	C	0.394716	0.093993	0.000110
C46	C	0.894716	0.593993	0.500110
C47	C	0.138926	0.090207	0.068770
C48	C	0.638926	0.590207	0.568770
C49	C	0.066101	0.089138	0.068777
C50	C	0.566101	0.589138	0.568777
C51	C	0.066055	0.089131	-0.068485
C52	C	0.566055	0.589131	0.431515
C53	C	0.138879	0.090207	-0.068490
C54	C	0.638879	0.590207	0.431510
C55	C	0.175310	0.090742	0.000140
C56	C	0.675310	0.590742	0.500140
C57	C	0.829982	-0.034708	0.000104
C58	C	1.329982	0.465292	0.500104
C59	C	0.828841	-0.112213	0.000098
C60	C	1.328841	0.387787	0.500098
C61	C	0.891933	-0.157142	0.000102
C62	C	1.391933	0.342858	0.500102
C63	C	0.890861	-0.229966	0.000114
C64	C	1.390861	0.270034	0.500114
C65	C	0.826694	-0.257857	0.000107
C66	C	1.326694	0.242143	0.500107
C67	C	0.763594	-0.212917	0.000107
C68	C	1.263594	0.287083	0.500107
C69	C	0.764668	-0.140095	0.000102
C70	C	1.264668	0.359905	0.500102
N71	N	0.777640	-0.365859	-0.042744
N72	N	1.277640	0.134141	0.457256
N73	N	0.776624	-0.435038	-0.042742
N74	N	1.276624	0.064962	0.457258
C75	C	0.823456	-0.477265	0.000122
C76	C	1.323456	0.022735	0.500122
N77	N	0.871352	-0.447702	0.042973
N78	N	1.371352	0.052298	0.542973
N79	N	0.872369	-0.378517	0.042967
N80	N	1.372369	0.121483	0.542967
C81	C	0.825523	-0.336819	0.000112
C82	C	1.325523	0.163181	0.500112
C83	C	0.885390	-0.601159	0.000140
C84	C	1.385390	-0.101159	0.500140
C85	C	0.884315	-0.673984	0.000156
C86	C	1.384315	-0.173984	0.500156
C87	C	0.757047	-0.656933	0.000142
C88	C	1.257047	-0.156933	0.500142
C89	C	0.758123	-0.584110	0.000133
C90	C	1.258123	-0.084110	0.500133
C91	C	0.822296	-0.556228	0.000128
C92	C	1.322296	-0.056228	0.500128
C93	C	0.952163	0.087460	0.000138
C94	C	1.452163	0.587460	0.500138
C95	C	1.029668	0.088594	0.000153
C96	C	1.529668	0.588594	0.500153
C97	C	0.819007	0.220626	0.000139
C98	C	1.319007	0.720626	0.500139
C99	C	0.820148	0.298131	0.000150
C100	C	1.320148	0.798131	0.500150
N101	N	0.824473	0.092950	-0.179042
N102	N	1.324473	0.592950	0.320958
C103	C	0.872100	0.045358	-0.218653
C104	C	1.372100	0.545358	0.281347
C105	C	0.872104	0.045355	-0.297901
C106	C	1.372104	0.545355	0.202099
C107	C	0.824488	0.092956	-0.337535
C108	C	1.324488	0.592956	0.162465
C109	C	0.776852	0.140552	-0.297915
C110	C	1.276852	0.640552	0.202085
C111	C	0.776844	0.140549	-0.218668
C112	C	1.276844	0.640549	0.281332
N113	N	0.815411	0.154764	-0.461945
N114	N	1.315411	0.654764	0.038055
N115	N	0.815422	0.154764	-0.537226
N116	N	1.315422	0.654764	-0.037226
C117	C	0.824506	0.092966	-0.576299
C118	C	1.324506	0.592966	-0.076299
N119	N	0.833592	0.031164	-0.537247
N120	N	1.333592	0.531164	-0.037247
N121	N	0.833584	0.031165	-0.461960
N122	N	1.333584	0.531165	0.038040
C123	C	0.824490	0.092964	-0.423464
C124	C	1.324490	0.592964	0.076536
C125	C	0.872140	0.045366	-0.701838
C126	C	1.372140	0.545366	-0.201838
C127	C	0.872139	0.045361	-0.781087
C128	C	1.372139	0.545361	-0.281087
C129	C	0.776890	0.140564	-0.781100
C130	C	1.276890	0.640564	-0.281100
C131	C	0.776888	0.140562	-0.701852
C132	C	1.276888	0.640562	-0.201852
C133	C	0.824516	0.092964	-0.662226
C134	C	1.324516	0.592964	-0.162226
N135	N	0.824522	0.092962	0.179284
N136	N	1.324522	0.592962	0.679284
H137	H	0.168501	0.090643	-0.124374
H138	H	0.668501	0.590643	0.375626
H139	H	0.711349	-0.235631	0.000103
H140	H	1.211349	0.264369	0.500103
C141	C	0.724461	0.192908	-0.175092
C142	C	1.224461	0.692908	0.324908
H143	H	0.731277	0.186089	-0.122220
H144	H	1.231277	0.686089	0.377780
H145	H	0.731901	0.239487	-0.188067
H146	H	1.231901	0.739487	0.311933
H147	H	0.677886	0.185443	-0.188095
H148	H	1.177886	0.685443	0.311905
C149	C	0.695264	-0.090671	0.000091
C150	C	1.195264	0.409329	0.500091
H151	H	0.656893	-0.117708	0.000085
H152	H	1.156893	0.382292	0.500085
H153	H	0.693044	-0.061895	0.043989
H154	H	1.193044	0.438105	0.543989
H155	H	0.693033	-0.061923	-0.043823
H156	H	1.193033	0.438077	0.456177
C157	C	0.955976	-0.570485	0.000143
C158	C	1.455976	-0.070485	0.500143
H159	H	0.993399	-0.607676	0.000159
H160	H	1.493399	-0.107676	0.500159
H161	H	0.959035	-0.542443	-0.043763
H162	H	1.459035	-0.042443	0.456237
H163	H	0.959045	-0.542420	0.044049
H164	H	1.459045	-0.042420	0.544049
H165	H	0.036388	0.088691	-0.124360
H166	H	0.536388	0.588691	0.375640
C167	C	0.924527	-0.006994	-0.824663
C168	C	1.424527	0.493006	-0.324663
H169	H	0.917705	-0.000183	-0.877535
H170	H	1.417705	0.499817	-0.377535
H171	H	0.971099	0.000471	-0.811658
H172	H	1.471099	0.500471	-0.311658
H173	H	0.917087	-0.053576	-0.811687
H174	H	1.417087	0.446424	-0.311687
C175	C	0.953720	-0.723407	0.000159
C176	C	1.453720	-0.223407	0.500159
H177	H	0.992090	-0.696368	0.000149
H178	H	1.492090	-0.196368	0.500149
H179	H	0.955959	-0.752160	0.044065
H180	H	1.455959	-0.252160	0.544065
H181	H	0.955933	-0.752178	-0.043747
H182	H	1.455933	-0.252178	0.456253
H183	H	0.704801	-0.679641	0.000140
H184	H	1.204801	-0.179641	0.500140
H185	H	0.944187	-0.134445	0.000101
H186	H	1.444187	0.365555	0.500101
H187	H	0.706747	-0.547527	0.000125
H188	H	1.206747	-0.047527	0.500125
H189	H	0.942239	-0.266555	0.000120
H190	H	1.442239	0.233445	0.500120
C191	C	0.924482	-0.007005	-0.175068
C192	C	1.424482	0.492995	0.324932
H193	H	0.952843	-0.035354	-0.210014
H194	H	1.452843	0.464646	0.289986
H195	H	0.953464	0.018033	-0.144132
H196	H	1.453464	0.518033	0.355868
H197	H	0.899448	-0.036010	-0.144177
H198	H	1.399448	0.463990	0.355823
C199	C	0.924517	-0.006997	-0.658243
C200	C	1.424517	0.493003	-0.158243
H201	H	0.917698	-0.000177	-0.605373
H202	H	1.417698	0.499823	-0.105373
H203	H	0.917078	-0.053575	-0.671245
H204	H	1.417078	0.446425	-0.171245
H205	H	0.971094	0.000467	-0.671209
H206	H	1.471094	0.500467	-0.171209
H207	H	0.910889	0.006598	-0.330157
H208	H	1.410889	0.506598	0.169843
C209	C	0.724477	0.192913	-0.341508
C210	C	1.224477	0.692913	0.158492
H211	H	0.731308	0.186104	-0.394378
H212	H	1.231308	0.686104	0.105622
H213	H	0.677903	0.185450	-0.328546
H214	H	1.177903	0.685450	0.171454
H215	H	0.731918	0.239494	-0.328503
H216	H	1.231918	0.739494	0.171497
C217	C	0.470085	0.095110	0.144224
C218	C	0.970085	0.595110	0.644224
H219	H	0.421497	0.094394	0.134398
H220	H	0.921497	0.594394	0.634398
H221	H	0.487485	0.054580	0.172413
H222	H	0.987485	0.554580	0.672413
H223	H	0.476569	0.135997	0.172431
H224	H	0.976569	0.635997	0.672431
C225	C	0.724513	0.192924	-0.824688
C226	C	1.224513	0.692924	-0.324688
H227	H	0.731340	0.186113	-0.877558
H228	H	1.231340	0.686113	-0.377558
H229	H	0.677940	0.185462	-0.811721
H230	H	1.177940	0.685462	-0.311721
H231	H	0.731955	0.239505	-0.811686
H232	H	1.231955	0.739505	-0.311686
H233	H	0.738108	0.179319	-0.669599
H234	H	1.238108	0.679319	-0.169599
H235	H	0.612597	0.097218	0.124607
H236	H	1.112597	0.597218	0.624607
H237	H	0.480396	0.095267	-0.124401
H238	H	0.980396	0.595267	0.375599
H239	H	0.612511	0.097231	-0.124422
H240	H	1.112511	0.597231	0.375578
H241	H	0.036479	0.088702	0.124664
H242	H	0.536479	0.588702	0.624664
C243	C	0.179002	0.090808	0.144258
C244	C	0.679002	0.590808	0.644258
H245	H	0.146900	0.090344	0.185134
H246	H	0.646900	0.590344	0.685134
H247	H	0.212867	0.050523	0.147108
H248	H	0.712867	0.550523	0.647108
H249	H	0.201953	0.131941	0.147109
H250	H	0.701953	0.631941	0.647109
