data_functionalizedCrystal
_audit_creation_method	'MofGen! by Chris Wilmer'
_symmetry_space_group_name_H-M	'P1'
_symmetry_Int_Tables_number	1
_symmetry_cell_setting	triclinic
loop_
_symmetry_equiv_pos_as_xyz
  x,y,z
_cell_length_a	6.817900
_cell_length_b	17.078472
_cell_length_c	14.858572
_cell_angle_alpha	96.030459
_cell_angle_beta	104.524003
_cell_angle_gamma	99.306020
loop_
_atom_site_label
_atom_site_type_symbol
_atom_site_fract_x
_atom_site_fract_y
_atom_site_fract_z
V1	V	-4.017389	-0.110266	-0.289866
O2	O	-4.026521	0.004785	-0.284445
O3	O	-3.948350	-0.218146	-0.287791
O4	O	-3.974308	-0.108796	-0.416329
O5	O	-4.000383	-0.105322	-0.155017
V6	V	-4.503002	-0.096478	-0.273749
O7	O	-4.274063	-0.140512	-0.325222
O8	O	-4.696526	-0.066233	-0.238393
O9	O	-4.348835	0.011401	-0.275823
O10	O	-4.611268	-0.211530	-0.279170
O11	O	-4.637405	-0.101423	-0.408598
O12	O	-4.322877	-0.097949	-0.147286
C13	C	-3.788158	-0.244437	-0.283195
C14	C	-3.813033	-0.332631	-0.282341
C15	C	-4.006243	-0.378114	-0.286576
C16	C	-4.029607	-0.460982	-0.285779
C17	C	-3.859754	-0.498365	-0.280742
C18	C	-3.666530	-0.452877	-0.276510
C19	C	-3.643172	-0.370011	-0.277313
C20	C	-3.910149	-0.745764	-0.277848
C21	C	-3.933521	-0.828636	-0.277043
C22	C	-4.296598	-0.836735	-0.286314
C23	C	-4.273220	-0.753867	-0.287111
C24	C	-4.080001	-0.708387	-0.282884
N25	N	-3.883630	-0.583069	-0.279924
N26	N	-4.056132	-0.623685	-0.283708
C27	C	-3.821269	-0.104950	-0.447156
C28	C	-3.867193	-0.104461	-0.550540
C29	C	-4.035274	-0.102675	-0.929109
C30	C	-3.988500	-0.103172	-0.823780
C31	C	-3.951235	-0.103569	-0.739828
C32	C	-3.904458	-0.104064	-0.634491
C33	C	-4.172368	0.037688	-0.280417
C34	C	-4.126731	0.125882	-0.281277
C35	C	-4.139257	-0.101798	-0.116454
C36	C	-4.072573	-0.102282	-0.013069
H37	H	-4.186936	-0.498011	-0.289229
H38	H	-3.795207	-0.859073	-0.272962
H39	H	-3.485844	-0.332980	-0.273869
H40	H	-4.144556	-0.347682	-0.290669
H41	H	-4.411539	-0.723436	-0.291220
H42	H	-4.453910	-0.873774	-0.289755
O43	O	-3.722298	-0.701704	-0.273689
C44	C	-3.577411	-0.752475	-0.269090
H45	H	-3.632890	-0.808744	-0.240298
H46	H	-3.421609	-0.719588	-0.220724
H47	H	-3.560571	-0.770146	-0.342524
H48	H	-3.528238	-0.483322	-0.272414
