data_functionalizedCrystal
_audit_creation_method	'MofGen! by Chris Wilmer'
_symmetry_space_group_name_H-M	'P1'
_symmetry_Int_Tables_number	1
_symmetry_cell_setting	triclinic
loop_
_symmetry_equiv_pos_as_xyz
  x,y,z
_cell_length_a	10.654549
_cell_length_b	10.489716
_cell_length_c	9.130313
_cell_angle_alpha	89.999518
_cell_angle_beta	89.997498
_cell_angle_gamma	84.506957
loop_
_atom_site_label
_atom_site_type_symbol
_atom_site_fract_x
_atom_site_fract_y
_atom_site_fract_z
O1	O	1.667908	0.179162	-0.121751
O2	O	1.302436	0.196232	-0.121760
O3	O	1.493504	0.002093	-0.121761
O4	O	1.476840	0.373301	-0.121751
O5	O	1.493491	0.002087	0.121838
O6	O	1.302423	0.196226	0.121839
O7	O	1.667895	0.179156	0.121848
Cu8	Cu	1.485158	0.187691	0.144086
Cu9	Cu	1.485173	0.187697	-0.143998
O10	O	1.476827	0.373295	0.121848
C11	C	1.255631	0.194976	0.000038
C12	C	1.116186	0.191226	0.000034
C13	C	0.905714	0.301999	0.000043
C14	C	1.036736	0.305532	0.000034
C15	C	1.064609	0.073379	0.000027
C16	C	0.933589	0.069848	0.000026
C17	C	1.492246	-0.045442	0.000034
C18	C	1.488500	-0.187071	0.000021
C19	C	1.605669	-0.284801	0.000037
C20	C	1.543760	-0.362129	-0.120068
C21	C	1.543720	-0.362099	0.120102
C22	C	1.426640	-0.262533	-0.120183
C23	C	1.426617	-0.262497	0.120094
C24	C	1.364623	-0.339776	-0.000040
C25	C	1.714700	0.180412	0.000046
C26	C	1.854145	0.184162	0.000041
C27	C	1.478085	0.420829	0.000050
C28	C	1.481831	0.562459	0.000054
N29	N	1.485156	0.187685	0.346708
N30	N	1.485185	0.187693	-0.346621
C31	C	1.569790	0.101757	0.423360
C32	C	1.569802	0.101757	0.576697
C33	C	1.400542	0.273625	0.576717
C34	C	1.400525	0.273618	0.423383
H35	H	0.841033	0.395081	0.000054
C36	C	1.093457	0.435153	0.000045
H37	H	1.027374	0.502723	0.000065
H38	H	1.143990	0.441365	-0.084903
H39	H	1.143984	0.441350	0.085005
C40	C	0.876859	-0.059779	0.000028
H41	H	0.942936	-0.127355	0.000040
H42	H	0.826330	-0.065980	-0.084920
H43	H	0.826325	-0.065979	0.084987
H44	H	1.377211	-0.219203	-0.221835
C45	C	1.226846	-0.372727	-0.000127
H46	H	1.185425	-0.338311	-0.085525
H47	H	1.184942	-0.337101	0.084381
H48	H	1.225177	-0.463111	0.000676
H49	H	1.331639	0.343591	0.639160
C50	C	1.662904	0.007241	0.661007
H51	H	1.713307	-0.043928	0.593377
H52	H	1.617268	-0.046290	0.720836
H53	H	1.715597	0.053637	0.720807
C54	C	1.307434	0.368150	0.339053
H55	H	1.319540	0.355829	0.236753
H56	H	1.321835	0.453414	0.364171
H57	H	1.223491	0.353502	0.364195
C58	C	1.152001	-0.052355	0.000031
H59	H	1.237418	-0.033377	0.000049
H60	H	1.136263	-0.100631	-0.084915
H61	H	1.136246	-0.100621	0.084992
H62	H	1.707585	-0.260174	-0.000082
H63	H	1.593227	-0.405646	-0.221607
C64	C	1.662877	0.007238	0.339016
H65	H	1.650758	0.019548	0.236716
H66	H	1.648493	-0.078028	0.364150
H67	H	1.746819	0.021902	0.364134
H68	H	1.593201	-0.405598	0.221638
C69	C	1.359857	-0.203666	0.257267
H70	H	1.401627	-0.237913	0.342530
H71	H	1.274693	-0.223425	0.258132
H72	H	1.362094	-0.113356	0.255783
