data_functionalizedCrystal
_audit_creation_method	'MofGen! by Chris Wilmer'
_symmetry_space_group_name_H-M	'P1'
_symmetry_Int_Tables_number	1
_symmetry_cell_setting	triclinic
loop_
_symmetry_equiv_pos_as_xyz
  x,y,z
_cell_length_a	12.759401
_cell_length_b	14.908178
_cell_length_c	12.759393
_cell_angle_alpha	93.332413
_cell_angle_beta	90.018496
_cell_angle_gamma	93.314230
loop_
_atom_site_label
_atom_site_type_symbol
_atom_site_fract_x
_atom_site_fract_y
_atom_site_fract_z
Zn1	Zn	1.582097	-0.359132	0.569812
Zn2	Zn	1.571841	-0.510032	0.383977
Zn3	Zn	1.406396	-0.359179	0.394149
Zn4	Zn	1.396242	-0.509963	0.559623
O5	O	1.489144	-0.434577	0.476890
O6	O	1.727757	-0.379159	0.545168
O7	O	1.549852	-0.490070	0.238302
O8	O	1.438245	-0.232918	0.425972
O9	O	1.720222	-0.490024	0.408636
O10	O	1.567332	-0.232883	0.555031
O11	O	1.428300	-0.379239	0.245775
O12	O	1.258029	-0.379172	0.416092
O13	O	1.420939	-0.489906	0.707999
O14	O	1.250569	-0.489952	0.537665
O15	O	1.557486	-0.379091	0.715485
O16	O	1.540006	-0.636278	0.398756
O17	O	1.410994	-0.636227	0.527803
C18	C	1.216178	-0.434560	0.476877
C19	C	1.099400	-0.434575	0.476895
C20	C	1.473313	-0.668989	0.461093
C21	C	1.466637	-0.769272	0.454370
C22	C	1.040675	-0.492350	0.540081
C23	C	0.930950	-0.492361	0.540092
C24	C	0.938686	-0.376820	0.413721
C25	C	1.048409	-0.376804	0.413717
C26	C	1.036208	-0.559060	0.613037
C27	C	0.926483	-0.559071	0.613047
C28	C	1.588408	-0.957528	0.576270
C29	C	1.582138	-1.051753	0.569957
C30	C	1.447824	-1.051948	0.435435
C31	C	1.454094	-0.957723	0.441749
C32	C	1.524389	-0.910516	0.512167
C33	C	1.530663	-0.816290	0.518475
C34	C	1.396344	-0.816487	0.383960
C35	C	1.390075	-0.910711	0.377646
C36	C	1.763176	-0.434594	0.476904
C37	C	1.879952	-0.434601	0.476910
C38	C	1.489224	-0.434486	0.750930
C39	C	1.489258	-0.434447	0.867709
C40	C	1.505065	-0.199248	0.492773
C41	C	1.511850	-0.098966	0.499541
C42	C	1.489130	-0.434602	0.203921
C43	C	1.489316	-0.434387	0.087160
C44	C	1.560368	-0.376740	0.926471
C45	C	1.560395	-0.376708	1.036198
C46	C	1.418199	-0.492096	1.028390
C47	C	1.418168	-0.492123	0.918666
C48	C	1.642466	-0.310124	0.930980
C49	C	1.642493	-0.310092	1.040706
H50	H	1.096220	-0.329752	0.362272
H51	H	1.718053	-0.335173	0.895258
H52	H	1.390589	-1.090399	0.378109
H53	H	1.332840	-0.949160	0.320316
C54	C	1.609218	-0.220402	1.092751
C55	C	1.580674	-0.143581	1.024299
C56	C	1.547398	-0.053895	1.076346
C57	C	1.542665	-0.041030	1.196844
C58	C	1.571209	-0.117853	1.265302
C59	C	1.604485	-0.207539	1.213255
H60	H	1.584177	-0.153103	0.935093
H61	H	1.526267	0.002975	1.025668
H62	H	1.518031	0.025362	1.235372
H63	H	1.567706	-0.108331	1.354508
H64	H	1.625616	-0.264409	1.263933
H65	H	1.587903	-0.777855	0.575810
C66	C	1.340007	-0.555542	1.084445
C67	C	1.340035	-0.555513	1.205137
C68	C	1.261842	-0.618961	1.261188
C69	C	1.183622	-0.682438	1.196548
C70	C	1.183591	-0.682469	1.075849
C71	C	1.261784	-0.619021	1.019797
H72	H	1.397940	-0.508521	1.252993
H73	H	1.261865	-0.618938	1.350538
H74	H	1.125739	-0.729406	1.238041
H75	H	1.125686	-0.729461	1.027993
H76	H	1.261761	-0.619044	0.930448
H77	H	0.897155	-0.329784	0.362285
C78	C	1.078183	-0.533882	0.724699
C79	C	1.153231	-0.450035	0.745215
C80	C	1.195206	-0.424857	0.856874
C81	C	1.162133	-0.483526	0.948017
C82	C	1.087081	-0.567378	0.927504
C83	C	1.045105	-0.592556	0.815845
H84	H	1.177718	-0.406600	0.677743
H85	H	1.250765	-0.362783	0.872059
H86	H	1.193206	-0.464888	1.030674
H87	H	1.062594	-0.610813	0.994976
H88	H	0.989546	-0.654630	0.800660
C89	C	1.619400	-0.215738	0.897122
C90	C	1.693142	-0.133975	0.931809
C91	C	1.670075	-0.039592	0.897951
C92	C	1.573266	-0.026972	0.829406
C93	C	1.499517	-0.108737	0.794716
C94	C	1.522585	-0.203120	0.828574
H95	H	1.764811	-0.143315	0.982554
H96	H	1.724669	0.020936	0.923632
H97	H	1.556190	0.042896	0.804343
H98	H	1.427848	-0.099398	0.743971
H99	H	1.467991	-0.263649	0.802893
H100	H	1.065759	-0.625401	0.579287
H101	H	0.894163	-0.534130	0.692078
C102	C	1.750700	-0.335397	1.079254
C103	C	1.792827	-0.427021	1.043926
C104	C	1.901023	-0.452334	1.082479
C105	C	1.967093	-0.386022	1.156360
C106	C	1.924968	-0.294392	1.191692
C107	C	1.816771	-0.269079	1.153139
H108	H	1.743917	-0.476114	0.989231
H109	H	1.932207	-0.520165	1.056323
H110	H	2.047186	-0.404760	1.184899
H111	H	1.973877	-0.245299	1.246387
H112	H	1.785588	-0.201248	1.179295
H113	H	1.645652	-0.919092	0.633600
C114	C	1.339915	-0.555583	0.854041
C115	C	1.260054	-0.516473	0.781273
C116	C	1.181785	-0.579929	0.716655
C117	C	1.183377	-0.682495	0.724806
C118	C	1.263241	-0.721611	0.797577
C119	C	1.341510	-0.658155	0.862195
H120	H	1.258872	-0.440542	0.775236
H121	H	1.122664	-0.550972	0.662784
H122	H	1.125438	-0.729469	0.676972
H123	H	1.264423	-0.797541	0.803614
H124	H	1.400631	-0.687111	0.916066
H125	H	0.891988	-0.628931	0.586414
H126	H	1.634264	-1.090026	0.622161
H127	H	1.344219	-0.778199	0.331760
