data_functionalizedCrystal
_audit_creation_method	'MofGen! by Chris Wilmer'
_symmetry_space_group_name_H-M	'P1'
_symmetry_Int_Tables_number	1
_symmetry_cell_setting	triclinic
loop_
_symmetry_equiv_pos_as_xyz
  x,y,z
_cell_length_a	14.519731
_cell_length_b	15.944551
_cell_length_c	13.596369
_cell_angle_alpha	89.993059
_cell_angle_beta	89.994584
_cell_angle_gamma	83.593795
loop_
_atom_site_label
_atom_site_type_symbol
_atom_site_fract_x
_atom_site_fract_y
_atom_site_fract_z
O1	O	1.223664	0.110194	-0.081796
O2	O	1.473664	0.360194	0.168204
O3	O	1.723664	0.610194	0.418204
O4	O	1.973664	0.860194	0.668204
O5	O	0.955167	0.123142	-0.081797
O6	O	1.205167	0.373142	0.168203
O7	O	1.455167	0.623142	0.418203
O8	O	1.705167	0.873142	0.668203
O9	O	1.096747	-0.005596	-0.081788
O10	O	1.346747	0.244404	0.168212
O11	O	1.596747	0.494404	0.418212
O12	O	1.846747	0.744404	0.668212
O13	O	1.082083	0.238932	-0.081805
O14	O	1.332083	0.488932	0.168195
O15	O	1.582083	0.738932	0.418195
O16	O	1.832083	0.988932	0.668195
O17	O	1.096733	-0.005602	0.081795
O18	O	1.346733	0.244398	0.331795
O19	O	1.596733	0.494398	0.581795
O20	O	1.846733	0.744398	0.831795
O21	O	0.955153	0.123135	0.081785
O22	O	1.205153	0.373135	0.331785
O23	O	1.455153	0.623135	0.581785
O24	O	1.705153	0.873135	0.831785
O25	O	1.223650	0.110187	0.081787
O26	O	1.473650	0.360187	0.331787
O27	O	1.723650	0.610187	0.581787
O28	O	1.973650	0.860187	0.831787
Zn29	Zn	1.089399	0.116660	0.107759
Zn30	Zn	1.339399	0.366660	0.357759
Zn31	Zn	1.589399	0.616660	0.607759
Zn32	Zn	1.839399	0.866660	0.857759
Zn33	Zn	1.089417	0.116669	-0.107769
Zn34	Zn	1.339417	0.366669	0.142231
Zn35	Zn	1.589417	0.616669	0.392231
Zn36	Zn	1.839417	0.866669	0.642231
O37	O	1.082069	0.238925	0.081777
O38	O	1.332069	0.488925	0.331777
O39	O	1.582069	0.738925	0.581777
O40	O	1.832069	0.988925	0.831777
C41	C	0.920801	0.122532	-0.000006
C42	C	1.170801	0.372532	0.249994
C43	C	1.420801	0.622532	0.499994
C44	C	1.670801	0.872532	0.749994
C45	C	0.818424	0.120714	-0.000007
C46	C	1.068424	0.370714	0.249993
C47	C	1.318424	0.620714	0.499993
C48	C	1.568424	0.870714	0.749993
C49	C	0.735283	0.119237	-0.000010
C50	C	0.985283	0.369237	0.249990
C51	C	1.235283	0.619237	0.499990
C52	C	1.485283	0.869237	0.749990
C53	C	0.630977	0.117391	-0.000011
C54	C	0.880977	0.367391	0.249989
C55	C	1.130977	0.617391	0.499989
C56	C	1.380977	0.867391	0.749989
C57	C	0.547841	0.115926	-0.000010
C58	C	0.797841	0.365926	0.249990
C59	C	1.047841	0.615926	0.499990
C60	C	1.297841	0.865926	0.749990
C61	C	0.443528	0.114080	-0.000012
C62	C	0.693528	0.364080	0.249988
C63	C	0.943528	0.614080	0.499988
C64	C	1.193528	0.864080	0.749988
C65	C	1.096131	-0.036894	0.000004
C66	C	1.346131	0.213106	0.250004
C67	C	1.596131	0.463106	0.500004
C68	C	1.846131	0.713106	0.750004
C69	C	1.094306	-0.130143	0.000005
C70	C	1.344306	0.119857	0.250005
C71	C	1.594306	0.369857	0.500005
C72	C	1.844306	0.619857	0.750005
C73	C	1.002186	-0.345139	-0.000010
C74	C	1.252186	-0.095139	0.249990
C75	C	1.502186	0.154861	0.499990
C76	C	1.752186	0.404861	0.749990
C77	C	1.044957	-0.406095	0.080647
C78	C	1.294957	-0.156095	0.330647
C79	C	1.544957	0.093905	0.580647
C80	C	1.794957	0.343905	0.830647
C81	C	1.091005	-0.300874	-0.000003
C82	C	1.341005	-0.050874	0.249997
C83	C	1.591005	0.199126	0.499997
C84	C	1.841005	0.449126	0.749997
C85	C	1.044991	-0.406072	-0.080633
C86	C	1.294991	-0.156072	0.169367
C87	C	1.544991	0.093928	0.419367
C88	C	1.794991	0.343928	0.669367
C89	C	1.087809	-0.465791	-0.000015
C90	C	1.337809	-0.215791	0.249985
C91	C	1.587809	0.034209	0.499985
C92	C	1.837809	0.284209	0.749985
C93	C	1.133800	-0.360601	0.080720
C94	C	1.383800	-0.110601	0.330720
C95	C	1.633800	0.139399	0.580720
C96	C	1.883800	0.389399	0.830720
C97	C	1.133822	-0.360571	-0.080632
C98	C	1.383822	-0.110571	0.169368
C99	C	1.633822	0.139429	0.419368
C100	C	1.883822	0.389429	0.669368
C101	C	1.176658	-0.421509	0.000044
C102	C	1.426658	-0.171509	0.250044
C103	C	1.676658	0.078491	0.500044
C104	C	1.926658	0.328491	0.750044
C105	C	1.092843	-0.205868	0.000004
C106	C	1.342843	0.044132	0.250004
C107	C	1.592843	0.294132	0.500004
C108	C	1.842843	0.544132	0.750004
C109	C	1.085977	-0.560795	-0.000015
C110	C	1.335977	-0.310795	0.249985
C111	C	1.585977	-0.060795	0.499985
C112	C	1.835977	0.189205	0.749985
C113	C	1.258015	0.110797	-0.000006
C114	C	1.508015	0.360797	0.249994
C115	C	1.758015	0.610797	0.499994
C116	C	2.008015	0.860797	0.749994
C117	C	1.360392	0.112615	-0.000012
C118	C	1.610392	0.362615	0.249988
C119	C	1.860392	0.612615	0.499988
C120	C	2.110392	0.862615	0.749988
C121	C	1.082685	0.270223	-0.000016
C122	C	1.332685	0.520223	0.249984
C123	C	1.582685	0.770223	0.499984
C124	C	1.832685	1.020223	0.749984
C125	C	1.084510	0.363472	-0.000023
C126	C	1.334510	0.613472	0.249977
C127	C	1.584510	0.863472	0.499977
C128	C	1.834510	1.113472	0.749977
N129	N	1.089393	0.116654	0.254851
N130	N	1.339393	0.366654	0.504851
N131	N	1.589393	0.616654	0.754851
N132	N	1.839393	0.866654	1.004851
N133	N	1.089431	0.116669	-0.254861
N134	N	1.339431	0.366669	-0.004861
N135	N	1.589431	0.616669	0.245139
N136	N	1.839431	0.866669	0.495139
C137	C	1.089416	0.116670	0.656141
C138	C	1.339416	0.366670	0.906141
C139	C	1.589416	0.616670	1.156141
C140	C	1.839416	0.866670	1.406141
C141	C	1.089407	0.116668	0.544490
C142	C	1.339407	0.366668	0.794490
C143	C	1.589407	0.616668	1.044490
C144	C	1.839407	0.866668	1.294490
C145	C	1.089405	0.116662	0.455500
C146	C	1.339405	0.366662	0.705500
C147	C	1.589405	0.616662	0.955500
C148	C	1.839405	0.866662	1.205500
C149	C	1.089395	0.116659	0.343841
C150	C	1.339395	0.366659	0.593841
C151	C	1.589395	0.616659	0.843841
C152	C	1.839395	0.866659	1.093841
H153	H	0.928462	-0.311944	0.000070
H154	H	1.178462	-0.061944	0.250070
H155	H	1.428462	0.188056	0.500070
H156	H	1.678462	0.438056	0.750070
C157	C	1.184533	-0.333286	-0.172750
C158	C	1.434533	-0.083286	0.077250
C159	C	1.684533	0.166714	0.327250
C160	C	1.934533	0.416714	0.577250
H161	H	1.152890	-0.348674	-0.230005
H162	H	1.402890	-0.098674	0.019995
H163	H	1.652890	0.151326	0.269995
H164	H	1.902890	0.401326	0.519995
H165	H	1.246165	-0.360487	-0.173330
H166	H	1.496165	-0.110487	0.076670
H167	H	1.746165	0.139513	0.326670
H168	H	1.996165	0.389513	0.576670
H169	H	1.185807	-0.273851	-0.171757
H170	H	1.435807	-0.023851	0.078243
H171	H	1.685807	0.226149	0.328243
H172	H	1.935807	0.476149	0.578243
C173	C	1.276333	-0.466161	0.000105
C174	C	1.526333	-0.216161	0.250105
C175	C	1.776333	0.033839	0.500105
C176	C	2.026333	0.283839	0.750105
H177	H	1.307725	-0.450604	0.057451
H178	H	1.557725	-0.200604	0.307451
H179	H	1.807725	0.049396	0.557451
H180	H	2.057725	0.299396	0.807451
H181	H	1.308122	-0.449887	-0.056646
H182	H	1.558122	-0.199887	0.193354
H183	H	1.808122	0.050113	0.443354
H184	H	2.058122	0.300113	0.693354
H185	H	1.274639	-0.525549	-0.000430
H186	H	1.524639	-0.275549	0.249570
H187	H	1.774639	-0.025549	0.499570
H188	H	2.024639	0.224451	0.749570
C189	C	0.994236	-0.433278	-0.172749
C190	C	1.244236	-0.183278	0.077251
C191	C	1.494236	0.066722	0.327251
C192	C	1.744236	0.316722	0.577251
H193	H	0.932264	-0.406855	-0.172644
H194	H	1.182264	-0.156855	0.077356
H195	H	1.432264	0.093145	0.327356
H196	H	1.682264	0.343145	0.577356
H197	H	0.993931	-0.492822	-0.172413
H198	H	1.243931	-0.242822	0.077587
H199	H	1.493931	0.007178	0.327587
H200	H	1.743931	0.257178	0.577587
H201	H	1.025192	-0.416920	-0.230023
H202	H	1.275192	-0.166920	0.019977
H203	H	1.525192	0.083080	0.269977
H204	H	1.775192	0.333080	0.519977
C205	C	1.184498	-0.333533	0.172941
C206	C	1.434498	-0.083533	0.422941
C207	C	1.684498	0.166467	0.672941
C208	C	1.934498	0.416467	0.922941
H209	H	1.204526	-0.381895	0.211406
H210	H	1.454526	-0.131895	0.461406
H211	H	1.704526	0.118105	0.711406
H212	H	1.954526	0.368105	0.961406
H213	H	1.143560	-0.295561	0.210643
H214	H	1.393560	-0.045561	0.460643
H215	H	1.643560	0.204439	0.710643
H216	H	1.893560	0.454439	0.960643
H217	H	1.236697	-0.306456	0.153663
H218	H	1.486697	-0.056456	0.403663
H219	H	1.736697	0.193544	0.653663
H220	H	1.986697	0.443544	0.903663
C221	C	0.994203	-0.433347	0.172760
C222	C	1.244203	-0.183347	0.422760
C223	C	1.494203	0.066653	0.672760
C224	C	1.744203	0.316653	0.922760
H225	H	0.932224	-0.406940	0.172663
H226	H	1.182224	-0.156940	0.422663
H227	H	1.432224	0.093060	0.672663
H228	H	1.682224	0.343060	0.922663
H229	H	1.025153	-0.417019	0.230035
H230	H	1.275153	-0.167019	0.480035
H231	H	1.525153	0.082981	0.730035
H232	H	1.775153	0.332981	0.980035
H233	H	0.993902	-0.492896	0.172395
H234	H	1.243902	-0.242896	0.422395
H235	H	1.493902	0.007104	0.672395
H236	H	1.743902	0.257104	0.922395
