data_functionalizedCrystal
_audit_creation_method	'MofGen! by Chris Wilmer'
_symmetry_space_group_name_H-M	'P1'
_symmetry_Int_Tables_number	1
_symmetry_cell_setting	triclinic
loop_
_symmetry_equiv_pos_as_xyz
  x,y,z
_cell_length_a	13.635800
_cell_length_b	11.102289
_cell_length_c	11.102291
_cell_angle_alpha	88.050825
_cell_angle_beta	108.605752
_cell_angle_gamma	71.394293
loop_
_atom_site_label
_atom_site_type_symbol
_atom_site_fract_x
_atom_site_fract_y
_atom_site_fract_z
V1	V	2.055769	-0.175855	0.396259
O2	O	2.035286	0.008434	0.388716
O3	O	2.044158	-0.348675	0.393548
O4	O	2.044162	-0.173157	0.569081
O5	O	2.035282	-0.168299	0.211968
V6	V	2.294320	-0.153811	0.374216
O7	O	2.193441	-0.224210	0.444611
O8	O	2.381748	-0.105456	0.325864
O9	O	2.194329	0.019009	0.376926
O10	O	2.373503	-0.338100	0.381759
O11	O	2.373507	-0.161367	0.558507
O12	O	2.194325	-0.156509	0.201394
V13	V	2.555769	-0.175855	0.396259
O14	O	2.535286	0.008434	0.388716
O15	O	2.544158	-0.348675	0.393548
O16	O	2.544162	-0.173157	0.569081
O17	O	2.535282	-0.168299	0.211968
V18	V	2.794320	-0.153811	0.374216
O19	O	2.693441	-0.224210	0.444611
O20	O	2.881748	-0.105456	0.325864
O21	O	2.694329	0.019009	0.376926
O22	O	2.873503	-0.338100	0.381759
O23	O	2.873507	-0.161367	0.558507
O24	O	2.694325	-0.156509	0.201394
C25	C	1.969313	-0.390805	0.387297
C26	C	2.000547	-0.532087	0.386233
C27	C	2.107224	-0.604936	0.392073
C28	C	2.136568	-0.737687	0.391084
C29	C	1.952545	-0.724729	0.378410
C30	C	1.923205	-0.591981	0.379408
C31	C	2.213467	-0.612418	0.399385
C32	C	2.242811	-0.745169	0.398396
C33	C	1.969317	-0.166913	0.611205
C34	C	2.000552	-0.165850	0.752488
C35	C	2.100845	0.061132	0.383174
C36	C	2.059231	0.202413	0.384246
C37	C	2.100840	-0.162758	0.159263
C38	C	2.059224	-0.163813	0.017979
C39	C	2.469313	-0.390805	0.387297
C40	C	2.500547	-0.532087	0.386233
C41	C	2.469317	-0.166913	0.611205
C42	C	2.500552	-0.165850	0.752488
C43	C	2.107229	-0.171690	0.825336
C44	C	2.136565	-0.170667	0.958082
C45	C	1.952537	-0.157970	0.945121
C46	C	1.923200	-0.158984	0.812376
C47	C	2.213478	-0.179026	0.832821
C48	C	2.242814	-0.178003	0.965567
C49	C	2.600845	0.061132	0.383174
C50	C	2.559231	0.202413	0.384246
C51	C	2.600840	-0.162758	0.159263
C52	C	2.559224	-0.163813	0.017979
C53	C	2.607224	-0.604936	0.392073
C54	C	2.636568	-0.737687	0.391084
C55	C	2.452545	-0.724729	0.378410
C56	C	2.423205	-0.591981	0.379408
C57	C	2.713467	-0.612418	0.399385
C58	C	2.742811	-0.745169	0.398396
C59	C	2.607229	-0.171690	0.825336
C60	C	2.636565	-0.170667	0.958082
C61	C	2.452537	-0.157970	0.945121
C62	C	2.423200	-0.158984	0.812376
C63	C	2.713478	-0.179026	0.832821
C64	C	2.742814	-0.178003	0.965567
H65	H	1.836345	-0.532675	0.374667
O66	O	2.280246	-0.589707	0.509746
C67	C	2.431495	-0.681695	0.709748
C68	C	2.355933	-0.707598	0.584838
H69	H	2.492722	-0.776989	0.770483
H70	H	2.379311	-0.627168	0.766126
H71	H	2.478443	-0.621731	0.685060
H72	H	2.308970	-0.767596	0.609411
H73	H	2.408177	-0.762065	0.528495
O74	O	2.213593	-0.549107	0.292428
C75	C	2.243720	-0.566102	0.090325
C76	C	2.243659	-0.637968	0.211410
H77	H	2.268003	-0.637911	0.024776
H78	H	2.305454	-0.513886	0.119437
H79	H	2.157659	-0.493279	0.037080
H80	H	2.329674	-0.710853	0.264711
H81	H	2.181866	-0.690098	0.182214
O82	O	2.828424	-0.287653	1.028795
C83	C	2.893502	-0.480203	1.181227
C84	C	2.796482	-0.356061	1.109717
H85	H	2.867704	-0.535559	1.246649
H86	H	2.967061	-0.454718	1.241514
H87	H	2.917548	-0.542282	1.108377
H88	H	2.772339	-0.293924	1.182478
H89	H	2.722985	-0.381638	1.049409
H90	H	2.389581	-0.773511	0.372854
H91	H	2.308716	-0.803040	0.492551
H92	H	1.889563	-0.152377	0.993897
O93	O	1.877400	-0.782935	0.371546
C94	C	1.775184	-0.908112	0.252493
C95	C	1.860282	-0.842229	0.260095
H96	H	1.761335	-0.956090	0.162407
H97	H	1.693847	-0.833280	0.248402
H98	H	1.807432	-0.983820	0.341110
H99	H	1.828137	-0.766528	0.171501
H100	H	1.941603	-0.917136	0.264249
O101	O	2.273463	-0.775190	0.294903
C102	C	2.337531	-0.942695	0.176651
C103	C	2.302893	-0.908882	0.293931
H104	H	2.361312	-1.050782	0.175812
H105	H	2.411175	-0.912512	0.182467
H106	H	2.265665	-0.889795	0.084789
H107	H	2.374687	-0.961766	0.385851
H108	H	2.229215	-0.939037	0.288001
H109	H	2.336336	-0.154230	0.753067
H110	H	2.314663	-0.269897	1.018414
H111	H	2.389563	-0.152377	0.993897
H112	H	1.836336	-0.154230	0.753067
H113	H	2.336345	-0.532675	0.374667
O114	O	2.770511	-0.292147	0.803846
C115	C	2.907619	-0.503747	0.885388
C116	C	2.843128	-0.375693	0.918382
H117	H	2.966327	-0.571339	0.977970
H118	H	2.956994	-0.485047	0.825720
H119	H	2.847210	-0.549689	0.828032
H120	H	2.903458	-0.329685	0.975781
H121	H	2.793736	-0.394476	0.977989
H122	H	2.769401	-0.593201	0.491815
H123	H	2.223215	-0.092765	0.785725
O124	O	2.270511	-0.292147	0.803846
C125	C	2.407619	-0.503747	0.885388
C126	C	2.343128	-0.375693	0.918382
H127	H	2.466327	-0.571339	0.977970
H128	H	2.456994	-0.485047	0.825720
H129	H	2.347210	-0.549689	0.828032
H130	H	2.403458	-0.329685	0.975781
H131	H	2.293736	-0.394476	0.977989
O132	O	2.264581	-0.070310	1.000086
C133	C	2.275269	0.131100	0.928946
C134	C	2.250622	0.009187	0.889679
H135	H	2.263971	0.195420	0.839702
H136	H	2.363880	0.102892	0.998338
H137	H	2.216122	0.185286	0.977874
H138	H	2.309698	-0.045056	0.840698
H139	H	2.161984	0.037480	0.820344
O140	O	2.713593	-0.549107	0.292428
C141	C	2.743720	-0.566102	0.090325
C142	C	2.743659	-0.637968	0.211410
H143	H	2.768003	-0.637911	0.024776
H144	H	2.805454	-0.513886	0.119437
H145	H	2.657659	-0.493279	0.037080
H146	H	2.829674	-0.710853	0.264711
H147	H	2.681866	-0.690098	0.182214
O148	O	2.821474	-0.814023	0.510778
C149	C	2.939112	-0.807425	0.723039
C150	C	2.850055	-0.729289	0.595827
H151	H	2.962230	-0.738951	0.791846
H152	H	3.015357	-0.869352	0.703414
H153	H	2.905617	-0.871834	0.768066
H154	H	2.883447	-0.664808	0.550734
H155	H	2.773826	-0.667446	0.615533
O156	O	2.724905	-0.076074	0.776454
C157	C	2.635221	0.118210	0.622330
C158	C	2.622132	0.001669	0.686041
H159	H	2.552138	0.181111	0.549238
H160	H	2.697566	0.083344	0.571625
H161	H	2.665644	0.176502	0.699043
H162	H	2.591674	-0.056671	0.609409
H163	H	2.559820	0.036621	0.736775
O164	O	2.764581	-0.070310	1.000086
C165	C	2.775269	0.131100	0.928946
C166	C	2.750622	0.009187	0.889679
H167	H	2.763971	0.195420	0.839702
H168	H	2.863880	0.102892	0.998338
H169	H	2.716122	0.185286	0.977874
H170	H	2.809698	-0.045056	0.840698
H171	H	2.661984	0.037480	0.820344
H172	H	2.768464	-0.770135	0.311581
