data_functionalizedCrystal
_audit_creation_method	'MofGen! by Chris Wilmer'
_symmetry_space_group_name_H-M	'P1'
_symmetry_Int_Tables_number	1
_symmetry_cell_setting	triclinic
loop_
_symmetry_equiv_pos_as_xyz
  x,y,z
_cell_length_a	21.295419
_cell_length_b	21.295418
_cell_length_c	13.897441
_cell_angle_alpha	89.967734
_cell_angle_beta	89.978117
_cell_angle_gamma	90.043188
loop_
_atom_site_label
_atom_site_type_symbol
_atom_site_fract_x
_atom_site_fract_y
_atom_site_fract_z
Zn1	Zn	0.962348	-0.250341	-0.545400
Zn2	Zn	1.462348	0.249659	-0.045400
Zn3	Zn	0.962260	-0.355620	-0.384096
Zn4	Zn	1.462260	0.144380	0.115904
Zn5	Zn	0.857076	-0.250395	-0.384115
Zn6	Zn	1.357076	0.249605	0.115885
Zn7	Zn	0.857045	-0.355603	-0.545346
Zn8	Zn	1.357045	0.144397	-0.045346
O9	O	0.909682	-0.302990	-0.464739
O10	O	1.409682	0.197010	0.035261
O11	O	1.050426	-0.264290	-0.524017
O12	O	1.550426	0.235710	-0.024017
O13	O	0.948283	-0.341691	-0.249117
O14	O	1.448283	0.158309	0.250883
O15	O	0.871091	-0.162299	-0.405540
O16	O	1.371091	0.337701	0.094460
O17	O	1.050361	-0.341638	-0.405509
O18	O	1.550361	0.158362	0.094491
O19	O	0.948434	-0.162258	-0.524035
O20	O	1.448434	0.337742	-0.024035
O21	O	0.871005	-0.264383	-0.249131
O22	O	1.371005	0.235617	0.250869
O23	O	0.768983	-0.264367	-0.405488
O24	O	1.268983	0.235633	0.094512
O25	O	0.871038	-0.341610	-0.680335
O26	O	1.371038	0.158390	-0.180335
O27	O	0.768960	-0.341663	-0.523943
O28	O	1.268960	0.158337	-0.023943
O29	O	0.948404	-0.264274	-0.680374
O30	O	1.448404	0.235726	-0.180374
O31	O	0.948252	-0.443707	-0.405456
O32	O	1.448252	0.056293	0.094544
O33	O	0.870951	-0.443695	-0.523925
O34	O	1.370951	0.056305	-0.023925
C35	C	0.746131	-0.303020	-0.464712
C36	C	1.246131	0.196980	0.035288
C37	C	0.676163	-0.303048	-0.464723
C38	C	1.176163	0.196952	0.035277
C39	C	0.643352	-0.262839	-0.526526
C40	C	1.143352	0.237161	-0.026526
C41	C	0.577610	-0.262822	-0.526530
C42	C	1.077610	0.237178	-0.026530
C43	C	0.544680	-0.303025	-0.464741
C44	C	1.044680	0.196975	0.035259
C45	C	0.577498	-0.343237	-0.402926
C46	C	1.077498	0.156763	0.097074
C47	C	0.643239	-0.343249	-0.402917
C48	C	1.143239	0.156751	0.097083
N49	N	0.441407	-0.358104	-0.457209
N50	N	0.941407	0.141896	0.042791
N51	N	0.378955	-0.358091	-0.457223
N52	N	0.878955	0.141909	0.042777
C53	C	0.346605	-0.302993	-0.464762
C54	C	0.846605	0.197007	0.035238
N55	N	0.379066	-0.247906	-0.472307
N56	N	0.879066	0.252094	0.027693
N57	N	0.441523	-0.247919	-0.472298
N58	N	0.941523	0.252081	0.027702
C59	C	0.473395	-0.303017	-0.464743
C60	C	0.973395	0.196983	0.035257
C61	C	0.242510	-0.262762	-0.526573
C62	C	0.742510	0.237238	-0.026573
C63	C	0.176766	-0.262744	-0.526570
C64	C	0.676766	0.237256	-0.026570
C65	C	0.176656	-0.343165	-0.402971
C66	C	0.676656	0.156835	0.097029
C67	C	0.242398	-0.343177	-0.402969
C68	C	0.742398	0.156823	0.097031
C69	C	0.275321	-0.302977	-0.464775
C70	C	0.775321	0.197023	0.035225
C71	C	0.909606	-0.466541	-0.464704
C72	C	1.409606	0.033459	0.035296
C73	C	0.909631	-0.536509	-0.464721
C74	C	1.409631	-0.036509	0.035279
C75	C	0.950033	-1.035893	-0.526563
C76	C	1.450033	-0.535893	-0.026563
C77	C	0.950015	-0.970150	-0.526548
C78	C	1.450015	-0.470150	-0.026548
C79	C	0.909768	-0.937349	-0.464799
C80	C	1.409768	-0.437349	0.035201
C81	C	0.869548	-0.970295	-0.403044
C82	C	1.369548	-0.470295	0.096956
C83	C	0.869572	-1.036036	-0.403054
C84	C	1.369572	-0.536036	0.096946
N85	N	0.854631	-0.834194	-0.457305
N86	N	1.354631	-0.334194	0.042695
N87	N	0.854610	-0.771742	-0.457301
N88	N	1.354610	-0.271742	0.042699
C89	C	0.909694	-0.739274	-0.464763
C90	C	1.409694	-0.239274	0.035237
N91	N	0.964801	-0.771616	-0.472249
N92	N	1.464801	-0.271616	0.027751
N93	N	0.964822	-0.834074	-0.472258
N94	N	1.464822	-0.334074	0.027742
C95	C	0.909738	-0.866063	-0.464781
C96	C	1.409738	-0.366063	0.035219
C97	C	0.949894	-0.635050	-0.526494
C98	C	1.449894	-0.135050	-0.026494
C99	C	0.949877	-0.569307	-0.526472
C100	C	1.449877	-0.069307	-0.026472
C101	C	0.869405	-0.569452	-0.402972
C102	C	1.369405	-0.069452	0.097028
C103	C	0.869428	-0.635195	-0.402989
C104	C	1.369428	-0.135195	0.097011
C105	C	0.909672	-0.667990	-0.464755
C106	C	1.409672	-0.167990	0.035245
C107	C	1.073873	-0.302960	-0.464767
C108	C	1.573873	0.197040	0.035233
C109	C	1.143841	-0.302947	-0.464779
C110	C	1.643841	0.197053	0.035221
C111	C	0.909727	-0.302934	-0.716332
C112	C	1.409727	0.197066	-0.216332
C113	C	0.909746	-0.302910	-0.823546
C114	C	1.409746	0.197090	-0.323546
C115	C	0.909776	-0.138799	-0.464796
C116	C	1.409776	0.361201	0.035204
C117	C	0.909816	-0.068831	-0.464820
C118	C	1.409816	0.431169	0.035180
C119	C	0.909763	-0.302868	-1.019842
C120	C	1.409763	0.197132	-0.519842
C121	C	0.909752	-0.302893	-0.910609
C122	C	1.409752	0.197107	-0.410609
C123	C	0.909674	-0.303000	-0.214125
C124	C	1.409674	0.197000	0.285875
C125	C	0.909777	-0.302846	-0.106911
C126	C	1.409777	0.197154	0.393089
H127	H	0.550683	-0.375971	-0.352616
H128	H	1.050683	0.124029	0.147384
H129	H	0.149845	-0.375900	-0.352661
H130	H	0.649845	0.124100	0.147339
C131	C	0.833876	-1.136876	-0.348242
C132	C	1.333876	-0.636876	0.151758
C133	C	0.825358	-1.072247	-0.335189
C134	C	1.325358	-0.572247	0.164811
H135	H	0.806580	-1.159230	-0.306342
H136	H	1.306580	-0.659230	0.193658
H137	H	0.824643	-1.147624	-0.413035
H138	H	1.324643	-0.647624	0.086965
H139	H	0.876182	-1.147604	-0.334187
H140	H	1.376182	-0.647604	0.165813
H141	H	0.783053	-1.061517	-0.349251
H142	H	1.283053	-0.561517	0.150749
H143	H	0.834587	-1.061494	-0.270381
H144	H	1.334587	-0.561494	0.229619
C145	C	0.744175	-0.227148	-0.581404
C146	C	1.244175	0.272852	-0.081404
C147	C	0.679541	-0.218648	-0.594458
C148	C	1.179541	0.281352	-0.094458
H149	H	0.766516	-0.199868	-0.623347
H150	H	1.266516	0.300132	-0.123347
H151	H	0.754934	-0.217882	-0.516627
H152	H	1.254934	0.282118	-0.016627
H153	H	0.754908	-0.269458	-0.595403
H154	H	1.254908	0.230542	-0.095403
H155	H	0.668807	-0.176338	-0.580452
H156	H	1.168807	0.323662	-0.080452
H157	H	0.668778	-0.227910	-0.659250
H158	H	1.168778	0.272090	-0.159250
C159	C	0.343125	-0.378903	-0.348082
C160	C	0.843125	0.121097	0.151918
C161	C	0.278468	-0.387383	-0.335042
C162	C	0.778468	0.112617	0.164958
H163	H	0.365391	-0.406193	-0.306138
H164	H	0.865391	0.093807	0.193862
H165	H	0.353905	-0.388169	-0.412858
H166	H	0.853905	0.111831	0.087142
H167	H	0.353928	-0.336597	-0.334075
H168	H	0.853928	0.163403	0.165925
H169	H	0.267664	-0.429689	-0.349056
H170	H	0.767664	0.070311	0.150944
H171	H	0.267684	-0.378122	-0.270251
H172	H	0.767684	0.121878	0.229749
H173	H	0.982808	-1.062591	-0.576850
H174	H	1.482808	-0.562591	-0.076850
H175	H	0.669953	-0.375993	-0.352588
H176	H	1.169953	0.124007	0.147412
H177	H	0.982765	-0.943327	-0.576829
H178	H	1.482765	-0.443327	-0.076829
H179	H	0.269317	-0.230024	-0.576893
H180	H	0.769317	0.269976	-0.076893
C181	C	0.833729	-0.736035	-0.348183
C182	C	1.333729	-0.236035	0.151817
C183	C	0.825210	-0.671405	-0.335133
C184	C	1.325210	-0.171405	0.164867
H185	H	0.806432	-0.758388	-0.306284
H186	H	1.306432	-0.258388	0.193716
H187	H	0.824499	-0.746784	-0.412976
H188	H	1.324499	-0.246784	0.087024
H189	H	0.876034	-0.746763	-0.334122
H190	H	1.376034	-0.246763	0.165878
H191	H	0.782906	-0.660676	-0.349201
H192	H	1.282906	-0.160676	0.150799
H193	H	0.834437	-0.660652	-0.270325
H194	H	1.334437	-0.160652	0.229675
H195	H	0.150053	-0.229997	-0.576895
H196	H	0.650053	0.270003	-0.076895
C197	C	0.784846	-0.896468	-0.389515
C198	C	1.284846	-0.396468	0.110485
C199	C	0.825306	-0.934242	-0.335172
C200	C	1.325306	-0.434242	0.164828
H201	H	0.757531	-0.874215	-0.347609
H202	H	1.257531	-0.374215	0.152391
H203	H	0.808797	-0.867444	-0.426277
H204	H	1.308797	-0.367444	0.073723
H205	H	0.760764	-0.922133	-0.431505
H206	H	1.260764	-0.422133	0.068495
H207	H	0.849392	-0.908577	-0.293187
H208	H	1.349392	-0.408577	0.206813
H209	H	0.801352	-0.963270	-0.298394
H210	H	1.301352	-0.463270	0.201606
H211	H	0.982659	-0.661754	-0.576794
H212	H	1.482659	-0.161754	-0.076794
C213	C	1.029411	-0.575770	-0.648560
C214	C	1.529411	-0.075770	-0.148560
C215	C	0.994088	-0.533098	-0.594346
C216	C	1.494088	-0.033098	-0.094346
H217	H	1.056702	-0.553415	-0.690466
H218	H	1.556702	-0.053415	-0.190466
H219	H	1.053516	-0.601404	-0.606579
H220	H	1.553516	-0.101404	-0.106579
H221	H	1.001970	-0.601425	-0.685416
H222	H	1.501970	-0.101425	-0.185416
H223	H	1.021529	-0.507446	-0.557484
H224	H	1.521529	-0.007446	-0.057484
H225	H	0.969981	-0.507454	-0.636332
H226	H	1.469981	-0.007454	-0.136332
C227	C	0.784704	-0.495629	-0.389433
C228	C	1.284704	0.004371	0.110567
C229	C	0.825163	-0.533406	-0.335095
C230	C	1.325163	-0.033406	0.164905
H231	H	0.757389	-0.473377	-0.347523
H232	H	1.257389	0.026623	0.152477
H233	H	0.808655	-0.466602	-0.426190
H234	H	1.308655	0.033398	0.073810
H235	H	0.760621	-0.521290	-0.431426
H236	H	1.260621	-0.021290	0.068574
H237	H	0.849249	-0.507745	-0.293106
H238	H	1.349249	-0.007745	0.206894
H239	H	0.801209	-0.562436	-0.298321
H240	H	1.301209	-0.062436	0.201679
C241	C	0.584316	-0.183346	-0.648727
C242	C	1.084316	0.316654	-0.148727
C243	C	0.541535	-0.218627	-0.594479
C244	C	1.041535	0.281373	-0.094479
H245	H	0.562044	-0.156067	-0.690681
H246	H	1.062044	0.343933	-0.190681
H247	H	0.609962	-0.159231	-0.606770
H248	H	1.109962	0.340769	-0.106770
H249	H	0.609948	-0.210816	-0.685534
H250	H	1.109948	0.289184	-0.185534
H251	H	0.515905	-0.191158	-0.557666
H252	H	1.015905	0.308842	-0.057666
H253	H	0.515878	-0.242744	-0.636441
H254	H	1.015878	0.257256	-0.136441
