data_functionalizedCrystal
_audit_creation_method	'MofGen! by Chris Wilmer'
_symmetry_space_group_name_H-M	'P1'
_symmetry_Int_Tables_number	1
_symmetry_cell_setting	triclinic
loop_
_symmetry_equiv_pos_as_xyz
  x,y,z
_cell_length_a	29.839134
_cell_length_b	21.395361
_cell_length_c	29.839125
_cell_angle_alpha	89.980954
_cell_angle_beta	90.021980
_cell_angle_gamma	89.974432
loop_
_atom_site_label
_atom_site_type_symbol
_atom_site_fract_x
_atom_site_fract_y
_atom_site_fract_z
Zn1	Zn	0.686753	0.249612	0.254121
Zn2	Zn	1.186753	0.749612	0.754121
Zn3	Zn	0.686699	0.354368	0.178989
Zn4	Zn	1.186699	0.854368	0.678989
Zn5	Zn	0.611636	0.249598	0.178990
Zn6	Zn	1.111636	0.749598	0.678990
Zn7	Zn	0.611598	0.354347	0.254077
Zn8	Zn	1.111598	0.854347	0.754077
O9	O	0.649171	0.301981	0.216544
O10	O	1.149171	0.801981	0.716544
O11	O	0.749613	0.263523	0.244172
O12	O	1.249613	0.763523	0.744172
O13	O	0.676735	0.340473	0.116122
O14	O	1.176735	0.840473	0.616122
O15	O	0.621639	0.161922	0.188975
O16	O	1.121639	0.661922	0.688975
O17	O	0.749573	0.340486	0.188973
O18	O	1.249573	0.840486	0.688973
O19	O	0.676827	0.161933	0.244173
O20	O	1.176827	0.661933	0.744173
O21	O	0.621587	0.263499	0.116123
O22	O	1.121587	0.763499	0.616123
O23	O	0.548764	0.263479	0.188933
O24	O	1.048764	0.763479	0.688933
O25	O	0.621574	0.340450	0.316950
O26	O	1.121574	0.840450	0.816950
O27	O	0.548736	0.340437	0.244099
O28	O	1.048736	0.840437	0.744099
O29	O	0.676790	0.263502	0.316982
O30	O	1.176790	0.763502	0.816982
O31	O	0.676698	0.442043	0.188931
O32	O	1.176698	0.942043	0.688931
O33	O	0.621522	0.442027	0.244098
O34	O	1.121522	0.942027	0.744098
C35	C	0.532449	0.301955	0.216512
C36	C	1.032449	0.801955	0.716512
C37	C	0.482514	0.301958	0.216509
C38	C	0.982514	0.801958	0.716509
C39	C	0.649112	0.464769	0.216519
C40	C	1.149112	0.964769	0.716519
C41	C	0.649128	0.534410	0.216524
C42	C	1.149128	1.034410	0.716524
C43	C	0.649184	0.301976	0.333723
C44	C	1.149184	0.801976	0.833723
C45	C	0.649189	0.301973	0.383657
C46	C	1.149189	0.801973	0.883657
C47	C	0.172866	0.342112	0.245234
C48	C	0.672866	0.842112	0.745234
C49	C	-0.014807	0.342130	0.245254
C50	C	0.485193	0.842130	0.745254
O51	O	-0.039076	0.376241	0.269658
O52	O	0.460924	0.876241	0.769658
N53	N	-0.038271	0.302004	0.216578
N54	N	0.461729	0.802004	0.716578
C55	C	-0.014813	0.261868	0.187897
C56	C	0.485187	0.761868	0.687897
O57	O	-0.039076	0.227734	0.163510
O58	O	0.460924	0.727734	0.663510
C59	C	0.172859	0.261848	0.187880
C60	C	0.672859	0.761848	0.687880
C61	C	0.196320	0.301981	0.216555
C62	C	0.696320	0.801981	0.716555
C63	C	0.196327	0.382242	0.273907
C64	C	0.696327	0.882242	0.773907
C65	C	0.243242	0.382239	0.273900
C66	C	0.743242	0.882239	0.773900
C67	C	0.266697	0.342108	0.245220
C68	C	0.766697	0.842108	0.745220
C69	C	0.243236	0.301978	0.216548
C70	C	0.743236	0.801978	0.716548
C71	C	0.196316	0.221709	0.159202
C72	C	0.696316	0.721709	0.659202
C73	C	0.243237	0.221706	0.159201
C74	C	0.743237	0.721706	0.659201
C75	C	0.266698	0.261839	0.187875
C76	C	0.766698	0.761839	0.687875
C77	C	0.313606	0.261844	0.187861
C78	C	0.813606	0.761844	0.687861
N79	N	0.337069	0.301970	0.216537
N80	N	0.837069	0.801970	0.716537
C81	C	0.313615	0.342102	0.245217
C82	C	0.813615	0.842102	0.745217
C83	C	-0.113344	0.261882	0.187908
C84	C	0.386656	0.761882	0.687908
C85	C	-0.160261	0.261888	0.187912
C86	C	0.339739	0.761888	0.687912
C87	C	-0.160252	0.342150	0.245269
C88	C	0.339748	0.842150	0.745269
C89	C	-0.113334	0.342147	0.245263
C90	C	0.386666	0.842147	0.745263
C91	C	-0.089880	0.302008	0.216584
C92	C	0.410120	0.802008	0.716584
C93	C	0.412141	0.342094	0.245199
C94	C	0.912141	0.842094	0.745199
C95	C	0.459060	0.342090	0.245188
C96	C	0.959060	0.842090	0.745188
C97	C	0.459047	0.261827	0.187833
C98	C	0.959047	0.761827	0.687833
C99	C	0.412131	0.261833	0.187842
C100	C	0.912131	0.761833	0.687842
C101	C	0.388679	0.301969	0.216529
C102	C	0.888679	0.801969	0.716529
O103	O	0.337904	0.227746	0.163473
O104	O	0.837904	0.727746	0.663473
O105	O	0.337886	0.376221	0.269607
O106	O	0.837886	0.876221	0.769607
C107	C	0.125950	0.342115	0.245241
C108	C	0.625950	0.842115	0.745241
C109	C	0.102489	0.301986	0.216569
C110	C	0.602489	0.801986	0.716569
C111	C	0.125944	0.261854	0.187889
C112	C	0.625944	0.761854	0.687889
C113	C	0.055572	0.301991	0.216572
C114	C	0.555572	0.801991	0.716572
C115	C	0.032117	0.342123	0.245252
C116	C	0.532117	0.842123	0.745252
C117	C	0.055581	0.382249	0.273928
C118	C	0.555581	0.882249	0.773928
C119	C	0.102496	0.382247	0.273921
C120	C	0.602496	0.882247	0.773921
C121	C	0.102480	0.221728	0.159213
C122	C	0.602480	0.721728	0.659213
C123	C	0.055565	0.221734	0.159222
C124	C	0.555565	0.721734	0.659222
C125	C	0.032110	0.261866	0.187902
C126	C	0.532110	0.761866	0.687902
C127	C	0.766350	0.302008	0.216577
C128	C	1.266350	0.802008	0.716577
C129	C	0.816284	0.302020	0.216591
C130	C	1.316284	0.802020	0.716591
C131	C	0.649243	0.138558	0.216579
C132	C	1.149243	0.638558	0.716579
C133	C	0.649274	0.068917	0.216594
C134	C	1.149274	0.568917	0.716594
C135	C	0.677884	0.567110	0.187828
C136	C	1.177884	1.067110	0.687828
C137	C	0.677905	0.632546	0.187838
C138	C	1.177905	1.132546	0.687838
C139	C	0.649162	0.665278	0.216539
C140	C	1.149162	1.165278	0.716539
C141	C	0.620404	0.632570	0.245241
C142	C	1.120404	1.132570	0.745241
C143	C	0.620387	0.567136	0.245233
C144	C	1.120387	1.067136	0.745233
C145	C	0.608710	0.768989	0.220053
C146	C	1.108710	1.268989	0.720053
C147	C	0.608726	0.834422	0.220057
C148	C	1.108726	1.334422	0.720057
C149	C	0.649214	0.867099	0.216566
C150	C	1.149214	1.367099	0.716566
C151	C	0.689687	0.834336	0.213060
C152	C	1.189687	1.334336	0.713060
C153	C	0.689670	0.768901	0.213052
C154	C	1.189670	1.268901	0.713052
C155	C	0.649177	0.736231	0.216551
C156	C	1.149177	1.236231	0.716551
C157	C	0.677995	0.970752	0.187879
C158	C	1.177995	1.470752	0.687879
C159	C	0.678017	1.036189	0.187892
C160	C	1.178017	1.536189	0.687892
C161	C	0.620512	1.036212	0.245293
C162	C	1.120512	1.536212	0.745293
C163	C	0.620494	0.970776	0.245282
C164	C	1.120494	1.470776	0.745282
C165	C	0.649235	0.938050	0.216573
C166	C	1.149235	1.438050	0.716573
C167	C	0.649185	0.301942	0.099822
C168	C	1.149185	0.801942	0.599822
C169	C	0.649267	0.301768	0.049888
C170	C	1.149267	0.801768	0.549888
C171	C	0.677970	0.261802	0.693320
C172	C	1.177970	0.761802	1.193320
C173	C	0.677992	0.261748	0.880994
C174	C	1.177992	0.761748	1.380994
O175	O	0.702430	0.227652	0.905275
O176	O	1.202430	0.727652	1.405275
N177	N	0.649248	0.301805	0.904443
N178	N	1.149248	0.801805	1.404443
C179	C	0.620495	0.341876	0.880970
C180	C	1.120495	0.841876	1.380970
O181	O	0.596043	0.375941	0.905222
O182	O	1.096043	0.875941	1.405222
C183	C	0.620470	0.341926	0.693298
C184	C	1.120470	0.841926	1.193298
C185	C	0.649220	0.301870	0.669852
C186	C	1.149220	0.801870	1.169852
C187	C	0.706717	0.221749	0.669874
C188	C	1.206717	0.721749	1.169874
C189	C	0.706713	0.221765	0.622958
C190	C	1.206713	0.721765	1.122958
C191	C	0.677962	0.261834	0.599489
C192	C	1.177962	0.761834	1.099489
C193	C	0.649215	0.301887	0.622936
C194	C	1.149215	0.801887	1.122936
C195	C	0.591715	0.381993	0.669827
C196	C	1.091715	0.881993	1.169827
C197	C	0.591710	0.382001	0.622906
C198	C	1.091710	0.882001	1.122906
C199	C	0.620459	0.341945	0.599459
C200	C	1.120459	0.841945	1.099459
C201	C	0.620461	0.341972	0.552552
C202	C	1.120461	0.841972	1.052552
N203	N	0.649205	0.301914	0.529103
N204	N	1.149205	0.801914	1.029103
C205	C	0.677955	0.261845	0.552572
C206	C	1.177955	0.761845	1.052572
C207	C	0.620510	0.341848	0.979501
C208	C	1.120510	0.841848	1.479501
C209	C	0.620516	0.341836	1.026419
C210	C	1.120516	0.841836	1.526419
C211	C	0.678014	0.261707	1.026439
C212	C	1.178014	0.761707	1.526439
C213	C	0.678009	0.261723	0.979520
C214	C	1.178009	0.761723	1.479520
C215	C	0.649254	0.301791	0.956052
C216	C	1.149254	0.801791	1.456052
C217	C	0.677945	0.261883	0.454046
C218	C	1.177945	0.761883	0.954046
C219	C	0.677939	0.261904	0.407126
C220	C	1.177939	0.761904	0.907126
C221	C	0.620441	0.342031	0.407110
C222	C	1.120441	0.842031	0.907110
C223	C	0.620447	0.342012	0.454026
C224	C	1.120447	0.842012	0.954026
C225	C	0.649201	0.301933	0.477492
C226	C	1.149201	0.801933	0.977492
O227	O	0.596032	0.376045	0.528241
O228	O	1.096032	0.876045	1.028241
O229	O	0.702396	0.227775	0.528312
O230	O	1.202396	0.727775	1.028312
C231	C	0.677974	0.261785	0.740236
C232	C	1.177974	0.761785	1.240236
C233	C	0.649228	0.301838	0.763683
C234	C	1.149228	0.801838	1.263683
C235	C	0.620477	0.341907	0.740214
C236	C	1.120477	0.841907	1.240214
C237	C	0.649234	0.301826	0.810600
C238	C	1.149234	0.801826	1.310600
C239	C	0.677985	0.261758	0.834069
C240	C	1.177985	0.761758	1.334069
C241	C	0.706729	0.221700	0.810620
C242	C	1.206729	0.721700	1.310620
C243	C	0.706725	0.221717	0.763705
C244	C	1.206725	0.721717	1.263705
C245	C	0.591733	0.381964	0.763663
C246	C	1.091733	0.881964	1.263663
C247	C	0.591740	0.381945	0.810578
C248	C	1.091740	0.881945	1.310578
C249	C	0.620491	0.341876	0.834047
C250	C	1.120491	0.841876	1.334047
H251	H	0.478160	0.374773	0.268539
H252	H	0.978160	0.874773	0.768539
H253	H	0.568289	0.414623	0.603801
H254	H	1.068289	0.914623	1.103801
H255	H	0.597076	0.944150	0.268647
H256	H	1.097076	1.444150	0.768647
H257	H	0.730122	0.189147	0.603872
H258	H	1.230122	0.689147	1.103872
H259	H	-0.179360	0.229214	0.164557
H260	H	0.320640	0.729214	0.664557
H261	H	0.722656	0.860940	0.210216
H262	H	1.222656	1.360940	0.710216
H263	H	0.393028	0.229154	0.164492
H264	H	0.893028	0.729154	0.664492
H265	H	0.701399	0.944106	0.164503
H266	H	1.201399	1.444106	0.664503
H267	H	0.568321	0.414595	0.744559
H268	H	1.068321	0.914595	1.244559
H269	H	0.177235	0.414922	0.297264
H270	H	0.677235	0.914922	0.797264
H271	H	0.575771	0.861093	0.222908
H272	H	1.075771	1.361093	0.722908
H273	H	0.575738	0.742389	0.222898
H274	H	1.075738	1.242389	0.722898
H275	H	0.597110	1.062862	0.268664
H276	H	1.097110	1.562862	0.768664
H277	H	0.730135	0.189099	0.744619
H278	H	1.230135	0.689099	1.244619
H279	H	0.597042	0.374634	0.473117
H280	H	1.097042	0.874634	0.973117
H281	H	0.393051	0.374775	0.268560
H282	H	0.893051	0.874775	0.768560
H283	H	-0.094252	0.229197	0.164552
H284	H	0.405748	0.729197	0.664552
H285	H	0.701419	0.229105	0.960433
H286	H	1.201419	0.729105	1.460433
H287	H	0.701436	1.062812	0.164525
H288	H	1.201436	1.562812	0.664525
H289	H	0.701288	0.540467	0.164452
H290	H	1.201288	1.040467	0.664452
H291	H	0.597002	0.659225	0.268611
H292	H	1.097002	1.159225	0.768611
H293	H	0.262330	0.189016	0.135849
H294	H	0.762330	0.689016	0.635849
H295	H	0.596970	0.540511	0.268602
H296	H	1.096970	1.040511	0.768602
H297	H	0.701352	0.229286	0.388038
H298	H	1.201352	0.729286	0.888038
H299	H	0.701323	0.659176	0.164470
H300	H	1.201323	1.159176	0.664470
H301	H	0.262340	0.414919	0.297251
H302	H	0.762340	0.914919	0.797251
H303	H	0.597034	0.374656	0.387994
H304	H	1.097034	0.874656	0.887994
H305	H	0.730129	0.189117	0.688977
H306	H	1.230129	0.689117	1.188977
H307	H	0.701357	0.229245	0.473147
H308	H	1.201357	0.729245	0.973147
H309	H	0.730140	0.189077	0.829737
H310	H	1.230140	0.689077	1.329737
H311	H	0.036467	0.189054	0.135868
H312	H	0.536467	0.689054	0.635868
H313	H	0.701424	0.229082	1.045555
H314	H	1.201424	0.729082	1.545555
H315	H	-0.094235	0.374826	0.268613
H316	H	0.405765	0.874826	0.768613
H317	H	0.568330	0.414569	0.829665
H318	H	1.068330	0.914569	1.329665
H319	H	0.597111	0.374460	1.045505
H320	H	1.097111	0.874460	1.545505
H321	H	0.036476	0.414927	0.297279
H322	H	0.536476	0.914927	0.797279
H323	H	0.568304	0.414610	0.688909
H324	H	1.068304	0.914610	1.188909
H325	H	-0.179357	0.374826	0.268621
H326	H	0.320643	0.874826	0.768621
H327	H	0.177222	0.189030	0.135851
H328	H	0.677222	0.689030	0.635851
H329	H	0.597094	0.374480	0.960398
H330	H	1.097094	0.874480	1.460398
H331	H	0.478152	0.229154	0.164481
H332	H	0.978152	0.729154	0.664481
H333	H	0.121594	0.414927	0.297271
H334	H	0.621594	0.914927	0.797271
H335	H	0.121572	0.189047	0.135858
H336	H	0.621572	0.689047	0.635858
H337	H	0.722624	0.742227	0.210199
H338	H	1.222624	1.242227	0.710199
