data_functionalizedCrystal
_audit_creation_method	'MofGen! by Chris Wilmer'
_symmetry_space_group_name_H-M	'P1'
_symmetry_Int_Tables_number	1
_symmetry_cell_setting	triclinic
loop_
_symmetry_equiv_pos_as_xyz
  x,y,z
_cell_length_a	16.974829
_cell_length_b	9.065218
_cell_length_c	7.540329
_cell_angle_alpha	90.001757
_cell_angle_beta	86.341727
_cell_angle_gamma	95.794520
loop_
_atom_site_label
_atom_site_type_symbol
_atom_site_fract_x
_atom_site_fract_y
_atom_site_fract_z
O1	O	1.050489	-0.188080	-0.298245
O2	O	1.550489	0.311920	0.201755
O3	O	0.820455	-0.212018	-0.265232
O4	O	1.320455	0.287982	0.234768
O5	O	0.940227	0.014722	-0.282417
O6	O	1.440227	0.514722	0.217583
O7	O	0.930717	-0.414819	-0.281060
O8	O	1.430717	0.085181	0.218940
O9	O	0.940220	0.014724	0.012549
O10	O	1.440220	0.514724	0.512549
O11	O	0.820448	-0.212015	0.029734
O12	O	1.320448	0.287985	0.529734
O13	O	1.050482	-0.188077	-0.003279
O14	O	1.550482	0.311923	0.496721
Cu15	Cu	0.935464	-0.200046	0.040160
Cu16	Cu	1.435464	0.299954	0.540160
Cu17	Cu	0.935473	-0.200049	-0.308671
Cu18	Cu	1.435473	0.299951	0.191329
O19	O	0.930710	-0.414817	0.013906
O20	O	1.430710	0.085183	0.513906
C21	C	0.790986	-0.211104	-0.113521
C22	C	1.290986	0.288896	0.386479
C23	C	0.703190	-0.208368	-0.100921
C24	C	1.203190	0.291632	0.399079
C25	C	0.208988	-0.193012	-0.012739
C26	C	0.708988	0.306988	0.487261
C27	C	0.291481	-0.195583	-0.024581
C28	C	0.791481	0.304417	0.475419
C29	C	0.332733	-0.196859	-0.191291
C30	C	0.832733	0.303141	0.308709
C31	C	0.291486	-0.195579	-0.346169
C32	C	0.791486	0.304421	0.153831
C33	C	0.208993	-0.193018	-0.334325
C34	C	0.708993	0.306982	0.165675
C35	C	0.579450	-0.204527	-0.243955
C36	C	1.079450	0.295473	0.256045
C37	C	0.661949	-0.207083	-0.255787
C38	C	1.161949	0.292917	0.244213
C39	C	0.661939	-0.207090	0.065802
C40	C	1.161939	0.292910	0.565802
C41	C	0.579445	-0.204520	0.077631
C42	C	1.079445	0.295480	0.577631
C43	C	0.538204	-0.203248	-0.077246
C44	C	1.038204	0.296752	0.422754
N45	N	0.417055	-0.199483	-0.203400
N46	N	0.917055	0.300517	0.296600
N47	N	0.453883	-0.200635	-0.065136
N48	N	0.953883	0.299365	0.434864
C49	C	0.939309	0.069685	-0.134806
C50	C	1.439309	0.569685	0.365194
C51	C	0.936577	0.233454	-0.134422
C52	C	1.436577	0.733454	0.365578
C53	C	1.079950	-0.188991	-0.154994
C54	C	1.579950	0.311009	0.345006
C55	C	1.167747	-0.191728	-0.167605
C56	C	1.667747	0.308272	0.332395
N57	N	0.935464	-0.200043	0.285509
N58	N	1.435464	0.299957	0.785509
C59	C	0.931628	-0.469780	-0.133709
C60	C	1.431628	0.030220	0.366291
C61	C	0.934360	-0.633549	-0.134104
C62	C	1.434360	-0.133549	0.365896
N63	N	0.935479	-0.200041	-0.554021
N64	N	1.435479	0.299959	-0.054021
H65	H	0.325079	-0.196627	-0.481908
H66	H	0.825079	0.303373	0.018092
H67	H	0.175406	-0.191980	0.123015
H68	H	0.675406	0.308020	0.623015
H69	H	0.545882	-0.203485	-0.370068
H70	H	1.045882	0.296515	0.129932
H71	H	0.695533	-0.208134	-0.391549
H72	H	1.195533	0.291866	0.108451
H73	H	0.325057	-0.196626	0.101528
H74	H	0.825057	0.303374	0.601528
H75	H	0.545865	-0.203449	0.213384
H76	H	1.045865	0.296551	0.713384
H77	H	0.175415	-0.191976	-0.460434
H78	H	0.675415	0.308024	0.039566
H79	H	0.695526	-0.208129	0.191894
H80	H	1.195526	0.291871	0.691894
