data_functionalizedCrystal
_audit_creation_method	'MofGen! by Chris Wilmer'
_symmetry_space_group_name_H-M	'P1'
_symmetry_Int_Tables_number	1
_symmetry_cell_setting	triclinic
loop_
_symmetry_equiv_pos_as_xyz
  x,y,z
_cell_length_a	19.121102
_cell_length_b	25.639239
_cell_length_c	19.120904
_cell_angle_alpha	92.410104
_cell_angle_beta	90.088173
_cell_angle_gamma	87.592882
loop_
_atom_site_label
_atom_site_type_symbol
_atom_site_fract_x
_atom_site_fract_y
_atom_site_fract_z
Zn1	Zn	1.054765	-0.255751	-0.442042
Zn2	Zn	1.554765	0.244249	0.057958
Zn3	Zn	1.059658	-0.339618	-0.324799
Zn4	Zn	1.559658	0.160382	0.175201
Zn5	Zn	0.942536	-0.248315	-0.319827
Zn6	Zn	1.442536	0.251685	0.180173
Zn7	Zn	0.937469	-0.339266	-0.437001
Zn8	Zn	1.437469	0.160734	0.062999
O9	O	0.998607	-0.295738	-0.380917
O10	O	1.498607	0.204262	0.119083
O11	O	1.153518	-0.270136	-0.430680
O12	O	1.653518	0.229864	0.069320
O13	O	1.048290	-0.324541	-0.226035
O14	O	1.548290	0.175459	0.273965
O15	O	0.957496	-0.176139	-0.336067
O16	O	1.457496	0.323861	0.163933
O17	O	1.157113	-0.331752	-0.344542
O18	O	1.657113	0.168248	0.155458
O19	O	1.039950	-0.181603	-0.425859
O20	O	1.539950	0.318397	0.074141
O21	O	0.962241	-0.257461	-0.222382
O22	O	1.462241	0.242539	0.277618
O23	O	0.843760	-0.257121	-0.331180
O24	O	1.343760	0.242879	0.168820
O25	O	0.948861	-0.331153	-0.535775
O26	O	1.448861	0.168847	-0.035775
O27	O	0.840037	-0.323942	-0.417267
O28	O	1.340037	0.176058	0.082733
O29	O	1.035037	-0.269795	-0.539478
O30	O	1.535037	0.230205	-0.039478
O31	O	1.043377	-0.412733	-0.339654
O32	O	1.543377	0.087267	0.160346
O33	O	0.953605	-0.412475	-0.422089
O34	O	1.453605	0.087525	0.077911
C35	C	0.816461	-0.289687	-0.373137
C36	C	1.316461	0.210313	0.126863
C37	C	0.738537	-0.287111	-0.369826
C38	C	1.238537	0.212889	0.130174
C39	C	0.998491	-0.431575	-0.380880
C40	C	1.498491	0.068425	0.119120
C41	C	0.998504	-0.489690	-0.380890
C42	C	1.498504	0.010310	0.119110
C43	C	0.700012	-0.320740	-0.413021
C44	C	1.200012	0.179260	0.086979
C45	C	0.626794	-0.318313	-0.409912
C46	C	1.126794	0.181687	0.090088
C47	C	0.592104	-0.282260	-0.363605
C48	C	1.092104	0.217740	0.136395
C49	C	0.630634	-0.248627	-0.320408
C50	C	1.130634	0.251373	0.179592
C51	C	0.703850	-0.251052	-0.323520
C52	C	1.203850	0.248948	0.176480
C53	C	0.371134	-0.273194	-0.351972
C54	C	0.871134	0.226806	0.148028
C55	C	0.297913	-0.270773	-0.348862
C56	C	0.797913	0.229227	0.151138
C57	C	0.294078	-0.340458	-0.438367
C58	C	0.794078	0.159542	0.061633
C59	C	0.367296	-0.342882	-0.441472
C60	C	0.867296	0.157118	0.058528
C61	C	0.405820	-0.309247	-0.398278
C62	C	0.905820	0.190753	0.101722
C63	C	0.517264	-0.279779	-0.360425
C64	C	1.017264	0.220221	0.139575
C65	C	0.480658	-0.311726	-0.401462
C66	C	0.980658	0.188274	0.098538
C67	C	1.045465	-0.850185	-0.338075
C68	C	1.545465	-0.350185	0.161925
C69	C	1.045491	-0.904791	-0.338085
C70	C	1.545491	-0.404791	0.161915
O71	O	1.085298	-0.933135	-0.301642
O72	O	1.585298	-0.433135	0.198358
N73	N	0.998728	-0.931982	-0.380969
N74	N	1.498728	-0.431982	0.119031
C75	C	0.951940	-0.904565	-0.423850
C76	C	1.451940	-0.404565	0.076150
O77	O	0.912167	-0.932708	-0.460327
O78	O	1.412167	-0.432708	0.039673
C79	C	0.951917	-0.849961	-0.423843
C80	C	1.451917	-0.349961	0.076157
C81	C	0.998679	-0.822772	-0.380951
C82	C	1.498679	-0.322772	0.119049
C83	C	1.092223	-0.822997	-0.295188
C84	C	1.592223	-0.322997	0.204812
C85	C	1.092195	-0.768395	-0.295176
C86	C	1.592195	-0.268395	0.204824
C87	C	1.045409	-0.740982	-0.338052
C88	C	1.545409	-0.240982	0.161948
C89	C	0.998651	-0.768171	-0.380940
C90	C	1.498651	-0.268171	0.119060
C91	C	0.905133	-0.822546	-0.466727
C92	C	1.405133	-0.322546	0.033273
C93	C	0.905115	-0.767938	-0.466716
C94	C	1.405115	-0.267938	0.033284
C95	C	0.951876	-0.740749	-0.423825
C96	C	1.451876	-0.240749	0.076175
C97	C	0.951837	-0.686156	-0.423805
C98	C	1.451837	-0.186156	0.076195
N99	N	0.998600	-0.658965	-0.380921
N100	N	1.498600	-0.158965	0.119079
C101	C	1.045386	-0.686378	-0.338045
C102	C	1.545386	-0.186378	0.161955
C103	C	0.951992	-1.019238	-0.423863
C104	C	1.451992	-0.519238	0.076137
C105	C	0.952011	-1.073841	-0.423867
C106	C	1.452011	-0.573841	0.076133
C107	C	1.045564	-1.074063	-0.338103
C108	C	1.545564	-0.574063	0.161897
C109	C	1.045541	-1.019459	-0.338096
C110	C	1.545541	-0.519459	0.161904
C111	C	0.998756	-0.992047	-0.380980
C112	C	1.498756	-0.492047	0.119020
C113	C	1.045324	-0.571710	-0.338024
C114	C	1.545324	-0.071710	0.161976
C115	C	1.045290	-0.517103	-0.338014
C116	C	1.545290	-0.017103	0.161986
C117	C	0.951740	-0.516886	-0.423780
C118	C	1.451740	-0.016886	0.076220
C119	C	0.951771	-0.571488	-0.423788
C120	C	1.451771	-0.071488	0.076212
C121	C	0.998569	-0.598899	-0.380907
C122	C	1.498569	-0.098899	0.119093
O123	O	0.912052	-0.657777	-0.460232
O124	O	1.412052	-0.157777	0.039768
O125	O	1.085159	-0.658229	-0.301581
O126	O	1.585159	-0.158229	0.198419
C127	C	1.181464	-0.301813	-0.388728
C128	C	1.681464	0.198187	0.111272
C129	C	1.259387	-0.304401	-0.392057
C130	C	1.759387	0.195599	0.107943
C131	C	0.990838	-0.301264	-0.563775
C132	C	1.490838	0.198736	-0.063775
C133	C	0.987527	-0.303619	-0.641698
C134	C	1.487527	0.196381	-0.141698
C135	C	0.998742	-0.159371	-0.380971
C136	C	1.498742	0.340629	0.119029
C137	C	0.998800	-0.101259	-0.380993
C138	C	1.498800	0.398741	0.119007
C139	C	1.030837	-0.272781	-0.680236
C140	C	1.530837	0.227219	-0.180236
C141	C	1.027718	-0.274992	-0.753453
C142	C	1.527718	0.225008	-0.253453
C143	C	0.981292	-0.308044	-0.788130
C144	C	1.481292	0.191956	-0.288130
C145	C	0.937977	-0.338883	-0.749587
C146	C	1.437977	0.161117	-0.249587
C147	C	0.941093	-0.336669	-0.676372
C148	C	1.441093	0.163331	-0.176372
C149	C	0.969635	-0.316324	-1.009097
C150	C	1.469635	0.183676	-0.509097
C151	C	0.966523	-0.318536	-1.082318
C152	C	1.466523	0.181464	-0.582318
C153	C	1.056263	-0.254644	-1.086178
C154	C	1.556263	0.245356	-0.586178
C155	C	1.059378	-0.252436	-1.012961
C156	C	1.559378	0.247564	-0.512961
C157	C	1.016061	-0.283273	-0.974424
C158	C	1.516061	0.216727	-0.474424
C159	C	0.978104	-0.310306	-0.862970
C160	C	1.478104	0.189694	-0.362970
C161	C	1.019246	-0.281008	-0.899586
C162	C	1.519246	0.218992	-0.399586
C163	C	1.006386	-0.290196	-0.198772
C164	C	1.506386	0.209804	0.301228
C165	C	1.009833	-0.287698	-0.120856
C166	C	1.509833	0.212302	0.379144
H167	H	0.728252	-0.350100	-0.450727
H168	H	1.228252	0.149900	0.049273
O169	O	0.585245	-0.354680	-0.456366
O170	O	1.085245	0.145320	0.043634
H171	H	0.621670	-0.380196	-0.489033
H172	H	1.121670	0.119804	0.010967
H173	H	1.083618	-0.997325	-0.303171
H174	H	1.583618	-0.497325	0.196829
H175	H	0.913696	-0.593627	-0.458716
H176	H	1.413696	-0.093627	0.041284
O177	O	1.109453	-0.216785	-0.975564
O178	O	1.609453	0.283215	-0.475564
H179	H	1.104348	-0.220430	-0.918178
H180	H	1.604348	0.279570	-0.418178
O181	O	1.096041	-1.103635	-0.291869
O182	O	1.596041	-0.603635	0.208131
H183	H	1.088205	-1.146172	-0.299093
H184	H	1.588205	-0.646172	0.200907
H185	H	1.130325	-0.845310	-0.260273
H186	H	1.630325	-0.345310	0.239727
H187	H	1.130274	-0.746261	-0.260252
H188	H	1.630274	-0.246261	0.239748
H189	H	0.913927	-1.095973	-0.458787
H190	H	1.413927	-0.595973	0.041213
O191	O	1.102962	-0.221369	-1.127740
O192	O	1.602962	0.278631	-0.627740
H193	H	1.092988	-0.228452	-1.184477
H194	H	1.592988	0.271548	-0.684477
O195	O	0.404713	-0.381763	-0.491424
O196	O	0.904713	0.118237	0.008576
H197	H	0.365622	-0.404737	-0.520944
H198	H	0.865622	0.095263	-0.020944
H199	H	0.913888	-0.996922	-0.458781
H200	H	1.413888	-0.496922	0.041219
O201	O	0.916443	-0.354183	-1.119725
O202	O	1.416443	0.145817	-0.619725
H203	H	0.886839	-0.375250	-1.080628
H204	H	1.386839	0.124750	-0.580628
O205	O	1.069321	-0.245364	-0.862183
O206	O	1.569321	0.254636	-0.362183
H207	H	1.056745	-0.204354	-0.875728
H208	H	1.556745	0.295646	-0.375728
H209	H	0.900174	-0.365793	-0.777828
H210	H	1.400174	0.134207	-0.277828
O211	O	0.854701	-0.851864	-0.512993
O212	O	1.354701	-0.351864	-0.012993
H213	H	0.822177	-0.823620	-0.542809
H214	H	1.322177	-0.323620	-0.042809
H215	H	0.867017	-0.745622	-0.501639
H216	H	1.367017	-0.245622	-0.001639
H217	H	0.934373	-0.341441	-0.977730
H218	H	1.434373	0.158559	-0.477730
O219	O	0.479842	-0.240896	-0.310479
O220	O	0.979842	0.259104	0.189521
H221	H	0.518929	-0.217915	-0.280963
H222	H	1.018929	0.282085	0.219037
O223	O	1.095737	-0.487781	-0.291758
O224	O	1.595737	0.012219	0.208242
H225	H	1.087860	-0.445205	-0.298947
H226	H	1.587860	0.054795	0.201053
O227	O	0.412671	-0.236928	-0.305362
O228	O	0.912671	0.263072	0.194638
H229	H	0.398134	-0.195808	-0.316873
H230	H	0.898134	0.304192	0.183127
O231	O	1.095791	-0.601270	-0.291770
O232	O	1.595791	-0.101270	0.208230
H233	H	1.128291	-0.573183	-0.261944
H234	H	1.628291	-0.073183	0.238056
O235	O	0.928028	-0.345952	-0.900374
O236	O	1.428028	0.154048	-0.400374
H237	H	0.957960	-0.374602	-0.935063
H238	H	1.457960	0.125398	-0.435063
H239	H	1.068644	-0.245869	-0.652007
H240	H	1.568644	0.254131	-0.152007
O241	O	0.252529	-0.376729	-0.484961
O242	O	0.752529	0.123271	0.015039
H243	H	0.195788	-0.368984	-0.475025
H244	H	0.695788	0.131016	0.024975
H245	H	0.269669	-0.241408	-0.311157
H246	H	0.769669	0.258592	0.188843
O247	O	0.593212	-0.209754	-0.270450
O248	O	1.093212	0.290246	0.229550
H249	H	0.558533	-0.183038	-0.300464
H250	H	1.058533	0.316962	0.199536
O251	O	0.745409	-0.214787	-0.276924
O252	O	1.245409	0.285213	0.223076
H253	H	0.708988	-0.189314	-0.244194
H254	H	1.208988	0.310686	0.255806
H255	H	0.913645	-0.494558	-0.458687
H256	H	1.413645	0.005442	0.041313
H257	H	0.508906	-0.341078	-0.439168
H258	H	1.008906	0.158922	0.060832
H259	H	1.062987	-0.249882	-0.784827
H260	H	1.562987	0.250118	-0.284827
O261	O	0.894372	-0.369922	-0.634800
O262	O	1.394372	0.130078	-0.134800
H263	H	0.861566	-0.393278	-0.671213
H264	H	1.361566	0.106722	-0.171213
