data_functionalizedCrystal
_audit_creation_method	'MofGen! by Chris Wilmer'
_symmetry_space_group_name_H-M	'P1'
_symmetry_Int_Tables_number	1
_symmetry_cell_setting	triclinic
loop_
_symmetry_equiv_pos_as_xyz
  x,y,z
_cell_length_a	14.044220
_cell_length_b	11.792241
_cell_length_c	13.101018
_cell_angle_alpha	93.381193
_cell_angle_beta	93.664400
_cell_angle_gamma	91.308853
loop_
_atom_site_label
_atom_site_type_symbol
_atom_site_fract_x
_atom_site_fract_y
_atom_site_fract_z
O1	O	0.124794	-1.524830	-0.085117
O2	O	0.138189	-1.195748	-0.085141
O3	O	-0.006518	-1.355348	-0.085119
O4	O	0.269501	-1.365229	-0.085139
O5	O	0.003874	-1.343884	0.085309
O6	O	0.148581	-1.184283	0.085288
O7	O	0.135186	-1.513365	0.085312
Zn8	Zn	0.143533	-1.347004	0.112359
Zn9	Zn	0.129842	-1.362109	-0.112188
O10	O	0.279893	-1.353764	0.085290
C11	C	-0.036659	-1.345292	0.000095
C12	C	-0.141951	-1.332393	0.000095
C13	C	0.142543	-1.147646	0.000070
C14	C	0.140024	-1.021396	0.000061
N15	N	0.152877	-1.336703	0.265606
C16	C	-0.334734	-1.308812	0.000079
C17	C	-0.391897	-1.400296	0.000083
C18	C	-0.499168	-1.387176	0.000073
C19	C	-0.227453	-1.321931	0.000088
C20	C	0.310033	-1.363821	0.000073
C21	C	0.415325	-1.376720	0.000066
C22	C	0.130832	-1.561467	0.000098
C23	C	0.133350	-1.687717	0.000100
C24	C	0.135394	-0.790247	0.000091
C25	C	0.137967	-0.918875	0.000075
N26	N	0.120491	-1.372418	-0.265436
C27	C	0.107775	-1.386426	0.525523
C28	C	0.165589	-1.322698	0.474641
C29	C	0.158514	-1.330493	0.358323
C30	C	0.114849	-1.378633	0.641851
H31	H	-0.360277	-1.488478	0.000020
O32	O	0.042363	-1.458362	0.473161
C33	C	-0.020185	-1.395697	0.411105
H34	H	0.016156	-1.311721	0.395178
H35	H	-0.087861	-1.378152	0.452356
C36	C	-0.090817	-1.567527	0.328671
C37	C	-0.046179	-1.464390	0.309102
H38	H	-0.106855	-1.609900	0.265752
H39	H	-0.048680	-1.609746	0.370482
H40	H	-0.147209	-1.552891	0.363049
H41	H	0.010217	-1.479027	0.274736
H42	H	-0.088307	-1.422175	0.267283
H43	H	-0.366357	-1.220642	0.000070
H44	H	0.220400	-1.262287	0.518438
