data_functionalizedCrystal
_audit_creation_method	'MofGen! by Chris Wilmer'
_symmetry_space_group_name_H-M	'P1'
_symmetry_Int_Tables_number	1
_symmetry_cell_setting	triclinic
loop_
_symmetry_equiv_pos_as_xyz
  x,y,z
_cell_length_a	6.817900
_cell_length_b	17.078472
_cell_length_c	12.908943
_cell_angle_alpha	96.404605
_cell_angle_beta	100.860631
_cell_angle_gamma	99.306020
loop_
_atom_site_label
_atom_site_type_symbol
_atom_site_fract_x
_atom_site_fract_y
_atom_site_fract_z
V1	V	-3.975581	-0.108777	-0.328577
O2	O	-3.985494	0.006246	-0.322431
O3	O	-3.906841	-0.216667	-0.326225
O4	O	-3.914260	-0.106657	-0.471929
O5	O	-3.978025	-0.104526	-0.175719
V6	V	-4.463519	-0.095072	-0.310307
O7	O	-4.227155	-0.138841	-0.368654
O8	O	-4.662142	-0.065008	-0.270229
O9	O	-4.309052	0.012818	-0.312659
O10	O	-4.571002	-0.210096	-0.316453
O11	O	-4.578472	-0.099324	-0.463165
O12	O	-4.301633	-0.097192	-0.166955
C13	C	-3.747312	-0.242982	-0.321015
C14	C	-3.772310	-0.331181	-0.320047
C15	C	-3.964910	-0.376642	-0.324847
C16	C	-3.988388	-0.459514	-0.323944
C17	C	-3.819262	-0.496923	-0.318234
C18	C	-3.626648	-0.451457	-0.313437
C19	C	-3.603175	-0.368587	-0.314347
C20	C	-3.870074	-0.744337	-0.314954
C21	C	-3.893563	-0.827213	-0.314041
C22	C	-4.255302	-0.835265	-0.324550
C23	C	-4.231809	-0.752392	-0.325454
C24	C	-4.039200	-0.706933	-0.320662
N25	N	-3.843255	-0.581631	-0.317307
N26	N	-4.015212	-0.622227	-0.321596
C27	C	-3.756775	-0.102652	-0.506873
C28	C	-3.787787	-0.101633	-0.624063
C29	C	-4.207829	-0.107590	-0.855003
C30	C	-4.236977	-0.106632	-0.965114
C31	C	-3.875233	-0.098754	-0.954396
C32	C	-3.846084	-0.099711	-0.844285
C33	C	-4.012391	-0.104131	-0.794593
C34	C	-3.983242	-0.105094	-0.684481
C35	C	-3.621498	-0.097210	-0.673764
C36	C	-3.650646	-0.096253	-0.783875
C37	C	-4.131922	0.039129	-0.317866
C38	C	-4.086162	0.127327	-0.318841
C39	C	-4.122461	-0.101199	-0.132006
C40	C	-4.070688	-0.102215	-0.014815
H41	H	-3.755837	-0.857671	-0.309416
H42	H	-3.446343	-0.331574	-0.310443
H43	H	-4.396120	-0.109449	-1.014297
H44	H	-4.118661	-0.108696	-0.644025
C45	C	-3.694838	-0.093828	-1.008477
C46	C	-3.677425	-0.024525	-1.057250
C47	C	-3.511288	-0.019966	-1.107094
H48	H	-3.574102	-0.091859	-0.956843
H49	H	-3.714710	-0.139714	-1.060857
H50	H	-3.657538	0.021349	-1.004875
H51	H	-3.798118	-0.026479	-1.108899
H52	H	-3.531161	-0.065852	-1.159474
H53	H	-3.390566	-0.018000	-1.055453
H54	H	-3.499463	0.027051	-1.140200
C55	C	-4.415310	-0.711717	-0.331441
C56	C	-4.384896	-0.653973	-0.241153
C57	C	-4.553908	-0.616497	-0.246622
H58	H	-4.432498	-0.686551	-0.393701
H59	H	-4.533407	-0.750636	-0.334116
H60	H	-4.266832	-0.615060	-0.238489
H61	H	-4.367732	-0.679119	-0.178879
H62	H	-4.672006	-0.655416	-0.249297
H63	H	-4.571083	-0.591335	-0.308886
H64	H	-4.533304	-0.577319	-0.185359
H65	H	-3.713242	-0.707334	-0.311046
C66	C	-4.464583	-0.884543	-0.329934
C67	C	-4.595541	-0.877216	-0.424420
C68	C	-4.788362	-0.922591	-0.429413
H69	H	-4.454652	-0.939280	-0.328637
H70	H	-4.516498	-0.865543	-0.270526
H71	H	-4.543638	-0.896219	-0.483811
H72	H	-4.605533	-0.822490	-0.425737
H73	H	-4.840277	-0.903591	-0.370005
H74	H	-4.778410	-0.977325	-0.428113
H75	H	-4.877245	-0.917620	-0.493516
H76	H	-3.488947	-0.481922	-0.308794
C77	C	-3.409434	-0.093644	-0.608121
C78	C	-3.405888	-0.162517	-0.558780
C79	C	-3.210579	-0.159286	-0.498315
H80	H	-3.314455	-0.090935	-0.653411
H81	H	-3.374344	-0.047446	-0.555268
H82	H	-3.440952	-0.208703	-0.611626
H83	H	-3.500824	-0.165240	-0.513472
H84	H	-3.175490	-0.113088	-0.445462
H85	H	-3.115616	-0.156575	-0.543613
H86	H	-3.208152	-0.206011	-0.464822
H87	H	-4.102632	-0.346188	-0.329487
H88	H	-4.145220	-0.496525	-0.327854
H89	H	-3.515251	-0.092652	-0.824348
H90	H	-4.343246	-0.111196	-0.814545
