data_functionalizedCrystal
_audit_creation_method	'MofGen! by Chris Wilmer'
_symmetry_space_group_name_H-M	'P1'
_symmetry_Int_Tables_number	1
_symmetry_cell_setting	triclinic
loop_
_symmetry_equiv_pos_as_xyz
  x,y,z
_cell_length_a	17.699083
_cell_length_b	18.266242
_cell_length_c	17.699083
_cell_angle_alpha	90.007243
_cell_angle_beta	83.283015
_cell_angle_gamma	90.003008
loop_
_atom_site_label
_atom_site_type_symbol
_atom_site_fract_x
_atom_site_fract_y
_atom_site_fract_z
O1	O	1.004081	0.060780	0.095712
O2	O	0.783702	0.060804	0.108165
O3	O	0.900118	0.060785	-0.008251
O4	O	0.887665	0.060799	0.212128
O5	O	0.900098	-0.060977	-0.008257
O6	O	0.783683	-0.060958	0.108159
O7	O	1.004061	-0.060982	0.095706
Zn8	Zn	0.893869	-0.080302	0.101932
Zn9	Zn	0.893895	0.080124	0.101940
O10	O	0.887646	-0.060963	0.212122
C11	C	0.755495	-0.000074	0.107716
C12	C	0.671477	-0.000065	0.106377
N13	N	0.893856	-0.189789	0.101926
C14	C	0.622856	-0.000061	0.174710
C15	C	0.543913	-0.000070	0.173448
C16	C	0.513592	-0.000079	0.103852
C17	C	0.562219	-0.000085	0.035513
C18	C	0.641161	-0.000081	0.036776
C19	C	0.243856	-0.000104	0.030418
C20	C	0.164908	-0.000106	0.029160
C21	C	0.146608	-0.000093	0.167090
C22	C	0.225550	-0.000089	0.168353
C23	C	0.274170	-0.000099	0.100015
C24	C	0.359769	-0.000090	0.101384
C25	C	0.427995	-0.000083	0.102481
C26	C	0.945422	-0.228107	0.050402
C27	C	0.945427	-0.304752	0.050399
C28	C	0.893873	-0.343076	0.101932
C29	C	0.842298	-0.304750	0.153459
C30	C	0.842290	-0.228106	0.153456
N31	N	0.884116	-0.463404	0.168921
N32	N	0.884129	-0.536212	0.168921
C33	C	0.893894	-0.573999	0.101943
N34	N	0.903662	-0.536227	0.034962
N35	N	0.903653	-0.463412	0.034962
C36	C	0.893876	-0.426183	0.101941
C37	C	0.945468	-0.695423	0.050411
C38	C	0.945468	-0.772070	0.050407
C39	C	0.842342	-0.772066	0.153474
C40	C	0.842339	-0.695421	0.153472
C41	C	0.893906	-0.657104	0.101941
C42	C	1.032268	-0.000103	0.096156
C43	C	1.116286	-0.000107	0.097494
C44	C	0.899662	-0.000096	-0.036451
C45	C	0.898323	-0.000096	-0.120469
N46	N	0.893913	0.189611	0.101939
C47	C	0.966656	-0.000105	-0.169090
C48	C	0.965394	-0.000098	-0.248033
C49	C	0.895798	-0.000088	-0.278354
C50	C	0.827459	-0.000078	-0.229727
C51	C	0.828722	-0.000079	-0.150785
C52	C	0.822364	-0.000071	-0.548090
C53	C	0.821106	-0.000072	-0.627038
C54	C	0.959036	-0.000091	-0.645338
C55	C	0.960299	-0.000092	-0.566396
C56	C	0.891961	-0.000077	-0.517776
C57	C	0.893330	-0.000083	-0.432177
C58	C	0.894427	-0.000088	-0.363951
C59	C	0.888102	-0.000080	0.240322
C60	C	0.889440	-0.000075	0.324340
H61	H	0.647537	-0.000053	0.231384
C62	C	0.528871	-0.000097	-0.041046
C63	C	0.547280	0.063124	-0.097769
C64	C	0.513935	0.063115	-0.174330
C65	C	0.462181	-0.000116	-0.194169
C66	C	0.443769	-0.063342	-0.137444
C67	C	0.477114	-0.063332	-0.060883
H68	H	0.585594	0.109936	-0.083084
H69	H	0.527565	0.109919	-0.216321
H70	H	0.437496	-0.000123	-0.250844
H71	H	0.405454	-0.110154	-0.152129
H72	H	0.463484	-0.110137	-0.018892
H73	H	0.680748	-0.000084	-0.018868
H74	H	0.250232	-0.000079	0.225025
H75	H	0.107012	-0.000089	0.222734
C76	C	0.785623	-0.653265	0.210156
C77	C	0.728933	-0.695414	0.266865
C78	C	0.672213	-0.653257	0.323549
C79	C	0.672183	-0.568952	0.323526
C80	C	0.728875	-0.526799	0.266815
C81	C	0.785595	-0.568956	0.210130
H82	H	0.728954	-0.757825	0.266884
H83	H	0.630246	-0.684462	0.365531
H84	H	0.630195	-0.537745	0.365487
H85	H	0.728854	-0.464388	0.266795
H86	H	0.827562	-0.537751	0.168149
H87	H	0.140225	-0.000114	-0.027517
H88	H	0.764429	-0.000065	-0.651721
C89	C	1.002193	-0.814224	-0.006273
C90	C	1.058928	-0.772075	-0.062936
C91	C	1.115654	-0.814232	-0.119616
C92	C	1.115644	-0.898536	-0.119633
C93	C	1.058906	-0.940690	-0.062968
C94	C	1.002181	-0.898533	-0.006288
H95	H	1.058937	-0.709664	-0.062925
H96	H	1.157655	-0.783026	-0.161563
H97	H	1.157636	-0.929743	-0.161590
H98	H	1.058897	-1.003101	-0.062978
H99	H	0.960180	-0.929739	0.035659
C100	C	1.002183	-0.653270	-0.006277
C101	C	1.060007	-0.600571	0.023220
C102	C	1.116722	-0.558422	-0.033469
C103	C	1.115613	-0.568972	-0.119656
C104	C	1.057786	-0.621674	-0.149158
C105	C	1.001071	-0.663823	-0.092469
H106	H	1.060831	-0.592759	0.087025
H107	H	1.159529	-0.519408	-0.011630
H108	H	1.157596	-0.537770	-0.161621
H109	H	1.056963	-0.629486	-0.212963
H110	H	0.958264	-0.702836	-0.114308
H111	H	0.283434	-0.000113	-0.025228
H112	H	0.800321	-0.335957	0.195417
C113	C	1.002136	-0.185956	-0.006285
C114	C	1.001031	-0.196509	-0.092472
C115	C	1.057743	-0.154356	-0.149161
C116	C	1.115560	-0.101649	-0.119662
C117	C	1.116667	-0.091093	-0.033470
C118	C	1.059955	-0.133247	0.023218
H119	H	0.958230	-0.235528	-0.114313
H120	H	1.056924	-0.162170	-0.212965
H121	H	1.157542	-0.070444	-0.161626
H122	H	1.159469	-0.052075	-0.011630
H123	H	1.060775	-0.125433	0.087023
C124	C	0.747194	-0.000071	-0.494614
C125	C	0.670641	-0.000072	-0.527969
C126	C	0.595467	-0.000077	-0.474489
C127	C	0.596845	-0.000081	-0.387655
C128	C	0.673401	-0.000080	-0.354296
C129	C	0.748575	-0.000075	-0.407775
H130	H	0.669618	-0.000070	-0.592253
H131	H	0.538796	-0.000078	-0.499184
H132	H	0.541197	-0.000085	-0.348066
H133	H	0.674423	-0.000083	-0.290012
H134	H	0.805246	-0.000074	-0.383080
C135	C	1.002157	-0.346911	-0.006277
C136	C	1.058898	-0.304762	-0.062934
C137	C	1.115629	-0.346918	-0.119608
C138	C	1.115619	-0.431223	-0.119626
C139	C	1.058875	-0.473377	-0.062968
C140	C	1.002144	-0.431221	-0.006293
H141	H	1.058908	-0.242351	-0.062922
H142	H	1.157634	-0.315713	-0.161551
H143	H	1.157614	-0.462429	-0.161580
H144	H	1.058866	-0.535788	-0.062979
H145	H	0.960139	-0.462426	0.035649
H146	H	0.800298	-0.196908	0.195414
C147	C	1.040562	-0.000108	-0.301516
C148	C	1.117117	-0.000124	-0.268166
C149	C	1.192289	-0.000131	-0.321649
C150	C	1.190906	-0.000122	-0.408483
C151	C	1.114348	-0.000106	-0.441838
C152	C	1.039177	-0.000099	-0.388354
H153	H	1.118143	-0.000130	-0.203882
H154	H	1.248962	-0.000142	-0.296958
H155	H	1.246552	-0.000127	-0.448075
H156	H	1.113322	-0.000099	-0.506121
H157	H	0.982504	-0.000087	-0.413046
H158	H	0.504328	-0.000066	0.229092
H159	H	0.800364	-0.803269	0.195430
H160	H	1.023330	-0.000118	-0.144409
H161	H	1.016971	-0.000104	-0.541714
H162	H	1.014680	-0.000099	-0.684934
H163	H	0.770792	-0.000065	-0.254420
H164	H	0.773078	-0.000072	-0.111198
