data_functionalizedCrystal
_audit_creation_method	'MofGen! by Chris Wilmer'
_symmetry_space_group_name_H-M	'P1'
_symmetry_Int_Tables_number	1
_symmetry_cell_setting	triclinic
loop_
_symmetry_equiv_pos_as_xyz
  x,y,z
_cell_length_a	17.038272
_cell_length_b	13.101039
_cell_length_c	14.044220
_cell_angle_alpha	86.332523
_cell_angle_beta	87.849783
_cell_angle_gamma	86.404528
loop_
_atom_site_label
_atom_site_type_symbol
_atom_site_fract_x
_atom_site_fract_y
_atom_site_fract_z
O1	O	1.055801	-0.085089	-0.202095
O2	O	0.827941	-0.085119	-0.198806
O3	O	0.938450	-0.085095	-0.062191
O4	O	0.945292	-0.085114	-0.338710
O5	O	0.930523	0.085333	-0.072010
O6	O	0.820014	0.085309	-0.208625
O7	O	1.047873	0.085339	-0.211914
Zn8	Zn	0.932685	0.112383	-0.211829
Zn9	Zn	0.943130	-0.112163	-0.198891
O10	O	0.937364	0.085314	-0.348530
C11	C	0.794640	0.000091	-0.200726
C12	C	0.707224	0.000080	-0.191806
N13	N	0.925562	0.265630	-0.220658
N14	N	0.950258	-0.265410	-0.190055
C15	C	0.662839	0.000075	-0.273694
C16	C	0.580701	0.000090	-0.265309
C17	C	0.542950	0.000102	-0.175034
C18	C	0.587341	0.000110	-0.093140
C19	C	0.669477	0.000102	-0.101527
C20	C	0.295118	0.000131	-0.145406
C21	C	0.212976	0.000136	-0.137025
C22	C	0.206341	0.000117	-0.309195
C23	C	0.288480	0.000104	-0.317573
C24	C	0.332863	0.000117	-0.235680
C25	C	0.458992	0.000114	-0.166461
C26	C	0.416819	0.000113	-0.244254
C27	C	1.081174	0.000126	-0.209994
C28	C	1.168591	0.000131	-0.218913
C29	C	0.931492	0.000119	-0.031544
C30	C	0.922561	0.000119	0.074402
C31	C	0.915872	0.474670	-0.232680
C32	C	0.959946	0.525556	-0.178037
C33	C	0.954554	0.641873	-0.184725
C34	C	0.921263	0.358342	-0.225992
C35	C	0.944322	0.000098	-0.379176
C36	C	0.953254	0.000091	-0.485121
C37	C	0.906233	0.000103	0.268381
C38	C	0.969578	0.000108	0.320905
C39	C	0.960493	0.000098	0.428842
C40	C	0.915317	0.000112	0.160434
H41	H	0.693569	0.000064	-0.347205
F42	F	1.014815	0.468319	-0.110628
H43	H	0.874092	0.518458	-0.284482
F44	F	1.049381	0.000126	0.273729
H45	H	0.845184	0.000092	0.304474
F46	F	0.716715	0.000111	-0.014370
F47	F	0.159100	0.000105	-0.396346
H48	H	0.544566	0.000084	-0.331991
H49	H	0.319211	0.000082	-0.391084
H50	H	0.331245	0.000143	-0.078722
F51	F	0.172800	0.000167	-0.040940
H52	H	0.447559	0.000108	-0.317756
F53	F	0.547162	0.000130	0.002937
H54	H	0.428245	0.000153	-0.092960
