data_functionalizedCrystal
_audit_creation_method	'MofGen! by Chris Wilmer'
_symmetry_space_group_name_H-M	'P1'
_symmetry_Int_Tables_number	1
_symmetry_cell_setting	triclinic
loop_
_symmetry_equiv_pos_as_xyz
  x,y,z
_cell_length_a	10.685661
_cell_length_b	16.625545
_cell_length_c	10.686551
_cell_angle_alpha	85.592661
_cell_angle_beta	80.927213
_cell_angle_gamma	85.646941
loop_
_atom_site_label
_atom_site_type_symbol
_atom_site_fract_x
_atom_site_fract_y
_atom_site_fract_z
Zn1	Zn	1.995608	-0.376344	-0.866149
Zn2	Zn	1.979143	-0.520803	-0.653878
Zn3	Zn	1.767043	-0.376381	-0.637673
Zn4	Zn	1.783279	-0.501525	-0.849841
O5	O	1.881268	-0.443763	-0.751885
O6	O	2.171049	-0.403559	-0.851597
O7	O	1.937322	-0.509728	-0.474099
O8	O	1.797458	-0.263546	-0.668025
O9	O	2.158952	-0.509692	-0.695643
O10	O	1.965384	-0.263519	-0.835885
O11	O	1.781493	-0.403622	-0.462194
O12	O	1.591571	-0.384930	-0.652211
O13	O	1.825130	-0.476837	-1.029633
O14	O	1.603500	-0.476873	-0.808090
O15	O	1.981127	-0.384866	-1.041615
O16	O	1.953065	-0.631076	-0.679829
O17	O	1.809165	-0.616913	-0.823802
C18	C	1.551480	-0.428814	-0.726623
C19	C	1.410397	-0.422436	-0.715846
C20	C	1.881127	-0.653250	-0.751835
C21	C	1.881186	-0.742872	-0.751865
C22	C	1.881237	-0.815656	-0.751894
C23	C	1.881313	-0.906966	-0.751927
C24	C	1.881381	-0.979745	-0.751948
C25	C	1.881455	-1.071061	-0.751980
C26	C	2.212344	-0.458772	-0.777247
C27	C	2.353429	-0.465168	-0.788054
C28	C	1.906777	-0.428697	-1.082969
C29	C	1.917647	-0.422277	-1.224058
C30	C	1.881446	-0.233459	-0.751966
C31	C	1.881522	-0.143840	-0.752001
C32	C	1.855932	-0.458716	-0.422095
C33	C	1.845307	-0.464921	-0.281026
H34	H	1.412596	-0.506632	-0.858127
H35	H	1.775062	-0.506345	-1.221863
Br36	Br	1.311799	-0.353315	-0.599077
Br37	Br	2.034757	-0.353240	-1.322668
