data_functionalizedCrystal
_audit_creation_method	'MofGen! by Chris Wilmer'
_symmetry_space_group_name_H-M	'P1'
_symmetry_Int_Tables_number	1
_symmetry_cell_setting	triclinic
loop_
_symmetry_equiv_pos_as_xyz
  x,y,z
_cell_length_a	10.723024
_cell_length_b	10.723022
_cell_length_c	9.198806
_cell_angle_alpha	89.996352
_cell_angle_beta	89.997988
_cell_angle_gamma	84.467548
loop_
_atom_site_label
_atom_site_type_symbol
_atom_site_fract_x
_atom_site_fract_y
_atom_site_fract_z
O1	O	0.175015	1.657189	-0.120879
O2	O	0.191770	1.294036	-0.120884
O3	O	0.001817	1.483989	-0.120876
O4	O	0.364969	1.467236	-0.120887
O5	O	0.001816	1.483974	0.120909
O6	O	0.191770	1.294021	0.120901
O7	O	0.175015	1.657174	0.120906
Cu8	Cu	0.183392	1.475596	0.142981
Cu9	Cu	0.183393	1.475614	-0.142958
O10	O	0.364969	1.467221	0.120898
C11	C	0.190551	1.247529	0.000008
C12	C	0.186904	1.108975	0.000007
C13	C	0.077365	1.060414	0.000009
C14	C	0.073593	0.917211	0.000007
C15	C	-0.044683	1.482763	0.000015
C16	C	-0.183238	1.479115	0.000010
C17	C	-0.258221	1.585403	0.000009
C18	C	-0.401424	1.581635	0.000004
C19	C	0.411468	1.468448	0.000004
C20	C	0.550023	1.472095	-0.000000
C21	C	0.176234	1.703681	0.000011
C22	C	0.179881	1.842235	0.000003
N23	N	0.183391	1.475593	0.344095
N24	N	0.183384	1.475627	-0.344072
C25	C	0.103283	1.555348	0.416295
C26	C	0.103279	1.555368	0.583707
H27	H	0.273673	0.884039	0.000009
Cl28	Cl	-0.002886	1.660470	0.320389
Cl29	Cl	0.289272	1.370181	0.440001
Cl30	Cl	-0.002608	1.660802	0.679562
Cl31	Cl	-0.063123	1.159898	0.000010
Cl32	Cl	0.327392	1.009490	-0.000010
H33	H	0.251976	1.407346	0.593848
H34	H	-0.216399	1.679188	0.000019
Cl35	Cl	-0.247795	1.334309	-0.000007
Cl36	Cl	-0.071215	0.852664	0.000022
Cl37	Cl	-0.350511	1.331600	0.000012
H38	H	-0.465857	1.672625	0.000010
