data_functionalizedCrystal
_audit_creation_method	'MofGen! by Chris Wilmer'
_symmetry_space_group_name_H-M	'P1'
_symmetry_Int_Tables_number	1
_symmetry_cell_setting	triclinic
loop_
_symmetry_equiv_pos_as_xyz
  x,y,z
_cell_length_a	18.050591
_cell_length_b	12.645330
_cell_length_c	12.645323
_cell_angle_alpha	90.023971
_cell_angle_beta	89.971504
_cell_angle_gamma	89.977807
loop_
_atom_site_label
_atom_site_type_symbol
_atom_site_fract_x
_atom_site_fract_y
_atom_site_fract_z
Zn1	Zn	1.135359	0.422144	-0.599617
Zn2	Zn	1.135257	0.599432	-0.422360
Zn3	Zn	1.011161	0.422171	-0.422344
Zn4	Zn	1.011130	0.599353	-0.599558
O5	O	1.073227	0.510775	-0.510970
O6	O	1.239270	0.445683	-0.576136
O7	O	1.118766	0.575962	-0.274011
O8	O	1.027692	0.273820	-0.445878
O9	O	1.239195	0.575936	-0.445906
O10	O	1.118939	0.273800	-0.576120
O11	O	1.027594	0.445729	-0.273999
O12	O	0.907233	0.445653	-0.445820
O13	O	1.027639	0.575802	-0.747913
O14	O	0.907210	0.575828	-0.576018
O15	O	1.118909	0.445607	-0.747957
O16	O	1.118736	0.747769	-0.445848
O17	O	1.027540	0.747711	-0.576034
C18	C	0.880275	0.510735	-0.510911
C19	C	0.797729	0.510744	-0.510911
C20	C	0.598269	0.439873	-0.440273
C21	C	0.548850	0.536565	-0.414194
C22	C	0.646599	0.510776	-0.510959
C23	C	0.548937	0.414117	-0.537035
C24	C	0.500613	0.510799	-0.511003
C25	C	0.598266	0.607520	-0.484830
C26	C	0.598358	0.485006	-0.607716
C27	C	0.548960	0.581766	-0.581674
C28	C	0.730697	0.510762	-0.510931
C29	C	0.416517	0.510824	-0.511032
C30	C	1.073144	0.786205	-0.510959
C31	C	1.073177	0.904035	-0.510990
C32	C	1.073282	0.510693	-0.787475
C33	C	1.073305	0.510658	-0.905305
C34	C	1.266932	0.510815	-0.511029
C35	C	1.349478	0.510833	-0.511055
C36	C	1.016025	1.071607	-0.593146
C37	C	1.015745	0.949047	-0.592880
C38	C	1.051984	0.948627	-0.399266
C39	C	1.051622	1.071225	-0.399766
C40	C	1.151832	1.071132	-0.539659
C41	C	1.151362	0.948525	-0.542100
C42	C	1.073304	1.234270	-0.511008
C43	C	1.073270	1.116440	-0.511034
C44	C	1.015710	0.592178	-1.072842
C45	C	1.015861	0.592581	-0.950282
C46	C	1.151553	0.540984	-0.949837
C47	C	1.151237	0.541496	-1.072435
C48	C	1.053392	0.398356	-1.072499
C49	C	1.051646	0.399029	-0.949892
C50	C	1.073215	0.510780	-0.235540
C51	C	1.073336	0.510516	-0.117711
H52	H	0.527105	0.558379	-0.332388
H53	H	1.090553	0.334969	-0.919275
H54	H	0.619920	0.379976	-0.380430
C55	C	0.977649	0.361013	-1.114222
C56	C	0.932937	0.431895	-1.189895
C57	C	0.857191	0.394567	-1.231618
C58	C	0.826157	0.286356	-1.197668
C59	C	0.870869	0.215467	-1.121991
C60	C	0.946615	0.252795	-1.080268
H61	H	0.955910	0.512006	-1.215031
H62	H	0.824092	0.447044	-1.287640
H63	H	0.770085	0.258723	-1.228554
H64	H	0.847896	0.135356	-1.096855
H65	H	0.979714	0.200318	-1.024246
C66	C	0.973858	0.368123	-0.910561
C67	C	0.963303	0.267478	-0.843721
C68	C	0.885515	0.236576	-0.804379
C69	C	0.818283	0.306321	-0.831878
C70	C	0.828836	0.406973	-0.898723
C71	C	0.906623	0.437875	-0.938064
H72	H	1.013074	0.215843	-0.823361
H73	H	0.877704	0.162067	-0.754897
H74	H	0.760700	0.283446	-0.802756
H75	H	0.779064	0.458608	-0.919082
H76	H	0.914435	0.512384	-0.987546
C77	C	1.110088	0.316158	-1.111701
C78	C	1.174168	0.350570	-1.184372
C79	C	1.230867	0.268383	-1.223579
C80	C	1.223486	0.151784	-1.190116
C81	C	1.159403	0.117366	-1.117441
C82	C	1.102705	0.199553	-1.078233
H83	H	1.179634	0.436889	-1.209147
H84	H	1.278305	0.293862	-1.277378
H85	H	1.265457	0.090944	-1.219139
H86	H	1.153937	0.031047	-1.092665
H87	H	1.055267	0.174074	-1.024434
C88	C	1.211114	0.463181	-0.910483
C89	C	1.276930	0.503904	-0.844616
C90	C	1.336488	0.426098	-0.805259
C91	C	1.330231	0.307569	-0.831770
C92	C	1.264413	0.266841	-0.897641
C93	C	1.204854	0.344647	-0.936997
H94	H	1.281564	0.591651	-0.824988
H95	H	1.385212	0.456249	-0.756497
H96	H	1.374320	0.249973	-0.802636
H97	H	1.259779	0.179094	-0.917269
H98	H	1.156131	0.314496	-0.985759
H99	H	0.619845	0.689297	-0.462703
C100	C	0.937476	0.566924	-0.909608
C101	C	0.924651	0.469174	-0.839365
C102	C	0.846262	0.443512	-0.798704
C103	C	0.780697	0.515599	-0.828285
C104	C	0.793520	0.613355	-0.898532
C105	C	0.871909	0.639017	-0.939193
H106	H	0.973187	0.415805	-0.817464
H107	H	0.836770	0.371146	-0.746702
H108	H	0.722669	0.496602	-0.798186
H109	H	0.744983	0.666724	-0.920434
H110	H	0.881401	0.711383	-0.991195
C111	C	0.519890	0.662868	-0.662459
C112	C	0.539546	0.780739	-0.650315
C113	C	0.510476	0.861842	-0.731095
C114	C	0.461750	0.825075	-0.824020
C115	C	0.442092	0.707197	-0.836168
C116	C	0.471162	0.626094	-0.755387
H117	H	0.575618	0.807962	-0.581523
H118	H	0.525028	0.949103	-0.722102
H119	H	0.440231	0.885112	-0.883818
H120	H	0.406020	0.679975	-0.904959
H121	H	0.456610	0.538833	-0.764380
H122	H	1.168143	0.623487	-1.101050
C123	C	0.937833	1.113341	-0.567862
C124	C	0.925789	1.187880	-0.473063
C125	C	0.847599	1.229619	-0.447778
C126	C	0.781454	1.196819	-0.517293
C127	C	0.793497	1.122276	-0.612099
C128	C	0.871687	1.080537	-0.637383
H129	H	0.974755	1.212164	-0.421598
H130	H	0.838685	1.284801	-0.377597
H131	H	0.723574	1.227717	-0.498576
H132	H	0.744531	1.097992	-0.663563
H133	H	0.880601	1.025355	-0.707565
C134	C	1.106527	0.909242	-0.314347
C135	C	1.171101	0.835958	-0.345538
C136	C	1.225646	0.796572	-0.260621
C137	C	1.215617	0.830471	-0.144512
C138	C	1.151040	0.903759	-0.113315
C139	C	1.096495	0.943145	-0.198232
H140	H	1.178528	0.810860	-0.431494
H141	H	1.273450	0.742318	-0.283716
H142	H	1.255994	0.801315	-0.081651
H143	H	1.143613	0.928857	-0.027359
H144	H	1.048691	0.997398	-0.175137
H145	H	0.620120	0.463163	-0.689498
H146	H	1.029157	1.101020	-0.676261
C147	C	1.174787	0.650592	-0.908396
C148	C	1.249901	0.698123	-0.941146
C149	C	1.273131	0.807733	-0.899708
C150	C	1.221246	0.869812	-0.825520
C151	C	1.146127	0.822281	-0.792767
C152	C	1.122898	0.712671	-0.834205
H153	H	1.288314	0.652168	-0.996068
H154	H	1.328739	0.842918	-0.923954
H155	H	1.238442	0.950952	-0.794845
H156	H	1.107714	0.868236	-0.737845
H157	H	1.067289	0.677486	-0.809958
H158	H	0.527229	0.332374	-0.559035
C159	C	0.937075	0.909534	-0.567252
C160	C	0.874311	0.989534	-0.546959
C161	C	0.795638	0.950021	-0.521329
C162	C	0.779729	0.830508	-0.515992
C163	C	0.842495	0.750501	-0.536286
C164	C	0.921168	0.790013	-0.561916
H165	H	0.886086	1.078011	-0.550909
H166	H	0.749174	1.009249	-0.506306
H167	H	0.721490	0.801259	-0.497019
H168	H	0.830720	0.662023	-0.532335
H169	H	0.967632	0.730786	-0.576939
C170	C	0.975215	0.907281	-0.365912
C171	C	0.961815	0.787516	-0.355063
C172	C	0.885045	0.746173	-0.321716
C173	C	0.821674	0.824596	-0.299218
C174	C	0.835072	0.944369	-0.310067
C175	C	0.911842	0.985712	-0.343414
H176	H	1.008728	0.729456	-0.371717
H177	H	0.875127	0.657508	-0.313685
H178	H	0.764844	0.793991	-0.274533
H179	H	0.788160	1.002429	-0.293412
H180	H	0.921760	1.074376	-0.351444
C181	C	1.033811	0.704816	-0.910566
C182	C	0.977819	0.764512	-0.840630
C183	C	0.995836	0.876713	-0.800863
C184	C	1.069845	0.929218	-0.831031
C185	C	1.125842	0.869521	-0.900970
C186	C	1.107825	0.757321	-0.940738
H187	H	0.923029	0.725645	-0.818294
H188	H	0.954382	0.920903	-0.749089
H189	H	1.083182	1.012275	-0.801593
H190	H	1.180632	0.908388	-0.923306
H191	H	1.149279	0.713130	-0.992512
H192	H	1.167344	0.919376	-0.624323
C193	C	1.212006	0.907131	-0.467154
C194	C	1.277092	0.841965	-0.511458
C195	C	1.337723	0.800572	-0.436483
C196	C	1.333268	0.824345	-0.317203
C197	C	1.268179	0.889514	-0.272892
C198	C	1.207548	0.930907	-0.347867
H199	H	1.280393	0.824364	-0.599762
H200	H	1.385906	0.752330	-0.469286
H201	H	1.378150	0.793703	-0.261702
H202	H	1.264878	0.907115	-0.184589
H203	H	1.159365	0.979149	-0.315065
H204	H	0.957514	0.573382	-1.102307
H205	H	1.029005	0.918894	-0.675722
H206	H	0.994194	1.099911	-0.375518
H207	H	1.091508	1.100886	-0.336500
H208	H	1.171157	1.101978	-0.619745
H209	H	1.194482	1.100124	-0.479854
H210	H	1.028746	0.674807	-1.103664
H211	H	1.195628	0.484600	-1.102119
