data_functionalizedCrystal
_audit_creation_method	'MofGen! by Chris Wilmer'
_symmetry_space_group_name_H-M	'P1'
_symmetry_Int_Tables_number	1
_symmetry_cell_setting	triclinic
loop_
_symmetry_equiv_pos_as_xyz
  x,y,z
_cell_length_a	14.519710
_cell_length_b	10.654550
_cell_length_c	9.730223
_cell_angle_alpha	90.004253
_cell_angle_beta	89.997653
_cell_angle_gamma	95.917462
loop_
_atom_site_label
_atom_site_type_symbol
_atom_site_fract_x
_atom_site_fract_y
_atom_site_fract_z
O1	O	1.224719	-0.164623	-0.114259
O2	O	0.956343	-0.184009	-0.114269
O3	O	1.096702	0.008483	-0.114255
O4	O	1.084361	-0.357114	-0.114273
O5	O	1.096693	0.008488	0.114325
O6	O	0.956334	-0.184004	0.114311
O7	O	1.224710	-0.164617	0.114320
Zn8	Zn	1.090521	-0.174310	0.150608
Zn9	Zn	1.090533	-0.174317	-0.150556
O10	O	1.084352	-0.357109	0.114307
C11	C	0.921974	-0.183103	0.000020
C12	C	0.819579	-0.180396	0.000017
C13	C	1.259079	-0.165524	0.000029
C14	C	1.361475	-0.168231	0.000023
C15	C	1.095791	0.055275	0.000034
C16	C	1.093080	0.194692	0.000032
C17	C	1.736422	-0.178198	0.000022
C18	C	1.632100	-0.175430	0.000022
C19	C	1.548952	-0.173215	0.000021
C20	C	1.444623	-0.170446	0.000024
C21	C	1.085262	-0.403901	0.000015
C22	C	1.087973	-0.543318	0.000008
N23	N	1.090519	-0.174304	0.356144
C24	C	1.175721	0.274972	0.000034
C25	C	1.173168	0.405968	0.000017
C26	C	1.005326	0.376391	0.000001
C27	C	1.007880	0.245397	0.000008
N28	N	1.090541	-0.174312	-0.356092
C29	C	1.152691	-0.089105	0.428076
C30	C	1.152701	-0.089105	0.571959
C31	C	1.028363	-0.259516	0.571966
C32	C	1.028350	-0.259508	0.428085
H33	H	1.240463	0.471328	0.000016
C34	C	1.221069	0.004627	0.348940
C35	C	1.289453	0.098349	0.428072
C36	C	1.357830	0.192087	0.348941
C37	C	1.357824	0.192102	0.190679
C38	C	1.289438	0.098376	0.111538
C39	C	1.221060	0.004638	0.190669
H40	H	1.289460	0.098342	0.545236
H41	H	1.408454	0.261469	0.407528
H42	H	1.408441	0.261492	0.132101
H43	H	1.289431	0.098383	-0.005626
H44	H	1.170436	-0.064744	0.132083
H45	H	0.977747	-0.328889	0.630554
H46	H	0.935959	0.417692	-0.000015
C47	C	0.916968	0.157079	0.000009
C48	C	0.847389	0.162876	-0.118690
C49	C	0.756482	0.074559	-0.118695
C50	C	0.735154	-0.019556	0.000000
C51	C	0.804735	-0.025357	0.118709
C52	C	0.895642	0.062961	0.118714
H53	H	0.863176	0.232549	-0.206564
H54	H	0.704974	0.078853	-0.206572
H55	H	0.667859	-0.084934	-0.000003
H56	H	0.788948	-0.095029	0.206583
H57	H	0.947150	0.058666	0.206590
C58	C	0.959957	-0.353235	0.348947
C59	C	0.891612	-0.447011	0.428070
C60	C	0.823220	-0.540728	0.348931
C61	C	0.823173	-0.540669	0.190668
C62	C	0.891521	-0.446889	0.111536
C63	C	0.959912	-0.353172	0.190676
H64	H	0.891644	-0.447059	0.545234
H65	H	0.772625	-0.610151	0.407511
H66	H	0.772545	-0.610044	0.132085
H67	H	0.891488	-0.446841	-0.005627
H68	H	1.010508	-0.283749	0.132096
H69	H	1.245096	0.233692	0.000050
H70	H	1.203326	-0.019727	0.630522
