data_functionalizedCrystal
_audit_creation_method	'MofGen! by Chris Wilmer'
_symmetry_space_group_name_H-M	'P1'
_symmetry_Int_Tables_number	1
_symmetry_cell_setting	triclinic
loop_
_symmetry_equiv_pos_as_xyz
  x,y,z
_cell_length_a	19.375551
_cell_length_b	14.628931
_cell_length_c	14.628931
_cell_angle_alpha	89.999882
_cell_angle_beta	68.963958
_cell_angle_gamma	68.981741
loop_
_atom_site_label
_atom_site_type_symbol
_atom_site_fract_x
_atom_site_fract_y
_atom_site_fract_z
Zr1	Zr	0.619932	1.086415	0.085594
O2	O	0.738087	0.979678	-0.021188
O3	O	0.501776	1.091936	0.091161
O4	O	0.619931	1.131160	-0.060367
O5	O	0.619932	0.940454	0.280771
O6	O	0.619931	1.281592	-0.060367
O7	O	0.619932	0.940454	0.130339
O8	O	0.408572	1.211427	0.210688
O9	O	0.831291	1.010618	0.009716
O10	O	0.550375	1.239418	0.126358
O11	O	0.550375	1.127152	0.238624
O12	O	0.689488	1.173333	0.060220
O13	O	0.689489	1.061068	0.172486
Zr14	Zr	0.619932	1.326336	0.325515
Zr15	Zr	0.619932	1.326336	0.085594
Zr16	Zr	0.619932	1.086414	0.325515
Zr17	Zr	0.768581	1.135761	0.134883
Zr18	Zr	0.471283	1.276989	0.276226
O19	O	0.738088	1.320815	0.319948
O20	O	0.738087	1.320815	-0.021189
O21	O	0.738088	0.979678	0.319949
O22	O	0.501776	1.433073	0.432297
O23	O	0.501776	1.433073	0.091160
O24	O	0.501776	1.091935	0.432298
O25	O	0.619932	1.472297	0.130338
O26	O	0.619932	1.281591	0.471476
O27	O	0.619932	1.131159	0.471476
O28	O	0.619932	1.472297	0.280770
O29	O	0.831291	1.201324	0.009716
O30	O	0.408573	1.211427	0.401393
O31	O	0.408573	1.402132	0.401393
O32	O	0.408572	1.402132	0.210687
O33	O	0.831291	1.010618	0.200422
O34	O	0.831291	1.201324	0.200421
O35	O	0.550375	1.239417	0.350889
O36	O	0.550375	1.351683	0.238623
O37	O	0.689489	1.285599	0.172485
O38	O	0.689489	1.173333	0.284751
C39	C	0.433995	1.144650	0.143902
C40	C	0.370889	1.123701	0.122977
C41	C	-0.093355	1.384294	0.383480
C42	C	-0.152675	1.364679	0.363807
C43	C	-0.050041	1.233007	0.232095
C44	C	0.009290	1.252613	0.251754
C45	C	-0.012374	1.328257	0.327448
C46	C	0.090270	1.196577	0.195722
C47	C	0.149595	1.216178	0.215382
C48	C	0.127939	1.291817	0.291075
C49	C	0.046950	1.347859	0.347109
C50	C	0.111933	1.120928	0.120032
C51	C	0.192913	1.064892	0.064000
C52	C	0.252240	1.084498	0.083656
C53	C	0.230584	1.160136	0.159348
C54	C	0.333228	1.028455	0.027622
C55	C	0.392553	1.048057	0.047283
C56	C	0.289909	1.179738	0.179009
C57	C	0.619932	0.906270	0.205555
C58	C	0.619932	0.804417	0.205555
C59	C	0.619932	0.759008	0.126796
C60	C	0.619932	0.653738	0.126794
C61	C	0.805869	1.268100	0.267207
C62	C	0.868974	1.289049	0.288132
C63	C	0.619931	1.206376	-0.094551
C64	C	0.619931	1.206376	-0.196403
C65	C	0.619932	1.506481	0.205554
C66	C	0.619932	1.608334	0.205554
C67	C	0.688941	1.173593	-0.274622
C68	C	0.688942	1.173593	-0.379893
C69	C	0.619932	1.206375	0.505659
C70	C	0.619933	1.206375	0.607512
C71	C	0.433995	1.444756	0.143901
C72	C	0.370889	1.525660	0.122976
C73	C	0.433995	1.144650	0.444007
C74	C	0.370890	1.123701	0.524935
C75	C	0.433995	1.444755	0.444006
C76	C	0.370890	1.525659	0.524934
C77	C	0.805868	0.967995	-0.032897
C78	C	0.868974	0.887091	-0.113825
C79	C	0.805869	0.967995	0.267208
C80	C	0.868974	0.887091	0.288133
C81	C	0.805868	1.268101	-0.032898
C82	C	0.868974	1.289050	-0.113826
C83	C	0.341254	1.505052	0.054538
C84	C	0.281968	1.581063	0.034858
C85	C	0.252314	1.677681	0.083621
C86	C	0.281955	1.698288	0.152063
C87	C	0.341244	1.622279	0.171737
C88	C	0.341255	1.172465	0.621551
C89	C	0.281969	1.152779	0.697604
C90	C	0.252315	1.084335	0.677037
C91	C	0.281956	1.035567	0.580412
C92	C	0.341245	1.055247	0.504362
C93	C	0.341255	1.622264	0.504337
C94	C	0.281969	1.698294	0.580372
C95	C	0.252315	1.677715	0.677001
C96	C	0.281956	1.581101	0.697597
C97	C	0.341245	1.505075	0.621565
C98	C	0.898616	0.790489	-0.093226
C99	C	0.957920	0.714465	-0.169254
C100	C	0.987577	0.735045	-0.265882
C101	C	0.957932	0.831658	-0.286480
C102	C	0.898633	0.907681	-0.210451
C103	C	0.898616	0.907701	0.356563
C104	C	0.957918	0.831695	0.376222
C105	C	0.987574	0.735078	0.327456
C106	C	0.957930	0.714470	0.259018
C107	C	0.898633	0.790476	0.239354
C108	C	0.898609	1.357499	-0.093229
C109	C	0.957895	1.377202	-0.169264
C110	C	0.987549	1.328450	-0.265893
C111	C	0.957908	1.259997	-0.286489
C112	C	0.898619	1.240300	-0.210457
H113	H	-0.110997	1.445895	0.445114
H114	H	0.257842	1.776955	0.563584
H115	H	0.365365	1.639071	0.227470
F116	F	0.989457	0.611649	-0.147313
H117	H	0.874474	1.397203	-0.014555
H118	H	0.619936	0.614686	0.059363
F119	F	0.372808	1.644189	0.401504
F120	F	0.189214	1.063400	0.757987
H121	H	0.257803	0.979838	0.563679
F122	F	0.372802	1.245316	0.643461
H123	H	0.982061	1.220307	-0.365174
H124	H	0.748021	1.145533	-0.263652
H125	H	0.874474	0.986365	0.396284
H126	H	0.365366	1.015538	0.425693
F127	F	-0.238866	1.424328	0.423450
H128	H	0.204039	1.739630	0.738902
F129	F	0.867091	1.167438	-0.232390
F130	F	0.372775	1.402260	0.643500
F131	F	0.989434	1.450053	-0.147323
H132	H	0.560851	1.234445	-0.207373
F133	F	-0.026994	1.152500	0.151543
F134	F	0.372805	1.402230	0.002626
H135	H	0.257843	1.192500	0.776274
F136	F	0.250430	1.559110	-0.037982
F137	F	0.989502	0.853545	-0.389326
H138	H	0.619928	0.765362	0.272985
H139	H	0.257803	1.564360	0.776282
F140	F	0.989454	0.853648	0.449065
F141	F	0.867062	0.768564	0.009607
H142	H	1.035858	0.673198	0.343477
H143	H	0.204037	1.739563	0.067593
H144	H	1.035862	0.673133	-0.327781
F145	F	0.250385	1.801122	0.203956
F146	F	0.867087	1.010491	-0.232391
F147	F	0.989499	0.611636	0.207127
H148	H	0.874501	0.773680	0.183635
H149	H	0.748024	1.145520	-0.447032
H150	H	1.035826	1.344497	-0.327794
F151	F	0.266854	1.260259	0.259561
F152	F	0.191079	1.312676	0.312003
H153	H	0.029308	1.409460	0.408743
F154	F	0.215960	0.984385	-0.016552
F155	F	0.356273	0.947943	-0.052924
F156	F	0.048792	1.100066	0.099111
F157	F	0.619926	0.810056	0.038662
F158	F	0.478743	0.988417	-0.012352
H159	H	0.619936	0.647376	0.272984
H160	H	0.560848	1.234437	-0.325352
