data_functionalizedCrystal
_audit_creation_method	'MofGen! by Chris Wilmer'
_symmetry_space_group_name_H-M	'P1'
_symmetry_Int_Tables_number	1
_symmetry_cell_setting	triclinic
loop_
_symmetry_equiv_pos_as_xyz
  x,y,z
_cell_length_a	19.077068
_cell_length_b	12.759401
_cell_length_c	12.759393
_cell_angle_alpha	90.022497
_cell_angle_beta	92.262348
_cell_angle_gamma	87.672141
loop_
_atom_site_label
_atom_site_type_symbol
_atom_site_fract_x
_atom_site_fract_y
_atom_site_fract_z
Zn1	Zn	-0.280151	-1.589373	-0.610815
Zn2	Zn	0.219849	-1.089373	-0.110815
Zn3	Zn	-0.397864	-1.582166	-0.442173
Zn4	Zn	0.102136	-1.082166	0.057827
Zn5	Zn	-0.280187	-1.413670	-0.435147
Zn6	Zn	0.219813	-0.913670	0.064853
Zn7	Zn	-0.397814	-1.406568	-0.617802
Zn8	Zn	0.102186	-0.906568	-0.117802
O9	O	-0.339004	-1.497944	-0.526484
O10	O	0.160996	-0.997944	-0.026484
O11	O	-0.295772	-1.735438	-0.588460
O12	O	0.204228	-1.235438	-0.088460
O13	O	-0.382291	-1.559770	-0.294222
O14	O	0.117709	-1.059770	0.205778
O15	O	-0.181691	-1.442965	-0.452585
O16	O	0.318309	-0.942965	0.047415
O17	O	-0.382256	-1.730142	-0.464560
O18	O	0.117744	-1.230142	0.035440
O19	O	-0.181665	-1.572054	-0.581647
O20	O	0.318335	-1.072054	-0.081647
O21	O	-0.295833	-1.435977	-0.289060
O22	O	0.204167	-0.935977	0.210940
O23	O	-0.295784	-1.265707	-0.459361
O24	O	0.204216	-0.765707	0.040639
O25	O	-0.382169	-1.430862	-0.763894
O26	O	0.117831	-0.930862	-0.263894
O27	O	-0.382204	-1.260490	-0.593557
O28	O	0.117796	-0.760490	-0.093557
O29	O	-0.295723	-1.565168	-0.758760
O30	O	0.204277	-1.065168	-0.258760
O31	O	-0.496349	-1.552884	-0.471335
O32	O	0.003651	-1.052884	0.028665
O33	O	-0.496311	-1.423874	-0.600369
O34	O	0.003689	-0.923874	-0.100369
C35	C	-0.338993	-1.224977	-0.526455
C36	C	0.161007	-0.724977	-0.026455
C37	C	-0.339006	-1.108200	-0.526469
C38	C	0.160994	-0.608200	-0.026469
C39	C	-0.521867	-1.486855	-0.537396
C40	C	-0.021867	-0.986855	-0.037396
C41	C	-0.600097	-1.482207	-0.542099
C42	C	-0.100097	-0.982207	-0.042099
C43	C	-0.384072	-1.050645	-0.596242
C44	C	0.115928	-0.550645	-0.096242
C45	C	-0.384074	-0.940921	-0.596260
C46	C	0.115926	-0.440921	-0.096260
C47	C	-0.293940	-0.946317	-0.456723
C48	C	0.206060	-0.446317	0.043277
C49	C	-0.293935	-1.056039	-0.456711
C50	C	0.206065	-0.556039	0.043289
C51	C	-0.636846	-1.547244	-0.477183
C52	C	-0.136846	-1.047244	0.022817
C53	C	-0.710351	-1.542879	-0.481613
C54	C	-0.210351	-1.042879	0.018387
C55	C	-0.747106	-1.473470	-0.550954
C56	C	-0.247106	-0.973470	-0.050954
C57	C	-0.710352	-1.408430	-0.615877
C58	C	-0.210352	-0.908430	-0.115877
C59	C	-0.636849	-1.412801	-0.611452
C60	C	-0.136849	-0.912801	-0.111452
C61	C	-0.966939	-1.453193	-0.571392
C62	C	-0.466939	-0.953193	-0.071392
C63	C	-1.040448	-1.448824	-0.575810
C64	C	-0.540448	-0.948824	-0.075810
C65	C	-1.040442	-1.583275	-0.441547
C66	C	-0.540442	-1.083275	0.058453
C67	C	-0.966936	-1.587636	-0.437124
C68	C	-0.466936	-1.087636	0.062876
C69	C	-0.930189	-1.522600	-0.502050
C70	C	-0.430189	-1.022600	-0.002050
N71	N	-0.822240	-1.469004	-0.555482
N72	N	-0.322240	-0.969004	-0.055482
N73	N	-0.855056	-1.527072	-0.497528
N74	N	-0.355056	-1.027072	0.002472
C75	C	-0.155427	-1.509105	-0.515553
C76	C	0.344573	-1.009105	-0.015553
C77	C	-0.077197	-1.513862	-0.510895
C78	C	0.422803	-1.013862	-0.010895
C79	C	-0.338936	-1.498027	-0.800514
C80	C	0.161064	-0.998027	-0.300514
C81	C	-0.338908	-1.498062	-0.917289
C82	C	0.161092	-0.998062	-0.417289
C83	C	-0.339013	-0.771977	-0.526507
C84	C	0.160987	-0.271977	-0.026507
C85	C	-0.339012	-0.888754	-0.526499
C86	C	0.160988	-0.388754	-0.026499
C87	C	-0.293888	-1.568001	-0.969479
C88	C	0.206112	-1.068001	-0.469479
C89	C	-0.293858	-1.568020	-1.079201
C90	C	0.206142	-1.068020	-0.579201
C91	C	-0.383873	-1.428160	-1.084534
C92	C	0.116127	-0.928160	-0.584534
C93	C	-0.383899	-1.428136	-0.974813
C94	C	0.116101	-0.928136	-0.474813
C95	C	-0.339021	-1.497925	-0.253518
C96	C	0.160979	-0.997925	0.246482
C97	C	-0.338851	-1.498106	-0.136732
C98	C	0.161149	-0.998106	0.363268
H99	H	-0.420770	-1.093111	-0.653046
H100	H	0.079230	-0.593111	-0.153046
H101	H	-0.257232	-1.102902	-0.399893
H102	H	0.242768	-0.602902	0.100107
C103	C	-0.244370	-0.888929	-0.379988
C104	C	0.255630	-0.388929	0.120012
N105	N	-0.207034	-0.845705	-0.322187
N106	N	0.292966	-0.345705	0.177813
H107	H	-0.937012	-1.644154	-0.380661
H108	H	-0.437012	-1.144154	0.119339
H109	H	-0.420771	-0.894064	-0.653077
H110	H	0.079229	-0.394064	-0.153077
C111	C	-0.596422	-1.623598	-0.400900
C112	C	-0.096422	-1.123598	0.099100
N113	N	-0.565976	-1.681112	-0.343443
N114	N	-0.065976	-1.181112	0.156557
H115	H	-1.070372	-1.392316	-0.632295
H116	H	-0.570372	-0.892316	-0.132295
C117	C	-0.750786	-1.332076	-0.692150
C118	C	-0.250786	-0.832076	-0.192150
N119	N	-0.781240	-1.274560	-0.749596
N120	N	-0.281240	-0.774560	-0.249596
C121	C	-0.244334	-1.644960	-1.136605
C122	C	0.255666	-1.144960	-0.636605
N123	N	-0.207030	-1.702915	-1.179841
N124	N	0.292970	-1.202915	-0.679841
C125	C	-0.596426	-1.341255	-0.682865
C126	C	-0.096426	-0.841255	-0.182865
N127	N	-0.565980	-1.287367	-0.736659
N128	N	-0.065980	-0.787367	-0.236659
C129	C	-0.926527	-1.381704	-0.642868
C130	C	-0.426527	-0.881704	-0.142868
N131	N	-0.896086	-1.327875	-0.696727
N132	N	-0.396086	-0.827875	-0.196727
H133	H	-0.257251	-1.624936	-0.922645
H134	H	0.242749	-1.124936	-0.422645
H135	H	-0.420505	-1.371230	-1.131384
H136	H	0.079495	-0.871230	-0.631384
H137	H	-0.420559	-1.371176	-0.932319
H138	H	0.079441	-0.871176	-0.432319
H139	H	-0.740268	-1.595839	-0.428751
H140	H	-0.240268	-1.095839	0.071249
H141	H	-1.070369	-1.636225	-0.388689
H142	H	-0.570369	-1.136225	0.111311
