data_functionalizedCrystal
_audit_creation_method	'MofGen! by Chris Wilmer'
_symmetry_space_group_name_H-M	'P1'
_symmetry_Int_Tables_number	1
_symmetry_cell_setting	triclinic
loop_
_symmetry_equiv_pos_as_xyz
  x,y,z
_cell_length_a	18.101395
_cell_length_b	18.101398
_cell_length_c	14.908308
_cell_angle_alpha	86.729425
_cell_angle_beta	93.266316
_cell_angle_gamma	89.976925
loop_
_atom_site_label
_atom_site_type_symbol
_atom_site_fract_x
_atom_site_fract_y
_atom_site_fract_z
Zn1	Zn	-0.319144	-1.107938	-0.510280
Zn2	Zn	0.014189	-0.774604	-0.176947
Zn3	Zn	0.347522	-0.441271	0.156387
Zn4	Zn	-0.435852	-1.114983	-0.359427
Zn5	Zn	-0.102518	-0.781650	-0.026093
Zn6	Zn	0.230815	-0.448316	0.307240
Zn7	Zn	-0.312011	-0.991246	-0.359419
Zn8	Zn	0.021322	-0.657913	-0.026086
Zn9	Zn	0.354656	-0.324580	0.307248
Zn10	Zn	-0.442928	-0.984051	-0.510213
Zn11	Zn	-0.109595	-0.650717	-0.176879
Zn12	Zn	0.223739	-0.317384	0.156454
O13	O	-0.377484	-1.049554	-0.434835
O14	O	-0.044150	-0.716221	-0.101501
O15	O	0.289183	-0.382888	0.231832
O16	O	-0.334650	-1.212504	-0.490300
O17	O	-0.001316	-0.879170	-0.156967
O18	O	0.332017	-0.545837	0.176366
O19	O	-0.413477	-1.104529	-0.233185
O20	O	-0.080144	-0.771195	0.100148
O21	O	0.253190	-0.437862	0.433481
O22	O	-0.209325	-1.006789	-0.379456
O23	O	0.124008	-0.673455	-0.046123
O24	O	0.457341	-0.340122	0.287211
O25	O	-0.420394	-1.217680	-0.379469
O26	O	-0.087061	-0.884346	-0.046136
O27	O	0.246273	-0.551013	0.287198
O28	O	-0.214566	-1.092521	-0.490293
O29	O	0.118767	-0.759188	-0.156960
O30	O	0.452100	-0.425855	0.176374
O31	O	-0.322492	-1.013620	-0.233180
O32	O	0.010842	-0.680287	0.100154
O33	O	0.344175	-0.346953	0.433487
O34	O	-0.329353	-0.886660	-0.379391
O35	O	0.003980	-0.553327	-0.046057
O36	O	0.337313	-0.219994	0.287276
O37	O	-0.432455	-0.994525	-0.636462
O38	O	-0.099121	-0.661191	-0.303129
O39	O	0.234212	-0.327858	0.030205
O40	O	-0.425538	-0.881374	-0.490178
O41	O	-0.092204	-0.548040	-0.156845
O42	O	0.241129	-0.214707	0.176488
O43	O	-0.341511	-1.085544	-0.636511
O44	O	-0.008178	-0.752211	-0.303178
O45	O	0.325155	-0.418877	0.030155
O46	O	-0.540422	-1.097551	-0.379404
O47	O	-0.207089	-0.764218	-0.046071
O48	O	0.126245	-0.430885	0.287263
O49	O	-0.545621	-1.001356	-0.490186
O50	O	-0.212288	-0.668023	-0.156852
O51	O	0.121046	-0.334689	0.176481
C52	C	-0.377440	-0.857147	-0.434777
C53	C	-0.044107	-0.523813	-0.101444
C54	C	0.289227	-0.190480	0.231890
C55	C	-0.377440	-0.774833	-0.434774
C56	C	-0.044107	-0.441499	-0.101440
C57	C	0.289227	-0.108166	0.231893
C58	C	-0.377472	-0.475739	-0.434833
C59	C	-0.044138	-0.142406	-0.101500
C60	C	0.289195	0.190928	0.231834
C61	C	-0.316687	-0.510349	-0.365470
C62	C	0.016646	-0.177016	-0.032137
C63	C	0.349979	0.156317	0.301196
C64	C	-0.316833	-0.595981	-0.365179
C65	C	0.016501	-0.262648	-0.031846
C66	C	0.349834	0.070685	0.301488
C67	C	-0.377455	-0.624123	-0.434804
C68	C	-0.044122	-0.290789	-0.101470
C69	C	0.289211	0.042544	0.231863
C70	C	-0.454236	-0.594236	-0.408828
C71	C	-0.120902	-0.260902	-0.075495
C72	C	0.212431	0.072431	0.257839
C73	C	-0.453888	-0.508614	-0.408341
C74	C	-0.120555	-0.175280	-0.075008
C75	C	0.212778	0.158053	0.258326
C76	C	-0.362164	-0.502827	-0.530336
C77	C	-0.028830	-0.169494	-0.197003
C78	C	0.304503	0.163839	0.136330
C79	C	-0.360407	-0.588503	-0.529820
C80	C	-0.027074	-0.255169	-0.196486
C81	C	0.306260	0.078164	0.136847
C82	C	-0.377451	-0.707983	-0.434788
C83	C	-0.044118	-0.374650	-0.101455
C84	C	0.289216	-0.041316	0.231878
C85	C	-0.377481	-0.391879	-0.434846
C86	C	-0.044148	-0.058545	-0.101513
C87	C	0.289185	0.274788	0.231821
C88	C	-0.569893	-1.049457	-0.434808
C89	C	-0.236560	-0.716123	-0.101475
C90	C	0.096774	-0.382790	0.231859
C91	C	-0.652208	-1.049481	-0.434827
C92	C	-0.318875	-0.716148	-0.101494
C93	C	0.014459	-0.382814	0.231840
C94	C	-0.951301	-1.049641	-0.434876
C95	C	-0.617968	-0.716308	-0.101542
C96	C	-0.284635	-0.382975	0.231791
C97	C	-0.923286	-0.989242	-0.504750
C98	C	-0.589953	-0.655909	-0.171416
C99	C	-0.256619	-0.322576	0.161917
C100	C	-0.837658	-0.988981	-0.504531
C101	C	-0.504324	-0.655648	-0.171198
C102	C	-0.170991	-0.322315	0.162136
C103	C	-0.802918	-1.049562	-0.434852
C104	C	-0.469584	-0.716228	-0.101519
C105	C	-0.136251	-0.382895	0.231815
C106	C	-0.829565	-1.032939	-0.339773
C107	C	-0.496232	-0.699605	-0.006439
C108	C	-0.162899	-0.366272	0.326894
C109	C	-0.915230	-1.032551	-0.340191
C110	C	-0.581897	-0.699217	-0.006857
C111	C	-0.248564	-0.365884	0.326476
C112	C	-0.920809	-1.126828	-0.459244
C113	C	-0.587476	-0.793495	-0.125911
C114	C	-0.254143	-0.460161	0.207423
C115	C	-0.835257	-1.126269	-0.461329
C116	C	-0.501924	-0.792935	-0.127996
C117	C	-0.168590	-0.459602	0.205338
C118	C	-0.719057	-1.049518	-0.434833
C119	C	-0.385724	-0.716185	-0.101500
C120	C	-0.052391	-0.382852	0.231834
C121	C	-1.035161	-1.049683	-0.434888
C122	C	-0.701828	-0.716350	-0.101555
C123	C	-0.368495	-0.383016	0.231778
C124	C	-0.184324	-1.049672	-0.434881
C125	C	0.149009	-0.716339	-0.101548
C126	C	0.482343	-0.383005	0.231786
C127	C	-0.102011	-1.049722	-0.434901
C128	C	0.231323	-0.716389	-0.101567
C129	C	0.564656	-0.383055	0.231766
C130	C	-0.388568	-1.038446	-0.670135
C131	C	-0.055235	-0.705113	-0.336801
C132	C	0.278099	-0.371779	-0.003468
C133	C	-0.393292	-1.033712	-0.770406
C134	C	-0.059958	-0.700379	-0.437072
C135	C	0.273375	-0.367045	-0.103739
C136	C	-0.377513	-0.242714	-0.434879
C137	C	-0.044180	0.090619	-0.101546
C138	C	0.289153	0.423952	0.231787
C139	C	-0.377487	-0.325029	-0.434863
C140	C	-0.044154	0.008304	-0.101530
C141	C	0.289179	0.341638	0.231804
C142	C	-0.307451	-1.119593	-0.958878
C143	C	0.025882	-0.786260	-0.625545
C144	C	0.359216	-0.452926	-0.292212
C145	C	-0.311886	-1.115148	-1.053092
C146	C	0.021447	-0.781814	-0.719758
C147	C	0.354780	-0.448481	-0.386425
C148	C	-0.406594	-1.020372	-1.053048
C149	C	-0.073261	-0.687039	-0.719714
C150	C	0.260073	-0.353706	-0.386381
C151	C	-0.402158	-1.024818	-0.958834
C152	C	-0.068825	-0.691485	-0.625501
C153	C	0.264508	-0.358151	-0.292167
C154	C	-0.352586	-1.074431	-0.911753
C155	C	-0.019253	-0.741097	-0.578419
C156	C	0.314081	-0.407764	-0.245086
C157	C	-0.348155	-1.078879	-0.817538
C158	C	-0.014821	-0.745546	-0.484204
C159	C	0.318512	-0.412213	-0.150871
C160	C	-0.442858	-0.984101	-0.817495
C161	C	-0.109525	-0.650768	-0.484162
C162	C	0.223809	-0.317434	-0.150829
C163	C	-0.447294	-0.979655	-0.911709
C164	C	-0.113960	-0.646322	-0.578375
C165	C	0.219373	-0.312989	-0.245042
C166	C	-0.366389	-1.060662	-0.200450
C167	C	-0.033056	-0.727329	0.132883
C168	C	0.300278	-0.393996	0.466217
C169	C	-0.361457	-1.065540	-0.100180
C170	C	-0.028124	-0.732206	0.233154
C171	C	0.305210	-0.398873	0.566487
H172	H	-0.467400	-0.491911	-0.338524
H173	H	-0.134066	-0.158577	-0.005191
H174	H	0.199267	0.174756	0.328143
F175	F	-0.490904	-0.936039	-0.767334
F176	F	-0.157570	-0.602706	-0.434001
F177	F	0.175763	-0.269372	-0.100668
F178	F	-0.940142	-0.958977	-0.313212
F179	F	-0.606809	-0.625644	0.020121
F180	F	-0.273476	-0.292310	0.353455
F181	F	-0.286589	-0.613889	-0.555430
F182	F	0.046744	-0.280556	-0.222097
F183	F	0.380077	0.052777	0.111237
H184	H	-0.487652	-0.939261	-0.950055
H185	H	-0.154319	-0.605927	-0.616722
H186	H	0.179014	-0.272594	-0.283388
F187	F	-0.950518	-0.914792	-0.483931
F188	F	-0.617185	-0.581459	-0.150598
F189	F	-0.283851	-0.248125	0.182736
H190	H	-0.933405	-1.074879	-0.286353
H191	H	-0.600071	-0.741545	0.046980
H192	H	-0.266738	-0.408212	0.380313
H193	H	-0.259756	-0.616250	-0.381461
H194	H	0.073578	-0.282917	-0.048127
H195	H	0.406911	0.050416	0.285206
H196	H	-0.500546	-0.612281	-0.457770
H197	H	-0.167212	-0.278947	-0.124437
H198	H	0.166121	0.054386	0.208897
F199	F	-0.241836	-0.482466	-0.386512
F200	F	0.091498	-0.149133	-0.053179
F201	F	0.424831	0.184200	0.280155
F202	F	-0.809950	-0.914080	-0.483435
F203	F	-0.476617	-0.580747	-0.150102
F204	F	-0.143284	-0.247414	0.183231
H205	H	-0.938656	-1.171772	-0.408352
H206	H	-0.605323	-0.838439	-0.075019
H207	H	-0.271990	-0.505106	0.258314
H208	H	-0.326317	-0.492134	-0.295115
H209	H	0.007016	-0.158801	0.038218
H210	H	0.340349	0.174532	0.371551
F211	F	-0.812974	-1.142763	-0.552790
F212	F	-0.479641	-0.809429	-0.219456
F213	F	-0.146308	-0.476096	0.113877
F214	F	-0.295398	-1.131683	-0.767431
F215	F	0.037935	-0.798350	-0.434098
F216	F	0.371269	-0.465016	-0.100765
F217	F	-0.290562	-0.473171	-0.561202
F218	F	0.042771	-0.139838	-0.227869
F219	F	0.376105	0.193496	0.105465
H220	H	-0.275131	-1.151922	-1.091458
H221	H	0.058203	-0.818588	-0.758124
H222	H	0.391536	-0.485255	-0.424791
F223	F	-0.459343	-0.967571	-1.103170
F224	F	-0.126010	-0.634237	-0.769836
F225	F	0.207324	-0.300904	-0.436503
F226	F	-0.954523	-1.001964	-0.597199
F227	F	-0.621190	-0.668631	-0.263866
F228	F	-0.287857	-0.335298	0.069468
F229	F	-0.799640	-1.088889	-0.269866
F230	F	-0.466307	-0.755555	0.063468
F231	F	-0.132973	-0.422222	0.396801
H232	H	-0.811617	-1.173288	-0.414147
H233	H	-0.478284	-0.839955	-0.080814
H234	H	-0.144951	-0.506621	0.252520
H235	H	-0.945586	-1.142862	-0.527395
H236	H	-0.612253	-0.809529	-0.194062
H237	H	-0.278919	-0.476195	0.139272
F238	F	-0.800308	-0.960179	-0.312309
F239	F	-0.466974	-0.626846	0.021024
F240	F	-0.133641	-0.293512	0.354357
F241	F	-0.254700	-1.172401	-0.908769
F242	F	0.078633	-0.839067	-0.575435
F243	F	0.411966	-0.505734	-0.242102
H244	H	-0.326594	-0.619789	-0.294414
H245	H	0.006740	-0.286455	0.038919
H246	H	0.340073	0.046878	0.372252
H247	H	-0.500469	-0.485602	-0.456659
H248	H	-0.167136	-0.152268	-0.123326
H249	H	0.166197	0.181065	0.210008
H250	H	-0.468077	-0.618923	-0.339767
H251	H	-0.134744	-0.285590	-0.006434
H252	H	0.198590	0.047743	0.326900
H253	H	-0.401816	-0.607327	-0.584272
H254	H	-0.068482	-0.273994	-0.250939
H255	H	0.264851	0.059339	0.082395
H256	H	-0.406492	-0.480122	-0.582018
H257	H	-0.073159	-0.146788	-0.248685
H258	H	0.260175	0.186545	0.084648
H259	H	-0.819933	-0.998860	-0.575031
H260	H	-0.486599	-0.665526	-0.241698
H261	H	-0.153266	-0.332193	0.091636
