data_functionalizedCrystal
_audit_creation_method	'MofGen! by Chris Wilmer'
_symmetry_space_group_name_H-M	'P1'
_symmetry_Int_Tables_number	1
_symmetry_cell_setting	triclinic
loop_
_symmetry_equiv_pos_as_xyz
  x,y,z
_cell_length_a	6.817900
_cell_length_b	12.908942
_cell_length_c	16.305550
_cell_angle_alpha	95.699267
_cell_angle_beta	103.455250
_cell_angle_gamma	100.860556
loop_
_atom_site_label
_atom_site_type_symbol
_atom_site_fract_x
_atom_site_fract_y
_atom_site_fract_z
V1	V	-4.012758	-0.146740	-0.262559
O2	O	-4.014405	0.006136	-0.258044
O3	O	-3.951034	-0.290081	-0.260299
O4	O	-3.964335	-0.144885	-0.377282
O5	O	-4.001012	-0.140065	-0.140251
V6	V	-4.498116	-0.128407	-0.247987
O7	O	-4.269993	-0.186956	-0.294525
O8	O	-4.691079	-0.088192	-0.216020
O9	O	-4.336633	0.014934	-0.250247
O10	O	-4.613866	-0.281284	-0.252502
O11	O	-4.627258	-0.135082	-0.370295
O12	O	-4.323332	-0.130263	-0.133264
C13	C	-3.792794	-0.325012	-0.256037
C14	C	-3.823614	-0.442198	-0.254954
C15	C	-4.244793	-0.673172	-0.261320
C16	C	-4.273760	-0.783279	-0.260303
C17	C	-3.910523	-0.772520	-0.251907
C18	C	-3.881555	-0.662414	-0.252925
C19	C	-4.048697	-0.612744	-0.257630
C20	C	-4.019724	-0.502634	-0.258642
C21	C	-3.656493	-0.491879	-0.250252
C22	C	-3.685460	-0.601985	-0.249235
C23	C	-3.809760	-0.139798	-0.405260
C24	C	-3.851364	-0.139230	-0.499043
C25	C	-4.002653	-0.137027	-0.839796
C26	C	-3.767206	-0.130486	-0.798888
C27	C	-3.723918	-0.131513	-0.701390
C28	C	-3.927595	-0.138119	-0.670745
C29	C	-4.085059	-0.242229	-0.721036
C30	C	-4.126977	-0.241640	-0.818588
C31	C	-4.066300	-0.040290	-0.794264
C32	C	-4.018446	-0.039466	-0.696424
C33	C	-3.885188	-0.138740	-0.575205
C34	C	-4.045069	-0.136413	-0.935337
C35	C	-4.158214	0.049859	-0.254506
C36	C	-4.106633	0.167043	-0.255595
C37	C	-4.141249	-0.135353	-0.105281
C38	C	-4.078884	-0.135916	-0.011497
H39	H	-3.496813	-0.442665	-0.247247
H40	H	-4.237425	-0.250828	-0.702096
H41	H	-4.380880	-0.632728	-0.265139
C42	C	-3.562589	-0.030302	-0.654389
C43	C	-3.472320	0.052022	-0.705517
C44	C	-3.311115	0.153281	-0.658517
C45	C	-3.240179	0.172218	-0.560389
C46	C	-3.330449	0.089892	-0.509256
C47	C	-3.491654	-0.011367	-0.556255
H48	H	-3.524830	0.038006	-0.778162
H49	H	-3.244292	0.214224	-0.696370
H50	H	-3.120846	0.247176	-0.525598
H51	H	-3.277939	0.103908	-0.436611
H52	H	-3.558478	-0.072310	-0.518402
H53	H	-3.904477	0.037539	-0.662293
C54	C	-3.633138	-0.028889	-0.815919
C55	C	-3.735798	0.049381	-0.867180
C56	C	-3.601729	0.150982	-0.884216
C57	C	-3.365001	0.174312	-0.849990
C58	C	-3.262328	0.096040	-0.798725
C59	C	-3.396397	-0.005560	-0.781689
H60	H	-3.911050	0.032112	-0.892519
H61	H	-3.677736	0.208924	-0.922165
H62	H	-3.265755	0.249523	-0.862601
H63	H	-3.087076	0.113309	-0.773386
H64	H	-3.320390	-0.063502	-0.743740
C65	C	-3.697651	-0.224384	-0.841142
C66	C	-3.853639	-0.306862	-0.912558
C67	C	-3.784093	-0.400765	-0.954810
C68	C	-3.558560	-0.412190	-0.925645
C69	C	-3.402558	-0.329709	-0.854225
C70	C	-3.472104	-0.235806	-0.811973
H71	H	-4.020604	-0.298407	-0.934151
H72	H	-3.899578	-0.461823	-1.007680
H73	H	-3.507079	-0.481702	-0.956922
H74	H	-3.235593	-0.338163	-0.832632
H75	H	-3.356619	-0.174748	-0.759103
H76	H	-4.433438	-0.832476	-0.263309
H77	H	-3.549387	-0.642443	-0.245407
C78	C	-3.625449	-0.226487	-0.679064
C79	C	-3.586017	-0.301635	-0.750002
C80	C	-3.487547	-0.396614	-0.727677
C81	C	-3.428509	-0.416444	-0.634414
C82	C	-3.467940	-0.341294	-0.563470
C83	C	-3.566410	-0.246315	-0.585795
H84	H	-3.629722	-0.286957	-0.819047
H85	H	-3.458358	-0.452244	-0.780195
H86	H	-3.355615	-0.486753	-0.617888
H87	H	-3.424236	-0.355972	-0.494425
H88	H	-3.595600	-0.190685	-0.533277
H89	H	-3.774457	-0.812983	-0.248084
H90	H	-4.084101	-0.314872	-0.848733
H91	H	-4.299974	-0.250771	-0.846550
H92	H	-4.022893	-0.315481	-0.703988
H93	H	-4.155819	-0.462193	-0.262467
H94	H	-3.982149	0.038593	-0.807885
H95	H	-4.165853	-0.038171	-0.675080
H96	H	-4.238010	-0.044156	-0.821067
