data_functionalizedCrystal
_audit_creation_method	'MofGen! by Chris Wilmer'
_symmetry_space_group_name_H-M	'P1'
_symmetry_Int_Tables_number	1
_symmetry_cell_setting	triclinic
loop_
_symmetry_equiv_pos_as_xyz
  x,y,z
_cell_length_a	11.169417
_cell_length_b	16.625546
_cell_length_c	11.169409
_cell_angle_alpha	89.961577
_cell_angle_beta	89.980176
_cell_angle_gamma	90.023347
loop_
_atom_site_label
_atom_site_type_symbol
_atom_site_fract_x
_atom_site_fract_y
_atom_site_fract_z
Zn1	Zn	1.834861	-0.320917	-0.678492
Zn2	Zn	2.168195	0.012416	-0.345159
Zn3	Zn	2.501528	0.345749	-0.011825
Zn4	Zn	1.834708	-0.455779	-0.477788
Zn5	Zn	2.168041	-0.122446	-0.144454
Zn6	Zn	2.501375	0.210887	0.188879
Zn7	Zn	1.634147	-0.320967	-0.477826
Zn8	Zn	1.967480	0.012367	-0.144493
Zn9	Zn	2.300814	0.345700	0.188840
Zn10	Zn	1.634112	-0.455714	-0.678432
Zn11	Zn	1.967445	-0.122380	-0.345099
Zn12	Zn	2.300779	0.210953	-0.011766
O13	O	1.734457	-0.388344	-0.578135
O14	O	2.067790	-0.055011	-0.244801
O15	O	2.401124	0.278322	0.088532
O16	O	2.002791	-0.338814	-0.651877
O17	O	2.336124	-0.005481	-0.318543
O18	O	2.669457	0.327853	0.014790
O19	O	1.808054	-0.437944	-0.309843
O20	O	2.141387	-0.104611	0.023490
O21	O	2.474720	0.228722	0.356824
O22	O	1.660851	-0.208128	-0.504486
O23	O	1.994184	0.125206	-0.171153
O24	O	2.327518	0.458539	0.162180
O25	O	2.002678	-0.437897	-0.504420
O26	O	2.336011	-0.104563	-0.171087
O27	O	2.669345	0.228770	0.162247
O28	O	1.808315	-0.208092	-0.651914
O29	O	2.141648	0.125242	-0.318581
O30	O	2.474981	0.458575	0.014752
O31	O	1.660702	-0.338898	-0.309871
O32	O	1.994036	-0.005565	0.023462
O33	O	2.327369	0.327769	0.356795
O34	O	1.466193	-0.338834	-0.504428
O35	O	1.799526	-0.005501	-0.171095
O36	O	2.132859	0.327832	0.162238
O37	O	1.660791	-0.437785	-0.846390
O38	O	1.994125	-0.104451	-0.513057
O39	O	2.327458	0.228882	-0.179723
O40	O	1.466167	-0.437832	-0.651813
O41	O	1.799500	-0.104499	-0.318480
O42	O	2.132834	0.228834	0.014854
O43	O	1.808281	-0.338750	-0.846434
O44	O	2.141614	-0.005417	-0.513101
O45	O	2.474947	0.327916	-0.179767
O46	O	1.808020	-0.568603	-0.504362
O47	O	2.141353	-0.235270	-0.171029
O48	O	2.474687	0.098063	0.162304
O49	O	1.660643	-0.568555	-0.651775
O50	O	1.993976	-0.235222	-0.318442
O51	O	2.327310	0.098112	0.014891
C52	C	1.422632	-0.388332	-0.578119
C53	C	1.755966	-0.054999	-0.244786
C54	C	2.089299	0.278335	0.088548
C55	C	1.289232	-0.388346	-0.578141
C56	C	1.622566	-0.055013	-0.244808
C57	C	1.955899	0.278320	0.088526
C58	C	1.734344	-0.597835	-0.578084
C59	C	2.067677	-0.264502	-0.244751
C60	C	2.401010	0.068831	0.088582
C61	C	1.734405	-0.687456	-0.578103
C62	C	2.067738	-0.354123	-0.244770
C63	C	2.401071	-0.020790	0.088564
C64	C	1.734614	-1.015632	-0.578228
C65	C	2.067947	-0.682299	-0.244895
C66	C	2.401281	-0.348965	0.088439
C67	C	1.734552	-0.924323	-0.578197
C68	C	2.067885	-0.590990	-0.244863
C69	C	2.401219	-0.257657	0.088470
C70	C	1.734508	-0.851547	-0.578165
C71	C	2.067842	-0.518214	-0.244832
C72	C	2.401175	-0.184880	0.088502
C73	C	1.734448	-0.760233	-0.578135
C74	C	2.067782	-0.426899	-0.244801
C75	C	2.401115	-0.093566	0.088532
C76	C	2.047499	-0.388357	-0.578151
C77	C	2.380833	-0.055024	-0.244817
C78	C	2.714166	0.278309	0.088516
C79	C	2.180899	-0.388363	-0.578158
C80	C	2.514233	-0.055029	-0.244824
C81	C	2.847566	0.278304	0.088509
C82	C	1.734549	-0.388255	-0.891177
C83	C	2.067883	-0.054921	-0.557844
C84	C	2.401216	0.278412	-0.224511
C85	C	1.734589	-0.388217	-1.024577
C86	C	2.067922	-0.054883	-0.691244
C87	C	2.401255	0.278450	-0.357911
C88	C	1.734604	-0.178035	-0.578211
C89	C	2.067937	0.155298	-0.244878
C90	C	2.401270	0.488631	0.088455
C91	C	1.734666	-0.088414	-0.578244
C92	C	2.068000	0.244919	-0.244911
C93	C	2.401333	0.578252	0.088423
C94	C	1.734434	-0.388375	-0.266310
C95	C	2.067768	-0.055042	0.067024
C96	C	2.401101	0.278291	0.400357
C97	C	1.734628	-0.388186	-0.132910
C98	C	2.067961	-0.054853	0.200423
C99	C	2.401294	0.278480	0.533756
