data_functionalizedCrystal
_audit_creation_method	'MofGen! by Chris Wilmer'
_symmetry_space_group_name_H-M	'P1'
_symmetry_Int_Tables_number	1
_symmetry_cell_setting	triclinic
loop_
_symmetry_equiv_pos_as_xyz
  x,y,z
_cell_length_a	13.033304
_cell_length_b	13.031981
_cell_length_c	13.032268
_cell_angle_alpha	90.931652
_cell_angle_beta	89.077769
_cell_angle_gamma	76.681394
loop_
_atom_site_label
_atom_site_type_symbol
_atom_site_fract_x
_atom_site_fract_y
_atom_site_fract_z
Zn1	Zn	-1.463148	-0.323901	0.735861
Zn2	Zn	-0.963148	0.176099	1.235861
Zn3	Zn	-1.468583	-0.473496	0.542799
Zn4	Zn	-0.968583	0.026504	1.042799
Zn5	Zn	-1.313608	-0.318400	0.542808
Zn6	Zn	-0.813608	0.181600	1.042808
Zn7	Zn	-1.270104	-0.516887	0.686717
Zn8	Zn	-0.770104	-0.016887	1.186717
O9	O	-1.378861	-0.408171	0.627046
O10	O	-0.878861	0.091829	1.127046
O11	O	-1.609515	-0.327888	0.730814
O12	O	-1.109515	0.172112	1.230814
O13	O	-1.468506	-0.432461	0.401777
O14	O	-0.968506	0.067539	0.901777
O15	O	-1.349377	-0.173456	0.588988
O16	O	-0.849377	0.326544	1.088988
O17	O	-1.613509	-0.437796	0.588973
O18	O	-1.113509	0.062204	1.088973
O19	O	-1.459243	-0.177498	0.730823
O20	O	-0.959243	0.322502	1.230823
O21	O	-1.354647	-0.318513	0.401784
O22	O	-0.854647	0.181487	0.901784
O23	O	-1.162190	-0.360587	0.541335
O24	O	-0.662190	0.139413	1.041335
O25	O	-1.275231	-0.511748	0.834259
O26	O	-0.775231	-0.011748	1.334259
O27	O	-1.130228	-0.506414	0.647064
O28	O	-0.630228	-0.006414	1.147064
O29	O	-1.417059	-0.369962	0.870365
O30	O	-0.917059	0.130038	1.370365
O31	O	-1.426322	-0.624926	0.541319
O32	O	-0.926322	-0.124926	1.041319
O33	O	-1.280501	-0.656804	0.647055
O34	O	-0.780501	-0.156804	1.147055
C35	C	-1.108445	-0.437612	0.588868
C36	C	-0.608445	0.062388	1.088868
C37	C	-0.992753	-0.450236	0.572555
C38	C	-0.492753	0.049764	1.072555
C39	C	-0.939174	-0.401596	0.635544
C40	C	-0.439174	0.098404	1.135544
C41	C	-0.819601	-0.414642	0.618686
C42	C	-0.319601	0.085358	1.118686
C43	C	-1.349305	-0.678637	0.588879
C44	C	-0.849305	-0.178637	1.088879
C45	C	-1.336752	-0.794337	0.572598
C46	C	-0.836752	-0.294337	1.072598
C47	C	-0.650334	-0.378609	0.665368
C48	C	-0.150334	0.121391	1.165368
C49	C	-0.766024	-0.365996	0.681683
C50	C	-0.266024	0.134004	1.181683
C51	C	-1.385465	-0.847850	0.635571
C52	C	-0.885465	-0.347850	1.135571
C53	C	-1.372491	-0.967433	0.618746
C54	C	-0.872491	-0.467433	1.118746
C55	C	-1.340686	-0.446309	0.889901
C56	C	-0.840686	0.053691	1.389901
C57	C	-1.324418	-0.462561	1.001913
C58	C	-0.824418	0.037439	1.501913
C59	C	-1.408556	-0.136649	0.665388
C60	C	-0.908556	0.363351	1.165388
C61	C	-1.421211	-0.020943	0.681728
C62	C	-0.921211	0.479057	1.181728
C63	C	-1.416955	-0.370100	0.365234
C64	C	-0.916955	0.129900	0.865234
C65	C	-1.433457	-0.353533	0.253291
C66	C	-0.933457	0.146467	0.753291
C67	C	-1.387339	-0.399653	1.069717
C68	C	-0.887339	0.100347	1.569717
C69	C	-1.370527	-0.416449	1.185488
C70	C	-0.870527	0.083551	1.685488
H71	H	-0.776953	-0.465944	0.552272
H72	H	-0.276953	0.034056	1.052272
H73	H	-1.258096	-0.528846	1.029573
H74	H	-0.758096	-0.028846	1.529573
C75	C	-1.476923	-0.310090	1.032366
C76	C	-0.976923	0.189910	1.532366
H77	H	-1.514213	-0.272795	1.089918
H78	H	-1.014213	0.227205	1.589918
H79	H	-1.523839	-0.339051	0.992069
H80	H	-1.023839	0.160949	1.492069
H81	H	-1.447975	-0.263152	0.992083
H82	H	-0.947975	0.236848	1.492083
C83	C	-0.996783	-0.332293	0.725258
C84	C	-0.496783	0.167707	1.225258
H85	H	-1.069591	-0.332623	0.724824
H86	H	-0.569591	0.167377	1.224824
H87	H	-0.988777	-0.262128	0.718009
H88	H	-0.488777	0.237872	1.218009
H89	H	-0.967527	-0.359390	0.788297
H90	H	-0.467527	0.140610	1.288297
H91	H	-1.472520	-0.978233	0.748106
H92	H	-0.972520	-0.478233	1.248106
H93	H	-1.285437	-0.837055	0.506232
H94	H	-0.785437	-0.337055	1.006232
C95	C	-1.303170	-1.025125	0.529080
C96	C	-0.803170	-0.525125	1.029080
H97	H	-1.303549	-1.097929	0.529530
H98	H	-0.803549	-0.597929	1.029530
H99	H	-1.233001	-1.017163	0.536370
H100	H	-0.733001	-0.517163	1.036370
H101	H	-1.330212	-0.995885	0.466017
H102	H	-0.830212	-0.495885	0.966017
C103	C	-0.823626	-0.296693	0.771406
C104	C	-0.323626	0.203307	1.271406
H105	H	-0.896434	-0.297023	0.770975
H106	H	-0.396434	0.202977	1.270975
H107	H	-0.815620	-0.226528	0.764161
H108	H	-0.315620	0.273472	1.264161
H109	H	-0.794366	-0.323794	0.834442
H110	H	-0.294366	0.176206	1.334442
H111	H	-0.950101	-0.501534	0.506146
H112	H	-0.450101	-0.001534	1.006146
C113	C	-1.280938	-0.506014	1.222839
C114	C	-0.780938	-0.006014	1.722839
H115	H	-1.281397	-0.505559	1.295750
H116	H	-0.781397	-0.005559	1.795750
H117	H	-1.215151	-0.495923	1.197913
H118	H	-0.715151	0.004077	1.697913
H119	H	-1.291013	-0.571822	1.197908
H120	H	-0.791013	-0.071822	1.697908
H121	H	-1.436770	-0.805137	0.701945
H122	H	-0.936770	-0.305137	1.201945
H123	H	-1.499772	-0.287232	1.225638
H124	H	-0.999772	0.212768	1.725638
