data_functionalizedCrystal
_audit_creation_method	'MofGen! by Chris Wilmer'
_symmetry_space_group_name_H-M	'P1'
_symmetry_Int_Tables_number	1
_symmetry_cell_setting	triclinic
loop_
_symmetry_equiv_pos_as_xyz
  x,y,z
_cell_length_a	10.967926
_cell_length_b	15.538191
_cell_length_c	10.065875
_cell_angle_alpha	95.296196
_cell_angle_beta	93.120479
_cell_angle_gamma	66.441135
loop_
_atom_site_label
_atom_site_type_symbol
_atom_site_fract_x
_atom_site_fract_y
_atom_site_fract_z
O1	O	1.542282	0.161789	0.249260
O2	O	1.191081	0.164438	0.166657
O3	O	1.435047	0.028386	0.224031
O4	O	1.298316	0.297841	0.191885
O5	O	1.388478	0.054439	0.440069
O6	O	1.144513	0.190490	0.382694
O7	O	1.495713	0.187841	0.465297
Zn8	Zn	1.312719	0.193302	0.458296
Zn9	Zn	1.374075	0.158977	0.173658
O10	O	1.251748	0.323893	0.407922
C11	C	1.123947	0.175303	0.264362
C12	C	0.993292	0.168852	0.233631
C13	C	0.910918	0.179472	0.331844
C14	C	0.775879	0.172804	0.300084
C15	C	1.426069	0.006819	0.335410
C16	C	1.468683	-0.096258	0.345419
C17	C	1.045348	-0.398926	0.245880
C18	C	1.085417	-0.495783	0.255307
C19	C	1.310797	-0.510303	0.308317
C20	C	1.270749	-0.413446	0.298887
C21	C	1.138022	-0.357765	0.267670
C22	C	1.363423	-0.372285	0.320677
C23	C	1.323376	-0.275436	0.311256
C24	C	1.190655	-0.219748	0.280044
C25	C	1.097975	-0.260915	0.258249
C26	C	1.496147	-0.427968	0.351904
C27	C	1.588822	-0.386807	0.373694
C28	C	1.548777	-0.289957	0.364263
C29	C	1.416056	-0.234268	0.333051
C30	C	1.641457	-0.248789	0.386058
C31	C	1.601409	-0.151940	0.376637
C32	C	1.376008	-0.137419	0.323629
C33	C	1.562848	0.176976	0.367589
C34	C	1.693505	0.183426	0.398311
C35	C	1.260726	0.345460	0.296541
C36	C	1.218114	0.448536	0.286523
N37	N	1.270854	0.216728	0.652556
N38	N	1.415953	0.135545	-0.020599
C39	C	1.359504	0.167122	0.741183
C40	C	1.327290	0.185158	0.890774
H41	H	0.722949	0.197451	0.505915
N42	N	1.138726	0.290669	0.698735
H43	H	1.128930	0.354132	0.671639
H44	H	1.064356	0.274263	0.656433
H45	H	1.227535	0.240981	0.925635
N46	N	0.954295	0.150262	0.091107
H47	H	0.869788	0.204261	0.065792
H48	H	1.027897	0.144067	0.030022
N49	N	0.949912	0.198051	0.474372
H50	H	1.040852	0.200180	0.476857
H51	H	0.882738	0.260342	0.512638
H52	H	1.515702	0.079715	0.944538
H53	H	1.418863	-0.555652	0.333739
N54	N	0.954826	-0.200834	0.224576
H55	H	0.929778	-0.224164	0.134540
H56	H	0.895348	-0.204867	0.294788
H57	H	0.746437	0.158773	0.192482
H58	H	1.267931	-0.092081	0.298200
H59	H	1.749520	-0.294138	0.411488
N60	N	1.539338	-0.532427	0.362064
H61	H	1.610502	-0.568266	0.294662
H62	H	1.575894	-0.548861	0.454868
N63	N	1.147441	-0.115287	0.269877
H64	H	1.164775	-0.085144	0.358097
H65	H	1.199317	-0.104545	0.197875
H66	H	0.937271	-0.353587	0.220450
N67	N	1.731969	-0.446863	0.407375
H68	H	1.743278	-0.514463	0.410042
H69	H	1.791447	-0.442769	0.337213
H70	H	1.009936	-0.529289	0.237580
H71	H	1.676874	-0.118426	0.394382
H72	H	1.459248	0.111295	0.706316
