data_functionalizedCrystal
_audit_creation_method	'MofGen! by Chris Wilmer'
_symmetry_space_group_name_H-M	'P1'
_symmetry_Int_Tables_number	1
_symmetry_cell_setting	triclinic
loop_
_symmetry_equiv_pos_as_xyz
  x,y,z
_cell_length_a	14.519709
_cell_length_b	9.065215
_cell_length_c	7.540329
_cell_angle_alpha	89.997743
_cell_angle_beta	90.004008
_cell_angle_gamma	84.347421
loop_
_atom_site_label
_atom_site_type_symbol
_atom_site_fract_x
_atom_site_fract_y
_atom_site_fract_z
O1	O	-1.225279	-0.193392	0.147248
O2	O	-0.891945	0.139942	0.480581
O3	O	-0.558612	0.473275	0.813914
O4	O	-0.956968	-0.216167	0.147301
O5	O	-0.623635	0.117167	0.480635
O6	O	-0.290302	0.450500	0.813968
O7	O	-1.096671	0.009967	0.147266
O8	O	-0.763337	0.343301	0.480599
O9	O	-0.430004	0.676634	0.813932
O10	O	-1.085576	-0.419526	0.147283
O11	O	-0.752243	-0.086193	0.480616
O12	O	-0.418909	0.247141	0.813950
O13	O	-1.096666	0.009969	-0.147699
O14	O	-0.763333	0.343302	0.185634
O15	O	-0.429999	0.676636	0.518967
O16	O	-0.956963	-0.216165	-0.147664
O17	O	-0.623630	0.117168	0.185670
O18	O	-0.290297	0.450502	0.519003
O19	O	-1.225274	-0.193390	-0.147718
O20	O	-0.891940	0.139943	0.185616
O21	O	-0.558607	0.473277	0.518949
Cu22	Cu	-1.091118	-0.204777	-0.174623
Cu23	Cu	-0.757785	0.128556	0.158710
Cu24	Cu	-0.424451	0.461889	0.492043
Cu25	Cu	-1.091124	-0.204779	0.174207
Cu26	Cu	-0.757791	0.128554	0.507540
Cu27	Cu	-0.424457	0.461887	0.840874
O28	O	-1.085571	-0.419524	-0.147682
O29	O	-0.752238	-0.086191	0.185651
O30	O	-0.418905	0.247142	0.518985
C31	C	-0.922598	-0.215104	-0.000174
C32	C	-0.589265	0.118229	0.333159
C33	C	-0.255932	0.451562	0.666492
C34	C	-0.820194	-0.211924	-0.000154
C35	C	-0.486860	0.121410	0.333179
C36	C	-0.153527	0.454743	0.666513
C37	C	-1.259644	-0.194452	-0.000238
C38	C	-0.926310	0.138881	0.333095
C39	C	-0.592977	0.472214	0.666429
C40	C	-1.362048	-0.197633	-0.000247
C41	C	-1.028715	0.135700	0.333086
C42	C	-0.695382	0.469034	0.666420
C43	C	-1.095603	0.064935	-0.000215
C44	C	-0.762269	0.398268	0.333119
C45	C	-0.428936	0.731602	0.666452
C46	C	-1.092416	0.228718	-0.000209
C47	C	-0.759083	0.562052	0.333125
C48	C	-0.425750	0.895385	0.666458
C49	C	-0.445212	-0.200215	-0.000235
C50	C	-0.111879	0.133119	0.333098
C51	C	0.221454	0.466452	0.666432
C52	C	-0.549544	-0.203466	-0.000212
C53	C	-0.216211	0.129867	0.333121
C54	C	0.117123	0.463201	0.666455
C55	C	-0.632700	-0.206069	-0.000193
C56	C	-0.299366	0.127265	0.333141
C57	C	0.033967	0.460598	0.666474
C58	C	-0.737038	-0.209321	-0.000173
C59	C	-0.403705	0.124012	0.333160
C60	C	-0.070371	0.457346	0.666494
C61	C	-1.086639	-0.474492	-0.000198
C62	C	-0.753306	-0.141158	0.333136
C63	C	-0.419973	0.192175	0.666469
C64	C	-1.089826	-0.638275	-0.000192
C65	C	-0.756492	-0.304942	0.333141
C66	C	-0.423159	0.028392	0.666475
N67	N	-1.091121	-0.204775	-0.419972
N68	N	-0.757787	0.128558	-0.086638
N69	N	-0.424454	0.461892	0.246695
N70	N	-1.091128	-0.204770	0.419556
N71	N	-0.757795	0.128563	0.752889
N72	N	-0.424462	0.461897	1.086222
