data_functionalizedCrystal
_audit_creation_method	'MofGen! by Chris Wilmer'
_symmetry_space_group_name_H-M	'P1'
_symmetry_Int_Tables_number	1
_symmetry_cell_setting	triclinic
loop_
_symmetry_equiv_pos_as_xyz
  x,y,z
_cell_length_a	19.188933
_cell_length_b	19.188930
_cell_length_c	15.455313
_cell_angle_alpha	92.650876
_cell_angle_beta	87.329187
_cell_angle_gamma	83.145175
loop_
_atom_site_label
_atom_site_type_symbol
_atom_site_fract_x
_atom_site_fract_y
_atom_site_fract_z
O1	O	0.929213	0.084112	-0.072111
O2	O	1.429213	0.584112	0.427889
O3	O	0.725902	0.095844	-0.072121
O4	O	1.225902	0.595844	0.427879
O5	O	0.833424	-0.011677	-0.072099
O6	O	1.333424	0.488323	0.427901
O7	O	0.821691	0.191633	-0.072133
O8	O	1.321691	0.691633	0.427867
O9	O	0.827275	-0.005554	0.072162
O10	O	1.327275	0.494446	0.572162
O11	O	0.719754	0.101967	0.072140
O12	O	1.219754	0.601967	0.572140
O13	O	0.923064	0.090235	0.072150
O14	O	1.423064	0.590235	0.572150
Cu15	Cu	0.820847	0.096660	0.085317
Cu16	Cu	1.320847	0.596660	0.585317
Cu17	Cu	0.828119	0.089419	-0.085288
Cu18	Cu	1.328119	0.589419	0.414712
O19	O	0.815542	0.197756	0.072128
O20	O	1.315542	0.697756	0.572128
C21	C	0.696817	0.098525	0.000009
C22	C	1.196817	0.598525	0.500009
C23	C	0.619312	0.097384	0.000006
C24	C	1.119312	0.597384	0.500006
C25	C	0.069408	0.085901	-0.078620
C26	C	0.569408	0.585901	0.421380
C27	C	0.142233	0.086969	-0.078623
C28	C	0.642233	0.586969	0.421377
C29	C	0.175298	0.090845	0.000013
C30	C	0.675298	0.590845	0.500013
C31	C	0.135535	0.093634	0.078659
C32	C	0.635535	0.593634	0.578659
C33	C	0.062713	0.092559	0.078660
C34	C	0.562713	0.592559	0.578660
N35	N	0.281824	0.134747	0.058538
N36	N	0.781824	0.634747	0.558538
N37	N	0.351002	0.135770	0.058532
N38	N	0.851002	0.635770	0.558532
C39	C	0.394707	0.094082	0.000014
C40	C	0.894707	0.594082	0.500014
N41	N	0.366620	0.051342	-0.058511
N42	N	0.866620	0.551342	0.441489
N43	N	0.297435	0.050323	-0.058507
N44	N	0.797435	0.550323	0.441493
C45	C	0.254261	0.092010	0.000020
C46	C	0.754261	0.592010	0.500020
C47	C	0.513426	0.092446	-0.078631
C48	C	1.013426	0.592446	0.421369
C49	C	0.586252	0.093510	-0.078631
C50	C	1.086252	0.593510	0.421369
C51	C	0.579552	0.100182	0.078653
C52	C	1.079552	0.600182	0.578653
C53	C	0.506728	0.099111	0.078651
C54	C	1.006728	0.599111	0.578651
C55	C	0.473669	0.095246	0.000007
C56	C	0.973669	0.595246	0.500007
C57	C	0.829969	-0.034626	0.000034
C58	C	1.329969	0.465374	0.500034
C59	C	0.828828	-0.112131	0.000042
C60	C	1.328828	0.387869	0.500042
C61	C	0.891919	-0.157054	0.000049
C62	C	1.391919	0.342946	0.500049
C63	C	0.890848	-0.229878	0.000035
C64	C	1.390848	0.270122	0.500035
C65	C	0.826682	-0.257775	0.000031
C66	C	1.326682	0.242225	0.500031
C67	C	0.763583	-0.212842	0.000019
C68	C	1.263583	0.287158	0.500019
C69	C	0.764657	-0.140020	0.000024
C70	C	1.264657	0.359980	0.500024
N71	N	0.775542	-0.363697	0.049124
N72	N	1.275542	0.136303	0.549124
N73	N	0.774527	-0.432876	0.049121
N74	N	1.274527	0.067124	0.549121
C75	C	0.823445	-0.477185	0.000013
C76	C	1.323445	0.022815	0.500013
N77	N	0.873426	-0.449703	-0.049079
N78	N	1.373426	0.050297	0.450921
N79	N	0.874443	-0.380518	-0.049072
N80	N	1.374443	0.119482	0.450928
C81	C	0.825511	-0.336738	0.000025
C82	C	1.325511	0.163262	0.500025
C83	C	0.885378	-0.601073	0.000004
C84	C	1.385378	-0.101073	0.500004
C85	C	0.884305	-0.673899	-0.000015
C86	C	1.384305	-0.173899	0.499985
C87	C	0.757038	-0.656861	-0.000022
C88	C	1.257038	-0.156861	0.499978
C89	C	0.758114	-0.584037	-0.000011
C90	C	1.258114	-0.084037	0.499989
C91	C	0.822285	-0.556148	0.000006
C92	C	1.322285	-0.056148	0.500006
C93	C	0.952149	0.087553	0.000018
C94	C	1.452149	0.587553	0.500018
C95	C	1.029654	0.088694	0.000015
C96	C	1.529654	0.588694	0.500015
C97	C	0.818997	0.220705	-0.000007
C98	C	1.318997	0.720705	0.499993
C99	C	0.820138	0.298209	-0.000020
C100	C	1.320138	0.798209	0.499980
N101	N	0.815738	0.101753	0.205312
N102	N	1.315738	0.601753	0.705312
N103	N	0.833233	0.084320	-0.205283
N104	N	1.333233	0.584320	0.294717
C105	C	0.861433	0.056091	0.250715
C106	C	1.361433	0.556091	0.750715
C107	C	0.857576	0.059949	0.341522
C108	C	1.357576	0.559949	0.841522
C109	C	0.808026	0.109473	0.386924
C110	C	1.308026	0.609473	0.886924
C111	C	0.762327	0.155137	0.341514
C112	C	1.262327	0.655137	0.841514
C113	C	0.766181	0.151275	0.250709
C114	C	1.266181	0.651275	0.750709
C115	C	0.791388	0.126123	0.658502
C116	C	1.291388	0.626123	1.158502
C117	C	0.787539	0.129982	0.749314
C118	C	1.287539	0.629982	1.249314
C119	C	0.882787	0.034793	0.749316
C120	C	1.382787	0.534793	1.249316
C121	C	0.886640	0.030939	0.658508
C122	C	1.386640	0.530939	1.158508
C123	C	0.840938	0.076600	0.613107
C124	C	1.340938	0.576600	1.113107
N125	N	0.804084	0.113419	0.479744
N126	N	1.304084	0.613419	0.979744
N127	N	0.844878	0.072650	0.520289
N128	N	1.344878	0.572650	1.020289
H129	H	0.606474	0.103334	0.142680
H130	H	1.106474	0.603334	0.642680
H131	H	0.486508	0.089297	-0.142668
H132	H	0.986508	0.589297	0.357332
H133	H	0.919995	-0.002383	0.786290
H134	H	1.419995	0.497617	1.286290
H135	H	0.901784	0.015766	0.213755
H136	H	1.401784	0.515766	0.713755
H137	H	0.747188	0.170313	0.786276
H138	H	1.247188	0.670313	1.286276
F139	F	0.020402	0.095534	0.162358
F140	F	0.520402	0.595534	0.662358
H141	H	0.711339	-0.235561	0.000014
H142	H	1.211339	0.264439	0.500014
F143	F	0.170727	0.097756	0.162349
F144	F	0.670727	0.597756	0.662349
H145	H	0.944173	-0.134351	0.000060
H146	H	1.444173	0.365649	0.500060
H147	H	0.754177	0.163303	0.621543
H148	H	1.254177	0.663303	1.121543
F149	F	0.717544	0.199873	0.202389
F150	F	1.217544	0.699873	0.702389
F151	F	0.628562	0.090531	-0.162330
F152	F	1.128562	0.590531	0.337670
H153	H	0.721979	0.195458	0.378486
H154	H	1.221979	0.695458	0.878486
H155	H	0.942225	-0.266462	0.000037
H156	H	1.442225	0.233538	0.500037
H157	H	0.174606	0.084699	-0.142660
H158	H	0.674606	0.584699	0.357340
F159	F	0.939377	-0.021769	0.610189
F160	F	1.439377	0.478231	1.110189
F161	F	0.951458	-0.721710	-0.000013
F162	F	1.451458	-0.221710	0.499987
H163	H	0.042497	0.082752	-0.142658
H164	H	0.542497	0.582752	0.357342
F165	F	0.464416	0.102093	0.162347
F166	F	0.964416	0.602093	0.662347
H167	H	0.713279	-0.103443	0.000019
H168	H	1.213279	0.396557	0.500019
H169	H	0.894783	0.022767	0.378489
H170	H	1.394783	0.522767	0.878489
H171	H	0.937631	-0.578365	0.000014
H172	H	1.437631	-0.078365	0.500014
F173	F	0.688747	-0.686547	-0.000030
F174	F	1.188747	-0.186547	0.499970
H175	H	0.706738	-0.547459	-0.000012
H176	H	1.206738	-0.047459	0.499988
