data_functionalizedCrystal
_audit_creation_method	'MofGen! by Chris Wilmer'
_symmetry_space_group_name_H-M	'P1'
_symmetry_Int_Tables_number	1
_symmetry_cell_setting	triclinic
loop_
_symmetry_equiv_pos_as_xyz
  x,y,z
_cell_length_a	25.639242
_cell_length_b	19.805405
_cell_length_c	19.805399
_cell_angle_alpha	90.029301
_cell_angle_beta	89.972605
_cell_angle_gamma	89.978063
loop_
_atom_site_label
_atom_site_type_symbol
_atom_site_fract_x
_atom_site_fract_y
_atom_site_fract_z
Zn1	Zn	0.799297	0.269560	-0.382853
Zn2	Zn	0.799231	0.382748	-0.269661
Zn3	Zn	0.711865	0.269569	-0.269662
Zn4	Zn	0.711837	0.382703	-0.382792
O5	O	0.755557	0.326145	-0.326242
O6	O	0.872453	0.284589	-0.367863
O7	O	0.787626	0.367757	-0.174945
O8	O	0.723502	0.174852	-0.284703
O9	O	0.872405	0.367748	-0.284701
O10	O	0.787738	0.174844	-0.367863
O11	O	0.723439	0.284606	-0.174945
O12	O	0.638696	0.284562	-0.284644
O13	O	0.723454	0.367672	-0.477517
O14	O	0.638675	0.367681	-0.367760
O15	O	0.787711	0.284545	-0.477561
O16	O	0.787599	0.477459	-0.284643
O17	O	0.723391	0.477426	-0.367760
C18	C	0.619715	0.326118	-0.326196
C19	C	0.561601	0.326123	-0.326193
C20	C	0.755499	0.502001	-0.326209
C21	C	0.755521	0.577233	-0.326218
C22	C	0.755587	0.326102	-0.502785
C23	C	0.755599	0.326084	-0.578017
C24	C	0.201236	0.369497	-0.369480
C25	C	0.146631	0.369502	-0.369490
O26	O	0.118393	0.406347	-0.406256
N27	N	0.119318	0.326164	-0.326286
C28	C	0.146612	0.282814	-0.283073
O29	O	0.118366	0.245952	-0.246326
C30	C	0.201216	0.282807	-0.283067
C31	C	0.228526	0.326152	-0.326269
C32	C	0.228546	0.412839	-0.412679
C33	C	0.283147	0.412835	-0.412667
C34	C	0.310437	0.369491	-0.369456
C35	C	0.283126	0.326149	-0.326257
C36	C	0.228508	0.239454	-0.239858
C37	C	0.283116	0.239451	-0.239855
C38	C	0.310426	0.282796	-0.283057
C39	C	0.365017	0.282801	-0.283034
N40	N	0.392330	0.326139	-0.326239
C41	C	0.365040	0.369483	-0.369450
C42	C	0.031942	0.282831	-0.283092
C43	C	-0.022661	0.282841	-0.283094
C44	C	-0.022638	0.369528	-0.369513
C45	C	0.031966	0.369521	-0.369506
C46	C	0.059255	0.326169	-0.326296
C47	C	0.479705	0.369473	-0.369421
C48	C	0.534311	0.369468	-0.369404
C49	C	0.534283	0.282779	-0.282988
C50	C	0.479682	0.282787	-0.283003
C51	C	0.452395	0.326136	-0.326225
O52	O	0.393290	0.245973	-0.246290
O53	O	0.393293	0.406333	-0.406197
C54	C	0.891930	0.326172	-0.326289
C55	C	0.950044	0.326184	-0.326308
C56	C	0.755631	0.149602	-0.326290
C57	C	0.755662	0.074370	-0.326310
C58	C	0.788987	0.612572	-0.282984
C59	C	0.789009	0.683260	-0.282999
C60	C	0.755563	0.718609	-0.326245
C61	C	0.722095	0.683265	-0.369483
C62	C	0.722076	0.612578	-0.369471
C63	C	0.722173	0.968338	-0.369534
C64	C	0.722193	1.039030	-0.369541
C65	C	0.789105	1.039021	-0.283061
C66	C	0.789086	0.968334	-0.283049
C67	C	0.755621	0.932996	-0.326290
C68	C	0.755598	0.856348	-0.326274
C69	C	0.755583	0.795256	-0.326258
C70	C	0.789058	0.282798	-0.613385
C71	C	0.789064	0.282779	-0.684074
C72	C	0.755612	0.326049	-0.719393
C73	C	0.722149	0.369337	-0.684019
C74	C	0.722142	0.369352	-0.613332
C75	C	0.722179	0.369274	-0.969093
C76	C	0.722190	0.369256	-1.039785
C77	C	0.789101	0.282700	-1.039834
C78	C	0.789093	0.282716	-0.969147
C79	C	0.755629	0.326001	-0.933780
C80	C	0.755623	0.326020	-0.857132
C81	C	0.755621	0.326033	-0.796040
C82	C	0.755558	0.326139	-0.150386
C83	C	0.755647	0.325966	-0.075154
H84	H	0.556544	0.404768	-0.404585
C85	C	0.449694	0.417161	-0.416961
C86	C	0.457187	0.494097	-0.411287
C87	C	0.427176	0.541788	-0.458823
C88	C	0.389672	0.512543	-0.512031
C89	C	0.382178	0.435603	-0.517707
C90	C	0.412189	0.387912	-0.470172
H91	H	0.484951	0.515749	-0.371897
H92	H	0.432724	0.598744	-0.454621
H93	H	0.367456	0.547846	-0.547220
H94	H	0.354414	0.413951	-0.557097
H95	H	0.406641	0.330956	-0.474374
H96	H	0.694923	0.939572	-0.404740
C97	C	0.685262	0.573701	-0.417027
C98	C	0.625829	0.583477	-0.411422
C99	C	0.589016	0.544601	-0.458981
C100	C	0.611635	0.495949	-0.512144
C101	C	0.671071	0.486171	-0.517751
C102	C	0.707884	0.525047	-0.470192
H103	H	0.609083	0.619494	-0.372065
H104	H	0.545017	0.551840	-0.454830
H105	H	0.584383	0.467171	-0.547350
H106	H	0.687817	0.450154	-0.557108
H107	H	0.751882	0.517809	-0.474343
H108	H	0.816260	0.712030	-0.247793
H109	H	0.816334	0.247483	-0.940394
C110	C	0.825909	0.235079	-1.078740
C111	C	0.862707	0.187487	-1.039889
C112	C	0.899516	0.139870	-1.078792
C113	C	0.899527	0.139845	-1.156546
C114	C	0.862727	0.187438	-1.195400
C115	C	0.825919	0.235055	-1.156497
H116	H	0.862701	0.187505	-0.982328
H117	H	0.926758	0.104638	-1.050029
H118	H	0.926775	0.104595	-1.185344
H119	H	0.862734	0.187420	-1.252962
H120	H	0.798677	0.270287	-1.185260
C121	C	0.825879	0.929451	-0.235480
C122	C	0.862694	0.968323	-0.187926
C123	C	0.899489	0.929441	-0.140358
C124	C	0.899469	0.851688	-0.140344
C125	C	0.862652	0.812812	-0.187900
C126	C	0.825857	0.851694	-0.235468
H127	H	0.862710	1.025884	-0.187934
H128	H	0.926744	0.958220	-0.105154
H129	H	0.926707	0.822906	-0.105131
H130	H	0.862636	0.755251	-0.187891
H131	H	0.798603	0.822915	-0.270672
H132	H	0.694865	0.712051	-0.404698
C133	C	0.198472	0.191772	-0.192338
C134	C	0.160903	0.221025	-0.139145
C135	C	0.130866	0.173340	-0.091624
C136	C	0.138398	0.096403	-0.097296
C137	C	0.175970	0.067146	-0.150491
C138	C	0.206007	0.114831	-0.198013
H139	H	0.155325	0.277982	-0.134944
H140	H	0.103053	0.194998	-0.052245
H141	H	0.116163	0.061104	-0.062118
H142	H	0.181547	0.010189	-0.154692
H143	H	0.233819	0.093173	-0.237391
H144	H	0.305332	0.204144	-0.204671
H145	H	0.816300	0.247565	-0.584634
C146	C	0.685364	0.416891	-0.930209
C147	C	0.625933	0.411344	-0.939932
C148	C	0.589112	0.458964	-0.901052
C149	C	0.611721	0.512132	-0.852450
C150	C	0.671155	0.517681	-0.842726
C151	C	0.707976	0.470060	-0.881605
H152	H	0.609193	0.371984	-0.975912
H153	H	0.545114	0.454856	-0.908251
H154	H	0.584464	0.547383	-0.823669
H155	H	0.687895	0.557041	-0.806746
H156	H	0.751973	0.474169	-0.874406
H157	H	0.816356	1.067801	-0.247855
H158	H	0.816311	0.247533	-0.712867
H159	H	0.694948	0.404493	-1.068540
C160	C	0.449633	0.235106	-0.235487
C161	C	0.457168	0.158169	-0.241162
C162	C	0.427121	0.110480	-0.193655
C163	C	0.389540	0.139728	-0.140473
C164	C	0.382004	0.216669	-0.134796
C165	C	0.412050	0.264358	-0.182303
H166	H	0.484989	0.136515	-0.280533
H167	H	0.432700	0.053524	-0.197859
H168	H	0.367298	0.104426	-0.105306
H169	H	0.354182	0.238324	-0.095425
H170	H	0.406471	0.321315	-0.178099
C171	C	0.685403	1.077915	-0.417119
C172	C	0.648594	1.039047	-0.464685
C173	C	0.611806	1.077933	-0.512259
C174	C	0.611827	1.155686	-0.512267
C175	C	0.648637	1.194558	-0.464699
C176	C	0.685425	1.155673	-0.417125
H177	H	0.648578	0.981486	-0.464680
H178	H	0.584557	1.049157	-0.547472
H179	H	0.584594	1.184471	-0.547484
H180	H	0.648653	1.252119	-0.464703
H181	H	0.712674	1.184449	-0.381912
C182	C	0.564311	0.235099	-0.235463
C183	C	0.601876	0.182004	-0.264900
C184	C	0.631908	0.134319	-0.217380
C185	C	0.624374	0.139730	-0.140423
C186	C	0.586808	0.192828	-0.110982
C187	C	0.556777	0.240512	-0.158502
H188	H	0.607454	0.177997	-0.321871
H189	H	0.659717	0.095013	-0.239174
H190	H	0.646606	0.104431	-0.105246
H191	H	0.581230	0.196835	-0.054011
H192	H	0.528967	0.279818	-0.136708
H193	H	0.305378	0.448130	-0.447848
H194	H	0.206332	0.448136	-0.447870
H195	H	0.816220	0.583796	-0.247766
C196	C	-0.052664	0.417204	-0.417051
C197	C	-0.045123	0.411777	-0.494006
C198	C	-0.075152	0.459450	-0.541541
C199	C	-0.112721	0.512549	-0.512121
C200	C	-0.120264	0.517978	-0.435163
C201	C	-0.090235	0.470306	-0.387628
H202	H	-0.017311	0.372468	-0.515787
H203	H	-0.069568	0.455431	-0.598511
H204	H	-0.134950	0.547839	-0.547310
H205	H	-0.148077	0.557288	-0.413381
H206	H	-0.095819	0.474325	-0.330658
H207	H	0.054198	0.404816	-0.404686
H208	H	-0.044892	0.247552	-0.247908
H209	H	0.054157	0.247530	-0.247900
H210	H	0.694911	0.404566	-0.712781
H211	H	0.694891	0.404593	-0.584536
