data_functionalizedCrystal
_audit_creation_method	'MofGen! by Chris Wilmer'
_symmetry_space_group_name_H-M	'P1'
_symmetry_Int_Tables_number	1
_symmetry_cell_setting	triclinic
loop_
_symmetry_equiv_pos_as_xyz
  x,y,z
_cell_length_a	10.723024
_cell_length_b	10.868271
_cell_length_c	10.723024
_cell_angle_alpha	90.003962
_cell_angle_beta	84.467869
_cell_angle_gamma	90.004005
loop_
_atom_site_label
_atom_site_type_symbol
_atom_site_fract_x
_atom_site_fract_y
_atom_site_fract_z
O1	O	1.657188	0.102311	0.175028
O2	O	1.294036	0.102315	0.191781
O3	O	1.483989	0.102308	0.001828
O4	O	1.467235	0.102317	0.364981
O5	O	1.483973	-0.102336	0.001821
O6	O	1.294020	-0.102330	0.191774
O7	O	1.657172	-0.102334	0.175020
Zn8	Zn	1.475594	-0.134824	0.183396
Zn9	Zn	1.475614	0.134805	0.183406
O10	O	1.467219	-0.102327	0.364973
C11	C	1.247528	-0.000007	0.190558
C12	C	1.108974	-0.000006	0.186911
N13	N	1.475589	-0.318838	0.183388
C14	C	1.033991	-0.000002	0.293198
C15	C	0.890788	-0.000000	0.289431
C16	C	1.475608	-0.569844	0.183403
C17	C	1.475593	-0.430166	0.183399
C18	C	1.703680	-0.000009	0.176243
C19	C	1.842234	-0.000003	0.179891
C20	C	1.482762	-0.000013	-0.044675
C21	C	1.479114	-0.000008	-0.183229
N22	N	1.475629	0.318819	0.183404
C23	C	1.585401	-0.000008	-0.258212
C24	C	1.581634	-0.000003	-0.401415
C25	C	1.468447	-0.000004	0.411477
C26	C	1.472094	0.000000	0.550031
H27	H	1.075814	-0.000007	0.386984
C28	C	1.712106	-0.000014	-0.201733
H29	H	1.778302	-0.000005	-0.267346
H30	H	1.718091	-0.071378	-0.151516
H31	H	1.718104	0.071359	-0.151508
H32	H	0.906659	0.000002	0.088896
C33	C	1.704563	-0.000004	-0.488443
H34	H	1.773775	-0.000015	-0.439404
H35	H	1.707889	0.071359	-0.539801
H36	H	1.707875	-0.071378	-0.539806
H37	H	1.385328	0.000001	-0.225051
H38	H	1.381099	-0.000009	-0.385544
H39	H	0.826355	0.000007	0.380421
H40	H	1.067152	0.000024	0.093125
