data_functionalizedCrystal
_audit_creation_method	'MofGen! by Chris Wilmer'
_symmetry_space_group_name_H-M	'P1'
_symmetry_Int_Tables_number	1
_symmetry_cell_setting	triclinic
loop_
_symmetry_equiv_pos_as_xyz
  x,y,z
_cell_length_a	23.532407
_cell_length_b	22.010155
_cell_length_c	10.489716
_cell_angle_alpha	89.991657
_cell_angle_beta	83.688941
_cell_angle_gamma	90.005729
loop_
_atom_site_label
_atom_site_type_symbol
_atom_site_fract_x
_atom_site_fract_y
_atom_site_fract_z
O1	O	0.756284	0.050482	0.154811
O2	O	0.590568	0.050491	0.177213
O3	O	0.677204	0.050488	-0.019714
O4	O	0.669648	0.050484	0.351737
O5	O	0.677188	-0.050562	-0.019684
O6	O	0.590552	-0.050560	0.177242
O7	O	0.756268	-0.050569	0.154840
Cu8	Cu	0.673408	-0.059791	0.166044
Cu9	Cu	0.673427	0.059713	0.166009
O10	O	0.669632	-0.050566	0.351767
C11	C	0.569340	-0.000033	0.176657
C12	C	0.506112	-0.000030	0.174942
N13	N	0.673399	-0.143843	0.166068
C14	C	0.239130	-0.000045	0.051332
C15	C	0.298541	-0.000045	0.052925
O16	O	0.334639	-0.000065	-0.045134
N17	N	0.321938	-0.000042	0.169998
C18	C	0.285921	-0.000045	0.285485
O19	O	0.311278	-0.000043	0.385210
C20	C	0.226512	-0.000050	0.283890
C21	C	0.203118	-0.000047	0.166810
C22	C	0.215735	-0.000042	-0.065739
C23	C	0.156329	-0.000041	-0.067332
C24	C	0.120317	-0.000043	0.048146
C25	C	0.143711	-0.000046	0.165217
C26	C	0.190496	-0.000058	0.399376
C27	C	0.131083	-0.000063	0.397771
C28	C	0.107689	-0.000059	0.280691
C29	C	0.048292	-0.000046	0.279102
N30	N	0.024895	-0.000049	0.162030
C31	C	0.060907	-0.000047	0.046551
C32	C	0.410686	-0.000037	0.288824
C33	C	0.470094	-0.000028	0.290420
C34	C	0.482710	-0.000029	0.057860
C35	C	0.423300	-0.000033	0.056265
C36	C	0.387289	-0.000040	0.171752
C37	C	-0.063852	-0.000045	0.043215
C38	C	-0.123264	-0.000041	0.041633
C39	C	-0.135874	-0.000044	0.274193
C40	C	-0.076467	-0.000044	0.275776
C41	C	-0.040457	-0.000047	0.160277
O42	O	0.012159	-0.000029	0.377109
O43	O	0.035542	-0.000057	-0.053158
C44	C	0.711792	-0.563624	0.078822
C45	C	0.711794	-0.627231	0.078813
O46	O	0.744414	-0.660124	0.004651
N47	N	0.673427	-0.659050	0.165982
C48	C	0.635050	-0.627259	0.253157
O49	O	0.602415	-0.660164	0.327299
C50	C	0.635045	-0.563652	0.253159
C51	C	0.673419	-0.531836	0.165993
C52	C	0.750162	-0.531808	-0.008338
C53	C	0.750160	-0.468205	-0.008327
C54	C	0.711788	-0.436417	0.078844
C55	C	0.673417	-0.468233	0.166003
C56	C	0.596666	-0.531861	0.340326
C57	C	0.596664	-0.468251	0.340320
C58	C	0.635038	-0.436435	0.253154
C59	C	0.635042	-0.372843	0.253185
N60	N	0.673410	-0.341024	0.166016
C61	C	0.711783	-0.372811	0.078845
C62	C	0.635062	-0.760836	0.253145
C63	C	0.635070	-0.824442	0.253151
C64	C	0.711814	-0.824410	0.078805
C65	C	0.711809	-0.760804	0.078807
C66	C	0.673430	-0.729017	0.165976
C67	C	0.711776	-0.239240	0.078875
C68	C	0.711772	-0.175631	0.078897
C69	C	0.635026	-0.175668	0.253237
C70	C	0.635032	-0.239271	0.253221
C71	C	0.673409	-0.271055	0.166029
O72	O	0.602438	-0.339910	0.327306
O73	O	0.744407	-0.339898	0.004704
C74	C	0.777495	-0.000043	0.155396
C75	C	0.840724	-0.000043	0.157111
C76	C	0.676628	-0.000035	-0.067212
C77	C	0.674930	-0.000030	-0.208787
N78	N	0.673441	0.143765	0.165975
C79	C	0.728057	-0.000038	-0.308227
C80	C	0.699991	0.049785	-0.384669
C81	C	0.699963	-0.049843	-0.384603
C82	C	0.646886	0.049835	-0.283364
C83	C	0.646866	-0.049838	-0.283293
C84	C	0.618760	-0.000003	-0.359685
C85	C	0.670207	-0.000042	0.399265
C86	C	0.671906	-0.000043	0.540840
H87	H	-0.142308	-0.000037	-0.053712
Cl88	Cl	0.612291	0.114942	-0.215384
H89	H	0.404257	-0.000031	-0.039072
H90	H	0.512042	-0.000028	-0.036168
H91	H	0.137287	-0.000041	-0.162671
H92	H	0.489136	-0.000022	0.385759
H93	H	0.245051	-0.000043	-0.159781
Cl94	Cl	0.365419	-0.000037	0.434023
Cl95	Cl	-0.018591	-0.000046	-0.101985
Cl96	Cl	0.586815	-0.720882	0.362751
Cl97	Cl	0.548412	-0.428295	0.449910
H98	H	0.603790	-0.265176	0.324211
H99	H	0.209533	-0.000058	0.494715
H100	H	0.101765	-0.000071	0.491816
H101	H	-0.057419	-0.000046	0.371112
H102	H	-0.165206	-0.000042	0.368212
H103	H	0.781410	-0.557684	-0.079328
Cl104	Cl	0.799404	0.000034	-0.272494
H105	H	0.743023	-0.149728	0.007916
Cl106	Cl	0.798400	-0.428215	-0.117919
Cl107	Cl	0.760023	-0.279187	-0.030738
Cl108	Cl	0.548420	-0.571846	0.449908
Cl109	Cl	0.586834	-0.864431	0.362752
Cl110	Cl	0.760051	-0.720814	-0.030780
H111	H	0.603785	-0.149777	0.324214
Cl112	Cl	0.547360	0.000040	-0.395038
H113	H	0.743058	-0.850303	0.007824
Cl114	Cl	0.734626	0.114814	-0.452998
Cl115	Cl	0.612271	-0.114872	-0.214900
Cl116	Cl	0.734595	-0.114874	-0.452851
