data_functionalizedCrystal
_audit_creation_method	'MofGen! by Chris Wilmer'
_symmetry_space_group_name_H-M	'P1'
_symmetry_Int_Tables_number	1
_symmetry_cell_setting	triclinic
loop_
_symmetry_equiv_pos_as_xyz
  x,y,z
_cell_length_a	16.959455
_cell_length_b	16.625546
_cell_length_c	16.625548
_cell_angle_alpha	90.011514
_cell_angle_beta	90.003642
_cell_angle_gamma	90.019415
loop_
_atom_site_label
_atom_site_type_symbol
_atom_site_fract_x
_atom_site_fract_y
_atom_site_fract_z
Zn1	Zn	1.208287	-0.321216	0.455873
Zn2	Zn	1.458287	-0.071216	0.705873
Zn3	Zn	1.708287	0.178784	0.955873
Zn4	Zn	1.958287	0.428784	1.205873
Zn5	Zn	1.208229	-0.456015	0.321036
Zn6	Zn	1.458229	-0.206015	0.571036
Zn7	Zn	1.708229	0.043985	0.821036
Zn8	Zn	1.958229	0.293985	1.071036
Zn9	Zn	1.076140	-0.321193	0.321057
Zn10	Zn	1.326140	-0.071193	0.571057
Zn11	Zn	1.576140	0.178807	0.821057
Zn12	Zn	1.826140	0.428807	1.071057
Zn13	Zn	1.076075	-0.456003	0.455828
Zn14	Zn	1.326075	-0.206003	0.705828
Zn15	Zn	1.576075	0.043997	0.955828
Zn16	Zn	1.826075	0.293997	1.205828
O17	O	1.142183	-0.388607	0.388449
O18	O	1.392183	-0.138607	0.638449
O19	O	1.642183	0.111393	0.888449
O20	O	1.892183	0.361393	1.138449
O21	O	1.318890	-0.339112	0.437997
O22	O	1.568890	-0.089112	0.687997
O23	O	1.818890	0.160888	0.937997
O24	O	2.068890	0.410888	1.187997
O25	O	1.190710	-0.438125	0.208206
O26	O	1.440710	-0.188125	0.458206
O27	O	1.690710	0.061875	0.708206
O28	O	1.940710	0.311875	0.958206
O29	O	1.093722	-0.208363	0.338968
O30	O	1.343722	0.041637	0.588968
O31	O	1.593722	0.291637	0.838968
O32	O	1.843722	0.541637	1.088968
O33	O	1.318847	-0.438148	0.338933
O34	O	1.568847	-0.188148	0.588933
O35	O	1.818847	0.061852	0.838933
O36	O	2.068847	0.311852	1.088933
O37	O	1.190810	-0.208381	0.438017
O38	O	1.440810	0.041619	0.688017
O39	O	1.690810	0.291619	0.938017
O40	O	1.940810	0.541619	1.188017
O41	O	1.093665	-0.339072	0.208222
O42	O	1.343665	-0.089072	0.458222
O43	O	1.593665	0.160928	0.708222
O44	O	1.843665	0.410928	0.958222
O45	O	0.965521	-0.339061	0.338924
O46	O	1.215521	-0.089061	0.588924
O47	O	1.465521	0.160939	0.838924
O48	O	1.715521	0.410939	1.088924
O49	O	1.093610	-0.438128	0.568667
O50	O	1.343610	-0.188128	0.818667
O51	O	1.593610	0.061872	1.068667
O52	O	1.843610	0.311872	1.318667
O53	O	0.965473	-0.438106	0.437940
O54	O	1.215473	-0.188106	0.687940
O55	O	1.465473	0.061894	0.937940
O56	O	1.715473	0.311894	1.187940
O57	O	1.190746	-0.339101	0.568700
O58	O	1.440746	-0.089101	0.818700
O59	O	1.690746	0.160899	1.068700
O60	O	1.940746	0.410899	1.318700
O61	O	1.190647	-0.568846	0.338889
O62	O	1.440647	-0.318846	0.588889
O63	O	1.690647	-0.068846	0.838889
O64	O	1.940647	0.181154	1.088889
O65	O	1.093554	-0.568837	0.437920
O66	O	1.343554	-0.318837	0.687920
O67	O	1.593554	-0.068837	0.937920
O68	O	1.843554	0.181163	1.187920
C69	C	0.936817	-0.388580	0.388430
C70	C	1.186817	-0.138580	0.638430
C71	C	1.436817	0.111420	0.888430
C72	C	1.686817	0.361420	1.138430
C73	C	0.848960	-0.388588	0.388441
C74	C	1.098960	-0.138588	0.638441
C75	C	1.348960	0.111412	0.888441
C76	C	1.598960	0.361412	1.138441
C77	C	0.477485	-0.336992	0.336999
C78	C	0.727485	-0.086992	0.586999
C79	C	0.977485	0.163008	0.836999
C80	C	1.227485	0.413008	1.086999
C81	C	0.477484	-0.440288	0.439945
C82	C	0.727484	-0.190288	0.689945
C83	C	0.977484	0.059712	0.939945
C84	C	1.227484	0.309712	1.189945
C85	C	0.560030	-0.440276	0.439940
C86	C	0.810030	-0.190276	0.689940
C87	C	1.060030	0.059724	0.939940
C88	C	1.310030	0.309724	1.189940
C89	C	0.601307	-0.388623	0.388463
C90	C	0.851307	-0.138623	0.638463
C91	C	1.101307	0.111377	0.888463
C92	C	1.351307	0.361377	1.138463
C93	C	0.560039	-0.336981	0.336990
C94	C	0.810039	-0.086981	0.586990
C95	C	1.060039	0.163019	0.836990
C96	C	1.310039	0.413019	1.086990
C97	C	0.601304	-0.491923	0.491405
C98	C	0.851304	-0.241923	0.741405
C99	C	1.101304	0.008077	0.991405
C100	C	1.351304	0.258077	1.241405
C101	C	0.683855	-0.491914	0.491402
C102	C	0.933855	-0.241914	0.741402
C103	C	1.183855	0.008086	0.991402
C104	C	1.433855	0.258086	1.241402
C105	C	0.725134	-0.440256	0.439928
C106	C	0.975134	-0.190256	0.689928
C107	C	1.225134	0.059744	0.939928
C108	C	1.475134	0.309744	1.189928
C109	C	0.683861	-0.388611	0.388454
C110	C	0.933861	-0.138611	0.638454
C111	C	1.183861	0.111389	0.888454
C112	C	1.433861	0.361389	1.138454
C113	C	0.725138	-0.336957	0.336977
C114	C	0.975138	-0.086957	0.586977
C115	C	1.225138	0.163043	0.836977
C116	C	1.475138	0.413043	1.086977
C117	C	0.683866	-0.285308	0.285507
C118	C	0.933866	-0.035308	0.535507
C119	C	1.183866	0.214692	0.785507
C120	C	1.433866	0.464692	1.035507
C121	C	0.601317	-0.285322	0.285517
C122	C	0.851317	-0.035322	0.535517
C123	C	1.101317	0.214678	0.785517
C124	C	1.351317	0.464678	1.035517
C125	C	0.807683	-0.440242	0.439918
C126	C	1.057683	-0.190242	0.689918
C127	C	1.307683	0.059758	0.939918
C128	C	1.557683	0.309758	1.189918
C129	C	0.807692	-0.336946	0.336969
C130	C	1.057692	-0.086946	0.586969
C131	C	1.307692	0.163054	0.836969
C132	C	1.557692	0.413054	1.086969
C133	C	1.142108	-0.598098	0.388415
C134	C	1.392108	-0.348098	0.638415
C135	C	1.642108	-0.098098	0.888415
C136	C	1.892108	0.151902	1.138415
C137	C	1.142148	-0.687719	0.388427
C138	C	1.392148	-0.437719	0.638427
C139	C	1.642148	-0.187719	0.888427
C140	C	1.892148	0.062281	1.138427
C141	C	1.142286	-1.015894	0.388511
C142	C	1.392286	-0.765894	0.638511
C143	C	1.642286	-0.515894	0.888511
C144	C	1.892286	-0.265894	1.138511
C145	C	1.142245	-0.924586	0.388490
C146	C	1.392245	-0.674586	0.638490
C147	C	1.642245	-0.424586	0.888490
C148	C	1.892245	-0.174586	1.138490
C149	C	1.142217	-0.851809	0.388469
C150	C	1.392217	-0.601809	0.638469
C151	C	1.642217	-0.351809	0.888469
C152	C	1.892217	-0.101809	1.138469
C153	C	1.142177	-0.760495	0.388449
C154	C	1.392177	-0.510495	0.638449
C155	C	1.642177	-0.260495	0.888449
C156	C	1.892177	-0.010495	1.138449
C157	C	1.348351	-0.388634	0.388468
C158	C	1.598351	-0.138634	0.638468
C159	C	1.848351	0.111366	0.888468
C160	C	2.098351	0.361366	1.138468
C161	C	1.436208	-0.388646	0.388476
C162	C	1.686208	-0.138646	0.638476
C163	C	1.936208	0.111354	0.888476
C164	C	2.186208	0.361354	1.138476
C165	C	1.142177	-0.388616	0.598757
C166	C	1.392177	-0.138616	0.848757
C167	C	1.642177	0.111384	1.098757
C168	C	1.892177	0.361384	1.348757
C169	C	1.142175	-0.388620	0.688379
C170	C	1.392175	-0.138620	0.938379
C171	C	1.642175	0.111380	1.188379
C172	C	1.892175	0.361380	1.438379
C173	C	1.142279	-0.178298	0.388500
C174	C	1.392279	0.071702	0.638500
C175	C	1.642279	0.321702	0.888500
C176	C	1.892279	0.571702	1.138500
C177	C	1.142321	-0.088677	0.388522
C178	C	1.392321	0.161323	0.638522
C179	C	1.642321	0.411323	0.888522
C180	C	1.892321	0.661323	1.138522
C181	C	1.142172	-0.388624	0.761161
C182	C	1.392172	-0.138624	1.011161
C183	C	1.642172	0.111376	1.261161
C184	C	1.892172	0.361376	1.511161
C185	C	1.142172	-0.388621	0.852469
C186	C	1.392172	-0.138621	1.102469
C187	C	1.642172	0.111379	1.352469
C188	C	1.892172	0.361379	1.602469
C189	C	1.142175	-0.388614	0.925246
C190	C	1.392175	-0.138614	1.175246
C191	C	1.642175	0.111386	1.425246
C192	C	1.892175	0.361386	1.675246
C193	C	1.142175	-0.388612	1.016560
C194	C	1.392175	-0.138612	1.266560
C195	C	1.642175	0.111388	1.516560
C196	C	1.892175	0.361388	1.766560
C197	C	1.142181	-0.388614	1.178958
C198	C	1.392181	-0.138614	1.428958
C199	C	1.642181	0.111386	1.678958
C200	C	1.892181	0.361386	1.928958
C201	C	1.142179	-0.388605	1.089337
C202	C	1.392179	-0.138605	1.339337
C203	C	1.642179	0.111395	1.589337
C204	C	1.892179	0.361395	1.839337
H205	H	0.717485	-0.243255	0.243591
H206	H	0.967485	0.006745	0.493591
H207	H	1.217485	0.256745	0.743591
H208	H	1.467485	0.506745	0.993591
H209	H	0.567690	-0.533983	0.533309
H210	H	0.817690	-0.283983	0.783309
H211	H	1.067690	-0.033983	1.033309
H212	H	1.317690	0.216017	1.283309
Cl213	Cl	0.549428	-0.220399	0.220817
Cl214	Cl	0.799428	0.029601	0.470817
Cl215	Cl	1.049428	0.279601	0.720817
Cl216	Cl	1.299428	0.529601	0.970817
H217	H	0.841294	-0.294878	0.295054
H218	H	1.091294	-0.044878	0.545054
H219	H	1.341294	0.205122	0.795054
H220	H	1.591294	0.455122	1.045054
Cl221	Cl	0.425591	-0.505237	0.504638
Cl222	Cl	0.675591	-0.255237	0.754638
Cl223	Cl	0.925591	-0.005237	1.004638
Cl224	Cl	1.175591	0.244763	1.254638
H225	H	0.443878	-0.294938	0.295095
H226	H	0.693878	-0.044938	0.545095
H227	H	0.943878	0.205062	0.795095
H228	H	1.193878	0.455062	1.045095
Cl229	Cl	0.735733	-0.556841	0.556108
Cl230	Cl	0.985733	-0.306841	0.806108
Cl231	Cl	1.235733	-0.056841	1.056108
Cl232	Cl	1.485733	0.193159	1.306108
H233	H	0.841283	-0.482297	0.481822
H234	H	1.091283	-0.232297	0.731822
H235	H	1.341283	0.017703	0.981822
H236	H	1.591283	0.267703	1.231822
