data_functionalizedCrystal
_audit_creation_method	'MofGen! by Chris Wilmer'
_symmetry_space_group_name_H-M	'P1'
_symmetry_Int_Tables_number	1
_symmetry_cell_setting	triclinic
loop_
_symmetry_equiv_pos_as_xyz
  x,y,z
_cell_length_a	14.908571
_cell_length_b	14.908520
_cell_length_c	14.908803
_cell_angle_alpha	83.620611
_cell_angle_beta	89.810884
_cell_angle_gamma	90.205961
loop_
_atom_site_label
_atom_site_type_symbol
_atom_site_fract_x
_atom_site_fract_y
_atom_site_fract_z
Zn1	Zn	1.316499	-0.470814	0.613068
Zn2	Zn	1.316433	-0.613406	0.470431
Zn3	Zn	1.175908	-0.453440	0.453127
Zn4	Zn	1.157491	-0.612381	0.612026
O5	O	1.241583	-0.537510	0.537163
O6	O	1.441846	-0.497429	0.601825
O7	O	1.305472	-0.585344	0.341942
O8	O	1.202294	-0.329552	0.467538
O9	O	1.441797	-0.602191	0.497030
O10	O	1.305585	-0.342316	0.585046
O11	O	1.202229	-0.467818	0.329229
O12	O	1.048110	-0.466824	0.466527
O13	O	1.170904	-0.600444	0.738357
O14	O	1.034578	-0.583597	0.583269
O15	O	1.287727	-0.496435	0.739123
O16	O	1.287613	-0.739463	0.496020
O17	O	1.170839	-0.738710	0.600049
C18	C	1.008841	-0.523215	0.522908
C19	C	0.909270	-0.517122	0.516832
C20	C	0.708123	-0.627440	0.626833
C21	C	0.614567	-0.621718	0.621128
C22	C	0.628600	-0.499953	0.499721
C23	C	0.722156	-0.505675	0.505426
C24	C	0.761914	-0.569421	0.568984
C25	C	0.855472	-0.575147	0.574684
C26	C	0.869503	-0.453378	0.453282
C27	C	0.775947	-0.447657	0.447577
C28	C	1.227243	-0.771809	0.549820
C29	C	1.221189	-0.872050	0.555270
C30	C	1.331521	-1.061148	0.457286
C31	C	1.325836	-1.155333	0.462404
C32	C	1.204138	-1.154607	0.570628
C33	C	1.209823	-1.060422	0.565510
C34	C	1.273516	-1.013696	0.508836
C35	C	1.279197	-0.919508	0.503714
C36	C	1.157504	-0.918785	0.611942
C37	C	1.151818	-1.012970	0.617060
C38	C	1.475234	-0.551862	0.551474
C39	C	1.574802	-0.557978	0.557573
C40	C	1.227268	-0.550263	0.772376
C41	C	1.221168	-0.555698	0.872609
C42	C	1.256001	-0.302299	0.524478
C43	C	1.262146	-0.202066	0.519072
C44	C	1.331352	-0.457584	1.061756
C45	C	1.325623	-0.462687	1.155935
C46	C	1.203979	-0.571002	1.155146
C47	C	1.209707	-0.565899	1.060967
C48	C	1.273397	-0.509189	1.014276
C49	C	1.279129	-0.504091	0.920096
C50	C	1.157481	-0.612400	0.919308
C51	C	1.151752	-0.617503	1.013487
C52	C	1.255835	-0.524827	1.302866
C53	C	1.261940	-0.519395	1.202633
H54	H	0.570773	-0.668961	0.668237
H55	H	0.913310	-0.406137	0.406175
H56	H	1.152288	-1.192669	0.616775
N57	N	0.751008	-0.696200	0.695371
H58	H	0.731673	-0.684799	0.758086
H59	H	0.818428	-0.690987	0.690126
N60	N	0.898351	-0.643899	0.643234
H61	H	0.936867	-0.611958	0.685472
H62	H	0.936794	-0.686003	0.611076
H63	H	1.099897	-0.663673	1.051515
H64	H	1.372814	-0.420663	1.194590
H65	H	0.596213	-0.448049	0.447981
H66	H	0.743563	-0.395754	0.395832
H67	H	1.331056	-0.881464	0.457565
H68	H	1.330989	-0.457916	0.882082
N69	N	1.083125	-1.063370	0.678185
H70	H	1.088324	-1.130237	0.673606
H71	H	1.021009	-1.042280	0.659278
H72	H	1.383377	-1.023102	0.411133
H73	H	1.152126	-0.617172	1.193178
N74	N	1.388400	-1.206516	0.406807
H75	H	1.429610	-1.162620	0.370130
H76	H	1.352153	-1.241142	0.364936
N77	N	1.094972	-0.668071	0.868099
H78	H	1.108266	-0.656238	0.801352
H79	H	1.030852	-0.651005	0.879883
H80	H	1.110269	-0.880138	0.653915
N81	N	1.400049	-0.396433	1.011391
H82	H	1.435899	-0.364519	1.055761
H83	H	1.368522	-0.350343	0.967830
