data_functionalizedCrystal
_audit_creation_method	'MofGen! by Chris Wilmer'
_symmetry_space_group_name_H-M	'P1'
_symmetry_Int_Tables_number	1
_symmetry_cell_setting	triclinic
loop_
_symmetry_equiv_pos_as_xyz
  x,y,z
_cell_length_a	10.654550
_cell_length_b	17.699092
_cell_length_c	9.130313
_cell_angle_alpha	90.000444
_cell_angle_beta	89.996220
_cell_angle_gamma	83.885635
loop_
_atom_site_label
_atom_site_type_symbol
_atom_site_fract_x
_atom_site_fract_y
_atom_site_fract_z
O1	O	1.665979	0.106299	-0.121914
O2	O	1.300323	0.116427	-0.121890
O3	O	1.493476	0.001240	-0.121899
O4	O	1.472826	0.221486	-0.121904
O5	O	1.493474	0.001243	0.121700
O6	O	1.300321	0.116430	0.121709
O7	O	1.665976	0.106302	0.121685
Cu8	Cu	1.483148	0.111366	0.143940
Cu9	Cu	1.483151	0.111362	-0.144144
O10	O	1.472823	0.221489	0.121695
C11	C	1.253537	0.115684	-0.000087
C12	C	1.114133	0.113460	-0.000078
C13	C	1.033463	0.181280	-0.000101
C14	C	0.902479	0.179185	-0.000126
C15	C	0.932847	0.041443	-0.000112
C16	C	1.063828	0.043539	-0.000076
C17	C	1.015930	0.260804	-0.000116
C18	C	0.884945	0.258709	-0.000141
C19	C	1.492733	-0.026961	-0.000102
C20	C	1.490508	-0.110992	-0.000108
C21	C	1.489467	-0.150468	-0.132896
C22	C	1.487368	-0.229424	-0.132897
C23	C	1.486320	-0.268904	-0.000110
C24	C	1.487357	-0.229423	0.132688
C25	C	1.489447	-0.150467	0.132688
C26	C	1.478928	-0.547841	0.132690
C27	C	1.476842	-0.626803	0.132680
C28	C	1.476849	-0.626799	-0.132895
C29	C	1.478939	-0.547843	-0.132895
C30	C	1.479969	-0.508368	-0.000098
C31	C	1.482243	-0.422754	-0.000098
C32	C	1.484055	-0.354517	-0.000109
C33	C	1.712762	0.107044	-0.000121
C34	C	1.852167	0.109269	-0.000139
C35	C	1.473566	0.249689	-0.000106
C36	C	1.475791	0.333721	-0.000109
N37	N	1.483156	0.111368	0.346562
N38	N	1.483154	0.111354	-0.346767
C39	C	1.568705	0.060381	0.423210
C40	C	1.568702	0.060372	0.576547
C41	C	1.397595	0.162344	0.576575
C42	C	1.397593	0.162349	0.423241
C43	C	1.667496	0.001510	0.423195
C44	C	1.667493	0.001501	0.576532
H45	H	0.891872	-0.015484	-0.000133
O46	O	1.054036	0.301955	0.134998
H47	H	1.006269	0.360833	0.134980
O48	O	1.480072	-0.505270	0.275913
H49	H	1.479014	-0.545992	0.368243
O50	O	1.486235	-0.272014	-0.276106
H51	H	1.399710	-0.301678	-0.282431
H52	H	1.763778	0.014469	0.618142
H53	H	1.327932	0.203851	0.639023
O54	O	1.480060	-0.505267	-0.276122
H55	H	1.566574	-0.475594	-0.282495
O56	O	1.486250	-0.272000	0.275915
H57	H	1.484644	-0.333537	0.253609
O58	O	0.828963	0.298401	-0.135179
H59	H	0.870181	0.269200	-0.234384
O60	O	1.062598	0.294345	-0.139415
H61	H	1.017365	0.353409	-0.152464
O62	O	1.150842	-0.029609	-0.000026
H63	H	1.093853	-0.078578	-0.000039
O64	O	0.823872	0.290545	0.139153
H65	H	0.897418	0.309123	0.213022
O66	O	1.490588	-0.107886	-0.276117
H67	H	1.489495	-0.148603	-0.368452
H68	H	1.476003	-0.658948	-0.241024
H69	H	1.647069	-0.056663	0.381578
H70	H	1.327922	0.203860	0.360835
O71	O	1.475696	-0.669388	0.275906
H72	H	1.476749	-0.628674	0.368249
O73	O	1.787857	0.025910	0.360168
H74	H	1.851672	0.038840	0.450756
O75	O	1.490584	-0.107885	0.275906
H76	H	1.489518	-0.148602	0.368243
O77	O	1.628407	-0.071326	0.639541
H78	H	1.607686	-0.109931	0.548944
