data_functionalizedCrystal
_audit_creation_method	'MofGen! by Chris Wilmer'
_symmetry_space_group_name_H-M	'P1'
_symmetry_Int_Tables_number	1
_symmetry_cell_setting	triclinic
loop_
_symmetry_equiv_pos_as_xyz
  x,y,z
_cell_length_a	10.540539
_cell_length_b	10.654550
_cell_length_c	9.130313
_cell_angle_alpha	89.999890
_cell_angle_beta	90.001801
_cell_angle_gamma	84.505197
loop_
_atom_site_label
_atom_site_type_symbol
_atom_site_fract_x
_atom_site_fract_y
_atom_site_fract_z
O1	O	1.685816	0.176986	-0.121726
O2	O	1.316397	0.193663	-0.121744
O3	O	1.509601	0.002588	-0.121729
O4	O	1.492613	0.368061	-0.121741
O5	O	1.509598	0.002593	0.121870
O6	O	1.316395	0.193668	0.121855
O7	O	1.685814	0.176992	0.121873
Cu8	Cu	1.501104	0.185330	0.144106
Cu9	Cu	1.501107	0.185324	-0.143978
O10	O	1.492611	0.368066	0.121858
C11	C	1.508352	-0.044208	0.000068
C12	C	1.504620	-0.183652	0.000063
C13	C	1.269094	0.192415	0.000053
C14	C	1.128147	0.188673	0.000046
C15	C	1.618375	-0.263098	0.000073
C16	C	1.614861	-0.394120	0.000063
C17	C	1.383827	-0.366238	0.000039
C18	C	1.387343	-0.235218	0.000038
C19	C	1.735653	-0.211532	0.000098
C20	C	1.849417	-0.290979	0.000109
C21	C	1.845903	-0.422001	0.000099
C22	C	1.728625	-0.473576	0.000077
C23	C	0.944772	0.045302	0.000620
C24	C	1.091388	0.049095	0.000055
C25	C	1.066451	0.255841	-0.139057
C26	C	0.919909	0.251077	-0.139158
C27	C	0.919416	0.253923	0.137859
C28	C	1.066398	0.255208	0.139682
C29	C	1.733118	0.178240	0.000072
C30	C	1.874064	0.181981	0.000069
C31	C	1.493859	0.414862	0.000057
C32	C	1.497591	0.554306	0.000053
N33	N	1.501112	0.185334	0.346729
N34	N	1.501110	0.185311	-0.346600
C35	C	1.586684	0.100755	0.423387
C36	C	1.586681	0.100740	0.576724
C37	C	1.415528	0.269893	0.576731
C38	C	1.415526	0.269901	0.423397
C39	C	1.672269	0.016187	0.346720
C40	C	1.757850	-0.068397	0.423378
C41	C	1.757846	-0.068412	0.576715
C42	C	1.672262	0.016157	0.653393
H43	H	1.944901	-0.248977	0.000090
C44	C	0.904782	-0.028008	-0.131703
C45	C	1.012021	-0.064857	-0.217486
C46	C	0.975231	-0.132400	-0.339385
H47	H	0.844897	0.023834	-0.188144
H48	H	0.866984	-0.100691	-0.099756
H49	H	1.049800	0.007814	-0.249434
H50	H	1.071917	-0.116715	-0.161089
H51	H	0.937433	-0.205083	-0.307438
H52	H	0.915345	-0.080550	-0.395813
H53	H	1.047987	-0.157421	-0.397596
H54	H	1.288345	-0.408241	0.000023
C55	C	0.877206	0.193793	0.278435
C56	C	0.798699	0.282530	0.358283
C57	C	0.759781	0.227116	0.487741
H58	H	0.949918	0.165906	0.335371
H59	H	0.831322	0.123901	0.255147
H60	H	0.844582	0.352399	0.381574
H61	H	0.725968	0.310424	0.301392
H62	H	0.713897	0.157224	0.464453
H63	H	0.832501	0.199231	0.544664
H64	H	0.706501	0.287312	0.541927
C65	C	1.322477	0.361766	0.659712
C66	C	1.247510	0.435818	0.559757
C67	C	1.161767	0.520455	0.636143
H68	H	1.368449	0.414600	0.719539
H69	H	1.269174	0.316105	0.719491
H70	H	1.300806	0.481475	0.500003
H71	H	1.201510	0.383018	0.499927
H72	H	1.108464	0.474794	0.695922
H73	H	1.207749	0.573280	0.695967
H74	H	1.110883	0.570702	0.568336
H75	H	1.738527	-0.104849	0.000110
H76	H	1.938535	-0.486684	0.000093
H77	H	1.725773	-0.580264	0.000053
H78	H	0.891717	0.201430	-0.243137
C79	C	1.148008	-0.021488	0.133055
C80	C	1.050210	-0.067933	0.214656
C81	C	1.102315	-0.132981	0.337175
H82	H	1.191374	0.034137	0.192062
H83	H	1.206318	-0.089753	0.101799
H84	H	0.991923	0.000323	0.245914
H85	H	1.006837	-0.123575	0.155692
H86	H	1.160625	-0.201246	0.305919
H87	H	1.145680	-0.077348	0.396170
H88	H	1.035969	-0.164511	0.392549
H89	H	1.294713	-0.170531	0.000032
H90	H	0.872153	0.354739	0.138796
C91	C	1.120817	0.189906	0.277079
C92	C	1.065008	0.250064	0.400781
C93	C	1.115103	0.189930	0.527372
H94	H	1.210405	0.194050	0.279845
H95	H	1.103044	0.104157	0.276283
H96	H	1.082791	0.335791	0.401577
H97	H	0.975424	0.245922	0.398064
H98	H	1.097330	0.104181	0.526576
H99	H	1.204690	0.194078	0.530123
H100	H	1.077236	0.230731	0.611318
C101	C	0.855954	0.384930	-0.147910
C102	C	0.893716	0.441972	-0.276862
C103	C	0.834818	0.565266	-0.284998
H104	H	0.880300	0.431814	-0.065775
H105	H	0.766031	0.382984	-0.148117
H106	H	0.983620	0.443925	-0.276642
H107	H	0.869369	0.395126	-0.359020
H108	H	0.744894	0.563320	-0.285205
H109	H	0.859168	0.612137	-0.202857
H110	H	0.860421	0.603980	-0.372497
C111	C	1.850532	-0.160329	0.339981
C112	C	1.782206	-0.237826	0.251948
C113	C	1.867530	-0.322544	0.175107
H114	H	1.901501	-0.210825	0.407460
H115	H	1.903780	-0.114724	0.280068
H116	H	1.728980	-0.283428	0.311857
H117	H	1.731241	-0.187365	0.184442
H118	H	1.920778	-0.276939	0.115194
H119	H	1.918495	-0.373031	0.242596
H120	H	1.821184	-0.375128	0.115358
H121	H	0.916205	-0.009838	0.100379
H122	H	1.133154	-0.004133	-0.099829
C123	C	1.098901	0.390823	0.150811
C124	C	1.231341	0.392631	0.159336
C125	C	1.261328	0.517542	0.169553
H126	H	1.060508	0.428791	0.236086
H127	H	1.067812	0.436357	0.066660
H128	H	1.262415	0.347115	0.243479
H129	H	1.269764	0.354688	0.074071
H130	H	1.230240	0.563076	0.085402
H131	H	1.222928	0.555501	0.254829
H132	H	1.351191	0.518787	0.175325
H133	H	1.088767	0.358344	-0.144236
H134	H	1.109058	0.209178	-0.242578
H135	H	1.672282	0.016194	0.221865
H136	H	1.827520	-0.137292	0.639129
H137	H	1.672258	0.016129	0.778251
H138	H	1.345844	0.338772	0.360981
