data_functionalizedCrystal
_audit_creation_method	'MofGen! by Chris Wilmer'
_symmetry_space_group_name_H-M	'P1'
_symmetry_Int_Tables_number	1
_symmetry_cell_setting	triclinic
loop_
_symmetry_equiv_pos_as_xyz
  x,y,z
_cell_length_a	10.685661
_cell_length_b	17.637651
_cell_length_c	10.686551
_cell_angle_alpha	75.377812
_cell_angle_beta	80.927213
_cell_angle_gamma	96.040162
loop_
_atom_site_label
_atom_site_type_symbol
_atom_site_fract_x
_atom_site_fract_y
_atom_site_fract_z
Zn1	Zn	1.866708	-0.369047	-0.737056
Zn2	Zn	1.800765	-0.510704	-0.475232
Zn3	Zn	1.638130	-0.369083	-0.508567
Zn4	Zn	1.611504	-0.491801	-0.677808
O5	O	1.729277	-0.435159	-0.599666
O6	O	2.032827	-0.395734	-0.713169
O7	O	1.762737	-0.499845	-0.299252
O8	O	1.707192	-0.258436	-0.577623
O9	O	1.984379	-0.499809	-0.520808
O10	O	1.875127	-0.258409	-0.745493
O11	O	1.643250	-0.395796	-0.323744
O12	O	1.459731	-0.377466	-0.520173
O13	O	1.661811	-0.467591	-0.866069
O14	O	1.440169	-0.467626	-0.644513
O15	O	1.849309	-0.377404	-0.909598
O16	O	1.736918	-0.618839	-0.463358
O17	O	1.597869	-0.604950	-0.612190
C18	C	1.404608	-0.420499	-0.579532
C19	C	1.265710	-0.414245	-0.570942
C20	C	1.657385	-0.640583	-0.527758
C21	C	1.626748	-0.728468	-0.497045
C22	C	1.962873	-1.017112	-0.833442
C23	C	1.934042	-1.099692	-0.804558
C24	C	1.759263	-1.099839	-0.629603
C25	C	1.788083	-1.017258	-0.658468
C26	C	1.889888	-0.975901	-0.760390
C27	C	1.715098	-0.976046	-0.585416
C28	C	1.743911	-0.893472	-0.614284
C29	C	1.845709	-0.852108	-0.716203
C30	C	1.918701	-0.893326	-0.789258
C31	C	1.613288	-1.017405	-0.483501
C32	C	1.540303	-0.976193	-0.410448
C33	C	1.569122	-0.893617	-0.439310
C34	C	1.670920	-0.852254	-0.541229
C35	C	1.496130	-0.852400	-0.366255
C36	C	1.524943	-0.769825	-0.395123
C37	C	1.699733	-0.769679	-0.570097
C38	C	2.055212	-0.449876	-0.619879
C39	C	2.194107	-0.456148	-0.628493
C40	C	1.759946	-0.420384	-0.935918
C41	C	1.773015	-0.414088	-1.079209
C42	C	1.801485	-0.228932	-0.671885
C43	C	1.832256	-0.141051	-0.702661
C44	C	1.698819	-0.449822	-0.264746
C45	C	1.686069	-0.455906	-0.121550
H46	H	1.239072	-0.496808	-0.684342
Br47	Br	1.545337	-0.523615	-0.999261
H48	H	1.413233	-0.886085	-0.283279
H49	H	1.220754	-0.373581	-0.515110
H50	H	1.857461	-0.373471	-1.152587
H51	H	1.782641	-0.736006	-0.653084
H52	H	1.869168	-0.784871	-0.739705
Br53	Br	1.425894	-0.713890	-0.295980
H54	H	2.001610	-0.859652	-0.872244
Br55	Br	2.101056	-0.960978	-0.971748
Br56	Br	1.621093	-1.155973	-0.491297
Br57	Br	2.033110	-1.155621	-0.903707
H58	H	1.589821	-1.084641	-0.460011
H59	H	1.457411	-1.009877	-0.327466
