data_functionalizedCrystal
_audit_creation_method	'MofGen! by Chris Wilmer'
_symmetry_space_group_name_H-M	'P1'
_symmetry_Int_Tables_number	1
_symmetry_cell_setting	triclinic
loop_
_symmetry_equiv_pos_as_xyz
  x,y,z
_cell_length_a	18.101398
_cell_length_b	18.050589
_cell_length_c	18.101389
_cell_angle_alpha	89.985984
_cell_angle_beta	89.990255
_cell_angle_gamma	90.023777
loop_
_atom_site_label
_atom_site_type_symbol
_atom_site_fract_x
_atom_site_fract_y
_atom_site_fract_z
Zn1	Zn	1.132136	-0.295825	-0.418573
Zn2	Zn	1.132038	-0.420000	-0.294741
Zn3	Zn	1.008295	-0.295818	-0.294766
Zn4	Zn	1.008252	-0.419968	-0.418561
O5	O	1.070180	-0.357903	-0.356660
O6	O	1.235756	-0.312313	-0.402141
O7	O	1.115600	-0.403537	-0.191112
O8	O	1.024781	-0.191895	-0.311205
O9	O	1.235684	-0.403544	-0.311163
O10	O	1.115767	-0.191900	-0.402165
O11	O	1.024687	-0.312301	-0.191130
O12	O	0.904656	-0.312271	-0.311193
O13	O	1.024708	-0.403491	-0.522196
O14	O	0.904624	-0.403484	-0.402145
O15	O	1.115725	-0.312283	-0.522205
O16	O	1.115558	-0.523920	-0.311151
O17	O	1.024613	-0.523897	-0.402121
C18	C	0.877769	-0.357874	-0.356671
C19	C	0.795455	-0.357879	-0.356693
C20	C	0.496364	-0.357923	-0.356662
C21	C	0.527694	-0.415589	-0.413604
C22	C	0.613313	-0.415408	-0.413838
C23	C	0.644747	-0.357902	-0.356677
C24	C	0.613689	-0.279684	-0.377999
C25	C	0.528044	-0.280030	-0.378404
C26	C	0.527913	-0.377786	-0.278261
C27	C	0.613563	-0.379502	-0.278680
C28	C	0.728606	-0.357885	-0.356685
C29	C	0.412505	-0.357934	-0.356656
C30	C	1.070091	-0.550855	-0.356648
C31	C	1.070120	-0.633401	-0.356668
C32	C	1.020713	-0.832866	-0.406120
C33	C	1.002661	-0.882294	-0.338546
C34	C	1.070193	-0.784531	-0.356677
C35	C	1.088281	-0.882185	-0.424259
C36	C	1.070262	-0.930516	-0.356693
C37	C	1.052105	-0.832872	-0.289067
C38	C	1.137757	-0.832759	-0.374826
C39	C	1.119731	-0.882164	-0.307206
C40	C	1.070151	-0.700433	-0.356669
C41	C	1.070303	-1.014613	-0.356693
C42	C	1.263342	-0.357933	-0.356651
C43	C	1.345656	-0.357946	-0.356646
C44	C	1.070223	-0.357884	-0.549822
C45	C	1.070241	-0.357876	-0.632137
C46	C	1.070290	-0.164197	-0.356689
C47	C	1.070337	-0.081652	-0.356701
C48	C	1.070284	-0.357737	-0.931228
C49	C	1.012821	-0.414940	-0.899897
C50	C	1.012977	-0.415205	-0.814279
C51	C	1.070262	-0.357806	-0.782845
C52	C	1.148289	-0.379056	-0.813933
C53	C	1.147968	-0.379431	-0.899578
C54	C	1.050399	-0.279157	-0.899651
C55	C	1.048663	-0.279611	-0.814000
C56	C	1.070254	-0.357844	-0.698986
C57	C	1.070297	-0.357701	-1.015087
C58	C	1.070180	-0.357868	-0.164250
C59	C	1.070305	-0.357667	-0.081936
H60	H	0.633870	-0.437059	-0.262599
H61	H	1.103553	-0.903847	-0.481406
H62	H	0.994491	-0.259798	-0.921250
H63	H	1.161604	-0.903674	-0.265352
H64	H	0.508081	-0.263181	-0.435718
N65	N	0.499204	-0.398401	-0.490106
H66	H	0.515468	-0.346992	-0.504998
H67	H	0.519597	-0.435741	-0.526296
N68	N	0.965214	-0.804174	-0.461424
H69	H	0.978326	-0.822881	-0.512345
H70	H	0.914235	-0.822198	-0.447558
N71	N	1.206520	-0.325596	-0.786969
H72	H	1.208483	-0.326814	-0.731220
H73	H	1.256194	-0.340341	-0.807678
N74	N	1.171007	-0.454336	-0.785532
H75	H	1.133772	-0.492631	-0.801939
H76	H	1.221294	-0.467449	-0.805851
N77	N	0.641135	-0.492237	-0.396136
H78	H	0.597763	-0.526527	-0.388112
H79	H	0.672053	-0.511070	-0.438609
H80	H	1.036768	-0.811300	-0.231905
N81	N	0.927023	-0.911126	-0.318207
H82	H	0.913003	-0.892415	-0.267531
H83	H	0.889701	-0.893195	-0.355620
N84	N	1.213383	-0.803916	-0.395178
H85	H	1.226977	-0.821821	-0.446259
H86	H	1.212856	-0.747971	-0.394499
H87	H	0.955117	-0.401907	-0.793260
H88	H	1.092252	-0.236538	-0.919913
H89	H	1.026106	-0.473451	-0.793797
H90	H	1.164826	-0.436874	-0.919561
N91	N	0.935942	-0.397499	-0.927161
H92	H	0.937613	-0.352350	-0.960090
H93	H	0.916188	-0.441089	-0.956028
N94	N	1.030050	-0.491629	-0.928383
H95	H	1.074912	-0.489478	-0.961498
H96	H	1.040274	-0.525705	-0.885324
H97	H	1.192234	-0.339576	-0.920304
H98	H	0.507652	-0.335782	-0.235834
H99	H	0.991242	-0.263587	-0.793682
N100	N	1.100053	-0.220154	-0.785663
H101	H	1.138237	-0.243167	-0.752080
H102	H	1.125552	-0.195438	-0.828753
H103	H	0.507082	-0.473782	-0.400391
H104	H	0.633815	-0.402267	-0.471928
N105	N	0.500573	-0.221198	-0.325865
H106	H	0.519320	-0.171116	-0.342263
H107	H	0.444779	-0.221043	-0.325748
N108	N	0.640656	-0.221223	-0.324781
H109	H	0.673345	-0.244937	-0.286247
H110	H	0.669706	-0.182489	-0.352690
H111	H	0.506302	-0.433846	-0.258883
N112	N	0.642107	-0.256954	-0.453095
H113	H	0.697851	-0.254751	-0.452049
H114	H	0.625646	-0.294349	-0.491188
N115	N	0.641902	-0.327908	-0.219458
H116	H	0.675504	-0.289628	-0.242453
H117	H	0.598814	-0.302327	-0.194864
