data_functionalizedCrystal
_audit_creation_method	'MofGen! by Chris Wilmer'
_symmetry_space_group_name_H-M	'P1'
_symmetry_Int_Tables_number	1
_symmetry_cell_setting	triclinic
loop_
_symmetry_equiv_pos_as_xyz
  x,y,z
_cell_length_a	14.044220
_cell_length_b	10.654550
_cell_length_c	12.503567
_cell_angle_alpha	93.554381
_cell_angle_beta	93.840678
_cell_angle_gamma	91.163096
loop_
_atom_site_label
_atom_site_type_symbol
_atom_site_fract_x
_atom_site_fract_y
_atom_site_fract_z
O1	O	0.127800	-1.687866	-0.089243
O2	O	0.140492	-1.323664	-0.089263
O3	O	-0.003874	-1.500297	-0.089243
O4	O	0.272166	-1.511232	-0.089263
O5	O	0.006995	-1.486997	0.089398
O6	O	0.151361	-1.310364	0.089378
O7	O	0.138669	-1.674565	0.089398
Cu8	Cu	0.146007	-1.491250	0.105699
Cu9	Cu	0.133154	-1.506979	-0.105564
O10	O	0.283035	-1.497932	0.089378
C11	C	-0.033785	-1.488861	0.000078
C12	C	-0.139105	-1.474586	0.000079
C13	C	0.144994	-1.270122	0.000055
C14	C	0.142205	-1.130400	0.000048
C15	C	0.134166	-1.728107	0.000078
C16	C	0.136955	-1.867830	0.000078
C17	C	-0.331939	-1.448488	0.000062
C18	C	-0.388906	-1.549736	0.000064
C19	C	-0.496206	-1.535215	0.000055
C20	C	-0.224630	-1.463007	0.000071
C21	C	0.312946	-1.509368	0.000055
C22	C	0.418265	-1.523644	0.000047
N23	N	0.155047	-1.480196	0.254291
C24	C	0.227206	-1.059456	0.000044
C25	C	0.224582	-0.928170	0.000063
C26	C	0.051948	-0.938783	0.000084
C27	C	0.054574	-1.070066	0.000073
C28	C	0.110817	-1.534291	0.526730
C29	C	0.168345	-1.463945	0.473398
C30	C	0.160944	-1.472989	0.351475
C31	C	0.118216	-1.525248	0.648664
N32	N	0.124118	-1.518037	0.745844
H33	H	-0.363750	-1.350909	0.000054
H34	H	0.056011	-1.601305	0.480828
H35	H	0.298562	-1.108574	0.000032
C36	C	0.224731	-1.250112	0.508291
C37	C	0.242345	-1.373480	0.535363
H38	H	0.270413	-1.194269	0.546554
H39	H	0.229402	-1.244407	0.433307
H40	H	0.162436	-1.227986	0.526669
H41	H	0.304638	-1.395609	0.516977
H42	H	0.237683	-1.379189	0.610363
C43	C	-0.246441	-1.670554	0.000100
C44	C	-0.345967	-1.681477	0.000088
H45	H	-0.219930	-1.751882	0.000124
H46	H	-0.229726	-1.630847	-0.062197
H47	H	-0.222168	-1.621539	0.062396
H48	H	-0.370241	-1.730484	-0.062212
H49	H	-0.362689	-1.721203	0.062392
H50	H	0.293798	-0.870413	0.000063
H51	H	-0.019399	-0.889643	0.000112
C52	C	-0.097355	-1.126371	-0.091754
C53	C	-0.038866	-1.148061	0.000072
H54	H	-0.155034	-1.174529	-0.091752
H55	H	-0.111462	-1.039561	-0.091738
H56	H	-0.065239	-1.150337	-0.154047
H57	H	-0.070980	-1.124086	0.062366
H58	H	-0.024762	-1.234890	0.000066
