data_functionalizedCrystal
_audit_creation_method	'MofGen! by Chris Wilmer'
_symmetry_space_group_name_H-M	'P1'
_symmetry_Int_Tables_number	1
_symmetry_cell_setting	triclinic
loop_
_symmetry_equiv_pos_as_xyz
  x,y,z
_cell_length_a	15.944493
_cell_length_b	15.944499
_cell_length_c	17.766277
_cell_angle_alpha	89.988049
_cell_angle_beta	90.011842
_cell_angle_gamma	96.523674
loop_
_atom_site_label
_atom_site_type_symbol
_atom_site_fract_x
_atom_site_fract_y
_atom_site_fract_z
O1	O	-0.108129	1.114534	-0.062649
O2	O	0.391871	1.614534	0.437351
O3	O	-0.121531	0.869976	-0.062641
O4	O	0.378469	1.369976	0.437359
O5	O	0.007449	0.998959	-0.062630
O6	O	0.507449	1.498959	0.437370
O7	O	-0.237110	0.985552	-0.062660
O8	O	0.262890	1.485552	0.437340
O9	O	0.007456	0.998936	0.062559
O10	O	0.507456	1.498936	0.562559
O11	O	-0.121525	0.869953	0.062547
O12	O	0.378475	1.369953	0.562547
O13	O	-0.108123	1.114512	0.062540
O14	O	0.391877	1.614512	0.562540
Cu15	Cu	-0.114823	0.992231	0.073974
Cu16	Cu	0.385177	1.492231	0.573974
Cu17	Cu	-0.114831	0.992257	-0.074076
Cu18	Cu	0.385169	1.492257	0.425924
O19	O	-0.237103	0.985529	0.062528
O20	O	0.262897	1.485529	0.562528
C21	C	-0.120979	0.838670	-0.000046
C22	C	0.379021	1.338670	0.499954
C23	C	-0.119334	0.745422	-0.000043
C24	C	0.380666	1.245422	0.499957
C25	C	-0.194269	0.453871	-0.000063
C26	C	0.305731	0.953871	0.499937
C27	C	-0.155319	0.514919	-0.061784
C28	C	0.344681	1.014919	0.438216
C29	C	-0.113358	0.409787	-0.000059
C30	C	0.386642	0.909787	0.499941
C31	C	-0.155291	0.514883	0.061642
C32	C	0.344709	1.014883	0.561642
C33	C	-0.116299	0.574695	-0.000050
C34	C	0.383701	1.074695	0.499950
C35	C	-0.074386	0.469607	-0.061831
C36	C	0.425614	0.969607	0.438169
C37	C	-0.074369	0.469564	0.061650
C38	C	0.425631	0.969564	0.561650
C39	C	-0.035361	0.530595	-0.000086
C40	C	0.464639	1.030595	0.499914
C41	C	-0.111666	0.314787	-0.000065
C42	C	0.388334	0.814787	0.499935
C43	C	-0.117984	0.669694	-0.000049
C44	C	0.382016	1.169694	0.499951
C45	C	-0.268401	0.986088	-0.000070
C46	C	0.231599	1.486088	0.499930
C47	C	-0.361650	0.987731	-0.000082
C48	C	0.138350	1.487731	0.499918
C49	C	-0.597424	0.911809	-0.000055
C50	C	-0.097424	1.411809	0.499945
C51	C	-0.647997	0.952762	-0.061777
C52	C	-0.147997	1.452762	0.438223
C53	C	-0.532370	0.990775	-0.000065
C54	C	-0.032370	1.490775	0.499935
C55	C	-0.647947	0.952758	0.061649
C56	C	-0.147947	1.452758	0.561649
C57	C	-0.697279	0.993710	-0.000044
C58	C	-0.197279	1.493710	0.499956
C59	C	-0.581715	1.031707	-0.061838
C60	C	-0.081715	1.531707	0.438162
C61	C	-0.581662	1.031692	0.061644
C62	C	-0.081662	1.531692	0.561644
C63	C	-0.632203	1.072703	-0.000094
C64	C	-0.132203	1.572703	0.499906
C65	C	-0.437370	0.989082	-0.000077
C66	C	0.062630	1.489082	0.499923
C67	C	-0.792276	0.995409	-0.000038
C68	C	-0.292276	1.495409	0.499962
C69	C	0.038747	0.998400	-0.000033
C70	C	0.538747	1.498400	0.499967
C71	C	0.131995	0.996757	-0.000026
C72	C	0.631995	1.496757	0.499974
C73	C	-0.108675	1.145818	-0.000057
C74	C	0.391325	1.645818	0.499943
C75	C	-0.110320	1.239066	-0.000066
C76	C	0.389680	1.739066	0.499934
N77	N	-0.114817	0.992218	0.178105
N78	N	0.385183	1.492218	0.678105
N79	N	-0.114830	0.992277	-0.178206
N80	N	0.385170	1.492277	0.321794
C81	C	-0.057733	1.049350	0.217497
C82	C	0.442267	1.549350	0.717497
C83	C	-0.057729	1.049355	0.296298
C84	C	0.442271	1.549355	0.796298
C85	C	-0.114824	0.992236	0.335705
C86	C	0.385176	1.492236	0.835705
C87	C	-0.171913	0.935093	0.296304
C88	C	0.328087	1.435093	0.796304
C89	C	-0.171909	0.935084	0.217503
C90	C	0.328091	1.435084	0.717503
C91	C	-0.191326	0.981218	0.460534
C92	C	0.308674	1.481218	0.960534
C93	C	-0.191331	0.981233	0.539333
C94	C	0.308669	1.481233	1.039333
C95	C	-0.114834	0.992258	0.578751
C96	C	0.385166	1.492258	1.078751
C97	C	-0.038330	1.003286	0.539362
C98	C	0.461670	1.503286	1.039362
C99	C	-0.038326	1.003278	0.460561
C100	C	0.461674	1.503278	0.960561
C101	C	-0.114834	0.992238	0.421151
C102	C	0.385166	1.492238	0.921151
C103	C	-0.057741	1.049399	0.703589
C104	C	0.442259	1.549399	1.203589
C105	C	-0.057736	1.049398	0.782393
C106	C	0.442264	1.549398	1.282393
C107	C	-0.171927	0.935139	0.782396
C108	C	0.328073	1.435139	1.282396
C109	C	-0.171925	0.935136	0.703595
C110	C	0.328075	1.435136	1.203595
C111	C	-0.114832	0.992270	0.664196
C112	C	0.385168	1.492270	1.164196
H113	H	-0.261416	0.420527	-0.000131
H114	H	0.238584	0.920527	0.499869
H115	H	0.031847	0.563787	-0.000110
H116	H	0.531847	1.063787	0.499890
C117	C	-0.542791	1.076737	-0.132419
C118	C	-0.042791	1.576737	0.367581
N119	N	-0.513472	1.110649	-0.185582
N120	N	-0.013472	1.610649	0.314418
H121	H	-0.253625	0.972258	0.571398
H122	H	0.246375	1.472258	1.071398
C123	C	-0.687126	0.907723	-0.132272
C124	C	-0.187126	1.407723	0.367728
N125	N	-0.716596	0.873795	-0.185367
N126	N	-0.216596	1.373795	0.314633
H127	H	-0.647656	1.140775	-0.000128
H128	H	-0.147656	1.640775	0.499872
C129	C	-0.542508	1.076687	0.132143
C130	C	-0.042508	1.576687	0.632143
N131	N	-0.513015	1.110570	0.185250
N132	N	-0.013015	1.610570	0.685250
H133	H	-0.040173	0.449445	0.113841
H134	H	0.459827	0.949445	0.613841
C135	C	-0.201536	0.541979	0.132134
C136	C	0.298464	1.041979	0.632134
N137	N	-0.236373	0.562383	0.185226
N138	N	0.263627	1.062383	0.685226
H139	H	-0.676870	0.919384	0.113832
H140	H	-0.176870	1.419384	0.613832
H141	H	-0.040199	0.449645	-0.114070
H142	H	0.459801	0.949645	0.385930
H143	H	-0.189547	0.535020	-0.113969
H144	H	0.310453	1.035020	0.386031
C145	C	0.045824	1.015413	0.582716
C146	C	0.545824	1.515413	1.082716
N147	N	0.109206	1.024547	0.615375
N148	N	0.609206	1.524547	1.115375
H149	H	-0.011243	1.095870	0.185420
H150	H	0.488757	1.595870	0.685420
H151	H	-0.581809	0.843789	-0.000116
H152	H	-0.081809	1.343789	0.499884
H153	H	-0.011242	1.095880	0.328377
H154	H	0.488758	1.595880	0.828377
C155	C	0.045827	1.015397	0.417236
C156	C	0.545827	1.515397	0.917236
N157	N	0.109213	1.024521	0.384603
N158	N	0.609213	1.524521	0.884603
C159	C	0.005069	1.112239	0.660248
C160	C	0.505069	1.612239	1.160248
N161	N	0.052379	1.159569	0.627606
N162	N	0.552379	1.659569	1.127606
C163	C	0.005079	1.112237	0.825724
C164	C	0.505079	1.612237	1.325724
N165	N	0.052397	1.159565	0.858361
N166	N	0.552397	1.659565	1.358361
C167	C	-0.234733	0.872308	0.825739
C168	C	0.265267	1.372308	1.325739
N169	N	-0.282040	0.824981	0.858389
N170	N	0.217960	1.324981	1.358389
C171	C	-0.234784	0.872346	0.660262
C172	C	0.265216	1.372346	1.160262
N173	N	-0.282151	0.825069	0.627624
N174	N	0.217849	1.325069	1.127624
H175	H	-0.253623	0.972225	0.428446
H176	H	0.246377	1.472225	0.928446
C177	C	-0.234714	0.872258	0.339653
C178	C	0.265286	1.372258	0.839653
N179	N	-0.282015	0.824925	0.372303
N180	N	0.217985	1.324925	0.872303
H181	H	-0.218395	0.888559	0.185430
H182	H	0.281605	1.388559	0.685430
