data_functionalizedCrystal
_audit_creation_method	'MofGen! by Chris Wilmer'
_symmetry_space_group_name_H-M	'P1'
_symmetry_Int_Tables_number	1
_symmetry_cell_setting	triclinic
loop_
_symmetry_equiv_pos_as_xyz
  x,y,z
_cell_length_a	15.944551
_cell_length_b	14.044220
_cell_length_c	13.101039
_cell_angle_alpha	86.332523
_cell_angle_beta	86.646591
_cell_angle_gamma	91.656192
loop_
_atom_site_label
_atom_site_type_symbol
_atom_site_fract_x
_atom_site_fract_y
_atom_site_fract_z
O1	O	1.127901	-0.117026	-0.085109
O2	O	0.884482	-0.132096	-0.085135
O3	O	1.002537	0.013423	-0.085112
O4	O	1.009846	-0.262545	-0.085132
O5	O	0.994068	0.002965	0.085316
O6	O	0.876013	-0.142555	0.085293
O7	O	1.119432	-0.127484	0.085319
Zn8	Zn	0.996378	-0.136680	0.112365
Zn9	Zn	1.007536	-0.122901	-0.112181
O10	O	1.001377	-0.273003	0.085296
C11	C	0.848906	-0.136700	0.000076
C12	C	0.755520	-0.134823	0.000066
C13	C	0.995104	0.043509	0.000102
C14	C	0.985563	0.148735	0.000102
N15	N	0.988769	-0.146083	0.265612
C16	C	0.533573	-0.040140	0.000093
C17	C	0.480021	-0.078952	-0.083940
C18	C	0.584540	-0.131430	0.000079
C19	C	0.471695	-0.089285	0.084089
C20	C	0.419380	-0.128147	0.000095
C21	C	0.532221	-0.170263	-0.084024
C22	C	0.523897	-0.180587	0.084080
C23	C	0.470369	-0.219464	0.000027
C24	C	0.679684	-0.133319	0.000068
C25	C	0.324238	-0.126264	0.000098
C26	C	1.155008	-0.122881	0.000106
C27	C	1.248394	-0.124757	0.000109
C28	C	1.008810	-0.303089	0.000080
C29	C	1.018352	-0.408315	0.000073
C30	C	0.968120	0.341399	0.000085
C31	C	1.035791	0.399027	0.000090
C32	C	1.026085	0.506232	0.000080
C33	C	0.977824	0.234184	0.000095
N34	N	1.015152	-0.113490	-0.265428
C35	C	0.978417	-0.158885	0.474653
C36	C	1.025501	-0.100691	0.525538
C37	C	1.019741	-0.107814	0.641855
C38	C	0.984176	-0.151763	0.358325
H39	H	0.561238	0.035630	-0.000006
F40	F	0.434451	-0.318589	-0.000039
F41	F	0.882873	0.382145	0.000071
H42	H	1.070137	-0.045520	0.481744
H43	H	0.933784	-0.214053	0.518441
H44	H	1.101018	0.367856	0.000028
H45	H	0.558632	-0.204482	-0.155145
F46	F	0.454572	-0.022788	-0.176795
F47	F	0.549374	-0.236713	0.176938
F48	F	0.437047	-0.044494	0.176946
