data_functionalizedCrystal
_audit_creation_method	'MofGen! by Chris Wilmer'
_symmetry_space_group_name_H-M	'P1'
_symmetry_Int_Tables_number	1
_symmetry_cell_setting	triclinic
loop_
_symmetry_equiv_pos_as_xyz
  x,y,z
_cell_length_a	15.995350
_cell_length_b	23.532357
_cell_length_c	15.072220
_cell_angle_alpha	89.993295
_cell_angle_beta	89.991149
_cell_angle_gamma	83.160334
loop_
_atom_site_label
_atom_site_type_symbol
_atom_site_fract_x
_atom_site_fract_y
_atom_site_fract_z
O1	O	1.110366	0.073406	-0.073718
O2	O	0.866513	0.082471	-0.073738
O3	O	0.995815	-0.004967	-0.073709
O4	O	0.981064	0.160843	-0.073747
O5	O	0.995783	-0.004962	0.073856
O6	O	0.866481	0.082476	0.073827
O7	O	1.110334	0.073410	0.073847
Zn8	Zn	0.988403	0.077944	0.097266
Zn9	Zn	0.988444	0.077937	-0.097157
O10	O	0.981032	0.160848	0.073818
C11	C	0.835305	0.082098	0.000042
C12	C	0.742365	0.080975	0.000036
C13	C	0.404652	0.076940	0.000055
C14	C	0.452620	0.014668	0.000398
C15	C	0.549301	0.015792	0.000059
C16	C	0.572195	0.078941	0.000046
C17	C	0.530863	0.109653	-0.084224
C18	C	0.434240	0.108089	-0.084288
C19	C	0.433854	0.109381	0.083520
C20	C	0.530800	0.109366	0.084628
C21	C	0.666883	0.080076	0.000038
C22	C	0.309964	0.075807	0.000057
C23	C	0.995430	-0.026183	0.000076
C24	C	0.994321	-0.089406	0.000084
C25	C	0.987374	-0.481446	-0.080402
C26	C	0.986319	-0.540850	-0.080407
O27	O	0.985760	-0.571571	-0.148816
N28	N	0.985779	-0.570560	0.000029
C29	C	0.986285	-0.540864	0.080476
O30	O	0.985728	-0.571589	0.148894
C31	C	0.987333	-0.481461	0.080481
C32	C	0.987882	-0.451754	0.000039
C33	C	0.987922	-0.451740	-0.160837
C34	C	0.988978	-0.392340	-0.160832
C35	C	0.989486	-0.362648	-0.080391
C36	C	0.988938	-0.392355	0.000044
C37	C	0.987833	-0.451764	0.160927
C38	C	0.988881	-0.392357	0.160924
C39	C	0.989430	-0.362651	0.080482
C40	C	0.990502	-0.303263	0.080491
N41	N	0.991043	-0.273553	0.000054
C42	C	0.990534	-0.303245	-0.080387
C43	C	0.984082	-0.665614	0.080461
C44	C	0.983039	-0.725016	0.080458
C45	C	0.983072	-0.724998	-0.080426
C46	C	0.984121	-0.665595	-0.080422
C47	C	0.984622	-0.635903	0.000025
C48	C	0.992753	-0.178502	-0.080369
C49	C	0.993812	-0.119098	-0.080357
C50	C	0.993775	-0.119121	0.080527
C51	C	0.992720	-0.178520	0.080515
C52	C	0.992206	-0.208209	0.000059
O53	O	0.991059	-0.272504	0.148865
O54	O	0.991081	-0.272511	-0.148792
C55	C	1.141542	0.073783	0.000064
C56	C	1.234482	0.074906	0.000065
C57	C	0.981417	0.182064	0.000031
C58	C	0.982527	0.245287	0.000017
N59	N	0.988380	0.077948	0.229955
N60	N	0.988474	0.077929	-0.229846
C61	C	0.988443	0.077935	0.589156
C62	C	0.919026	0.124564	0.551534
C63	C	0.919183	0.124735	0.448708
C64	C	0.988411	0.077941	0.410952
C65	C	1.075664	0.090920	0.448247
C66	C	1.075275	0.091252	0.551105
C67	C	0.971386	0.018189	0.551269
C68	C	0.969378	0.018587	0.448405
C69	C	0.988398	0.077944	0.310239
C70	C	0.988461	0.077934	0.689870
H71	H	0.559434	0.088318	-0.146931
H72	H	0.853942	0.116959	0.576292
H73	H	0.558295	0.086947	0.146971
H74	H	0.982605	-0.749199	0.145962
H75	H	0.401600	0.153807	-0.088122
H76	H	0.987505	-0.475909	-0.226346
H77	H	0.929713	0.168652	0.577364
H78	H	0.989421	-0.368158	-0.226336
H79	H	0.930022	0.169072	0.424085
H80	H	0.982656	-0.749184	-0.145925
H81	H	1.128532	0.057861	0.423789
H82	H	0.984566	-0.641412	-0.145925
H83	H	1.090383	0.134824	0.575078
H84	H	0.577924	-0.008349	0.060468
H85	H	1.128516	0.058628	0.575991
H86	H	0.545769	0.155417	0.089708
H87	H	0.413480	0.089025	0.147395
H88	H	0.994192	-0.094935	0.146020
H89	H	0.401699	0.155293	0.084080
H90	H	0.854310	0.117002	0.423494
H91	H	1.091147	0.133996	0.422469
H92	H	0.909170	0.005708	0.577257
H93	H	0.544590	0.156047	-0.087368
H94	H	0.905196	0.008737	0.424030
H95	H	1.022014	-0.016512	0.575598
H96	H	0.994261	-0.094914	-0.145865
H97	H	0.992330	-0.202668	-0.145884
H98	H	0.984492	-0.641442	0.145975
H99	H	1.016692	-0.017738	0.422708
H100	H	0.434299	-0.010221	0.060833
H101	H	0.433252	-0.010111	-0.059691
H102	H	0.989277	-0.368184	0.226435
H103	H	0.577380	-0.008516	-0.060444
H104	H	0.987388	-0.475942	0.226431
H105	H	0.416138	0.085688	-0.147273
H106	H	0.992281	-0.202709	0.146017
