data_functionalizedCrystal
_audit_creation_method	'MofGen! by Chris Wilmer'
_symmetry_space_group_name_H-M	'P1'
_symmetry_Int_Tables_number	1
_symmetry_cell_setting	triclinic
loop_
_symmetry_equiv_pos_as_xyz
  x,y,z
_cell_length_a	21.395364
_cell_length_b	16.625545
_cell_length_c	21.395355
_cell_angle_alpha	89.986153
_cell_angle_beta	90.024727
_cell_angle_gamma	89.974717
loop_
_atom_site_label
_atom_site_type_symbol
_atom_site_fract_x
_atom_site_fract_y
_atom_site_fract_z
Zn1	Zn	0.957875	0.321131	0.354285
Zn2	Zn	0.957785	0.455946	0.249516
Zn3	Zn	0.853090	0.321127	0.249521
Zn4	Zn	0.853066	0.455921	0.354256
O5	O	0.905454	0.388531	0.301894
O6	O	1.045541	0.339026	0.340397
O7	O	0.943869	0.438071	0.161839
O8	O	0.867038	0.208295	0.263433
O9	O	1.045475	0.438074	0.263423
O10	O	0.944023	0.208298	0.340402
O11	O	0.866950	0.339020	0.161842
O12	O	0.765409	0.338996	0.263404
O13	O	0.866997	0.438032	0.441937
O14	O	0.765392	0.438029	0.340352
O15	O	0.944000	0.339002	0.441959
O16	O	0.943846	0.568775	0.263395
O17	O	0.866910	0.568757	0.340347
C18	C	0.742667	0.388510	0.301876
C19	C	0.673025	0.388520	0.301883
C20	C	0.171236	0.440192	0.341922
C21	C	0.236672	0.440192	0.341916
C22	C	0.269387	0.388549	0.301914
C23	C	0.236661	0.336916	0.261905
C24	C	0.171227	0.336923	0.261908
C25	C	0.373072	0.315884	0.297058
C26	C	0.438505	0.315876	0.297059
C27	C	0.471208	0.388528	0.301900
C28	C	0.438469	0.461190	0.306753
C29	C	0.373035	0.461197	0.306757
C30	C	0.340339	0.388536	0.301906
C31	C	0.574878	0.440161	0.341897
C32	C	0.640315	0.440163	0.341886
C33	C	0.640303	0.336880	0.261878
C34	C	0.574868	0.336885	0.261886
C35	C	0.542159	0.388525	0.301899
C36	C	0.905382	0.598022	0.301881
C37	C	0.905409	0.687643	0.301897
C38	C	0.905432	0.760426	0.301911
C39	C	0.905466	0.851734	0.301928
C40	C	0.905498	0.924511	0.301938
C41	C	0.905532	1.015825	0.301954
C42	C	1.068877	0.388554	0.301913
C43	C	1.138519	0.388563	0.301921
C44	C	0.905506	0.388515	0.465318
C45	C	0.905528	0.388508	0.534959
C46	C	0.905539	1.178222	0.301929
C47	C	0.905563	1.088601	0.301964
C48	C	0.905438	0.388489	0.139107
C49	C	0.905538	0.388269	0.069466
C50	C	0.945622	0.336941	0.567684
C51	C	0.945621	0.336906	0.633120
C52	C	0.905533	0.388453	0.665827
C53	C	0.865432	0.440024	0.633094
C54	C	0.865429	0.440051	0.567660
C55	C	0.900561	0.461054	0.769497
C56	C	0.900568	0.461027	0.834930
C57	C	0.905537	0.388368	0.867648
C58	C	0.910513	0.315732	0.834925
C59	C	0.910510	0.315760	0.769491
C60	C	0.905531	0.388429	0.736780
C61	C	0.945632	0.336759	0.971326
C62	C	0.945627	0.336723	1.036763
C63	C	0.865441	0.439848	1.036736
C64	C	0.865443	0.439876	0.971300
C65	C	0.905542	0.388333	0.938599
H66	H	0.548229	0.294841	0.229314
O67	O	0.268411	0.286837	0.222957
C68	C	0.252377	0.304337	0.160490
H69	H	0.234369	0.368747	0.157246
H70	H	0.214400	0.261082	0.144167
C71	C	0.332606	0.215766	0.122669
C72	C	0.310493	0.294878	0.118685
H73	H	0.368453	0.209928	0.096880
H74	H	0.343407	0.203973	0.164754
H75	H	0.300953	0.179730	0.109068
H76	H	0.342142	0.330912	0.132293
H77	H	0.299698	0.306677	0.076600
H78	H	0.832778	0.482042	0.541015
H79	H	0.832790	0.481991	0.659729
O80	O	0.470131	0.531840	0.311484
C81	C	0.427205	0.595973	0.315750
H82	H	0.380579	0.572505	0.333946
H83	H	0.420209	0.623813	0.267550
C84	C	0.510016	0.688943	0.338590
C85	C	0.452751	0.660121	0.360944
H86	H	0.525774	0.728515	0.366466
H87	H	0.538937	0.645737	0.335714
H88	H	0.504179	0.712138	0.298424
H89	H	0.458590	0.636917	0.401106
H90	H	0.423831	0.703325	0.363828
H91	H	0.548245	0.482210	0.374477
H92	H	0.896520	0.520172	0.861569
H93	H	0.978279	0.294785	0.944699
O94	O	0.915249	0.245248	0.737635
C95	C	0.861903	0.234868	0.699778
H96	H	0.839710	0.295934	0.689975
H97	H	0.826801	0.194775	0.724980
C98	C	0.908285	0.120198	0.649665
C99	C	0.881031	0.195201	0.637620
H100	H	0.920082	0.095726	0.611324
H101	H	0.944224	0.127189	0.675171
H102	H	0.879029	0.086797	0.670668
H103	H	0.910289	0.228604	0.616624
H104	H	0.845097	0.188215	0.612108
O105	O	0.672128	0.490402	0.380657
C106	C	0.709956	0.542403	0.344921
H107	H	0.690210	0.547305	0.295570
H108	H	0.759553	0.517464	0.342787
C109	C	0.735208	0.620254	0.436046
C110	C	0.710952	0.626280	0.375433
H111	H	0.735825	0.671992	0.454868
H112	H	0.709724	0.585218	0.460122
H113	H	0.776537	0.599468	0.434259
H114	H	0.669621	0.647056	0.377221
H115	H	0.736429	0.661321	0.351357
O116	O	0.139561	0.490440	0.380801
C117	C	0.182476	0.535998	0.416115
H118	H	0.229109	0.538729	0.390448
H119	H	0.189462	0.506564	0.463741
C120	C	0.099651	0.618484	0.456552
C121	C	0.156924	0.621843	0.425025
H122	H	0.083888	0.671436	0.462051
H123	H	0.070738	0.587789	0.432762
H124	H	0.105480	0.593952	0.496237
H125	H	0.151093	0.646365	0.385338
H126	H	0.185836	0.652544	0.448808
O127	O	0.139420	0.286887	0.222975
C128	C	0.101530	0.332731	0.182463
H129	H	0.121228	0.396228	0.178523
H130	H	0.051944	0.335541	0.201828
C131	C	0.076321	0.215249	0.122212
C132	C	0.100517	0.293236	0.117369
H133	H	0.075693	0.190886	0.082059
H134	H	0.101846	0.184362	0.149507
H135	H	0.035002	0.217602	0.138352
H136	H	0.141838	0.290882	0.101237
H137	H	0.074999	0.324123	0.090070
O138	O	0.672143	0.286825	0.222988
C139	C	0.709946	0.332654	0.182447
H140	H	0.719743	0.393798	0.204465
H141	H	0.684701	0.341431	0.136007
C142	C	0.760076	0.213167	0.144111
C143	C	0.772113	0.288262	0.171156
H144	H	0.798422	0.185783	0.137143
H145	H	0.734605	0.182290	0.171422
H146	H	0.739037	0.220491	0.105413
H147	H	0.793144	0.280936	0.209856
H148	H	0.797588	0.319137	0.143851
H149	H	0.465156	0.256709	0.293115
H150	H	0.346451	0.256719	0.293106
O151	O	0.268533	0.490231	0.380808
C152	C	0.306401	0.444383	0.421338
H153	H	0.316204	0.383239	0.399312
H154	H	0.281209	0.435607	0.467782
C155	C	0.356513	0.563848	0.459677
C156	C	0.368558	0.488753	0.432622
H157	H	0.394853	0.591218	0.466640
H158	H	0.330999	0.594738	0.432373
H159	H	0.335518	0.556524	0.498377
H160	H	0.389545	0.496078	0.393919
H161	H	0.394077	0.457865	0.459919
H162	H	0.978273	0.294969	0.541063
H163	H	0.978275	0.294726	1.063406
H164	H	0.978269	0.294910	0.659770
H165	H	0.832794	0.481810	1.063366
H166	H	0.346382	0.520362	0.310707
O167	O	0.826435	0.489860	0.939478
C168	C	0.785996	0.443966	0.901597
H169	H	0.782152	0.380453	0.921311
H170	H	0.805370	0.441210	0.852014
C171	C	0.725568	0.561358	0.876351
C172	C	0.720842	0.483352	0.900568
H173	H	0.685378	0.585655	0.875714
H174	H	0.752813	0.592279	0.901871
H175	H	0.741715	0.559051	0.835034
H176	H	0.704703	0.485661	0.941887
H177	H	0.693592	0.452432	0.875055
O178	O	0.915219	0.245148	0.866721
C179	C	0.861886	0.234751	0.904551
H180	H	0.821587	0.271771	0.884816
H181	H	0.872672	0.255601	0.954152
C182	C	0.892989	0.099752	0.929766
C183	C	0.843492	0.145215	0.905525
H184	H	0.881644	0.044522	0.930370
H185	H	0.928922	0.106757	0.904282
H186	H	0.901973	0.117136	0.971099
H187	H	0.834515	0.127837	0.864191
H188	H	0.807558	0.138205	0.931003
H189	H	0.896347	0.520207	0.742864
