data_functionalizedCrystal
_audit_creation_method	'MofGen! by Chris Wilmer'
_symmetry_space_group_name_H-M	'P1'
_symmetry_Int_Tables_number	1
_symmetry_cell_setting	triclinic
loop_
_symmetry_equiv_pos_as_xyz
  x,y,z
_cell_length_a	13.262390
_cell_length_b	10.540514
_cell_length_c	12.376457
_cell_angle_alpha	101.393507
_cell_angle_beta	63.168449
_cell_angle_gamma	84.473428
loop_
_atom_site_label
_atom_site_type_symbol
_atom_site_fract_x
_atom_site_fract_y
_atom_site_fract_z
O1	O	1.512615	0.026915	-0.559071
O2	O	1.185842	0.071396	-0.458602
O3	O	1.356699	-0.136185	-0.511135
O4	O	1.341758	0.234496	-0.506538
O5	O	1.313999	-0.084357	-0.309994
O6	O	1.143142	0.123224	-0.257461
O7	O	1.469916	0.078743	-0.357931
Zn8	Zn	1.299749	0.109212	-0.275760
Zn9	Zn	1.356008	0.040927	-0.540772
O10	O	1.299059	0.286324	-0.305398
C11	C	1.122649	0.099584	-0.345167
C12	C	0.997971	0.106342	-0.306834
C13	C	1.334235	-0.157481	-0.410225
C14	C	1.330903	-0.298151	-0.409209
C15	C	0.739638	0.012365	-0.637365
C16	C	0.856780	0.006008	-0.673383
C17	C	0.892084	0.031091	-0.581749
C18	C	0.810233	0.062531	-0.454090
C19	C	0.693080	0.068878	-0.418069
C20	C	0.845526	0.087605	-0.362453
C21	C	0.763676	0.119045	-0.234794
C22	C	0.646535	0.125392	-0.198779
C23	C	0.611231	0.100308	-0.290414
C24	C	0.962679	0.081258	-0.398474
C25	C	0.916122	0.137772	-0.179178
C26	C	0.798979	0.144128	-0.143160
C27	C	1.453097	-0.379186	-0.446776
C28	C	1.449571	-0.525390	-0.445257
C29	C	1.240110	-0.455327	-0.274129
C30	C	1.244384	-0.309128	-0.275361
C31	C	1.291135	-0.367517	-0.503548
C32	C	1.290274	-0.514782	-0.504684
C33	C	1.533109	0.050555	-0.471368
C34	C	1.657789	0.043795	-0.509710
C35	C	1.321523	0.307619	-0.406310
C36	C	1.324856	0.448287	-0.407334
N37	N	1.261363	0.155814	-0.094899
N38	N	1.394403	-0.005685	-0.721636
C39	C	1.483511	-0.113888	0.191782
C40	C	1.510371	-0.146504	0.065184
C41	C	1.448121	-0.070927	0.025156
C42	C	1.359006	0.037271	0.111741
C43	C	1.332149	0.069897	0.238350
C44	C	1.296760	0.112857	0.071724
C45	C	1.207645	0.221056	0.158308
C46	C	1.180792	0.253676	0.284905
C47	C	1.243042	0.178099	0.324932
C48	C	1.323617	0.080231	-0.054885
C49	C	1.172255	0.264016	-0.008317
C50	C	1.145395	0.296632	0.118281
H51	H	1.029311	0.055662	-0.502414
Br52	Br	1.484574	-0.115194	-0.146659
H53	H	1.153586	-0.252274	-0.242875
H54	H	1.582928	-0.234597	-0.005309
H55	H	1.221169	0.204651	0.428019
H56	H	1.520111	-0.376037	-0.544218
Br57	Br	1.059868	0.400533	0.402410
H58	H	1.396175	-0.007864	-0.125372
Br59	Br	0.452244	0.108949	-0.241535
Br60	Br	1.024454	0.443468	0.235799
H61	H	0.944864	0.158195	-0.104562
Br62	Br	1.087775	0.366598	-0.062632
H63	H	1.484563	-0.331866	-0.379782
Br64	Br	0.967856	-0.036668	-0.846626
H65	H	0.987468	0.025915	-0.611082
H66	H	0.710882	-0.008067	-0.711960
H67	H	1.263379	-0.479323	-0.201238
Br68	Br	0.535454	0.168050	-0.025529
Br69	Br	0.687885	0.186799	0.030086
Br70	Br	1.287483	-0.231349	-0.154601
Br71	Br	1.557829	-0.638496	-0.606533
Br72	Br	1.499183	-0.566123	-0.331735
H73	H	1.147603	-0.468877	-0.242005
H74	H	1.350260	-0.361855	-0.602968
H75	H	1.200846	-0.533159	-0.483982
Br76	Br	1.393861	-0.625755	-0.668661
H77	H	1.201231	-0.312938	-0.476931
Br78	Br	1.567998	-0.216432	0.246102
