data_functionalizedCrystal
_audit_creation_method	'MofGen! by Chris Wilmer'
_symmetry_space_group_name_H-M	'P1'
_symmetry_Int_Tables_number	1
_symmetry_cell_setting	triclinic
loop_
_symmetry_equiv_pos_as_xyz
  x,y,z
_cell_length_a	15.538191
_cell_length_b	27.731996
_cell_length_c	14.750779
_cell_angle_alpha	77.461457
_cell_angle_beta	97.572172
_cell_angle_gamma	64.946741
loop_
_atom_site_label
_atom_site_type_symbol
_atom_site_fract_x
_atom_site_fract_y
_atom_site_fract_z
O1	O	1.231607	-0.143297	-0.079807
O2	O	0.956510	-0.087336	-0.079818
O3	O	1.102633	-0.187190	-0.079791
O4	O	1.085483	-0.043443	-0.079833
O5	O	1.143940	-0.215415	0.079867
O6	O	0.997817	-0.115561	0.079840
O7	O	1.272914	-0.171523	0.079851
Zn8	Zn	1.141924	-0.148023	0.105195
Zn9	Zn	1.087500	-0.110835	-0.105161
O10	O	1.126790	-0.071669	0.079824
C11	C	0.941980	-0.095593	0.000010
C12	C	0.837145	-0.078153	0.000007
C13	C	0.551949	-0.251418	0.000042
C14	C	0.453437	-0.235018	0.000037
C15	C	0.429611	-0.142770	0.000010
C16	C	0.528124	-0.159163	0.000020
C17	C	0.589286	-0.213488	0.000035
C18	C	0.565461	-0.121233	0.000013
C19	C	0.663964	-0.137625	0.000018
C20	C	0.725131	-0.191947	0.000031
C21	C	0.687789	-0.229880	0.000041
C22	C	0.504296	-0.066907	-0.000009
C23	C	0.541632	-0.028977	-0.000016
C24	C	0.640139	-0.045370	-0.000004
C25	C	0.701306	-0.099691	0.000008
C26	C	0.677481	-0.007436	-0.000014
C27	C	0.775984	-0.023828	-0.000009
C28	C	0.799809	-0.116083	0.000014
C29	C	1.122935	-0.219250	0.000041
C30	C	1.121878	-0.272726	0.000051
C31	C	1.092677	-0.588903	-0.087026
C32	C	1.088645	-0.789867	-0.087043
O33	O	1.068935	-0.802756	-0.161059
N34	N	1.110662	-0.830384	-0.000014
C35	C	1.133681	-0.820656	0.087025
O36	O	1.152305	-0.859727	0.161048
C37	C	1.137705	-0.619691	0.087041
C38	C	1.115697	-0.579178	0.000006
C39	C	1.070670	-0.548391	-0.174053
C40	C	1.071683	-0.498155	-0.174048
C41	C	1.094703	-0.488430	-0.087016
C42	C	1.116711	-0.528942	0.000012
C43	C	1.160718	-0.609962	0.174079
C44	C	1.161720	-0.559716	0.174075
C45	C	1.139711	-0.519203	0.087041
C46	C	1.140744	-0.468980	0.087049
N47	N	1.118728	-0.428464	0.000020
C48	C	1.095708	-0.438188	-0.087012
C49	C	1.131569	-0.926165	0.087010
C50	C	1.130564	-0.976406	0.087006
C51	C	1.085527	-0.945613	-0.087062
C52	C	1.086538	-0.895373	-0.087057
C53	C	1.109552	-0.885648	-0.000018
C54	C	1.097838	-0.332689	-0.086995
C55	C	1.098857	-0.282450	-0.086982
C56	C	1.143889	-0.313246	0.087086
C57	C	1.142875	-0.363482	0.087074
C58	C	1.119844	-0.373200	0.000026
O59	O	1.160435	-0.456050	0.161026
O60	O	1.077066	-0.399106	-0.161024
C61	C	1.091664	-0.639140	-0.087031
C62	C	1.113671	-0.679651	-0.000004
C63	C	1.136691	-0.669927	0.087029
C64	C	1.112667	-0.729893	-0.000008
C65	C	1.089646	-0.739618	-0.087040
C66	C	1.067630	-0.699101	-0.174069
C67	C	1.068643	-0.648864	-0.174064
C68	C	1.158708	-0.710443	0.174057
C69	C	1.157694	-0.760679	0.174045
C70	C	1.134673	-0.770404	0.087013
C71	C	1.287443	-0.163265	0.000021
C72	C	1.392276	-0.180704	0.000018
C73	C	1.106488	-0.039608	-0.000010
C74	C	1.107544	0.013869	-0.000026
N75	N	1.179074	-0.173404	0.248757
N76	N	1.050357	-0.085459	-0.248724
C77	C	0.946603	-0.014594	0.600533
C78	C	0.972642	-0.032378	0.701037
C79	C	1.102061	-0.120779	0.701023
C80	C	1.076029	-0.103004	0.600517
C81	C	0.998301	-0.049911	0.550280
C82	C	1.127727	-0.138320	0.550264
C83	C	1.101700	-0.120545	0.449767
C84	C	1.023977	-0.067454	0.399523
C85	C	0.972274	-0.032136	0.449783
C86	C	1.205460	-0.191411	0.600503
C87	C	1.257157	-0.226728	0.550250
C88	C	1.231126	-0.208955	0.449751
C89	C	1.153403	-0.155863	0.399507
C90	C	1.282829	-0.244272	0.399491
C91	C	1.256802	-0.226497	0.298994
C92	C	1.127376	-0.138088	0.299010
H93	H	0.805335	-0.205289	0.000022
F94	F	1.184786	-0.177282	0.754497
F95	F	0.863866	0.041911	0.547064
H96	H	0.930538	-0.003614	0.741948
H97	H	0.849612	-0.160321	0.000032
H98	H	1.320447	-0.269956	0.591165
H99	H	0.424088	-0.053563	-0.000016
H100	H	1.048890	-0.707028	-0.244934
H101	H	0.423043	-0.265909	0.000041
F102	F	1.233159	-0.210325	0.707463
H103	H	1.346122	-0.287499	0.440408
F104	F	1.311828	-0.264085	0.245511
F105	F	0.752891	-0.287701	0.000068
F106	F	1.168390	-0.302887	0.179707
F107	F	1.156060	-0.915822	0.179655
F108	F	1.044639	-0.081582	0.245541
F109	F	0.617051	-0.309239	0.000069
H110	H	1.050721	-0.615882	-0.244936
F111	F	0.364508	-0.084954	-0.000012
F112	F	1.181126	-0.803794	0.266686
H113	H	0.491821	0.015255	-0.000032
H114	H	0.627666	0.036796	-0.000036
F115	F	0.815722	0.016542	-0.000018
F116	F	1.075435	-0.239336	-0.179620
F117	F	1.046165	-0.558731	-0.266693
F118	F	1.073326	-0.343024	-0.179641
H119	H	1.002790	-0.052981	0.317692
H120	H	1.180447	-0.551799	0.244954
H121	H	1.066784	-0.953539	-0.157927
F122	F	1.048252	-0.455041	-0.266683
F123	F	1.063113	-0.852259	-0.179690
F124	F	1.154005	-1.019523	0.179640
H125	H	1.178641	-0.642941	0.244952
F126	F	0.889537	0.024370	0.396314
H127	H	1.160805	-0.396472	0.157944
H128	H	1.177456	-0.702533	0.244931
