data_functionalizedCrystal
_audit_creation_method	'MofGen! by Chris Wilmer'
_symmetry_space_group_name_H-M	'P1'
_symmetry_Int_Tables_number	1
_symmetry_cell_setting	triclinic
loop_
_symmetry_equiv_pos_as_xyz
  x,y,z
_cell_length_a	10.489741
_cell_length_b	16.992695
_cell_length_c	15.455438
_cell_angle_alpha	87.143447
_cell_angle_beta	92.695105
_cell_angle_gamma	87.603698
loop_
_atom_site_label
_atom_site_type_symbol
_atom_site_fract_x
_atom_site_fract_y
_atom_site_fract_z
O1	O	-1.698456	-0.114085	0.072077
O2	O	-1.328164	-0.124475	0.072091
O3	O	-1.511826	-0.005129	0.072077
O4	O	-1.514794	-0.233431	0.072091
O5	O	-1.522270	0.001673	-0.072183
O6	O	-1.338608	-0.117674	-0.072169
O7	O	-1.708901	-0.107283	-0.072183
Cu8	Cu	-1.524708	-0.111858	-0.085348
Cu9	Cu	-1.512356	-0.119901	0.085256
O10	O	-1.525238	-0.226630	-0.072169
C11	C	-1.285786	-0.120290	-0.000038
C12	C	-1.143952	-0.117942	-0.000033
C13	C	-1.513229	0.027506	-0.000053
C14	C	-1.501834	0.114615	-0.000052
C15	C	-1.751278	-0.111469	-0.000053
C16	C	-1.893112	-0.113816	-0.000052
C17	C	-1.069206	-0.042005	-0.000045
C18	C	-0.975051	-0.081230	0.071083
C19	C	-0.985383	-0.074543	-0.071146
C20	C	-1.051660	-0.157201	0.071154
C21	C	-1.062006	-0.150500	-0.071139
C22	C	-0.967881	-0.189781	0.000007
C23	C	-1.523835	-0.259265	-0.000038
C24	C	-1.535230	-0.346374	-0.000033
N25	N	-1.533404	-0.106200	-0.205342
C26	C	-1.611783	0.164235	-0.000057
C27	C	-1.601068	0.246081	-0.000048
C28	C	-1.480402	0.278307	-0.000041
C29	C	-1.370444	0.228680	-0.000033
C30	C	-1.381160	0.146835	-0.000036
C31	C	-1.435988	0.522155	-0.000027
C32	C	-1.425280	0.604007	-0.000028
C33	C	-1.655905	0.621402	-0.000041
C34	C	-1.666611	0.539554	-0.000049
C35	C	-1.556653	0.489935	-0.000036
N36	N	-1.469447	0.361967	-0.000035
N37	N	-1.567609	0.406276	-0.000036
C38	C	-1.455361	-0.156883	-0.250752
C39	C	-1.461974	-0.152601	-0.341558
C40	C	-1.546625	-0.097632	-0.386953
C41	C	-1.624677	-0.046947	-0.341537
C42	C	-1.618069	-0.051233	-0.250733
C43	C	-1.575114	-0.079153	-0.658529
C44	C	-1.581713	-0.074869	-0.749341
C45	C	-1.419011	-0.180525	-0.749355
C46	C	-1.412406	-0.184803	-0.658548
C47	C	-1.490462	-0.134121	-0.613140
N48	N	-1.553383	-0.093253	-0.479772
N49	N	-1.483710	-0.138504	-0.520323
N50	N	-1.503669	-0.125552	0.205250
H51	H	-0.936888	-0.051935	0.131214
C52	C	-0.908440	-0.274198	0.000062
H53	H	-0.931065	-0.303425	0.050637
H54	H	-0.939471	-0.299016	-0.049982
H55	H	-0.818099	-0.272229	-0.000413
H56	H	-1.638669	-0.037884	-0.621565
H57	H	-1.398426	-0.193872	-0.378530
C58	C	-1.292541	0.639452	-0.000005
H59	H	-1.228587	0.598179	0.000013
H60	H	-1.287196	0.673395	-0.050308
H61	H	-1.279947	0.668642	0.050311
H62	H	-1.100198	-0.179769	-0.131273
C63	C	-1.717789	0.013518	-0.391470
H64	H	-1.710538	0.008819	-0.452054
H65	H	-1.802747	0.003785	-0.376579
H66	H	-1.697503	0.065263	-0.376588
H67	H	-0.955962	-0.039564	-0.131280
C68	C	-1.744517	0.128794	-0.000065
H69	H	-1.808462	0.170070	-0.000059
H70	H	-1.757137	0.099602	-0.050372
H71	H	-1.749847	0.094853	0.050248
C72	C	-1.315042	0.467581	-0.000014
H73	H	-1.338696	0.414219	-0.000004
H74	H	-1.269541	0.479791	-0.050315
H75	H	-1.262276	0.475051	0.050304
H76	H	-1.690601	0.286479	-0.000054
H77	H	-1.681622	-0.009963	-0.213761
C78	C	-1.237715	0.264127	-0.000028
H79	H	-1.247078	0.319978	-0.000037
H80	H	-1.188446	0.244766	0.050279
H81	H	-1.195740	0.249512	-0.050340
H82	H	-1.764870	0.513323	-0.000055
H83	H	-1.291627	0.106435	-0.000032
H84	H	-1.745427	0.661810	-0.000049
C85	C	-1.362247	-0.217351	-0.200825
H86	H	-1.316725	-0.246927	-0.240878
H87	H	-1.303669	-0.190484	-0.165408
H88	H	-1.408915	-0.251960	-0.165398
H89	H	-1.080922	-0.192145	0.131355
H90	H	-1.343476	-0.229563	-0.621589
H91	H	-1.650649	-0.030104	-0.786297
C92	C	-1.128979	0.042320	0.000059
H93	H	-1.099168	0.066783	0.050663
H94	H	-1.105293	0.071943	-0.049955
H95	H	-1.219372	0.040248	-0.000444
C96	C	-1.333169	-0.236277	-0.799305
H97	H	-1.349232	-0.225859	-0.859887
H98	H	-1.246045	-0.227951	-0.784436
H99	H	-1.351293	-0.289426	-0.784418
