data_functionalizedCrystal
_audit_creation_method	'MofGen! by Chris Wilmer'
_symmetry_space_group_name_H-M	'P1'
_symmetry_Int_Tables_number	1
_symmetry_cell_setting	triclinic
loop_
_symmetry_equiv_pos_as_xyz
  x,y,z
_cell_length_a	15.624803
_cell_length_b	14.044190
_cell_length_c	14.750779
_cell_angle_alpha	76.178157
_cell_angle_beta	85.131014
_cell_angle_gamma	88.485257
loop_
_atom_site_label
_atom_site_type_symbol
_atom_site_fract_x
_atom_site_fract_y
_atom_site_fract_z
O1	O	1.102197	0.242994	-0.463618
O2	O	1.602197	0.742994	0.036382
O3	O	0.859829	0.236039	-0.379230
O4	O	1.359829	0.736039	0.120770
O5	O	0.977376	0.101196	-0.420139
O6	O	1.477376	0.601196	0.079861
O7	O	0.984650	0.377837	-0.422709
O8	O	1.484650	0.877837	0.077291
O9	O	1.010605	0.063082	-0.272053
O10	O	1.510605	0.563082	0.227947
O11	O	0.893058	0.197925	-0.231144
O12	O	1.393058	0.697925	0.268856
O13	O	1.135426	0.204880	-0.315532
O14	O	1.635426	0.704880	0.184468
Zn15	Zn	1.019518	0.195351	-0.249827
Zn16	Zn	1.519518	0.695351	0.250173
Zn17	Zn	0.975737	0.245568	-0.444936
Zn18	Zn	1.475737	0.745568	0.055064
O19	O	1.017879	0.339723	-0.274624
O20	O	1.517879	0.839723	0.225376
C21	C	0.845238	0.213520	-0.294322
C22	C	1.345238	0.713520	0.205678
C23	C	0.752255	0.203194	-0.261946
C24	C	1.252255	0.703194	0.238054
C25	C	0.355950	0.273081	-0.559162
C26	C	0.855950	0.773081	-0.059162
C27	C	0.268580	0.263358	-0.528739
C28	C	0.768580	0.763358	-0.028739
C29	C	0.304784	0.221805	-0.367295
C30	C	0.804784	0.721805	0.132705
C31	C	0.392159	0.231520	-0.397704
C32	C	0.892159	0.731520	0.102296
C33	C	0.417735	0.257159	-0.493639
C34	C	0.917735	0.757159	0.006361
C35	C	0.453944	0.215598	-0.332181
C36	C	0.953944	0.715598	0.167819
C37	C	0.541311	0.225317	-0.362589
C38	C	1.041311	0.725317	0.137411
C39	C	0.566894	0.250958	-0.458520
C40	C	1.066894	0.750958	0.041480
C41	C	0.505102	0.266878	-0.524047
C42	C	1.005102	0.766878	-0.024047
C43	C	0.428367	0.189966	-0.236247
C44	C	0.928367	0.689966	0.263753
C45	C	0.490151	0.174044	-0.170724
C46	C	0.990151	0.674044	0.329276
C47	C	0.577521	0.183756	-0.201131
C48	C	1.077521	0.683756	0.298869
C49	C	0.603103	0.209397	-0.297062
C50	C	1.103103	0.709397	0.202938
C51	C	0.639313	0.167836	-0.135604
C52	C	1.139313	0.667836	0.364396
C53	C	0.726680	0.177555	-0.166011
C54	C	1.226680	0.677555	0.333989
C55	C	0.690471	0.219116	-0.327469
C56	C	1.190471	0.719116	0.172531
C57	C	0.990805	0.046535	-0.344984
C58	C	1.490805	0.546535	0.155016
C59	C	0.981305	-0.059558	-0.341668
C60	C	1.481305	0.440442	0.158332
C61	C	1.031318	-0.305286	-0.359119
C62	C	1.531318	0.194714	0.140881
C63	C	0.963939	-0.253787	-0.335653
C64	C	1.463939	0.246213	0.164347
C65	C	0.973604	-0.145708	-0.339000
C66	C	1.473604	0.354292	0.161000
C67	C	1.021654	-0.413375	-0.355772
C68	C	1.521654	0.086625	0.144228
C69	C	1.150017	0.227400	-0.400443
C70	C	1.650017	0.727400	0.099557
C71	C	1.242998	0.237728	-0.432824
C72	C	1.742998	0.737728	0.067176
C73	C	1.004449	0.394386	-0.349780
C74	C	1.504449	0.894386	0.150220
C75	C	1.013949	0.500479	-0.353102
C76	C	1.513949	1.000479	0.146898
N77	N	1.049404	0.161080	-0.116672
N78	N	1.549404	0.661080	0.383328
N79	N	0.945857	0.279833	-0.578093
N80	N	1.445857	0.779833	-0.078093
C81	C	0.862388	0.375506	0.300232
C82	C	1.362388	0.875506	0.800232
C83	C	0.883336	0.351498	0.393440
C84	C	1.383336	0.851498	0.893440
C85	C	0.987451	0.232144	0.357169
C86	C	1.487451	0.732144	0.857169
C87	C	0.966508	0.256140	0.263956
C88	C	1.466508	0.756140	0.763956
C89	C	0.903977	0.327822	0.235496
C90	C	1.403977	0.827822	0.735496
C91	C	1.008098	0.208455	0.199220
C92	C	1.508098	0.708455	0.699220
C93	C	0.987159	0.232452	0.106015
C94	C	1.487159	0.732452	0.606015
C95	C	0.924632	0.304134	0.077545
C96	C	1.424632	0.804134	0.577545
C97	C	0.883039	0.351819	0.142290
C98	C	1.383039	0.851819	0.642290
C99	C	1.070633	0.136778	0.227681
C100	C	1.570633	0.636778	0.727681
C101	C	1.112222	0.089094	0.162945
C102	C	1.612222	0.589094	0.662945
C103	C	1.091280	0.113086	0.069739
C104	C	1.591280	0.613086	0.569739
C105	C	1.028753	0.184767	0.041270
C106	C	1.528753	0.684767	0.541270
C107	C	1.132873	0.065400	0.004994
C108	C	1.632873	0.565400	0.504994
C109	C	1.111935	0.089397	-0.088211
C110	C	1.611935	0.589397	0.411789
C111	C	1.007815	0.208764	-0.051936
C112	C	1.507815	0.708764	0.448064
H113	H	0.357225	0.182059	-0.211492
H114	H	0.857225	0.682059	0.288508
F115	F	1.199430	-0.010878	0.035293
F116	F	1.699430	0.489122	0.535293
H117	H	1.096256	-0.268209	-0.381719
H118	H	1.596256	0.231791	0.118281
F119	F	1.156202	0.038647	-0.157110
F120	F	1.656202	0.538647	0.342890
F121	F	0.795825	0.451791	0.269943
F122	F	1.295825	0.951791	0.769943
F123	F	0.839066	0.402261	0.462334
F124	F	1.339066	0.902261	0.962334
H125	H	0.956889	0.267128	-0.075106
H126	H	1.456889	0.767128	0.424894
H127	H	1.038368	0.173782	0.380352
H128	H	1.538368	0.673782	0.880352
F129	F	0.532326	0.294154	-0.626153
F130	F	1.032326	0.794154	-0.126153
F131	F	0.717695	0.246392	-0.429575
F132	F	1.217695	0.746392	0.070425
F133	F	0.383174	0.300357	-0.661268
F134	F	0.883174	0.800357	-0.161268
H135	H	0.618475	0.146970	-0.057493
H136	H	1.118475	0.646970	0.442507
F137	F	0.879055	-0.302251	-0.306100
F138	F	1.379055	0.197749	0.193900
F139	F	0.902352	0.329677	-0.021655
F140	F	1.402352	0.829677	0.478345
F141	F	0.816476	0.428103	0.112002
F142	F	1.316476	0.928103	0.612002
F143	F	0.462922	0.146762	-0.068626
F144	F	0.962922	0.646762	0.431374
H145	H	1.163139	0.030732	0.186128
H146	H	1.663139	0.530732	0.686128
F147	F	0.659879	0.261305	-0.490883
F148	F	1.159879	0.761305	0.009117
F149	F	1.092918	0.111246	0.326880
F150	F	1.592918	0.611246	0.826880
H151	H	0.283948	0.200933	-0.289184
H152	H	0.783948	0.700933	0.210816
F153	F	0.792439	0.160611	-0.096275
F154	F	1.292439	0.660611	0.403725
F155	F	0.202824	0.280310	-0.598486
F156	F	0.702824	0.780310	-0.098486
