data_functionalizedCrystal
_audit_creation_method	'MofGen! by Chris Wilmer'
_symmetry_space_group_name_H-M	'P1'
_symmetry_Int_Tables_number	1
_symmetry_cell_setting	triclinic
loop_
_symmetry_equiv_pos_as_xyz
  x,y,z
_cell_length_a	10.540510
_cell_length_b	10.540539
_cell_length_c	9.016244
_cell_angle_alpha	90.000067
_cell_angle_beta	89.992396
_cell_angle_gamma	95.480599
loop_
_atom_site_label
_atom_site_type_symbol
_atom_site_fract_x
_atom_site_fract_y
_atom_site_fract_z
O1	O	1.685915	-0.178715	-0.123342
O2	O	1.316497	-0.195611	-0.123342
O3	O	1.509634	-0.002455	-0.123340
O4	O	1.492778	-0.371870	-0.123344
O5	O	1.509606	-0.002460	0.123341
O6	O	1.316469	-0.195615	0.123339
O7	O	1.685887	-0.178719	0.123339
Cu8	Cu	1.501175	-0.187168	0.145863
Cu9	Cu	1.501209	-0.187162	-0.145866
O10	O	1.492750	-0.371875	0.123337
C11	C	1.269179	-0.194354	-0.000002
C12	C	1.128229	-0.190587	-0.000002
C13	C	0.910774	-0.324771	-0.000570
C14	C	1.057370	-0.328789	-0.000005
C15	C	1.083453	-0.119843	0.140862
C16	C	0.936692	-0.116804	0.140971
C17	C	0.936919	-0.113921	-0.139551
C18	C	1.083260	-0.120476	-0.141404
C19	C	1.508356	0.044845	-0.000003
C20	C	1.504574	0.185793	-0.000011
C21	C	1.733204	-0.179976	-0.000005
C22	C	1.874154	-0.183743	-0.000014
C23	C	1.494028	-0.419175	-0.000004
C24	C	1.497810	-0.560123	-0.000006
N25	N	1.501161	-0.187170	0.351049
C26	C	1.359655	0.369204	-0.000564
C27	C	1.363489	0.222587	-0.000009
C28	C	1.572454	0.247455	0.140856
C29	C	1.567639	0.393999	0.140975
C30	C	1.570541	0.394523	-0.139547
C31	C	1.571841	0.247541	-0.141410
N32	N	1.501233	-0.187150	-0.351052
C33	C	1.397528	-0.290149	0.586080
C34	C	1.397757	-0.290535	0.414189
C35	C	1.633885	-0.217290	0.413387
C36	C	1.633320	-0.218019	0.585332
C37	C	1.473387	-0.053735	0.585594
C38	C	1.470341	-0.054600	0.413639
H39	H	1.114296	-0.168977	0.245692
H40	H	1.658784	-0.313525	0.370308
N41	N	1.094976	-0.402530	0.133990
H42	H	1.154929	-0.345776	0.198184
H43	H	1.138859	-0.478677	0.100537
H44	H	0.894383	-0.157502	-0.246319
N45	N	1.347876	-0.015770	0.643095
H46	H	1.307793	-0.084679	0.710807
H47	H	1.288968	-0.004003	0.556879
H48	H	0.913696	-0.013438	0.147371
H49	H	1.310076	0.179979	-0.100988
H50	H	1.299140	-0.272414	0.372045
H51	H	1.522173	0.206679	-0.245619
N52	N	1.708100	0.215491	-0.152683
H53	H	1.720020	0.168082	-0.248261
H54	H	1.728158	0.160287	-0.065833
H55	H	1.712963	-0.146021	0.626915
N56	N	1.510080	0.436315	-0.280976
H57	H	1.418485	0.398371	-0.285631
H58	H	1.558318	0.406213	-0.369016
H59	H	1.712942	-0.144318	0.372483
N60	N	1.285833	0.407089	-0.134361
H61	H	1.197469	0.360673	-0.132572
H62	H	1.331370	0.383935	-0.227672
N63	N	1.286106	0.409194	0.132492
H64	H	1.341890	0.472891	0.193129
H65	H	1.259119	0.331951	0.195281
N66	N	1.509976	0.191047	0.279733
H67	H	1.574784	0.148971	0.340358
H68	H	1.437705	0.125610	0.251611
N69	N	0.907578	0.023522	-0.140826
H70	H	0.989799	0.081125	-0.137532
H71	H	0.853869	0.040418	-0.051499
N72	N	1.340964	-0.024394	0.359780
H73	H	1.302473	-0.096268	0.295091
H74	H	1.350338	0.057293	0.300553
H75	H	0.896464	-0.165154	0.246268
H76	H	1.657674	-0.315354	0.625420
N77	N	1.292227	0.167248	0.133975
H78	H	1.200813	0.188307	0.129644
H79	H	1.333801	0.204721	0.227096
N80	N	1.563768	0.051812	0.356740
H81	H	1.627683	0.015429	0.289284
H82	H	1.609731	0.096336	0.443249
H83	H	1.130843	-0.018102	0.146102
N84	N	1.705526	0.457085	-0.140813
H85	H	1.719555	0.514531	-0.051486
H86	H	1.720228	0.509171	-0.234325
H87	H	1.111890	-0.171949	-0.245614
H88	H	0.867255	-0.378305	0.099878
N89	N	1.501158	0.431357	0.280452
H90	H	1.475248	0.352663	0.341279
H91	H	1.422862	0.474436	0.253037
N92	N	1.702033	0.457566	0.149450
H93	H	1.764139	0.390355	0.153101
H94	H	1.711686	0.511879	0.241782
H95	H	1.298601	-0.272307	0.627474
N96	N	1.573537	0.047820	0.639435
H97	H	1.636648	0.007676	0.704546
H98	H	1.531395	0.113742	0.698229
N99	N	1.420961	-0.420535	0.643215
H100	H	1.498455	-0.413172	0.709653
H101	H	1.435786	-0.478207	0.556737
N102	N	1.709710	0.217911	0.147778
H103	H	1.729254	0.164135	0.059460
H104	H	1.724263	0.169799	0.242177
N105	N	1.148245	0.013179	-0.152681
H106	H	1.243520	0.009697	-0.158959
H107	H	1.127163	0.063508	-0.062118
H108	H	0.868832	-0.378611	-0.101592
N109	N	1.096271	-0.402096	-0.133761
H110	H	1.018123	-0.432088	-0.193620
H111	H	1.140094	-0.478185	-0.100009
N112	N	1.421223	-0.421761	0.359840
H113	H	1.506370	-0.444450	0.397667
H114	H	1.421344	-0.422634	0.247829
