data_functionalizedCrystal
_audit_creation_method	'MofGen! by Chris Wilmer'
_symmetry_space_group_name_H-M	'P1'
_symmetry_Int_Tables_number	1
_symmetry_cell_setting	triclinic
loop_
_symmetry_equiv_pos_as_xyz
  x,y,z
_cell_length_a	16.120530
_cell_length_b	12.759399
_cell_length_c	12.759393
_cell_angle_alpha	89.969094
_cell_angle_beta	92.920001
_cell_angle_gamma	92.889229
loop_
_atom_site_label
_atom_site_type_symbol
_atom_site_fract_x
_atom_site_fract_y
_atom_site_fract_z
Zn1	Zn	1.274633	0.499768	0.675423
Zn2	Zn	1.274545	0.675478	0.499736
Zn3	Zn	1.135207	0.490899	0.490853
Zn4	Zn	1.135200	0.666484	0.666474
O5	O	1.204896	0.583157	0.583121
O6	O	1.391288	0.530552	0.659580
O7	O	1.256028	0.651045	0.351534
O8	O	1.153742	0.345057	0.515364
O9	O	1.391224	0.659645	0.530504
O10	O	1.256177	0.351573	0.650967
O11	O	1.153657	0.515435	0.345008
O12	O	1.018539	0.506715	0.506687
O13	O	1.153729	0.644317	0.814684
O14	O	1.018534	0.635717	0.635715
O15	O	1.256170	0.521831	0.821259
O16	O	1.256021	0.821303	0.521826
O17	O	1.153644	0.814696	0.644328
C18	C	1.204845	0.856121	0.583094
C19	C	1.204900	0.972901	0.583123
C20	C	0.988286	0.569278	0.569266
C21	C	0.895619	0.563366	0.563364
C22	C	1.204959	0.583060	0.857159
C23	C	1.204985	0.583019	0.973937
C24	C	0.725956	0.552547	0.552597
C25	C	0.684677	0.613845	0.613722
C26	C	0.590271	0.607825	0.607731
C27	C	0.820371	0.558565	0.558587
C28	C	1.422352	0.597091	0.597031
C29	C	1.515019	0.603029	0.602958
C30	C	1.204970	0.309129	0.583173
C31	C	1.205002	0.192354	0.583195
C32	C	1.258268	1.031173	0.519416
C33	C	1.258322	1.140900	0.519455
C34	C	1.151631	1.134075	0.646909
C35	C	1.151582	1.024349	0.646875
C36	C	1.204882	0.583181	0.310153
C37	C	1.205017	0.582937	0.193386
C38	C	1.258330	0.519230	1.032225
C39	C	1.258344	0.519186	1.141950
C40	C	1.151666	0.646728	1.135090
C41	C	1.151648	0.646766	1.025367
H42	H	0.690396	0.495553	0.495772
H43	H	1.108123	0.976901	0.698757
O44	O	1.315885	0.450392	1.204821
H45	H	1.352972	0.406081	1.150622
H46	H	1.108221	1.175977	0.698812
O47	O	1.094083	0.715548	0.962502
H48	H	1.108344	0.798921	0.984442
O49	O	1.315781	0.975677	0.450672
H50	H	1.352907	1.034637	0.406389
H51	H	1.301758	0.467320	0.990354
O52	O	1.315878	1.203754	0.450738
H53	H	1.352937	1.149541	0.406398
O54	O	0.731778	0.689354	0.688995
H55	H	0.715170	0.670394	0.770452
O56	O	1.094141	0.715484	1.190559
H57	H	1.103118	0.704749	1.276650
