data_functionalizedCrystal
_audit_creation_method	'MofGen! by Chris Wilmer'
_symmetry_space_group_name_H-M	'P1'
_symmetry_Int_Tables_number	1
_symmetry_cell_setting	triclinic
loop_
_symmetry_equiv_pos_as_xyz
  x,y,z
_cell_length_a	10.723024
_cell_length_b	23.532357
_cell_length_c	9.198806
_cell_angle_alpha	89.991292
_cell_angle_beta	89.996352
_cell_angle_gamma	83.648080
loop_
_atom_site_label
_atom_site_type_symbol
_atom_site_fract_x
_atom_site_fract_y
_atom_site_fract_z
O1	O	1.654668	0.079873	-0.120903
O2	O	1.291275	0.087518	-0.120910
O3	O	1.483962	0.000833	-0.120876
O4	O	1.461981	0.166558	-0.120936
O5	O	1.483947	0.000833	0.120909
O6	O	1.291259	0.087518	0.120875
O7	O	1.654653	0.079872	0.120882
Cu8	Cu	1.472955	0.083695	0.142956
Cu9	Cu	1.472973	0.083695	-0.142983
O10	O	1.461966	0.166557	0.120849
C11	C	1.244785	0.086961	-0.000017
C12	C	1.106283	0.085297	-0.000019
C13	C	1.483405	-0.020387	0.000021
C14	C	1.481752	-0.083617	0.000035
C15	C	0.916157	0.033589	-0.000003
C16	C	1.059306	0.035308	-0.000001
C17	C	1.471382	-0.475695	-0.131841
C18	C	1.469811	-0.535105	-0.131849
O19	O	1.468963	-0.565827	-0.243938
N20	N	1.469023	-0.564821	-0.000054
C21	C	1.469794	-0.535124	0.131758
O22	O	1.468979	-0.565855	0.243859
C23	C	1.471357	-0.475715	0.131765
C24	C	1.472157	-0.446003	-0.000039
C25	C	1.472181	-0.445983	-0.263634
C26	C	1.473754	-0.386577	-0.263625
C27	C	1.474529	-0.356884	-0.131823
C28	C	1.473731	-0.386597	-0.000030
C29	C	1.472119	-0.446019	0.263575
C30	C	1.473681	-0.386606	0.263571
C31	C	1.474481	-0.356893	0.131767
C32	C	1.476079	-0.297499	0.131781
N33	N	1.476867	-0.267783	-0.000015
C34	C	1.476092	-0.297475	-0.131817
C35	C	1.466511	-0.659887	0.131734
C36	C	1.464958	-0.719296	0.131728
C37	C	1.464972	-0.719272	-0.131880
C38	C	1.466534	-0.659863	-0.131873
C39	C	1.467299	-0.630171	-0.000062
C40	C	1.479398	-0.172720	-0.131788
C41	C	1.480977	-0.113309	-0.131767
C42	C	1.480956	-0.113338	0.131840
C43	C	1.479384	-0.172743	0.131820
C44	C	1.478600	-0.202433	-0.000006
O45	O	1.476923	-0.266739	0.243812
O46	O	1.476891	-0.266736	-0.243899
C47	C	1.701143	0.080429	-0.000013
C48	C	1.839644	0.082093	-0.000021
C49	C	1.462523	0.187778	-0.000051
C50	C	1.464176	0.251007	-0.000075
N51	N	1.472951	0.083694	0.344070
N52	N	1.472986	0.083691	-0.344097
C53	C	1.553860	0.047137	0.416281
C54	C	1.553880	0.047135	0.583693
H55	H	1.125049	-0.006215	0.000005
H56	H	0.875685	-0.009210	0.000035
H57	H	1.040548	0.126823	-0.000040
O58	O	1.474511	-0.354584	0.405748
H59	H	1.475730	-0.308280	0.383624
O60	O	1.381219	0.125156	0.573678
H61	H	1.283954	0.117631	0.602849
O62	O	1.464083	-0.751304	-0.274039
H63	H	1.464890	-0.720665	-0.365695
H64	H	1.403692	0.114989	0.406186
H65	H	1.464325	-0.743484	0.239056
H66	H	1.478744	-0.196937	0.239145
O67	O	1.481790	-0.081307	0.273996
H68	H	1.483004	-0.035005	0.251845
H69	H	1.623154	0.015839	0.645792
H70	H	0.880116	0.124893	-0.000028
O71	O	1.645569	0.005662	0.334021
H72	H	1.631149	0.012166	0.215437
O73	O	1.481822	-0.081260	-0.273931
H74	H	1.481001	-0.111891	-0.365579
H75	H	1.478754	-0.196885	-0.239133
O76	O	1.474584	-0.354531	-0.405785
H77	H	1.473762	-0.385166	-0.497424
O78	O	1.467371	-0.627867	0.273914
H79	H	1.382023	-0.634534	0.337126
H80	H	1.467184	-0.635675	-0.239199
O81	O	1.471314	-0.478002	-0.405803
H82	H	1.472127	-0.447351	-0.497431
H83	H	1.471470	-0.470201	0.370904
