data_functionalizedCrystal
_audit_creation_method	'MofGen! by Chris Wilmer'
_symmetry_space_group_name_H-M	'P1'
_symmetry_Int_Tables_number	1
_symmetry_cell_setting	triclinic
loop_
_symmetry_equiv_pos_as_xyz
  x,y,z
_cell_length_a	19.121102
_cell_length_b	29.839131
_cell_length_c	29.839126
_cell_angle_alpha	90.031806
_cell_angle_beta	92.458332
_cell_angle_gamma	87.589066
loop_
_atom_site_label
_atom_site_type_symbol
_atom_site_fract_x
_atom_site_fract_y
_atom_site_fract_z
Zn1	Zn	1.073671	-0.208236	0.283241
Zn2	Zn	1.407004	0.125097	0.616574
Zn3	Zn	1.740337	0.458431	0.949907
Zn4	Zn	1.073562	-0.283354	0.208097
Zn5	Zn	1.406895	0.049980	0.541431
Zn6	Zn	1.740228	0.383313	0.874764
Zn7	Zn	0.956220	-0.205031	0.204922
Zn8	Zn	1.289553	0.128302	0.538256
Zn9	Zn	1.622887	0.461636	0.871589
Zn10	Zn	0.956167	-0.280128	0.280000
Zn11	Zn	1.289500	0.053206	0.613333
Zn12	Zn	1.622833	0.386539	0.946666
O13	O	1.014905	-0.244187	0.244065
O14	O	1.348238	0.089146	0.577398
O15	O	1.681571	0.422480	0.910732
O16	O	1.171940	-0.220892	0.275958
O17	O	1.505273	0.112441	0.609291
O18	O	1.838607	0.445775	0.942624
O19	O	1.057973	-0.272972	0.144809
O20	O	1.391306	0.060361	0.478142
O21	O	1.724639	0.393694	0.811475
O22	O	0.971868	-0.142591	0.215339
O23	O	1.305201	0.190743	0.548672
O24	O	1.638535	0.524076	0.882006
O25	O	1.171860	-0.276080	0.220750
O26	O	1.505193	0.057253	0.554084
O27	O	1.838526	0.390586	0.887417
O28	O	1.058159	-0.144946	0.272879
O29	O	1.391492	0.188388	0.606212
O30	O	1.724825	0.521721	0.939546
O31	O	0.971762	-0.215429	0.142476
O32	O	1.305096	0.117904	0.475809
O33	O	1.638429	0.451238	0.809143
O34	O	0.857929	-0.212301	0.212197
O35	O	1.191263	0.121032	0.545530
O36	O	1.524596	0.454365	0.878863
O37	O	0.971777	-0.270583	0.343297
O38	O	1.305111	0.062751	0.676631
O39	O	1.638444	0.396084	1.009964
O40	O	0.857890	-0.267475	0.267356
O41	O	1.191223	0.065859	0.600689
O42	O	1.524557	0.399192	0.934022
O43	O	1.058107	-0.217764	0.345678
O44	O	1.391440	0.115569	0.679012
O45	O	1.724774	0.448903	1.012345
O46	O	1.057921	-0.345791	0.217608
O47	O	1.391254	-0.012458	0.550941
O48	O	1.724588	0.320876	0.884275
O49	O	0.971671	-0.343421	0.270434
O50	O	1.305005	-0.010088	0.603768
O51	O	1.638338	0.323246	0.937101
C52	C	0.832426	-0.239190	0.239080
C53	C	1.165759	0.094143	0.572414
C54	C	1.499092	0.427476	0.905747
C55	C	0.754361	-0.237064	0.236958
C56	C	1.087694	0.096270	0.570292
C57	C	1.421027	0.429603	0.903625
C58	C	1.014798	-0.360907	0.244024
C59	C	1.348131	-0.027573	0.577358
C60	C	1.681464	0.305760	0.910691
C61	C	1.014816	-0.410842	0.244024
C62	C	1.348149	-0.077508	0.577357
C63	C	1.681483	0.255825	0.910690
C64	C	0.717683	-0.264834	0.264635
C65	C	1.051017	0.068500	0.597968
C66	C	1.384350	0.401833	0.931301
C67	C	0.644333	-0.262830	0.262643
C68	C	0.977666	0.070504	0.595976
C69	C	1.310999	0.403837	0.929310
C70	C	0.607661	-0.233057	0.232973
C71	C	0.940994	0.100276	0.566306
C72	C	1.274327	0.433609	0.899639
C73	C	0.644343	-0.205284	0.205295
C74	C	0.977676	0.128049	0.538628
C75	C	1.311010	0.461382	0.871962
C76	C	0.717692	-0.207286	0.207289
C77	C	1.051026	0.126047	0.540623
C78	C	1.384359	0.459380	0.873956
C79	C	0.386193	-0.225570	0.225519
C80	C	0.719527	0.107763	0.558852
C81	C	1.052860	0.441096	0.892186
C82	C	0.312839	-0.223571	0.223526
C83	C	0.646172	0.109762	0.556859
C84	C	0.979505	0.443096	0.890193
C85	C	0.312833	-0.281116	0.280875
C86	C	0.646167	0.052217	0.614208
C87	C	0.979500	0.385551	0.947541
C88	C	0.386184	-0.283118	0.282864
C89	C	0.719517	0.050216	0.616198
C90	C	1.052851	0.383549	0.949531
C91	C	0.422860	-0.255343	0.255189
C92	C	0.756193	0.077990	0.588522
C93	C	1.089527	0.411324	0.921855
C94	C	0.532684	-0.231009	0.230935
C95	C	0.866018	0.102324	0.564268
C96	C	1.199351	0.435658	0.897602
C97	C	0.497835	-0.257389	0.257229
C98	C	0.831168	0.075944	0.590562
C99	C	1.164502	0.409277	0.923895
C100	C	1.059826	-0.721678	0.274067
C101	C	1.393160	-0.388345	0.607400
C102	C	1.726493	-0.055012	0.940733
C103	C	1.059903	-0.909354	0.274096
C104	C	1.393236	-0.576020	0.607429
C105	C	1.726569	-0.242687	0.940763
O106	O	1.098067	-0.934630	0.299609
O107	O	1.431400	-0.601297	0.632942
O108	O	1.764734	-0.267964	0.966275
N109	N	1.015024	-0.931632	0.244118
N110	N	1.348357	-0.598299	0.577452
N111	N	1.681691	-0.264966	0.910785
C112	C	0.970120	-0.906989	0.214133
C113	C	1.303453	-0.573656	0.547466
C114	C	1.636787	-0.240323	0.880800
O115	O	0.931945	-0.930245	0.188639
O116	O	1.265278	-0.596912	0.521972
O117	O	1.598611	-0.263578	0.855306
C118	C	0.970041	-0.719315	0.214107
C119	C	1.303374	-0.385982	0.547440
C120	C	1.636707	-0.052648	0.880773
C121	C	1.014927	-0.697039	0.244083
C122	C	1.348261	-0.363705	0.577416
C123	C	1.681594	-0.030372	0.910750
C124	C	1.104709	-0.699402	0.304041
C125	C	1.438042	-0.366069	0.637375
C126	C	1.771375	-0.032735	0.970708
C127	C	1.104692	-0.652486	0.304032
C128	C	1.438025	-0.319153	0.637365
C129	C	1.771359	0.014180	0.970699
C130	C	1.059793	-0.627847	0.274048
C131	C	1.393126	-0.294513	0.607382
C132	C	1.726459	0.038820	0.940715
C133	C	1.014910	-0.650123	0.244074
C134	C	1.348244	-0.316790	0.577407
C135	C	1.681577	0.016544	0.910741
C136	C	0.925133	-0.694673	0.184124
C137	C	1.258467	-0.361339	0.517457
C138	C	1.591800	-0.028006	0.850791
C139	C	0.925116	-0.647751	0.184121
C140	C	1.258450	-0.314418	0.517454
C141	C	1.591783	0.018915	0.850787
C142	C	0.970003	-0.625475	0.214097
C143	C	1.303336	-0.292142	0.547431
C144	C	1.636670	0.041192	0.880764
C145	C	0.969994	-0.578567	0.214081
C146	C	1.303328	-0.245234	0.547414
C147	C	1.636661	0.088099	0.880748
N148	N	1.014873	-0.556289	0.244059
N149	N	1.348206	-0.222955	0.577392
N150	N	1.681540	0.110378	0.910725
C151	C	1.059772	-0.580928	0.274042
C152	C	1.393106	-0.247595	0.607376
C153	C	1.726439	0.085738	0.940709
C154	C	0.970166	-1.005521	0.214149
C155	C	1.303499	-0.672188	0.547482
C156	C	1.636832	-0.338855	0.880815
C157	C	0.970186	-1.052440	0.214155
C158	C	1.303520	-0.719106	0.547488
C159	C	1.636853	-0.385773	0.880821
C160	C	1.059968	-1.054801	0.274118
C161	C	1.393302	-0.721467	0.607451
C162	C	1.726635	-0.388134	0.940785
C163	C	1.059951	-1.007881	0.274110
C164	C	1.393284	-0.674548	0.607443
C165	C	1.726617	-0.341215	0.940776
C166	C	1.015044	-0.983242	0.244126
C167	C	1.348378	-0.649909	0.577460
C168	C	1.681711	-0.316576	0.910793
C169	C	1.059734	-0.482401	0.274020
C170	C	1.393067	-0.149068	0.607354
C171	C	1.726401	0.184265	0.940687
C172	C	1.059715	-0.435481	0.274007
C173	C	1.393049	-0.102148	0.607341
C174	C	1.726382	0.231185	0.940674
C175	C	0.969931	-0.433124	0.214046
C176	C	1.303264	-0.099791	0.547379
C177	C	1.636598	0.233542	0.880712
C178	C	0.969952	-0.480040	0.214057
C179	C	1.303285	-0.146707	0.547390
C180	C	1.636619	0.186626	0.880724
C181	C	1.014856	-0.504678	0.244048
C182	C	1.348189	-0.171344	0.577381
C183	C	1.681522	0.161989	0.910715
O184	O	0.931844	-0.553262	0.188585
O185	O	1.265178	-0.219929	0.521918
O186	O	1.598511	0.113404	0.855252
O187	O	1.097931	-0.557664	0.299539
O188	O	1.431264	-0.224331	0.632873
O189	O	1.764598	0.109003	0.966206
C190	C	1.059843	-0.768594	0.274076
C191	C	1.393177	-0.435261	0.607409
C192	C	1.726510	-0.101928	0.940743
C193	C	1.014961	-0.790871	0.244102
C194	C	1.348294	-0.457537	0.577435
C195	C	1.681628	-0.124204	0.910768
C196	C	0.970062	-0.766231	0.214118
C197	C	1.303395	-0.432898	0.547451
C198	C	1.636728	-0.099564	0.880785
C199	C	1.014981	-0.837789	0.244108
C200	C	1.348315	-0.504456	0.577441
C201	C	1.681648	-0.171122	0.910774
C202	C	1.059881	-0.862429	0.274091
C203	C	1.393214	-0.529095	0.607425
C204	C	1.726547	-0.195762	0.940758
C205	C	1.104759	-0.840150	0.304069
C206	C	1.438093	-0.506816	0.637402
C207	C	1.771426	-0.173483	0.970736
C208	C	1.104742	-0.793234	0.304060
C209	C	1.438076	-0.459901	0.637393
C210	C	1.771409	-0.126567	0.970726
C211	C	0.925183	-0.788510	0.184140
C212	C	1.258516	-0.455177	0.517473
C213	C	1.591850	-0.121843	0.850807
C214	C	0.925204	-0.835426	0.184151
C215	C	1.258537	-0.502093	0.517485
C216	C	1.591871	-0.168759	0.850818
C217	C	0.970103	-0.860066	0.214135
C218	C	1.303437	-0.526732	0.547469
C219	C	1.636770	-0.193399	0.880802
C220	C	1.198096	-0.249203	0.249070
C221	C	1.531430	0.084130	0.582403
C222	C	1.864763	0.417463	0.915736
C223	C	1.276161	-0.251341	0.251202
C224	C	1.609495	0.081992	0.584536
C225	C	1.942828	0.415326	0.917869
C226	C	1.014948	-0.244171	0.361245
C227	C	1.348282	0.089162	0.694578
C228	C	1.681615	0.422496	1.027911
C229	C	1.014967	-0.244164	0.411180
C230	C	1.348300	0.089169	0.744513
C231	C	1.681633	0.422502	1.077846
C232	C	1.015031	-0.127012	0.244116
C233	C	1.348365	0.206321	0.577450
C234	C	1.681698	0.539655	0.910783
C235	C	1.015085	-0.077079	0.244138
C236	C	1.348419	0.256254	0.577472
C237	C	1.681752	0.589588	0.910805
C238	C	1.014902	-0.244172	0.127342
C239	C	1.348235	0.089162	0.460676
C240	C	1.681569	0.422495	0.794009
C241	C	1.015019	-0.244056	0.077412
C242	C	1.348353	0.089278	0.410745
C243	C	1.681686	0.422611	0.744078
C244	C	0.970091	-0.214157	0.719612
C245	C	1.303424	0.119177	1.052945
C246	C	1.636758	0.452510	1.386278
C247	C	0.970111	-0.214126	0.907285
C248	C	1.303444	0.119207	1.240619
C249	C	1.636778	0.452540	1.573952
O250	O	0.931921	-0.188657	0.930519
O251	O	1.265254	0.144677	1.263853
O252	O	1.598588	0.478010	1.597186
N253	N	1.015000	-0.244081	0.931966
N254	N	1.348333	0.089253	1.265299
N255	N	1.681667	0.422586	1.598632
C256	C	1.059884	-0.274047	0.909725
C257	C	1.393217	0.059286	1.243058
C258	C	1.726551	0.392619	1.576392
O259	O	1.098060	-0.299528	0.935023
O260	O	1.431394	0.033805	1.268357
O261	O	1.764727	0.367139	1.601690
C262	C	1.059860	-0.274080	0.722052
C263	C	1.393194	0.059254	1.055385
C264	C	1.726527	0.392587	1.388719
C265	C	1.014973	-0.244120	0.697374
C266	C	1.348306	0.089213	1.030707
C267	C	1.681640	0.422547	1.364041
C268	C	0.925207	-0.184200	0.694934
C269	C	1.258540	0.149133	1.028267
C270	C	1.591874	0.482467	1.361601
C271	C	0.925205	-0.184206	0.648018
C272	C	1.258539	0.149127	0.981352
C273	C	1.591872	0.482460	1.314685
C274	C	0.970087	-0.214169	0.625781
C275	C	1.303421	0.119164	0.959114
C276	C	1.636754	0.452497	1.292447
C277	C	1.014971	-0.244126	0.650459
C278	C	1.348305	0.089207	0.983792
C279	C	1.681638	0.422540	1.317125
C280	C	1.104740	-0.304048	0.699812
C281	C	1.438074	0.029285	1.033145
C282	C	1.771407	0.362619	1.366478
C283	C	1.104729	-0.304054	0.652890
C284	C	1.438062	0.029279	0.986224
C285	C	1.771396	0.362612	1.319557
C286	C	1.059842	-0.274094	0.628213
C287	C	1.393175	0.059239	0.961546
C288	C	1.726509	0.392572	1.294879
C289	C	1.059852	-0.274096	0.581305
C290	C	1.393185	0.059237	0.914639
C291	C	1.726518	0.392571	1.247972
N292	N	1.014963	-0.244141	0.556625
N293	N	1.348296	0.089192	0.889958
N294	N	1.681629	0.422525	1.223292
C295	C	0.970080	-0.214178	0.578863
C296	C	1.303414	0.119155	0.912196
C297	C	1.636747	0.452489	1.245529
C298	C	1.059895	-0.274027	1.008256
C299	C	1.393228	0.059306	1.341589
C300	C	1.726561	0.392639	1.674922
C301	C	1.059902	-0.274019	1.055174
C302	C	1.393235	0.059314	1.388507
C303	C	1.726568	0.392648	1.721841
C304	C	0.970127	-0.214098	1.052731
C305	C	1.303461	0.119235	1.386064
C306	C	1.636794	0.452568	1.719398
C307	C	0.970124	-0.214105	1.005812
C308	C	1.303458	0.119228	1.339146
C309	C	1.636791	0.452562	1.672479
C310	C	1.015005	-0.244073	0.983575
C311	C	1.348339	0.089260	1.316909
C312	C	1.681672	0.422594	1.650242
C313	C	0.970080	-0.214193	0.480337
C314	C	1.303414	0.119140	0.813670
C315	C	1.636747	0.452473	1.147003
C316	C	0.970085	-0.214201	0.433417
C317	C	1.303418	0.119132	0.766751
C318	C	1.636751	0.452466	1.100084
C319	C	1.059856	-0.274123	0.435864
C320	C	1.393189	0.059210	0.769197
C321	C	1.726523	0.392544	1.102531
C322	C	1.059855	-0.274114	0.482779
C323	C	1.393188	0.059219	0.816113
C324	C	1.726521	0.392553	1.149446
C325	C	1.014961	-0.244147	0.505015
C326	C	1.348295	0.089186	0.838348
C327	C	1.681628	0.422519	1.171681
O328	O	1.098016	-0.299555	0.558042
O329	O	1.431349	0.033778	0.891375
O330	O	1.764683	0.367111	1.224708
O331	O	0.931899	-0.188708	0.553556
O332	O	1.265232	0.144625	0.886889
O333	O	1.598565	0.477959	1.220223
C334	C	0.970093	-0.214151	0.766527
C335	C	1.303426	0.119183	1.099861
C336	C	1.636760	0.452516	1.433194
C337	C	1.014977	-0.244107	0.791205
C338	C	1.348310	0.089226	1.124538
C339	C	1.681643	0.422559	1.457872
C340	C	1.059859	-0.274071	0.768967
C341	C	1.393192	0.059263	1.102301
C342	C	1.726526	0.392596	1.435634
C343	C	1.014984	-0.244099	0.838123
C344	C	1.348317	0.089234	1.171456
C345	C	1.681650	0.422568	1.504790
C346	C	0.970102	-0.214136	0.860361
C347	C	1.303435	0.119198	1.193694
C348	C	1.636768	0.452531	1.527028
C349	C	0.925213	-0.184181	0.835680
C350	C	1.258546	0.149152	1.169014
C351	C	1.591879	0.482486	1.502347
C352	C	0.925211	-0.184187	0.788765
C353	C	1.258544	0.149146	1.122098
C354	C	1.591877	0.482479	1.455432
C355	C	1.104748	-0.304025	0.793648
C356	C	1.438081	0.029308	1.126981
C357	C	1.771415	0.362641	1.460314
C358	C	1.104747	-0.304016	0.840563
C359	C	1.438080	0.029317	1.173897
C360	C	1.771413	0.362651	1.507230
C361	C	1.059865	-0.274053	0.862801
C362	C	1.393198	0.059280	1.196134
C363	C	1.726531	0.392614	1.529468
H364	H	0.747536	-0.289079	0.288794
H365	H	1.080870	0.044254	0.622127
H366	H	1.414203	0.377588	0.955461
C367	C	1.109326	-0.983382	0.307087
C368	C	1.442659	-0.650049	0.640421
C369	C	1.775993	-0.316715	0.973754
N370	N	1.146517	-0.964931	0.331929
N371	N	1.479850	-0.631598	0.665262
N372	N	1.813183	-0.298265	0.998595
H373	H	1.141271	-0.719459	0.328460
H374	H	1.474604	-0.386125	0.661794
H375	H	1.807938	-0.052792	0.995127
C376	C	0.426527	-0.195020	0.195072
C377	C	0.759861	0.138314	0.528405
C378	C	1.093194	0.471647	0.861738
N379	N	0.456909	-0.172008	0.172137
N380	N	0.790243	0.161325	0.505470
N381	N	1.123576	0.494658	0.838803
C382	C	0.875827	-0.151231	0.761625
C383	C	1.209160	0.182102	1.094959
C384	C	1.542494	0.515435	1.428292
N385	N	0.838627	-0.126408	0.741186
N386	N	1.171960	0.206925	1.074520
N387	N	1.505294	0.540258	1.407853
C388	C	0.920755	-0.978424	0.181167
C389	C	1.254088	-0.645091	0.514500
C390	C	1.587421	-0.311757	0.847833
N391	N	0.883536	-0.958016	0.156325
N392	N	1.216870	-0.624683	0.489658
N393	N	1.550203	-0.291349	0.822992
C394	C	0.758037	-0.176738	0.176842
C395	C	1.091370	0.156595	0.510175
C396	C	1.424704	0.489929	0.843509
N397	N	0.788424	-0.153727	0.153909
N398	N	1.121757	0.179606	0.487242
N399	N	1.455090	0.512939	0.820576
H400	H	0.888546	-0.627692	0.159705
H401	H	1.221879	-0.294359	0.493038
H402	H	1.555213	0.038974	0.826372
C403	C	1.109354	-1.081913	0.307103
C404	C	1.442687	-0.748579	0.640436
C405	C	1.776021	-0.415246	0.973769
N406	N	1.146545	-1.102336	0.331948
N407	N	1.479878	-0.769002	0.665281
N408	N	1.813211	-0.435669	0.998615
H409	H	0.614473	-0.285443	0.285180
H410	H	0.947807	0.047890	0.618513
H411	H	1.281140	0.381223	0.951846
H412	H	0.933643	-1.070573	0.189740
H413	H	1.266976	-0.737240	0.523073
H414	H	1.600309	-0.403906	0.856407
C415	C	0.920741	-0.181150	0.978671
C416	C	1.254074	0.152183	1.312004
C417	C	1.587408	0.485516	1.645338
N418	N	0.883541	-0.156328	0.958230
N419	N	1.216875	0.177005	1.291563
N420	N	1.550208	0.510338	1.624897
C421	C	0.538176	-0.290139	0.289864
C422	C	0.871510	0.043194	0.623197
C423	C	1.204843	0.376528	0.956531
N424	N	0.568568	-0.314808	0.314443
N425	N	0.901901	0.018525	0.647776
N426	N	1.235235	0.351858	0.981110
H427	H	0.416038	-0.307362	0.307024
H428	H	0.749371	0.025971	0.640358
H429	H	1.082704	0.359304	0.973691
C430	C	1.154129	-0.336977	0.867704
C431	C	1.487463	-0.003643	1.201037
C432	C	1.820796	0.329690	1.534370
N433	N	1.191318	-0.361805	0.888144
N434	N	1.524652	-0.028472	1.221478
N435	N	1.857985	0.304861	1.554811
H436	H	0.933407	-0.498179	0.189644
H437	H	1.266741	-0.164845	0.522978
H438	H	1.600074	0.168488	0.856311
C439	C	1.109098	-0.410980	0.306984
C440	C	1.442431	-0.077647	0.640317
C441	C	1.775765	0.255686	0.973651
N442	N	1.146292	-0.392528	0.331822
N443	N	1.479625	-0.059195	0.665155
N444	N	1.812959	0.274139	0.998488
C445	C	0.875749	-0.719166	0.151150
C446	C	1.209082	-0.385833	0.484483
C447	C	1.542416	-0.052499	0.817816
N448	N	0.838547	-0.737613	0.126313
N449	N	1.171881	-0.404280	0.459646
N450	N	1.505214	-0.070946	0.792979
C451	C	1.154147	-0.336976	0.769194
C452	C	1.487480	-0.003642	1.102527
C453	C	1.820814	0.329691	1.435860
N454	N	1.191367	-0.361790	0.750777
N455	N	1.524701	-0.028456	1.084110
N456	N	1.858034	0.304877	1.417444
C457	C	0.920541	-0.406012	0.181067
C458	C	1.253875	-0.072678	0.514400
C459	C	1.587208	0.260655	0.847734
N460	N	0.883336	-0.385589	0.156230
N461	N	1.216669	-0.052256	0.489563
N462	N	1.550003	0.281078	0.822897
H463	H	1.141293	-0.775100	0.328470
H464	H	1.474626	-0.441767	0.661803
H465	H	1.807960	-0.108433	0.995136
C466	C	0.920753	-0.181141	1.077201
C467	C	1.254086	0.152192	1.410534
C468	C	1.587419	0.485526	1.743868
N469	N	0.883561	-0.156321	1.095634
N470	N	1.216895	0.177012	1.428967
N471	N	1.550228	0.510345	1.762301
C472	C	1.109135	-0.509496	0.307009
C473	C	1.442469	-0.176163	0.640343
C474	C	1.775802	0.157171	0.973676
N475	N	1.146348	-0.529903	0.331854
N476	N	1.479682	-0.196570	0.665187
N477	N	1.813015	0.136763	0.998521
C478	C	0.272484	-0.311663	0.311319
C479	C	0.605817	0.021670	0.644653
C480	C	0.939151	0.355004	0.977986
N481	N	0.242092	-0.334670	0.334253
N482	N	0.575426	-0.001337	0.667586
N483	N	0.908759	0.331996	1.000920
H484	H	0.282982	-0.199322	0.199367
H485	H	0.616316	0.134012	0.532701
H486	H	0.949649	0.467345	0.866034
C487	C	1.154148	-0.867262	0.337052
C488	C	1.487481	-0.533929	0.670385
C489	C	1.820814	-0.200596	1.003718
N490	N	1.191341	-0.887686	0.361895
N491	N	1.524675	-0.554352	0.695228
N492	N	1.858008	-0.221019	1.028562
C493	C	0.875821	-0.859924	0.151173
C494	C	1.209155	-0.526591	0.484506
C495	C	1.542488	-0.193257	0.817839
N496	N	0.838622	-0.878375	0.126337
N497	N	1.171956	-0.545041	0.459670
N498	N	1.505289	-0.211708	0.793003
H499	H	0.502818	-0.206769	0.206776
H500	H	0.836151	0.126564	0.540110
H501	H	1.169485	0.459897	0.873443
C502	C	0.920701	-0.181243	0.406274
C503	C	1.254035	0.152090	0.739608
C504	C	1.587368	0.485424	1.072941
N505	N	0.883505	-0.156420	0.385832
N506	N	1.216839	0.176913	0.719165
N507	N	1.550172	0.510246	1.052498
H508	H	0.614479	-0.181041	0.181139
H509	H	0.947812	0.152292	0.514472
H510	H	1.281145	0.485626	0.847805
H511	H	0.933524	-0.189791	0.498435
H512	H	1.266858	0.143542	0.831768
H513	H	1.600191	0.476875	1.165102
H514	H	1.141240	-0.634352	0.328443
H515	H	1.474574	-0.301018	0.661776
H516	H	1.807907	0.032315	0.995109
C517	C	0.875841	-0.151222	0.860151
C518	C	1.209175	0.182112	1.193484
C519	C	1.542508	0.515445	1.526818
N520	N	0.838654	-0.126400	0.878584
N521	N	1.171987	0.206933	1.211918
N522	N	1.505321	0.540266	1.545251
H523	H	1.096461	-0.298410	1.075263
H524	H	1.429794	0.034923	1.408596
H525	H	1.763128	0.368256	1.741930
C526	C	1.109295	-0.306982	0.983802
C527	C	1.442628	0.026352	1.317135
C528	C	1.775962	0.359685	1.650469
N529	N	1.146514	-0.331797	0.965386
N530	N	1.479847	0.001536	1.298719
N531	N	1.813181	0.334870	1.632052
H532	H	0.888620	-0.768452	0.159724
H533	H	1.221953	-0.435118	0.493058
H534	H	1.555286	-0.101785	0.826391
H535	H	0.888651	-0.159812	0.627930
H536	H	1.221984	0.173522	0.961263
H537	H	1.555317	0.506855	1.294596
C538	C	1.154107	-0.337019	0.628433
C539	C	1.487441	-0.003686	0.961766
C540	C	1.820774	0.329647	1.295100
N541	N	1.191302	-0.361847	0.610013
N542	N	1.524635	-0.028514	0.943346
N543	N	1.857969	0.304820	1.276679
H544	H	1.141292	-0.328445	0.719897
H545	H	1.474625	0.004889	1.053230
H546	H	1.807958	0.338222	1.386563
H547	H	0.888655	-0.159800	0.713035
H548	H	1.221988	0.173533	1.046368
H549	H	1.555322	0.506867	1.379701
H550	H	1.096413	-0.298505	0.502874
H551	H	1.429747	0.034829	0.836207
H552	H	1.763080	0.368162	1.169540
H553	H	1.096400	-0.298517	0.417750
H554	H	1.429733	0.034816	0.751083
H555	H	1.763067	0.368150	1.084416
