data_functionalizedCrystal
_audit_creation_method	'MofGen! by Chris Wilmer'
_symmetry_space_group_name_H-M	'P1'
_symmetry_Int_Tables_number	1
_symmetry_cell_setting	triclinic
loop_
_symmetry_equiv_pos_as_xyz
  x,y,z
_cell_length_a	18.215407
_cell_length_b	21.295417
_cell_length_c	18.215399
_cell_angle_alpha	89.968895
_cell_angle_beta	89.980167
_cell_angle_gamma	90.030150
loop_
_atom_site_label
_atom_site_type_symbol
_atom_site_fract_x
_atom_site_fract_y
_atom_site_fract_z
Zn1	Zn	1.125047	-0.250608	-0.416100
Zn2	Zn	1.124945	-0.355879	-0.293027
Zn3	Zn	1.001980	-0.250629	-0.293047
Zn4	Zn	1.001935	-0.355844	-0.416052
O5	O	1.063477	-0.303240	-0.354556
O6	O	1.228018	-0.264579	-0.399785
O7	O	1.108610	-0.341941	-0.190045
O8	O	1.018366	-0.162537	-0.309399
O9	O	1.227943	-0.341921	-0.309364
O10	O	1.108783	-0.162521	-0.399805
O11	O	1.018267	-0.264614	-0.190060
O12	O	0.898990	-0.264580	-0.309352
O13	O	1.018291	-0.341861	-0.519042
O14	O	0.898957	-0.341881	-0.399723
O15	O	1.108740	-0.264545	-0.519078
O16	O	1.108567	-0.443964	-0.309317
O17	O	1.018192	-0.443938	-0.399703
C18	C	0.872271	-0.303229	-0.354535
C19	C	0.790472	-0.303240	-0.354544
C20	C	1.063383	-0.466792	-0.354519
C21	C	1.063410	-0.536760	-0.354528
C22	C	0.602280	-0.343554	-0.401541
C23	C	0.525421	-0.343556	-0.401550
C24	C	0.525426	-0.262938	-0.307588
C25	C	0.602283	-0.262933	-0.307583
C26	C	0.640708	-0.303245	-0.354558
C27	C	0.486992	-0.303251	-0.354572
C28	C	0.403659	-0.303253	-0.354582
C29	C	0.724047	-0.303242	-0.354550
C30	C	1.110464	-0.569561	-0.401636
C31	C	1.110490	-0.635304	-0.401654
C32	C	1.063470	-0.668242	-0.354551
C33	C	1.016408	-0.635433	-0.307439
C34	C	1.016378	-0.569692	-0.307428
N35	N	1.057911	-0.771505	-0.290145
N36	N	1.057944	-0.833956	-0.290158
C37	C	1.063556	-0.866317	-0.354584
N38	N	1.069149	-0.833867	-0.418998
N39	N	1.069120	-0.771410	-0.418984
C40	C	1.063497	-0.739528	-0.354559
C41	C	1.110640	-0.970404	-0.401716
C42	C	1.110661	-1.036148	-0.401735
C43	C	1.016583	-1.036275	-0.307514
C44	C	1.016558	-0.970533	-0.307501
C45	C	1.063591	-0.937601	-0.354601
C46	C	1.255430	-0.303251	-0.354578
C47	C	1.337229	-0.303256	-0.354587
C48	C	1.063522	-0.303197	-0.546509
C49	C	1.063541	-0.303178	-0.628308
C50	C	1.063591	-0.139050	-0.354610
C51	C	1.063640	-0.069082	-0.354633
C52	C	1.110655	-0.262882	-0.816522
C53	C	1.110664	-0.262863	-0.893381
C54	C	1.016479	-0.343377	-0.893333
C55	C	1.016467	-0.343392	-0.816475
C56	C	1.063559	-0.303145	-0.778072
C57	C	1.063580	-0.303112	-0.931788
C58	C	1.063589	-0.303093	-1.015122
C59	C	1.063549	-0.303164	-0.694733
C60	C	1.063475	-0.303238	-0.163350
C61	C	1.063598	-0.303079	-0.081552
H62	H	0.494137	-0.376379	-0.439809
C63	C	1.161651	-0.670814	-0.452839
C64	C	1.202839	-0.627902	-0.494077
C65	C	1.249978	-0.660589	-0.541233
H66	H	1.133567	-0.696461	-0.484945
H67	H	1.193784	-0.696441	-0.424742
H68	H	1.170710	-0.602286	-0.522172
H69	H	1.230938	-0.602253	-0.461990
H70	H	1.282111	-0.686216	-0.513136
H71	H	1.221888	-0.686235	-0.573334
H72	H	1.277935	-0.631478	-0.569214
C73	C	1.161401	-0.533730	-0.452822
C74	C	1.119689	-0.495983	-0.499937
C75	C	1.166586	-0.462959	-0.547095
H76	H	1.189443	-0.562614	-0.480951
H77	H	1.193461	-0.508038	-0.424718
H78	H	1.087642	-0.521672	-0.528038
H79	H	1.091649	-0.467087	-0.471829
H80	H	1.198646	-0.437267	-0.518991
H81	H	1.194626	-0.491848	-0.575218
H82	H	1.138292	-0.437339	-0.579063
C83	C	0.965606	-1.072142	-0.256406
C84	C	0.975710	-1.136737	-0.266489
C85	C	0.928764	-1.169800	-0.219418
H86	H	0.916120	-1.061473	-0.267087
H87	H	0.976403	-1.061429	-0.206949
H88	H	0.964908	-1.147446	-0.315935
H89	H	1.025186	-1.147425	-0.255803
H90	H	0.939561	-1.159087	-0.169961
H91	H	0.879281	-1.159126	-0.230103
H92	H	0.935618	-1.213631	-0.226248
C93	C	0.965451	-0.387146	-0.774629
C94	C	1.007088	-0.427490	-0.730482
C95	C	0.960118	-0.467795	-0.691916
H96	H	0.937393	-0.411177	-0.808422
H97	H	0.933410	-0.363086	-0.744608
H98	H	1.039116	-0.451548	-0.760501
H99	H	1.035145	-0.403477	-0.696676
H100	H	0.928076	-0.443735	-0.661894
H101	H	0.932062	-0.491822	-0.725714
H102	H	0.988361	-0.495169	-0.661953
H103	H	0.494131	-0.230118	-0.269341
H104	H	0.633564	-0.376377	-0.439793
H105	H	0.978122	-0.662255	-0.269089
H106	H	0.633572	-0.230104	-0.269324
H107	H	1.148935	-0.943590	-0.440070
H108	H	0.978061	-0.542984	-0.269066
C109	C	1.161834	-1.071650	-0.452910
C110	C	1.203029	-1.028735	-0.494137
C111	C	1.250186	-1.061418	-0.541278
H112	H	1.133763	-1.097301	-0.485025
H113	H	1.193962	-1.097274	-0.424803
H114	H	1.170905	-1.003122	-0.522241
H115	H	1.231115	-1.003084	-0.462042
H116	H	1.282314	-1.087042	-0.513171
H117	H	1.222109	-1.087067	-0.573387
H118	H	1.278148	-1.032305	-0.569251
H119	H	0.978246	-0.943824	-0.269138
C120	C	0.965480	-0.387154	-0.935069
C121	C	1.007132	-0.427504	-0.979170
C122	C	0.960178	-0.467847	-1.017619
H123	H	0.933421	-0.363140	-0.965116
H124	H	0.937441	-0.411172	-0.901184
H125	H	1.035159	-0.403489	-1.013051
H126	H	1.039189	-0.451531	-0.949142
H127	H	0.932139	-0.491865	-0.983734
H128	H	0.928122	-0.443829	-1.047661
H129	H	0.988432	-0.495233	-1.047541
H130	H	1.148999	-0.230109	-0.785256
H131	H	1.149013	-0.230076	-0.924683
