data_functionalizedCrystal
_audit_creation_method	'MofGen! by Chris Wilmer'
_symmetry_space_group_name_H-M	'P1'
_symmetry_Int_Tables_number	1
_symmetry_cell_setting	triclinic
loop_
_symmetry_equiv_pos_as_xyz
  x,y,z
_cell_length_a	18.215407
_cell_length_b	13.031981
_cell_length_c	18.215399
_cell_angle_alpha	97.211043
_cell_angle_beta	90.017368
_cell_angle_gamma	97.189335
loop_
_atom_site_label
_atom_site_type_symbol
_atom_site_fract_x
_atom_site_fract_y
_atom_site_fract_z
Zn1	Zn	1.087911	-0.416191	0.378823
Zn2	Zn	1.421244	-0.082857	0.712157
Zn3	Zn	1.754577	0.250476	1.045490
Zn4	Zn	1.072212	-0.590982	0.240115
Zn5	Zn	1.405546	-0.257648	0.573448
Zn6	Zn	1.738879	0.075685	0.906782
Zn7	Zn	0.964841	-0.416216	0.255774
Zn8	Zn	1.298174	-0.082882	0.589107
Zn9	Zn	1.631508	0.250451	0.922440
Zn10	Zn	0.949208	-0.590914	0.363151
Zn11	Zn	1.282542	-0.257581	0.696485
Zn12	Zn	1.615875	0.075752	1.029818
O13	O	1.018543	-0.503576	0.309466
O14	O	1.351877	-0.170242	0.642799
O15	O	1.685210	0.163091	0.976132
O16	O	1.188811	-0.439395	0.360429
O17	O	1.522144	-0.106061	0.693762
O18	O	1.855478	0.227272	1.027095
O19	O	1.057942	-0.567837	0.139204
O20	O	1.391275	-0.234504	0.472538
O21	O	1.724608	0.098829	0.805871
O22	O	0.994279	-0.269950	0.285208
O23	O	1.327612	0.063384	0.618542
O24	O	1.660945	0.396717	0.951875
O25	O	1.177277	-0.567813	0.258521
O26	O	1.510611	-0.234480	0.591854
O27	O	1.843944	0.098854	0.925187
O28	O	1.084698	-0.269931	0.375612
O29	O	1.418031	0.063402	0.708946
O30	O	1.751364	0.396735	1.042279
O31	O	0.979057	-0.439437	0.150709
O32	O	1.312390	-0.106104	0.484042
O33	O	1.645723	0.227229	0.817375
O34	O	0.859785	-0.439372	0.270012
O35	O	1.193118	-0.106039	0.603345
O36	O	1.526451	0.227295	0.936679
O37	O	0.967635	-0.567698	0.468218
O38	O	1.300968	-0.234365	0.801551
O39	O	1.634302	0.098969	1.134885
O40	O	0.848299	-0.567722	0.348902
O41	O	1.181633	-0.234389	0.682235
O42	O	1.514966	0.098944	1.015569
O43	O	1.069539	-0.439329	0.479732
O44	O	1.402872	-0.105996	0.813065
O45	O	1.736206	0.227337	1.146399
O46	O	1.042783	-0.737235	0.243324
O47	O	1.376117	-0.403902	0.576658
O48	O	1.709450	-0.070569	0.909991
O49	O	0.952413	-0.737186	0.333718
O50	O	1.285746	-0.403852	0.667052
O51	O	1.619080	-0.070519	1.000385
C52	C	0.827340	-0.503543	0.309456
C53	C	1.160673	-0.170210	0.642789
C54	C	1.494006	0.163123	0.976122
C55	C	0.745540	-0.503555	0.309467
C56	C	1.078873	-0.170222	0.642800
C57	C	1.412207	0.163112	0.976133
C58	C	0.563338	-0.436825	0.362592
C59	C	0.896672	-0.103492	0.695926
C60	C	1.230005	0.229842	1.029259
C61	C	0.486479	-0.436834	0.362594
C62	C	0.819812	-0.103501	0.695927
C63	C	1.153145	0.229833	1.029261
C64	C	0.474498	-0.570355	0.256350
C65	C	0.807831	-0.237022	0.589683
C66	C	1.141164	0.096311	0.923016
C67	C	0.551356	-0.570340	0.256345
C68	C	0.884690	-0.237007	0.589679
C69	C	1.218023	0.096326	0.923012
C70	C	0.595774	-0.503577	0.309471
C71	C	0.929108	-0.170243	0.642804
C72	C	1.262441	0.163090	0.976137
C73	C	0.442056	-0.503601	0.309477
C74	C	0.775390	-0.170267	0.642810
C75	C	1.108723	0.163066	0.976143
C76	C	0.358722	-0.503611	0.309478
C77	C	0.692055	-0.170278	0.642811
C78	C	1.025388	0.163056	0.976145
C79	C	0.679114	-0.503565	0.309469
C80	C	1.012448	-0.170232	0.642802
C81	C	1.345781	0.163102	0.976135
C82	C	0.994218	-0.775135	0.285138
C83	C	1.327552	-0.441801	0.618471
C84	C	1.660885	-0.108468	0.951804
C85	C	0.983879	-0.891309	0.274755
C86	C	1.317213	-0.557976	0.608088
C87	C	1.650546	-0.224642	0.941421
C88	C	1.023978	-0.943011	0.314900
C89	C	1.357312	-0.609677	0.648233
C90	C	1.690645	-0.276344	0.981566
C91	C	1.013293	-1.063083	0.304169
C92	C	1.346627	-0.729749	0.637502
C93	C	1.679960	-0.396416	0.970836
C94	C	1.210493	-0.503609	0.309476
C95	C	1.543826	-0.170275	0.642810
C96	C	1.877160	0.163058	0.976143
C97	C	1.292291	-0.503623	0.309481
C98	C	1.625624	-0.170289	0.642814
C99	C	1.958957	0.163044	0.976147
C100	C	1.018594	-0.503503	0.501425
C101	C	1.351928	-0.170170	0.834759
C102	C	1.685261	0.163163	1.168092
C103	C	1.018616	-0.503473	0.583227
C104	C	1.351950	-0.170139	0.916560
C105	C	1.685283	0.163194	1.249894
C106	C	1.042983	-0.230956	0.333905
C107	C	1.376316	0.102377	0.667238
C108	C	1.709650	0.435711	1.000572
C109	C	1.053398	-0.114782	0.344320
C110	C	1.386731	0.218552	0.677653
C111	C	1.720065	0.551885	1.010986
C112	C	1.018541	-0.503572	0.118260
C113	C	1.351875	-0.170239	0.451593
C114	C	1.685208	0.163095	0.784927
C115	C	1.018688	-0.503308	0.036485
C116	C	1.352022	-0.169975	0.369818
C117	C	1.685355	0.163358	0.703152
C118	C	1.071700	-0.436569	0.777423
C119	C	1.405034	-0.103235	1.110756
C120	C	1.738367	0.230098	1.444090
C121	C	1.071712	-0.436538	0.854285
C122	C	1.405045	-0.103205	1.187618
C123	C	1.738378	0.230128	1.520951
C124	C	0.965599	-0.570215	0.842283
C125	C	1.298932	-0.236882	1.175617
C126	C	1.632265	0.096451	1.508950
C127	C	0.965585	-0.570240	0.765424
C128	C	1.298918	-0.236906	1.098757
C129	C	1.632251	0.096427	1.432090
C130	C	1.018639	-0.503418	0.732995
C131	C	1.351973	-0.170085	1.066329
C132	C	1.685306	0.163249	1.399662
C133	C	1.018665	-0.503363	0.886717
C134	C	1.351998	-0.170030	1.220050
C135	C	1.685332	0.163304	1.553383
C136	C	1.018677	-0.503331	0.970053
C137	C	1.352010	-0.169997	1.303386
C138	C	1.685344	0.163336	1.636720
C139	C	1.018627	-0.503449	0.649654
C140	C	1.351960	-0.170115	0.982987
C141	C	1.685293	0.163218	1.316320
H142	H	0.577766	-0.624698	0.213083
H143	H	0.911099	-0.291365	0.546417
H144	H	1.244433	0.041968	0.879750
C145	C	1.081044	-0.882731	0.372061
C146	C	1.414377	-0.549397	0.705395
C147	C	1.747710	-0.216064	1.038728
H148	H	1.080743	-0.809936	0.371771
H149	H	1.414076	-0.476603	0.705104
H150	H	1.747409	-0.143270	1.038437
H151	H	1.068675	-0.900536	0.419919
H152	H	1.402008	-0.567203	0.753253
H153	H	1.735342	-0.233869	1.086586
H154	H	1.128927	-0.900522	0.359749
H155	H	1.462261	-0.567189	0.693082
H156	H	1.795594	-0.233856	1.026416
C157	C	0.612196	-0.363381	0.421022
C158	C	0.945530	-0.030047	0.754356
C159	C	1.278863	0.303286	1.087689
H160	H	0.581868	-0.323621	0.452655
H161	H	0.915201	0.009712	0.785989
H162	H	1.248535	0.343046	1.119322
H163	H	0.638610	-0.403410	0.449456
H164	H	0.971943	-0.070076	0.782789
H165	H	1.305277	0.263257	1.116123
H166	H	0.646246	-0.317781	0.396999
H167	H	0.979579	0.015552	0.730332
H168	H	1.312913	0.348886	1.063666
H169	H	0.971047	-1.107708	0.261856
H170	H	1.304380	-0.774375	0.595189
H171	H	1.637713	-0.441041	0.928523
C172	C	0.907247	-0.643723	0.877953
C173	C	1.240580	-0.310390	1.211286
C174	C	1.573914	0.022944	1.544619
H175	H	0.875640	-0.683533	0.840484
H176	H	1.208973	-0.350200	1.173817
H177	H	1.542306	-0.016867	1.507150
H178	H	0.931323	-0.689257	0.903855
H179	H	1.264656	-0.355924	1.237188
H180	H	1.597990	-0.022590	1.570522
H181	H	0.878768	-0.603723	0.911517
H182	H	1.212101	-0.270389	1.244850
H183	H	1.545435	0.062944	1.578184
H184	H	1.095639	-1.070158	0.386639
H185	H	1.428972	-0.736824	0.719972
H186	H	1.762305	-0.403491	1.053306
C187	C	1.130052	-0.363063	0.741751
C188	C	1.463385	-0.029730	1.075084
C189	C	1.796718	0.303603	1.408418
H190	H	1.122450	-0.372656	0.689612
H191	H	1.455783	-0.039323	1.022946
H192	H	1.789116	0.294010	1.356279
H193	H	1.125577	-0.292832	0.760643
H194	H	1.458910	0.040501	1.093977
H195	H	1.792244	0.373835	1.427310
H196	H	1.178131	-0.378367	0.752983
H197	H	1.511465	-0.045034	1.086316
H198	H	1.844798	0.288299	1.419650
C199	C	0.907216	-0.643775	0.716547
C200	C	1.240550	-0.310442	1.049880
C201	C	1.573883	0.022892	1.383213
H202	H	0.914803	-0.634209	0.666129
H203	H	1.248136	-0.300876	0.999462
H204	H	1.581469	0.032458	1.332796
H205	H	0.911691	-0.714000	0.722843
H206	H	1.245025	-0.380667	1.056177
H207	H	1.578358	-0.047334	1.389510
H208	H	0.859141	-0.628459	0.730508
H209	H	1.192475	-0.295126	1.063842
H210	H	1.525808	0.038207	1.397175
H211	H	0.438323	-0.624713	0.213097
H212	H	0.771656	-0.291379	0.546431
H213	H	1.104990	0.041954	0.879764
H214	H	0.941635	-0.935938	0.232445
H215	H	1.274969	-0.602605	0.565778
H216	H	1.608302	-0.269271	0.899111
C217	C	1.130084	-0.363018	0.903154
C218	C	1.463418	-0.029684	1.236488
C219	C	1.796751	0.303649	1.569821
H220	H	1.122493	-0.372565	0.953575
H221	H	1.455827	-0.039232	1.286908
H222	H	1.789160	0.294101	1.620241
H223	H	1.178154	-0.378334	0.889190
H224	H	1.511487	-0.045001	1.222524
H225	H	1.844821	0.288333	1.555857
H226	H	1.125609	-0.292788	0.896855
H227	H	1.458942	0.040546	1.230189
H228	H	1.792275	0.373879	1.563522
C229	C	0.450801	-0.363413	0.421031
C230	C	0.784135	-0.030079	0.754364
C231	C	1.117468	0.303254	1.087698
H232	H	0.488265	-0.323657	0.452671
H233	H	0.821598	0.009676	0.786004
H234	H	1.154931	0.343009	1.119338
H235	H	0.424887	-0.317824	0.397021
H236	H	0.758221	0.015509	0.730354
H237	H	1.091554	0.348843	1.063687
H238	H	0.417248	-0.403466	0.449466
H239	H	0.750582	-0.070133	0.782800
H240	H	1.083915	0.263200	1.116133
