data_functionalizedCrystal
_audit_creation_method	'MofGen! by Chris Wilmer'
_symmetry_space_group_name_H-M	'P1'
_symmetry_Int_Tables_number	1
_symmetry_cell_setting	triclinic
loop_
_symmetry_equiv_pos_as_xyz
  x,y,z
_cell_length_a	12.759399
_cell_length_b	12.759401
_cell_length_c	12.759401
_cell_angle_alpha	89.993434
_cell_angle_beta	90.008321
_cell_angle_gamma	89.986676
loop_
_atom_site_label
_atom_site_type_symbol
_atom_site_fract_x
_atom_site_fract_y
_atom_site_fract_z
Zn1	Zn	-0.418500	-1.606118	0.594006
Zn2	Zn	-0.085167	-1.272785	0.927339
Zn3	Zn	0.248167	-0.939451	1.260673
Zn4	Zn	-0.594146	-1.606051	0.418325
Zn5	Zn	-0.260813	-1.272718	0.751659
Zn6	Zn	0.072520	-0.939384	1.084992
Zn7	Zn	-0.418476	-1.430460	0.418343
Zn8	Zn	-0.085143	-1.097126	0.751676
Zn9	Zn	0.248190	-0.763793	1.085009
Zn10	Zn	-0.594132	-1.430407	0.593963
Zn11	Zn	-0.260799	-1.097074	0.927297
Zn12	Zn	0.072535	-0.763741	1.260630
O13	O	-0.506314	-1.518259	0.506159
O14	O	-0.172980	-1.184926	0.839493
O15	O	0.160353	-0.851592	1.172826
O16	O	-0.441816	-1.753130	0.570712
O17	O	-0.108482	-1.419797	0.904046
O18	O	0.224851	-1.086464	1.237379
O19	O	-0.570839	-1.582752	0.271306
O20	O	-0.237506	-1.249419	0.604640
O21	O	0.095827	-0.916085	0.937973
O22	O	-0.271458	-1.453811	0.441670
O23	O	0.061875	-1.120478	0.775003
O24	O	0.395208	-0.787145	1.108337
O25	O	-0.570862	-1.753081	0.441640
O26	O	-0.237529	-1.419747	0.774974
O27	O	0.095805	-1.086414	1.108307
O28	O	-0.271476	-1.582867	0.570729
O29	O	0.061858	-1.249533	0.904063
O30	O	0.395191	-0.916200	1.237396
O31	O	-0.441775	-1.453746	0.271319
O32	O	-0.108442	-1.120413	0.604653
O33	O	0.224891	-0.787079	0.937986
O34	O	-0.441762	-1.283432	0.441628
O35	O	-0.108428	-0.950098	0.774962
O36	O	0.224905	-0.616765	1.108295
O37	O	-0.570838	-1.453722	0.740990
O38	O	-0.237504	-1.120389	1.074323
O39	O	0.095829	-0.787055	1.407657
O40	O	-0.570815	-1.283393	0.570656
O41	O	-0.237482	-0.950060	0.903990
O42	O	0.095852	-0.616727	1.237323
O43	O	-0.441802	-1.582816	0.741021
O44	O	-0.108468	-1.249483	1.074355
O45	O	0.224865	-0.916149	1.407688
O46	O	-0.741165	-1.582701	0.441599
O47	O	-0.407832	-1.249368	0.774932
O48	O	-0.074499	-0.916035	1.108265
O49	O	-0.741155	-1.453657	0.570639
O50	O	-0.407821	-1.120324	0.903973
O51	O	-0.074488	-0.786990	1.237306
C52	C	-0.506285	-1.245292	0.506140
C53	C	-0.172952	-0.911958	0.839474
C54	C	0.160382	-0.578625	1.172807
C55	C	-0.506298	-1.128515	0.506157
C56	C	-0.172965	-0.795182	0.839490
C57	C	0.160369	-0.461848	1.172824
C58	C	-0.439223	-1.073679	0.573468
C59	C	-0.105889	-0.740346	0.906801
C60	C	0.227444	-0.407013	1.240134
C61	C	-0.439229	-0.963955	0.573473
C62	C	-0.105896	-0.630622	0.906806
C63	C	0.227437	-0.297289	1.240140
C64	C	-0.573395	-0.963912	0.438854
C65	C	-0.240062	-0.630579	0.772187
C66	C	0.093272	-0.297246	1.105521
C67	C	-0.573383	-1.073634	0.438844
C68	C	-0.240049	-0.740301	0.772178
C69	C	0.093284	-0.406968	1.105511
C70	C	-0.779281	-1.518195	0.506135
C71	C	-0.445948	-1.184861	0.839469
C72	C	-0.112614	-0.851528	1.172802
C73	C	-0.896058	-1.518263	0.506160
C74	C	-0.562724	-1.184930	0.839494
C75	C	-0.229391	-0.851597	1.172827
C76	C	-0.950890	-1.585533	0.439045
C77	C	-0.617557	-1.252200	0.772379
C78	C	-0.284223	-0.918867	1.105712
C79	C	-1.060614	-1.585601	0.439081
C80	C	-0.727281	-1.252267	0.772414
C81	C	-0.393947	-0.918934	1.105747
C82	C	-1.060663	-1.451119	0.573349
C83	C	-0.727330	-1.117786	0.906682
C84	C	-0.393997	-0.784452	1.240016
C85	C	-0.950941	-1.451058	0.573318
C86	C	-0.617608	-1.117724	0.906651
C87	C	-0.284275	-0.784391	1.239985
C88	C	-0.232280	-1.518352	0.506206
C89	C	0.101053	-1.185019	0.839540
C90	C	0.434386	-0.851686	1.172873
C91	C	-0.115504	-1.518392	0.506226
C92	C	0.217830	-1.185059	0.839560
C93	C	0.551163	-0.851725	1.172893
C94	C	-0.506321	-1.518271	0.780193
C95	C	-0.172987	-1.184937	1.113526
C96	C	0.160346	-0.851604	1.446859
C97	C	-0.506324	-1.518276	0.896969
C98	C	-0.172990	-1.184942	1.230303
C99	C	0.160343	-0.851609	1.563636
C100	C	-0.506333	-0.792292	0.506175
C101	C	-0.173000	-0.458959	0.839509
C102	C	0.160333	-0.125626	1.172842
C103	C	-0.506317	-0.909069	0.506172
C104	C	-0.172984	-0.575736	0.839505
C105	C	0.160350	-0.242402	1.172839
C106	C	-0.439146	-1.585486	0.951849
C107	C	-0.105812	-1.252153	1.285183
C108	C	0.227521	-0.918820	1.618516
C109	C	-0.439144	-1.585477	1.061573
C110	C	-0.105810	-1.252144	1.394907
C111	C	0.227523	-0.918811	1.728240
C112	C	-0.573507	-1.451044	1.061528
C113	C	-0.240174	-1.117711	1.394861
C114	C	0.093160	-0.784377	1.728194
C115	C	-0.573503	-1.451048	0.951806
C116	C	-0.240170	-1.117715	1.285139
C117	C	0.093164	-0.784382	1.618472
C118	C	-0.506330	-1.518246	1.233192
C119	C	-0.172996	-1.184913	1.566525
C120	C	0.160337	-0.851580	1.899859
C121	C	-0.506326	-1.518262	1.116415
C122	C	-0.172993	-1.184929	1.449749
C123	C	0.160341	-0.851595	1.783082
H124	H	-0.628004	-1.118283	0.384026
H125	H	-0.294671	-0.784949	0.717360
H126	H	0.038662	-0.451616	1.050693
H127	H	-0.906206	-1.640258	0.384363
H128	H	-0.572873	-1.306924	0.717696
H129	H	-0.239540	-0.973591	1.051030
H130	H	-1.105254	-1.640380	0.384430
H131	H	-0.771921	-1.307047	0.717763
H132	H	-0.438587	-0.973714	1.051097
H133	H	-0.384439	-1.640205	1.106252
H134	H	-0.051105	-1.306872	1.439585
H135	H	0.282228	-0.973539	1.772918
H136	H	-0.906294	-1.396278	0.627976
H137	H	-0.572960	-1.062945	0.961310
H138	H	-0.239627	-0.729611	1.294643
Cl139	Cl	-1.129668	-1.366633	0.657768
Cl140	Cl	-0.796334	-1.033300	0.991101
Cl141	Cl	-0.463001	-0.699967	1.324434
H142	H	-0.384441	-1.640224	0.907205
H143	H	-0.051108	-1.306891	1.240538
H144	H	0.282226	-0.973558	1.573871
Cl145	Cl	-0.354883	-1.142669	0.658084
Cl146	Cl	-0.021550	-0.809335	0.991418
Cl147	Cl	0.311783	-0.476002	1.324751
H148	H	-0.628204	-1.396312	1.106189
H149	H	-0.294871	-1.062979	1.439522
H150	H	0.038463	-0.729646	1.772856
Cl151	Cl	-0.657957	-1.366542	0.882808
Cl152	Cl	-0.324623	-1.033208	1.216142
Cl153	Cl	0.008710	-0.699875	1.549475
H154	H	-0.384608	-0.919313	0.628282
H155	H	-0.051275	-0.585980	0.961616
H156	H	0.282058	-0.252646	1.294949
Cl157	Cl	-0.657729	-0.894912	0.354241
Cl158	Cl	-0.324396	-0.561579	0.687574
Cl159	Cl	0.008938	-0.228245	1.020907
