data_functionalizedCrystal
_audit_creation_method	'MofGen! by Chris Wilmer'
_symmetry_space_group_name_H-M	'P1'
_symmetry_Int_Tables_number	1
_symmetry_cell_setting	triclinic
loop_
_symmetry_equiv_pos_as_xyz
  x,y,z
_cell_length_a	15.944564
_cell_length_b	26.809956
_cell_length_c	15.944551
_cell_angle_alpha	89.996609
_cell_angle_beta	96.498664
_cell_angle_gamma	89.995659
loop_
_atom_site_label
_atom_site_type_symbol
_atom_site_fract_x
_atom_site_fract_y
_atom_site_fract_z
O1	O	-1.114524	0.041429	0.108371
O2	O	-0.614524	0.541429	0.608371
O3	O	-0.869976	0.041441	0.121716
O4	O	-0.369976	0.541441	0.621716
O5	O	-0.998928	0.041430	-0.007231
O6	O	-0.498928	0.541430	0.492769
O7	O	-0.985572	0.041440	0.237318
O8	O	-0.485572	0.541440	0.737318
O9	O	-0.998904	-0.041529	-0.007211
O10	O	-0.498904	0.458471	0.492789
O11	O	-0.869952	-0.041518	0.121736
O12	O	-0.369952	0.458482	0.621736
O13	O	-1.114500	-0.041531	0.108391
O14	O	-0.614500	0.458469	0.608391
Zn15	Zn	-0.992222	-0.054696	0.115066
Zn16	Zn	-0.492222	0.445304	0.615066
Zn17	Zn	-0.992254	0.054607	0.115041
Zn18	Zn	-0.492254	0.554607	0.615041
O19	O	-0.985548	-0.041519	0.237338
O20	O	-0.485548	0.458481	0.737338
C21	C	-0.838670	-0.000037	0.121170
C22	C	-0.338670	0.499963	0.621170
C23	C	-0.745425	-0.000032	0.119504
C24	C	-0.245425	0.499968	0.619504
C25	C	-0.530569	-0.000045	0.035589
C26	C	-0.030569	0.499955	0.535589
C27	C	-0.469561	0.040860	0.074539
C28	C	0.030439	0.540860	0.574539
C29	C	-0.574700	-0.000038	0.116488
C30	C	-0.074700	0.499962	0.616488
C31	C	-0.469560	-0.040932	0.074578
C32	C	0.030440	0.459068	0.574578
C33	C	-0.409788	-0.000046	0.113570
C34	C	0.090212	0.499954	0.613570
C35	C	-0.514920	0.040900	0.155461
C36	C	-0.014920	0.540900	0.655461
C37	C	-0.514925	-0.040928	0.155488
C38	C	-0.014925	0.459072	0.655488
C39	C	-0.453935	-0.000013	0.194497
C40	C	0.046065	0.499987	0.694497
C41	C	-0.669701	-0.000033	0.118167
C42	C	-0.169701	0.499967	0.618167
C43	C	-0.314787	-0.000048	0.111898
C44	C	0.185213	0.499952	0.611898
N45	N	-0.992206	-0.129292	0.115084
N46	N	-0.492206	0.370708	0.615084
C47	C	-1.049347	-0.473923	0.057957
C48	C	-0.549347	0.026077	0.557957
C49	C	-1.049366	-0.682801	0.057944
C50	C	-0.549366	-0.182801	0.557944
O51	O	-1.097915	-0.709809	0.009378
O52	O	-0.597915	-0.209809	0.509378
N53	N	-0.992258	-0.708919	0.115022
N54	N	-0.492258	-0.208919	0.615022
C55	C	-0.935138	-0.682815	0.172104
C56	C	-0.435138	-0.182815	0.672104
O57	O	-0.886558	-0.709823	0.220646
O58	O	-0.386558	-0.209823	0.720646
C59	C	-0.935114	-0.473938	0.172112
C60	C	-0.435114	0.026062	0.672112
C61	C	-0.992232	-0.447822	0.115036
C62	C	-0.492232	0.052178	0.615036
C63	C	-1.106459	-0.447807	0.000885
C64	C	-0.606459	0.052193	0.500885
C65	C	-1.106456	-0.395591	0.000892
C66	C	-0.606456	0.104409	0.500892
C67	C	-1.049342	-0.369490	0.057971
C68	C	-0.549342	0.130510	0.557971
C69	C	-0.992229	-0.395606	0.115042
C70	C	-0.492229	0.104394	0.615042
C71	C	-0.877990	-0.447835	0.229188
C72	C	-0.377990	0.052165	0.729188
C73	C	-0.877988	-0.395612	0.229184
C74	C	-0.377988	0.104388	0.729184
C75	C	-0.935106	-0.369497	0.172108
C76	C	-0.435106	0.130503	0.672108
C77	C	-0.935112	-0.317289	0.172128
C78	C	-0.435112	0.182711	0.672128
N79	N	-0.992220	-0.291171	0.115050
N80	N	-0.492220	0.208829	0.615050
C81	C	-1.049335	-0.317271	0.057971
C82	C	-0.549335	0.182729	0.557971
C83	C	-0.935155	-0.792478	0.172096
C84	C	-0.435155	-0.292478	0.672096
C85	C	-0.935162	-0.844697	0.172095
C86	C	-0.435162	-0.344697	0.672095
C87	C	-1.049390	-0.844679	0.057935
C88	C	-0.549390	-0.344679	0.557935
C89	C	-1.049386	-0.792459	0.057940
C90	C	-0.549386	-0.292459	0.557940
C91	C	-0.992263	-0.766360	0.115018
C92	C	-0.492263	-0.266360	0.615018
C93	C	-1.049326	-0.207613	0.057991
C94	C	-0.549326	0.292387	0.557991
C95	C	-1.049321	-0.155392	0.058005
C96	C	-0.549321	0.344608	0.558005
C97	C	-0.935090	-0.155415	0.172162
C98	C	-0.435090	0.344585	0.672162
C99	C	-0.935098	-0.207631	0.172151
C100	C	-0.435098	0.292369	0.672151
C101	C	-0.992219	-0.233729	0.115058
C102	C	-0.492219	0.266271	0.615058
O103	O	-0.886583	-0.290249	0.220662
O104	O	-0.386583	0.209751	0.720662
O105	O	-1.097895	-0.290254	0.009424
O106	O	-0.597895	0.209746	0.509424
C107	C	-1.049349	-0.526139	0.057950
C108	C	-0.549349	-0.026139	0.557950
C109	C	-0.992237	-0.552255	0.115022
C110	C	-0.492237	-0.052255	0.615022
C111	C	-0.935122	-0.526154	0.172101
C112	C	-0.435122	-0.026154	0.672101
C113	C	-0.992244	-0.604474	0.115021
C114	C	-0.492244	-0.104474	0.615021
C115	C	-1.049358	-0.630574	0.057942
C116	C	-0.549358	-0.130574	0.557942
C117	C	-1.106466	-0.604456	0.000864
C118	C	-0.606466	-0.104456	0.500864
C119	C	-1.106464	-0.552240	0.000871
C120	C	-0.606464	-0.052240	0.500871
C121	C	-0.878014	-0.552273	0.229179
C122	C	-0.378014	-0.052273	0.729179
C123	C	-0.878022	-0.604489	0.229168
C124	C	-0.378022	-0.104489	0.729168
C125	C	-0.935137	-0.630590	0.172089
C126	C	-0.435137	-0.130590	0.672089
C127	C	-0.145807	-0.000051	0.108925
C128	C	0.354193	0.499949	0.608925
C129	C	-0.239057	-0.000053	0.110558
C130	C	0.260943	0.499947	0.610558
C131	C	-0.998361	-0.000050	-0.038515
C132	C	-0.498361	0.499950	0.461485
C133	C	-0.996699	-0.000050	-0.131761
C134	C	-0.496699	0.499950	0.368239
N135	N	-0.992276	0.129202	0.115017
N136	N	-0.492276	0.629202	0.615017
C137	C	-0.912795	-0.000039	-0.346622
C138	C	-0.412795	0.499961	0.153378
C139	C	-0.951745	-0.040945	-0.407627
C140	C	-0.451745	0.459055	0.092373
C141	C	-0.993692	-0.000046	-0.302487
C142	C	-0.493692	0.499954	0.197513
C143	C	-0.951789	0.040847	-0.407630
C144	C	-0.451789	0.540847	0.092370
C145	C	-0.990781	-0.000040	-0.467400
C146	C	-0.490781	0.499960	0.032600
C147	C	-1.032664	-0.040985	-0.362265
C148	C	-0.532664	0.459015	0.137735
C149	C	-1.032696	0.040843	-0.362261
C150	C	-0.532696	0.540843	0.137739
C151	C	-1.071705	-0.000073	-0.423249
C152	C	-0.571705	0.499927	0.076751
C153	C	-0.995366	-0.000050	-0.207485
C154	C	-0.495366	0.499950	0.292515
C155	C	-0.989113	-0.000039	-0.562401
C156	C	-0.489113	0.499961	-0.062401
C157	C	-0.986114	-0.000039	0.268622
C158	C	-0.486114	0.499961	0.768622
C159	C	-0.987777	-0.000035	0.361868
C160	C	-0.487777	0.499965	0.861868
H161	H	-0.449463	-0.075512	0.040354
H162	H	0.050537	0.424488	0.540354
Cl163	Cl	-1.085434	-0.094437	-0.331392
Cl164	Cl	-0.585434	0.405563	0.168608
H165	H	-0.535046	-0.075509	0.189685
H166	H	-0.035046	0.424491	0.689685
Cl167	Cl	-1.121132	-0.122564	-0.013752
Cl168	Cl	-0.621132	0.377436	0.486248
H169	H	-1.152968	-0.469053	-0.045599
H170	H	-0.652968	0.030947	0.454401
H171	H	-1.095896	-0.771199	0.011464
H172	H	-0.595896	-0.271199	0.511464
Cl173	Cl	-1.121138	-0.240414	-0.013783
Cl174	Cl	-0.621138	0.259586	0.486217
H175	H	-1.095896	-0.865939	0.011460
H176	H	-0.595896	-0.365939	0.511460
Cl177	Cl	-0.863339	-0.759673	0.243861
Cl178	Cl	-0.363339	-0.259673	0.743861
H179	H	-1.066893	0.075424	-0.342137
H180	H	-0.566893	0.575424	0.157863
Cl181	Cl	-0.898906	-0.094332	-0.438664
Cl182	Cl	-0.398906	0.405668	0.061336
H183	H	-0.845647	-0.000076	-0.313317
H184	H	-0.345647	0.499924	0.186683
H185	H	-0.888590	-0.134156	0.218638
H186	H	-0.388590	0.365844	0.718638
Cl187	Cl	-0.898956	0.094236	-0.438664
Cl188	Cl	-0.398956	0.594236	0.061336
H189	H	-1.152974	-0.625715	-0.045609
H190	H	-0.652974	-0.125715	0.454391
H191	H	-0.888660	-0.865957	0.218581
H192	H	-0.388660	-0.365957	0.718581
H193	H	-1.138912	-0.000100	-0.456405
H194	H	-0.638912	0.499900	0.043595
Cl195	Cl	-0.806207	-0.519467	0.300942
Cl196	Cl	-0.306207	-0.019467	0.800942
Cl197	Cl	-0.581995	0.000011	-0.068078
Cl198	Cl	-0.081995	0.500011	0.431922
H199	H	-0.449461	0.075439	0.040314
H200	H	0.050539	0.575439	0.540314
H201	H	-0.420776	0.000013	0.261702
H202	H	0.079224	0.500013	0.761702
Cl203	Cl	-0.806169	-0.362805	0.300943
Cl204	Cl	-0.306169	0.137195	0.800943
Cl205	Cl	-1.178258	-0.362765	-0.070869
Cl206	Cl	-0.678258	0.137235	0.429131
Cl207	Cl	-0.545790	0.094351	0.208236
Cl208	Cl	-0.045790	0.594351	0.708236
H209	H	-1.152974	-0.530980	-0.045605
H210	H	-0.652974	-0.030980	0.454395
Cl211	Cl	-0.806180	-0.480655	0.300942
Cl212	Cl	-0.306180	0.019345	0.800942
Cl213	Cl	-0.806213	-0.637315	0.300931
Cl214	Cl	-0.306213	-0.137315	0.800931
Cl215	Cl	-0.863300	-0.240461	0.243915
Cl216	Cl	-0.363300	0.259539	0.743915
