data_functionalizedCrystal
_audit_creation_method	'MofGen! by Chris Wilmer'
_symmetry_space_group_name_H-M	'P1'
_symmetry_Int_Tables_number	1
_symmetry_cell_setting	triclinic
loop_
_symmetry_equiv_pos_as_xyz
  x,y,z
_cell_length_a	27.354012
_cell_length_b	27.353283
_cell_length_c	27.349551
_cell_angle_alpha	60.005606
_cell_angle_beta	60.011434
_cell_angle_gamma	59.993282
loop_
_atom_site_label
_atom_site_type_symbol
_atom_site_fract_x
_atom_site_fract_y
_atom_site_fract_z
O1	O	0.067635	-0.714267	0.597330
O2	O	0.025429	-0.556105	0.481282
O3	O	0.125575	-0.656186	0.481214
O4	O	-0.032512	-0.614186	0.597397
O5	O	0.158797	-0.622968	0.514367
O6	O	0.058650	-0.522887	0.514434
O7	O	0.100856	-0.681048	0.630482
Zn8	Zn	0.085028	-0.596693	0.577722
Zn9	Zn	0.041257	-0.640460	0.534042
O10	O	0.000709	-0.580967	0.630549
N11	N	0.114901	-0.566828	0.607534
N12	N	0.011389	-0.670331	0.504229
C13	C	0.179404	-0.338196	0.672015
C14	C	0.179501	-0.502386	0.836160
C15	C	0.179415	-0.502363	0.671996
C16	C	0.343611	-0.502373	0.671960
C17	C	0.197478	-0.392371	0.690061
C18	C	0.197534	-0.484321	0.781984
C19	C	0.289434	-0.484312	0.690032
C20	C	0.197486	-0.484308	0.690051
C21	C	0.156398	-0.269238	0.649045
C22	C	0.156418	-0.525342	0.649015
C23	C	0.220484	-0.461329	0.713032
C24	C	0.443889	-0.485097	0.619172
C25	C	0.506571	-0.505993	0.598266
C26	C	0.506589	-0.607412	0.636940
C27	C	0.443909	-0.586515	0.657848
C28	C	0.171510	-0.237888	0.587422
C29	C	0.150593	-0.175201	0.566543
C30	C	0.099458	-0.175218	0.668913
C31	C	0.120375	-0.237905	0.689792
C32	C	0.094789	-0.510201	0.664176
C33	C	0.073888	-0.531091	0.643278
C34	C	0.176239	-0.582263	0.592072
C35	C	0.197142	-0.561373	0.612963
C36	C	0.094933	-0.510244	0.936476
C37	C	0.074073	-0.531151	0.999161
C38	C	0.176453	-0.582335	0.999126
C39	C	0.197312	-0.561429	0.936439
C40	C	0.156551	-0.525382	0.905116
C41	C	0.412561	-0.525357	0.648961
C42	C	-0.098513	-0.688235	0.485867
C43	C	-0.006461	-0.688368	0.394066
C44	C	-0.006645	-0.780264	0.486040
C45	C	-0.006630	-0.688361	0.486097
C46	C	-0.029562	-0.711308	0.463018
N47	N	0.537030	-0.566846	0.607436
O48	O	0.741877	-0.576849	0.459995
O49	O	0.742050	-0.693241	0.618010
O50	O	0.741986	-0.692977	0.517791
O51	O	0.741941	-0.577114	0.560214
O52	O	0.642405	-0.659839	0.551046
O53	O	0.642469	-0.660104	0.651265
O54	O	0.642296	-0.543712	0.493251
Zn55	Zn	0.626572	-0.596646	0.577538
Zn56	Zn	0.757774	-0.640307	0.533723
O57	O	0.642360	-0.543976	0.593469
N58	N	0.847316	-0.670107	0.503818
N59	N	0.114877	-0.144758	0.607577
O60	O	-0.032498	0.060193	0.597441
O61	O	0.125523	0.060193	0.481067
O62	O	0.025289	0.060179	0.481345
O63	O	0.067736	0.060207	0.597163
O64	O	0.058511	-0.039410	0.514543
O65	O	0.158745	-0.039397	0.514265
O66	O	0.000724	-0.039396	0.630638
Zn67	Zn	0.085009	-0.055208	0.577722
Zn68	Zn	0.041238	0.076005	0.533983
O69	O	0.100958	-0.039382	0.630360
N70	N	0.011362	0.165555	0.504130
N71	N	0.115121	-0.566884	1.029592
O72	O	0.104990	-0.714248	1.234528
O73	O	-0.011371	-0.556177	1.234539
O74	O	-0.011103	-0.656395	1.234497
O75	O	0.104722	-0.614030	1.234569
O76	O	0.022090	-0.623190	1.134913
O77	O	0.021822	-0.522972	1.134954
O78	O	0.138182	-0.681044	1.134943
Zn79	Zn	0.085272	-0.596736	1.119137
Zn80	Zn	0.041539	-0.640484	1.250344
O81	O	0.137914	-0.580826	1.134984
N82	N	0.011689	-0.670343	1.339890
C83	C	0.038085	-0.519567	0.481870
C84	C	0.162104	-0.643505	0.481786
C85	C	0.088200	-0.717587	0.629893
C86	C	-0.035819	-0.593649	0.629977
C87	C	0.692280	-0.692701	0.654545
C88	C	0.692203	-0.692374	0.530435
C89	C	0.692063	-0.544251	0.456717
C90	C	0.692144	-0.544580	0.580825
C91	C	0.162000	0.010521	0.481600
C92	C	0.037914	0.010381	0.481984
C93	C	-0.035795	0.010399	0.630065
C94	C	0.088333	0.010415	0.629722
C95	C	-0.010799	-0.519660	1.184747
C96	C	-0.010461	-0.643761	1.184677
C97	C	0.137610	-0.717561	1.184734
C98	C	0.137280	-0.593452	1.184783
H99	H	0.061737	-0.480889	0.910978
H100	H	0.174144	-0.762957	1.184724
C101	C	0.692124	-0.495406	0.593084
C102	C	0.692056	-0.433974	0.543940
C103	C	0.692037	-0.384800	0.556199
C104	C	0.692085	-0.397059	0.617602
C105	C	0.692153	-0.458494	0.666750
C106	C	0.692173	-0.507668	0.654491
H107	H	0.692021	-0.424897	0.498482
H108	H	0.691987	-0.339322	0.519817
H109	H	0.692071	-0.360658	0.626677
H110	H	0.692189	-0.467571	0.712208
H111	H	0.692223	-0.553146	0.690874
C112	C	0.223442	-0.655595	0.432494
C113	C	0.280676	-0.672048	0.443420
C114	C	0.342015	-0.684138	0.394127
C115	C	0.346119	-0.679776	0.333908
C116	C	0.288883	-0.663322	0.322980
C117	C	0.227544	-0.651232	0.372272
H118	H	0.277640	-0.675278	0.488000
H119	H	0.384384	-0.696318	0.402218
H120	H	0.391525	-0.688726	0.297419
H121	H	0.291919	-0.660092	0.278400
H122	H	0.185174	-0.639052	0.364182
C123	C	-0.097159	-0.581560	0.679268
C124	C	-0.109207	-0.630828	0.740633
C125	C	-0.170546	-0.618739	0.789924
C126	C	-0.219839	-0.557382	0.777851
C127	C	-0.207793	-0.508110	0.716483
C128	C	-0.146453	-0.520199	0.667192
H129	H	-0.072716	-0.676252	0.749573
H130	H	-0.179463	-0.655214	0.835353
H131	H	-0.265246	-0.548433	0.814339
H132	H	-0.244283	-0.462686	0.707543
H133	H	-0.137536	-0.483724	0.621763
H134	H	0.097420	0.010424	0.666105
H135	H	0.173667	-0.584388	1.184797
C136	C	0.692343	-0.742067	0.715851
C137	C	0.692364	-0.730100	0.765200
C138	C	0.692427	-0.779467	0.826507
C139	C	0.692469	-0.840801	0.838465
C140	C	0.692449	-0.852770	0.789115
C141	C	0.692386	-0.803404	0.727808
H142	H	0.692332	-0.684695	0.756349
H143	H	0.692442	-0.770606	0.863039
H144	H	0.692516	-0.877345	0.883848
H145	H	0.692480	-0.898176	0.797966
H146	H	0.692371	-0.812265	0.691276
C147	C	0.692224	-0.741548	0.518176
C148	C	0.692177	-0.729289	0.456772
C149	C	0.692198	-0.778464	0.444513
C150	C	0.692267	-0.839896	0.493656
C151	C	0.692314	-0.852157	0.555063
C152	C	0.692293	-0.802983	0.567323
H153	H	0.692126	-0.683811	0.420390
H154	H	0.692163	-0.769387	0.399055
H155	H	0.692283	-0.876298	0.484580
H156	H	0.692365	-0.897636	0.591446
H157	H	0.692328	-0.812060	0.612781
C158	C	0.691990	-0.494882	0.395413
C159	C	0.691965	-0.506847	0.346066
C160	C	0.691892	-0.457477	0.284763
C161	C	0.691844	-0.396142	0.272806
C162	C	0.691870	-0.384174	0.322154
C163	C	0.691943	-0.433544	0.383458
H164	H	0.692000	-0.552253	0.354916
H165	H	0.691873	-0.466337	0.248232
H166	H	0.691791	-0.359595	0.227425
H167	H	0.691835	-0.338767	0.313305
H168	H	0.691961	-0.424684	0.419989
H169	H	0.029071	-0.474132	0.445424
C170	C	0.223180	0.010898	0.432114
C171	C	0.272473	0.011096	0.444007
C172	C	0.333653	0.011473	0.394521
C173	C	0.345539	0.011652	0.333143
C174	C	0.296245	0.011454	0.321248
C175	C	0.235065	0.011077	0.370734
H176	H	0.263675	0.010964	0.489445
H177	H	0.370144	0.011620	0.403327
H178	H	0.390828	0.011932	0.296511
H179	H	0.305043	0.011587	0.275810
H180	H	0.198574	0.010930	0.361928
H181	H	0.023897	-0.518815	1.024687
H182	H	-0.081177	0.010398	0.666600
C183	C	0.221291	-0.621974	1.033582
C184	C	0.289070	-0.638622	0.999088
C185	C	0.333907	-0.678264	1.033544
C186	C	0.310965	-0.701259	1.102494
C187	C	0.243183	-0.684612	1.136991
C188	C	0.198346	-0.644970	1.102535
H189	H	0.306057	-0.621599	0.948043
H190	H	0.384085	-0.690587	1.008006
H191	H	0.344156	-0.730605	1.128000
H192	H	0.226196	-0.701635	1.188036
H193	H	0.148168	-0.632647	1.128073
H194	H	-0.047330	-0.474261	1.184750
H195	H	0.247489	-0.573760	0.910909
C196	C	0.025644	0.010371	0.432828
C197	C	-0.035767	0.010366	0.445090
C198	C	-0.048037	0.010356	0.395933
C199	C	0.001105	0.010351	0.334515
C200	C	0.062520	0.010357	0.322250
C201	C	0.074790	0.010367	0.371406
H202	H	-0.072148	0.010369	0.490558
H203	H	-0.093501	0.010351	0.405013
H204	H	-0.007978	0.010344	0.298126
H205	H	0.098901	0.010354	0.276782
H206	H	0.120254	0.010371	0.362327
H207	H	-0.046832	-0.652809	1.184615
H208	H	0.061625	-0.480862	0.693528
H209	H	0.023705	-0.518748	0.655609
H210	H	0.209407	-0.611608	0.562721
H211	H	0.247325	-0.573698	0.600612
H212	H	0.418403	-0.619300	0.682106
H213	H	0.532080	-0.473208	0.574011
C214	C	0.541073	-0.674685	0.646711
C215	C	0.532488	-0.720267	0.710675
C216	C	0.566975	-0.787541	0.720445
C217	C	0.610047	-0.809233	0.666253
C218	C	0.618634	-0.763651	0.602285
C219	C	0.584147	-0.696377	0.592514
H220	H	0.500601	-0.704209	0.750795
H221	H	0.560617	-0.821284	0.767799
H222	H	0.635576	-0.859034	0.673486
H223	H	0.650521	-0.779708	0.562164
H224	H	0.590505	-0.662634	0.545161
H225	H	0.418366	-0.435297	0.611936
H226	H	0.162897	-0.149674	0.516363
C227	C	0.211133	-0.272352	0.542598
C228	C	0.271574	-0.263723	0.497485
C229	C	0.311197	-0.298190	0.452663
C230	C	0.290380	-0.341286	0.452954
C231	C	0.229937	-0.349917	0.498070
C232	C	0.190313	-0.315451	0.542892
H233	H	0.286986	-0.231819	0.497268
H234	H	0.355942	-0.291800	0.419266
H235	H	0.319712	-0.366801	0.419774
H236	H	0.214524	-0.381822	0.498287
H237	H	0.145569	-0.321840	0.576289
C238	C	0.059837	-0.140749	0.713734
C239	C	0.083852	-0.149373	0.758817
C240	C	0.044229	-0.114907	0.803640
C241	C	-0.019409	-0.071817	0.803379
C242	C	-0.043428	-0.063190	0.758294
C243	C	-0.003805	-0.097657	0.713472
H244	H	0.130964	-0.181273	0.759011
H245	H	0.062010	-0.121293	0.837014
H246	H	-0.048741	-0.046303	0.836559
H247	H	-0.090540	-0.031291	0.758100
H248	H	-0.021586	-0.091271	0.680097
C249	C	0.103750	-0.272389	0.757578
C250	C	0.064123	-0.237920	0.802396
C251	C	0.047495	-0.272405	0.870185
C252	C	0.070496	-0.341358	0.893157
C253	C	0.110126	-0.375830	0.848339
C254	C	0.126753	-0.341346	0.780550
H255	H	0.047094	-0.186874	0.785392
H256	H	0.018158	-0.246886	0.903363
H257	H	0.058188	-0.366886	0.943339
H258	H	0.127155	-0.426877	0.865343
H259	H	0.156091	-0.366864	0.747372
H260	H	0.097215	-0.763020	0.666340
