data_functionalizedCrystal
_audit_creation_method	'MofGen! by Chris Wilmer'
_symmetry_space_group_name_H-M	'P1'
_symmetry_Int_Tables_number	1
_symmetry_cell_setting	triclinic
loop_
_symmetry_equiv_pos_as_xyz
  x,y,z
_cell_length_a	14.519709
_cell_length_b	14.519709
_cell_length_c	11.295483
_cell_angle_alpha	94.101713
_cell_angle_beta	85.892680
_cell_angle_gamma	83.680145
loop_
_atom_site_label
_atom_site_type_symbol
_atom_site_fract_x
_atom_site_fract_y
_atom_site_fract_z
O1	O	1.230060	0.114700	-0.098872
O2	O	1.730060	0.614700	0.401128
O3	O	0.961585	0.128935	-0.098908
O4	O	1.461585	0.628935	0.401092
O5	O	1.102940	-0.012420	-0.098878
O6	O	1.602940	0.487580	0.401122
O7	O	1.088705	0.256055	-0.098902
O8	O	1.588705	0.756055	0.401098
O9	O	1.090524	-0.000024	0.099170
O10	O	1.590524	0.499976	0.599170
O11	O	0.949169	0.141331	0.099140
O12	O	1.449169	0.641331	0.599140
O13	O	1.217644	0.127097	0.099177
O14	O	1.717644	0.627097	0.599177
Cu15	Cu	1.082273	0.135346	0.117242
Cu16	Cu	1.582273	0.635346	0.617242
Cu17	Cu	1.096956	0.120686	-0.116973
Cu18	Cu	1.596956	0.620686	0.383027
O19	O	1.076289	0.268452	0.099147
O20	O	1.576289	0.768452	0.599147
C21	C	0.921018	0.134469	0.000111
C22	C	1.421018	0.634469	0.500111
C23	C	0.818637	0.132480	0.000098
C24	C	1.318637	0.632480	0.500098
C25	C	0.443738	0.125164	0.000152
C26	C	0.943738	0.625164	0.500152
C27	C	0.548047	0.127196	0.000137
C28	C	1.048047	0.627196	0.500137
C29	C	0.631184	0.128822	0.000124
C30	C	1.131184	0.628822	0.500124
C31	C	0.735500	0.130854	0.000110
C32	C	1.235500	0.630854	0.500110
C33	C	1.096069	-0.040582	0.000146
C34	C	1.596069	0.459418	0.500146
C35	C	1.094080	-0.142963	0.000146
C36	C	1.594080	0.357037	0.500146
C37	C	1.086763	-0.517861	0.000114
C38	C	1.586763	-0.017861	0.500114
C39	C	1.088795	-0.413552	0.000124
C40	C	1.588795	0.086448	0.500124
C41	C	1.090421	-0.330415	0.000132
C42	C	1.590421	0.169585	0.500132
C43	C	1.092454	-0.226100	0.000139
C44	C	1.592454	0.273900	0.500139
C45	C	1.258211	0.121562	0.000154
C46	C	1.758211	0.621562	0.500154
C47	C	1.360592	0.123551	0.000160
C48	C	1.860592	0.623551	0.500160
C49	C	1.083161	0.296613	0.000120
C50	C	1.583161	0.796613	0.500120
C51	C	1.085149	0.398994	0.000112
C52	C	1.585149	0.898994	0.500112
N53	N	1.071953	0.145656	0.281976
N54	N	1.571953	0.645656	0.781976
N55	N	1.107284	0.110368	-0.281707
N56	N	1.607284	0.610368	0.218293
C57	C	1.181575	0.036095	0.531289
C58	C	1.681575	0.536095	1.031289
C59	C	1.173783	0.043893	0.655951
C60	C	1.673783	0.543893	1.155951
C61	C	1.048571	0.169046	0.655964
C62	C	1.548571	0.669046	1.155964
C63	C	1.056364	0.161248	0.531302
C64	C	1.556364	0.661248	1.031302
C65	C	1.122869	0.094771	0.468969
C66	C	1.622869	0.594771	0.968969
C67	C	1.130665	0.086978	0.344304
C68	C	1.630665	0.586978	0.844304
C69	C	1.005450	0.212126	0.344320
C70	C	1.505450	0.712126	0.844320
C71	C	0.997657	0.219924	0.468982
C72	C	1.497657	0.719924	0.968982
H73	H	1.235733	-0.018027	0.480536
H74	H	1.735733	0.481973	0.980536
H75	H	1.221586	-0.003888	0.706688
H76	H	1.721586	0.496112	1.206688
O77	O	0.983885	0.233628	0.716341
O78	O	1.483885	0.733628	1.216341
C79	C	0.860528	0.356957	0.703215
C80	C	1.360528	0.856957	1.203215
C81	C	0.933736	0.283850	0.634690
C82	C	1.433736	0.783850	1.134690
H83	H	0.819976	0.397595	0.637230
H84	H	1.319976	0.897595	1.137230
H85	H	0.810690	0.320717	0.761540
H86	H	1.310690	0.820717	1.261540
H87	H	0.896773	0.406728	0.761618
H88	H	1.396773	0.906728	1.261618
H89	H	0.897571	0.234058	0.576222
H90	H	1.397571	0.734058	1.076222
H91	H	0.983569	0.320153	0.576440
H92	H	1.483569	0.820153	1.076440
H93	H	0.943507	0.274046	0.519748
H94	H	1.443507	0.774046	1.019748
H95	H	0.957650	0.259906	0.293565
H96	H	1.457650	0.759906	0.793565
H97	H	1.184819	0.032851	0.293554
H98	H	1.684819	0.532851	0.793554
