data_functionalizedCrystal
_audit_creation_method	'MofGen! by Chris Wilmer'
_symmetry_space_group_name_H-M	'P1'
_symmetry_Int_Tables_number	1
_symmetry_cell_setting	triclinic
loop_
_symmetry_equiv_pos_as_xyz
  x,y,z
_cell_length_a	12.645323
_cell_length_b	17.639504
_cell_length_c	17.640280
_cell_angle_alpha	92.181381
_cell_angle_beta	78.773039
_cell_angle_gamma	101.244481
loop_
_atom_site_label
_atom_site_type_symbol
_atom_site_fract_x
_atom_site_fract_y
_atom_site_fract_z
Zn1	Zn	-0.913004	-1.222315	-0.067979
Zn2	Zn	-0.413004	-0.722315	0.432021
Zn3	Zn	-0.708288	-1.247919	-0.194995
Zn4	Zn	-0.208288	-0.747919	0.305005
Zn5	Zn	-0.694302	-1.095305	-0.093641
Zn6	Zn	-0.194302	-0.595305	0.406359
Zn7	Zn	-0.844096	-1.120966	-0.220566
Zn8	Zn	-0.344096	-0.620966	0.279434
O9	O	-0.789923	-1.171626	-0.144295
O10	O	-0.289923	-0.671626	0.355705
O11	O	-0.920540	-1.331996	-0.063387
O12	O	-0.420540	-0.831996	0.436613
O13	O	-0.558069	-1.227651	-0.181588
O14	O	-0.058069	-0.727651	0.318412
O15	O	-0.746298	-1.090699	0.016039
O16	O	-0.246298	-0.590699	0.516039
O17	O	-0.770136	-1.350806	-0.156705
O18	O	-0.270136	-0.850806	0.343295
O19	O	-0.906978	-1.184013	0.034892
O20	O	-0.406978	-0.684013	0.534892
O21	O	-0.547793	-1.115526	-0.107123
O22	O	-0.047793	-0.615526	0.392877
O23	O	-0.679480	-0.992425	-0.131919
O24	O	-0.179480	-0.492425	0.368081
O25	O	-1.001601	-1.134434	-0.200288
O26	O	-0.501601	-0.634434	0.299712
O27	O	-0.789534	-1.011278	-0.225170
O28	O	-0.289534	-0.511278	0.274830
O29	O	-1.052227	-1.208894	-0.088183
O30	O	-0.552227	-0.708894	0.411817
O31	O	-0.703319	-1.252532	-0.304662
O32	O	-0.203319	-0.752532	0.195338
O33	O	-0.803096	-1.159260	-0.323449
O34	O	-0.303096	-0.659260	0.176551
C35	C	-0.725512	-0.974293	-0.184105
C36	C	-0.225512	-0.474293	0.315895
C37	C	-0.697979	-0.889877	-0.201153
C38	C	-0.197979	-0.389877	0.298847
C39	C	-0.999352	-0.563327	-0.014706
C40	C	-0.499352	-0.063327	0.485294
C41	C	-0.973455	-0.484009	-0.030745
C42	C	-0.473455	0.015991	0.469255
C43	C	-0.816678	-0.503586	-0.127755
C44	C	-0.316678	-0.003586	0.372245
C45	C	-0.842566	-0.582908	-0.111727
C46	C	-0.342566	-0.082908	0.388273
C47	C	-0.933903	-0.612772	-0.055201
C48	C	-0.433903	-0.112772	0.444799
C49	C	-0.777117	-0.632353	-0.152222
C50	C	-0.277117	-0.132353	0.347778
C51	C	-0.803000	-0.711667	-0.136192
C52	C	-0.303000	-0.211667	0.363808
C53	C	-0.894331	-0.741537	-0.079667
C54	C	-0.394331	-0.241537	0.420333
C55	C	-0.959786	-0.692086	-0.039171
C56	C	-0.459786	-0.192086	0.460829
C57	C	-0.685776	-0.602487	-0.208744
C58	C	-0.185776	-0.102487	0.291256
C59	C	-0.620327	-0.651932	-0.249239
C60	C	-0.120327	-0.151932	0.250761
C61	C	-0.646213	-0.731248	-0.233213
C62	C	-0.146213	-0.231248	0.266787
C63	C	-0.737545	-0.761118	-0.176688
C64	C	-0.237545	-0.261118	0.323312
C65	C	-0.580759	-0.780699	-0.273710
C66	C	-0.080759	-0.280699	0.226290
C67	C	-0.606641	-0.860013	-0.257680
C68	C	-0.106641	-0.360013	0.242320
C69	C	-0.763428	-0.840432	-0.160658
C70	C	-0.263428	-0.340432	0.339342
C71	C	-1.066459	-1.171670	-0.144225
C72	C	-0.566459	-0.671670	0.355775
C73	C	-1.184302	-1.171689	-0.144195
C74	C	-0.684302	-0.671689	0.355805
C75	C	-1.320018	-1.124609	-0.214481
C76	C	-0.820018	-0.624609	0.285519
C77	C	-1.197446	-1.124821	-0.214739
C78	C	-0.697446	-0.624821	0.285261
C79	C	-1.250242	-1.256109	-0.149763
C80	C	-0.750242	-0.756109	0.350237
C81	C	-1.372655	-1.255860	-0.150195
C82	C	-0.872655	-0.755860	0.349805
C83	C	-1.362226	-1.135040	-0.067863
C84	C	-0.862226	-0.635040	0.432137
C85	C	-1.238933	-1.133352	-0.068705
C86	C	-0.738933	-0.633352	0.431295
C87	C	-0.514488	-1.171615	-0.144301
C88	C	-0.014488	-0.671615	0.355699
C89	C	-0.396740	-1.171700	-0.144088
C90	C	0.103260	-0.671700	0.355912
C91	C	-0.747277	-1.211480	-0.341608
C92	C	-0.247277	-0.711480	0.158392
C93	C	-0.729092	-1.228599	-0.426005
C94	C	-0.229092	-0.728599	0.073995
C95	C	-0.854583	-0.369728	-0.104320
C96	C	-0.354583	0.130272	0.395680
C97	C	-0.882134	-0.454141	-0.087257
C98	C	-0.382134	0.045859	0.412743
C99	C	-0.928564	-1.041886	-0.752663
C100	C	-0.428564	-0.541886	-0.252663
C101	C	-0.911442	-1.057974	-0.831966
C102	C	-0.411442	-0.557974	-0.331966
C103	C	-0.807701	-1.155158	-0.812325
C104	C	-0.307701	-0.655158	-0.312325
C105	C	-0.824818	-1.139081	-0.733018
C106	C	-0.324818	-0.639081	-0.233018
C107	C	-0.885249	-1.082444	-0.703193
C108	C	-0.385249	-0.582444	-0.203193
C109	C	-0.781504	-1.179639	-0.683549
C110	C	-0.281504	-0.679639	-0.183549
C111	C	-0.798615	-1.163561	-0.604249
C112	C	-0.298615	-0.663561	-0.104249
C113	C	-0.859041	-1.106924	-0.574418
C114	C	-0.359041	-0.606924	-0.074418
C115	C	-0.902361	-1.066366	-0.623894
C116	C	-0.402361	-0.566366	-0.123894
C117	C	-0.721066	-1.236272	-0.713376
C118	C	-0.221066	-0.736272	-0.213376
C119	C	-0.677752	-1.276830	-0.663906
C120	C	-0.177752	-0.776830	-0.163906
C121	C	-0.694869	-1.260756	-0.584604
C122	C	-0.194869	-0.760756	-0.084604
C123	C	-0.755295	-1.204120	-0.554774
C124	C	-0.255295	-0.704120	-0.054774
C125	C	-0.651549	-1.301315	-0.535129
C126	C	-0.151549	-0.801315	-0.035129
C127	C	-0.668661	-1.285236	-0.455829
C128	C	-0.168661	-0.785236	0.044171
C129	C	-0.772406	-1.188041	-0.475474
C130	C	-0.272406	-0.688041	0.024526
C131	C	-0.832764	-1.131638	0.053792
C132	C	-0.332764	-0.631638	0.553792
C133	C	-0.851021	-1.114597	0.138205
C134	C	-0.351021	-0.614597	0.638205
H135	H	-1.034166	-0.716403	0.006856
H136	H	-0.534166	-0.216403	0.506856
H137	H	-0.602337	-1.347423	-0.559426
H138	H	-0.102337	-0.847423	-0.059426
O139	O	-1.179611	-1.050957	-0.062750
O140	O	-0.679611	-0.550957	0.437250
H141	H	-1.237966	-1.011216	-0.061750
H142	H	-0.737966	-0.511216	0.438250
H143	H	-1.244726	-1.292843	-0.099404
H144	H	-0.744726	-0.792843	0.400596
O145	O	-0.657845	-0.516940	-0.226032
O146	O	-0.157845	-0.016940	0.273968
H147	H	-0.659919	-0.507619	-0.287558
H148	H	-0.159919	-0.007619	0.212442
H149	H	-1.212742	-1.285459	-0.204329
H150	H	-0.712742	-0.785459	0.295671
O151	O	-0.718163	-0.471374	-0.188718
O152	O	-0.218163	0.028626	0.311282
H153	H	-0.745378	-0.443077	-0.234699
H154	H	-0.245378	0.056923	0.265301
H155	H	-1.378698	-1.073697	-0.059638
H156	H	-0.878698	-0.573697	0.440362
O157	O	-0.521812	-0.619716	-0.310201
O158	O	-0.021812	-0.119716	0.189799
H159	H	-0.531944	-0.647003	-0.366739
H160	H	-0.031944	-0.147003	0.133261
H161	H	-1.414656	-1.169142	-0.015616
H162	H	-0.914656	-0.669142	0.484384
H163	H	-1.231203	-1.163852	-0.014786
H164	H	-0.731203	-0.663852	0.485214
H165	H	-1.159663	-1.150342	-0.271582
H166	H	-0.659663	-0.650342	0.228418
H167	H	-0.837807	-0.864749	-0.114632
H168	H	-0.337807	-0.364749	0.385368
O169	O	-0.742559	-1.216264	-0.844490
O170	O	-0.242559	-0.716264	-0.344490
H171	H	-0.737953	-1.220642	-0.907941
H172	H	-0.237953	-0.720642	-0.407941
O173	O	-1.443292	-1.305018	-0.084053
O174	O	-0.943292	-0.805018	0.415947
H175	H	-1.498798	-1.353165	-0.107122
H176	H	-0.998798	-0.853165	0.392878
H177	H	-1.073732	-0.587644	0.031321
H178	H	-0.573732	-0.087644	0.531321
O179	O	-0.967539	-1.005276	-0.591719
O180	O	-0.467539	-0.505276	-0.091719
H181	H	-1.051720	-1.021345	-0.604279
H182	H	-0.551720	-0.521345	-0.104279
H183	H	-0.821625	-1.141927	-0.451189
H184	H	-0.321625	-0.641927	0.048811
O185	O	-0.482238	-0.748480	-0.334666
O186	O	0.017762	-0.248480	0.165334
H187	H	-0.492361	-0.775763	-0.391208
H188	H	0.007639	-0.275763	0.108792
H189	H	-1.394225	-1.285038	-0.205436
H190	H	-0.894225	-0.785038	0.294564
O191	O	-0.877504	-1.089563	-0.488891
O192	O	-0.377504	-0.589563	0.011109
H193	H	-0.922228	-1.142580	-0.456359
H194	H	-0.422228	-0.642580	0.043641
O195	O	-0.958153	-1.014215	-0.885323
O196	O	-0.458153	-0.514215	-0.385323
H197	H	-0.936091	-1.034901	-0.945478
H198	H	-0.436091	-0.534901	-0.445478
O199	O	-0.536049	-0.913344	-0.301359
O200	O	-0.036049	-0.413344	0.198641
H201	H	-0.501324	-0.942573	-0.260021
H202	H	-0.001324	-0.442573	0.239979
H203	H	-0.707140	-1.249363	-0.777947
H204	H	-0.207140	-0.749363	-0.277947
O205	O	-1.044046	-0.430672	0.012932
O206	O	-0.544046	0.069328	0.512932
H207	H	-1.129363	-0.448561	0.002912
H208	H	-0.629363	0.051439	0.502912
H209	H	-0.628545	-1.322942	-0.688201
H210	H	-0.128545	-0.822942	-0.188201
H211	H	-1.150917	-1.062730	-0.213124
H212	H	-0.650917	-0.562730	0.286876
H213	H	-1.332979	-1.062368	-0.213032
H214	H	-0.832979	-0.562368	0.286968
O215	O	-0.922261	-0.827082	-0.062365
O216	O	-0.422261	-0.327082	0.437635
H217	H	-0.938018	-0.859595	-0.115427
H218	H	-0.438018	-0.359595	0.384573
H219	H	-0.633388	-1.318262	-0.415550
H220	H	-0.133388	-0.818262	0.084450
O221	O	-0.993744	-0.980799	-0.720483
O222	O	-0.493744	-0.480799	-0.220483
H223	H	-1.020989	-0.955293	-0.768204
H224	H	-0.520989	-0.455293	-0.268204
H225	H	-1.342406	-1.149922	-0.270978
H226	H	-0.842406	-0.649922	0.229022
