data_functionalizedCrystal
_audit_creation_method	'MofGen! by Chris Wilmer'
_symmetry_space_group_name_H-M	'P1'
_symmetry_Int_Tables_number	1
_symmetry_cell_setting	triclinic
loop_
_symmetry_equiv_pos_as_xyz
  x,y,z
_cell_length_a	13.032831
_cell_length_b	13.897448
_cell_length_c	13.032268
_cell_angle_alpha	97.148041
_cell_angle_beta	90.886977
_cell_angle_gamma	82.822399
loop_
_atom_site_label
_atom_site_type_symbol
_atom_site_fract_x
_atom_site_fract_y
_atom_site_fract_z
Zn1	Zn	1.498483	-0.651422	-0.780818
Zn2	Zn	1.998483	-0.151422	-0.280818
Zn3	Zn	1.520226	-0.795137	-0.608835
Zn4	Zn	2.020226	-0.295137	-0.108835
Zn5	Zn	1.348341	-0.611127	-0.587060
Zn6	Zn	1.848341	-0.111127	-0.087060
Zn7	Zn	1.326474	-0.789922	-0.758960
Zn8	Zn	1.826474	-0.289922	-0.258960
O9	O	1.423381	-0.711902	-0.683918
O10	O	1.923381	-0.211902	-0.183918
O11	O	1.645288	-0.689533	-0.776265
O12	O	2.145288	-0.189533	-0.276265
O13	O	1.515676	-0.756047	-0.462030
O14	O	2.015676	-0.256047	0.037970
O15	O	1.368309	-0.481501	-0.612798
O16	O	1.868309	0.018499	-0.112798
O17	O	1.661262	-0.795119	-0.649909
O18	O	2.161262	-0.295119	-0.149909
O19	O	1.478618	-0.511106	-0.755151
O20	O	1.978618	-0.011106	-0.255151
O21	O	1.389393	-0.620856	-0.446032
O22	O	1.889393	-0.120856	0.053968
O23	O	1.201520	-0.615798	-0.591603
O24	O	1.701520	-0.115798	-0.091603
O25	O	1.331040	-0.786231	-0.905776
O26	O	1.831040	-0.286231	-0.405776
O27	O	1.185454	-0.747158	-0.717897
O28	O	1.685454	-0.247158	-0.217897
O29	O	1.457414	-0.684476	-0.921835
O30	O	1.957414	-0.184476	-0.421835
O31	O	1.494472	-0.929417	-0.628714
O32	O	1.994472	-0.429417	-0.128714
O33	O	1.352124	-0.925585	-0.739010
O34	O	1.852124	-0.425585	-0.239010
C35	C	1.156170	-0.676541	-0.650016
C36	C	1.656170	-0.176541	-0.150016
C37	C	1.041852	-0.661439	-0.635536
C38	C	1.541852	-0.161439	-0.135536
C39	C	0.982977	-0.719784	-0.691475
C40	C	1.482977	-0.219784	-0.191475
C41	C	0.864824	-0.704177	-0.676511
C42	C	1.364824	-0.204177	-0.176511
C43	C	1.423310	-0.962504	-0.683879
C44	C	1.923310	-0.462504	-0.183879
C45	C	1.423369	-1.069728	-0.683909
C46	C	1.923369	-0.569728	-0.183909
C47	C	1.423469	-1.266044	-0.683987
C48	C	1.923469	-0.766044	-0.183987
C49	C	1.423410	-1.156800	-0.683946
C50	C	1.923410	-0.656800	-0.183946
C51	C	1.691635	-0.747403	-0.717954
C52	C	2.191635	-0.247403	-0.217954
C53	C	1.805950	-0.762531	-0.732458
C54	C	2.305950	-0.262531	-0.232458
C55	C	1.389363	-0.739266	-0.952165
C56	C	1.889363	-0.239266	-0.452165
C57	C	1.374866	-0.750927	-1.066476
C58	C	1.874866	-0.250927	-0.566476
C59	C	1.423478	-0.460328	-0.683984
C60	C	1.923478	0.039672	-0.183984
C61	C	1.423519	-0.353122	-0.684012
C62	C	1.923519	0.146878	-0.184012
C63	C	1.430931	-0.705779	-1.125385
C64	C	1.930931	-0.205779	-0.625385
C65	C	1.415949	-0.717831	-1.243531
C66	C	1.915949	-0.217831	-0.743531
C67	C	1.457326	-0.684583	-0.416723
C68	C	1.957326	-0.184583	0.083277
C69	C	1.472021	-0.672677	-0.302438
C70	C	1.972021	-0.172677	0.197562
H71	H	0.827761	-0.642663	-0.617542
H72	H	1.327761	-0.142663	-0.117542
C73	C	1.032189	-0.801822	-0.770199
C74	C	1.532189	-0.301822	-0.270199
C75	C	0.954972	-0.852610	-0.818925
C76	C	1.454972	-0.352610	-0.318925
C77	C	1.000262	-0.928182	-0.891463
C78	C	1.500262	-0.428182	-0.391463
H79	H	1.079075	-0.845364	-0.736165
H80	H	1.579075	-0.345364	-0.236165
H81	H	1.068393	-0.775086	-0.820402
H82	H	1.568393	-0.275086	-0.320402
H83	H	0.918785	-0.879346	-0.768730
H84	H	1.418785	-0.379346	-0.268730
H85	H	0.908081	-0.809095	-0.852979
H86	H	1.408081	-0.309095	-0.352979
H87	H	1.036466	-0.901446	-0.941666
H88	H	1.536466	-0.401446	-0.441666
H89	H	1.047148	-0.971716	-0.857421
H90	H	1.547148	-0.471716	-0.357421
H91	H	0.947877	-0.962645	-0.924539
H92	H	1.447877	-0.462645	-0.424539
C93	C	1.509876	-0.642433	-1.076172
C94	C	2.009876	-0.142433	-0.576172
C95	C	1.608341	-0.679528	-1.115155
C96	C	2.108341	-0.179528	-0.615155
C97	C	1.681090	-0.621190	-1.069859
C98	C	2.181090	-0.121190	-0.569859
H99	H	1.509617	-0.642718	-1.003328
H100	H	2.009617	-0.142718	-0.503328
H101	H	1.492698	-0.577408	-1.091867
H102	H	1.992698	-0.077408	-0.591867
H103	H	1.625514	-0.744536	-1.099453
H104	H	2.125514	-0.244536	-0.599453
H105	H	1.608633	-0.679240	-1.187994
H106	H	2.108633	-0.179240	-0.687994
H107	H	1.663913	-0.556165	-1.085554
H108	H	2.163913	-0.056165	-0.585554
H109	H	1.680822	-0.621479	-0.997016
H110	H	2.180822	-0.121479	-0.497016
H111	H	1.747905	-0.646345	-1.096309
H112	H	2.247905	-0.146345	-0.596309
C113	C	0.992251	-0.579518	-0.556907
C114	C	1.492251	-0.079518	-0.056907
C115	C	0.884926	-0.580352	-0.557664
C116	C	1.384926	-0.080352	-0.057664
C117	C	0.839205	-0.504913	-0.485228
C118	C	1.339205	-0.004913	0.014772
H119	H	1.007778	-0.518513	-0.574192
H120	H	1.507778	-0.018513	-0.074192
H121	H	1.018505	-0.588797	-0.489961
H122	H	1.518505	-0.088797	0.010039
H123	H	0.858682	-0.571067	-0.624595
H124	H	1.358682	-0.071067	-0.124595
H125	H	0.869370	-0.641340	-0.540368
H126	H	1.369370	-0.141340	-0.040368
H127	H	0.865458	-0.514192	-0.418282
H128	H	1.365458	-0.014192	0.081718
H129	H	0.854739	-0.443914	-0.502519
H130	H	1.354739	0.056086	-0.002519
H131	H	0.766381	-0.505475	-0.485725
H132	H	1.266381	-0.005475	0.014275
C133	C	1.337245	-0.781273	-1.293094
C134	C	1.837245	-0.281273	-0.793094
C135	C	1.338060	-0.780643	-1.400427
C136	C	1.838060	-0.280643	-0.900427
C137	C	1.265585	-0.839086	-1.446121
C138	C	1.765585	-0.339086	-0.946121
H139	H	1.270299	-0.756309	-1.266896
H140	H	1.770299	-0.256309	-0.766896
H141	H	1.354491	-0.846320	-1.277492
H142	H	1.854491	-0.346320	-0.777492
H143	H	1.320808	-0.715609	-1.416020
H144	H	1.820808	-0.215609	-0.916020
H145	H	1.404988	-0.805615	-1.426654
H146	H	1.904988	-0.305615	-0.926654
H147	H	1.282831	-0.904133	-1.430519
H148	H	1.782831	-0.404133	-0.930519
H149	H	1.198644	-0.814117	-1.419915
H150	H	1.698644	-0.314117	-0.919915
H151	H	1.266135	-0.838674	-1.518951
H152	H	1.766135	-0.338674	-1.018951
H153	H	0.843009	-0.824037	-0.791438
H154	H	1.343009	-0.324037	-0.291438
H155	H	1.531110	-0.625093	-1.265411
H156	H	2.031110	-0.125093	-0.765411
H157	H	1.315770	-0.798494	-1.103508
H158	H	1.815770	-0.298494	-0.603508
