data_functionalizedCrystal
_audit_creation_method	'MofGen! by Chris Wilmer'
_symmetry_space_group_name_H-M	'P1'
_symmetry_Int_Tables_number	1
_symmetry_cell_setting	triclinic
loop_
_symmetry_equiv_pos_as_xyz
  x,y,z
_cell_length_a	17.699083
_cell_length_b	10.489716
_cell_length_c	16.776229
_cell_angle_alpha	89.997416
_cell_angle_beta	89.998886
_cell_angle_gamma	83.906075
loop_
_atom_site_label
_atom_site_type_symbol
_atom_site_fract_x
_atom_site_fract_y
_atom_site_fract_z
O1	O	1.005125	0.161298	-0.066169
O2	O	1.505125	0.661298	0.433831
O3	O	0.784883	0.182283	-0.066194
O4	O	1.284883	0.682283	0.433806
O5	O	0.900025	-0.013903	-0.066184
O6	O	1.400025	0.486097	0.433816
O7	O	0.889983	0.357483	-0.066180
O8	O	1.389983	0.857483	0.433820
O9	O	0.900010	-0.013915	0.066392
O10	O	1.400010	0.486085	0.566392
O11	O	0.784868	0.182271	0.066382
O12	O	1.284868	0.682271	0.566382
O13	O	1.005110	0.161286	0.066407
O14	O	1.505110	0.661286	0.566407
Zn15	Zn	0.894986	0.171776	0.087444
Zn16	Zn	1.394986	0.671776	0.587444
Zn17	Zn	0.895007	0.171792	-0.087231
Zn18	Zn	1.395007	0.671792	0.412769
O19	O	0.889967	0.357471	0.066397
O20	O	1.389967	0.857471	0.566397
C21	C	0.756673	0.181525	0.000090
C22	C	1.256673	0.681525	0.500090
C23	C	0.672641	0.179269	0.000080
C24	C	1.172641	0.679269	0.500080
C25	C	0.624767	0.294426	0.000082
C26	C	1.124767	0.794426	0.500082
C27	C	0.545810	0.292299	0.000092
C28	C	1.045810	0.792299	0.500092
C29	C	0.514728	0.175013	0.000095
C30	C	1.014728	0.675013	0.500095
C31	C	0.562608	0.059847	0.000096
C32	C	1.062608	0.559847	0.500096
C33	C	0.641563	0.061976	0.000092
C34	C	1.141563	0.561976	0.500092
C35	C	0.244189	0.051261	0.000116
C36	C	0.744189	0.551261	0.500116
C37	C	0.165227	0.049141	0.000118
C38	C	0.665227	0.549141	0.500118
C39	C	0.148436	0.281583	0.000117
C40	C	0.648436	0.781583	0.500117
C41	C	0.227391	0.283712	0.000112
C42	C	0.727391	0.783712	0.500112
C43	C	0.275264	0.168547	0.000117
C44	C	0.775264	0.668547	0.500117
C45	C	0.360878	0.170855	0.000107
C46	C	0.860878	0.670855	0.500107
C47	C	0.429115	0.172704	0.000099
C48	C	0.929115	0.672704	0.500099
C49	C	0.899263	-0.061427	0.000102
C50	C	1.399263	0.438573	0.500102
C51	C	0.897006	-0.203016	0.000094
C52	C	1.397006	0.296984	0.500094
C53	C	0.967614	-0.302002	0.000109
C54	C	1.467614	0.197998	0.500109
C55	C	0.930311	-0.378664	-0.065260
C56	C	1.430311	0.121336	0.434740
C57	C	0.930279	-0.378639	0.065450
C58	C	1.430279	0.121361	0.565450
C59	C	0.859731	-0.277813	-0.065329
C60	C	1.359731	0.222187	0.434671
C61	C	0.859710	-0.277783	0.065439
C62	C	1.359710	0.222217	0.565439
C63	C	0.822355	-0.354395	0.000054
C64	C	1.322355	0.145605	0.500054
C65	C	1.033319	0.162043	0.000121
C66	C	1.533319	0.662043	0.500121
C67	C	1.117352	0.164299	0.000125
C68	C	1.617352	0.664299	0.500125
C69	C	0.890730	0.404995	0.000109
C70	C	1.390730	0.904995	0.500109
C71	C	0.892987	0.546584	0.000112
C72	C	1.392987	1.046584	0.500112
N73	N	0.894978	0.171765	0.206655
N74	N	1.394978	0.671765	0.706655
N75	N	0.895021	0.171793	-0.206443
N76	N	1.395021	0.671793	0.293557
C77	C	0.945979	0.084929	0.248377
C78	C	1.445979	0.584929	0.748377
C79	C	0.945983	0.084928	0.331829
C80	C	1.445983	0.584928	0.831829
C81	C	0.894989	0.171770	0.373558
C82	C	1.394989	0.671770	0.873558
C83	C	0.843983	0.258609	0.331831
C84	C	1.343983	0.758609	0.831831
C85	C	0.843976	0.258603	0.248380
C86	C	1.343976	0.758603	0.748380
C87	C	0.844010	0.258634	0.668378
C88	C	1.344010	0.758634	1.168378
C89	C	0.844023	0.258636	0.751834
C90	C	1.344023	0.758636	1.251834
C91	C	0.946018	0.084959	0.751827
C92	C	1.446018	0.584959	1.251827
C93	C	0.946010	0.084953	0.668376
C94	C	1.446010	0.584953	1.168376
C95	C	0.895002	0.171788	0.626656
C96	C	1.395002	0.671788	1.126656
C97	C	0.894997	0.171786	0.536168
C98	C	1.394997	0.671786	1.036168
C99	C	0.894997	0.171778	0.464045
C100	C	1.394997	0.671778	0.964045
H101	H	0.650067	0.389933	0.000079
H102	H	1.150067	0.889933	0.500079
O103	O	1.000993	-0.008734	0.376825
O104	O	1.500993	0.491266	0.876825
H105	H	0.992426	0.005844	0.441864
H106	H	1.492426	0.505844	0.941864
H107	H	0.987537	0.014243	0.634403
H108	H	1.487537	0.514243	1.134403
H109	H	0.283158	-0.042514	0.000120
H110	H	0.783158	0.457486	0.500120
H111	H	0.960094	-0.422671	0.120713
H112	H	1.460094	0.077329	0.620713
O113	O	1.000976	-0.008741	0.203370
O114	O	1.500976	0.491259	0.703370
H115	H	1.036435	-0.069133	0.246405
H116	H	1.536435	0.430867	0.746405
H117	H	0.802479	0.329340	0.634416
H118	H	1.302479	0.829340	1.134416
H119	H	0.680542	-0.031797	0.000090
H120	H	1.180542	0.468203	0.500090
H121	H	1.029032	-0.278467	0.000050
H122	H	1.529032	0.221533	0.500050
H123	H	0.829923	-0.233717	0.120701
H124	H	1.329923	0.266283	0.620701
O125	O	0.788983	0.352283	0.376832
O126	O	1.288983	0.852283	0.876832
H127	H	0.797562	0.337712	0.441871
H128	H	1.297562	0.837712	0.941871
O129	O	0.788972	0.352266	0.203374
O130	O	1.288972	0.852266	0.703374
H131	H	0.753519	0.412664	0.246409
H132	H	1.253519	0.912664	0.746409
O133	O	0.969806	-0.437016	-0.138451
O134	O	1.469806	0.062984	0.361549
H135	H	0.941072	-0.395051	-0.192662
H136	H	1.441072	0.104949	0.307338
O137	O	0.260918	0.410211	0.000121
O138	O	0.760918	0.910211	0.500121
H139	H	0.214362	0.489932	0.000135
H140	H	0.714362	0.989932	0.500135
O141	O	0.096802	0.405806	0.000129
O142	O	0.596802	0.905806	0.500129
H143	H	0.036677	0.384630	0.000144
H144	H	0.536677	0.884630	0.500144
H145	H	0.506834	0.386071	0.000093
H146	H	1.006834	0.886071	0.500093
O147	O	0.820287	-0.219733	-0.138624
O148	O	1.320287	0.280267	0.361376
H149	H	0.822322	-0.114343	-0.138072
H150	H	1.322322	0.385657	0.361928
O151	O	0.131701	-0.077367	0.000126
O152	O	0.631701	0.422633	0.500126
H153	H	0.096125	-0.083878	0.054161
H154	H	0.596125	0.416122	0.554161
H155	H	0.987550	0.014249	0.785804
H156	H	1.487550	0.514249	1.285804
O157	O	0.789027	0.352328	0.796838
O158	O	1.289027	0.852328	1.296838
H159	H	0.729937	0.336205	0.780843
H160	H	1.229937	0.836205	1.280843
O161	O	0.529090	-0.066659	0.000102
O162	O	1.029090	0.433341	0.500102
H163	H	0.466144	-0.048795	0.000098
H164	H	0.966144	0.451205	0.500098
H165	H	0.760891	-0.377683	0.000012
H166	H	1.260891	0.122317	0.500012
