data_functionalizedCrystal
_audit_creation_method	'MofGen! by Chris Wilmer'
_symmetry_space_group_name_H-M	'P1'
_symmetry_Int_Tables_number	1
_symmetry_cell_setting	triclinic
loop_
_symmetry_equiv_pos_as_xyz
  x,y,z
_cell_length_a	18.215407
_cell_length_b	12.594516
_cell_length_c	18.215399
_cell_angle_alpha	89.976218
_cell_angle_beta	89.983101
_cell_angle_gamma	90.009275
loop_
_atom_site_label
_atom_site_type_symbol
_atom_site_fract_x
_atom_site_fract_y
_atom_site_fract_z
Zn1	Zn	1.125139	-0.423825	-0.416080
Zn2	Zn	1.458472	-0.090492	-0.082746
Zn3	Zn	1.791805	0.242841	0.250587
Zn4	Zn	1.125075	-0.601823	-0.293022
Zn5	Zn	1.458409	-0.268489	0.040311
Zn6	Zn	1.791742	0.064844	0.373644
Zn7	Zn	1.002071	-0.423851	-0.293033
Zn8	Zn	1.335405	-0.090517	0.040300
Zn9	Zn	1.668738	0.242816	0.373633
Zn10	Zn	1.002065	-0.601754	-0.416053
Zn11	Zn	1.335399	-0.268421	-0.082720
Zn12	Zn	1.668732	0.064912	0.250613
O13	O	1.063588	-0.512813	-0.354547
O14	O	1.396921	-0.179480	-0.021214
O15	O	1.730254	0.153853	0.312120
O16	O	1.228115	-0.447455	-0.399762
O17	O	1.561448	-0.114122	-0.066429
O18	O	1.894781	0.219212	0.266905
O19	O	1.108734	-0.578254	-0.190039
O20	O	1.442068	-0.244920	0.143294
O21	O	1.775401	0.088413	0.476627
O22	O	1.018426	-0.274902	-0.309371
O23	O	1.351759	0.058432	0.023962
O24	O	1.685092	0.391765	0.357296
O25	O	1.228068	-0.578229	-0.309352
O26	O	1.561401	-0.244896	0.023981
O27	O	1.894735	0.088438	0.357314
O28	O	1.108843	-0.274883	-0.399773
O29	O	1.442176	0.058451	-0.066439
O30	O	1.775509	0.391784	0.266894
O31	O	1.018364	-0.447498	-0.190047
O32	O	1.351697	-0.114165	0.143286
O33	O	1.685031	0.219168	0.476619
O34	O	0.899086	-0.447432	-0.309346
O35	O	1.232420	-0.114099	0.023988
O36	O	1.565753	0.219235	0.357321
O37	O	1.018415	-0.578112	-0.519041
O38	O	1.351749	-0.244779	-0.185708
O39	O	1.685082	0.088555	0.147625
O40	O	0.899082	-0.578137	-0.399728
O41	O	1.232415	-0.244804	-0.066395
O42	O	1.565748	0.088530	0.266938
O43	O	1.108837	-0.447388	-0.519060
O44	O	1.442170	-0.114055	-0.185727
O45	O	1.775504	0.219278	0.147606
O46	O	1.108729	-0.750759	-0.309327
O47	O	1.442062	-0.417426	0.024006
O48	O	1.775395	-0.084093	0.357340
O49	O	1.018354	-0.750709	-0.399718
O50	O	1.351687	-0.417376	-0.066384
O51	O	1.685020	-0.084042	0.266949
C52	C	0.872381	-0.512781	-0.354536
C53	C	1.205715	-0.179447	-0.021202
C54	C	1.539048	0.153886	0.312131
C55	C	0.790583	-0.512792	-0.354548
C56	C	1.123916	-0.179459	-0.021215
C57	C	1.457249	0.153874	0.312118
C58	C	0.525542	-0.580983	-0.401545
C59	C	0.858875	-0.247650	-0.068211
C60	C	1.192209	0.085684	0.265122
C61	C	0.602401	-0.580974	-0.401541
C62	C	0.935734	-0.247641	-0.068208
C63	C	1.269067	0.085693	0.265126
C64	C	0.602375	-0.444667	-0.307563
C65	C	0.935708	-0.111334	0.025771
C66	C	1.269041	0.221999	0.359104
C67	C	0.525517	-0.444683	-0.307563
C68	C	0.858851	-0.111349	0.025770
C69	C	1.192184	0.221984	0.359104
C70	C	0.487103	-0.512839	-0.354558
C71	C	0.820436	-0.179505	-0.021225
C72	C	1.153770	0.153828	0.312109
C73	C	0.640819	-0.512814	-0.354554
C74	C	0.974152	-0.179481	-0.021221
C75	C	1.307486	0.153852	0.312112
C76	C	0.724153	-0.512804	-0.354550
C77	C	1.057486	-0.179471	-0.021217
C78	C	1.390819	0.153863	0.312117
C79	C	0.403764	-0.512851	-0.354562
C80	C	0.737097	-0.179518	-0.021228
C81	C	1.070431	0.153816	0.312105
C82	C	1.063554	-0.789354	-0.354534
C83	C	1.396887	-0.456021	-0.021201
C84	C	1.730220	-0.122688	0.312132
C85	C	1.063606	-0.907660	-0.354553
C86	C	1.396940	-0.574326	-0.021220
C87	C	1.730273	-0.240993	0.312113
C88	C	1.112818	-0.976901	-0.305442
C89	C	1.446152	-0.643568	0.027891
C90	C	1.779485	-0.310235	0.361224
C91	C	1.130801	-1.047606	-0.372613
C92	C	1.464134	-0.714273	-0.039279
C93	C	1.797468	-0.380939	0.294054
C94	C	1.045716	-1.047754	-0.287426
C95	C	1.379049	-0.714421	0.045907
C96	C	1.712382	-0.381087	0.379241
C97	C	1.081623	-0.976806	-0.421759
C98	C	1.414957	-0.643473	-0.088426
C99	C	1.748290	-0.310139	0.244908
C100	C	0.996507	-0.976948	-0.336527
C101	C	1.329840	-0.643614	-0.003194
C102	C	1.663173	-0.310281	0.330140
C103	C	1.014464	-1.047620	-0.403743
C104	C	1.347797	-0.714287	-0.070410
C105	C	1.681131	-0.380954	0.262923
C106	C	1.255541	-0.512847	-0.354559
C107	C	1.588874	-0.179513	-0.021226
C108	C	1.922207	0.153820	0.312108
C109	C	1.337339	-0.512861	-0.354564
C110	C	1.670673	-0.179528	-0.021231
C111	C	2.004006	0.153806	0.312103
C112	C	1.063632	-0.512740	-0.546500
C113	C	1.396966	-0.179406	-0.213167
C114	C	1.730299	0.153927	0.120167
C115	C	1.063652	-0.512709	-0.628299
C116	C	1.396985	-0.179375	-0.294966
C117	C	1.730318	0.153958	0.038368
C118	C	1.063642	-0.235192	-0.354576
C119	C	1.396975	0.098141	-0.021243
C120	C	1.730309	0.431474	0.312091
C121	C	1.063665	-0.116887	-0.354588
C122	C	1.396998	0.216446	-0.021255
C123	C	1.730332	0.549780	0.312078
C124	C	1.110751	-0.444577	-0.816504
C125	C	1.444084	-0.111244	-0.483171
C126	C	1.777418	0.222090	-0.149838
C127	C	1.110760	-0.444546	-0.893363
C128	C	1.444093	-0.111213	-0.560030
C129	C	1.777426	0.222121	-0.226696
C130	C	1.016604	-0.580675	-0.893332
C131	C	1.349938	-0.247342	-0.559998
C132	C	1.683271	0.085991	-0.226665
C133	C	1.016592	-0.580700	-0.816474
C134	C	1.349926	-0.247367	-0.483141
C135	C	1.683259	0.085966	-0.149808
C136	C	1.063670	-0.512653	-0.778063
C137	C	1.397003	-0.179319	-0.444729
C138	C	1.730336	0.154014	-0.111396
C139	C	1.063691	-0.512597	-0.931779
C140	C	1.397024	-0.179263	-0.598445
C141	C	1.730357	0.154070	-0.265112
C142	C	1.063700	-0.512564	-1.015113
C143	C	1.397033	-0.179230	-0.681779
C144	C	1.730366	0.154103	-0.348446
C145	C	1.063660	-0.512684	-0.694724
C146	C	1.396993	-0.179351	-0.361390
C147	C	1.730327	0.153983	-0.028057
C148	C	1.063585	-0.512809	-0.163341
C149	C	1.396919	-0.179476	0.169992
C150	C	1.730252	0.153857	0.503326
C151	C	1.063709	-0.512541	-0.081542
C152	C	1.397042	-0.179208	0.251791
C153	C	1.730375	0.154126	0.585124
H154	H	0.633694	-0.636465	-0.439801
H155	H	0.967028	-0.303132	-0.106468
H156	H	1.300361	0.030202	0.226865
Cl157	Cl	1.022315	-1.095869	-0.199759
Cl158	Cl	1.355648	-0.762536	0.133575
Cl159	Cl	1.688981	-0.429203	0.466908
H160	H	0.633661	-0.389175	-0.269302
H161	H	0.966994	-0.055842	0.064032
H162	H	1.300328	0.277491	0.397365
H163	H	0.494219	-0.389190	-0.269297
H164	H	0.827553	-0.055856	0.064036
H165	H	1.160886	0.277477	0.397369
Cl166	Cl	0.957428	-0.666222	-0.941626
Cl167	Cl	1.290762	-0.332888	-0.608293
Cl168	Cl	1.624095	0.000445	-0.274959
Cl169	Cl	1.169931	-0.359028	-0.768218
Cl170	Cl	1.503264	-0.025694	-0.434884
Cl171	Cl	1.836598	0.307639	-0.101551
Cl172	Cl	1.218451	-1.095506	-0.396197
Cl173	Cl	1.551785	-0.762172	-0.062864
Cl174	Cl	1.885118	-0.428839	0.270470
H175	H	1.149097	-0.389110	-0.924659
H176	H	1.482430	-0.055777	-0.591325
H177	H	1.815763	0.277556	-0.257992
Cl178	Cl	1.177078	-0.928954	-0.241378
Cl179	Cl	1.510411	-0.595621	0.091955
Cl180	Cl	1.843745	-0.262287	0.425289
Cl181	Cl	1.105137	-0.928902	-0.509451
Cl182	Cl	1.438470	-0.595569	-0.176118
Cl183	Cl	1.771804	-0.262236	0.157215
Cl184	Cl	0.957395	-0.666282	-0.768144
Cl185	Cl	1.290729	-0.332949	-0.434811
Cl186	Cl	1.624062	0.000384	-0.101477
H187	H	0.972872	-1.078476	-0.445338
H188	H	1.306206	-0.745143	-0.112005
H189	H	1.639539	-0.411809	0.221329
H190	H	0.494267	-0.636481	-0.439811
H191	H	0.827600	-0.303147	-0.106478
H192	H	1.160934	0.030186	0.226856
H193	H	0.939753	-0.945885	-0.321240
H194	H	1.273087	-0.612552	0.012093
H195	H	1.606420	-0.279218	0.345427
