data_functionalizedCrystal
_audit_creation_method	'MofGen! by Chris Wilmer'
_symmetry_space_group_name_H-M	'P1'
_symmetry_Int_Tables_number	1
_symmetry_cell_setting	triclinic
loop_
_symmetry_equiv_pos_as_xyz
  x,y,z
_cell_length_a	23.532407
_cell_length_b	23.532407
_cell_length_c	13.448316
_cell_angle_alpha	89.992978
_cell_angle_beta	89.997365
_cell_angle_gamma	82.848712
loop_
_atom_site_label
_atom_site_type_symbol
_atom_site_fract_x
_atom_site_fract_y
_atom_site_fract_z
O1	O	0.755260	0.069133	-0.082639
O2	O	1.088594	0.402466	0.250694
O3	O	1.421927	0.735800	0.584028
O4	O	0.589397	0.079136	-0.082656
O5	O	0.922730	0.412470	0.250677
O6	O	1.256064	0.745803	0.584010
O7	O	0.677330	-0.008797	-0.082629
O8	O	1.010664	0.324536	0.250704
O9	O	1.343997	0.657870	0.584038
O10	O	0.667327	0.157066	-0.082666
O11	O	1.000660	0.490400	0.250667
O12	O	1.333994	0.823733	0.584000
O13	O	0.677321	-0.008795	0.082755
O14	O	1.010654	0.324538	0.416088
O15	O	1.343988	0.657871	0.749422
O16	O	0.589388	0.079138	0.082728
O17	O	0.922721	0.412471	0.416061
O18	O	1.256054	0.745804	0.749394
O19	O	0.755251	0.069135	0.082745
O20	O	1.088584	0.402468	0.416078
O21	O	1.421918	0.735801	0.749411
Cu22	Cu	0.672318	0.074136	0.097837
Cu23	Cu	1.005652	0.407470	0.431170
Cu24	Cu	1.338985	0.740803	0.764504
Cu25	Cu	0.672330	0.074135	-0.097749
Cu26	Cu	1.005663	0.407468	0.235585
Cu27	Cu	1.338996	0.740801	0.568918
O28	O	0.667318	0.157068	0.082717
O29	O	1.000651	0.490401	0.416051
O30	O	1.333984	0.823735	0.749384
C31	C	0.568176	0.078882	0.000034
C32	C	0.901510	0.412216	0.333367
C33	C	1.234843	0.745549	0.666700
C34	C	0.504959	0.078116	0.000028
C35	C	0.838293	0.411450	0.333361
C36	C	1.171626	0.744783	0.666695
C37	C	0.238792	0.022921	0.000067
C38	C	0.572125	0.356254	0.333401
C39	C	0.905458	0.689588	0.666734
C40	C	0.298192	0.023632	0.000067
C41	C	0.631525	0.356966	0.333400
C42	C	0.964859	0.690299	0.666734
O43	O	0.334937	-0.020153	0.000111
O44	O	0.668270	0.313180	0.333445
O45	O	1.001603	0.646513	0.666778
N46	N	0.320818	0.075909	0.000048
N47	N	0.654152	0.409242	0.333382
N48	N	0.987485	0.742575	0.666715
C49	C	0.284041	0.127477	0.000040
C50	C	0.617374	0.460810	0.333374
C51	C	0.950707	0.794144	0.666707
O52	O	0.308740	0.172007	0.000026
O53	O	0.642074	0.505341	0.333359
O54	O	0.975407	0.838674	0.666692
C55	C	0.224642	0.126765	0.000048
C56	C	0.557975	0.460098	0.333381
C57	C	0.891308	0.793432	0.666715
C58	C	0.202019	0.074485	0.000056
C59	C	0.535352	0.407819	0.333390
C60	C	0.868686	0.741152	0.666723
C61	C	0.216169	-0.029354	0.000077
C62	C	0.549502	0.303979	0.333410
C63	C	0.882835	0.637312	0.666744
C64	C	0.156772	-0.030066	0.000076
C65	C	0.490106	0.303268	0.333409
C66	C	0.823439	0.636601	0.666742
C67	C	0.119999	0.021499	0.000065
C68	C	0.453333	0.354832	0.333398
C69	C	0.786666	0.688165	0.666731
C70	C	0.142623	0.073774	0.000055
C71	C	0.475956	0.407107	0.333388
C72	C	0.809289	0.740441	0.666722
C73	C	0.187865	0.178333	0.000047
C74	C	0.521199	0.511666	0.333380
C75	C	0.854532	0.844999	0.666714
C76	C	0.128463	0.177616	0.000055
C77	C	0.461796	0.510949	0.333389
C78	C	0.795129	0.844283	0.666722
C79	C	0.105840	0.125336	0.000064
C80	C	0.439173	0.458670	0.333397
C81	C	0.772507	0.792003	0.666731
C82	C	0.046454	0.124627	0.000043
C83	C	0.379787	0.457960	0.333376
C84	C	0.713120	0.791294	0.666709
N85	N	0.023828	0.072351	0.000061
N86	N	0.357161	0.405684	0.333395
N87	N	0.690494	0.739017	0.666728
C88	C	0.060600	0.020787	0.000072
C89	C	0.393934	0.354120	0.333406
C90	C	0.727267	0.687453	0.666739
C91	C	0.408783	0.128968	0.000026
C92	C	0.742117	0.462302	0.333360
C93	C	1.075450	0.795635	0.666693
C94	C	0.468181	0.129681	0.000012
C95	C	0.801514	0.463014	0.333345
C96	C	1.134848	0.796348	0.666678
C97	C	0.482328	0.025836	0.000040
C98	C	0.815662	0.359170	0.333374
C99	C	1.148995	0.692503	0.666707
C100	C	0.422929	0.025124	0.000048
C101	C	0.756263	0.358457	0.333381
C102	C	1.089596	0.691791	0.666714
C103	C	0.386157	0.076692	0.000045
C104	C	0.719490	0.410025	0.333378
C105	C	1.052824	0.743359	0.666712
C106	C	-0.064136	0.019297	0.000068
C107	C	0.269197	0.352630	0.333402
C108	C	0.602530	0.685964	0.666735
C109	C	-0.123538	0.018590	0.000063
C110	C	0.209795	0.351924	0.333396
C111	C	0.543128	0.685257	0.666729
C112	C	-0.137680	0.122435	0.000040
C113	C	0.195653	0.455768	0.333373
C114	C	0.528986	0.789101	0.666706
C115	C	-0.078284	0.123142	0.000040
C116	C	0.255050	0.456475	0.333373
C117	C	0.588383	0.789808	0.666707
C118	C	-0.041512	0.071568	0.000058
C119	C	0.291821	0.404901	0.333391
C120	C	0.625154	0.738235	0.666724
O121	O	0.009675	0.168390	0.000002
O122	O	0.343008	0.501723	0.333336
O123	O	0.676341	0.835057	0.666669
O124	O	0.035892	-0.023737	0.000100
O125	O	0.369226	0.309597	0.333433
O126	O	0.702559	0.642930	0.666767
C127	C	0.677071	-0.030012	0.000065
C128	C	1.010404	0.303321	0.333399
C129	C	1.343738	0.636654	0.666732
C130	C	0.676305	-0.093229	0.000073
C131	C	1.009638	0.240104	0.333406
C132	C	1.342972	0.573437	0.666740
C133	C	0.723538	-0.492332	0.000023
C134	C	1.056872	-0.158999	0.333357
C135	C	1.390205	0.174334	0.666690
C136	C	0.722827	-0.551733	0.000016
C137	C	1.056160	-0.218399	0.333349
C138	C	1.389494	0.114934	0.666682
O139	O	0.766613	-0.588477	-0.000016
O140	O	1.099946	-0.255144	0.333317
O141	O	1.433280	0.078190	0.666650
N142	N	0.670551	-0.574359	0.000011
N143	N	1.003884	-0.241025	0.333344
N144	N	1.337217	0.092308	0.666678
C145	C	0.618982	-0.537581	0.000004
C146	C	0.952316	-0.204248	0.333337
C147	C	1.285649	0.129085	0.666671
O148	O	0.574452	-0.562281	-0.000002
O149	O	0.907785	-0.228948	0.333332
O150	O	1.241119	0.104386	0.666665
C151	C	0.619695	-0.478182	0.000004
C152	C	0.953028	-0.144849	0.333338
C153	C	1.286361	0.188485	0.666671
C154	C	0.671974	-0.455559	0.000019
C155	C	1.005308	-0.122226	0.333353
C156	C	1.338641	0.211107	0.666686
C157	C	0.775814	-0.469709	0.000037
C158	C	1.109147	-0.136376	0.333370
C159	C	1.442481	0.196958	0.666704
C160	C	0.776525	-0.410313	0.000047
C161	C	1.109858	-0.076980	0.333380
C162	C	1.443192	0.256354	0.666713
C163	C	0.724961	-0.373540	0.000042
C164	C	1.058294	-0.040207	0.333376
C165	C	1.391628	0.293127	0.666709
C166	C	0.672685	-0.396163	0.000029
C167	C	1.006019	-0.062830	0.333362
C168	C	1.339352	0.270503	0.666695
C169	C	0.568127	-0.441406	-0.000010
C170	C	0.901460	-0.108072	0.333323
C171	C	1.234794	0.225261	0.666657
C172	C	0.568843	-0.382003	-0.000010
C173	C	0.902177	-0.048670	0.333323
C174	C	1.235510	0.284663	0.666657
C175	C	0.621123	-0.359381	0.000005
C176	C	0.954457	-0.026047	0.333338
C177	C	1.287790	0.307286	0.666671
C178	C	0.621832	-0.299994	0.000034
C179	C	0.955166	0.033339	0.333367
C180	C	1.288499	0.366672	0.666701
N181	N	0.674109	-0.277368	0.000039
N182	N	1.007442	0.055965	0.333372
N183	N	1.340775	0.389299	0.666705
C184	C	0.725673	-0.314141	0.000043
C185	C	1.059006	0.019192	0.333376
C186	C	1.392340	0.352526	0.666710
C187	C	0.617491	-0.662324	0.000001
C188	C	0.950824	-0.328990	0.333334
C189	C	1.284158	0.004343	0.666668
C190	C	0.616778	-0.721722	0.000008
C191	C	0.950112	-0.388388	0.333341
C192	C	1.283445	-0.055055	0.666674
C193	C	0.720623	-0.735869	0.000018
C194	C	1.053957	-0.402536	0.333351
C195	C	1.387290	-0.069202	0.666684
C196	C	0.721335	-0.676470	0.000018
C197	C	1.054669	-0.343137	0.333352
C198	C	1.388002	-0.009803	0.666685
C199	C	0.669767	-0.639698	0.000006
C200	C	1.003101	-0.306364	0.333339
C201	C	1.336434	0.026969	0.666672
C202	C	0.727163	-0.189404	0.000064
C203	C	1.060496	0.143929	0.333397
C204	C	1.393829	0.477262	0.666730
C205	C	0.727869	-0.130002	0.000077
C206	C	1.061203	0.203331	0.333411
C207	C	1.394536	0.536664	0.666744
C208	C	0.624025	-0.115860	0.000062
C209	C	0.957358	0.217473	0.333395
C210	C	1.290691	0.550807	0.666729
C211	C	0.623318	-0.175257	0.000054
C212	C	0.956651	0.158076	0.333387
C213	C	1.289984	0.491410	0.666720
C214	C	0.674891	-0.212028	0.000051
C215	C	1.008225	0.121305	0.333384
C216	C	1.341558	0.454639	0.666718
O217	O	0.578069	-0.263215	0.000062
O218	O	0.911403	0.070118	0.333395
O219	O	1.244736	0.403452	0.666729
O220	O	0.770196	-0.289433	0.000035
O221	O	1.103529	0.043900	0.333369
O222	O	1.436863	0.377234	0.666702
C223	C	0.776472	0.069389	0.000053
C224	C	1.109805	0.402722	0.333386
C225	C	1.443138	0.736055	0.666719
C226	C	0.839689	0.070155	0.000052
C227	C	1.173022	0.403488	0.333385
C228	C	1.506355	0.736821	0.666718
C229	C	0.667577	0.178283	0.000021
C230	C	1.000910	0.511617	0.333354
C231	C	1.334244	0.844950	0.666687
C232	C	0.668343	0.241500	0.000007
C233	C	1.001676	0.574834	0.333340
C234	C	1.335010	0.908167	0.666673
N235	N	0.672315	0.074137	0.235401
N236	N	1.005648	0.407471	0.568735
N237	N	1.338981	0.740804	0.902068
C238	C	0.637991	0.039765	0.712653
C239	C	0.971324	0.373099	1.045987
C240	C	1.304657	0.706432	1.379320
C241	C	0.637989	0.039763	0.608550
C242	C	0.971322	0.373096	0.941883
C243	C	1.304656	0.706430	1.275217
C244	C	0.672328	0.074132	0.556483
C245	C	1.005661	0.407465	0.889816
C246	C	1.338994	0.740799	1.223149
C247	C	0.706674	0.108501	0.608524
C248	C	1.040008	0.441834	0.941857
C249	C	1.373341	0.775168	1.275190
C250	C	0.706678	0.108500	0.712625
C251	C	1.040012	0.441833	1.045958
C252	C	1.373345	0.775166	1.379292
C253	C	0.706662	0.108503	0.391544
C254	C	1.039996	0.441836	0.724877
C255	C	1.373329	0.775169	1.058210
C256	C	0.706657	0.108505	0.287435
C257	C	1.039991	0.441838	0.620768
C258	C	1.373324	0.775172	0.954102
C259	C	0.637973	0.039766	0.287469
C260	C	0.971306	0.373099	0.620802
C261	C	1.304640	0.706433	0.954135
C262	C	0.637977	0.039765	0.391570
C263	C	0.971310	0.373098	0.724903
C264	C	1.304644	0.706431	1.058237
C265	C	0.672323	0.074135	0.443604
C266	C	1.005656	0.407468	0.776937
C267	C	1.338990	0.740801	1.110271
N268	N	0.672333	0.074133	0.764687
N269	N	1.005666	0.407466	1.098020
N270	N	1.339000	0.740800	1.431354
H271	H	0.486595	0.172252	-0.000009
H272	H	0.819928	0.505586	0.333324
H273	H	1.153261	0.838919	0.666658
C274	C	0.224170	-0.132068	0.000088
C275	C	0.557503	0.201266	0.333421
C276	C	0.890836	0.534599	0.666755
C277	C	0.256583	-0.086041	0.000080
C278	C	0.589917	0.247292	0.333414
C279	C	0.923250	0.580626	0.666747
H280	H	0.249119	-0.167065	0.000078
H281	H	0.582452	0.166268	0.333411
H282	H	0.915785	0.499601	0.666744
H283	H	0.200712	-0.130184	0.057763
H284	H	0.534046	0.203150	0.391096
H285	H	0.867379	0.536483	0.724430
H286	H	0.200702	-0.130173	-0.057584
H287	H	0.534036	0.203161	0.275750
H288	H	0.867369	0.536494	0.609083
H289	H	0.280048	-0.087934	0.057756
H290	H	0.613381	0.245400	0.391089
H291	H	0.946715	0.578733	0.724423
H292	H	0.280051	-0.087926	-0.057600
H293	H	0.613384	0.245408	0.275733
H294	H	0.946717	0.578741	0.609066
H295	H	0.734617	0.136493	0.245044
H296	H	1.067950	0.469826	0.578378
H297	H	1.401284	0.803160	0.911711
H298	H	-0.141954	-0.023984	0.000067
H299	H	0.191379	0.309349	0.333400
H300	H	0.524713	0.642683	0.666734
H301	H	-0.034204	-0.022699	0.000082
H302	H	0.299130	0.310634	0.333416
H303	H	0.632463	0.643967	0.666749
H304	H	0.575496	-0.632386	-0.000000
H305	H	0.908829	-0.299053	0.333333
H306	H	1.242162	0.034281	0.666666
C307	C	0.542696	0.017889	0.255467
C308	C	0.876030	0.351223	0.588800
C309	C	1.209363	0.684556	0.922134
C310	C	0.600215	0.001985	0.230288
C311	C	0.933548	0.335318	0.563621
C312	C	1.266881	0.668651	0.896955
H313	H	0.519385	-0.005431	0.220161
H314	H	0.852718	0.327903	0.553494
H315	H	1.186051	0.661236	0.886827
H316	H	0.537793	0.012973	0.324911
H317	H	0.871126	0.346306	0.658244
H318	H	1.204460	0.679640	0.991577
H319	H	0.531902	0.056911	0.238388
H320	H	0.865235	0.390245	0.571722
H321	H	1.198569	0.723578	0.905055
H322	H	0.611010	-0.037036	0.247373
H323	H	0.944344	0.296297	0.580707
H324	H	1.277677	0.629630	0.914040
H325	H	0.605121	0.006896	0.160829
H326	H	0.938454	0.340229	0.494162
H327	H	1.271787	0.673563	0.827495
H328	H	0.098525	0.219610	0.000058
H329	H	0.431858	0.552943	0.333391
H330	H	0.765191	0.886277	0.666724
C331	C	0.465557	-0.421430	-0.000049
C332	C	0.798890	-0.088097	0.333284
C333	C	1.132224	0.245236	0.666617
C334	C	0.510658	-0.466262	-0.000035
C335	C	0.843992	-0.132928	0.333298
C336	C	1.177325	0.200405	0.666632
H337	H	0.430077	-0.436776	-0.000073
H338	H	0.763410	-0.103442	0.333261
H339	H	1.096743	0.229891	0.666594
H340	H	0.467991	-0.398566	0.057625
H341	H	0.801324	-0.065232	0.390958
H342	H	1.134657	0.268101	0.724291
H343	H	0.468012	-0.398551	-0.057722
H344	H	0.801345	-0.065218	0.275611
H345	H	1.134679	0.268115	0.608945
H346	H	0.508206	-0.489138	0.057641
H347	H	0.841539	-0.155805	0.390975
H348	H	1.174872	0.177528	0.724308
H349	H	0.508223	-0.489136	-0.057715
H350	H	0.841557	-0.155803	0.275618
H351	H	1.174890	0.177531	0.608952
H352	H	0.206274	0.220904	0.000036
H353	H	0.539607	0.554238	0.333369
H354	H	0.872940	0.887571	0.666702
H355	H	0.734632	0.136489	0.433906
H356	H	1.067965	0.469822	0.767240
H357	H	1.401298	0.803156	1.100573
H358	H	0.512280	-0.016150	0.000049
H359	H	0.845613	0.317183	0.333383
H360	H	1.178947	0.650516	0.666716
H361	H	0.610025	0.011776	0.566189
H362	H	0.943359	0.345109	0.899522
H363	H	1.276692	0.678443	1.232855
H364	H	0.763906	-0.658055	0.000029
H365	H	1.097239	-0.324722	0.333363
H366	H	1.430573	0.008612	0.666696
H367	H	0.610013	0.011781	0.433961
H368	H	0.943346	0.345115	0.767294
H369	H	1.276679	0.678448	1.100627
C370	C	0.709785	0.185088	0.491443
C371	C	1.043118	0.518421	0.824777
C372	C	1.376452	0.851755	1.158110
C373	C	0.744420	0.146282	0.551294
C374	C	1.077753	0.479615	0.884628
C375	C	1.411087	0.812948	1.217961
H376	H	0.733088	0.208415	0.456119
H377	H	1.066421	0.541748	0.789453
H378	H	1.399755	0.875082	1.122786
H379	H	0.689337	0.164620	0.445558
H380	H	1.022670	0.497953	0.778891
H381	H	1.356003	0.831286	1.112224
H382	H	0.683447	0.208554	0.532068
H383	H	1.016780	0.541887	0.865402
H384	H	1.350114	0.875221	1.198735
H385	H	0.770755	0.122813	0.510668
H386	H	1.104089	0.456146	0.844002
H387	H	1.437422	0.789479	1.177335
H388	H	0.764878	0.166752	0.597185
H389	H	1.098211	0.500085	0.930519
H390	H	1.431544	0.833418	1.263852
H391	H	0.580747	-0.193677	0.000069
H392	H	0.914081	0.139656	0.333403
H393	H	1.247414	0.472990	0.666736
H394	H	0.378846	0.170964	0.000017
H395	H	0.712179	0.504297	0.333350
H396	H	1.045512	0.837630	0.666684
H397	H	-0.059864	0.165712	0.000032
H398	H	0.273470	0.499045	0.333365
H399	H	0.606803	0.832379	0.666698
H400	H	0.762610	-0.765821	0.000017
H401	H	1.095943	-0.432487	0.333351
H402	H	1.429276	-0.099154	0.666684
H403	H	0.526850	-0.352065	-0.000022
H404	H	0.860183	-0.018732	0.333312
H405	H	1.193516	0.314601	0.666645
H406	H	0.138359	-0.072637	0.000087
H407	H	0.471692	0.260696	0.333420
H408	H	0.805026	0.594030	0.666753
H409	H	0.404515	-0.017447	0.000055
H410	H	0.737848	0.315887	0.333389
H411	H	1.071181	0.649220	0.666722
C412	C	-0.212699	0.181871	-0.084978
C413	C	0.120634	0.515204	0.248355
C414	C	0.453968	0.848538	0.581688
C415	C	-0.178111	0.179111	0.000033
C416	C	0.155222	0.512445	0.333366
C417	C	0.488556	0.845778	0.666700
H418	H	-0.237662	0.216859	-0.084971
H419	H	0.095671	0.550193	0.248362
H420	H	0.429005	0.883526	0.581695
H421	H	-0.189234	0.180001	-0.142643
H422	H	0.144100	0.513334	0.190690
H423	H	0.477433	0.846667	0.524024
H424	H	-0.234665	0.150628	-0.084964
H425	H	0.098668	0.483961	0.248370
H426	H	0.432001	0.817294	0.581703
H427	H	-0.156141	0.210352	0.000015
H428	H	0.177192	0.543686	0.333348
H429	H	0.510525	0.877019	0.666681
H430	H	-0.201579	0.180987	0.057713
H431	H	0.131755	0.514320	0.391046
H432	H	0.465088	0.847654	0.724379
C433	C	0.774565	0.176449	0.702142
C434	C	1.107899	0.509782	1.035475
C435	C	1.441232	0.843115	1.368809
C436	C	0.744427	0.146279	0.769825
C437	C	1.077761	0.479613	1.103158
C438	C	1.411094	0.812946	1.436491
H439	H	0.797869	0.199773	0.737456
H440	H	1.131203	0.533107	1.070790
H441	H	1.464536	0.866440	1.404123
H442	H	0.798048	0.150122	0.661540
H443	H	1.131382	0.483455	0.994874
H444	H	1.464715	0.816789	1.328207
H445	H	0.748215	0.199919	0.661539
H446	H	1.081549	0.533252	0.994873
H447	H	1.414882	0.866586	1.328206
H448	H	0.770778	0.122806	0.810423
H449	H	1.104111	0.456139	1.143756
H450	H	1.437444	0.789472	1.477090
H451	H	0.720943	0.172609	0.810444
H452	H	1.054276	0.505943	1.143777
H453	H	1.387609	0.839276	1.477110
H454	H	0.574207	-0.740135	0.000013
H455	H	0.907540	-0.406802	0.333346
H456	H	1.240874	-0.073469	0.666680
C457	C	0.830446	-0.149962	0.000079
C458	C	1.163780	0.183371	0.333412
C459	C	1.497113	0.516705	0.666745
C460	C	0.785339	-0.105137	0.000085
C461	C	1.118672	0.228197	0.333418
C462	C	1.452006	0.561530	0.666752
H463	H	0.865924	-0.134611	0.000075
H464	H	1.199257	0.198722	0.333409
H465	H	1.532590	0.532055	0.666742
H466	H	0.828006	-0.172840	0.057745
H467	H	1.161339	0.160494	0.391079
H468	H	1.494673	0.493827	0.724412
H469	H	0.828005	-0.172830	-0.057601
H470	H	1.161338	0.160504	0.275732
H471	H	1.494671	0.493837	0.609065
H472	H	0.787778	-0.082271	0.057769
H473	H	1.121112	0.251062	0.391102
H474	H	1.454445	0.584395	0.724436
H475	H	0.787781	-0.082250	-0.057588
H476	H	1.121114	0.251084	0.275746
H477	H	1.454447	0.584417	0.609079
H478	H	0.769159	-0.219337	0.000058
H479	H	1.102492	0.113996	0.333391
H480	H	1.435825	0.447330	0.666724
H481	H	0.819097	-0.391900	0.000055
H482	H	1.152430	-0.058566	0.333388
H483	H	1.485763	0.274767	0.666721
H484	H	0.582043	-0.085909	0.000062
H485	H	0.915376	0.247424	0.333395
H486	H	1.248709	0.580758	0.666729
C487	C	0.878527	-0.477710	0.000065
C488	C	1.211860	-0.144377	0.333398
C489	C	1.545194	0.188956	0.666732
C490	C	0.832500	-0.510124	0.000050
C491	C	1.165834	-0.176791	0.333384
C492	C	1.499167	0.156543	0.666717
H493	H	0.913525	-0.502659	0.000086
H494	H	1.246858	-0.169326	0.333419
H495	H	1.580191	0.164007	0.666752
H496	H	0.876647	-0.454249	-0.057608
H497	H	1.209981	-0.120915	0.275726
H498	H	1.543314	0.212418	0.609059
H499	H	0.876628	-0.454247	0.057739
H500	H	1.209961	-0.120914	0.391072
H501	H	1.543294	0.212419	0.724405
H502	H	0.834397	-0.533584	-0.057628
H503	H	1.167731	-0.200251	0.275706
H504	H	1.501064	0.133082	0.609039
H505	H	0.834381	-0.533596	0.057729
H506	H	1.167714	-0.200262	0.391062
H507	H	1.501048	0.133071	0.724396
C508	C	0.570104	-0.028184	0.702221
C509	C	0.903437	0.305149	1.035554
C510	C	1.236771	0.638482	1.368888
C511	C	0.600245	0.001984	0.769882
C512	C	0.933579	0.335317	1.103215
C513	C	1.266912	0.668651	1.436548
H514	H	0.546805	-0.051513	0.737552
H515	H	0.880138	0.281820	1.070885
H516	H	1.213472	0.615154	1.404219
H517	H	0.546616	-0.001857	0.661621
H518	H	0.879949	0.331476	0.994954
H519	H	1.213282	0.664809	1.328287
H520	H	0.596452	-0.051651	0.661614
H521	H	0.929785	0.281682	0.994948
H522	H	1.263119	0.615016	1.328281
H523	H	0.573897	0.025454	0.810484
H524	H	0.907230	0.358787	1.143817
H525	H	1.240564	0.692120	1.477150
H526	H	0.623735	-0.024347	0.810499
H527	H	0.957069	0.308987	1.143833
H528	H	1.290402	0.642320	1.477166
