data_functionalizedCrystal
_audit_creation_method	'MofGen! by Chris Wilmer'
_symmetry_space_group_name_H-M	'P1'
_symmetry_Int_Tables_number	1
_symmetry_cell_setting	triclinic
loop_
_symmetry_equiv_pos_as_xyz
  x,y,z
_cell_length_a	14.908571
_cell_length_b	14.909028
_cell_length_c	12.759393
_cell_angle_alpha	93.327473
_cell_angle_beta	93.315672
_cell_angle_gamma	83.236222
loop_
_atom_site_label
_atom_site_type_symbol
_atom_site_fract_x
_atom_site_fract_y
_atom_site_fract_z
Zn1	Zn	1.404678	-0.440284	0.658722
Zn2	Zn	1.413312	-0.591665	0.473452
Zn3	Zn	1.253302	-0.431580	0.473482
Zn4	Zn	1.262017	-0.582855	0.639527
O5	O	1.333327	-0.511596	0.561296
O6	O	1.532492	-0.467694	0.642166
O7	O	1.392053	-0.570474	0.326430
O8	O	1.266122	-0.306072	0.506100
O9	O	1.538836	-0.578913	0.506050
O10	O	1.377337	-0.312466	0.642195
O11	O	1.274494	-0.452860	0.326452
O12	O	1.127790	-0.444317	0.487487
O13	O	1.280975	-0.563898	0.789099
O14	O	1.134192	-0.555458	0.609480
O15	O	1.385788	-0.459151	0.803202
O16	O	1.400503	-0.717159	0.487437
O17	O	1.289347	-0.710686	0.609451
C18	C	1.098147	-0.497988	0.546404
C19	C	0.997537	-0.492188	0.540057
C20	C	1.346832	-0.746766	0.546382
C21	C	1.352692	-0.847377	0.540042
C22	C	0.815206	-0.597201	0.654969
C23	C	0.720674	-0.591754	0.649009
C24	C	0.713939	-0.475845	0.522183
C25	C	0.808471	-0.481291	0.528143
C26	C	0.859101	-0.541972	0.594537
C27	C	0.953635	-0.547423	0.600491
C28	C	0.946899	-0.431509	0.473671
C29	C	0.852367	-0.426063	0.467711
C30	C	1.418862	-0.992527	0.467646
C31	C	1.413361	-0.897994	0.473599
C32	C	1.297520	-0.891301	0.600535
C33	C	1.303021	-0.985834	0.594582
C34	C	1.363695	-1.036444	0.528136
C35	C	1.369201	-1.130979	0.522190
C36	C	1.253355	-1.124284	0.649120
C37	C	1.247854	-1.029751	0.655073
C38	C	1.569426	-0.525257	0.576246
C39	C	1.670038	-0.531079	0.582617
C40	C	1.333390	-0.511513	0.835339
C41	C	1.333417	-0.511477	0.952120
C42	C	1.319795	-0.275509	0.576292
C43	C	1.314028	-0.174903	0.582683
C44	C	1.333313	-0.511616	0.288326
C45	C	1.333447	-0.511407	0.171573
C46	C	1.387997	-0.456927	1.014328
C47	C	1.388010	-0.456889	1.124055
C48	C	1.278861	-0.565959	1.109357
C49	C	1.278844	-0.565992	0.999631
H50	H	0.994857	-0.596834	0.654551
H51	H	1.432431	-0.412535	0.975647
O52	O	1.441114	-0.403877	1.184328
C53	C	1.489256	-0.355753	1.118859
H54	H	1.494502	-0.393036	1.038488
H55	H	1.560027	-0.350218	1.155699
H56	H	1.452170	-0.285094	1.109451
O57	O	0.664700	-0.417012	0.457606
C58	C	0.612904	-0.465297	0.382962
H59	H	0.645491	-0.538218	0.373561
H60	H	0.609866	-0.432382	0.304197
H61	H	0.541471	-0.464336	0.410765
H62	H	1.458282	-0.862239	0.424340
O63	O	0.803146	-0.367247	0.403099
C64	C	0.751374	-0.415559	0.328456
H65	H	0.783962	-0.488484	0.319109
H66	H	0.748371	-0.382679	0.249672
H67	H	0.679929	-0.414581	0.356224
O68	O	1.225776	-0.618943	1.155342
C69	C	1.177615	-0.667115	1.076903
H70	H	1.172341	-0.629880	1.000845
H71	H	1.106856	-0.672637	1.103471
H72	H	1.214702	-0.737779	1.062964
O73	O	0.989644	-0.377986	0.414909
C74	C	1.047235	-0.432605	0.347117
H75	H	1.065366	-0.502052	0.380590
H76	H	1.111579	-0.399553	0.339627
H77	H	1.011329	-0.440375	0.266319
H78	H	1.208437	-1.160052	0.698380
O79	O	0.864438	-0.656244	0.719302
C80	C	0.922470	-0.717778	0.659120
H81	H	0.894260	-0.721641	0.574216
H82	H	0.927574	-0.787539	0.692635
H83	H	0.992501	-0.693915	0.661847
H84	H	1.248114	-0.850082	0.654626
O85	O	1.189050	-0.980549	0.719740
C86	C	1.237372	-0.928739	0.794333
H87	H	1.310314	-0.961288	0.803609
H88	H	1.204538	-0.925739	0.873153
H89	H	1.236336	-0.857296	0.766556
H90	H	1.418608	-1.172185	0.468090
O91	O	1.477917	-1.041606	0.403174
C92	C	1.566777	-1.023656	0.433412
H93	H	1.564644	-0.955095	0.478239
H94	H	1.607217	-1.022797	0.360403
H95	H	1.600326	-1.078560	0.486044
O96	O	0.678178	-0.645496	0.707749
C97	C	0.743140	-0.700200	0.767648
H98	H	0.810683	-0.707176	0.728659
H99	H	0.719937	-0.769952	0.772487
H100	H	0.751328	-0.667707	0.850232
O101	O	1.225952	-0.619039	0.939084
C102	C	1.280830	-0.680514	0.875186
H103	H	1.347597	-0.652567	0.865132
H104	H	1.244644	-0.690528	0.794916
H105	H	1.294623	-0.748156	0.913837
