data_functionalizedCrystal
_audit_creation_method	'MofGen! by Chris Wilmer'
_symmetry_space_group_name_H-M	'P1'
_symmetry_Int_Tables_number	1
_symmetry_cell_setting	triclinic
loop_
_symmetry_equiv_pos_as_xyz
  x,y,z
_cell_length_a	29.839134
_cell_length_b	29.839131
_cell_length_c	29.839125
_cell_angle_alpha	90.011606
_cell_angle_beta	90.025965
_cell_angle_gamma	90.034165
loop_
_atom_site_label
_atom_site_type_symbol
_atom_site_fract_x
_atom_site_fract_y
_atom_site_fract_z
Zn1	Zn	0.686727	-0.179030	0.254153
Zn2	Zn	1.186727	0.320970	0.754153
Zn3	Zn	0.686657	-0.254134	0.179023
Zn4	Zn	1.186657	0.245866	0.679023
Zn5	Zn	0.611608	-0.179010	0.179019
Zn6	Zn	1.111608	0.320990	0.679019
Zn7	Zn	0.611557	-0.254124	0.254108
Zn8	Zn	1.111557	0.245876	0.754108
O9	O	0.649137	-0.216575	0.216576
O10	O	1.149137	0.283425	0.716576
O11	O	0.749585	-0.189006	0.244207
O12	O	1.249585	0.310994	0.744207
O13	O	0.676693	-0.244164	0.116155
O14	O	1.176693	0.255836	0.616155
O15	O	0.621623	-0.116145	0.189003
O16	O	1.121623	0.383855	0.689003
O17	O	0.749533	-0.244184	0.189009
O18	O	1.249533	0.255816	0.689009
O19	O	0.676812	-0.116160	0.244204
O20	O	1.176812	0.383840	0.744204
O21	O	0.621555	-0.188971	0.116153
O22	O	1.121555	0.311029	0.616153
O23	O	0.548734	-0.188961	0.188960
O24	O	1.048734	0.311039	0.688960
O25	O	0.621537	-0.244168	0.316981
O26	O	1.121537	0.255832	0.816981
O27	O	0.548697	-0.244148	0.244127
O28	O	1.048697	0.255852	0.744127
O29	O	0.676764	-0.188996	0.317014
O30	O	1.176764	0.311004	0.817014
O31	O	0.676645	-0.317000	0.188966
O32	O	1.176645	0.183000	0.688966
O33	O	0.621469	-0.316993	0.244131
O34	O	1.121469	0.183007	0.744131
C35	C	0.532415	-0.216551	0.216539
C36	C	1.032415	0.283449	0.716539
C37	C	0.482480	-0.216552	0.216534
C38	C	0.982480	0.283448	0.716534
C39	C	0.125900	-0.187797	0.187909
C40	C	0.625900	0.312203	0.687909
C41	C	0.313573	-0.187784	0.187882
C42	C	0.813573	0.312216	0.687882
O43	O	0.337843	-0.163297	0.163502
O44	O	0.837843	0.336703	0.663502
N45	N	0.337035	-0.216559	0.216556
N46	N	0.837035	0.283441	0.716556
C47	C	0.313576	-0.245338	0.245242
C48	C	0.813576	0.254662	0.745242
O49	O	0.337839	-0.269810	0.269634
O50	O	0.837839	0.230190	0.769634
C51	C	0.125904	-0.245348	0.245271
C52	C	0.625904	0.254652	0.745271
C53	C	0.102444	-0.216574	0.216591
C54	C	0.602444	0.283426	0.716591
C55	C	0.102440	-0.159024	0.159232
C56	C	0.602440	0.340976	0.659232
C57	C	0.055524	-0.159030	0.159237
C58	C	0.555524	0.340970	0.659237
C59	C	0.032069	-0.187807	0.187920
C60	C	0.532069	0.312193	0.687920
C61	C	0.055529	-0.216579	0.216597
C62	C	0.555529	0.283421	0.716597
C63	C	0.102446	-0.274124	0.273958
C64	C	0.602446	0.225876	0.773958
C65	C	0.055525	-0.274123	0.273964
C66	C	0.555525	0.225877	0.773964
C67	C	0.032065	-0.245349	0.245284
C68	C	0.532065	0.254651	0.745284
C69	C	-0.014842	-0.245362	0.245284
C70	C	0.485158	0.254638	0.745284
N71	N	-0.038305	-0.216586	0.216610
N72	N	0.461695	0.283414	0.716610
C73	C	-0.014849	-0.187809	0.187927
C74	C	0.485151	0.312191	0.687927
C75	C	0.412107	-0.245331	0.245224
C76	C	0.912107	0.254669	0.745224
C77	C	0.459025	-0.245330	0.245216
C78	C	0.959025	0.254670	0.745216
C79	C	0.459018	-0.187775	0.187856
C80	C	0.959018	0.312225	0.687856
C81	C	0.412099	-0.187779	0.187862
C82	C	0.912099	0.312221	0.687862
C83	C	0.388645	-0.216556	0.216549
C84	C	0.888645	0.283444	0.716549
C85	C	-0.113375	-0.187822	0.187941
C86	C	0.386625	0.312178	0.687941
C87	C	-0.160294	-0.187831	0.187947
C88	C	0.339706	0.312169	0.687947
C89	C	-0.160284	-0.245384	0.245308
C90	C	0.339716	0.254616	0.745308
C91	C	-0.113368	-0.245377	0.245300
C92	C	0.386632	0.254623	0.745300
C93	C	-0.089915	-0.216592	0.216615
C94	C	0.410085	0.283408	0.716615
O95	O	-0.039141	-0.269832	0.269654
O96	O	0.460859	0.230168	0.769654
O97	O	-0.039120	-0.163334	0.163546
O98	O	0.460880	0.336666	0.663546
C99	C	0.172815	-0.187791	0.187904
C100	C	0.672815	0.312209	0.687904
C101	C	0.196275	-0.216564	0.216580
C102	C	0.696275	0.283436	0.716580
C103	C	0.172820	-0.245341	0.245263
C104	C	0.672820	0.254659	0.745263
C105	C	0.243193	-0.216562	0.216573
C106	C	0.743193	0.283438	0.716573
C107	C	0.266648	-0.187784	0.187890
C108	C	0.766648	0.312216	0.687890
C109	C	0.243186	-0.159009	0.159216
C110	C	0.743186	0.340991	0.659216
C111	C	0.196271	-0.159014	0.159221
C112	C	0.696271	0.340986	0.659221
C113	C	0.196282	-0.274117	0.273937
C114	C	0.696282	0.225883	0.773937
C115	C	0.243197	-0.274109	0.273929
C116	C	0.743197	0.225891	0.773929
C117	C	0.266653	-0.245332	0.245247
C118	C	0.766653	0.254668	0.745247
C119	C	0.649056	-0.333297	0.216554
C120	C	1.149056	0.166703	0.716554
C121	C	0.649062	-0.383232	0.216559
C122	C	1.149062	0.116768	0.716559
C123	C	0.677919	-0.692866	0.187894
C124	C	1.177919	-0.192866	0.687894
C125	C	0.677975	-0.880539	0.187911
C126	C	1.177975	-0.380539	0.687911
O127	O	0.702445	-0.904797	0.163521
O128	O	1.202445	-0.404797	0.663521
N129	N	0.649230	-0.904017	0.216610
N130	N	1.149230	-0.404017	0.716610
C131	C	0.620472	-0.880573	0.245308
C132	C	1.120472	-0.380573	0.745308
O133	O	0.596028	-0.904848	0.269722
O134	O	1.096028	-0.404848	0.769722
C135	C	0.620419	-0.692901	0.245293
C136	C	1.120419	-0.192901	0.745293
C137	C	0.649162	-0.669426	0.216589
C138	C	1.149162	-0.169426	0.716589
C139	C	0.706660	-0.669391	0.159192
C140	C	1.206660	-0.169391	0.659192
C141	C	0.706644	-0.622476	0.159187
C142	C	1.206644	-0.122476	0.659187
C143	C	0.677887	-0.599035	0.187882
C144	C	1.177887	-0.099035	0.687882
C145	C	0.649146	-0.622510	0.216583
C146	C	1.149146	-0.122510	0.716583
C147	C	0.591664	-0.669458	0.273993
C148	C	1.091664	-0.169458	0.773993
C149	C	0.591654	-0.622537	0.273988
C150	C	1.091654	-0.122537	0.773988
C151	C	0.620397	-0.599062	0.245284
C152	C	1.120397	-0.099062	0.745284
C153	C	0.620374	-0.552155	0.245273
C154	C	1.120374	-0.052155	0.745273
N155	N	0.649118	-0.528677	0.216574
N156	N	1.149118	-0.028677	0.716574
C157	C	0.677875	-0.552117	0.187879
C158	C	1.177875	-0.052117	0.687879
C159	C	0.620501	-0.979104	0.245314
C160	C	1.120501	-0.479104	0.745314
C161	C	0.620514	-1.026022	0.245317
C162	C	1.120514	-0.526022	0.745317
C163	C	0.678017	-1.025984	0.187920
C164	C	1.178017	-0.525984	0.687920
C165	C	0.678002	-0.979066	0.187915
C166	C	1.178002	-0.479066	0.687915
C167	C	0.649246	-0.955626	0.216615
C168	C	1.149246	-0.455626	0.716615
C169	C	0.677839	-0.453592	0.187868
C170	C	1.177839	0.046408	0.687868
C171	C	0.677819	-0.406672	0.187864
C172	C	1.177819	0.093328	0.687864
C173	C	0.620318	-0.406713	0.245262
C174	C	1.120318	0.093287	0.745262
C175	C	0.620336	-0.453629	0.245265
C176	C	1.120336	0.046371	0.745265
C177	C	0.649100	-0.477067	0.216567
C178	C	1.149100	0.022933	0.716567
O179	O	0.595919	-0.527868	0.269653
O180	O	1.095919	-0.027868	0.769653
O181	O	0.702322	-0.527834	0.163475
O182	O	1.202322	-0.027834	0.663475
C183	C	0.677935	-0.739782	0.187899
C184	C	1.177935	-0.239782	0.687899
C185	C	0.649194	-0.763257	0.216601
C186	C	1.149194	-0.263257	0.716601
C187	C	0.620437	-0.739816	0.245296
C188	C	1.120437	-0.239816	0.745296
C189	C	0.649207	-0.810175	0.216604
C190	C	1.149207	-0.310175	0.716604
C191	C	0.677963	-0.833615	0.187909
C192	C	1.177963	-0.333615	0.687909
C193	C	0.706708	-0.810137	0.159210
C194	C	1.206708	-0.310137	0.659210
C195	C	0.706692	-0.763222	0.159204
C196	C	1.206692	-0.263222	0.659204
C197	C	0.591693	-0.763294	0.273995
C198	C	1.091693	-0.263294	0.773995
C199	C	0.591711	-0.810209	0.273998
C200	C	1.091711	-0.310209	0.773998
C201	C	0.620468	-0.833650	0.245302
C202	C	1.120468	-0.333650	0.745302
C203	C	0.766316	-0.216598	0.216613
C204	C	1.266316	0.283402	0.716613
C205	C	0.816250	-0.216609	0.216629
C206	C	1.316250	0.283391	0.716629
C207	C	0.649153	-0.216583	0.333754
C208	C	1.149153	0.283417	0.833754
C209	C	0.649159	-0.216587	0.383689
C210	C	1.149159	0.283413	0.883689
C211	C	0.649231	-0.099396	0.216608
C212	C	1.149231	0.400604	0.716608
C213	C	0.649271	-0.049462	0.216622
C214	C	1.149271	0.450538	0.716622
C215	C	0.649148	-0.216534	0.099853
C216	C	1.149148	0.283466	0.599853
C217	C	0.649228	-0.216404	0.049919
C218	C	1.149228	0.283596	0.549919
C219	C	0.620434	-0.245211	0.740259
C220	C	1.120434	0.254789	1.240259
C221	C	0.620418	-0.245263	0.552586
C222	C	1.120418	0.254737	1.052586
O223	O	0.595950	-0.269686	0.528307
O224	O	1.095950	0.230314	1.028307
N225	N	0.649169	-0.216545	0.529134
N226	N	1.149169	0.283455	1.029134
C227	C	0.677925	-0.187810	0.552603
C228	C	1.177925	0.312190	1.052603
O229	O	0.702376	-0.163381	0.528350
O230	O	1.202376	0.336619	1.028350
C231	C	0.677938	-0.187756	0.740275
C232	C	1.177938	0.312244	1.240275
C233	C	0.649188	-0.216479	0.763725
C234	C	1.149188	0.283521	1.263725
C235	C	0.591686	-0.273932	0.763708
C236	C	1.091686	0.226068	1.263708
C237	C	0.591692	-0.273920	0.810624
C238	C	1.091692	0.226080	1.310624
C239	C	0.620446	-0.245188	0.834090
C240	C	1.120446	0.254812	1.334090
C241	C	0.649194	-0.216468	0.810640
C242	C	1.149194	0.283532	1.310640
C243	C	0.706691	-0.159019	0.763744
C244	C	1.206691	0.340981	1.263744
C245	C	0.706691	-0.159008	0.810665
C246	C	1.206691	0.340992	1.310665
C247	C	0.677941	-0.187731	0.834114
C248	C	1.177941	0.312269	1.334114
C249	C	0.677954	-0.187724	0.881022
C250	C	1.177954	0.312276	1.381022
N251	N	0.649203	-0.216443	0.904474
N252	N	1.149203	0.283557	1.404474
C253	C	0.620449	-0.245175	0.881008
C254	C	1.120449	0.254825	1.381008
C255	C	0.677916	-0.187841	0.454073
C256	C	1.177916	0.312159	0.954073
C257	C	0.677914	-0.187855	0.407155
C258	C	1.177914	0.312145	0.907155
C259	C	0.620406	-0.245307	0.407141
C260	C	1.120406	0.254693	0.907141
C261	C	0.620411	-0.245296	0.454059
C262	C	1.120411	0.254704	0.954059
C263	C	0.649165	-0.216559	0.477524
C264	C	1.149165	0.283441	0.977524
C265	C	0.620464	-0.245148	0.979534
C266	C	1.120464	0.254852	1.479534
C267	C	0.620474	-0.245136	1.026453
C268	C	1.120474	0.254864	1.526453
C269	C	0.677980	-0.187682	1.026463
C270	C	1.177980	0.312318	1.526463
C271	C	0.677972	-0.187696	0.979548
C272	C	1.177972	0.312304	1.479548
C273	C	0.649210	-0.216431	0.956084
C274	C	1.149210	0.283569	1.456084
O275	O	0.702406	-0.163311	0.905330
O276	O	1.202406	0.336689	1.405330
O277	O	0.595994	-0.269592	0.905269
O278	O	1.095994	0.230408	1.405269
C279	C	0.620428	-0.245223	0.693343
C280	C	1.120428	0.254777	1.193343
C281	C	0.649176	-0.216502	0.669894
C282	C	1.149176	0.283498	1.169894
C283	C	0.677930	-0.187771	0.693360
C284	C	1.177930	0.312229	1.193360
C285	C	0.649173	-0.216516	0.622976
C286	C	1.149173	0.283484	1.122976
C287	C	0.620419	-0.245248	0.599510
C288	C	1.120419	0.254752	1.099510
C289	C	0.591668	-0.273966	0.622962
C290	C	1.091668	0.226034	1.122962
C291	C	0.591674	-0.273955	0.669878
C292	C	1.091674	0.226045	1.169878
C293	C	0.706682	-0.159052	0.669908
C294	C	1.206682	0.340948	1.169908
C295	C	0.706674	-0.159067	0.622993
C296	C	1.206674	0.340933	1.122993
C297	C	0.677919	-0.187799	0.599527
C298	C	1.177919	0.312201	1.099527
H299	H	0.262292	-0.135579	0.135860
H300	H	0.762292	0.364421	0.635860
H301	H	0.568256	-0.688564	0.297365
H302	H	1.068256	-0.188564	0.797365
H303	H	0.730050	-0.603365	0.135815
H304	H	1.230050	-0.103365	0.635815
C305	C	0.738317	-0.127445	0.695714
C306	C	1.238317	0.372555	1.195714
N307	N	0.762149	-0.103638	0.715149
N308	N	1.262149	0.396362	1.215149
H309	H	0.730103	-0.135630	0.744659
H310	H	1.230103	0.364370	1.244659
H311	H	0.393001	-0.164347	0.164510
H312	H	0.893001	0.335653	0.664510
C313	C	0.738325	-0.127395	0.836474
C314	C	1.238325	0.372605	1.336474
N315	N	0.762152	-0.103587	0.855912
N316	N	1.262152	0.396413	1.355912
C317	C	0.709601	-0.156102	0.953753
C318	C	1.209601	0.343898	1.453753
N319	N	0.733423	-0.132303	0.934327
N320	N	1.233423	0.367697	1.434327
C321	C	0.709552	-0.156229	0.479878
C322	C	1.209552	0.343771	0.979878
N323	N	0.733383	-0.132420	0.499313
N324	N	1.233383	0.367580	0.999313
C325	C	-0.087583	-0.156160	0.156383
C326	C	0.412417	0.343840	0.656383
N327	N	-0.068157	-0.132315	0.132611
N328	N	0.431843	0.367685	0.632611
C329	C	0.560037	-0.305570	0.597140
C330	C	1.060037	0.194430	1.097140
N331	N	0.536211	-0.329371	0.577689
N332	N	1.036211	0.170629	1.077689
C333	C	0.709622	-0.953248	0.156340
C334	C	1.209622	-0.453248	0.656340
N335	N	0.733441	-0.933804	0.132557
N336	N	1.233441	-0.433804	0.632557
C337	C	0.128234	-0.127366	0.127675
C338	C	0.628234	0.372634	0.627675
N339	N	0.147658	-0.103521	0.103901
N340	N	0.647658	0.396479	0.603901
H341	H	0.597040	-0.268543	0.960435
H342	H	1.097040	0.231457	1.460435
C343	C	0.560088	-0.836027	0.305576
C344	C	1.060088	-0.336027	0.805576
N345	N	0.536274	-0.855471	0.329363
N346	N	1.036274	-0.355471	0.829363
H347	H	-0.094266	-0.268811	0.268650
H348	H	0.405734	0.231189	0.768650
C349	C	0.560059	-0.305513	0.836412
C350	C	1.060059	0.194487	1.336412
N351	N	0.536229	-0.329308	0.855833
N352	N	1.036229	0.170692	1.355833
H353	H	0.701432	-1.045078	0.164556
H354	H	1.201432	-0.545078	0.664556
C355	C	0.128241	-0.305778	0.305509
C356	C	0.628241	0.194222	0.805509
N357	N	0.147670	-0.329622	0.329275
N358	N	0.647670	0.170378	0.829275
H359	H	0.596933	-0.472743	0.268640
H360	H	1.096933	0.027257	0.768640
H361	H	0.730090	-0.135677	0.603904
H362	H	1.230090	0.364323	1.103904
H363	H	-0.179390	-0.268816	0.268659
H364	H	0.320610	0.231184	0.768659
C365	C	0.268998	-0.305767	0.305480
C366	C	0.768998	0.194233	0.805480
N367	N	0.288429	-0.329608	0.329246
N368	N	0.788429	0.170392	0.829246
H369	H	0.177174	-0.135583	0.135868
H370	H	0.677174	0.364417	0.635868
C371	C	0.738295	-0.695168	0.127620
C372	C	1.238295	-0.195168	0.627620
N373	N	0.762122	-0.714580	0.103834
N374	N	1.262122	-0.214580	0.603834
H375	H	0.568262	-0.297344	0.688966
H376	H	1.068262	0.202656	1.188966
C377	C	0.709544	-0.156260	0.381366
C378	C	1.209544	0.343740	0.881366
N379	N	0.733366	-0.132459	0.361943
N380	N	1.233366	0.367541	0.861943
C381	C	0.029725	-0.127369	0.127694
C382	C	0.529725	0.372631	0.627694
N383	N	0.010295	-0.103518	0.103936
N384	N	0.510295	0.396482	0.603936
H385	H	0.568268	-0.297329	0.744607
H386	H	1.068268	0.202671	1.244607
C387	C	0.484828	-0.156117	0.156308
C388	C	0.984828	0.343883	0.656308
N389	N	0.504270	-0.132270	0.132550
N390	N	1.004270	0.367730	0.632550
H391	H	0.597000	-0.268684	0.473149
H392	H	1.097000	0.231316	0.973149
H393	H	0.730097	-0.744112	0.135831
H394	H	1.230097	-0.244112	0.635831
H395	H	0.177189	-0.297551	0.297295
H396	H	0.677189	0.202449	0.797295
C397	C	0.588689	-0.380920	0.276827
C398	C	1.088689	0.119080	0.776827
N399	N	0.564868	-0.361491	0.300605
N400	N	1.064868	0.138509	0.800605
H401	H	0.701225	-0.387560	0.164488
H402	H	1.201225	0.112440	0.664488
H403	H	0.701392	-0.164290	1.045578
H404	H	1.201392	0.335710	1.545578
H405	H	0.596994	-0.268703	0.388027
H406	H	1.096994	0.231297	0.888027
C407	C	0.738340	-0.835931	0.127644
C408	C	1.238340	-0.335931	0.627644
N409	N	0.762165	-0.855361	0.103872
N410	N	1.262165	-0.355361	0.603872
H411	H	0.597104	-1.045131	0.268687
H412	H	1.097104	-0.545131	0.768687
C413	C	-0.186098	-0.156174	0.156398
C414	C	0.313902	0.343826	0.656398
N415	N	-0.205531	-0.132329	0.132638
N416	N	0.294469	0.367671	0.632638
C417	C	0.588877	-0.953326	0.276900
C418	C	1.088877	-0.453326	0.776900
N419	N	0.565061	-0.933913	0.300695
N420	N	1.065061	-0.433913	0.800695
C421	C	0.560019	-0.596757	0.305561
C422	C	1.060019	-0.096757	0.805561
N423	N	0.536191	-0.577340	0.329341
N424	N	1.036191	-0.077340	0.829341
C425	C	0.484825	-0.276988	0.276761
C426	C	0.984825	0.223012	0.776761
N427	N	0.504257	-0.300833	0.300523
N428	N	1.004257	0.199167	0.800523
C429	C	0.560068	-0.737516	0.305576
C430	C	1.060068	-0.237516	0.805576
N431	N	0.536250	-0.718102	0.329368
N432	N	1.036250	-0.218102	0.829368
H433	H	0.393014	-0.268767	0.268585
H434	H	0.893014	0.231233	0.768585
C435	C	0.029728	-0.305783	0.305521
C436	C	0.529728	0.194217	0.805521
N437	N	0.010298	-0.329630	0.329288
N438	N	0.510298	0.170370	0.829288
H439	H	0.597062	-0.268527	1.045544
H440	H	1.097062	0.231473	1.545544
H441	H	0.701263	-0.472669	0.164500
H442	H	1.201263	0.027331	0.664500
