data_functionalizedCrystal
_audit_creation_method	'MofGen! by Chris Wilmer'
_symmetry_space_group_name_H-M	'P1'
_symmetry_Int_Tables_number	1
_symmetry_cell_setting	triclinic
loop_
_symmetry_equiv_pos_as_xyz
  x,y,z
_cell_length_a	13.262390
_cell_length_b	13.262508
_cell_length_c	9.730223
_cell_angle_alpha	105.916979
_cell_angle_beta	74.082492
_cell_angle_gamma	88.760843
loop_
_atom_site_label
_atom_site_type_symbol
_atom_site_fract_x
_atom_site_fract_y
_atom_site_fract_z
O1	O	1.393286	0.141353	-0.582265
O2	O	1.087769	0.156729	-0.462316
O3	O	1.248213	-0.003715	-0.582259
O4	O	1.232842	0.301798	-0.462321
O5	O	1.248211	-0.003711	-0.353677
O6	O	1.087767	0.156733	-0.233734
O7	O	1.393284	0.141357	-0.353683
Zn8	Zn	1.240525	0.149046	-0.257416
Zn9	Zn	1.240528	0.149041	-0.558583
O10	O	1.232840	0.301802	-0.233739
C11	C	1.048660	0.155870	-0.333728
C12	C	0.932131	0.153292	-0.291134
C13	C	1.247351	-0.042821	-0.482266
C14	C	1.244771	-0.159348	-0.524866
C15	C	0.603667	0.146001	-0.669494
C16	C	0.713153	0.148419	-0.709518
C17	C	0.767903	0.149638	-0.604925
C18	C	0.713157	0.148438	-0.460302
C19	C	0.603661	0.146012	-0.420277
C20	C	0.767897	0.149648	-0.355709
C21	C	0.713150	0.148449	-0.211085
C22	C	0.603666	0.146024	-0.171068
C23	C	0.548916	0.144805	-0.275660
C24	C	0.877392	0.152074	-0.395733
C25	C	0.877386	0.152085	-0.146517
C26	C	0.767900	0.149668	-0.106493
C27	C	1.237489	-0.487824	-0.146527
C28	C	1.239905	-0.378340	-0.106498
C29	C	1.241122	-0.323587	-0.211087
C30	C	1.239922	-0.378328	-0.355711
C31	C	1.237498	-0.487823	-0.395740
C32	C	1.241131	-0.323585	-0.460300
C33	C	1.239931	-0.378327	-0.604924
C34	C	1.237508	-0.487810	-0.644946
C35	C	1.236291	-0.542564	-0.540358
C36	C	1.243555	-0.214091	-0.420270
C37	C	1.243564	-0.214089	-0.669483
C38	C	1.241148	-0.323574	-0.709512
C39	C	1.432393	0.142216	-0.482273
C40	C	1.548922	0.144795	-0.524877
C41	C	1.233702	0.340907	-0.333735
C42	C	1.236282	0.457435	-0.291145
N43	N	1.240531	0.149049	-0.051881
N44	N	1.240530	0.149029	-0.764124
C45	C	1.311594	0.078028	-0.033063
C46	C	1.311592	0.078015	0.110816
C47	C	1.169460	0.220053	0.217053
C48	C	1.169458	0.220060	0.073175
C49	C	1.393656	-0.003973	-0.094397
C50	C	1.393654	-0.003986	0.049482
H51	H	0.921955	0.153053	-0.513486
Br52	Br	0.529369	0.144283	-0.811451
H53	H	1.244522	-0.169529	-0.302513
H54	H	1.240170	-0.368160	-0.827267
Br55	Br	1.351688	-0.130861	0.092124
H56	H	1.474237	0.013647	0.065001
H57	H	0.857051	0.151607	-0.637521
H58	H	1.243087	-0.234439	-0.178486
H59	H	1.244547	-0.169508	-0.754645
H60	H	1.236522	-0.532377	-0.762705
Br61	Br	1.072996	0.316429	0.047635
Br62	Br	1.073005	0.316419	0.386775
H63	H	1.240893	-0.333778	0.011250
Br64	Br	1.364373	-0.138307	-0.198768
H65	H	0.757720	0.149390	-0.827273
H66	H	0.559097	0.145029	-0.053314
Br67	Br	0.400320	0.141537	-0.221341
H68	H	1.469754	0.021259	-0.158037
H69	H	0.921963	0.153076	-0.061349
Br70	Br	0.693589	0.148043	0.089778
H71	H	1.234329	-0.631716	-0.572945
Br72	Br	1.235812	-0.562132	-0.004593
