data_functionalizedCrystal
_audit_creation_method	'MofGen! by Chris Wilmer'
_symmetry_space_group_name_H-M	'P1'
_symmetry_Int_Tables_number	1
_symmetry_cell_setting	triclinic
loop_
_symmetry_equiv_pos_as_xyz
  x,y,z
_cell_length_a	16.793024
_cell_length_b	16.793047
_cell_length_c	33.586455
_cell_angle_alpha	113.253857
_cell_angle_beta	66.219990
_cell_angle_gamma	112.758327
loop_
_atom_site_label
_atom_site_type_symbol
_atom_site_fract_x
_atom_site_fract_y
_atom_site_fract_z
O1	O	0.005016	-0.570216	-0.583573
O2	O	-0.034529	-0.474528	-0.453458
O3	O	0.114723	-0.474535	-0.528082
O4	O	-0.144235	-0.570209	-0.508949
O5	O	0.108729	-0.346329	-0.530229
O6	O	-0.040523	-0.346322	-0.455605
O7	O	-0.000977	-0.442010	-0.585721
Cu8	Cu	-0.021297	-0.382459	-0.520859
Cu9	Cu	-0.014209	-0.534079	-0.518320
O10	O	-0.150229	-0.442003	-0.511097
C11	C	0.005100	-0.790970	-0.238461
C12	C	0.009223	-0.693065	-0.217557
C13	C	0.003804	-0.645758	-0.241627
C14	C	-0.075059	-0.538459	-0.266316
C15	C	0.049838	-0.422849	-0.250165
C16	C	-0.040584	-0.395375	-0.435637
C17	C	-0.044693	-0.353446	-0.386631
C18	C	-0.039275	-0.401741	-0.363054
C19	C	-0.040566	-0.125547	-0.300731
C20	C	-0.044689	-0.223451	-0.321635
C21	C	-0.039266	-0.270752	-0.297563
C22	C	0.039597	-0.378051	-0.272874
C23	C	-0.085304	-0.493667	-0.289026
C24	C	0.005118	-0.521142	-0.103554
C25	C	0.009231	-0.563064	-0.152559
C26	C	0.003809	-0.514775	-0.176138
C27	C	0.010758	-0.652581	-0.172822
C28	C	0.001010	-0.556371	-0.220792
C29	C	-0.008251	-0.506059	-0.245823
C30	C	-0.046224	-0.263935	-0.366370
C31	C	-0.036476	-0.360146	-0.318399
C32	C	-0.027211	-0.410451	-0.293367
C33	C	0.815184	-0.521162	-0.508596
C34	C	0.717729	-0.563083	-0.506815
C35	C	0.669923	-0.514793	-0.509201
C36	C	0.564072	-0.463272	-0.548285
C37	C	0.445555	-0.498966	-0.486078
C38	C	0.415541	-0.125553	-0.528781
C39	C	0.375032	-0.223457	-0.531493
C40	C	0.423813	-0.270761	-0.529101
C41	C	0.149318	-0.395376	-0.530584
C42	C	0.246774	-0.353455	-0.532364
C43	C	0.294574	-0.401748	-0.529976
C44	C	0.400424	-0.453269	-0.490892
C45	C	0.518948	-0.417572	-0.553101
C46	C	0.548961	-0.790984	-0.510398
C47	C	0.589464	-0.693083	-0.507684
C48	C	0.540690	-0.645776	-0.510078
C49	C	0.678399	-0.652598	-0.506649
C50	C	0.581167	-0.556389	-0.510877
C51	C	0.530434	-0.506073	-0.515170
C52	C	0.286104	-0.263940	-0.532530
C53	C	0.383336	-0.360149	-0.528302
C54	C	0.434062	-0.410467	-0.524008
C55	C	-0.040530	-0.395407	-0.935652
C56	C	-0.044651	-0.353482	-0.886645
C57	C	-0.039242	-0.401770	-0.863061
C58	C	0.039602	-0.453292	-0.810474
C59	C	-0.085288	-0.417587	-0.750981
C60	C	0.005063	-0.791004	-0.738448
C61	C	0.009186	-0.693099	-0.717543
C62	C	0.003779	-0.645796	-0.741620
C63	C	0.005077	-0.521171	-0.603544
C64	C	0.009198	-0.563096	-0.652550
C65	C	0.003786	-0.514804	-0.676131
C66	C	-0.075058	-0.463283	-0.728717
C67	C	0.049835	-0.498991	-0.788214
C68	C	-0.040516	-0.125574	-0.800747
C69	C	-0.044642	-0.223476	-0.821649
C70	C	-0.039232	-0.270782	-0.797575
C71	C	-0.046172	-0.263965	-0.866386
C72	C	-0.036447	-0.360171	-0.818406
C73	C	-0.027197	-0.410486	-0.793373
C74	C	0.010719	-0.652613	-0.672809
C75	C	0.000994	-0.556406	-0.720789
C76	C	-0.008259	-0.506089	-0.745819
O77	O	-0.000965	0.173549	-0.277957
O78	O	-0.040516	-0.085616	-0.325254
O79	O	0.108737	0.059592	-0.327284
O80	O	-0.150219	0.028341	-0.275927
O81	O	0.114753	0.055151	-0.263265
O82	O	-0.034500	-0.090057	-0.261234
O83	O	0.005051	0.169108	-0.213937
Cu84	Cu	-0.014175	0.039120	-0.231740
Cu85	Cu	-0.021290	0.044372	-0.307451
O86	O	-0.144202	0.023900	-0.211907
O87	O	-0.034458	-0.474571	0.046517
O88	O	0.005076	-0.570190	-0.083599
O89	O	-0.144170	-0.570237	-0.008972
O90	O	0.114787	-0.474523	-0.028110
O91	O	-0.150200	-0.442024	-0.011093
O92	O	-0.000954	-0.441976	-0.085720
O93	O	-0.040488	-0.346357	0.044396
Cu94	Cu	-0.021272	-0.382460	-0.020856
Cu95	Cu	-0.014141	-0.534087	-0.018347
O96	O	0.108757	-0.346309	-0.030231
C97	C	-0.850734	0.086244	-0.289716
C98	C	-0.753280	0.087165	-0.312001
C99	C	-0.705462	0.081107	-0.288506
C100	C	-0.599592	0.000085	-0.264184
C101	C	-0.481080	0.121287	-0.283645
C102	C	-0.450996	0.035117	-0.097351
C103	C	-0.410501	0.028587	-0.146852
C104	C	-0.459292	0.034683	-0.169840
C105	C	-0.184802	0.024283	-0.235878
C106	C	-0.282257	0.023363	-0.213592
C107	C	-0.330068	0.029423	-0.237088
C108	C	-0.435938	0.110445	-0.261411
C109	C	-0.554456	-0.010759	-0.241948
C110	C	-0.584541	0.075410	-0.428242
C111	C	-0.625029	0.081943	-0.378743
C112	C	-0.576244	0.075844	-0.355753
C113	C	-0.713963	0.086424	-0.357292
C114	C	-0.616708	0.075351	-0.310510
C115	C	-0.565963	0.065400	-0.286043
C116	C	-0.321573	0.024104	-0.168302
C117	C	-0.418828	0.035176	-0.215083
C118	C	-0.469568	0.045131	-0.239552
O119	O	0.585213	0.169090	-0.504004
O120	O	0.494056	-0.090076	-0.525516
O121	O	0.488081	0.055124	-0.449918
O122	O	0.591189	0.023889	-0.579602
O123	O	0.359978	0.059584	-0.452885
O124	O	0.365953	-0.085616	-0.528483
O125	O	0.457110	0.173550	-0.506971
Cu126	Cu	0.399835	0.044374	-0.517998
Cu127	Cu	0.551332	0.039099	-0.514489
O128	O	0.463086	0.028349	-0.582569
C129	C	0.815354	-0.521094	-0.008709
C130	C	0.717898	-0.563028	-0.006927
C131	C	0.670072	-0.514739	-0.009298
C132	C	0.564182	-0.463204	-0.048354
C133	C	0.445681	-0.498945	0.013847
C134	C	0.415547	-0.125494	-0.028771
C135	C	0.375059	-0.223405	-0.031498
C136	C	0.423859	-0.270708	-0.029121
C137	C	0.149365	-0.395355	-0.030599
C138	C	0.246820	-0.353421	-0.032381
C139	C	0.294640	-0.401713	-0.030008
C140	C	0.400530	-0.453248	0.009048
C141	C	0.519038	-0.417504	-0.053155
C142	C	0.549171	-0.790955	-0.010537
C143	C	0.589653	-0.693047	-0.007809
C144	C	0.540859	-0.645741	-0.010187
C145	C	0.678588	-0.652551	-0.006775
C146	C	0.581317	-0.556344	-0.010973
C147	C	0.530562	-0.506029	-0.015250
C148	C	0.286131	-0.263897	-0.032533
C149	C	0.383402	-0.360104	-0.028335
C150	C	0.434150	-0.410423	-0.024057
O151	O	-0.620614	0.089309	0.052274
O152	O	-0.529507	0.043784	-0.078544
O153	O	-0.523494	0.194833	-0.006033
O154	O	-0.626628	-0.061740	-0.020236
O155	O	-0.395386	0.185419	-0.005549
O156	O	-0.401400	0.034370	-0.078059
O157	O	-0.492507	0.079895	0.052758
Cu158	Cu	-0.435256	0.056273	-0.012607
Cu159	Cu	-0.586758	0.067406	-0.013179
O160	O	-0.498521	-0.071154	-0.019752
C161	C	-0.437537	0.048335	0.402491
C162	C	-0.397043	0.041789	0.352989
C163	C	-0.445822	0.047883	0.329994
C164	C	-0.496646	0.126653	0.277022
C165	C	-0.465894	-0.000633	0.218811
C166	C	-0.837226	0.099430	0.210091
C167	C	-0.739773	0.100339	0.187806
C168	C	-0.691967	0.094287	0.211308
C169	C	-0.571027	0.088563	0.071568
C170	C	-0.611521	0.095108	0.121070
C171	C	-0.562739	0.089011	0.144061
C172	C	-0.511915	0.010241	0.197033
C173	C	-0.542670	0.137531	0.255247
C174	C	-0.171338	0.037467	0.263967
C175	C	-0.268788	0.036555	0.286249
C176	C	-0.316597	0.042611	0.262750
C177	C	-0.308112	0.037305	0.331542
C178	C	-0.405351	0.048369	0.284750
C179	C	-0.456092	0.058317	0.260279
C180	C	-0.700452	0.099593	0.142516
C181	C	-0.603213	0.088528	0.189308
C182	C	-0.552469	0.078578	0.213776
O183	O	-0.040608	-1.085661	-0.825229
O184	O	-0.001018	-0.826491	-0.777938
O185	O	-0.150287	-0.971682	-0.775894
O186	O	0.108661	-0.940470	-0.827272
O187	O	-0.144253	-0.976123	-0.711878
O188	O	0.005016	-0.830932	-0.713922
O189	O	-0.034575	-1.090102	-0.761213
Cu190	Cu	-0.014228	-0.960923	-0.731722
Cu191	Cu	-0.021364	-0.955670	-0.807428
O192	O	0.114695	-0.944911	-0.763256
O193	O	-0.036816	-0.230509	-0.253950
C194	C	-0.111405	-0.277868	-0.225319
H195	H	-0.136412	-0.349914	-0.245937
H196	H	-0.090117	-0.278715	-0.197297
H197	H	-0.167999	-0.243272	-0.209571
H198	H	0.013347	-0.692513	-0.652885
O199	O	0.001072	-0.427595	-0.655904
C200	C	-0.079807	-0.418872	-0.655095
H201	H	-0.132558	-0.486955	-0.657565
H202	H	-0.105864	-0.368127	-0.622047
H203	H	-0.066402	-0.394480	-0.685017
H204	H	-0.123560	-0.607102	-0.263443
H205	H	0.718758	-0.692512	-0.505593
O206	O	-0.049465	-0.216433	-0.890142
C207	C	-0.128305	-0.258500	-0.904117
H208	H	-0.180842	-0.301284	-0.880905
H209	H	-0.156618	-0.204977	-0.902239
H210	H	-0.111207	-0.303253	-0.940507
H211	H	-0.490116	0.084434	0.126151
H212	H	0.718963	-0.692464	-0.005731
O213	O	-0.580266	0.207628	0.274069
C214	C	-0.512045	0.289405	0.279878
H215	H	-0.444168	0.278270	0.255316
H216	H	-0.528070	0.341730	0.272821
H217	H	-0.508730	0.314342	0.316196
O218	O	-0.153781	-0.377495	-0.731642
C219	C	-0.204411	-0.392864	-0.688911
H220	H	-0.160813	-0.407949	-0.675553
H221	H	-0.227066	-0.330422	-0.664219
H222	H	-0.266292	-0.452646	-0.692406
O223	O	-0.488574	0.185338	0.317851
C224	C	-0.438186	0.160028	0.333525
H225	H	-0.394285	0.117984	0.303511
H226	H	-0.393256	0.222950	0.351576
H227	H	-0.486269	0.118686	0.358160
O228	O	-0.731326	0.093816	0.255445
C229	C	-0.808492	0.019653	0.258888
H230	H	-0.802039	-0.034327	0.224823
H231	H	-0.814507	-0.009104	0.285884
H232	H	-0.871329	0.042417	0.268743
H233	H	0.261638	-0.474883	-0.529387
H234	H	-0.669612	-0.046576	-0.265443
O235	O	0.709377	-0.427441	-0.009911
C236	C	0.734837	-0.376156	0.030011
H237	H	0.743205	-0.422269	0.044612
H238	H	0.801567	-0.323025	0.021780
H239	H	0.680328	-0.341704	0.055921
O240	O	-0.519748	-0.048385	0.156161
C241	C	-0.480667	-0.001266	0.123180
H242	H	-0.429285	0.064006	0.134762
H243	H	-0.445370	-0.044630	0.089609
H244	H	-0.535743	0.014928	0.118499
H245	H	-0.048864	-0.224020	-0.386283
O246	O	0.118408	-0.386277	-0.231111
C247	C	0.174779	-0.444307	-0.250185
H248	H	0.166979	-0.489307	-0.284917
H249	H	0.248134	-0.402686	-0.254012
H250	H	0.154810	-0.487852	-0.227051
O251	O	-0.748488	0.103507	0.119332
C252	C	-0.704803	0.180874	0.103790
H253	H	-0.630161	0.202952	0.101490
H254	H	-0.711697	0.164814	0.068838
H255	H	-0.737224	0.237417	0.128472
H256	H	0.330406	-0.448859	-0.466617
O257	O	0.255508	-0.489014	-0.029379
C258	C	0.305626	-0.544242	-0.067051
H259	H	0.377786	-0.502319	-0.079272
H260	H	0.306664	-0.600873	-0.056796
H261	H	0.272955	-0.574193	-0.095544
O262	O	-0.443235	0.188167	-0.304224
C263	C	-0.502776	0.185671	-0.324895
H264	H	-0.574769	0.150419	-0.307664
H265	H	-0.498995	0.257314	-0.321352
H266	H	-0.482710	0.147262	-0.362384
O267	O	0.097545	-0.296181	-0.276264
C268	C	0.161696	-0.272536	-0.253620
H269	H	0.167349	-0.336059	-0.251394
H270	H	0.230236	-0.235693	-0.273190
H271	H	0.139381	-0.226738	-0.217968
O272	O	-0.489647	0.070282	-0.377182
C273	C	-0.487950	-0.007119	-0.414769
H274	H	-0.550481	-0.027719	-0.425990
H275	H	-0.424661	0.008174	-0.443858
H276	H	-0.487334	-0.064398	-0.404853
O277	O	0.001421	-0.427474	-0.155928
C278	C	0.080557	-0.376168	-0.142837
H279	H	0.136327	-0.411615	-0.164359
H280	H	0.103101	-0.306728	-0.148039
H281	H	0.066236	-0.368673	-0.105528
O282	O	0.647726	-0.468341	-0.077346
C283	C	0.672445	-0.421340	-0.109113
H284	H	0.632638	-0.369310	-0.094464
H285	H	0.747874	-0.385894	-0.116900
H286	H	0.656812	-0.470806	-0.141661
O287	O	-0.352359	0.166089	-0.260001
C288	C	-0.293314	0.158499	-0.304536
H289	H	-0.334235	0.132541	-0.329342
H290	H	-0.244848	0.227346	-0.307032
H291	H	-0.253112	0.109474	-0.313246
H292	H	-0.738384	0.080845	-0.251490
H293	H	0.413839	-0.532573	0.042316
H294	H	0.550810	-0.383955	-0.581575
O295	O	0.407660	-0.538954	-0.452069
C296	C	0.463668	-0.502352	-0.423637
H297	H	0.507941	-0.432665	-0.427057
H298	H	0.419978	-0.496714	-0.386925
H299	H	0.508371	-0.548078	-0.433936
H300	H	0.468233	-0.679598	-0.011487
H301	H	0.496441	-0.236915	-0.527803
O302	O	0.454090	-0.686276	-0.511684
C303	C	0.452376	-0.761411	-0.550357
H304	H	0.514897	-0.785562	-0.561503
H305	H	0.389077	-0.817865	-0.541849
H306	H	0.451766	-0.741563	-0.578990
H307	H	0.001632	-0.679646	-0.778160
H308	H	-0.434254	-0.059305	0.203012
H309	H	0.702857	-0.441654	-0.509785
O310	O	-0.277352	0.042750	0.218566
C311	C	-0.251860	-0.037766	0.192576
H312	H	-0.294428	-0.091897	0.210885
H313	H	-0.263201	-0.060949	0.158011
H314	H	-0.177340	-0.025560	0.187816
O315	O	0.647550	-0.468591	-0.577309
C316	C	0.641959	-0.510887	-0.622016
H317	H	0.579508	-0.503403	-0.624396
H318	H	0.704978	-0.478058	-0.646372
H319	H	0.636873	-0.585401	-0.631433
O320	O	0.013741	-0.700201	-0.149016
C321	C	-0.062937	-0.702866	-0.110564
H322	H	-0.119195	-0.691379	-0.116654
H323	H	-0.086936	-0.771435	-0.104206
H324	H	-0.044687	-0.647943	-0.079738
O325	O	0.237846	-0.216325	-0.533700
C326	C	0.160910	-0.213669	-0.495340
H327	H	0.173258	-0.225153	-0.467292
H328	H	0.147270	-0.145104	-0.482880
H329	H	0.099992	-0.268598	-0.504829
O330	O	0.557047	-0.377216	-0.087054
C331	C	0.566524	-0.283868	-0.068232
H332	H	0.568054	-0.262737	-0.031796
H333	H	0.632194	-0.245849	-0.089080
H334	H	0.506990	-0.267536	-0.068600
O335	O	-0.132935	-0.468715	-0.687014
C336	C	-0.177544	-0.559802	-0.688430
H337	H	-0.135267	-0.604284	-0.717828
H338	H	-0.187039	-0.570722	-0.655207
H339	H	-0.246395	-0.578053	-0.693399
H340	H	-0.142704	-0.524425	-0.305055
H341	H	-0.037104	-0.474911	-0.880014
O342	O	0.510451	-0.230250	-0.027496
C343	C	0.512170	-0.155105	0.011173
H344	H	0.442897	-0.163917	0.037561
H345	H	0.565119	-0.149185	0.026027
H346	H	0.529884	-0.091451	0.001199
O347	O	-0.036827	-0.230422	-0.753959
C348	C	-0.115947	-0.202074	-0.727227
H349	H	-0.171732	-0.243598	-0.744186
H350	H	-0.138479	-0.211861	-0.692202
H351	H	-0.101610	-0.127843	-0.723677
H352	H	-0.297145	0.029698	-0.274103
O353	O	0.001369	-0.686192	-0.285236
C354	C	0.080518	-0.714488	-0.311964
H355	H	0.110377	-0.723022	-0.289320
H356	H	0.063322	-0.781478	-0.338282
H357	H	0.131857	-0.661849	-0.329902
H358	H	-0.037138	-0.474881	-0.380005
O359	O	0.097510	-0.448137	-0.852211
C360	C	0.161689	-0.495122	-0.864890
H361	H	0.133103	-0.547157	-0.845339
H362	H	0.177737	-0.530558	-0.902842
H363	H	0.226123	-0.445644	-0.856744
O364	O	0.118194	-0.539250	-0.807496
C365	C	0.081834	-0.632604	-0.812869
H366	H	0.009238	-0.653761	-0.813772
H367	H	0.124050	-0.670597	-0.845963
H368	H	0.082813	-0.648941	-0.783218
H369	H	-0.754334	0.089615	-0.376700
H370	H	-0.586315	-0.066836	-0.224702
H371	H	-0.531920	0.039247	-0.151930
H372	H	-0.281187	0.020914	-0.148901
H373	H	0.330510	-0.448858	0.033327
H374	H	0.245737	-0.223998	-0.033572
H375	H	-0.267732	0.034117	0.350946
H376	H	-0.518447	0.052455	0.347905
