data_functionalizedCrystal
_audit_creation_method	'MofGen! by Chris Wilmer'
_symmetry_space_group_name_H-M	'P1'
_symmetry_Int_Tables_number	1
_symmetry_cell_setting	triclinic
loop_
_symmetry_equiv_pos_as_xyz
  x,y,z
_cell_length_a	10.489741
_cell_length_b	10.654550
_cell_length_c	9.130313
_cell_angle_alpha	90.000110
_cell_angle_beta	89.997760
_cell_angle_gamma	95.487962
loop_
_atom_site_label
_atom_site_type_symbol
_atom_site_fract_x
_atom_site_fract_y
_atom_site_fract_z
O1	O	1.693961	-0.177187	-0.121864
O2	O	1.322757	-0.193819	-0.121851
O3	O	1.516894	-0.002767	-0.121852
O4	O	1.499824	-0.368238	-0.121862
O5	O	1.516891	-0.002773	0.121747
O6	O	1.322755	-0.193824	0.121748
O7	O	1.693958	-0.177192	0.121735
Cu8	Cu	1.508356	-0.185508	0.143984
Cu9	Cu	1.508359	-0.185502	-0.144100
O10	O	1.499822	-0.368243	0.121736
C11	C	1.275225	-0.192565	-0.000050
C12	C	1.133597	-0.188807	-0.000045
C13	C	1.515639	0.044029	-0.000054
C14	C	1.511889	0.183474	-0.000059
C15	C	1.741491	-0.178445	-0.000069
C16	C	1.883118	-0.182204	-0.000083
C17	C	1.951200	-0.303764	-0.000071
C18	C	2.043355	-0.246338	-0.120171
C19	C	2.043319	-0.246314	0.119998
C20	C	1.973409	-0.124727	-0.120283
C21	C	1.973363	-0.124720	0.119995
C22	C	2.065491	-0.067205	-0.000135
C23	C	1.501076	-0.415039	-0.000065
C24	C	1.504826	-0.554484	-0.000069
N25	N	1.508364	-0.185512	0.346607
C26	C	1.626194	0.262906	-0.000059
C27	C	1.622663	0.393928	-0.000069
C28	C	1.390513	0.366074	-0.000074
C29	C	1.394045	0.235054	-0.000075
C30	C	1.744038	0.211326	-0.000044
C31	C	1.858352	0.290759	-0.000042
C32	C	1.854821	0.421782	-0.000052
C33	C	1.736976	0.473371	-0.000064
N34	N	1.508362	-0.185489	-0.346722
C35	C	1.594350	-0.100943	0.423258
C36	C	1.594346	-0.100928	0.576595
C37	C	1.422367	-0.270061	0.576615
C38	C	1.422365	-0.270069	0.423281
C39	C	1.680348	-0.016386	0.346584
C40	C	1.766342	0.068189	0.423235
C41	C	1.766339	0.068204	0.576572
C42	C	1.680341	-0.016356	0.653257
H43	H	1.901503	-0.403711	-0.000196
H44	H	1.954297	0.248746	-0.000068
H45	H	1.294569	0.408088	-0.000082
H46	H	2.074352	-0.297773	-0.221708
H47	H	1.947901	0.486453	-0.000065
H48	H	1.680361	-0.016393	0.221729
O49	O	1.733159	0.614688	-0.000072
H50	H	1.832442	0.661260	-0.000063
O51	O	1.270764	0.149366	-0.000061
H52	H	1.188226	0.207242	-0.000045
O53	O	1.932274	-0.056641	0.254503
H54	H	1.884485	0.027294	0.220714
H55	H	1.836351	0.137041	0.360790
H56	H	1.746926	0.104642	-0.000031
H57	H	1.836349	0.137075	0.638980
O58	O	1.932625	-0.056658	-0.254948
H59	H	1.827054	-0.054447	-0.253937
O60	O	2.084329	-0.314469	0.254496
H61	H	2.054947	-0.264901	0.354095
O62	O	2.130948	0.065334	-0.000137
H63	H	2.102910	0.115490	-0.099908
H64	H	1.680337	-0.016328	0.778114
O65	O	1.329630	-0.361275	0.659315
H66	H	1.344088	-0.347071	0.778816
H67	H	1.352346	-0.338932	0.360871
