data_functionalizedCrystal
_audit_creation_method	'MofGen! by Chris Wilmer'
_symmetry_space_group_name_H-M	'P1'
_symmetry_Int_Tables_number	1
_symmetry_cell_setting	triclinic
loop_
_symmetry_equiv_pos_as_xyz
  x,y,z
_cell_length_a	20.919331
_cell_length_b	20.919099
_cell_length_c	15.698487
_cell_angle_alpha	61.866776
_cell_angle_beta	93.154077
_cell_angle_gamma	63.569620
loop_
_atom_site_label
_atom_site_type_symbol
_atom_site_fract_x
_atom_site_fract_y
_atom_site_fract_z
Zr1	Zr	0.653373	0.664083	-0.014959
O2	O	0.558127	0.790653	-0.148632
O3	O	0.677731	0.537512	0.019198
O4	O	0.684711	0.664081	-0.148676
O5	O	0.551146	0.664086	0.159423
O6	O	0.790068	0.664080	-0.140952
O7	O	0.551147	0.664084	0.019242
O8	O	0.777582	0.437672	0.159344
O9	O	0.563633	0.890495	-0.140873
O10	O	0.772593	0.589573	0.047771
O11	O	0.693966	0.589575	0.146622
O12	O	0.702185	0.738593	-0.051028
O13	O	0.623557	0.738595	0.047823
Zr14	Zr	0.821404	0.664086	0.220933
Zr15	Zr	0.821405	0.664083	-0.002640
Zr16	Zr	0.653372	0.664087	0.208614
Zr17	Zr	0.662154	0.823320	-0.002584
Zr18	Zr	0.812623	0.504850	0.208558
O19	O	0.797046	0.790658	0.186777
O20	O	0.797048	0.790652	-0.131115
O21	O	0.558126	0.790658	0.169260
O22	O	0.916649	0.537517	0.354606
O23	O	0.916651	0.537511	0.036714
O24	O	0.677729	0.537517	0.337090
O25	O	0.923631	0.664083	0.046551
O26	O	0.790066	0.664089	0.354651
O27	O	0.684709	0.664089	0.346926
O28	O	0.923630	0.664085	0.186732
O29	O	0.697196	0.890495	-0.131080
O30	O	0.777581	0.437675	0.337055
O31	O	0.911144	0.437675	0.346847
O32	O	0.911145	0.437672	0.169136
O33	O	0.563632	0.890498	0.036838
O34	O	0.697195	0.890498	0.046630
O35	O	0.772592	0.589576	0.257002
O36	O	0.851220	0.589574	0.158151
O37	O	0.780811	0.738595	0.059352
O38	O	0.702183	0.738597	0.158203
C39	C	0.726405	0.464904	0.087508
C40	C	0.722677	0.397304	0.082254
C41	C	0.698839	0.017619	0.048957
C42	C	0.702340	0.081154	0.053850
C43	C	0.759105	0.057932	0.133504
C44	C	0.812368	-0.028830	0.208275
C45	C	0.808863	-0.092363	0.203384
C46	C	0.772436	0.247009	0.152135
C47	C	0.775938	0.310550	0.157018
C48	C	0.665909	0.420530	0.002594
C49	C	0.662412	0.356991	-0.002293
C50	C	0.715672	0.270234	0.072481
C51	C	0.762686	0.122873	0.138506
C52	C	0.712087	0.205295	0.067482
C53	C	0.527206	0.664085	0.087577
C54	C	0.455871	0.664085	0.082348
C55	C	0.422356	0.664084	0.157116
C56	C	0.355328	0.664089	0.152191
C57	C	0.321819	0.664088	0.072501
C58	C	0.355338	0.664092	-0.002275
C59	C	0.422362	0.664094	0.002646
C60	C	0.119448	0.664089	0.053773
C61	C	0.052421	0.664085	0.048858
C62	C	0.052415	0.664084	0.203324
C63	C	0.119442	0.664080	0.208242
C64	C	0.152953	0.664088	0.133464
C65	C	0.253307	0.664090	0.067466
C66	C	0.221461	0.664092	0.138495
C67	C	0.947571	0.664084	0.118397
C68	C	1.018905	0.664084	0.123627
C69	C	0.737390	0.664080	-0.176668
C70	C	0.737390	0.664078	-0.271581
C71	C	0.748372	0.863265	0.118467
C72	C	0.752099	0.930865	0.123720
C73	C	0.737390	0.664076	-0.348660
C74	C	0.737390	0.664081	-0.445364
C75	C	0.737387	0.664090	0.382643
C76	C	0.737387	0.664091	0.477555
C77	C	0.936588	0.464904	0.102917
C78	C	1.004194	0.397303	0.102894
C79	C	0.726404	0.464909	0.367163
C80	C	0.722676	0.397310	0.456822
C81	C	0.936586	0.464908	0.382573
C82	C	1.004193	0.397310	0.477462
C83	C	0.538190	0.863261	-0.176599
C84	C	0.470584	0.930860	-0.271488
C85	C	0.538189	0.863266	0.103057
C86	C	0.470582	0.930866	0.103080
C87	C	0.748373	0.863261	-0.161189
C88	C	0.752101	0.930859	-0.250848
C89	C	0.994901	0.365557	0.045256
C90	C	1.058419	0.302048	0.045213
C91	C	1.131229	0.270282	0.102814
C92	C	1.140521	0.302035	0.160454
C93	C	1.077004	0.365547	0.160491
C94	C	0.761967	0.365566	0.556554
C95	C	0.758461	0.302059	0.640807
C96	C	0.715669	0.270293	0.625326
C97	C	0.676373	0.302044	0.525585
C98	C	0.679874	0.365554	0.441334
C99	C	1.076991	0.365564	0.470424
C100	C	1.140521	0.302056	0.559575
C101	C	1.131250	0.270292	0.655762
C102	C	1.058445	0.302044	0.662798
C103	C	0.994917	0.365555	0.573649
C104	C	0.397787	0.962614	-0.264449
C105	C	0.334258	1.026141	-0.353598
C106	C	0.343528	1.057908	-0.449786
C107	C	0.416334	1.026152	-0.456822
C108	C	0.479861	0.962630	-0.367673
C109	C	0.479876	0.962619	0.160710
C110	C	0.416360	1.026146	0.160729
C111	C	0.343550	1.057913	0.103125
C112	C	0.334257	1.026158	0.045489
C113	C	0.397774	0.962637	0.045464
C114	C	0.794901	0.962605	-0.235335
C115	C	0.798419	1.026113	-0.319570
C116	C	0.759132	1.057877	-0.419317
C117	C	0.716331	1.026125	-0.434829
C118	C	0.712818	0.962614	-0.350595
H119	H	0.622546	0.491171	-0.058282
O120	O	0.263592	1.056855	-0.346570
C121	C	0.269042	1.015196	-0.242553
H122	H	0.325305	0.950819	-0.195634
H123	H	0.220372	1.004243	-0.234491
H124	H	0.265853	1.056838	-0.213424
H125	H	0.539134	0.936777	-0.373416
O126	O	0.281843	1.119714	-0.536403
C127	C	0.286012	1.193195	-0.590458
H128	H	0.323914	1.193125	-0.535343
H129	H	0.226795	1.253223	-0.626493
H130	H	0.310697	1.192657	-0.653248
O131	O	0.839893	1.057036	-0.304437
C132	C	0.811736	1.093760	-0.248766
H133	H	0.750224	1.112833	-0.259333
H134	H	0.815117	1.153069	-0.278010
H135	H	0.847097	1.045077	-0.163938
O136	O	0.425421	1.056991	-0.550206
C137	C	0.468843	1.093690	-0.555844
H138	H	0.464291	1.112878	-0.498418
H139	H	0.446694	1.152924	-0.636577
H140	H	0.530654	1.044948	-0.537099
H141	H	0.226020	0.664088	0.002582
H142	H	0.025141	0.664084	-0.016039
H143	H	0.539156	0.936759	0.207625
H144	H	1.182986	0.218578	0.728345
H145	H	0.712824	0.218579	0.693938
O146	O	0.634882	0.271047	0.510737
C147	C	0.640218	0.208192	0.606493
H148	H	0.694111	0.180447	0.667499
H149	H	0.642001	0.154734	0.601729
H150	H	0.588857	0.238568	0.627682
H151	H	1.084553	0.391417	0.392112
H152	H	0.790464	0.276216	0.722013
O153	O	0.924233	0.396340	-0.010796
C154	C	0.929666	0.354677	-0.061653
H155	H	0.988034	0.328507	-0.070112
H156	H	0.884224	0.402325	-0.140802
H157	H	0.921133	0.299510	-0.015171
O158	O	1.211183	0.271282	0.552541
C159	C	1.205734	0.312948	0.448525
H160	H	1.147362	0.339113	0.398636
H161	H	1.251171	0.265303	0.435908
H162	H	1.214263	0.368118	0.426922
H163	H	0.390224	0.936752	-0.186138
O164	O	0.425529	1.056859	0.216819
C165	C	0.503414	1.015200	0.267644
H166	H	0.535593	0.950824	0.276061
H167	H	0.512158	1.004246	0.346810
H168	H	0.525472	1.056843	0.221161
H169	H	0.291837	1.109636	0.103154
O170	O	0.263473	1.057084	-0.010367
C171	C	0.209414	1.119968	0.002007
H172	H	0.234977	1.109533	0.076864
H173	H	0.157442	1.114818	0.004091
H174	H	0.192110	1.186403	-0.064926
H175	H	0.390196	0.936785	-0.001462
H176	H	0.647880	0.391392	0.360130
H177	H	1.050908	0.276172	0.741126
H178	H	0.852232	-0.163003	0.264266
H179	H	0.658977	0.151792	-0.007040
H180	H	1.050838	0.276202	-0.001724
H181	H	0.665868	0.224199	0.002631
O182	O	0.019958	0.663933	0.276079
C183	C	0.071259	0.590041	0.373269
H184	H	0.114094	0.538380	0.363687
H185	H	0.038899	0.565236	0.421514
H186	H	0.102266	0.606754	0.413199
H187	H	1.084581	0.391387	0.207432
H188	H	0.935643	0.391394	0.579393
O189	O	0.832950	0.931833	-0.138427
C190	C	0.781123	0.947337	-0.086215
H191	H	0.722356	1.003009	-0.144282
H192	H	0.799849	0.964154	-0.034292
H193	H	0.779254	0.887387	-0.037852
O194	O	0.817925	0.100211	0.215850
C195	C	0.889529	0.051238	0.212576
H196	H	0.884345	0.020736	0.170728
H197	H	0.930971	-0.001236	0.294068
H198	H	0.911172	0.094611	0.170287
O199	O	0.762600	1.119601	-0.501024
C200	C	0.808818	1.140788	-0.465929
H201	H	0.810929	1.123282	-0.384746
H202	H	0.784366	1.212575	-0.518764
H203	H	0.868531	1.103643	-0.465900
H204	H	0.616187	0.375908	-0.067154
O205	O	0.678184	1.057111	-0.531794
C206	C	0.690481	1.119962	-0.602802
H207	H	0.707138	1.147719	-0.564757
H208	H	0.636304	1.173412	-0.671608
H209	H	0.737942	1.089578	-0.629461
O210	O	0.254027	0.664209	0.215775
C211	C	0.257856	0.738129	0.174237
H212	H	0.256247	0.762773	0.091580
H213	H	0.312844	0.721509	0.221391
H214	H	0.207576	0.789879	0.176154
O215	O	0.671170	0.931908	-0.365854
C216	C	0.637266	0.973556	-0.471958
H217	H	0.632709	1.037926	-0.515092
H218	H	0.578242	0.984522	-0.487927
H219	H	0.673429	0.931900	-0.498652
H220	H	0.328040	0.664089	0.213073
O221	O	0.643628	0.040329	-0.028465
C222	C	0.597381	0.130527	-0.093415
H223	H	0.601756	0.159698	-0.049369
H224	H	0.536034	0.150642	-0.121342
H225	H	0.616956	0.154176	-0.162055
H226	H	0.146724	0.664080	0.273133
H227	H	1.182941	0.218566	0.102777
H228	H	0.822163	0.291632	0.221887
H229	H	0.815806	0.176376	0.213019
H230	H	1.199811	0.276163	0.207351
H231	H	0.146728	0.664094	-0.007114
H232	H	0.449637	0.664080	0.222012
O233	O	0.867414	-0.051283	0.285677
C234	C	0.833744	-0.017822	0.342172
H235	H	0.773504	0.039447	0.292215
H236	H	0.868262	0.003577	0.367257
H237	H	0.832239	-0.069430	0.412724
H238	H	0.328049	0.664097	-0.067166
H239	H	0.796814	0.391423	0.569178
O240	O	0.454841	0.664054	-0.070040
C241	C	0.410885	0.664073	-0.141447
H242	H	0.375873	0.637054	-0.104402
H243	H	0.449830	0.622644	-0.166573
H244	H	0.371410	0.732535	-0.211105
