data_functionalizedCrystal
_audit_creation_method	'MofGen! by Chris Wilmer'
_symmetry_space_group_name_H-M	'P1'
_symmetry_Int_Tables_number	1
_symmetry_cell_setting	triclinic
loop_
_symmetry_equiv_pos_as_xyz
  x,y,z
_cell_length_a	19.288864
_cell_length_b	14.519709
_cell_length_c	13.596369
_cell_angle_alpha	90.014408
_cell_angle_beta	89.980825
_cell_angle_gamma	96.591806
loop_
_atom_site_label
_atom_site_type_symbol
_atom_site_fract_x
_atom_site_fract_y
_atom_site_fract_z
O1	O	0.921763	-0.115045	-0.082125
O2	O	1.421763	0.384955	0.417875
O3	O	0.719558	-0.130564	-0.082060
O4	O	1.219558	0.369436	0.417940
O5	O	0.826022	0.011468	-0.082067
O6	O	1.326022	0.511468	0.417933
O7	O	0.815299	-0.257077	-0.082118
O8	O	1.315299	0.242923	0.417882
O9	O	0.826011	0.011475	0.081516
O10	O	1.326011	0.511475	0.581516
O11	O	0.719548	-0.130557	0.081523
O12	O	1.219548	0.369443	0.581523
O13	O	0.921752	-0.115038	0.081458
O14	O	1.421752	0.384962	0.581458
Zn15	Zn	0.820648	-0.122796	0.107463
Zn16	Zn	1.320648	0.377204	0.607463
Zn17	Zn	0.820662	-0.122806	-0.108065
Zn18	Zn	1.320662	0.377194	0.391935
O19	O	0.815289	-0.257070	0.081465
O20	O	1.315289	0.242930	0.581465
C21	C	0.693675	-0.130061	-0.000260
C22	C	1.193675	0.369939	0.499740
C23	C	0.616566	-0.128562	-0.000234
C24	C	1.116566	0.371438	0.499766
C25	C	0.825517	0.045828	-0.000270
C26	C	1.325517	0.545828	0.499730
C27	C	0.824019	0.148200	-0.000255
C28	C	1.324019	0.648200	0.499745
C29	C	0.572169	-0.211900	-0.000265
C30	C	1.072169	0.288100	0.499735
C31	C	0.499717	-0.210492	-0.000276
C32	C	0.999717	0.289508	0.499724
C33	C	0.471665	-0.125741	-0.000275
C34	C	0.971665	0.374259	0.499725
C35	C	0.516071	-0.042392	-0.000238
C36	C	1.016071	0.457608	0.499762
C37	C	0.588521	-0.043803	-0.000217
C38	C	1.088521	0.456197	0.499783
C39	C	0.363167	-0.059120	-0.057606
C40	C	0.863167	0.440880	0.442394
C41	C	0.290717	-0.057713	-0.057632
C42	C	0.790717	0.442287	0.442368
C43	C	0.248203	-0.121387	-0.000334
C44	C	0.748203	0.378613	0.499666
C45	C	0.278147	-0.186483	0.056979
C46	C	0.778147	0.313517	0.556979
C47	C	0.350597	-0.187894	0.056999
C48	C	0.850597	0.312106	0.556999
C49	C	0.393105	-0.124202	-0.000297
C50	C	0.893105	0.375798	0.499703
C51	C	0.125246	-0.203203	-0.000375
C52	C	0.625246	0.296797	0.499625
C53	C	0.052792	-0.201792	-0.000380
C54	C	0.552792	0.298208	0.499620
C55	C	0.069148	-0.033689	-0.000351
C56	C	0.569148	0.466311	0.499649
C57	C	0.141599	-0.035103	-0.000337
C58	C	0.641599	0.464897	0.499663
C59	C	0.169644	-0.119863	-0.000354
C60	C	0.669644	0.380137	0.499646
C61	C	0.818507	0.523061	-0.000226
C62	C	1.318507	1.023061	0.499774
C63	C	0.820037	0.418762	-0.000234
C64	C	1.320037	0.918762	0.499766
C65	C	0.821263	0.335633	-0.000240
C66	C	1.321263	0.835633	0.499760
C67	C	0.822794	0.231329	-0.000249
C68	C	1.322794	0.731329	0.499751
C69	C	0.947636	-0.115541	-0.000344
C70	C	1.447636	0.384459	0.499656
C71	C	1.024745	-0.117040	-0.000377
C72	C	1.524745	0.382960	0.499623
N73	N	0.820644	-0.122789	0.254554
N74	N	1.320644	0.377211	0.754554
C75	C	0.815794	0.708570	-0.000299
C76	C	1.315794	1.208570	0.499701
C77	C	0.817291	0.606198	-0.000217
C78	C	1.317291	1.106198	0.499783
N79	N	0.820672	-0.122806	-0.255157
N80	N	1.320672	0.377194	0.244843
C81	C	0.820661	-0.122807	0.655845
C82	C	1.320661	0.377193	1.155845
C83	C	0.820654	-0.122805	0.544194
C84	C	1.320654	0.377195	1.044194
C85	C	0.820653	-0.122799	0.455203
C86	C	1.320653	0.377201	0.955203
C87	C	0.820645	-0.122795	0.343545
C88	C	1.320645	0.377205	0.843545
H89	H	0.594998	-0.280918	-0.000281
H90	H	1.094998	0.219082	0.499719
H91	H	0.493226	0.026613	-0.000251
H92	H	0.993226	0.526613	0.499749
C93	C	0.637360	0.047880	-0.000189
C94	C	1.137360	0.547880	0.499811
N95	N	0.674146	0.116936	-0.000172
N96	N	1.174146	0.616936	0.499828
H97	H	0.016645	-0.269658	-0.000400
H98	H	0.516645	0.230342	0.499600
C99	C	0.190438	0.056576	-0.000314
C100	C	0.690438	0.556576	0.499686
N101	N	0.227223	0.125634	-0.000295
N102	N	0.727223	0.625634	0.499705
C103	C	0.383533	-0.259490	0.120052
C104	C	0.883533	0.240510	0.620052
N105	N	0.408340	-0.313414	0.167549
N106	N	0.908340	0.186586	0.667549
C107	C	0.450872	-0.302174	-0.000322
C108	C	0.950872	0.197826	0.499678
N109	N	0.414084	-0.371229	-0.000362
N110	N	0.914084	0.128771	0.499638
C111	C	0.231387	-0.256528	0.120016
C112	C	0.731387	0.243472	0.620016
N113	N	0.196164	-0.309284	0.167493
N114	N	0.696164	0.190716	0.667493
H115	H	0.148080	-0.272220	-0.000374
H116	H	0.648080	0.227780	0.499626
C117	C	0.038294	0.059538	-0.000349
C118	C	0.538294	0.559538	0.499651
N119	N	0.015052	0.129760	-0.000345
N120	N	0.515052	0.629760	0.499655
C121	C	0.409925	0.010927	-0.120647
C122	C	0.909925	0.510927	0.379353
N123	N	0.445142	0.063684	-0.168130
N124	N	0.945142	0.563684	0.331870
C125	C	0.257787	0.013900	-0.120670
C126	C	0.757787	0.513900	0.379330
N127	N	0.232986	0.067843	-0.168147
N128	N	0.732986	0.567843	0.331853
