data_functionalizedCrystal
_audit_creation_method	'MofGen! by Chris Wilmer'
_symmetry_space_group_name_H-M	'P1'
_symmetry_Int_Tables_number	1
_symmetry_cell_setting	triclinic
loop_
_symmetry_equiv_pos_as_xyz
  x,y,z
_cell_length_a	14.971486
_cell_length_b	7.088929
_cell_length_c	14.971506
_cell_angle_alpha	96.230143
_cell_angle_beta	83.618258
_cell_angle_gamma	83.783872
loop_
_atom_site_label
_atom_site_type_symbol
_atom_site_fract_x
_atom_site_fract_y
_atom_site_fract_z
O1	O	1.177795	0.158763	0.125733
O2	O	1.677795	0.658763	0.625733
O3	O	0.917392	0.158814	0.139695
O4	O	1.417392	0.658814	0.639695
O5	O	1.054564	0.158782	0.002515
O6	O	1.554564	0.658782	0.502515
O7	O	1.040623	0.158795	0.262913
O8	O	1.540623	0.658795	0.762913
O9	O	1.072895	-0.159197	-0.015859
O10	O	1.572895	0.340803	0.484141
O11	O	0.935724	-0.159165	0.121321
O12	O	1.435724	0.340835	0.621321
O13	O	1.196126	-0.159217	0.107359
O14	O	1.696126	0.340783	0.607359
Cu15	Cu	1.067599	-0.188225	0.112662
Cu16	Cu	1.567599	0.311775	0.612662
Cu17	Cu	1.045920	0.187823	0.134392
Cu18	Cu	1.545920	0.687823	0.634392
O19	O	1.058955	-0.159185	0.244539
O20	O	1.558955	0.340815	0.744539
C21	C	0.893233	-0.000169	0.129884
C22	C	1.393233	0.499831	0.629884
C23	C	0.793935	-0.000149	0.128015
C24	C	1.293935	0.499851	0.628015
N25	N	1.082853	-0.452717	0.097378
N26	N	1.582853	0.047283	0.597378
C27	C	0.736715	-0.000148	0.208603
C28	C	1.236715	0.499852	0.708603
C29	C	0.643417	-0.000177	0.206838
C30	C	1.143417	0.499823	0.706838
C31	C	0.607340	-0.000193	0.124485
C32	C	1.107340	0.499807	0.624485
C33	C	0.664567	-0.000200	0.043890
C34	C	1.164567	0.499800	0.543890
C35	C	0.757864	-0.000185	0.045655
C36	C	1.257864	0.499815	0.545655
C37	C	0.470106	-0.000226	0.040217
C38	C	0.970106	0.499774	0.540217
C39	C	0.376802	-0.000238	0.038452
C40	C	0.876802	0.499762	0.538452
C41	C	0.355659	-0.000218	0.201401
C42	C	0.855659	0.499782	0.701401
C43	C	0.448956	-0.000203	0.203166
C44	C	0.948956	0.499797	0.703166
C45	C	0.506177	-0.000207	0.122570
C46	C	1.006177	0.499793	0.622570
C47	C	1.220285	-0.000229	0.117170
C48	C	1.720285	0.499771	0.617170
C49	C	1.319583	-0.000236	0.119041
C50	C	1.819583	0.499764	0.619041
C51	C	1.063103	-0.000205	-0.039996
C52	C	1.563103	0.499795	0.460004
C53	C	1.061224	-0.000196	-0.139292
C54	C	1.561224	0.499804	0.360708
N55	N	1.030672	0.452314	0.149669
N56	N	1.530672	0.952314	0.649669
C57	C	1.134643	-0.000211	-0.577575
C58	C	1.634643	0.499789	-0.077575
C59	C	1.136402	-0.000224	-0.484276
C60	C	1.636402	0.499776	0.015724
C61	C	1.055808	-0.000201	-0.427055
C62	C	1.555808	0.499799	0.072945
C63	C	0.973452	-0.000186	-0.463138
C64	C	1.473452	0.499814	0.036862
C65	C	0.971695	-0.000187	-0.556437
C66	C	1.471695	0.499813	-0.056437
C67	C	0.977118	-0.000179	-0.268675
C68	C	1.477118	0.499821	0.231325
C69	C	0.978874	-0.000174	-0.175369
C70	C	1.478874	0.499826	0.324631
C71	C	1.141824	-0.000216	-0.196514
C72	C	1.641824	0.499784	0.303486
C73	C	1.140068	-0.000217	-0.289812
C74	C	1.640068	0.499783	0.210188
C75	C	1.057711	-0.000198	-0.325889
C76	C	1.557711	0.499802	0.174111
C77	C	1.050415	-0.000194	0.287051
C78	C	1.550415	0.499806	0.787051
C79	C	1.052293	-0.000190	0.386347
C80	C	1.552293	0.499810	0.886347
H81	H	0.766081	-0.000134	0.275665
H82	H	1.266081	0.499866	0.775665
Br83	Br	1.173009	-0.588823	0.007066
Br84	Br	1.673009	-0.088823	0.507066
H85	H	1.200271	-0.000214	-0.624158
H86	H	1.700271	0.499786	-0.124158
H87	H	0.976593	-0.466027	0.203857
H88	H	1.476593	0.033973	0.703857
Br89	Br	0.869497	-0.000162	-0.097713
Br90	Br	1.369497	0.499838	0.402287
Br91	Br	1.248165	-0.000206	-0.435314
Br92	Br	1.748165	0.499794	0.064686
H93	H	1.205694	-0.000224	-0.336400
H94	H	1.705694	0.499776	0.163600
H95	H	1.208872	-0.000056	-0.167126
H96	H	1.708872	0.499944	0.332874
Br97	Br	0.865348	-0.000169	-0.317637
Br98	Br	1.365348	0.499831	0.182363
H99	H	0.347432	-0.000253	-0.028607
H100	H	0.847432	0.499747	0.471393
H101	H	0.907832	-0.000178	-0.416542
H102	H	1.407832	0.499822	0.083458
Br103	Br	0.859931	-0.000178	-0.605401
Br104	Br	1.359931	0.499822	-0.105401
H105	H	0.516693	-0.000232	-0.025412
H106	H	1.016693	0.499768	0.474588
H107	H	0.596832	-0.000173	0.272462
H108	H	1.096832	0.499827	0.772462
H109	H	0.478326	-0.000172	0.270226
H110	H	0.978326	0.499828	0.770226
H111	H	0.309066	-0.000224	0.267024
H112	H	0.809066	0.499776	0.767024
H113	H	0.635187	-0.000240	-0.023165
H114	H	1.135187	0.499760	0.476835
H115	H	0.804452	-0.000185	-0.019969
H116	H	1.304452	0.499815	0.480031
