data_functionalizedCrystal
_audit_creation_method	'MofGen! by Chris Wilmer'
_symmetry_space_group_name_H-M	'P1'
_symmetry_Int_Tables_number	1
_symmetry_cell_setting	triclinic
loop_
_symmetry_equiv_pos_as_xyz
  x,y,z
_cell_length_a	10.654558
_cell_length_b	10.654550
_cell_length_c	10.065875
_cell_angle_alpha	98.854397
_cell_angle_beta	81.144301
_cell_angle_gamma	84.486562
loop_
_atom_site_label
_atom_site_type_symbol
_atom_site_fract_x
_atom_site_fract_y
_atom_site_fract_z
O1	O	-1.686092	-0.158177	0.113528
O2	O	-1.320614	-0.174974	0.113522
O3	O	-1.511755	0.016163	0.113520
O4	O	-1.494951	-0.349314	0.113530
O5	O	-1.475236	-0.020360	-0.113468
O6	O	-1.284095	-0.211496	-0.113466
O7	O	-1.649573	-0.194700	-0.113461
Zn8	Zn	-1.461036	-0.208897	-0.149503
Zn9	Zn	-1.509151	-0.160777	0.149564
O10	O	-1.458431	-0.385836	-0.113459
C11	C	-1.255556	-0.192000	0.000027
C12	C	-1.116113	-0.188304	0.000025
C13	C	-1.492262	0.044700	0.000027
C14	C	-1.488571	0.184144	0.000032
C15	C	-0.933554	-0.068814	0.000038
C16	C	-1.064573	-0.072288	0.000025
C17	C	-1.036624	-0.300857	0.000023
C18	C	-0.905606	-0.297383	0.000026
C19	C	-0.949692	0.063150	0.000045
C20	C	-1.080711	0.059676	0.000032
C21	C	-0.714631	-0.177671	0.000035
C22	C	-0.854075	-0.181357	0.000041
C23	C	-1.477925	-0.414373	0.000037
C24	C	-1.481618	-0.553816	0.000041
N25	N	-1.428207	-0.241737	-0.353608
C26	C	-1.601111	0.263626	0.000030
C27	C	-1.597636	0.394648	0.000039
C28	C	-1.369069	0.366693	0.000048
C29	C	-1.372547	0.235674	0.000048
C30	C	-1.733072	0.279766	0.000019
C31	C	-1.729597	0.410788	0.000028
C32	C	-1.472475	-0.197469	-0.578551
C33	C	-1.497731	-0.172185	-0.421384
N34	N	-1.541989	-0.127927	0.353669
H35	H	-1.078596	-0.395322	0.000010
O36	O	-1.368883	-0.301143	-0.655798
H37	H	-1.275189	-0.279922	-0.628486
O38	O	-0.923365	0.139724	0.129846
H39	H	-1.015364	0.177515	0.198659
O40	O	-1.156287	0.145784	0.125845
H41	H	-1.215867	0.088352	0.187432
H42	H	-0.905047	0.099479	-0.094945
H43	H	-1.110581	0.083782	-0.097981
H44	H	-1.349986	-0.319994	-0.411928
O45	O	-1.601319	-0.068494	-0.344150
H46	H	-1.604895	-0.064900	-0.232825
O47	O	-1.243928	0.422267	0.000044
H48	H	-1.260412	0.526724	0.000033
H49	H	-1.280908	0.170967	0.000069
H50	H	-1.799970	0.265690	0.095007
O51	O	-1.767869	0.211669	-0.129786
H52	H	-1.783509	0.281524	-0.198604
O53	O	-1.803301	0.492151	0.129844
H54	H	-1.797433	0.594749	0.124490
O55	O	-1.775206	0.445891	-0.125788
H56	H	-1.711872	0.390343	-0.218238
O57	O	-1.645572	-0.024241	-0.569091
H58	H	-1.649148	-0.020647	-0.457766
H59	H	-0.840896	-0.389030	0.000013
