data_functionalizedCrystal
_audit_creation_method	'MofGen! by Chris Wilmer'
_symmetry_space_group_name_H-M	'P1'
_symmetry_Int_Tables_number	1
_symmetry_cell_setting	triclinic
loop_
_symmetry_equiv_pos_as_xyz
  x,y,z
_cell_length_a	21.295418
_cell_length_b	25.639233
_cell_length_c	21.295418
_cell_angle_alpha	90.016707
_cell_angle_beta	89.955800
_cell_angle_gamma	89.967403
loop_
_atom_site_label
_atom_site_type_symbol
_atom_site_fract_x
_atom_site_fract_y
_atom_site_fract_z
Zn1	Zn	0.962296	-0.295895	0.250420
Zn2	Zn	1.295629	0.037438	0.583753
Zn3	Zn	1.628962	0.370771	0.917087
Zn4	Zn	0.962223	-0.208463	0.355671
Zn5	Zn	1.295556	0.124871	0.689004
Zn6	Zn	1.628889	0.458204	1.022337
Zn7	Zn	0.857039	-0.208443	0.250448
Zn8	Zn	1.190373	0.124890	0.583782
Zn9	Zn	1.523706	0.458223	0.917115
Zn10	Zn	0.856992	-0.295837	0.355684
Zn11	Zn	1.190326	0.037497	0.689018
Zn12	Zn	1.523659	0.370830	1.022351
O13	O	0.909638	-0.252160	0.303056
O14	O	1.242971	0.081174	0.636389
O15	O	1.576304	0.414507	0.969722
O16	O	1.050375	-0.284330	0.264364
O17	O	1.383709	0.049004	0.597698
O18	O	1.717042	0.382337	0.931031
O19	O	0.948259	-0.135295	0.341718
O20	O	1.281592	0.198038	0.675052
O21	O	1.614926	0.531372	1.008385
O22	O	0.871052	-0.220061	0.162355
O23	O	1.204386	0.113273	0.495688
O24	O	1.537719	0.446606	0.829022
O25	O	1.050322	-0.220093	0.341691
O26	O	1.383655	0.113240	0.675025
O27	O	1.716988	0.446573	1.008358
O28	O	0.948384	-0.284311	0.162334
O29	O	1.281717	0.049022	0.495668
O30	O	1.615050	0.382356	0.829001
O31	O	0.870981	-0.135281	0.264412
O32	O	1.204315	0.198053	0.597745
O33	O	1.537648	0.531386	0.931079
O34	O	0.768944	-0.220004	0.264426
O35	O	1.102277	0.113330	0.597759
O36	O	1.435610	0.446663	0.931092
O37	O	0.870972	-0.369010	0.341715
O38	O	1.204305	-0.035676	0.675048
O39	O	1.537639	0.297657	1.008382
O40	O	0.768909	-0.284211	0.341742
O41	O	1.102242	0.049122	0.675076
O42	O	1.435576	0.382455	1.008409
O43	O	0.948338	-0.369053	0.264378
O44	O	1.281671	-0.035719	0.597711
O45	O	1.615005	0.297614	0.931044
O46	O	0.948213	-0.220037	0.443762
O47	O	1.281546	0.113297	0.777095
O48	O	1.614880	0.446630	1.110428
O49	O	0.870901	-0.284230	0.443772
O50	O	1.204234	0.049103	0.777105
O51	O	1.537568	0.382437	1.110439
C52	C	0.746086	-0.252099	0.303089
C53	C	1.079419	0.081234	0.636422
C54	C	1.412753	0.414567	0.969756
C55	C	0.676118	-0.252086	0.303118
C56	C	1.009451	0.081247	0.636452
C57	C	1.342784	0.414581	0.969785
C58	C	0.909658	-0.388533	0.303045
C59	C	1.242991	-0.055199	0.636378
C60	C	1.576324	0.278134	0.969711
C61	C	0.909666	-0.446647	0.303040
C62	C	1.243000	-0.113313	0.636373
C63	C	1.576333	0.220020	0.969707
C64	C	0.643250	-0.285469	0.343430
C65	C	0.976583	0.047865	0.676764
C66	C	1.309916	0.381198	1.010097
C67	C	0.577507	-0.285492	0.343415
C68	C	0.910840	0.047841	0.676748
C69	C	1.244174	0.381174	1.010081
C70	C	0.544635	-0.252124	0.303094
C71	C	0.877969	0.081210	0.636427
C72	C	1.211302	0.414543	0.969761
C73	C	0.577511	-0.218738	0.262774
C74	C	0.910845	0.114595	0.596107
C75	C	1.244178	0.447928	0.929441
C76	C	0.643253	-0.218720	0.262786
C77	C	0.976586	0.114614	0.596119
C78	C	1.309919	0.447947	0.929453
N79	N	0.441370	-0.206394	0.298166
N80	N	0.774703	0.126940	0.631499
N81	N	1.108036	0.460273	0.964833
N82	N	0.378918	-0.206413	0.298158
N83	N	0.712252	0.126920	0.631491
N84	N	1.045585	0.460254	0.964825
C85	C	0.346561	-0.252179	0.303054
C86	C	0.679894	0.081154	0.636387
C87	C	1.013227	0.414488	0.969720
N88	N	0.379013	-0.297926	0.307970
N89	N	0.712347	0.035407	0.641303
N90	N	1.045680	0.368741	0.974636
N91	N	0.441471	-0.297906	0.307981
N92	N	0.774804	0.035427	0.641314
N93	N	1.108137	0.368761	0.974648
C94	C	0.473350	-0.252141	0.303076
C95	C	0.806683	0.081193	0.636409
C96	C	1.140017	0.414526	0.969743
C97	C	0.242407	-0.285590	0.343351
C98	C	0.575740	0.047743	0.676684
C99	C	0.909074	0.381076	1.010018
C100	C	0.176663	-0.285615	0.343331
C101	C	0.509996	0.047719	0.676665
C102	C	0.843330	0.381052	1.009998
C103	C	0.176669	-0.218856	0.262694
C104	C	0.510002	0.114477	0.596027
C105	C	0.843335	0.447811	0.929360
C106	C	0.242411	-0.218836	0.262710
C107	C	0.575745	0.114497	0.596044
C108	C	0.909078	0.447830	0.929377
C109	C	0.275276	-0.252203	0.303042
C110	C	0.608610	0.081131	0.636376
C111	C	0.941943	0.414464	0.969709
C112	C	0.950002	-0.807038	0.262651
C113	C	1.283335	-0.473705	0.595984
C114	C	1.616669	-0.140371	0.929318
C115	C	0.950010	-0.861642	0.262634
C116	C	1.283343	-0.528309	0.595967
C117	C	1.616676	-0.194976	0.929300
O118	O	0.984254	-0.889903	0.228367
O119	O	1.317587	-0.556570	0.561701
O120	O	1.650920	-0.223236	0.895034
N121	N	0.909736	-0.888929	0.302892
N122	N	1.243069	-0.555596	0.636226
N123	N	1.576403	-0.222263	0.969559
C124	C	0.869447	-0.861609	0.343167
C125	C	1.202780	-0.528276	0.676500
C126	C	1.536114	-0.194943	1.009834
O127	O	0.835191	-0.889833	0.377408
O128	O	1.168524	-0.556500	0.710742
O129	O	1.501858	-0.223166	1.044075
C130	C	0.869436	-0.807006	0.343181
C131	C	1.202770	-0.473673	0.676514
C132	C	1.536103	-0.140339	1.009847
C133	C	0.909718	-0.779722	0.302924
C134	C	1.243051	-0.446388	0.636257
C135	C	1.576384	-0.113055	0.969590
C136	C	0.990279	-0.779754	0.222397
C137	C	1.323613	-0.446420	0.555730
C138	C	1.656946	-0.113087	0.889063
C139	C	0.990272	-0.725153	0.222415
C140	C	1.323606	-0.391820	0.555748
C141	C	1.656939	-0.058486	0.889082
C142	C	0.949988	-0.697837	0.262688
C143	C	1.283321	-0.364503	0.596021
C144	C	1.616654	-0.031170	0.929354
C145	C	0.909710	-0.725121	0.302942
C146	C	1.243044	-0.391788	0.636275
C147	C	1.576377	-0.058454	0.969609
C148	C	0.829145	-0.779687	0.383452
C149	C	1.162478	-0.446353	0.716785
C150	C	1.495812	-0.113020	1.050118
C151	C	0.829138	-0.725080	0.383461
C152	C	1.162471	-0.391746	0.716795
C153	C	1.495804	-0.058413	1.050128
C154	C	0.869419	-0.697795	0.343204
C155	C	1.202752	-0.364462	0.676538
C156	C	1.536085	-0.031129	1.009871
C157	C	0.869419	-0.643204	0.343233
C158	C	1.202752	-0.309871	0.676566
C159	C	1.536086	0.023462	1.009900
N160	N	0.909693	-0.615917	0.302974
N161	N	1.243026	-0.282584	0.636308
N162	N	1.576360	0.050750	0.969641
C163	C	0.949977	-0.643233	0.262701
C164	C	1.283311	-0.309900	0.596035
C165	C	1.616644	0.023433	0.929368
C166	C	0.869471	-0.976280	0.343134
C167	C	1.202805	-0.642947	0.676468
C168	C	1.536138	-0.309613	1.009801
C169	C	0.869484	-1.030882	0.343124
C170	C	1.202818	-0.697549	0.676457
C171	C	1.536151	-0.364216	1.009791
C172	C	0.950047	-1.030912	0.262590
C173	C	1.283380	-0.697578	0.595923
C174	C	1.616713	-0.364245	0.929256
C175	C	0.950036	-0.976308	0.262603
C176	C	1.283369	-0.642975	0.595937
C177	C	1.616703	-0.309641	0.929270
C178	C	0.909745	-0.948993	0.302875
C179	C	1.243079	-0.615660	0.636209
C180	C	1.576412	-0.282326	0.969542
C181	C	0.949960	-0.528568	0.262744
C182	C	1.283293	-0.195235	0.596077
C183	C	1.616626	0.138098	0.929410
C184	C	0.949951	-0.473963	0.262767
C185	C	1.283284	-0.140630	0.596101
C186	C	1.616618	0.192704	0.929434
C187	C	0.869387	-0.473938	0.343299
C188	C	1.202720	-0.140605	0.676632
C189	C	1.536053	0.192728	1.009966
C190	C	0.869398	-0.528539	0.343278
C191	C	1.202731	-0.195206	0.676611
C192	C	1.536064	0.138128	1.009945
C193	C	0.909686	-0.555853	0.302995
C194	C	1.243020	-0.222519	0.636328
C195	C	1.576353	0.110814	0.969662
O196	O	0.835191	-0.614909	0.377480
O197	O	1.168524	-0.281576	0.710813
O198	O	1.501857	0.051758	1.044147
O199	O	0.984222	-0.615003	0.228460
O200	O	1.317555	-0.281670	0.561793
O201	O	1.650888	0.051664	0.895127
C202	C	1.073828	-0.252220	0.303023
C203	C	1.407161	0.081113	0.636356
C204	C	1.740494	0.414446	0.969690
C205	C	1.143796	-0.252246	0.303009
C206	C	1.477129	0.081087	0.636342
C207	C	1.810463	0.414421	0.969676
C208	C	0.909561	-0.252140	0.466607
C209	C	1.242894	0.081193	0.799941
C210	C	1.576228	0.414526	1.133274
C211	C	0.909586	-0.252150	0.536576
C212	C	1.242919	0.081184	0.869909
C213	C	1.576253	0.414517	1.203242
C214	C	0.909654	-0.116317	0.303021
C215	C	1.242987	0.217016	0.636355
C216	C	1.576320	0.550350	0.969688
C217	C	0.909767	-0.058203	0.302849
C218	C	1.243100	0.275130	0.636182
C219	C	1.576434	0.608463	0.969515
C220	C	0.909731	-0.252190	0.138866
C221	C	1.243065	0.081143	0.472199
C222	C	1.576398	0.414477	0.805532
C223	C	0.909771	-0.252203	0.068897
C224	C	1.243105	0.081130	0.402231
C225	C	1.576438	0.414463	0.735564
C226	C	0.949982	-0.285682	1.035969
C227	C	1.283316	0.047652	1.369303
C228	C	1.616649	0.380985	1.702636
C229	C	0.949964	-0.285674	0.970227
C230	C	1.283297	0.047660	1.303560
C231	C	1.616631	0.380993	1.636894
C232	C	0.909723	-0.252192	0.937415
C233	C	1.243057	0.081141	1.270748
C234	C	1.576390	0.414475	1.604082
C235	C	0.869510	-0.218707	0.970351
C236	C	1.202843	0.114626	1.303684
C237	C	1.536176	0.447960	1.637017
C238	C	0.869534	-0.218713	1.036092
C239	C	1.202867	0.114621	1.369425
C240	C	1.536200	0.447954	1.702759
N241	N	0.854587	-0.248115	0.834260
N242	N	1.187920	0.085219	1.167593
N243	N	1.521254	0.418552	1.500926
N244	N	0.854566	-0.248112	0.771808
N245	N	1.187899	0.085221	1.105142
N246	N	1.521232	0.418554	1.438475
C247	C	0.909649	-0.252173	0.739340
C248	C	1.242983	0.081161	1.072674
C249	C	1.576316	0.414494	1.406007
N250	N	0.964756	-0.256245	0.771683
N251	N	1.298089	0.077088	1.105016
N252	N	1.631423	0.410421	1.438350
N253	N	0.964776	-0.256250	0.834140
N254	N	1.298110	0.077083	1.167473
N255	N	1.631443	0.410416	1.500807
C256	C	0.909693	-0.252182	0.866130
C257	C	1.243026	0.081151	1.199463
C258	C	1.576360	0.414485	1.532796
C259	C	0.949844	-0.285644	0.635127
C260	C	1.283177	0.047689	0.968460
C261	C	1.616510	0.381023	1.301793
C262	C	0.949826	-0.285632	0.569383
C263	C	1.283160	0.047701	0.902716
C264	C	1.616493	0.381035	1.236050
C265	C	0.869366	-0.218668	0.569508
C266	C	1.202700	0.114665	0.902841
C267	C	1.536033	0.447998	1.236175
C268	C	0.869389	-0.218678	0.635251
C269	C	1.202723	0.114656	0.968584
C270	C	1.536056	0.447989	1.301917
C271	C	0.909627	-0.252168	0.668056
C272	C	1.242960	0.081165	1.001389
C273	C	1.576294	0.414499	1.334723
H274	H	0.670004	-0.312639	0.376271
H275	H	1.003338	0.020694	0.709604
H276	H	1.336671	0.354028	1.042938
H277	H	0.982755	-0.451750	0.229985
H278	H	1.316088	-0.118417	0.563318
H279	H	1.649422	0.214916	0.896651
H280	H	0.836604	-0.191405	0.542793
H281	H	1.169937	0.141928	0.876126
H282	H	1.503271	0.475262	1.209460
Br283	Br	0.132055	-0.330929	0.398040
Br284	Br	0.465388	0.002405	0.731373
Br285	Br	0.798721	0.335738	1.064707
Br286	Br	0.814827	-1.067904	0.397773
Br287	Br	1.148160	-0.734571	0.731106
Br288	Br	1.481494	-0.401237	1.064439
Br289	Br	1.004633	-0.565628	0.208069
Br290	Br	1.337967	-0.232295	0.541403
Br291	Br	1.671300	0.101038	0.874736
H292	H	0.836590	-0.451688	0.376090
H293	H	1.169923	-0.118354	0.709423
H294	H	1.503257	0.214979	1.042757
Br295	Br	0.814811	-0.173242	0.679942
Br296	Br	1.148145	0.160091	1.013275
Br297	Br	1.481478	0.493425	1.346609
H298	H	0.796344	-0.801892	0.416233
H299	H	1.129677	-0.468559	0.749566
H300	H	1.463010	-0.135226	1.082900
H301	H	0.149905	-0.191689	0.229861
H302	H	0.483239	0.141644	0.563194
H303	H	0.816572	0.474978	0.896527
Br304	Br	1.004719	-1.067994	0.207933
Br305	Br	1.338052	-0.734661	0.541266
Br306	Br	1.671386	-0.401327	0.874600
H307	H	0.550740	-0.312679	0.376241
H308	H	0.884074	0.020655	0.709575
H309	H	1.217407	0.353988	1.042908
H310	H	0.796320	-0.702842	0.416250
H311	H	1.129654	-0.369509	0.749583
H312	H	1.462987	-0.036176	1.082916
Br313	Br	1.044939	-0.688133	0.167774
Br314	Br	1.378272	-0.354799	0.501107
Br315	Br	1.711606	-0.021466	0.834440
Br316	Br	1.004457	-0.331089	0.679652
Br317	Br	1.337790	0.002245	1.012986
Br318	Br	1.671124	0.335578	1.346319
H319	H	0.550743	-0.191570	0.229943
H320	H	0.884076	0.141763	0.563277
H321	H	1.217410	0.475096	0.896610
Br322	Br	0.814789	-0.939215	0.397798
Br323	Br	1.148123	-0.605881	0.731131
Br324	Br	1.481456	-0.272548	1.064465
H325	H	0.836603	-0.550755	0.376064
H326	H	1.169937	-0.217422	0.709398
H327	H	1.503270	0.115912	1.042731
H328	H	0.982752	-0.312948	1.062676
H329	H	1.316085	0.020385	1.396009
H330	H	1.649419	0.353718	1.729342
H331	H	0.269167	-0.312762	0.376189
H332	H	0.602500	0.020572	0.709522
H333	H	0.935834	0.353905	1.042855
Br334	Br	1.044966	-0.816815	0.167741
Br335	Br	1.378300	-0.483482	0.501074
Br336	Br	1.711633	-0.150149	0.834408
Br337	Br	0.814901	-0.173264	0.925822
Br338	Br	1.148235	0.160070	1.259155
Br339	Br	1.481568	0.493403	1.592489
Br340	Br	0.687863	-0.173412	0.208071
Br341	Br	1.021196	0.159922	0.541405
Br342	Br	1.354529	0.493255	0.874738
Br343	Br	0.287021	-0.173528	0.207998
Br344	Br	0.620355	0.159805	0.541331
Br345	Br	0.953688	0.493138	0.874665
Br346	Br	1.004541	-0.331111	0.925529
Br347	Br	1.337875	0.002223	1.258862
Br348	Br	1.671208	0.335556	1.592196
H349	H	0.982836	-0.954097	0.229821
H350	H	1.316169	-0.620764	0.563155
H351	H	1.649502	-0.287430	0.896488
H352	H	0.836788	-0.191450	1.062902
H353	H	1.170121	0.141884	1.396235
H354	H	1.503455	0.475217	1.729568
H355	H	0.982574	-0.312893	0.542573
H356	H	1.315908	0.020441	0.875906
H357	H	1.649241	0.353774	1.209239
