data_functionalizedCrystal
_audit_creation_method	'MofGen! by Chris Wilmer'
_symmetry_space_group_name_H-M	'P1'
_symmetry_Int_Tables_number	1
_symmetry_cell_setting	triclinic
loop_
_symmetry_equiv_pos_as_xyz
  x,y,z
_cell_length_a	10.489746
_cell_length_b	10.654550
_cell_length_c	9.730223
_cell_angle_alpha	90.003749
_cell_angle_beta	89.998331
_cell_angle_gamma	95.486898
loop_
_atom_site_label
_atom_site_type_symbol
_atom_site_fract_x
_atom_site_fract_y
_atom_site_fract_z
O1	O	0.179156	-1.667921	-0.114404
O2	O	0.196225	-1.302451	-0.114382
O3	O	0.002089	-1.493499	-0.114383
O4	O	0.373292	-1.476873	-0.114403
O5	O	0.002094	-1.493497	0.114196
O6	O	0.196230	-1.302449	0.114198
O7	O	0.179161	-1.667919	0.114176
Zn8	Zn	0.187696	-1.485184	0.150479
Zn9	Zn	0.187690	-1.485186	-0.150685
O10	O	0.373297	-1.476871	0.114177
C11	C	0.194975	-1.255651	-0.000089
C12	C	0.191225	-1.116206	-0.000081
C13	C	-0.045439	-1.492241	-0.000094
C14	C	-0.187067	-1.488480	-0.000094
C15	C	0.180412	-1.714719	-0.000120
C16	C	0.184161	-1.854164	-0.000138
C17	C	-0.339865	-1.364695	-0.000104
C18	C	-0.262505	-1.426584	-0.112807
C19	C	-0.262541	-1.426610	0.112555
C20	C	-0.362053	-1.543730	-0.112920
C21	C	-0.362095	-1.543740	0.112543
C22	C	-0.284784	-1.605714	-0.000187
C23	C	0.420826	-1.478129	-0.000116
C24	C	0.562453	-1.481890	-0.000124
N25	N	0.187700	-1.485191	0.356015
C26	C	0.305529	-1.036776	-0.000107
C27	C	0.301998	-0.905754	-0.000130
C28	C	0.069849	-0.933604	-0.000108
C29	C	0.073381	-1.064624	-0.000074
C30	C	0.439559	-1.020696	-0.000126
C31	C	0.436028	-0.889673	-0.000149
N32	N	0.187676	-1.485189	-0.356222
C33	C	0.101766	-1.569809	0.427941
C34	C	0.101750	-1.569805	0.571824
C35	C	0.273614	-1.400562	0.571843
C36	C	0.273623	-1.400560	0.427962
C37	C	0.002545	-1.667524	0.427931
C38	C	0.002530	-1.667520	0.571814
H39	H	-0.364535	-1.262790	-0.000210
H40	H	-0.026096	-0.891589	-0.000123
N41	N	0.366293	-1.309292	0.649440
H42	H	0.350755	-1.220029	0.624402
H43	H	0.353203	-1.322236	0.751478
N44	N	0.502901	-0.834430	-0.126882
H45	H	0.440747	-0.789205	-0.183426
H46	H	0.577476	-0.772847	-0.098603
N47	N	0.043694	-1.788320	0.368791
H48	H	0.063569	-1.846688	0.446043
H49	H	-0.027629	-1.830384	0.310333
H50	H	-0.095499	-1.646033	0.388883
H51	H	-0.405615	-1.593168	0.207825
H52	H	0.343586	-1.331647	0.369402
N53	N	-0.252428	-1.740799	-0.000258
H54	H	-0.288984	-1.784903	-0.085424
H55	H	-0.156332	-1.742502	0.000609
N56	N	0.508982	-1.059593	0.126591
H57	H	0.511560	-1.154112	0.126662
H58	H	0.599269	-1.017091	0.126556
H59	H	-0.019697	-1.129292	-0.000033
N60	N	0.496077	-1.067971	-0.130847
H61	H	0.520790	-0.994445	-0.194032
H62	H	0.574531	-1.111957	-0.108022
H63	H	-0.219008	-1.377111	-0.208085
N64	N	-0.204954	-1.361058	0.238768
H65	H	-0.224583	-1.270084	0.238666
H66	H	-0.242621	-1.404476	0.323818
H67	H	0.024385	-1.764043	0.610857
N68	N	-0.419403	-1.609225	-0.239277
H69	H	-0.515349	-1.606255	-0.238530
H70	H	-0.382167	-1.565282	-0.324224
N71	N	0.489668	-0.829187	0.130563
H72	H	0.518187	-0.896329	0.193738
H73	H	0.565248	-0.766721	0.107718
N74	N	-0.120206	-1.627084	0.630939
H75	H	-0.179497	-1.607545	0.553680
H76	H	-0.162892	-1.697339	0.689372
