data_functionalizedCrystal
_audit_creation_method	'MofGen! by Chris Wilmer'
_symmetry_space_group_name_H-M	'P1'
_symmetry_Int_Tables_number	1
_symmetry_cell_setting	triclinic
loop_
_symmetry_equiv_pos_as_xyz
  x,y,z
_cell_length_a	14.044191
_cell_length_b	27.732048
_cell_length_c	12.503572
_cell_angle_alpha	86.498265
_cell_angle_beta	86.162165
_cell_angle_gamma	92.082785
loop_
_atom_site_label
_atom_site_type_symbol
_atom_site_fract_x
_atom_site_fract_y
_atom_site_fract_z
O1	O	1.261500	-0.113919	-0.089234
O2	O	0.985593	-0.109712	-0.089249
O3	O	1.132117	-0.041821	-0.089255
O4	O	1.114977	-0.181811	-0.089227
O5	O	1.121097	-0.046936	0.089387
O6	O	0.974574	-0.114828	0.089394
O7	O	1.250481	-0.119034	0.089409
Cu8	Cu	1.111521	-0.117398	0.105713
Cu9	Cu	1.124553	-0.111349	-0.105553
O10	O	1.103957	-0.186926	0.089415
C11	C	0.944796	-0.110430	0.000070
C12	C	0.839651	-0.104941	0.000064
C13	C	0.588940	-0.133833	0.000080
C14	C	0.647140	-0.094915	0.000071
C15	C	0.754263	-0.100495	0.000067
C16	C	0.481807	-0.128254	0.000084
C17	C	1.109827	-0.202392	0.000097
C18	C	1.110909	-0.256098	0.000108
C19	C	1.031147	-0.591167	0.000052
C20	C	1.035167	-0.793015	0.000039
O21	O	0.962230	-0.820845	-0.000012
N22	N	1.122049	-0.816217	0.000046
C23	C	1.207932	-0.788954	0.000048
O24	O	1.281923	-0.813320	0.000042
C25	C	1.203912	-0.587107	0.000053
C26	C	1.117024	-0.563908	0.000057
C27	C	0.944266	-0.567968	0.000055
C28	C	0.943262	-0.517509	0.000064
C29	C	1.029138	-0.490250	0.000070
C30	C	1.116019	-0.513449	0.000066
C31	C	1.289794	-0.559845	0.000047
C32	C	1.288782	-0.509380	0.000046
C33	C	1.201894	-0.486181	0.000051
C34	C	1.200891	-0.435731	0.000081
N35	N	1.114009	-0.412529	0.000075
C36	C	1.028133	-0.439788	0.000069
C37	C	1.210037	-0.894927	0.000047
C38	C	1.211042	-0.945389	0.000048
C39	C	1.038277	-0.949446	0.000037
C40	C	1.037272	-0.898984	0.000044
C41	C	1.123155	-0.871725	0.000041
C42	C	1.026030	-0.333821	0.000089
C43	C	1.025033	-0.283357	0.000102
C44	C	1.197798	-0.279304	0.000107
C45	C	1.198795	-0.329763	0.000100
C46	C	1.112904	-0.357020	0.000087
O47	O	1.273790	-0.407870	0.000120
O48	O	0.954154	-0.415412	0.000051
C49	C	1.032151	-0.641626	0.000043
C50	C	1.119032	-0.664826	0.000039
C51	C	1.204909	-0.637566	0.000045
C52	C	1.120038	-0.715287	0.000040
C53	C	1.034161	-0.742546	0.000035
C54	C	0.947279	-0.719344	0.000028
C55	C	0.946275	-0.668885	0.000037
C56	C	1.291791	-0.660768	0.000051
C57	C	1.292788	-0.711228	0.000043
C58	C	1.206911	-0.738487	0.000038
C59	C	1.291278	-0.118316	0.000087
C60	C	1.396424	-0.123805	0.000087
C61	C	1.126248	-0.026354	0.000060
C62	C	1.125166	0.027352	0.000043
N63	N	1.102362	-0.121653	0.254305
N64	N	1.133720	-0.107090	-0.254145
C65	C	1.088889	-0.127915	0.473421
C66	C	1.147190	-0.100829	0.526746
C67	C	1.139693	-0.104314	0.648669
C68	C	1.096384	-0.124431	0.351487
H69	H	0.616519	-0.057404	-0.000012
H70	H	0.877355	-0.741548	0.000030
H71	H	0.619564	-0.171340	0.000084
H72	H	0.954275	-0.264471	0.000111
H73	H	0.956089	-0.356008	0.000078
H74	H	1.202734	-0.075023	0.480830
H75	H	0.872509	-0.498625	0.000059
H76	H	0.874331	-0.590157	0.000047
Cl77	Cl	0.928038	-0.869824	0.000047
Cl78	Cl	0.930318	-0.983724	0.000030
H79	H	1.281794	-0.964274	0.000061
H80	H	1.033349	-0.153720	0.519331
Cl81	Cl	1.318015	-0.860666	0.000051
H82	H	1.360548	-0.578725	0.000043
Cl83	Cl	1.305751	-0.245026	0.000122
H84	H	1.358720	-0.487188	0.000037
H85	H	1.269546	-0.348654	0.000111
Cl86	Cl	0.837038	-0.639728	0.000040
Cl87	Cl	1.402030	-0.740386	0.000036
Cl88	Cl	1.399761	-0.626507	0.000062
