data_functionalizedCrystal
_audit_creation_method	'MofGen! by Chris Wilmer'
_symmetry_space_group_name_H-M	'P1'
_symmetry_Int_Tables_number	1
_symmetry_cell_setting	triclinic
loop_
_symmetry_equiv_pos_as_xyz
  x,y,z
_cell_length_a	6.817900
_cell_length_b	9.582860
_cell_length_c	11.168136
_cell_angle_alpha	91.014244
_cell_angle_beta	108.508683
_cell_angle_gamma	111.206767
loop_
_atom_site_label
_atom_site_type_symbol
_atom_site_fract_x
_atom_site_fract_y
_atom_site_fract_z
V1	V	-4.124186	-0.207078	-0.393468
V2	V	-3.624186	0.292922	0.106532
O3	O	-4.068781	0.009928	-0.386216
O4	O	-3.568781	0.509928	0.113784
O5	O	-4.114531	-0.410579	-0.390548
O6	O	-3.614531	0.089421	0.109452
O7	O	-4.100258	-0.203903	-0.565177
O8	O	-3.600258	0.296097	-0.065177
O9	O	-4.083153	-0.198179	-0.210378
O10	O	-3.583153	0.301821	0.289622
V11	V	-4.599623	-0.181120	-0.371597
V12	V	-4.099623	0.318880	0.128403
O13	O	-4.403183	-0.264018	-0.441444
O14	O	-3.903183	0.235982	0.058556
O15	O	-4.770824	-0.124180	-0.323620
O16	O	-4.270824	0.375820	0.176380
O17	O	-4.386071	0.022380	-0.374517
O18	O	-3.886071	0.522380	0.125483
O19	O	-4.772426	-0.398126	-0.378848
O20	O	-4.272426	0.101874	0.121152
O21	O	-4.758053	-0.190020	-0.554687
O22	O	-4.258053	0.309980	-0.054687
O23	O	-4.400345	-0.184296	-0.199887
O24	O	-3.900345	0.315704	0.300113
C25	C	-3.968166	-0.460188	-0.384281
C26	C	-3.468166	0.039812	0.115719
C27	C	-4.041722	-0.626552	-0.383039
C28	C	-3.541722	-0.126552	0.116961
C29	C	-3.949957	-0.196550	-0.607037
C30	C	-3.449957	0.303450	-0.107037
C31	C	-4.011932	-0.195301	-0.747409
C32	C	-3.511932	0.304699	-0.247409
C33	C	-4.214892	-0.201841	-0.816093
C34	C	-3.714892	0.298159	-0.316093
C35	C	-4.278951	-0.200550	-0.961175
C36	C	-3.778951	0.299450	-0.461175
C37	C	-4.195780	0.071981	-0.380779
C38	C	-3.695780	0.571981	0.119221
C39	C	-4.101464	0.238344	-0.382030
C40	C	-3.601464	0.738344	0.117970
C41	C	-4.213988	-0.191653	-0.158021
C42	C	-3.713988	0.308347	0.341979
C43	C	-4.131250	-0.192895	-0.017648
C44	C	-3.631250	0.307105	0.482352
H45	H	-4.341224	-0.208387	-0.767487
H46	H	-3.841224	0.291613	-0.267487
H47	H	-3.885590	-0.188734	-0.796012
H48	H	-3.385590	0.311266	-0.296012
H49	H	-4.452823	-0.206157	-1.020220
H50	H	-3.952823	0.293843	-0.520220
H51	H	-3.957382	-0.187305	-0.958613
H52	H	-3.457382	0.312695	-0.458613
