data_functionalizedCrystal
_audit_creation_method	'MofGen! by Chris Wilmer'
_symmetry_space_group_name_H-M	'P1'
_symmetry_Int_Tables_number	1
_symmetry_cell_setting	triclinic
loop_
_symmetry_equiv_pos_as_xyz
  x,y,z
_cell_length_a	29.839134
_cell_length_b	29.839131
_cell_length_c	16.120297
_cell_angle_alpha	92.860396
_cell_angle_beta	92.866583
_cell_angle_gamma	90.027971
loop_
_atom_site_label
_atom_site_type_symbol
_atom_site_fract_x
_atom_site_fract_y
_atom_site_fract_z
Zn1	Zn	0.673884	-0.191835	-0.471579
Zn2	Zn	0.677625	-0.263153	-0.332144
Zn3	Zn	0.602567	-0.188029	-0.332156
Zn4	Zn	0.598725	-0.266927	-0.471477
O5	O	0.638200	-0.227486	-0.401839
O6	O	0.737246	-0.201310	-0.453120
O7	O	0.670842	-0.250016	-0.215485
O8	O	0.612070	-0.125668	-0.350699
O9	O	0.739995	-0.253707	-0.350678
O10	O	0.664466	-0.128465	-0.453132
O11	O	0.615697	-0.194822	-0.215494
O12	O	0.539192	-0.198481	-0.350600
O13	O	0.605522	-0.260138	-0.588151
O14	O	0.536369	-0.256447	-0.452959
O15	O	0.660740	-0.204969	-0.588226
O16	O	0.667117	-0.326520	-0.350579
O17	O	0.609149	-0.329292	-0.452947
C18	C	0.521480	-0.227461	-0.401770
C19	C	0.471546	-0.227461	-0.401760
C20	C	0.116411	-0.197264	-0.348650
C21	C	0.304085	-0.197250	-0.348599
O22	O	0.329586	-0.171534	-0.303365
N23	N	0.326099	-0.227470	-0.401802
C24	C	0.301192	-0.257694	-0.455026
O25	O	0.324222	-0.283394	-0.500283
C26	C	0.113518	-0.257705	-0.455080
C27	C	0.091507	-0.227486	-0.401867
C28	C	0.094399	-0.167047	-0.295442
C29	C	0.047483	-0.167052	-0.295452
C30	C	0.022579	-0.197275	-0.348670
C31	C	0.044591	-0.227492	-0.401877
C32	C	0.088612	-0.287927	-0.508307
C33	C	0.041690	-0.287926	-0.508317
C34	C	0.019679	-0.257707	-0.455105
C35	C	-0.027229	-0.257720	-0.455105
N36	N	-0.049243	-0.227499	-0.401902
C37	C	-0.024339	-0.197277	-0.348684
C38	C	0.399723	-0.257686	-0.454992
C39	C	0.446642	-0.257684	-0.454978
C40	C	0.449531	-0.197239	-0.348552
C41	C	0.402612	-0.197244	-0.348563
C42	C	0.377709	-0.227466	-0.401789
C43	C	-0.122866	-0.197291	-0.348709
C44	C	-0.169786	-0.197300	-0.348721
C45	C	-0.172671	-0.257743	-0.455149
C46	C	-0.125756	-0.257736	-0.455134
C47	C	-0.100854	-0.227506	-0.401911
O48	O	-0.052759	-0.283418	-0.500322
O49	O	-0.047378	-0.171573	-0.303447
C50	C	0.163326	-0.197258	-0.348640
C51	C	0.185338	-0.227475	-0.401847
C52	C	0.160434	-0.257698	-0.455065
C53	C	0.232256	-0.227473	-0.401833
C54	C	0.257160	-0.197251	-0.348615
C55	C	0.235146	-0.167030	-0.295412
C56	C	0.188230	-0.167036	-0.295422
C57	C	0.182448	-0.287918	-0.508268
C58	C	0.229364	-0.287910	-0.508253
C59	C	0.254268	-0.257688	-0.455036
C60	C	0.638134	-0.344207	-0.401769
C61	C	0.638146	-0.394141	-0.401767
C62	C	0.665475	-0.705210	-0.455252
C63	C	0.665522	-0.892884	-0.455302
O64	O	0.688692	-0.918360	-0.500725
N65	N	0.638274	-0.914931	-0.401932
C66	C	0.611010	-0.890056	-0.348549
O67	O	0.587832	-0.913114	-0.303161
C68	C	0.610961	-0.702382	-0.348503
C69	C	0.638214	-0.680338	-0.401871
C70	C	0.692725	-0.683166	-0.508617
C71	C	0.692715	-0.636250	-0.508600
C72	C	0.665454	-0.611378	-0.455220
C73	C	0.638204	-0.633422	-0.401855
C74	C	0.583695	-0.677508	-0.295125
C75	C	0.583684	-0.630587	-0.295120
C76	C	0.610937	-0.608543	-0.348488
C77	C	0.610933	-0.561635	-0.348458
N78	N	0.638180	-0.539588	-0.401829
C79	C	0.665441	-0.564460	-0.455209
C80	C	0.611039	-0.988587	-0.348575
C81	C	0.611052	-1.035505	-0.348585
C82	C	0.665563	-1.038331	-0.455340
C83	C	0.665552	-0.991411	-0.455325
C84	C	0.638287	-0.966541	-0.401946
C85	C	0.665418	-0.465933	-0.455171
C86	C	0.665406	-0.419013	-0.455147
C87	C	0.610894	-0.416192	-0.348396
C88	C	0.610907	-0.463108	-0.348416
C89	C	0.638170	-0.487977	-0.401810
O90	O	0.587771	-0.536131	-0.303066
O91	O	0.688609	-0.541394	-0.500603
C92	C	0.665485	-0.752126	-0.455268
C93	C	0.638234	-0.774170	-0.401904
C94	C	0.610974	-0.749298	-0.348523
C95	C	0.638247	-0.821088	-0.401914
C96	C	0.665508	-0.845960	-0.455295
C97	C	0.692756	-0.823913	-0.508665
C98	C	0.692746	-0.776998	-0.508649
C99	C	0.583726	-0.771345	-0.295153
C100	C	0.583739	-0.818261	-0.295173
C101	C	0.611000	-0.843132	-0.348553
C102	C	0.755377	-0.227512	-0.401909
C103	C	0.805310	-0.227523	-0.401939
C104	C	0.632285	-0.233399	-0.619283
C105	C	0.629764	-0.235919	-0.711945
C106	C	0.638279	-0.110310	-0.401928
C107	C	0.638312	-0.060377	-0.401966
C108	C	0.625146	-0.240509	-0.881599
C109	C	0.651344	-0.214329	-0.922931
C110	C	0.648774	-0.216883	-1.017333
C111	C	0.627715	-0.237956	-0.787189
C112	C	0.644119	-0.221564	-0.185241
C113	C	0.646726	-0.218918	-0.092580
H114	H	0.021416	-0.312536	-0.551664
H115	H	0.588700	-0.395934	-0.304931
F116	F	0.593310	-0.272312	-0.928012
H117	H	0.687601	-0.401066	-0.498606
F118	F	0.581907	-0.486569	-0.291606
F119	F	0.721741	-0.709629	-0.565440
F120	F	0.721752	-0.753543	-0.565452
F121	F	0.683191	-0.182532	-0.876517
H122	H	-0.187705	-0.172692	-0.305386
F123	F	0.582051	-1.058961	-0.291773
F124	F	-0.102328	-0.289902	-0.511760
F125	F	0.164810	-0.134871	-0.238787
F126	F	-0.096370	-0.165117	-0.292062
H127	H	0.687615	-0.486177	-0.498655
F128	F	0.554687	-0.700959	-0.238325
F129	F	0.721719	-0.612795	-0.565408
H130	H	0.255431	-0.142424	-0.252078
F131	F	0.024062	-0.134885	-0.238822
H132	H	0.464560	-0.282296	-0.498300
H133	H	0.687744	-0.973466	-0.498782
H134	H	0.384694	-0.172635	-0.305236
F135	F	0.120897	-0.134876	-0.238798
F136	F	0.721771	-0.850392	-0.565474
F137	F	0.554732	-0.841716	-0.238363
H138	H	0.469816	-0.172631	-0.305220
H139	H	0.687760	-1.058589	-0.498804
H140	H	0.561526	-0.751098	-0.251685
F141	F	0.554663	-0.604120	-0.238305
F142	F	0.373225	-0.289856	-0.511645
H143	H	0.106525	-0.312535	-0.551638
H144	H	-0.192957	-0.282351	-0.498475
H145	H	0.247282	-0.312523	-0.551584
H146	H	0.588836	-0.968340	-0.305105
F147	F	0.155950	-0.320087	-0.564913
