data_functionalizedCrystal
_audit_creation_method	'MofGen! by Chris Wilmer'
_symmetry_space_group_name_H-M	'P1'
_symmetry_Int_Tables_number	1
_symmetry_cell_setting	triclinic
loop_
_symmetry_equiv_pos_as_xyz
  x,y,z
_cell_length_a	16.109301
_cell_length_b	16.109301
_cell_length_c	14.586319
_cell_angle_alpha	90.000846
_cell_angle_beta	90.000787
_cell_angle_gamma	96.538519
loop_
_atom_site_label
_atom_site_type_symbol
_atom_site_fract_x
_atom_site_fract_y
_atom_site_fract_z
O1	O	-1.103131	0.106866	-0.076173
O2	O	-0.861069	0.120165	-0.076186
O3	O	-0.988749	-0.007515	-0.076184
O4	O	-0.975450	0.234547	-0.076175
O5	O	-0.988741	-0.007517	0.076297
O6	O	-0.861060	0.120164	0.076295
O7	O	-1.103122	0.106864	0.076308
Cu8	Cu	-0.982090	0.113514	0.090224
Cu9	Cu	-0.982101	0.113516	-0.090102
O10	O	-0.975441	0.234545	0.076306
C11	C	-0.830090	0.119626	0.000052
C12	C	-0.737794	0.118011	0.000047
C13	C	-0.988206	-0.038491	0.000053
C14	C	-0.986591	-0.130786	0.000044
N15	N	-0.982089	0.113512	0.217056
C16	C	-1.134101	0.107404	0.000067
C17	C	-1.226397	0.109019	0.000067
C18	C	-0.515522	0.190018	0.000060
C19	C	-0.428801	0.188494	0.000066
C20	C	-0.448676	0.037006	0.000057
C21	C	-0.535394	0.038530	0.000057
C22	C	-0.568815	0.115039	0.000054
C23	C	-0.395376	0.111990	0.000059
C24	C	-0.301350	0.110337	0.000066
C25	C	-0.662847	0.116693	0.000050
C26	C	-0.975984	0.265521	0.000066
C27	C	-0.977600	0.357816	0.000070
C28	C	-0.905592	0.580088	0.000053
C29	C	-0.907116	0.666809	0.000046
C30	C	-1.058605	0.646934	0.000058
C31	C	-1.057080	0.560216	0.000059
C32	C	-0.980571	0.526795	0.000060
C33	C	-0.983620	0.700234	0.000053
C34	C	-0.985273	0.794260	0.000046
C35	C	-0.978917	0.432763	0.000066
N36	N	-0.982109	0.113511	-0.216934
C37	C	-1.038644	0.056994	0.452063
C38	C	-1.038647	0.056992	0.548044
C39	C	-0.925547	0.170032	0.548052
C40	C	-0.925541	0.170030	0.452072
C41	C	-0.982095	0.113511	0.404081
C42	C	-0.982103	0.113512	0.596041
C43	C	-0.982105	0.113510	0.700108
C44	C	-0.982092	0.113512	0.300007
H45	H	-0.542730	0.252317	0.000065
C46	C	-0.370182	0.270971	0.000066
H47	H	-0.402510	0.316752	0.000057
H48	H	-0.335939	0.273528	0.053239
H49	H	-0.335942	0.273524	-0.053115
H50	H	-0.843293	0.552881	0.000057
H51	H	-0.879487	0.216053	0.413002
C52	C	-1.139558	0.501586	0.000061
H53	H	-1.127691	0.445154	0.000049
H54	H	-1.170932	0.511710	0.053234
H55	H	-1.170928	0.511716	-0.053120
C56	C	-0.824639	0.725428	0.000043
H57	H	-0.778858	0.693101	0.000051
H58	H	-0.822085	0.759669	-0.053131
H59	H	-0.822083	0.759671	0.053223
H60	H	-0.578788	-0.022530	0.000055
H61	H	-1.120896	0.674156	0.000066
C62	C	-0.863351	0.232205	0.600846
H63	H	-0.871458	0.224119	0.664880
H64	H	-0.807866	0.223163	0.585124
H65	H	-0.872371	0.287697	0.585111
C66	C	-0.411910	-0.047147	0.000048
H67	H	-0.352630	-0.037318	0.000038
H68	H	-0.430202	-0.078024	0.053217
H69	H	-0.430207	-0.078012	-0.053136
C70	C	-1.100843	-0.005181	0.399275
H71	H	-1.134516	-0.038846	0.441602
H72	H	-1.135442	0.024732	0.361828
H73	H	-1.070937	-0.039802	0.361840
H74	H	-1.084694	0.010969	0.587109
