data_functionalizedCrystal
_audit_creation_method	'MofGen! by Chris Wilmer'
_symmetry_space_group_name_H-M	'P1'
_symmetry_Int_Tables_number	1
_symmetry_cell_setting	triclinic
loop_
_symmetry_equiv_pos_as_xyz
  x,y,z
_cell_length_a	17.699097
_cell_length_b	16.176319
_cell_length_c	16.109301
_cell_angle_alpha	89.991775
_cell_angle_beta	96.625044
_cell_angle_gamma	90.011012
loop_
_atom_site_label
_atom_site_type_symbol
_atom_site_fract_x
_atom_site_fract_y
_atom_site_fract_z
O1	O	1.004223	0.068818	-0.105192
O2	O	0.783865	0.068805	-0.118859
O3	O	0.900097	0.068803	0.009015
O4	O	0.887990	0.068819	-0.233067
O5	O	0.900081	-0.068690	0.009023
O6	O	0.783849	-0.068688	-0.118851
O7	O	1.004207	-0.068675	-0.105184
Cu8	Cu	0.894026	-0.081236	-0.112017
Cu9	Cu	0.894045	0.081366	-0.112027
O10	O	0.887974	-0.068674	-0.233059
C11	C	0.755660	0.000056	-0.118364
C12	C	0.671640	0.000051	-0.116889
N13	N	0.894019	-0.195601	-0.112010
C14	C	0.155917	0.075031	-0.107854
C15	C	0.234864	0.075027	-0.109234
C16	C	0.274322	0.000077	-0.109921
C17	C	0.234831	-0.074875	-0.109219
C18	C	0.155887	-0.074870	-0.107833
C19	C	0.553203	-0.074897	-0.114807
C20	C	0.632152	-0.074896	-0.116196
C21	C	0.632180	0.075001	-0.116208
C22	C	0.553236	0.075006	-0.114822
C23	C	0.513752	0.000055	-0.114116
C24	C	0.428150	0.000060	-0.112618
C25	C	0.359922	0.000070	-0.111424
C26	C	0.945502	-0.238866	-0.055410
C27	C	0.945506	-0.325413	-0.055409
C28	C	0.894029	-0.368694	-0.112013
C29	C	0.842541	-0.325423	-0.168615
C30	C	0.842534	-0.238878	-0.168611
C31	C	0.842567	-0.674451	-0.168631
C32	C	0.842579	-0.761003	-0.168632
C33	C	0.945538	-0.760987	-0.055428
C34	C	0.945531	-0.674442	-0.055425
C35	C	0.894041	-0.631178	-0.112024
C36	C	0.894036	-0.537334	-0.112023
C37	C	0.894037	-0.462537	-0.112018
C38	C	1.032412	0.000075	-0.105680
C39	C	1.116432	0.000086	-0.107155
C40	C	0.899599	0.000056	0.039993
C41	C	0.898129	0.000055	0.132286
N42	N	0.894059	0.195731	-0.112027
C43	C	0.888473	0.000075	-0.264037
C44	C	0.889943	0.000082	-0.356330
C45	C	0.963680	0.000072	0.354668
C46	C	0.962292	0.000079	0.441386
C47	C	0.824387	0.000067	0.421282
C48	C	0.825775	0.000066	0.334565
C49	C	0.895424	0.000065	0.301261
C50	C	0.892648	0.000072	0.474695
C51	C	0.891143	0.000079	0.568719
C52	C	0.896929	0.000059	0.207232
H53	H	0.267010	0.136056	-0.109798
O54	O	0.670580	-0.147655	-0.116746
C55	C	0.724822	-0.152143	-0.045560
H56	H	0.739521	-0.087067	-0.021784
H57	H	0.778399	-0.183864	-0.062718
H58	H	0.700408	-0.189127	0.005383
H59	H	0.521066	-0.135927	-0.114220
O60	O	1.031315	-0.000067	0.322276
C61	C	1.036237	-0.071265	0.272712
H62	H	0.996688	-0.121043	0.293145
H63	H	1.097236	-0.095157	0.280625
H64	H	1.018767	-0.055168	0.204287
H65	H	0.800610	-0.203652	-0.214700
H66	H	0.987426	-0.360639	-0.009321
O67	O	0.515028	0.147887	-0.114119
C68	C	0.566807	0.214038	-0.115051
H69	H	0.626216	0.192061	-0.089729
H70	H	0.548823	0.266454	-0.074304
H71	H	0.567250	0.237089	-0.181873
O72	O	0.995518	-0.802925	-0.000324
C73	C	0.983225	-0.781807	0.081963
H74	H	0.954050	-0.718977	0.081820
H75	H	1.040125	-0.778837	0.122984
H76	H	0.945563	-0.830529	0.107624
H77	H	0.987423	-0.203633	-0.009320
H78	H	1.017873	0.000086	0.484867
O79	O	0.756800	0.000025	0.453774
C80	C	0.770209	0.000045	0.541764
H81	H	0.829276	-0.025979	0.562250
H82	H	0.725643	-0.039879	0.568306
H83	H	0.766550	0.066006	0.565889
O84	O	0.995375	-0.632377	-0.000284
C85	C	0.954749	-0.582453	0.050956
H86	H	0.895572	-0.569436	0.017651
H87	H	0.986330	-0.521612	0.064348
H88	H	0.949493	-0.615939	0.112301
O89	O	0.759537	0.000096	0.282561
C90	C	0.775699	0.000078	0.198882
H91	H	0.835151	0.026112	0.195679
H92	H	0.732198	0.039995	0.159499
H93	H	0.772819	-0.065884	0.173804
H94	H	0.266965	-0.135902	-0.109773
H95	H	0.664337	0.136030	-0.116779
O96	O	0.792609	-0.367591	-0.223569
C97	C	0.803642	-0.453257	-0.211425
H98	H	0.863823	-0.465064	-0.180272
H99	H	0.795207	-0.486137	-0.274402
H100	H	0.760820	-0.477840	-0.169783
H101	H	0.123738	-0.135899	-0.107272
H102	H	0.123796	0.136065	-0.107300
H103	H	0.800658	-0.796241	-0.214727
H104	H	0.800642	-0.639233	-0.214717
