data_functionalizedCrystal
_audit_creation_method	'MofGen! by Chris Wilmer'
_symmetry_space_group_name_H-M	'P1'
_symmetry_Int_Tables_number	1
_symmetry_cell_setting	triclinic
loop_
_symmetry_equiv_pos_as_xyz
  x,y,z
_cell_length_a	23.532407
_cell_length_b	14.519709
_cell_length_c	13.596369
_cell_angle_alpha	90.006934
_cell_angle_beta	89.999993
_cell_angle_gamma	83.264411
loop_
_atom_site_label
_atom_site_type_symbol
_atom_site_fract_x
_atom_site_fract_y
_atom_site_fract_z
O1	O	-0.755765	-0.111951	-0.081671
O2	O	-0.422432	0.221383	0.251663
O3	O	-0.089099	0.554716	0.584996
O4	O	-0.589975	-0.128149	-0.081700
O5	O	-0.256642	0.205184	0.251633
O6	O	0.076692	0.538518	0.584967
O7	O	-0.677266	0.014241	-0.081676
O8	O	-0.343932	0.347574	0.251658
O9	O	-0.010599	0.680907	0.584991
O10	O	-0.668474	-0.254340	-0.081695
O11	O	-0.335141	0.078993	0.251638
O12	O	-0.001808	0.412326	0.584972
O13	O	-0.677257	0.014248	0.081907
O14	O	-0.343924	0.347581	0.415240
O15	O	-0.010590	0.680915	0.748574
O16	O	-0.589966	-0.128142	0.081883
O17	O	-0.256633	0.205192	0.415216
O18	O	0.076700	0.538525	0.748550
O19	O	-0.755756	-0.111943	0.081912
O20	O	-0.422423	0.221390	0.415245
O21	O	-0.089090	0.554723	0.748579
Zn22	Zn	-0.672860	-0.120041	0.107870
Zn23	Zn	-0.339527	0.213292	0.441203
Zn24	Zn	-0.006193	0.546625	0.774537
Zn25	Zn	-0.672871	-0.120051	-0.107658
Zn26	Zn	-0.339538	0.213282	0.225676
Zn27	Zn	-0.006205	0.546616	0.559009
O28	O	-0.668466	-0.254333	0.081888
O29	O	-0.335132	0.079000	0.415221
O30	O	-0.001799	0.412334	0.748555
C31	C	-0.568753	-0.127733	0.000088
C32	C	-0.235419	0.205601	0.333421
C33	C	0.097914	0.538934	0.666755
C34	C	-0.505530	-0.126493	0.000077
C35	C	-0.172197	0.206841	0.333410
C36	C	0.161137	0.540174	0.666744
C37	C	-0.676852	0.048599	0.000116
C38	C	-0.343518	0.381933	0.333449
C39	C	-0.010185	0.715266	0.666782
C40	C	-0.675624	0.150966	0.000116
C41	C	-0.342291	0.484299	0.333449
C42	C	-0.008957	0.817633	0.666783
C43	C	-0.776979	-0.112360	0.000122
C44	C	-0.443645	0.220974	0.333455
C45	C	-0.110312	0.554307	0.666789
C46	C	-0.840201	-0.113600	0.000127
C47	C	-0.506868	0.219734	0.333460
C48	C	-0.173535	0.553067	0.666793
C49	C	-0.106772	-0.202977	0.000116
C50	C	0.226561	0.130356	0.333449
C51	C	0.559895	0.463689	0.666783
C52	C	-0.047367	-0.201825	0.000122
C53	C	0.285967	0.131508	0.333455
C54	C	0.619300	0.464841	0.666789
O55	O	-0.010942	-0.272727	0.000153
O56	O	0.322391	0.060606	0.333486
O57	O	0.655725	0.393939	0.666819
N58	N	-0.024358	-0.117175	0.000127
N59	N	0.308975	0.216159	0.333460
N60	N	0.642308	0.549492	0.666793
C61	C	-0.060759	-0.033671	0.000135
C62	C	0.272574	0.299663	0.333468
C63	C	0.605907	0.632996	0.666802
O64	O	-0.035734	0.038437	0.000140
O65	O	0.297599	0.371770	0.333474
O66	O	0.630932	0.705104	0.666807
C67	C	-0.120164	-0.034824	0.000136
C68	C	0.213170	0.298510	0.333469
C69	C	0.546503	0.631843	0.666803
C70	C	-0.143168	-0.119480	0.000121
C71	C	0.190165	0.213854	0.333455
C72	C	0.523498	0.547187	0.666788
C73	C	-0.129777	-0.287626	0.000103
C74	C	0.203556	0.045707	0.333436
C75	C	0.536889	0.379040	0.666769
C76	C	-0.189179	-0.288778	0.000095
C77	C	0.144155	0.044555	0.333428
C78	C	0.477488	0.377889	0.666761
C79	C	-0.225575	-0.205281	0.000100
C80	C	0.107759	0.128053	0.333434
C81	C	0.441092	0.461386	0.666767
C82	C	-0.202570	-0.120631	0.000114
C83	C	0.130764	0.212702	0.333447
C84	C	0.464097	0.546035	0.666780
C85	C	-0.156563	0.048679	0.000151
C86	C	0.176770	0.382012	0.333485
C87	C	0.510103	0.715346	0.666818
C88	C	-0.215971	0.047519	0.000153
C89	C	0.117362	0.380852	0.333486
C90	C	0.450696	0.714185	0.666820
C91	C	-0.238976	-0.037137	0.000139
C92	C	0.094358	0.296196	0.333472
C93	C	0.427691	0.629529	0.666805
C94	C	-0.298367	-0.038286	0.000111
C95	C	0.034966	0.295048	0.333444
C96	C	0.368300	0.628381	0.666778
N97	N	-0.321375	-0.122936	0.000107
N98	N	0.011958	0.210397	0.333440
N99	N	0.345291	0.543731	0.666773
C100	C	-0.284979	-0.206434	0.000101
C101	C	0.048354	0.126900	0.333434
C102	C	0.381688	0.460233	0.666768
C103	C	0.063994	-0.031256	0.000135
C104	C	0.397327	0.302078	0.333468
C105	C	0.730661	0.635411	0.666801
C106	C	0.123397	-0.030102	0.000127
C107	C	0.456731	0.303232	0.333460
C108	C	0.790064	0.636565	0.666793
C109	C	0.136786	-0.198257	0.000116
C110	C	0.470119	0.135077	0.333449
C111	C	0.803453	0.468410	0.666782
C112	C	0.077382	-0.199410	0.000117
C113	C	0.410715	0.133924	0.333450
C114	C	0.744048	0.467257	0.666783
C115	C	0.040986	-0.115906	0.000130
C116	C	0.374319	0.217427	0.333464
C117	C	0.707653	0.550760	0.666797
C118	C	-0.409727	-0.208846	0.000084
C119	C	-0.076393	0.124488	0.333417
C120	C	0.256940	0.457821	0.666750
C121	C	-0.469134	-0.209990	0.000072
C122	C	-0.135801	0.123343	0.333405
C123	C	0.197533	0.456677	0.666738
C124	C	-0.482517	-0.041836	0.000088
C125	C	-0.149184	0.291498	0.333421
C126	C	0.184149	0.624831	0.666754
C127	C	-0.423115	-0.040691	0.000095
C128	C	-0.089782	0.292642	0.333428
C129	C	0.243551	0.625976	0.666761
C130	C	-0.386721	-0.124204	0.000096
C131	C	-0.053388	0.209130	0.333429
C132	C	0.279946	0.542463	0.666763
O133	O	-0.334827	0.032579	0.000084
O134	O	-0.001493	0.365913	0.333418
O135	O	0.331840	0.699246	0.666751
O136	O	-0.310012	-0.278529	0.000109
O137	O	0.023321	0.054804	0.333442
O138	O	0.356654	0.388137	0.666775
C139	C	-0.668880	-0.288692	0.000094
C140	C	-0.335546	0.044642	0.333428
C141	C	-0.002213	0.377975	0.666761
C142	C	-0.670107	-0.391058	0.000087
C143	C	-0.336774	-0.057725	0.333421
C144	C	-0.003441	0.275608	0.666754
N145	N	-0.672856	-0.120034	0.254962
N146	N	-0.339523	0.213299	0.588295
N147	N	-0.006190	0.546633	0.921628
C148	C	-0.671104	0.525808	0.000090
C149	C	-0.337771	0.859142	0.333423
C150	C	-0.004437	1.192475	0.666756
C151	C	-0.672359	0.421515	0.000097
C152	C	-0.339026	0.754849	0.333431
C153	C	-0.005692	1.088182	0.666764
C154	C	-0.673364	0.338390	0.000104
C155	C	-0.340030	0.671724	0.333437
C156	C	-0.006697	1.005057	0.666771
C157	C	-0.674619	0.234091	0.000110
C158	C	-0.341286	0.567424	0.333443
C159	C	-0.007953	0.900757	0.666776
N160	N	-0.672880	-0.120051	-0.254750
N161	N	-0.339546	0.213282	0.078584
N162	N	-0.006213	0.546616	0.411917
C163	C	-0.672871	-0.120052	0.656253
C164	C	-0.339537	0.213281	0.989586
C165	C	-0.006204	0.546615	1.322919
C166	C	-0.672865	-0.120050	0.544601
C167	C	-0.339532	0.213283	0.877935
C168	C	-0.006198	0.546617	1.211268
C169	C	-0.672864	-0.120044	0.455611
C170	C	-0.339530	0.213290	0.788944
C171	C	-0.006197	0.546623	1.122277
C172	C	-0.672858	-0.120040	0.343952
C173	C	-0.339524	0.213293	0.677286
C174	C	-0.006191	0.546626	1.010619
H175	H	-0.487861	-0.278930	0.000059
H176	H	-0.154527	0.054403	0.333393
H177	H	0.178806	0.387737	0.666726
F178	F	0.175532	-0.287123	0.000114
F179	F	0.508865	0.046211	0.333447
F180	F	0.842199	0.379544	0.666781
F181	F	-0.091050	-0.376504	0.000097
F182	F	0.242284	-0.043171	0.333430
F183	F	0.575617	0.290163	0.666764
H184	H	-0.512162	0.026146	0.000088
H185	H	-0.178828	0.359479	0.333422
H186	H	0.154505	0.692812	0.666755
H187	H	-0.380101	-0.276850	0.000088
H188	H	-0.046767	0.056483	0.333421
H189	H	0.286566	0.389817	0.666754
H190	H	0.034363	0.036747	0.000137
H191	H	0.367697	0.370080	0.333470
H192	H	0.701030	0.703414	0.666804
F193	F	0.147874	0.060001	0.000120
F194	F	0.481207	0.393334	0.333453
F195	F	0.814540	0.726667	0.666787
F196	F	0.052904	-0.289511	0.000103
F197	F	0.386237	0.043822	0.333437
F198	F	0.719571	0.377156	0.666770
F199	F	-0.213654	-0.378881	0.000084
F200	F	0.119679	-0.045548	0.333418
F201	F	0.453013	0.287785	0.666751
F202	F	-0.132093	0.138783	0.000153
F203	F	0.201240	0.472116	0.333486
F204	F	0.534573	0.805450	0.666819
H205	H	-0.245602	0.115519	0.000165
H206	H	0.087731	0.448852	0.333498
H207	H	0.421064	0.782186	0.666831
F208	F	-0.398631	0.049409	0.000110
F209	F	-0.065298	0.382742	0.333444
F210	F	0.268035	0.716075	0.666777
