data_functionalizedCrystal
_audit_creation_method	'MofGen! by Chris Wilmer'
_symmetry_space_group_name_H-M	'P1'
_symmetry_Int_Tables_number	1
_symmetry_cell_setting	triclinic
loop_
_symmetry_equiv_pos_as_xyz
  x,y,z
_cell_length_a	12.759401
_cell_length_b	16.625546
_cell_length_c	12.759393
_cell_angle_alpha	90.035119
_cell_angle_beta	90.019802
_cell_angle_gamma	90.021554
loop_
_atom_site_label
_atom_site_type_symbol
_atom_site_fract_x
_atom_site_fract_y
_atom_site_fract_z
Zn1	Zn	1.606210	-0.320982	0.593954
Zn2	Zn	1.606077	-0.455837	0.418260
Zn3	Zn	1.430508	-0.321019	0.418293
Zn4	Zn	1.430476	-0.455774	0.593901
O5	O	1.518318	-0.388403	0.506102
O6	O	1.753213	-0.338881	0.570657
O7	O	1.582745	-0.437994	0.271244
O8	O	1.453884	-0.208182	0.441631
O9	O	1.753116	-0.437958	0.441575
O10	O	1.582971	-0.208155	0.570689
O11	O	1.453756	-0.338945	0.271268
O12	O	1.283483	-0.338885	0.441579
O13	O	1.453830	-0.437852	0.740929
O14	O	1.283460	-0.437888	0.570598
O15	O	1.582940	-0.338821	0.740969
O16	O	1.582714	-0.568661	0.441524
O17	O	1.453701	-0.568615	0.570566
C18	C	1.245350	-0.388384	0.506087
C19	C	1.128574	-0.388396	0.506105
C20	C	1.518218	-0.597894	0.506058
C21	C	1.518272	-0.687515	0.506075
C22	C	0.964026	-0.336918	0.573429
C23	C	1.073750	-0.336903	0.573422
C24	C	1.073668	-0.439914	0.438798
C25	C	0.963946	-0.439933	0.438812
C26	C	1.518455	-1.015691	0.506184
C27	C	1.518401	-0.924382	0.506156
C28	C	1.518363	-0.851606	0.506129
C29	C	1.518310	-0.760292	0.506102
C30	C	1.792351	-0.388423	0.506118
C31	C	1.909128	-0.388431	0.506125
C32	C	1.518396	-0.388326	0.780136
C33	C	1.518430	-0.388293	0.896912
C34	C	1.518446	-0.178094	0.506169
C35	C	1.518501	-0.088473	0.506198
C36	C	1.518300	-0.388422	0.233135
C37	C	1.518470	-0.388228	0.116359
C38	C	1.585663	-0.336719	0.951797
C39	C	1.585681	-0.336684	1.061521
C40	C	1.451230	-0.439804	1.061467
C41	C	1.451208	-0.439834	0.951745
H42	H	0.919397	-0.294982	0.628240
F43	F	1.379695	-0.494658	1.119833
F44	F	1.132172	-0.282078	0.645059
F45	F	1.379640	-0.494725	0.893330
F46	F	1.657246	-0.281798	1.119928
H47	H	0.919246	-0.481886	0.384004
F48	F	1.132018	-0.494721	0.367159
H49	H	1.640397	-0.294748	0.907155
