data_functionalizedCrystal
_audit_creation_method	'MofGen! by Chris Wilmer'
_symmetry_space_group_name_H-M	'P1'
_symmetry_Int_Tables_number	1
_symmetry_cell_setting	triclinic
loop_
_symmetry_equiv_pos_as_xyz
  x,y,z
_cell_length_a	16.974800
_cell_length_b	12.811415
_cell_length_c	16.053802
_cell_angle_alpha	87.154093
_cell_angle_beta	91.074188
_cell_angle_gamma	84.065383
loop_
_atom_site_label
_atom_site_type_symbol
_atom_site_fract_x
_atom_site_fract_y
_atom_site_fract_z
O1	O	1.049997	0.133156	-0.008537
O2	O	0.820646	0.149147	-0.025251
O3	O	0.940543	-0.010893	-0.005026
O4	O	0.930099	0.293197	-0.028763
O5	O	0.933944	-0.002121	0.132723
O6	O	0.814046	0.157920	0.112497
O7	O	1.043397	0.141929	0.129212
Zn8	Zn	0.927674	0.151317	0.142725
Zn9	Zn	0.936369	0.139759	-0.038765
O10	O	0.923500	0.301970	0.108986
C11	C	0.787978	0.152765	0.041696
C12	C	0.700469	0.150461	0.035954
C13	C	0.655765	0.154159	0.108346
C14	C	0.573542	0.151978	0.102955
C15	C	0.536026	0.146107	0.025172
C16	C	0.580736	0.142406	-0.047225
C17	C	0.662958	0.144580	-0.041833
C18	C	0.290507	0.139087	0.000994
C19	C	0.208279	0.136917	-0.004393
C20	C	0.201091	0.146487	0.145788
C21	C	0.283313	0.148666	0.151173
C22	C	0.328018	0.144960	0.078777
N23	N	0.451981	0.143881	0.019659
N24	N	0.412061	0.147178	0.084290
C25	C	0.936456	-0.045426	0.066741
C26	C	0.934100	-0.161392	0.075360
C27	C	0.936855	-0.388859	-0.058637
C28	C	0.934642	-0.497819	-0.050543
C29	C	0.927455	-0.488276	0.099640
C30	C	0.929668	-0.379315	0.091546
C31	C	0.934370	-0.329611	0.012405
C32	C	0.936589	-0.220649	0.004313
C33	C	0.929396	-0.211106	0.154494
C34	C	0.927183	-0.320067	0.162588
C35	C	1.076066	0.138311	0.062263
C36	C	1.163574	0.140615	0.067998
C37	C	0.927587	0.336502	0.037217
C38	C	0.929943	0.452468	0.028593
N39	N	0.921745	0.159205	0.266587
N40	N	0.942304	0.131863	-0.162626
C41	C	0.972781	0.091132	0.318886
C42	C	0.968641	0.096659	0.405595
C43	C	0.913469	0.170266	0.440002
C44	C	0.862428	0.238342	0.387695
C45	C	0.866564	0.232809	0.300989
C46	C	0.895400	0.194406	0.698362
C47	C	0.891269	0.199936	0.785075
C48	C	0.997481	0.058252	0.802968
C49	C	1.001616	0.052729	0.716259
C50	C	0.950572	0.120801	0.663961
N51	N	0.909238	0.175920	0.528631
N52	N	0.954800	0.115142	0.575333
H53	H	0.326895	0.136066	-0.057956
C54	C	0.712136	0.140515	-0.121461
H55	H	0.766478	0.142639	-0.107109
H56	H	0.694548	0.199051	-0.158188
H57	H	0.705731	0.077325	-0.148206
H58	H	0.537149	0.154971	0.161906
H59	H	0.164684	0.149503	0.204729
C60	C	0.167010	0.130483	-0.089961
H61	H	0.205409	0.128587	-0.132306
H62	H	0.129500	0.190308	-0.100160
H63	H	0.140668	0.068579	-0.090207
H64	H	0.927375	-0.162855	0.212342
H65	H	0.940419	-0.180182	-0.060128
C66	C	0.839260	0.269291	0.640844
H67	H	0.805818	0.313927	0.673756
H68	H	0.807805	0.229446	0.607650
H69	H	0.869528	0.310722	0.605646
H70	H	0.923621	-0.528763	0.164072
H71	H	0.825005	0.288240	0.258407
C72	C	1.024778	0.021780	0.463124
H73	H	1.014407	0.035605	0.519692
H74	H	1.078133	0.032404	0.451592
H75	H	1.016413	-0.048876	0.453590
C76	C	0.937391	-0.562991	-0.128688
H77	H	0.940516	-0.517781	-0.176976
H78	H	0.890804	-0.597866	-0.132352
H79	H	0.982564	-0.613526	-0.124952
C80	C	0.922017	-0.374748	0.249636
H81	H	0.921060	-0.448128	0.244284
H82	H	0.875029	-0.347093	0.275478
H83	H	0.966790	-0.362771	0.282849
H84	H	1.017711	0.031198	0.290879
C85	C	0.539470	0.135951	-0.132786
H86	H	0.484098	0.135198	-0.125631
H87	H	0.560013	0.073483	-0.157770
H88	H	0.548831	0.195211	-0.167739
C89	C	0.697029	0.160618	0.193907
H90	H	0.752400	0.161393	0.186752
H91	H	0.687670	0.101368	0.228864
H92	H	0.676482	0.223095	0.218885
H93	H	0.940690	-0.348390	-0.123076
H94	H	0.313854	0.153442	0.214513
C95	C	1.062301	-0.028244	0.678418
H96	H	1.092099	-0.068002	0.721985
H97	H	1.096979	0.007288	0.643960
H98	H	1.035257	-0.073989	0.645971
H99	H	1.039038	0.002829	0.845557
H100	H	0.846339	0.259880	0.813083
C101	C	0.801741	0.319309	0.425541
H102	H	0.806592	0.312864	0.484670
H103	H	0.749741	0.306875	0.408659
H104	H	0.811464	0.388151	0.406648
