data_functionalizedCrystal
_audit_creation_method	'MofGen! by Chris Wilmer'
_symmetry_space_group_name_H-M	'P1'
_symmetry_Int_Tables_number	1
_symmetry_cell_setting	triclinic
loop_
_symmetry_equiv_pos_as_xyz
  x,y,z
_cell_length_a	11.792241
_cell_length_b	11.792241
_cell_length_c	10.868271
_cell_angle_alpha	90.000107
_cell_angle_beta	89.994719
_cell_angle_gamma	95.806584
loop_
_atom_site_label
_atom_site_type_symbol
_atom_site_fract_x
_atom_site_fract_y
_atom_site_fract_z
O1	O	0.155568	-1.506908	-0.102203
O2	O	0.488902	-1.173575	0.231130
O3	O	0.822235	-0.840242	0.564463
O4	O	0.171601	-1.176567	-0.102232
O5	O	0.504935	-0.843234	0.231101
O6	O	0.838268	-0.509901	0.564435
O7	O	-0.001586	-1.349754	-0.102208
O8	O	0.331748	-1.016421	0.231125
O9	O	0.665081	-0.683088	0.564458
O10	O	0.328755	-1.333721	-0.102227
O11	O	0.662089	-1.000388	0.231106
O12	O	0.995422	-0.667055	0.564440
O13	O	-0.001592	-1.349740	0.102436
O14	O	0.331741	-1.016407	0.435770
O15	O	0.665074	-0.683073	0.769103
O16	O	0.171595	-1.176553	0.102413
O17	O	0.504928	-0.843220	0.435746
O18	O	0.838261	-0.509886	0.769079
O19	O	0.155562	-1.506894	0.102441
O20	O	0.488895	-1.173561	0.435775
O21	O	0.822228	-0.840227	0.769108
Zn22	Zn	0.163577	-1.341721	0.134919
Zn23	Zn	0.496910	-1.008388	0.468252
Zn24	Zn	0.830244	-0.675055	0.801585
Zn25	Zn	0.163586	-1.341740	-0.134709
Zn26	Zn	0.496919	-1.008407	0.198624
Zn27	Zn	0.830253	-0.675073	0.531957
O28	O	0.328749	-1.333707	0.102418
O29	O	0.662082	-1.000374	0.435751
O30	O	0.995415	-0.667040	0.769084
C31	C	-0.043880	-1.348740	0.000114
C32	C	0.289453	-1.015407	0.333447
C33	C	0.622787	-0.682073	0.666780
C34	C	-0.169894	-1.345726	0.000112
C35	C	0.163440	-1.012392	0.333445
C36	C	0.496773	-0.679059	0.666779
C37	C	0.170591	-1.134269	0.000087
C38	C	0.503924	-0.800936	0.333420
C39	C	0.837258	-0.467603	0.666753
C40	C	0.167576	-1.008255	0.000076
C41	C	0.500910	-0.674922	0.333409
C42	C	0.834243	-0.341589	0.666743
C43	C	-0.400606	-1.340183	0.000091
C44	C	-0.067272	-1.006849	0.333424
C45	C	0.266061	-0.673516	0.666758
C46	C	-0.272221	-1.343262	0.000102
C47	C	0.061113	-1.009929	0.333436
C48	C	0.394446	-0.676596	0.666769
C49	C	0.156572	-1.549192	0.000120
C50	C	0.489905	-1.215859	0.333453
C51	C	0.823239	-0.882525	0.666787
C52	C	0.159587	-1.675206	0.000123
C53	C	0.492920	-1.341873	0.333456
C54	C	0.826253	-1.008539	0.666789
C55	C	0.371043	-1.334721	0.000093
C56	C	0.704376	-1.001388	0.333426
C57	C	1.037710	-0.668055	0.666760
C58	C	0.497057	-1.337736	0.000087
C59	C	0.830390	-1.004402	0.333420
C60	C	1.163723	-0.671069	0.666753
N61	N	0.163570	-1.341717	0.318933
N62	N	0.496904	-1.008383	0.652266
N63	N	0.830237	-0.675050	0.985600
C64	C	0.162034	-0.777543	0.000112
C65	C	0.495367	-0.444210	0.333445
C66	C	0.828700	-0.110877	0.666778
C67	C	0.165113	-0.905928	0.000092
C68	C	0.498447	-0.572595	0.333425
C69	C	0.831780	-0.239262	0.666759
N70	N	0.163584	-1.341754	-0.318723
N71	N	0.496917	-1.008420	0.014610
N72	N	0.830251	-0.675087	0.347943
C73	C	0.163584	-1.341734	0.569939
C74	C	0.496917	-1.008401	0.903272
C75	C	0.830250	-0.675068	1.236606
C76	C	0.163580	-1.341721	0.430261
C77	C	0.496913	-1.008387	0.763595
C78	C	0.830246	-0.675054	1.096928
