data_functionalizedCrystal
_audit_creation_method	'MofGen! by Chris Wilmer'
_symmetry_space_group_name_H-M	'P1'
_symmetry_Int_Tables_number	1
_symmetry_cell_setting	triclinic
loop_
_symmetry_equiv_pos_as_xyz
  x,y,z
_cell_length_a	10.540539
_cell_length_b	13.448316
_cell_length_c	14.971486
_cell_angle_alpha	89.993189
_cell_angle_beta	84.069810
_cell_angle_gamma	89.995318
loop_
_atom_site_label
_atom_site_type_symbol
_atom_site_fract_x
_atom_site_fract_y
_atom_site_fract_z
O1	O	1.684461	-0.082646	0.126055
O2	O	1.314913	-0.082658	0.137932
O3	O	1.509592	-0.082644	0.001850
O4	O	1.489782	-0.082659	0.262138
O5	O	1.509567	0.082739	0.001841
O6	O	1.314888	0.082726	0.137924
O7	O	1.684436	0.082738	0.126047
Cu8	Cu	1.499660	0.097833	0.131984
Cu9	Cu	1.499689	-0.097753	0.131995
O10	O	1.489757	0.082725	0.262129
C11	C	1.267608	0.000032	0.137037
C12	C	1.126690	0.000028	0.134372
N13	N	1.499649	0.235397	0.131977
N14	N	1.499710	-0.235317	0.131995
C15	C	0.944422	0.000420	0.032264
C16	C	1.091009	0.000037	0.034965
C17	C	1.064488	-0.094413	0.182216
C18	C	0.917982	-0.094482	0.178824
C19	C	0.917443	0.093590	0.180836
C20	C	1.064415	0.094828	0.181752
C21	C	1.731741	0.000046	0.126942
C22	C	1.872659	0.000044	0.129607
C23	C	1.508693	0.000047	-0.031484
C24	C	1.506039	0.000046	-0.130797
C25	C	1.585879	0.287444	0.071745
C26	C	1.585887	0.391547	0.071744
C27	C	1.499670	0.443602	0.131980
C28	C	1.413430	0.391548	0.192215
C29	C	1.413417	0.287447	0.192211
C30	C	1.413465	0.608528	0.192222
C31	C	1.413480	0.712637	0.192227
C32	C	1.585936	0.712628	0.071754
C33	C	1.585923	0.608527	0.071750
C34	C	1.499684	0.556480	0.131987
C35	C	1.620407	0.000051	-0.187377
C36	C	1.617905	0.000041	-0.280691
C37	C	1.501033	0.000033	-0.317422
C38	C	1.386656	0.000026	-0.260834
C39	C	1.389159	0.000029	-0.167522
C40	C	1.381446	0.000022	-0.455325
C41	C	1.378942	0.000021	-0.548644
C42	C	1.610192	0.000034	-0.568495
C43	C	1.612695	0.000037	-0.475183
C44	C	1.498317	0.000031	-0.418601
C45	C	1.490656	0.000031	0.295463
C46	C	1.493310	0.000025	0.394775
H47	H	1.134040	0.067737	-0.002680
H48	H	0.869203	-0.098772	0.250316
F49	F	1.321663	0.446950	0.256320
F50	F	1.120657	-0.186278	0.138786
H51	H	1.703322	0.000035	-0.614568
F52	F	1.254554	0.000014	-0.587733
F53	F	1.321635	0.232057	0.256316
H54	H	1.343236	0.566155	0.241270
F55	F	1.677691	0.553126	0.007646
H56	H	0.916272	0.068149	-0.007011
F57	F	0.905526	-0.087603	-0.018851
H58	H	1.087818	0.100526	0.254226
H59	H	1.715578	0.000063	-0.157479
F60	F	1.259711	0.000014	-0.395109
H61	H	1.291496	0.000013	-0.290747
F62	F	1.677717	0.768024	0.007648
H63	H	1.656102	0.433923	0.022698
F64	F	1.739632	0.000047	-0.340905
H65	H	1.656093	0.245067	0.022697
H66	H	1.343271	0.755015	0.241277
F67	F	1.267433	0.000021	-0.107304
H68	H	1.707862	0.000050	-0.445280
H69	H	1.133195	-0.067776	-0.002938
H70	H	1.086013	-0.097931	0.255219
F71	F	0.881644	-0.186750	0.132613
F72	F	0.876680	0.187159	0.138780
H73	H	1.105763	0.164696	0.146800
H74	H	0.869401	0.094224	0.252637
