data_functionalizedCrystal
_audit_creation_method	'MofGen! by Chris Wilmer'
_symmetry_space_group_name_H-M	'P1'
_symmetry_Int_Tables_number	1
_symmetry_cell_setting	triclinic
loop_
_symmetry_equiv_pos_as_xyz
  x,y,z
_cell_length_a	12.827892
_cell_length_b	12.759401
_cell_length_c	12.759393
_cell_angle_alpha	90.018442
_cell_angle_beta	89.968940
_cell_angle_gamma	89.986459
loop_
_atom_site_label
_atom_site_type_symbol
_atom_site_fract_x
_atom_site_fract_y
_atom_site_fract_z
Zn1	Zn	-0.416021	-1.606239	-0.594016
Zn2	Zn	-0.590802	-1.606134	-0.418339
Zn3	Zn	-0.416070	-1.430544	-0.418352
Zn4	Zn	-0.590715	-1.430527	-0.593977
O5	O	-0.503402	-1.518361	-0.506171
O6	O	-0.439222	-1.753246	-0.570723
O7	O	-0.567681	-1.582805	-0.271319
O8	O	-0.269828	-1.453901	-0.441677
O9	O	-0.567633	-1.753169	-0.441653
O10	O	-0.269791	-1.582983	-0.570736
O11	O	-0.439306	-1.453800	-0.271329
O12	O	-0.439221	-1.283521	-0.441639
O13	O	-0.567484	-1.453872	-0.741003
O14	O	-0.567532	-1.283508	-0.570669
O15	O	-0.439137	-1.582967	-0.741032
O16	O	-0.737027	-1.582789	-0.441615
O17	O	-0.736963	-1.453771	-0.570656
C18	C	-0.503373	-1.245394	-0.506152
C19	C	-0.503386	-1.128617	-0.506168
C20	C	-0.570303	-1.073776	-0.573242
C21	C	-0.570312	-0.964052	-0.573252
C22	C	-0.436485	-0.964020	-0.439104
C23	C	-0.436472	-1.073742	-0.439101
C24	C	-0.647570	-1.073794	-0.650688
C25	C	-0.647579	-0.964070	-0.650698
C26	C	-0.774912	-1.518295	-0.506152
C27	C	-0.891065	-1.518363	-0.506180
C28	C	-0.942847	-1.582281	-0.442397
C29	C	-1.062897	-1.582353	-0.442424
C30	C	-0.230832	-1.518456	-0.506213
C31	C	-0.114679	-1.518496	-0.506230
C32	C	-0.503296	-1.518429	-0.780204
C33	C	-0.503250	-1.518458	-0.896981
C34	C	-0.503423	-0.792394	-0.506186
C35	C	-0.503409	-0.909171	-0.506181
C36	C	-0.436393	-1.451314	-0.951855
C37	C	-0.436362	-1.451346	-1.061579
C38	C	-0.570048	-1.585676	-1.061546
C39	C	-0.570084	-1.585638	-0.951824
C40	C	-0.359207	-1.373762	-0.951874
C41	C	-0.359176	-1.373794	-1.061598
C42	C	-0.503433	-1.518354	-0.233204
C43	C	-0.503184	-1.518528	-0.116428
H44	H	-0.381975	-1.118389	-0.384490
H45	H	-0.624540	-1.640298	-0.907151
H46	H	-0.898305	-1.636956	-0.387774
Cl47	Cl	-0.959829	-1.433959	-0.590529
Cl48	Cl	-0.352368	-0.895026	-0.354796
H49	H	-0.624461	-1.640372	-1.106213
Cl50	Cl	-0.392668	-1.248109	-0.905890
Cl51	Cl	-0.240537	-1.418790	-0.899346
Cl52	Cl	-1.131644	-1.666839	-0.358105
Cl53	Cl	-1.045939	-1.433995	-0.590540
H54	H	-0.625987	-1.103601	-0.732095
Cl55	Cl	-0.766241	-1.126317	-0.605579
Cl56	Cl	-0.602976	-0.911569	-0.770117
Cl57	Cl	-0.772489	-0.918059	-0.616802
H58	H	-0.388144	-1.296497	-1.095623
H59	H	-0.278229	-1.395613	-1.091395
