data_functionalizedCrystal
_audit_creation_method	'MofGen! by Chris Wilmer'
_symmetry_space_group_name_H-M	'P1'
_symmetry_Int_Tables_number	1
_symmetry_cell_setting	triclinic
loop_
_symmetry_equiv_pos_as_xyz
  x,y,z
_cell_length_a	27.780830
_cell_length_b	27.780882
_cell_length_c	27.780936
_cell_angle_alpha	89.998450
_cell_angle_beta	120.003294
_cell_angle_gamma	119.999883
loop_
_atom_site_label
_atom_site_type_symbol
_atom_site_fract_x
_atom_site_fract_y
_atom_site_fract_z
O1	O	0.344540	-0.410268	0.014328
O2	O	0.245967	-0.340271	-0.014246
O3	O	0.344538	-0.340267	0.084325
O4	O	0.245969	-0.410272	-0.084244
O5	O	0.424598	-0.260207	0.084326
O6	O	0.326028	-0.260211	-0.014245
O7	O	0.424600	-0.330208	0.014329
Zn8	Zn	0.388025	-0.282498	0.000042
Zn9	Zn	0.282542	-0.387981	0.000040
O10	O	0.326029	-0.330212	-0.084243
C11	C	0.090569	-0.207595	-0.029861
C12	C	0.031162	-0.237299	-0.025772
C13	C	0.119398	-0.149664	-0.030266
C14	C	0.177733	-0.207596	-0.029864
C15	C	0.211523	-0.237301	-0.025780
C16	C	0.206430	-0.149665	-0.030269
C17	C	0.177736	-0.120428	-0.029859
C18	C	0.211530	-0.056933	-0.025768
C19	C	0.119395	-0.236699	-0.030271
C20	C	0.238832	-0.005634	-0.022462
C21	C	-0.016831	-0.261296	-0.022468
C22	C	0.238822	-0.261299	-0.022478
C23	C	0.273083	0.058722	-0.018316
C24	C	-0.077042	-0.291402	-0.018323
C25	C	0.273070	-0.291406	-0.018338
O26	O	-0.094709	-0.260205	-0.014226
O27	O	-0.234692	-0.330200	0.014358
O28	O	-0.234716	-0.330202	-0.084218
O29	O	-0.094686	-0.260203	0.084349
O30	O	-0.234720	-0.410265	-0.084225
O31	O	-0.234697	-0.410262	0.014350
O32	O	-0.094714	-0.340268	-0.014234
Zn33	Zn	-0.164706	-0.387976	0.000057
Zn34	Zn	-0.164700	-0.282491	0.000067
O35	O	-0.094690	-0.340265	0.084342
C36	C	0.177729	-0.462882	-0.372324
C37	C	0.211522	-0.433178	-0.402025
C38	C	0.119390	-0.520814	-0.401429
C39	C	0.177729	-0.462883	-0.285158
C40	C	0.211520	-0.433179	-0.221662
C41	C	0.119389	-0.520815	-0.314395
C42	C	0.090561	-0.550050	-0.372327
C43	C	0.031153	-0.613546	-0.402033
C44	C	0.206425	-0.433780	-0.314392
C45	C	-0.016842	-0.664844	-0.426031
C46	C	0.238824	-0.409180	-0.426021
C47	C	0.238821	-0.409182	-0.170363
C48	C	-0.077054	-0.729200	-0.456139
C49	C	0.273075	-0.379073	-0.456125
C50	C	0.273071	-0.379076	-0.106006
C51	C	0.492851	-0.550040	0.029974
C52	C	0.459060	-0.613535	0.025887
C53	C	0.551191	-0.520804	0.030383
C54	C	0.492848	-0.462875	0.029969
C55	C	0.459054	-0.433173	0.025877
C56	C	0.551188	-0.433772	0.030378
C57	C	0.580018	-0.462873	0.029975
C58	C	0.639427	-0.433169	0.025889
C59	C	0.464153	-0.520806	0.030377
C60	C	0.687422	-0.409172	0.022588
C61	C	0.431759	-0.664832	0.022584
C62	C	0.431751	-0.409177	0.022570
C63	C	0.747635	-0.379065	0.018446
C64	C	0.397510	-0.729187	0.018442
C65	C	0.397498	-0.379072	0.018422
O66	O	0.424612	0.249050	0.014347
O67	O	0.326041	0.080484	-0.014224
O68	O	0.424615	0.179046	0.084347
O69	O	0.326038	0.150488	-0.084223
O70	O	0.344557	0.179047	0.084350
O71	O	0.245983	0.080485	-0.014220
O72	O	0.344554	0.249051	0.014351
Zn73	Zn	0.282558	0.164768	0.000066
Zn74	Zn	0.388037	0.164767	0.000061
O75	O	0.245980	0.150489	-0.084220
O76	O	-0.234728	-0.919530	-0.494952
O77	O	-0.094725	-0.750964	-0.424945
O78	O	-0.094721	-0.849526	-0.424942
O79	O	-0.234732	-0.820967	-0.494955
O80	O	-0.094719	-0.849524	-0.505000
O81	O	-0.094723	-0.750962	-0.505004
O82	O	-0.234726	-0.919528	-0.575010
Zn83	Zn	-0.164724	-0.835244	-0.552718
Zn84	Zn	-0.164727	-0.835247	-0.447237
O85	O	-0.234730	-0.820965	-0.575014
O86	O	0.344538	-0.340267	-0.574987
O87	O	0.245972	-0.410269	-0.504990
O88	O	0.344541	-0.410266	-0.504983
O89	O	0.245969	-0.340270	-0.574995
O90	O	0.424603	-0.330205	-0.424921
O91	O	0.326033	-0.330208	-0.424928
O92	O	0.424600	-0.260206	-0.494926
Zn93	Zn	0.388028	-0.282496	-0.447215
Zn94	Zn	0.282543	-0.387979	-0.552700
O95	O	0.326030	-0.260209	-0.494933
C96	C	0.580008	-0.120427	0.372409
C97	C	0.639416	-0.056931	0.402114
C98	C	0.551180	-0.149662	0.401511
C99	C	0.492840	-0.207594	0.285240
C100	C	0.459048	-0.237298	0.221744
C101	C	0.464144	-0.236697	0.314474
C102	C	0.492840	-0.207594	0.372406
C103	C	0.459048	-0.237298	0.402109
C104	C	0.551180	-0.149662	0.314477
C105	C	0.431747	-0.261295	0.426105
C106	C	0.687411	-0.005633	0.426112
C107	C	0.431747	-0.261296	0.170445
C108	C	0.397497	-0.291402	0.456209
C109	C	0.747624	0.058723	0.456220
C110	C	0.397496	-0.291402	0.106089
C111	C	-0.507238	-0.550051	-0.372293
C112	C	-0.541038	-0.613548	-0.401999
C113	C	-0.535938	-0.520815	-0.401391
C114	C	-0.420049	-0.462881	-0.285127
C115	C	-0.360627	-0.433176	-0.221634
C116	C	-0.448882	-0.433778	-0.314357
C117	C	-0.507233	-0.462882	-0.372285
C118	C	-0.541028	-0.433178	-0.401982
C119	C	-0.448887	-0.520814	-0.314365
C120	C	-0.568332	-0.409180	-0.425974
C121	C	-0.568346	-0.664847	-0.425998
C122	C	-0.312620	-0.409177	-0.170337
C123	C	-0.602585	-0.379073	-0.456073
C124	C	-0.602605	-0.729204	-0.456105
C125	C	-0.252393	-0.379069	-0.105984
C126	C	0.177827	-0.207585	0.372409
C127	C	0.211622	-0.237290	0.402107
C128	C	0.206532	-0.149652	0.401515
C129	C	0.090643	-0.207586	0.285251
C130	C	0.031221	-0.237292	0.221758
C131	C	0.119481	-0.149653	0.314489
C132	C	0.177833	-0.120416	0.372417
C133	C	0.211633	-0.056919	0.402123
C134	C	0.119476	-0.236690	0.314481
C135	C	0.238941	-0.005620	0.426121
C136	C	0.238925	-0.261288	0.426098
C137	C	-0.016786	-0.261290	0.170461
C138	C	0.273200	0.058737	0.456229
C139	C	0.273178	-0.291395	0.456198
C140	C	-0.077013	-0.291398	0.106108
C141	C	0.492874	0.194666	0.372433
C142	C	0.459085	0.190577	0.402138
C143	C	0.551213	0.195071	0.401535
C144	C	0.492868	0.194668	0.285264
C145	C	0.459073	0.190582	0.221767
C146	C	0.551207	0.195073	0.314498
C147	C	0.580039	0.194664	0.372431
C148	C	0.639447	0.190575	0.402133
C149	C	0.464175	0.195075	0.314501
C150	C	0.687442	0.187269	0.426130
C151	C	0.431786	0.187273	0.426137
C152	C	0.431769	0.187280	0.170468
C153	C	0.747654	0.183124	0.456235
C154	C	0.397539	0.183129	0.456244
C155	C	0.397515	0.183139	0.106111
O156	O	-0.754158	-0.919534	-0.574971
O157	O	-0.655572	-0.750966	-0.504966
O158	O	-0.754125	-0.849524	-0.504949
O159	O	-0.655605	-0.820976	-0.574988
O160	O	-0.674050	-0.849525	-0.424897
O161	O	-0.575497	-0.750967	-0.424914
O162	O	-0.674083	-0.919535	-0.494919
Zn163	Zn	-0.612077	-0.835252	-0.447207
Zn164	Zn	-0.717579	-0.835250	-0.552678
O165	O	-0.575530	-0.820977	-0.494937
C166	C	0.090558	0.134871	-0.372304
C167	C	0.031150	0.138960	-0.402007
C168	C	0.119384	0.134464	-0.401408
C169	C	0.177728	0.134867	-0.285137
C170	C	0.211523	0.138953	-0.221640
C171	C	0.206422	0.134460	-0.314373
C172	C	0.177723	0.134869	-0.372305
C173	C	0.211513	0.138958	-0.402010
C174	C	0.119389	0.134461	-0.314372
C175	C	0.238812	0.142262	-0.426008
C176	C	-0.016845	0.142265	-0.426004
C177	C	0.238827	0.142255	-0.170341
C178	C	0.273059	0.146406	-0.456115
C179	C	-0.077057	0.146411	-0.456110
C180	C	0.273080	0.146396	-0.105984
H181	H	0.095263	-0.284299	-0.030931
H182	H	-0.424768	-0.544294	-0.290895
C183	C	0.400733	-0.552512	0.031258
C184	C	0.369032	-0.520356	0.031702
C185	C	0.305614	-0.552060	0.032582
C186	C	0.273898	-0.615920	0.033018
C187	C	0.305599	-0.648080	0.032574
C188	C	0.369017	-0.616376	0.031694
H189	H	0.392510	-0.473080	0.031380
H190	H	0.282147	-0.528253	0.032911
H191	H	0.226953	-0.639389	0.033669
H192	H	0.282121	-0.695356	0.032896
H193	H	0.392484	-0.640183	0.031365
C194	C	0.583792	-0.369468	0.031269
C195	C	0.590477	-0.353659	-0.019192
C196	C	0.623085	-0.289358	-0.018298
C197	C	0.649007	-0.240864	0.033057
C198	C	0.642323	-0.256672	0.083522
C199	C	0.609715	-0.320974	0.082629
H200	H	0.571287	-0.389558	-0.057212
H201	H	0.628033	-0.277656	-0.055656
H202	H	0.673146	-0.193264	0.033719
H203	H	0.661513	-0.220773	0.121542
H204	H	0.604767	-0.332675	0.119987
H205	H	0.253366	0.133804	-0.290899
H206	H	0.095258	-0.544280	-0.449032
C207	C	-0.416283	-0.369475	-0.282648
C208	C	-0.447997	-0.337327	-0.314799
C209	C	-0.415402	-0.273027	-0.283093
C210	C	-0.351093	-0.240875	-0.219235
C211	C	-0.319375	-0.273022	-0.187080
C212	C	-0.351970	-0.337322	-0.218787
H213	H	-0.495606	-0.361129	-0.362074
H214	H	-0.438882	-0.249230	-0.306896
H215	H	-0.326964	-0.193276	-0.195764
H216	H	-0.271766	-0.249220	-0.139806
H217	H	-0.328490	-0.361119	-0.194983
H218	H	0.575317	-0.544277	0.031041
H219	H	0.575311	-0.126189	0.449111
H220	H	0.575297	-0.126182	0.291002
H221	H	0.417194	-0.284294	0.290996
C222	C	-0.599393	-0.552534	-0.465679
C223	C	-0.631137	-0.616405	-0.497825
C224	C	-0.694601	-0.648127	-0.562105
C225	C	-0.726322	-0.615978	-0.594238
C226	C	-0.694578	-0.552103	-0.562092
C227	C	-0.631114	-0.520381	-0.497812
H228	H	-0.607656	-0.640207	-0.474038
H229	H	-0.718100	-0.695411	-0.585902
H230	H	-0.773302	-0.639460	-0.641822
H231	H	-0.718059	-0.528301	-0.585878
H232	H	-0.607615	-0.473097	-0.474015
C233	C	0.086885	-0.117942	0.282790
C234	C	0.022574	-0.150088	0.218934
C235	C	-0.010020	-0.118377	0.187238
C236	C	0.021697	-0.054519	0.219399
C237	C	0.086012	-0.022370	0.283260
C238	C	0.118606	-0.054081	0.314955
H239	H	-0.000909	-0.197362	0.195123
H240	H	-0.057631	-0.142176	0.139965
H241	H	-0.002430	-0.031045	0.195937
H242	H	0.109495	0.024905	0.307070
H243	H	0.166217	-0.030281	0.362229
C244	C	0.269965	-0.117939	0.465814
C245	C	0.301686	-0.150083	0.497959
C246	C	0.365117	-0.118369	0.562255
C247	C	0.396827	-0.054511	0.594404
C248	C	0.365105	-0.022363	0.562259
C249	C	0.301674	-0.054077	0.497963
H250	H	0.278213	-0.197358	0.474160
H251	H	0.388599	-0.142167	0.586051
H252	H	0.443782	-0.031034	0.642000
H253	H	0.388578	0.024912	0.586058
H254	H	0.278192	-0.030279	0.474167
H255	H	0.095345	-0.284289	0.291009
C256	C	0.583803	0.195963	0.282793
C257	C	0.552093	0.196403	0.218932
C258	C	0.584690	0.197294	0.187230
C259	C	0.648998	0.197744	0.219387
C260	C	0.680712	0.197303	0.283251
C261	C	0.648114	0.196413	0.314954
H262	H	0.504485	0.196070	0.195124
H263	H	0.561213	0.197620	0.139953
H264	H	0.673128	0.198403	0.195919
H265	H	0.728319	0.197637	0.307060
H266	H	0.671591	0.196087	0.362230
C267	C	0.583815	0.195956	0.465839
C268	C	0.552111	0.196393	0.497993
C269	C	0.584713	0.197279	0.562295
C270	C	0.649020	0.197728	0.594442
C271	C	0.680728	0.197291	0.562288
C272	C	0.648125	0.196405	0.497986
H273	H	0.504504	0.196061	0.474196
H274	H	0.561240	0.197603	0.586097
H275	H	0.673154	0.198384	0.642041
H276	H	0.728335	0.197624	0.586085
H277	H	0.671598	0.196082	0.474184
C278	C	0.400734	0.195927	0.282778
C279	C	0.369003	0.196336	0.314915
C280	C	0.305553	0.197171	0.283187
C281	C	0.273833	0.197597	0.219321
C282	C	0.305564	0.197187	0.187181
C283	C	0.369014	0.196352	0.218909
H284	H	0.392483	0.196021	0.362196
H285	H	0.282063	0.197474	0.306980
H286	H	0.226863	0.198215	0.195834
H287	H	0.282083	0.197502	0.139900
H288	H	0.392503	0.196049	0.195116
H289	H	0.095251	0.133809	-0.449008
C290	C	0.086801	0.133576	-0.282659
C291	C	0.022504	0.133142	-0.314803
C292	C	-0.010081	0.132257	-0.283090
C293	C	0.021631	0.131806	-0.219233
C294	C	0.085931	0.132239	-0.187086
C295	C	0.118516	0.133125	-0.218799
H296	H	-0.000974	0.133476	-0.362077
H297	H	-0.057680	0.131936	-0.306888
H298	H	-0.002491	0.131151	-0.195758
H299	H	0.109409	0.131905	-0.139812
H300	H	0.166116	0.133446	-0.195001
H301	H	0.095265	-0.544285	-0.290922
H302	H	0.253368	-0.386180	-0.290921
C303	C	0.269864	-0.117932	-0.031129
C304	C	0.267027	-0.095338	-0.082468
C305	C	0.330466	-0.063595	-0.083315
C306	C	0.396743	-0.054445	-0.032823
C307	C	0.399583	-0.077040	0.018520
C308	C	0.336143	-0.108783	0.019367
H309	H	0.217962	-0.102110	-0.119849
H310	H	0.328364	-0.046869	-0.121323
H311	H	0.443705	-0.030947	-0.033450
H312	H	0.448648	-0.070267	0.055900
H313	H	0.338246	-0.125509	0.057375
C314	C	0.086811	-0.117950	-0.031145
C315	C	0.022517	-0.150094	-0.031578
C316	C	-0.010066	-0.118380	-0.032457
C317	C	0.021645	-0.054523	-0.032901
C318	C	0.085942	-0.022376	-0.032468
C319	C	0.118526	-0.054090	-0.031590
H320	H	-0.000960	-0.197368	-0.031249
H321	H	-0.057664	-0.142178	-0.032777
H322	H	-0.002475	-0.031047	-0.033551
H323	H	0.109420	0.024898	-0.032797
H324	H	0.166123	-0.030292	-0.031269
