data_functionalizedCrystal
_audit_creation_method	'MofGen! by Chris Wilmer'
_symmetry_space_group_name_H-M	'P1'
_symmetry_Int_Tables_number	1
_symmetry_cell_setting	triclinic
loop_
_symmetry_equiv_pos_as_xyz
  x,y,z
_cell_length_a	18.760490
_cell_length_b	14.560438
_cell_length_c	14.560438
_cell_angle_alpha	60.005799
_cell_angle_beta	90.018061
_cell_angle_gamma	60.023932
loop_
_atom_site_label
_atom_site_type_symbol
_atom_site_fract_x
_atom_site_fract_y
_atom_site_fract_z
Zr1	Zr	0.686571	1.005560	-0.120276
O2	O	0.572784	1.197086	-0.266914
O3	O	0.721449	0.813993	-0.075343
O4	O	0.721455	1.005581	-0.266920
O5	O	0.572779	1.005496	0.075803
O6	O	0.838733	1.005643	-0.266902
O7	O	0.572779	1.005498	-0.075338
O8	O	0.838723	0.662927	0.075793
O9	O	0.572789	1.348212	-0.266892
O10	O	0.823853	0.892849	-0.056144
O11	O	0.736329	0.892800	0.056638
O12	O	0.736336	1.118370	-0.168918
O13	O	0.648812	1.118322	-0.056137
Zr14	Zr	0.873617	1.005655	0.120804
Zr15	Zr	0.873617	1.005659	-0.120248
Zr16	Zr	0.686572	1.005556	0.120776
Zr17	Zr	0.686579	1.246587	-0.120241
Zr18	Zr	0.873610	0.764628	0.120769
O19	O	0.838740	1.197222	0.075871
O20	O	0.838739	1.197228	-0.266874
O21	O	0.572785	1.197080	0.075831
O22	O	0.987404	0.814129	0.267441
O23	O	0.987404	0.814135	-0.075304
O24	O	0.721449	0.813987	0.267402
O25	O	0.987410	1.005719	-0.075276
O26	O	0.838734	1.005634	0.267447
O27	O	0.721455	1.005572	0.267430
O28	O	0.987410	1.005717	0.075865
O29	O	0.721465	1.348291	-0.266869
O30	O	0.838723	0.662924	0.267397
O31	O	0.987400	0.663003	0.267419
O32	O	0.987399	0.663007	0.075815
O33	O	0.572789	1.348208	-0.075287
O34	O	0.721466	1.348288	-0.075265
O35	O	0.823853	0.892845	0.169446
O36	O	0.911376	0.892893	0.056664
O37	O	0.823860	1.118415	-0.056110
O38	O	0.736336	1.118366	0.056671
C39	C	0.780085	0.704119	0.000220
C40	C	0.780082	0.601796	0.000205
C41	C	0.715477	0.636890	-0.083027
C42	C	0.715491	0.540701	-0.082970
C43	C	0.844718	0.374326	0.083559
C44	C	0.844707	0.470514	0.083497
C45	C	0.650852	0.768172	-0.166319
C46	C	0.586242	0.803272	-0.249556
C47	C	0.586256	0.707083	-0.249500
C48	C	0.650880	0.575794	-0.166206
C49	C	0.546129	1.005483	0.000229
C50	C	0.466723	1.005440	0.000217
C51	C	0.130735	1.005742	-0.082968
C52	C	0.130851	1.005739	0.083570
C53	C	0.205498	1.005674	0.083552
C54	C	0.242767	1.005642	0.000273
C55	C	0.205390	1.005674	-0.082987
C56	C	0.242885	1.005629	0.166816
C57	C	0.317537	1.005563	0.166802
C58	C	0.354804	1.005540	0.083518
C59	C	0.317422	1.005573	0.000254
C60	C	0.354691	1.005541	-0.083024
C61	C	0.317307	1.005583	-0.166293
C62	C	0.242657	1.005650	-0.166270
C63	C	0.429453	1.005473	0.083495
C64	C	0.429346	1.005472	-0.083043
C65	C	1.014060	1.005732	0.000299
C66	C	1.093466	1.005775	0.000311
C67	C	0.780094	1.005613	-0.301256
C68	C	0.780094	1.005614	-0.403589
C69	C	0.780104	1.307096	0.000308
C70	C	0.780107	1.409419	0.000323
C71	C	0.734408	1.123332	-0.510532
C72	C	0.734410	1.123326	-0.606681
C73	C	0.825787	0.887874	-0.488929
C74	C	0.825789	0.887881	-0.392783
C75	C	0.688713	1.241065	-0.521338
C76	C	0.643022	1.358793	-0.628287
C77	C	0.643025	1.358786	-0.724435
C78	C	0.688718	1.241053	-0.713636
C79	C	0.780095	1.005602	0.301783
C80	C	0.780095	1.005601	0.404116
C81	C	1.014051	0.704243	0.000255
C82	C	1.093453	0.601963	0.000251
C83	C	0.780085	0.704114	0.301739
C84	C	0.780082	0.601789	0.404057
C85	C	1.014051	0.704238	0.301774
C86	C	1.093454	0.601956	0.404104
C87	C	0.546138	1.306977	-0.301246
C88	C	0.466735	1.409259	-0.403576
C89	C	0.546138	1.306972	0.000273
C90	C	0.466735	1.409252	0.000276
C91	C	0.780103	1.307101	-0.301211
C92	C	0.780107	1.409426	-0.403529
C93	C	1.085055	0.553908	-0.058645
C94	C	1.159655	0.457818	-0.058670
C95	C	1.242653	0.409779	0.000208
C96	C	1.251049	0.457844	0.059106
C97	C	1.176450	0.553938	0.059124
C98	C	1.176436	0.553949	0.393288
C99	C	1.251051	0.457858	0.489429
C100	C	1.242681	0.409769	0.596384
C101	C	1.159689	0.457786	0.607197
C102	C	1.085077	0.553882	0.511058
C103	C	0.383752	1.457278	-0.392760
C104	C	0.309138	1.553399	-0.488901
C105	C	0.317508	1.601493	-0.595856
C106	C	0.400499	1.553470	-0.606670
C107	C	0.475112	1.457357	-0.510530
C108	C	0.475134	1.457317	0.059162
C109	C	0.400533	1.553433	0.059161
C110	C	0.317536	1.601476	0.000280
C111	C	0.309140	1.553407	-0.058613
C112	C	0.383739	1.457299	-0.058618
C113	C	0.825768	0.553736	0.511011
C114	C	0.825759	0.457596	0.607145
C115	C	0.734375	0.457569	0.489359
C116	C	0.734380	0.553713	0.393227
C117	C	0.871470	0.601812	0.521841
C118	C	0.917161	0.553757	0.628800
C119	C	0.917151	0.457618	0.724934
C120	C	0.871451	0.409533	0.714110
H121	H	0.897330	0.267426	0.151375
N122	N	1.150577	0.405988	-0.122191
H123	H	1.179494	0.309492	-0.068206
H124	H	1.179468	0.422836	-0.181452
H125	H	1.183300	0.593052	0.107091
N126	N	0.685113	0.605536	0.277865
H127	H	0.692051	0.673740	0.218611
H128	H	0.621222	0.645322	0.268951
N129	N	0.650838	0.871916	-0.166379
H130	H	0.600097	0.960408	-0.231772
H131	H	0.707303	0.862309	-0.173704
N132	N	0.409513	1.605348	-0.722035
H133	H	0.442459	1.532022	-0.731061
H134	H	0.442447	1.645277	-0.730978
H135	H	0.376889	1.418167	-0.106567
H136	H	1.318619	0.418772	0.480604
N137	N	0.219619	1.605209	-0.122097
H138	H	0.173642	1.673373	-0.113139
H139	H	0.212714	1.531769	-0.091170
N140	N	0.469769	1.005427	0.173299
H141	H	0.469710	1.085457	0.136975
H142	H	0.531756	0.925290	0.217006
N143	N	0.688914	1.241374	-0.817501
H144	H	0.750853	1.195288	-0.817370
H145	H	0.653064	1.333957	-0.886666
H146	H	0.542678	1.418261	-0.519350
N147	N	1.323110	0.306136	0.000181
H148	H	1.305187	0.282988	-0.046065
H149	H	1.358987	0.226436	0.079945
H150	H	0.542707	1.418208	0.107118
H151	H	0.862986	0.792021	-0.480146
H152	H	0.533631	0.910171	-0.317376
H153	H	1.152887	0.418618	0.694293
H154	H	1.183268	0.593089	0.306209
H155	H	0.347663	1.005548	-0.234095
N156	N	0.871496	0.705484	0.418154
H157	H	0.907384	0.728645	0.441241
H158	H	0.809603	0.785173	0.371909
N159	N	0.409601	1.605265	0.122686
H160	H	0.473500	1.560232	0.159992
H161	H	0.380633	1.588526	0.181870
N162	N	0.966443	0.605623	0.640479
H163	H	0.959519	0.673817	0.563351
H164	H	1.030331	0.532225	0.683000
H165	H	0.605828	1.454645	-0.811513
N166	N	0.966421	0.405794	0.840295
H167	H	0.995372	0.450842	0.832563
H168	H	1.012345	0.309305	0.882743
N169	N	0.237079	1.705135	0.000290
H170	H	0.255001	1.728285	0.046535
H171	H	0.201200	1.671586	0.033767
H172	H	0.862989	0.792025	-0.305703
N173	N	0.995542	0.605708	-0.122151
H174	H	1.001555	0.560676	-0.159464
H175	H	0.962600	0.702204	-0.181329
N176	N	0.688719	1.241070	-0.417635
H177	H	0.662723	1.194820	-0.371360
H178	H	0.652856	1.333546	-0.440796
N179	N	0.516583	0.744932	-0.339283
H180	H	0.475647	0.842693	-0.392055
H181	H	0.482704	0.708649	-0.302851
H182	H	0.897312	0.441934	0.151273
H183	H	1.017511	0.592957	0.519880
N184	N	0.871439	0.305835	0.817792
H185	H	0.809561	0.339267	0.817826
H186	H	0.907353	0.282723	0.887139
N187	N	0.685099	0.405689	0.477694
H188	H	0.709064	0.365820	0.435214
H189	H	0.621198	0.479061	0.435254
H190	H	0.650899	0.497477	-0.166184
N191	N	1.340574	0.406014	0.122605
H192	H	1.373551	0.309520	0.181833
H193	H	1.334515	0.451119	0.159856
N194	N	0.469537	1.005450	-0.172872
H195	H	0.434524	1.005489	-0.225616
H196	H	0.531540	0.925361	-0.136477
H197	H	0.347970	1.005530	0.234603
N198	N	0.202325	1.005726	-0.256091
H199	H	0.149378	1.005778	-0.243442
H200	H	0.246372	0.925666	-0.252442
H201	H	1.303442	0.331521	0.674658
H202	H	0.376921	1.418125	-0.305681
N203	N	0.090408	1.005820	-0.172793
H204	H	0.037456	1.005881	-0.160156
H205	H	0.134455	0.925757	-0.169140
N206	N	0.090657	1.005754	0.173391
H207	H	0.028653	1.085834	0.137080
H208	H	0.125725	1.005672	0.226110
N209	N	0.202690	1.005641	0.256637
H210	H	0.140687	1.085725	0.220327
H211	H	0.237760	1.005546	0.309366
H212	H	0.241570	1.592483	-0.480074
H213	H	0.605826	1.454647	-0.637071
N214	N	0.237029	1.705156	-0.699545
H215	H	0.183193	1.728268	-0.676453
H216	H	0.237064	1.671629	-0.745788
