data_functionalizedCrystal
_audit_creation_method	'MofGen! by Chris Wilmer'
_symmetry_space_group_name_H-M	'P1'
_symmetry_Int_Tables_number	1
_symmetry_cell_setting	triclinic
loop_
_symmetry_equiv_pos_as_xyz
  x,y,z
_cell_length_a	14.519709
_cell_length_b	12.503572
_cell_length_c	14.519709
_cell_angle_alpha	86.471162
_cell_angle_beta	83.680145
_cell_angle_gamma	93.519209
loop_
_atom_site_label
_atom_site_type_symbol
_atom_site_fract_x
_atom_site_fract_y
_atom_site_fract_z
O1	O	1.229169	0.089182	0.115573
O2	O	1.562502	0.422516	0.448906
O3	O	1.895835	0.755849	0.782240
O4	O	0.960694	0.089215	0.129808
O5	O	1.294027	0.422549	0.463141
O6	O	1.627360	0.755882	0.796474
O7	O	1.102049	0.089188	-0.011548
O8	O	1.435382	0.422522	0.321786
O9	O	1.768715	0.755855	0.655119
O10	O	1.087813	0.089209	0.256928
O11	O	1.421147	0.422543	0.590261
O12	O	1.754480	0.755876	0.923595
O13	O	1.091418	-0.089452	-0.000899
O14	O	1.424751	0.243882	0.332434
O15	O	1.758085	0.577215	0.665768
O16	O	0.950063	-0.089424	0.140456
O17	O	1.283396	0.243909	0.473789
O18	O	1.616730	0.577242	0.807123
O19	O	1.218538	-0.089458	0.126221
O20	O	1.551871	0.243876	0.459555
O21	O	1.885204	0.577209	0.792888
Cu22	Cu	1.083330	-0.105752	0.134311
Cu23	Cu	1.416663	0.227581	0.467644
Cu24	Cu	1.749996	0.560914	0.800978
Cu25	Cu	1.095902	0.105510	0.121718
Cu26	Cu	1.429235	0.438844	0.455051
Cu27	Cu	1.762568	0.772177	0.788385
O28	O	1.077183	-0.089430	0.267577
O29	O	1.410516	0.243903	0.600910
O30	O	1.743849	0.577236	0.934243
C31	C	0.921019	-0.000100	0.134468
C32	C	1.254352	0.333233	0.467801
C33	C	1.587685	0.666566	0.801135
C34	C	0.818638	-0.000088	0.132479
C35	C	1.151972	0.333245	0.465812
C36	C	1.485305	0.666579	0.799146
N37	N	1.074494	-0.254343	0.143168
N38	N	1.407827	0.078991	0.476501
N39	N	1.741161	0.412324	0.809834
C40	C	0.443739	-0.000137	0.125163
C41	C	0.777073	0.333196	0.458496
C42	C	1.110406	0.666529	0.791829
C43	C	0.548048	-0.000123	0.127194
C44	C	0.881382	0.333210	0.460528
C45	C	1.214715	0.666543	0.793861
C46	C	0.631186	-0.000112	0.128821
C47	C	0.964519	0.333222	0.462154
C48	C	1.297852	0.666555	0.795487
C49	C	0.735501	-0.000100	0.130853
C50	C	1.068834	0.333234	0.464186
C51	C	1.402168	0.666567	0.797520
C52	C	1.061496	-0.473456	0.156204
C53	C	1.394829	-0.140122	0.489537
C54	C	1.728163	0.193211	0.822871
C55	C	1.117740	-0.526793	0.099821
C56	C	1.451073	-0.193460	0.433154
C57	C	1.784406	0.139873	0.766488
C58	C	1.110507	-0.648715	0.107074
C59	C	1.443841	-0.315382	0.440408
C60	C	1.777174	0.017951	0.773741
C61	C	1.068727	-0.351523	0.148951
C62	C	1.402060	-0.018189	0.482285
C63	C	1.735394	0.315144	0.815618
C64	C	1.258213	-0.000139	0.121561
C65	C	1.591546	0.333194	0.454894
C66	C	1.924880	0.666527	0.788227
C67	C	1.360594	-0.000145	0.123549
C68	C	1.693927	0.333189	0.456883
C69	C	2.027260	0.666522	0.790216
C70	C	1.096070	-0.000132	-0.040583
C71	C	1.429403	0.333202	0.292750
C72	C	1.762737	0.666535	0.626084
C73	C	1.094082	-0.000132	-0.142964
C74	C	1.427415	0.333201	0.190369
C75	C	1.760748	0.666535	0.523702
N76	N	1.104745	0.254101	0.112854
N77	N	1.438078	0.587434	0.446187
N78	N	1.771412	0.920767	0.779521
C79	C	1.086764	-0.000103	-0.517862
C80	C	1.420097	0.333230	-0.184529
C81	C	1.753431	0.666563	0.148805
C82	C	1.088796	-0.000112	-0.413553
C83	C	1.422129	0.333222	-0.080220
C84	C	1.755463	0.666555	0.253113
C85	C	1.090422	-0.000119	-0.330416
C86	C	1.423756	0.333215	0.002917
C87	C	1.757089	0.666548	0.336250
C88	C	1.092455	-0.000125	-0.226101
C89	C	1.425789	0.333208	0.107232
C90	C	1.759122	0.666542	0.440565
C91	C	1.083162	-0.000108	0.296612
C92	C	1.416495	0.333225	0.629945
C93	C	1.749828	0.666559	0.963279
C94	C	1.085150	-0.000101	0.398993
C95	C	1.418484	0.333233	0.732326
C96	C	1.751817	0.666566	1.065659
H97	H	1.171323	-0.480891	0.046103
H98	H	1.504657	-0.147557	0.379436
H99	H	1.837990	0.185776	0.712770
O100	O	0.997659	-0.528372	0.220267
O101	O	1.330992	-0.195039	0.553600
O102	O	1.664326	0.138294	0.886934
C103	C	0.932105	-0.701740	0.285936
C104	C	1.265439	-0.368406	0.619269
C105	C	1.598772	-0.035073	0.952602
C106	C	1.004451	-0.639664	0.213356
C107	C	1.337785	-0.306331	0.546689
C108	C	1.671118	0.027002	0.880022
H109	H	0.937559	-0.791730	0.280359
H110	H	1.270892	-0.458397	0.613693
H111	H	1.604226	-0.125063	0.947026
H112	H	0.945660	-0.679783	0.358527
H113	H	1.278993	-0.346450	0.691861
H114	H	1.612326	-0.013116	1.025194
H115	H	0.859485	-0.679650	0.272609
H116	H	1.192818	-0.346317	0.605942
H117	H	1.526151	-0.012984	0.939275
H118	H	1.077100	-0.661720	0.226596
H119	H	1.410433	-0.328387	0.559929
H120	H	1.743767	0.004946	0.893263
H121	H	0.990816	-0.661626	0.140788
H122	H	1.324149	-0.328293	0.474122
H123	H	1.657482	0.005040	0.807455
