data_functionalizedCrystal
_audit_creation_method	'MofGen! by Chris Wilmer'
_symmetry_space_group_name_H-M	'P1'
_symmetry_Int_Tables_number	1
_symmetry_cell_setting	triclinic
loop_
_symmetry_equiv_pos_as_xyz
  x,y,z
_cell_length_a	15.538191
_cell_length_b	17.699083
_cell_length_c	16.776229
_cell_angle_alpha	89.996964
_cell_angle_beta	89.993235
_cell_angle_gamma	114.722446
loop_
_atom_site_label
_atom_site_type_symbol
_atom_site_fract_x
_atom_site_fract_y
_atom_site_fract_z
O1	O	-1.250477	-0.245976	0.066326
O2	O	-0.750477	0.254024	0.566326
O3	O	-0.976018	-0.158529	0.066315
O4	O	-0.476018	0.341471	0.566315
O5	O	-1.121002	-0.314560	0.066329
O6	O	-0.621002	0.185440	0.566329
O7	O	-1.105493	-0.089944	0.066313
O8	O	-0.605493	0.410056	0.566313
O9	O	-1.120985	-0.314556	-0.066248
O10	O	-0.620985	0.185444	0.433752
O11	O	-0.976001	-0.158525	-0.066261
O12	O	-0.476001	0.341475	0.433739
O13	O	-1.250461	-0.245972	-0.066251
O14	O	-0.750461	0.254028	0.433749
Zn15	Zn	-1.113228	-0.202248	-0.087305
Zn16	Zn	-0.613228	0.297752	0.412695
Zn17	Zn	-1.113250	-0.202253	0.087370
Zn18	Zn	-0.613250	0.297747	0.587370
O19	O	-1.105477	-0.089940	-0.066264
O20	O	-0.605477	0.410060	0.433736
C21	C	-0.940893	-0.149378	0.000026
C22	C	-0.440893	0.350622	0.500026
C23	C	-0.836257	-0.122125	0.000022
C24	C	-0.336257	0.377875	0.500022
C25	C	-1.120438	-0.342603	0.000044
C26	C	-0.620438	0.157397	0.500044
C27	C	-1.118771	-0.426166	0.000055
C28	C	-0.618771	0.073834	0.500055
C29	C	-1.285585	-0.255123	0.000041
C30	C	-0.785585	0.244877	0.500041
C31	C	-1.390221	-0.282375	0.000049
C32	C	-0.890221	0.217625	0.500049
C33	C	-0.549086	-0.392872	0.000054
C34	C	-0.049086	0.107128	0.500054
C35	C	-0.450762	-0.367245	0.000053
C36	C	0.049238	0.132755	0.500053
C37	C	-0.427989	-0.223099	0.000043
C38	C	0.072011	0.276901	0.500043
C39	C	-0.526313	-0.248714	0.000040
C40	C	-0.026313	0.251286	0.500040
C41	C	-0.586855	-0.333602	0.000047
C42	C	-0.086855	0.166398	0.500047
C43	C	-0.564082	-0.189444	0.000032
C44	C	-0.064082	0.310556	0.500032
C45	C	-0.662398	-0.215057	0.000034
C46	C	-0.162398	0.284943	0.500034
C47	C	-0.722945	-0.299940	0.000043
C48	C	-0.222945	0.200060	0.500043
C49	C	-0.685171	-0.359215	0.000048
C50	C	-0.185171	0.140785	0.500048
C51	C	-0.503539	-0.104556	0.000031
C52	C	-0.003539	0.395444	0.500031
C53	C	-0.541308	-0.045286	0.000023
C54	C	-0.041308	0.454714	0.500023
C55	C	-0.639625	-0.070899	0.000019
C56	C	-0.139625	0.429101	0.500019
C57	C	-0.700173	-0.155782	0.000029
C58	C	-0.200173	0.344218	0.500029
C59	C	-0.677400	-0.011624	0.000014
C60	C	-0.177400	0.488376	0.500014
C61	C	-0.775716	-0.037238	0.000016
C62	C	-0.275716	0.462762	0.500016
C63	C	-0.798489	-0.181396	0.000030
C64	C	-0.298489	0.318604	0.500030
C65	C	-1.106041	-0.061897	0.000022
C66	C	-0.606041	0.438103	0.500022
C67	C	-1.107708	0.021665	0.000017
C68	C	-0.607708	0.521665	0.500017
N69	N	-1.113221	-0.202246	-0.206516
N70	N	-0.613221	0.297754	0.293484
C71	C	-1.022605	0.093540	0.000013
C72	C	-0.522605	0.593540	0.500013
C73	C	-1.024178	0.172054	0.000023
C74	C	-0.524178	0.672054	0.500023
C75	C	-1.110853	0.178691	0.000030
C76	C	-0.610853	0.678691	0.500030
C77	C	-1.195962	0.106808	0.000035
C78	C	-0.695962	0.606808	0.500035
C79	C	-1.194389	0.028296	0.000032
C80	C	-0.694389	0.528296	0.500032
C81	C	-1.202307	0.423438	0.000051
C82	C	-0.702307	0.923438	0.500051
C83	C	-1.203874	0.501958	0.000053
C84	C	-0.703874	1.001958	0.500053
C85	C	-1.032096	0.567195	0.000042
C86	C	-0.532096	1.067195	0.500042
C87	C	-1.030523	0.488683	0.000039
C88	C	-0.530523	0.988683	0.500039
C89	C	-1.115632	0.416807	0.000049
C90	C	-0.615632	0.916807	0.500049
C91	C	-1.113926	0.331674	0.000040
C92	C	-0.613926	0.831674	0.500040
C93	C	-1.112559	0.263822	0.000033
C94	C	-0.612559	0.763822	0.500033
C95	C	-1.170278	-0.171988	-0.248231
C96	C	-0.670278	0.328012	0.251769
C97	C	-1.170289	-0.171994	-0.331684
C98	C	-0.670289	0.328006	0.168316
C99	C	-1.113236	-0.202253	-0.373419
C100	C	-0.613236	0.297747	0.126581
C101	C	-1.056176	-0.232515	-0.331699
C102	C	-0.556176	0.267485	0.168301
C103	C	-1.056171	-0.232514	-0.248248
C104	C	-0.556171	0.267486	0.251752
C105	C	-1.056195	-0.232519	-0.668246
C106	C	-0.556195	0.267481	-0.168246
C107	C	-1.056202	-0.232515	-0.751702
C108	C	-0.556202	0.267485	-0.251702
C109	C	-1.170313	-0.171999	-0.751681
C110	C	-0.670313	0.328001	-0.251681
C111	C	-1.170308	-0.171998	-0.668231
C112	C	-0.670308	0.328002	-0.168231
C113	C	-1.113252	-0.202265	-0.626517
C114	C	-0.613252	0.297735	-0.126517
C115	C	-1.113243	-0.202259	-0.536029
C116	C	-0.613243	0.297741	-0.036029
C117	C	-1.113239	-0.202253	-0.463906
C118	C	-0.613239	0.297747	0.036094
N119	N	-1.113265	-0.202263	0.206581
N120	N	-0.613265	0.297737	0.706581
H121	H	-0.847785	-0.250520	0.000031
H122	H	-0.347785	0.249480	0.500031
H123	H	-0.954878	0.230574	0.000022
H124	H	-0.454878	0.730574	0.500022
H125	H	-1.009736	-0.257164	-0.634293
H126	H	-0.509736	0.242836	-0.134293
Br127	Br	-1.247748	-0.130922	-0.808297
Br128	Br	-0.747748	0.369078	-0.308297
H129	H	-0.598383	-0.461996	0.000055
H130	H	-0.098383	0.038004	0.500055
H131	H	-0.734468	-0.428339	0.000049
H132	H	-0.234468	0.071661	0.500049
H133	H	-0.420016	-0.415517	0.000061
H134	H	0.079984	0.084483	0.500061
Br135	Br	-1.313594	0.115815	0.000054
Br136	Br	-0.813594	0.615815	0.500054
Br137	Br	-0.912888	0.479680	0.000024
Br138	Br	-0.412888	0.979680	0.500024
Br139	Br	-0.978766	-0.273582	-0.808344
Br140	Br	-0.478766	0.226418	-0.308344
Br141	Br	-0.856377	-0.334705	0.000053
Br142	Br	-0.356377	0.165295	0.500053
Br143	Br	-0.345818	-0.107899	0.000041
Br144	Br	0.154182	0.392101	0.500041
Br145	Br	-0.459137	0.069915	0.000022
Br146	Br	0.040863	0.569915	0.500022
H147	H	-0.806467	0.011026	0.000002
H148	H	-0.306467	0.511026	0.500002
Br149	Br	-0.595226	0.103575	0.000023
Br150	Br	-0.095226	0.603575	0.500023
Br151	Br	-0.978746	-0.273595	-0.191634
Br152	Br	-0.478746	0.226405	0.308366
H153	H	-0.962797	0.625727	0.000037
H154	H	-0.462797	1.125727	0.500037
Br155	Br	-1.247709	-0.130917	-0.191598
Br156	Br	-0.747709	0.369083	0.308402
Br157	Br	-0.904968	0.084542	-0.000005
Br158	Br	-0.404968	0.584542	0.499995
Br159	Br	-1.321513	0.510962	0.000062
Br160	Br	-0.821513	1.010962	0.500062
Br161	Br	-1.247729	-0.130928	-0.388294
Br162	Br	-0.747729	0.369072	0.111706
Br163	Br	-1.317812	0.325902	0.000058
Br164	Br	-0.817812	0.825902	0.500058
Br165	Br	-0.978749	-0.273585	-0.388339
Br166	Br	-0.478749	0.226415	0.111661
Br167	Br	-1.247724	-0.130915	-0.611593
Br168	Br	-0.747724	0.369085	-0.111593
H169	H	-0.423484	-0.083705	0.000032
H170	H	0.076516	0.416295	0.500032
H171	H	-1.263688	-0.030226	0.000038
H172	H	-0.763688	0.469774	0.500038
