data_functionalizedCrystal
_audit_creation_method	'MofGen! by Chris Wilmer'
_symmetry_space_group_name_H-M	'P1'
_symmetry_Int_Tables_number	1
_symmetry_cell_setting	triclinic
loop_
_symmetry_equiv_pos_as_xyz
  x,y,z
_cell_length_a	10.685980
_cell_length_b	16.625546
_cell_length_c	10.686551
_cell_angle_alpha	85.590142
_cell_angle_beta	81.591741
_cell_angle_gamma	94.388851
loop_
_atom_site_label
_atom_site_type_symbol
_atom_site_fract_x
_atom_site_fract_y
_atom_site_fract_z
Zn1	Zn	1.995749	-0.180728	-0.866678
Zn2	Zn	1.979295	-0.326801	-0.654394
Zn3	Zn	1.767171	-0.203170	-0.638140
Zn4	Zn	1.783418	-0.326722	-0.850304
O5	O	1.881408	-0.259355	-0.752379
O6	O	2.171202	-0.190746	-0.852173
O7	O	1.937470	-0.319826	-0.474604
O8	O	1.797579	-0.087354	-0.668506
O9	O	2.159113	-0.298065	-0.696209
O10	O	1.965514	-0.070866	-0.836412
O11	O	1.781624	-0.228995	-0.462662
O12	O	1.591691	-0.228919	-0.652629
O13	O	1.825270	-0.297931	-1.030110
O14	O	1.603628	-0.319692	-0.808505
O15	O	1.981269	-0.190670	-1.042140
O16	O	1.953225	-0.439629	-0.680332
O17	O	1.809315	-0.439572	-0.824267
C18	C	1.551600	-0.276733	-0.727027
C19	C	1.410509	-0.284185	-0.716211
C20	C	1.881284	-0.468855	-0.752317
C21	C	1.881350	-0.558472	-0.752341
C22	C	1.881582	-0.886629	-0.752491
C23	C	1.881514	-0.795326	-0.752452
C24	C	1.881465	-0.722553	-0.752415
C25	C	1.881399	-0.631244	-0.752378
C26	C	2.212504	-0.241911	-0.777831
C27	C	2.353597	-0.234477	-0.788677
C28	C	1.906917	-0.241788	-1.083471
C29	C	1.917788	-0.234302	-1.224563
C30	C	1.881570	-0.049034	-0.752472
C31	C	1.881639	0.040593	-0.752512
C32	C	1.856072	-0.276792	-0.422581
C33	C	1.845447	-0.284038	-0.281509
H34	H	1.351288	-0.332446	-0.645886
N35	N	2.005939	-0.173695	-1.298786
N36	N	2.121946	-0.173642	-1.293071
H37	H	2.184204	-0.130838	-1.345489
H38	H	1.412811	-0.186214	-0.858990
N39	N	1.757328	-0.344641	-1.207253
N40	N	1.748326	-0.350842	-1.088899
H41	H	1.686091	-0.393643	-1.036446
