data_functionalizedCrystal
_audit_creation_method	'MofGen! by Chris Wilmer'
_symmetry_space_group_name_H-M	'P1'
_symmetry_Int_Tables_number	1
_symmetry_cell_setting	triclinic
loop_
_symmetry_equiv_pos_as_xyz
  x,y,z
_cell_length_a	18.215407
_cell_length_b	21.295417
_cell_length_c	18.215399
_cell_angle_alpha	89.968895
_cell_angle_beta	89.980167
_cell_angle_gamma	90.030150
loop_
_atom_site_label
_atom_site_type_symbol
_atom_site_fract_x
_atom_site_fract_y
_atom_site_fract_z
Zn1	Zn	1.125047	-0.250608	-0.416100
Zn2	Zn	1.625047	0.249392	0.083900
Zn3	Zn	1.124945	-0.355879	-0.293027
Zn4	Zn	1.624945	0.144121	0.206973
Zn5	Zn	1.001980	-0.250629	-0.293047
Zn6	Zn	1.501980	0.249371	0.206953
Zn7	Zn	1.001935	-0.355844	-0.416052
Zn8	Zn	1.501935	0.144156	0.083948
O9	O	1.063477	-0.303240	-0.354556
O10	O	1.563477	0.196760	0.145444
O11	O	1.228018	-0.264579	-0.399785
O12	O	1.728018	0.235421	0.100215
O13	O	1.108610	-0.341941	-0.190045
O14	O	1.608610	0.158059	0.309955
O15	O	1.018366	-0.162537	-0.309399
O16	O	1.518366	0.337463	0.190601
O17	O	1.227943	-0.341921	-0.309364
O18	O	1.727943	0.158079	0.190636
O19	O	1.108783	-0.162521	-0.399805
O20	O	1.608783	0.337479	0.100195
O21	O	1.018267	-0.264614	-0.190060
O22	O	1.518267	0.235386	0.309940
O23	O	0.898990	-0.264580	-0.309352
O24	O	1.398990	0.235420	0.190648
O25	O	1.018291	-0.341861	-0.519042
O26	O	1.518291	0.158139	-0.019042
O27	O	0.898957	-0.341881	-0.399723
O28	O	1.398957	0.158119	0.100277
O29	O	1.108740	-0.264545	-0.519078
O30	O	1.608740	0.235455	-0.019078
O31	O	1.108567	-0.443964	-0.309317
O32	O	1.608567	0.056036	0.190683
O33	O	1.018192	-0.443938	-0.399703
O34	O	1.518192	0.056062	0.100297
C35	C	0.872271	-0.303229	-0.354535
C36	C	1.372271	0.196771	0.145465
C37	C	0.790472	-0.303240	-0.354544
C38	C	1.290472	0.196760	0.145456
C39	C	1.063383	-0.466792	-0.354519
C40	C	1.563383	0.033208	0.145481
C41	C	1.063410	-0.536760	-0.354528
C42	C	1.563410	-0.036760	0.145472
C43	C	0.602280	-0.343554	-0.401541
C44	C	1.102280	0.156446	0.098459
C45	C	0.525421	-0.343556	-0.401550
C46	C	1.025421	0.156444	0.098450
C47	C	0.525426	-0.262938	-0.307588
C48	C	1.025426	0.237062	0.192412
C49	C	0.602283	-0.262933	-0.307583
C50	C	1.102283	0.237067	0.192417
C51	C	0.640708	-0.303245	-0.354558
C52	C	1.140708	0.196755	0.145442
C53	C	0.486992	-0.303251	-0.354572
C54	C	0.986992	0.196749	0.145428
C55	C	0.403659	-0.303253	-0.354582
C56	C	0.903659	0.196747	0.145418
C57	C	0.724047	-0.303242	-0.354550
C58	C	1.224047	0.196758	0.145450
C59	C	1.110464	-0.569561	-0.401636
C60	C	1.610464	-0.069561	0.098364
C61	C	1.110490	-0.635304	-0.401654
C62	C	1.610490	-0.135304	0.098346
C63	C	1.063470	-0.668242	-0.354551
C64	C	1.563470	-0.168242	0.145449
C65	C	1.016408	-0.635433	-0.307439
C66	C	1.516408	-0.135433	0.192561
C67	C	1.016378	-0.569692	-0.307428
C68	C	1.516378	-0.069692	0.192572
N69	N	1.057911	-0.771505	-0.290145
N70	N	1.557911	-0.271505	0.209855
N71	N	1.057944	-0.833956	-0.290158
N72	N	1.557944	-0.333956	0.209842
C73	C	1.063556	-0.866317	-0.354584
C74	C	1.563556	-0.366317	0.145416
N75	N	1.069149	-0.833867	-0.418998
N76	N	1.569149	-0.333867	0.081002
N77	N	1.069120	-0.771410	-0.418984
N78	N	1.569120	-0.271410	0.081016
C79	C	1.063497	-0.739528	-0.354559
C80	C	1.563497	-0.239528	0.145441
C81	C	1.110640	-0.970404	-0.401716
C82	C	1.610640	-0.470404	0.098284
C83	C	1.110661	-1.036148	-0.401735
C84	C	1.610661	-0.536148	0.098265
C85	C	1.016583	-1.036275	-0.307514
C86	C	1.516583	-0.536275	0.192486
C87	C	1.016558	-0.970533	-0.307501
C88	C	1.516558	-0.470533	0.192499
C89	C	1.063591	-0.937601	-0.354601
C90	C	1.563591	-0.437601	0.145399
C91	C	1.255430	-0.303251	-0.354578
C92	C	1.755430	0.196749	0.145422
C93	C	1.337229	-0.303256	-0.354587
C94	C	1.837229	0.196744	0.145413
C95	C	1.063522	-0.303197	-0.546509
C96	C	1.563522	0.196803	-0.046509
C97	C	1.063541	-0.303178	-0.628308
C98	C	1.563541	0.196822	-0.128308
C99	C	1.063591	-0.139050	-0.354610
C100	C	1.563591	0.360950	0.145390
C101	C	1.063640	-0.069082	-0.354633
C102	C	1.563640	0.430918	0.145367
C103	C	1.110655	-0.262882	-0.816522
C104	C	1.610655	0.237118	-0.316522
C105	C	1.110664	-0.262863	-0.893381
C106	C	1.610664	0.237137	-0.393381
C107	C	1.016479	-0.343377	-0.893333
C108	C	1.516479	0.156623	-0.393333
C109	C	1.016467	-0.343392	-0.816475
C110	C	1.516467	0.156608	-0.316475
C111	C	1.063559	-0.303145	-0.778072
C112	C	1.563559	0.196855	-0.278072
C113	C	1.063580	-0.303112	-0.931788
C114	C	1.563580	0.196888	-0.431788
C115	C	1.063589	-0.303093	-1.015122
C116	C	1.563589	0.196907	-0.515122
C117	C	1.063549	-0.303164	-0.694733
C118	C	1.563549	0.196836	-0.194733
C119	C	1.063475	-0.303238	-0.163350
C120	C	1.563475	0.196762	0.336650
C121	C	1.063598	-0.303079	-0.081552
C122	C	1.563598	0.196921	0.418448
H123	H	0.494137	-0.376379	-0.439809
H124	H	0.994137	0.123621	0.060191
H125	H	0.633564	-0.376377	-0.439793
H126	H	1.133564	0.123623	0.060207
H127	H	0.494131	-0.230118	-0.269341
H128	H	0.994131	0.269882	0.230659
H129	H	0.633572	-0.230104	-0.269324
H130	H	1.133572	0.269896	0.230676
N131	N	0.965673	-0.386826	-0.775000
N132	N	1.465673	0.113174	-0.275000
H133	H	0.972810	-0.380726	-0.720484
H134	H	1.472810	0.119274	-0.220484
H135	H	0.913121	-0.377026	-0.788427
H136	H	1.413121	0.122974	-0.288427
N137	N	1.161180	-0.534045	-0.452445
N138	N	1.661180	-0.034045	0.047555
H139	H	1.154023	-0.487420	-0.445292
H140	H	1.654023	0.012580	0.054708
H141	H	1.213752	-0.545501	-0.441042
H142	H	1.713752	-0.045501	0.058958
H143	H	1.149013	-0.230076	-0.924683
H144	H	1.649013	0.269924	-0.424683
H145	H	0.978061	-0.542984	-0.269066
H146	H	1.478061	-0.042984	0.230934
H147	H	0.978140	-0.376146	-0.924610
H148	H	1.478140	0.123854	-0.424610
N149	N	1.161405	-1.071543	-0.452544
N150	N	1.661405	-0.571543	0.047456
H151	H	1.131480	-1.098818	-0.486622
H152	H	1.631480	-0.598818	0.013378
H153	H	1.191190	-1.040674	-0.482336
H154	H	1.691190	-0.540674	0.017664
H155	H	1.148800	-0.662016	-0.440024
H156	H	1.648800	-0.162016	0.059976
H157	H	0.978294	-1.063093	-0.269166
H158	H	1.478294	-0.563093	0.230834
H159	H	0.978122	-0.662255	-0.269089
H160	H	1.478122	-0.162255	0.230911
H161	H	1.148935	-0.943590	-0.440070
H162	H	1.648935	-0.443590	0.059930
H163	H	0.978246	-0.943824	-0.269138
H164	H	1.478246	-0.443824	0.230862
H165	H	1.148999	-0.230109	-0.785256
H166	H	1.648999	0.269891	-0.285256
