data_functionalizedCrystal
_audit_creation_method	'MofGen! by Chris Wilmer'
_symmetry_space_group_name_H-M	'P1'
_symmetry_Int_Tables_number	1
_symmetry_cell_setting	triclinic
loop_
_symmetry_equiv_pos_as_xyz
  x,y,z
_cell_length_a	10.654562
_cell_length_b	9.730223
_cell_length_c	10.723024
_cell_angle_alpha	89.999810
_cell_angle_beta	95.521013
_cell_angle_gamma	90.003039
loop_
_atom_site_label
_atom_site_type_symbol
_atom_site_fract_x
_atom_site_fract_y
_atom_site_fract_z
O1	O	1.667798	0.114377	-0.175345
O2	O	1.302319	0.114359	-0.192027
O3	O	1.493489	0.114363	-0.002112
O4	O	1.476629	0.114373	-0.365261
O5	O	1.493487	-0.114217	-0.002116
O6	O	1.302317	-0.114221	-0.192032
O7	O	1.667796	-0.114203	-0.175350
Zn8	Zn	1.485056	-0.150504	-0.183692
Zn9	Zn	1.485059	0.150660	-0.183685
O10	O	1.476626	-0.114207	-0.365265
C11	C	1.255521	0.000067	-0.190802
C12	C	1.116079	0.000060	-0.187127
N13	N	1.485063	-0.356040	-0.183695
C14	C	1.050547	-0.124528	-0.185415
C15	C	0.919525	-0.124505	-0.181973
C16	C	0.919578	0.124705	-0.181958
C17	C	1.050598	0.124681	-0.185392
C18	C	1.116028	-0.249149	-0.187150
C19	C	1.050496	-0.373747	-0.185440
C20	C	0.919474	-0.373724	-0.181998
C21	C	0.853984	-0.249103	-0.180265
C22	C	1.569735	-0.427965	-0.099629
C23	C	1.569732	-0.571848	-0.099614
C24	C	1.400381	-0.571869	-0.267742
C25	C	1.400379	-0.427989	-0.267750
C26	C	1.654420	-0.356016	-0.015575
C27	C	1.739100	-0.427940	0.068497
C28	C	1.739096	-0.571823	0.068513
C29	C	1.654413	-0.643782	-0.015544
C30	C	1.714595	0.000092	-0.176575
C31	C	1.854037	0.000107	-0.180250
N32	N	1.485062	0.356196	-0.183672
C33	C	1.492261	0.000075	0.044386
C34	C	1.488590	0.000079	0.182941
C35	C	1.477854	0.000084	-0.411763
C36	C	1.481525	0.000088	-0.550318
C37	C	1.595559	0.000086	0.257903
C38	C	1.591767	0.000091	0.401107
H39	H	1.222712	-0.249181	-0.189958
H40	H	1.683340	0.000091	0.465522
H41	H	1.331430	-0.369428	-0.336203
H42	H	0.747298	-0.249094	-0.177458
C43	C	1.359449	0.000366	0.363749
C44	C	1.354836	0.117979	0.288221
C45	C	1.242392	0.118291	0.209047
H46	H	1.355985	-0.079254	0.312275
H47	H	1.289758	0.000440	0.412758
H48	H	1.424508	0.117892	0.239216
H49	H	1.358278	0.197618	0.339662
H50	H	1.172701	0.118366	0.258056
H51	H	1.238938	0.038666	0.157581
H52	H	1.239242	0.198096	0.157800
H53	H	1.808039	-0.369344	0.136941
C54	C	1.721456	0.000380	0.202194
C55	C	1.789594	0.118002	0.242124
C56	C	1.905571	0.118332	0.190820
H57	H	1.768034	-0.079234	0.229137
H58	H	1.707326	0.000453	0.113353
H59	H	1.803728	0.117916	0.330947
H60	H	1.743054	0.197635	0.215182
H61	H	1.891441	0.118405	0.101978
H62	H	1.952137	0.038713	0.217767
H63	H	1.951812	0.198143	0.217895
C64	C	1.121849	0.259908	-0.187001
C65	C	1.210236	0.267186	-0.081783
C66	C	1.275882	0.391748	-0.083209
H67	H	1.164135	0.265215	-0.260900
H68	H	1.064131	0.334168	-0.185419
H69	H	1.267945	0.192947	-0.083376
H70	H	1.167983	0.261903	-0.007867
H71	H	1.218164	0.466008	-0.081627
H72	H	1.318160	0.397044	-0.157113
H73	H	1.335851	0.396708	-0.011816
H74	H	1.103827	-0.475209	-0.186842
H75	H	0.866123	-0.475178	-0.180595
H76	H	0.866245	0.226166	-0.180550
H77	H	1.654433	-0.238859	-0.015582
H78	H	1.808037	-0.630383	0.136975
H79	H	1.654409	-0.760941	-0.015516
H80	H	1.331436	-0.630467	-0.336179
H81	H	1.394203	0.000084	0.224781
