data_functionalizedCrystal
_audit_creation_method	'MofGen! by Chris Wilmer'
_symmetry_space_group_name_H-M	'P1'
_symmetry_Int_Tables_number	1
_symmetry_cell_setting	triclinic
loop_
_symmetry_equiv_pos_as_xyz
  x,y,z
_cell_length_a	16.974885
_cell_length_b	19.188930
_cell_length_c	15.455313
_cell_angle_alpha	92.650876
_cell_angle_beta	90.969048
_cell_angle_gamma	83.269424
loop_
_atom_site_label
_atom_site_type_symbol
_atom_site_fract_x
_atom_site_fract_y
_atom_site_fract_z
O1	O	1.048759	0.089022	0.001411
O2	O	0.819292	0.099680	-0.014685
O3	O	0.940646	-0.007272	-0.006156
O4	O	0.927404	0.195975	-0.007119
O5	O	0.933707	-0.001182	0.137618
O6	O	0.812352	0.105771	0.129089
O7	O	1.041819	0.095113	0.145185
Cu8	Cu	0.926452	0.100998	0.150265
Cu9	Cu	0.934659	0.093795	-0.019765
O10	O	0.920465	0.202066	0.136656
C11	C	0.786464	0.102208	0.055143
C12	C	0.698989	0.100657	0.049008
C13	C	0.207007	0.091545	0.006001
C14	C	0.289199	0.093003	0.011778
C15	C	0.326504	0.097057	0.093038
C16	C	0.281613	0.099646	0.168527
C17	C	0.199423	0.098183	0.162750
C18	C	0.571908	0.101784	0.118720
C19	C	0.654104	0.103249	0.124491
C20	C	0.661685	0.096603	-0.032259
C21	C	0.579493	0.095145	-0.038029
C22	C	0.534609	0.097731	0.037460
N23	N	0.410517	0.098549	0.098944
N24	N	0.450599	0.096233	0.031553
C25	C	0.936747	-0.030240	0.065704
C26	C	0.935460	-0.107750	0.065621
C27	C	1.006667	-0.152340	0.070620
C28	C	1.005458	-0.225170	0.070521
C29	C	0.933037	-0.253406	0.065441
C30	C	0.861821	-0.208807	0.060436
C31	C	0.863032	-0.135979	0.060526
N32	N	0.875318	-0.359598	0.110487
N33	N	0.874172	-0.428782	0.110403
C34	C	0.929383	-0.472833	0.065167
N35	N	0.985795	-0.445087	0.020028
N36	N	0.986943	-0.375896	0.020116
C37	C	0.931716	-0.332375	0.065342
C38	C	0.999285	-0.596394	0.070058
C39	C	0.998073	-0.669225	0.069953
C40	C	0.854433	-0.652860	0.059877
C41	C	0.855647	-0.580031	0.059973
C42	C	0.928075	-0.551802	0.065067
C43	C	1.074646	0.092585	0.075355
C44	C	1.162122	0.094136	0.081484
C45	C	0.924363	0.225034	0.064794
C46	C	0.925651	0.302544	0.064871
N47	N	0.920686	0.106064	0.269855
N48	N	0.940432	0.088724	-0.139355
C49	C	0.972259	0.060644	0.318874
C50	C	0.967905	0.064481	0.409376
C51	C	0.911981	0.113743	0.450857
C52	C	0.860402	0.159166	0.401832
C53	C	0.864753	0.155324	0.311331
C54	C	0.893203	0.130305	0.721119
C55	C	0.888858	0.134145	0.811626
C56	C	0.996361	0.039459	0.819164
C57	C	1.000709	0.035625	0.728662
C58	C	0.949128	0.081045	0.679644
N59	N	0.907531	0.117668	0.543365
N60	N	0.953574	0.077115	0.587138
H61	H	0.311993	0.102943	0.234691
Cl62	Cl	0.701000	0.108345	0.226655
Cl63	Cl	0.515492	0.105053	0.213621
H64	H	1.017802	0.020532	0.285106
Cl65	Cl	0.345624	0.089741	-0.083121
Cl66	Cl	0.799911	0.212425	0.249708
Cl67	Cl	0.828362	0.187406	0.659503
H68	H	0.814864	0.199274	0.435611
Cl69	Cl	0.142997	0.101435	0.257647
Cl70	Cl	0.718115	0.093347	-0.127153
Cl71	Cl	0.532602	0.090049	-0.140189
Cl72	Cl	1.097720	-0.116857	0.077000
H73	H	0.797662	-0.543724	0.055907
H74	H	1.009900	0.027496	0.449287
H75	H	1.063446	-0.261482	0.074589
H76	H	0.802855	-0.231802	0.056298
Cl77	Cl	0.773507	-0.079920	0.054242
Cl78	Cl	1.071015	-0.026304	0.676514
H79	H	1.058260	-0.573409	0.074202
Cl80	Cl	1.087600	-0.725283	0.076233
Cl81	Cl	0.160118	0.086453	-0.096160
Cl82	Cl	1.061199	-0.017640	0.880790
H83	H	0.795467	-0.675849	0.055736
Cl84	Cl	0.818548	0.196081	0.863768
