data_functionalizedCrystal
_audit_creation_method	'MofGen! by Chris Wilmer'
_symmetry_space_group_name_H-M	'P1'
_symmetry_Int_Tables_number	1
_symmetry_cell_setting	triclinic
loop_
_symmetry_equiv_pos_as_xyz
  x,y,z
_cell_length_a	16.625547
_cell_length_b	29.839131
_cell_length_c	16.625539
_cell_angle_alpha	89.962116
_cell_angle_beta	89.978691
_cell_angle_gamma	90.035164
loop_
_atom_site_label
_atom_site_type_symbol
_atom_site_fract_x
_atom_site_fract_y
_atom_site_fract_z
Zn1	Zn	1.232581	-0.178862	-0.455937
Zn2	Zn	1.732581	0.321138	0.044063
Zn3	Zn	1.232462	-0.253990	-0.321077
Zn4	Zn	1.732462	0.246010	0.178923
Zn5	Zn	1.097751	-0.178875	-0.321107
Zn6	Zn	1.597751	0.321125	0.178893
Zn7	Zn	1.097683	-0.253965	-0.455857
Zn8	Zn	1.597683	0.246035	0.044143
O9	O	1.165119	-0.216423	-0.388494
O10	O	1.665119	0.283577	0.111506
O11	O	1.345398	-0.188832	-0.438068
O12	O	1.845398	0.311168	0.061932
O13	O	1.214572	-0.244042	-0.208249
O14	O	1.714572	0.255958	0.291751
O15	O	1.115715	-0.116006	-0.339039
O16	O	1.615715	0.383994	0.160961
O17	O	1.345311	-0.244029	-0.338987
O18	O	1.845311	0.255971	0.161013
O19	O	1.214774	-0.115996	-0.438097
O20	O	1.714774	0.384004	0.061903
O21	O	1.115600	-0.188855	-0.208271
O22	O	1.615600	0.311145	0.291729
O23	O	0.984910	-0.188831	-0.338961
O24	O	1.484910	0.311169	0.161039
O25	O	1.115599	-0.243987	-0.568700
O26	O	1.615599	0.256013	-0.068700
O27	O	0.984860	-0.243999	-0.437961
O28	O	1.484860	0.256001	0.062039
O29	O	1.214708	-0.188808	-0.568759
O30	O	1.714708	0.311192	-0.068759
O31	O	1.214506	-0.316854	-0.338910
O32	O	1.714506	0.183146	0.161090
O33	O	1.115484	-0.316836	-0.437932
O34	O	1.615484	0.183164	0.062068
C35	C	0.955629	-0.216414	-0.388456
C36	C	1.455629	0.283586	0.111544
C37	C	0.866007	-0.216421	-0.388459
C38	C	1.366007	0.283579	0.111541
C39	C	0.793225	-0.216422	-0.388469
C40	C	1.293225	0.283578	0.111531
C41	C	0.701917	-0.216424	-0.388489
C42	C	1.201917	0.283576	0.111511
C43	C	0.629140	-0.216429	-0.388510
C44	C	1.129140	0.283571	0.111490
C45	C	0.537826	-0.216432	-0.388529
C46	C	1.037826	0.283568	0.111471
C47	C	1.164996	-0.333145	-0.388426
C48	C	1.664996	0.166855	0.111574
C49	C	1.165018	-0.383080	-0.388424
C50	C	1.665018	0.116920	0.111576
C51	C	1.216688	-0.692683	-0.440148
C52	C	1.716688	-0.192683	0.059852
C53	C	1.216776	-0.880356	-0.440196
C54	C	1.716776	-0.380356	0.059804
O55	O	1.260587	-0.904587	-0.484123
O56	O	1.760587	-0.404587	0.015877
N57	N	1.165256	-0.903865	-0.388584
N58	N	1.665256	-0.403865	0.111416
C59	C	1.113708	-0.880452	-0.336960
C60	C	1.613708	-0.380452	0.163040
O61	O	1.069884	-0.904754	-0.293067
O62	O	1.569884	-0.404754	0.206933
C63	C	1.113617	-0.692780	-0.336916
C64	C	1.613617	-0.192780	0.163084
C65	C	1.165145	-0.669274	-0.388526
C66	C	1.665145	-0.169274	0.111474
C67	C	1.268212	-0.669177	-0.491754
C68	C	1.768212	-0.169177	0.008246
C69	C	1.268193	-0.622262	-0.491738
C70	C	1.768193	-0.122262	0.008262
C71	C	1.216650	-0.598852	-0.440116
C72	C	1.716650	-0.098852	0.059884
C73	C	1.165126	-0.622359	-0.388510
C74	C	1.665126	-0.122359	0.111490
C75	C	1.062065	-0.669368	-0.285296
C76	C	1.562065	-0.169368	0.214704
C77	C	1.062045	-0.622447	-0.285291
C78	C	1.562045	-0.122447	0.214709
C79	C	1.113574	-0.598941	-0.336901
C80	C	1.613574	-0.098941	0.163099
C81	C	1.113564	-0.552034	-0.336872
C82	C	1.613564	-0.052034	0.163128
N83	N	1.165083	-0.528525	-0.388484
N84	N	1.665083	-0.028525	0.111516
C85	C	1.216626	-0.551935	-0.440107
C86	C	1.716626	-0.051935	0.059893
C87	C	1.113760	-0.978983	-0.336985
C88	C	1.613760	-0.478983	0.163015
C89	C	1.113784	-1.025901	-0.336995
C90	C	1.613784	-0.525901	0.163005
C91	C	1.216851	-1.025802	-0.440233
C92	C	1.716851	-0.525802	0.059767
C93	C	1.216831	-0.978883	-0.440218
C94	C	1.716831	-0.478883	0.059782
C95	C	1.165280	-0.955474	-0.388597
C96	C	1.665280	-0.455474	0.111403
C97	C	1.216582	-0.453409	-0.440069
C98	C	1.716582	0.046591	0.059931
C99	C	1.216561	-0.406489	-0.440046
C100	C	1.716561	0.093511	0.059954
C101	C	1.113491	-0.406592	-0.336812
C102	C	1.613491	0.093408	0.163188
C103	C	1.113515	-0.453508	-0.336831
C104	C	1.613515	0.046492	0.163169
C105	C	1.165063	-0.476915	-0.388466
C106	C	1.665063	0.023085	0.111534
O107	O	1.069769	-0.527774	-0.292975
O108	O	1.569769	-0.027774	0.207025
O109	O	1.260431	-0.527625	-0.484005
O110	O	1.760431	-0.027625	0.015995
C111	C	1.216708	-0.739599	-0.440163
C112	C	1.716708	-0.239599	0.059837
C113	C	1.165184	-0.763105	-0.388557
C114	C	1.665184	-0.263105	0.111443
C115	C	1.113641	-0.739696	-0.336935
C116	C	1.613641	-0.239696	0.163065
C117	C	1.165207	-0.810023	-0.388567
C118	C	1.665207	-0.310023	0.111433
C119	C	1.216750	-0.833432	-0.440189
C120	C	1.716750	-0.333432	0.059811
C121	C	1.268270	-0.809923	-0.491801
C122	C	1.768270	-0.309923	0.008199
C123	C	1.268250	-0.763008	-0.491786
C124	C	1.768250	-0.263008	0.008214
C125	C	1.062122	-0.763204	-0.285323
C126	C	1.562122	-0.263204	0.214677
C127	C	1.062146	-0.810120	-0.285342
C128	C	1.562146	-0.310120	0.214658
C129	C	1.113689	-0.833529	-0.336964
C130	C	1.613689	-0.333529	0.163036
C131	C	1.375428	-0.216432	-0.388533
C132	C	1.875428	0.283568	0.111467
C133	C	1.465049	-0.216436	-0.388550
C134	C	1.965049	0.283564	0.111450
C135	C	1.165159	-0.216393	-0.598803
C136	C	1.665159	0.283607	-0.098803
C137	C	1.165176	-0.216381	-0.688425
C138	C	1.665176	0.283619	-0.188425
C139	C	1.165265	-0.099244	-0.388580
C140	C	1.665265	0.400756	0.111420
C141	C	1.165327	-0.049310	-0.388617
C142	C	1.665327	0.450690	0.111383
C143	C	1.165189	-0.216371	-0.761207
C144	C	1.665189	0.283629	-0.261207
C145	C	1.165208	-0.216354	-0.852516
C146	C	1.665208	0.283646	-0.352516
C147	C	1.165227	-0.216338	-0.925292
C148	C	1.665227	0.283662	-0.425292
C149	C	1.165247	-0.216322	-1.016606
C150	C	1.665247	0.283678	-0.516606
C151	C	1.165126	-0.216420	-0.179004
C152	C	1.665126	0.283580	0.320996
C153	C	1.165266	-0.216306	-0.089383
C154	C	1.665266	0.283694	0.410617
H155	H	1.258524	-0.387352	-0.482073
H156	H	1.758524	0.112648	0.017927
Br157	Br	0.992157	-0.731442	-0.215263
Br158	Br	1.492157	-0.231442	0.284737
H159	H	1.258552	-0.472461	-0.482121
H160	H	1.758552	0.027539	0.017879
Br161	Br	1.043863	-1.057796	-0.266936
Br162	Br	1.543863	-0.557796	0.233064
H163	H	1.071780	-0.959927	-0.294947
H164	H	1.571780	-0.459927	0.205053
Br165	Br	1.338122	-0.590368	-0.561790
Br166	Br	1.838122	-0.090368	-0.061790
Br167	Br	1.286803	-1.057580	-0.510290
Br168	Br	1.786803	-0.557580	-0.010290
H169	H	1.310184	-0.688232	-0.533796
H170	H	1.810184	-0.188232	-0.033796
H171	H	1.020105	-0.688499	-0.243269
H172	H	1.520105	-0.188499	0.256731
H173	H	1.258789	-0.959747	-0.482244
H174	H	1.758789	-0.459747	0.017756
Br175	Br	0.992077	-0.590682	-0.215231
Br176	Br	1.492077	-0.090682	0.284769
Br177	Br	1.043596	-0.485410	-0.266776
Br178	Br	1.543596	0.014590	0.233224
H179	H	1.071527	-0.387525	-0.294779
H180	H	1.571527	0.112475	0.205221
Br181	Br	1.338186	-0.731114	-0.561831
Br182	Br	1.838186	-0.231114	-0.061831
H183	H	1.310241	-0.828991	-0.533831
H184	H	1.810241	-0.328991	-0.033831
Br185	Br	0.992212	-0.842015	-0.215288
Br186	Br	1.492212	-0.342015	0.284712
