data_functionalizedCrystal
_audit_creation_method	'MofGen! by Chris Wilmer'
_symmetry_space_group_name_H-M	'P1'
_symmetry_Int_Tables_number	1
_symmetry_cell_setting	triclinic
loop_
_symmetry_equiv_pos_as_xyz
  x,y,z
_cell_length_a	15.298709
_cell_length_b	16.959453
_cell_length_c	15.296720
_cell_angle_alpha	99.644028
_cell_angle_beta	107.326335
_cell_angle_gamma	99.714810
loop_
_atom_site_label
_atom_site_type_symbol
_atom_site_fract_x
_atom_site_fract_y
_atom_site_fract_z
Zn1	Zn	1.330625	-0.155117	-0.280178
Zn2	Zn	1.357450	-0.259661	-0.124692
Zn3	Zn	1.202041	-0.155170	-0.151558
Zn4	Zn	1.175097	-0.314939	-0.306997
O5	O	1.266303	-0.221222	-0.215856
O6	O	1.464312	-0.145829	-0.237085
O7	O	1.359337	-0.222688	0.001868
O8	O	1.219148	-0.044547	-0.168639
O9	O	1.484020	-0.222637	-0.122850
O10	O	1.313619	-0.044509	-0.263136
O11	O	1.245159	-0.145919	-0.017871
O12	O	1.068339	-0.199519	-0.194645
O13	O	1.173225	-0.316850	-0.433563
O14	O	1.048543	-0.316901	-0.308845
O15	O	1.287491	-0.199430	-0.413859
O16	O	1.333210	-0.377609	-0.148855
O17	O	1.199236	-0.418222	-0.282794
C18	C	1.024700	-0.264215	-0.257571
C19	C	0.921337	-0.282631	-0.275439
C20	C	0.862515	-0.352456	-0.343196
C21	C	0.765399	-0.369756	-0.359992
C22	C	0.727096	-0.317236	-0.309029
C23	C	0.785920	-0.247412	-0.241266
C24	C	0.883044	-0.230107	-0.224473
C25	C	0.747626	-0.194887	-0.190306
C26	C	0.806449	-0.125063	-0.122543
C27	C	0.903564	-0.107762	-0.105753
C28	C	0.941867	-0.160282	-0.156716
C29	C	0.650501	-0.212192	-0.207099
C30	C	0.671031	-0.089843	-0.088377
C31	C	0.768147	-0.072543	-0.071580
C32	C	1.266232	-0.426596	-0.215836
C33	C	1.266281	-0.514446	-0.215843
C34	C	1.315550	-0.885848	-0.265160
C35	C	1.217292	-0.885971	-0.166646
C36	C	1.217261	-0.803427	-0.166631
C37	C	1.266374	-0.762090	-0.215882
C38	C	1.315519	-0.803297	-0.265148
C39	C	1.168110	-0.762216	-0.117373
C40	C	1.168076	-0.679668	-0.117356
C41	C	1.217196	-0.638328	-0.166602
C42	C	1.266343	-0.679540	-0.215870
C43	C	1.315457	-0.638203	-0.265121
C44	C	1.364610	-0.679412	-0.314384
C45	C	1.364639	-0.761958	-0.314394
C46	C	1.217167	-0.555783	-0.166592
C47	C	1.315425	-0.555653	-0.265110
C48	C	1.508850	-0.178061	-0.173979
C49	C	1.612209	-0.159669	-0.156133
C50	C	1.224361	-0.264300	-0.458394
C51	C	1.206487	-0.282658	-0.561749
C52	C	1.266397	-0.015045	-0.215893
C53	C	1.266437	0.072816	-0.215909
C54	C	1.394082	-0.089872	-0.812054
C55	C	1.410881	-0.072625	-0.714946
C56	C	1.359784	-0.125131	-0.676642
C57	C	1.291885	-0.194889	-0.735456
C58	C	1.275090	-0.212142	-0.832573
C59	C	1.240792	-0.247401	-0.697160
C60	C	1.172893	-0.317158	-0.755974
C61	C	1.156100	-0.334408	-0.853082
C62	C	1.207197	-0.281901	-0.891386
C63	C	1.257587	-0.230148	-0.600043
C64	C	1.138595	-0.352417	-0.620562
C65	C	1.121796	-0.369665	-0.717670
C66	C	1.308136	-0.178244	0.025747
C67	C	1.326190	-0.159632	0.129133
H68	H	0.639846	-0.047076	-0.046880
C69	C	1.368589	-0.510711	-0.318665
C70	C	1.305573	-0.483279	-0.387302
C71	C	1.354514	-0.441866	-0.436646
H72	H	1.397871	-0.546998	-0.348088
H73	H	1.415247	-0.464927	-0.276151
H74	H	1.258932	-0.529057	-0.429809
H75	H	1.276288	-0.446982	-0.357904
H76	H	1.401172	-0.396082	-0.394132
H77	H	1.383794	-0.478158	-0.466063
H78	H	1.311766	-0.423242	-0.483216
H79	H	1.404594	-0.645748	-0.354490
C80	C	1.188791	-0.300749	-0.996851
C81	C	1.118384	-0.373069	-1.040164
C82	C	1.101397	-0.390449	-1.137319
H83	H	1.244919	-0.307700	-1.008582
H84	H	1.168882	-0.256529	-1.021646
H85	H	1.138297	-0.417278	-1.015377
H86	H	1.062242	-0.366137	-1.028460
H87	H	1.081488	-0.346230	-1.162114
H88	H	1.157530	-0.397397	-1.149041
H89	H	1.053619	-0.439516	-1.166720
C90	C	0.621638	-0.336180	-0.327366
C91	C	0.578323	-0.408580	-0.397601
C92	C	0.481174	-0.426066	-0.414510
H93	H	0.596765	-0.292052	-0.347400
H94	H	0.609992	-0.343074	-0.271156
H95	H	0.589962	-0.401681	-0.453799
H96	H	0.603168	-0.452723	-0.377586
H97	H	0.469528	-0.432960	-0.358300
H98	H	0.456310	-0.381934	-0.434541
H99	H	0.451774	-0.475194	-0.462159
C100	C	0.967556	-0.032047	-0.032113
C101	C	1.033626	-0.056188	0.037206
C102	C	1.092595	0.013538	0.105051
H103	H	0.930959	-0.003194	-0.004059
H104	H	0.999354	0.002770	-0.061168
H105	H	1.001831	-0.090991	0.066258
H106	H	1.070244	-0.085031	0.009180
H107	H	1.124392	0.048355	0.075995
H108	H	1.055990	0.042386	0.133097
H109	H	1.137435	-0.002831	0.152086
C110	C	1.484597	0.003172	-0.651256
C111	C	1.525733	0.045475	-0.705586
C112	C	1.593637	0.115313	-0.646948
H113	H	1.531734	-0.013024	-0.606355
H114	H	1.455610	0.038057	-0.619537
H115	H	1.554719	0.010597	-0.737289
H116	H	1.478620	0.061692	-0.750485
H117	H	1.564651	0.150198	-0.615229
H118	H	1.640768	0.099109	-0.602048
H119	H	1.621550	0.144029	-0.683802
C120	C	0.904286	-0.409392	-0.398392
C121	C	1.001930	-0.379300	-0.369166
C122	C	1.040442	-0.431738	-0.419988
H123	H	0.877686	-0.411880	-0.463661
H124	H	0.890785	-0.462891	-0.387407
H125	H	1.015423	-0.325816	-0.380158
H126	H	1.028555	-0.376815	-0.303904
H127	H	1.026942	-0.485236	-0.409002
H128	H	1.013835	-0.434222	-0.485254
H129	H	1.106698	-0.411332	-0.400159
C130	C	1.114892	-0.807223	-0.063914
C131	C	1.125470	-0.888324	-0.074441
C132	C	1.076472	-0.929808	-0.025191
H133	H	1.050021	-0.807360	-0.088202
H134	H	1.139366	-0.780218	0.000933
H135	H	1.100992	-0.915323	-0.139275
H136	H	1.190329	-0.888212	-0.050149
H137	H	1.100946	-0.902802	0.039656
H138	H	1.011605	-0.929938	-0.049483
H139	H	1.083650	-0.984837	-0.032320
C140	C	0.701700	-0.445630	-0.433553
C141	C	0.756031	-0.487936	-0.474569
C142	C	0.697385	-0.557847	-0.542327
H143	H	0.656793	-0.429513	-0.480767
H144	H	0.669982	-0.480482	-0.404472
H145	H	0.787734	-0.453090	-0.503650
H146	H	0.800936	-0.504073	-0.427379
H147	H	0.665666	-0.592700	-0.513246
H148	H	0.652480	-0.541723	-0.589534
H149	H	0.734240	-0.586564	-0.570158
C150	C	1.417898	-0.806856	-0.367865
C151	C	1.407387	-0.888000	-0.357357
C152	C	1.456422	-0.929391	-0.406614
H153	H	1.482757	-0.779867	-0.343572
H154	H	1.393416	-0.806890	-0.432710
H155	H	1.431873	-0.887961	-0.292526
H156	H	1.342538	-0.915011	-0.381656
H157	H	1.431939	-0.929426	-0.471458
H158	H	1.521278	-0.902396	-0.382316
H159	H	1.449289	-0.984454	-0.399498
C160	C	1.083219	-0.409550	-0.579014
C161	C	1.099367	-0.488347	-0.599100
C162	C	1.048389	-0.540994	-0.560823
H163	H	1.017965	-0.412032	-0.605684
H164	H	1.102954	-0.389334	-0.512746
H165	H	1.079627	-0.508559	-0.665356
H166	H	1.164611	-0.485892	-0.572430
H167	H	1.068124	-0.520777	-0.494554
H168	H	0.983138	-0.543468	-0.587496
H169	H	1.059345	-0.594461	-0.574438
C170	C	0.832148	0.003168	0.002059
C171	C	0.898214	-0.020980	0.071372
C172	C	0.957196	0.048742	0.139216
H173	H	0.795559	0.032027	0.030118
H174	H	0.863947	0.037981	-0.026999
H175	H	0.866418	-0.055779	0.100427
H176	H	0.934825	-0.049830	0.043342
H177	H	0.988995	0.083555	0.110158
H178	H	0.920599	0.077596	0.167268
H179	H	1.002034	0.032367	0.186248
H180	H	1.355573	-0.919403	-0.305265
H181	H	1.312870	-0.173350	-0.552166
H182	H	1.177301	-0.919633	-0.126552
C183	C	1.114704	-0.635059	-0.063769
C184	C	1.071719	-0.688923	-0.020621
C185	C	1.022560	-0.647853	0.028765
H186	H	1.067936	-0.616387	-0.106207
H187	H	1.157291	-0.589336	-0.017082
H188	H	1.029136	-0.734630	-0.067302
H189	H	1.118466	-0.707597	0.021832
H190	H	1.065147	-0.602130	0.075452
H191	H	0.975797	-0.629183	-0.013679
H192	H	0.993396	-0.684391	0.058054
H193	H	1.177142	-0.522236	-0.126488
C194	C	1.378152	-0.106537	-0.571187
C195	C	1.407426	-0.171863	-0.534962
C196	C	1.424386	-0.154754	-0.437812
H197	H	1.322020	-0.099656	-0.559421
H198	H	1.425950	-0.057502	-0.541620
H199	H	1.359632	-0.220884	-0.564519
H200	H	1.463563	-0.178754	-0.546701
H201	H	1.472184	-0.105718	-0.408245
H202	H	1.368251	-0.147872	-0.426056
H203	H	1.444258	-0.199070	-0.413219
C204	C	1.449427	-0.032953	-0.853826
C205	C	1.420172	-0.062987	-0.951461
C206	C	1.471133	-0.010566	-0.989974
H207	H	1.514671	-0.030544	-0.827226
H208	H	1.438582	0.020572	-0.840333
H209	H	1.431026	-0.116498	-0.964947
H210	H	1.354936	-0.065393	-0.978087
H211	H	1.460287	0.042959	-0.976481
H212	H	1.536375	-0.008160	-0.963367
H213	H	1.451285	-0.030932	-1.056224
H214	H	1.100820	-0.391214	-0.900965
H215	H	1.020946	-0.146202	-0.143040
C216	C	1.047939	-0.445325	-0.781508
C217	C	0.960020	-0.440279	-0.773797
C218	C	0.891959	-0.509956	-0.832599
H219	H	1.064143	-0.493246	-0.763297
H220	H	1.045193	-0.448082	-0.844847
H221	H	0.962767	-0.437531	-0.710471
H222	H	0.943786	-0.392373	-0.792015
H223	H	0.889214	-0.512713	-0.895938
H224	H	0.908173	-0.557872	-0.814382
H225	H	0.832297	-0.506539	-0.827381
H226	H	0.602616	-0.269043	-0.262274
