data_functionalizedCrystal
_audit_creation_method	'MofGen! by Chris Wilmer'
_symmetry_space_group_name_H-M	'P1'
_symmetry_Int_Tables_number	1
_symmetry_cell_setting	triclinic
loop_
_symmetry_equiv_pos_as_xyz
  x,y,z
_cell_length_a	12.759401
_cell_length_b	18.050589
_cell_length_c	12.759401
_cell_angle_alpha	90.009545
_cell_angle_beta	90.002178
_cell_angle_gamma	90.028382
loop_
_atom_site_label
_atom_site_type_symbol
_atom_site_fract_x
_atom_site_fract_y
_atom_site_fract_z
Zn1	Zn	1.605987	-0.295767	0.593988
Zn2	Zn	1.605890	-0.419931	0.418311
Zn3	Zn	1.430339	-0.295760	0.418327
Zn4	Zn	1.430237	-0.419920	0.593952
O5	O	1.518113	-0.357845	0.506145
O6	O	1.752996	-0.312245	0.570692
O7	O	1.582606	-0.403462	0.271292
O8	O	1.453723	-0.191836	0.441651
O9	O	1.752924	-0.403468	0.441623
O10	O	1.582771	-0.191841	0.570708
O11	O	1.453629	-0.312234	0.271304
O12	O	1.283305	-0.312223	0.441616
O13	O	1.453548	-0.403449	0.740978
O14	O	1.283229	-0.403442	0.570647
O15	O	1.582671	-0.312234	0.741004
O16	O	1.582506	-0.523855	0.441588
O17	O	1.453454	-0.523846	0.570631
C18	C	1.245146	-0.357831	0.506130
C19	C	1.128369	-0.357843	0.506149
C20	C	1.073496	-0.405417	0.573224
C21	C	0.963772	-0.405427	0.573236
C22	C	0.963805	-0.310286	0.439088
C23	C	1.073527	-0.310273	0.439082
C24	C	1.073475	-0.460348	0.650671
C25	C	0.963751	-0.460358	0.650682
C26	C	1.517987	-0.550797	0.506127
C27	C	1.518028	-0.633343	0.506155
C28	C	1.447919	-0.832816	0.576304
C29	C	1.422332	-0.882239	0.480436
C30	C	1.518132	-0.784473	0.506168
C31	C	1.543770	-0.882131	0.602048
C32	C	1.518229	-0.930458	0.506190
C33	C	1.492494	-0.832809	0.410249
C34	C	1.613977	-0.832697	0.531926
C35	C	1.588427	-0.882098	0.435992
C36	C	1.518073	-0.700375	0.506157
C37	C	1.518289	-1.014554	0.506190
C38	C	1.792147	-0.357859	0.506159
C39	C	1.908923	-0.357865	0.506166
C40	C	1.518109	-0.357841	0.780178
C41	C	1.518107	-0.357839	0.896954
C42	C	1.518269	-0.164139	0.506185
C43	C	1.518336	-0.081593	0.506202
C44	C	1.585335	-0.310354	0.951832
C45	C	1.585329	-0.310355	1.061556
C46	C	1.450863	-0.405335	1.061516
C47	C	1.450865	-0.405329	0.951794
C48	C	1.662971	-0.255520	0.951856
C49	C	1.662965	-0.255522	1.061580
C50	C	1.518107	-0.357860	1.233177
C51	C	1.518099	-0.357847	1.116401
H52	H	1.107480	-0.514948	0.621387
H53	H	1.565416	-0.903795	0.683123
H54	H	1.396118	-0.443994	0.907117
H55	H	1.396115	-0.443998	1.106179
O56	O	1.667140	-0.910585	0.357360
H57	H	1.626382	-0.945246	0.298158
O58	O	1.634177	-0.179328	0.912431
H59	H	1.562034	-0.183024	0.864097
H60	H	1.694966	-0.810921	0.553739
H61	H	1.341324	-0.904017	0.458669
H62	H	0.929738	-0.439847	0.728033
H63	H	1.740246	-0.276130	0.917820
H64	H	0.933943	-0.517855	0.628751
O65	O	1.624436	-0.183146	1.106695
H66	H	1.604018	-0.144771	1.041880
O67	O	1.112942	-0.440050	0.758496
H68	H	1.161232	-0.486103	0.789912
H69	H	0.919139	-0.271555	0.384485
O70	O	1.132709	-0.258951	0.366746
H71	H	1.218220	-0.266927	0.378015
O72	O	1.369162	-0.804135	0.654754
H73	H	1.289702	-0.823978	0.633123
O74	O	1.463689	-0.804242	0.302824
H75	H	1.463832	-0.742754	0.303670
O76	O	1.770721	-0.275945	1.101041
H77	H	1.823477	-0.285949	1.033343
