data_functionalizedCrystal
_audit_creation_method	'MofGen! by Chris Wilmer'
_symmetry_space_group_name_H-M	'P1'
_symmetry_Int_Tables_number	1
_symmetry_cell_setting	triclinic
loop_
_symmetry_equiv_pos_as_xyz
  x,y,z
_cell_length_a	17.699104
_cell_length_b	14.853568
_cell_length_c	16.776229
_cell_angle_alpha	90.001170
_cell_angle_beta	90.006643
_cell_angle_gamma	96.536648
loop_
_atom_site_label
_atom_site_type_symbol
_atom_site_fract_x
_atom_site_fract_y
_atom_site_fract_z
O1	O	1.004364	-0.114093	0.066296
O2	O	0.784026	-0.128906	0.066293
O3	O	0.900080	0.009751	0.066299
O4	O	0.888310	-0.252751	0.066291
O5	O	0.900067	0.009751	-0.066278
O6	O	0.784013	-0.128906	-0.066283
O7	O	1.004351	-0.114093	-0.066280
Zn8	Zn	0.894180	-0.121500	-0.087331
Zn9	Zn	0.894197	-0.121500	0.087344
O10	O	0.888296	-0.252750	-0.066286
C11	C	0.755821	-0.128372	0.000005
C12	C	0.671800	-0.126770	0.000004
C13	C	0.147117	-0.199125	0.000010
C14	C	0.226064	-0.200625	0.000012
C15	C	0.274471	-0.119228	0.000015
C16	C	0.243926	-0.036325	0.000023
C17	C	0.164979	-0.034827	0.000026
C18	C	0.562307	-0.042368	0.000010
C19	C	0.641258	-0.043873	0.000004
C20	C	0.623392	-0.208167	-0.000004
C21	C	0.544446	-0.206668	-0.000001
C22	C	0.513908	-0.123766	0.000012
C23	C	0.428304	-0.122141	0.000011
C24	C	0.360073	-0.120852	0.000010
C25	C	0.899540	0.043338	0.000013
C26	C	0.897942	0.143416	0.000021
C27	C	0.822246	0.555678	0.000010
C28	C	0.960121	0.577454	0.000012
C29	C	0.961624	0.483426	0.000016
C30	C	0.893437	0.425519	0.000016
C31	C	0.823747	0.461640	0.000011
C32	C	1.031313	0.447297	0.000012
C33	C	1.032819	0.353263	0.000015
C34	C	0.964631	0.295355	0.000020
C35	C	0.894938	0.331481	0.000017
C36	C	0.826751	0.273575	0.000016
C37	C	0.757057	0.309700	0.000019
C38	C	0.755559	0.403731	0.000017
C39	C	0.966129	0.201323	0.000022
C40	C	0.828252	0.179537	0.000017
C41	C	1.032555	-0.114627	0.000010
C42	C	1.116577	-0.116229	0.000016
N43	N	0.894173	-0.121499	-0.206542
C44	C	0.888836	0.713662	0.000005
C45	C	0.890433	0.613584	0.000011
C46	C	0.940130	-0.176115	-0.248257
C47	C	0.940138	-0.176112	-0.331709
C48	C	0.894186	-0.121496	-0.373445
C49	C	0.848227	-0.066873	-0.331725
C50	C	0.848223	-0.066872	-0.248274
C51	C	0.848243	-0.066874	-0.668272
C52	C	0.848248	-0.066881	-0.751728
C53	C	0.940157	-0.176114	-0.751707
C54	C	0.940153	-0.176113	-0.668256
C55	C	0.894198	-0.121487	-0.626543
C56	C	0.894191	-0.121490	-0.536055
C57	C	0.894188	-0.121497	-0.463932
N58	N	0.894209	-0.121494	0.206555
H59	H	0.107709	-0.265409	0.000002
Br60	Br	1.127400	0.304244	0.000023
Br61	Br	0.785844	0.007224	-0.611671
Br62	Br	0.664841	-0.320679	-0.000018
Br63	Br	0.478756	-0.317139	-0.000008
H64	H	0.250926	-0.268127	0.000015
H65	H	1.086827	0.494451	0.000005
H66	H	0.810801	-0.022398	-0.214311
H67	H	0.810816	-0.022400	-0.365713
Br68	Br	0.706953	0.066602	0.000006
H69	H	0.765503	0.585095	0.000016
H70	H	1.022872	0.171914	0.000015
H71	H	0.537453	0.025135	0.000018
Br72	Br	1.052656	0.656041	-0.000004
Br73	Br	1.002495	-0.250244	-0.191624
Br74	Br	0.309619	0.074144	0.000031
Br75	Br	1.002526	-0.250250	-0.808322
H76	H	0.977562	-0.220584	-0.365670
H77	H	0.140115	0.032676	0.000033
H78	H	0.772724	0.132395	0.000021
Br79	Br	0.660983	0.452764	0.000025
H80	H	0.977570	-0.220590	-0.634279
Br81	Br	0.664521	0.231101	0.000008
Br82	Br	0.785879	0.007244	-0.808370
