data_functionalizedCrystal
_audit_creation_method	'MofGen! by Chris Wilmer'
_symmetry_space_group_name_H-M	'P1'
_symmetry_Int_Tables_number	1
_symmetry_cell_setting	triclinic
loop_
_symmetry_equiv_pos_as_xyz
  x,y,z
_cell_length_a	27.732064
_cell_length_b	27.732025
_cell_length_c	14.421503
_cell_angle_alpha	90.018800
_cell_angle_beta	90.000074
_cell_angle_gamma	82.641446
loop_
_atom_site_label
_atom_site_type_symbol
_atom_site_fract_x
_atom_site_fract_y
_atom_site_fract_z
O1	O	0.640920	0.057549	-0.076918
O2	O	0.500127	0.066286	-0.076952
O3	O	0.574902	-0.008480	-0.076963
O4	O	0.566145	0.132315	-0.076908
O5	O	0.574890	-0.008468	0.077261
O6	O	0.500115	0.066297	0.077271
O7	O	0.640908	0.057560	0.077305
Cu8	Cu	0.570510	0.061930	0.091370
Cu9	Cu	0.570525	0.061917	-0.091017
O10	O	0.566133	0.132326	0.077315
C11	C	0.482114	0.066107	0.000154
C12	C	0.428460	0.065551	0.000140
C13	C	0.574714	-0.026481	0.000140
C14	C	0.574165	-0.080137	0.000112
C15	C	0.051391	0.017584	0.000174
C16	C	0.253051	0.019630	0.000151
O17	O	0.284307	-0.017592	0.000171
N18	N	0.272175	0.063965	0.000164
C19	C	0.240880	0.107791	0.000189
O20	O	0.261774	0.145547	0.000209
C21	C	0.039221	0.105744	0.000219
C22	C	0.020100	0.061407	0.000196
C23	C	0.032270	-0.026750	0.000153
C24	C	-0.018143	-0.027262	0.000154
C25	C	-0.049433	0.016561	0.000176
C26	C	-0.030312	0.060895	0.000197
C27	C	0.007928	0.149570	0.000250
C28	C	-0.042490	0.149054	0.000260
C29	C	-0.061611	0.104717	0.000238
C30	C	-0.112014	0.104207	0.000220
N31	N	-0.131138	0.059873	0.000207
C32	C	-0.099848	0.016050	0.000185
C33	C	0.346755	0.108862	0.000171
C34	C	0.397169	0.109374	0.000162
C35	C	0.409337	0.021213	0.000126
C36	C	0.358921	0.020702	0.000128
C37	C	0.327631	0.064528	0.000158
C38	C	-0.205717	0.014980	0.000186
C39	C	-0.256134	0.014472	0.000183
C40	C	-0.268297	0.102633	0.000224
C41	C	-0.217884	0.103141	0.000222
C42	C	-0.186595	0.059310	0.000206
O43	O	-0.143298	0.141409	0.000210
O44	O	-0.120750	-0.021701	0.000185
C45	C	0.101803	0.018095	0.000173
C46	C	0.120924	0.062429	0.000195
C47	C	0.089634	0.106252	0.000217
C48	C	0.171339	0.062941	0.000186
C49	C	0.202630	0.019118	0.000163
C50	C	0.183506	-0.025217	0.000150
C51	C	0.133094	-0.025728	0.000151
C52	C	0.108758	0.150586	0.000230
C53	C	0.159170	0.151094	0.000228
C54	C	0.190461	0.107271	0.000206
C55	C	0.570275	-0.463308	-0.083902
C56	C	0.572328	-0.261649	-0.083931
O57	O	0.572618	-0.235587	-0.155429
N58	N	0.572578	-0.236422	0.000134
C59	C	0.572318	-0.261613	0.084212
O60	O	0.572582	-0.235529	0.155713
C61	C	0.570269	-0.463272	0.084240
C62	C	0.570014	-0.488496	0.000170
C63	C	0.570021	-0.488533	-0.167965
C64	C	0.569505	-0.538944	-0.167957
C65	C	0.569244	-0.564131	-0.083885
C66	C	0.569498	-0.538907	0.000178
C67	C	0.570012	-0.488462	0.168317
C68	C	0.569501	-0.538881	0.168317
C69	C	0.569246	-0.564105	0.084247
C70	C	0.568721	-0.614506	0.084258
N71	N	0.568471	-0.639733	0.000193
C72	C	0.568733	-0.614546	-0.083879
C73	C	0.573392	-0.155739	0.084191
C74	C	0.573904	-0.105324	0.084184
C75	C	0.573915	-0.105364	-0.083959
C76	C	0.573400	-0.155779	-0.083951
C77	C	0.573143	-0.180966	0.000126
C78	C	0.567649	-0.720414	-0.083855
C79	C	0.567131	-0.770829	-0.083839
C80	C	0.567123	-0.770786	0.084303
C81	C	0.567638	-0.720374	0.084288
C82	C	0.567903	-0.695190	0.000201
O83	O	0.568435	-0.640600	0.155718
O84	O	0.568479	-0.640640	-0.155370
C85	C	0.570791	-0.412897	-0.083910
C86	C	0.571045	-0.387673	0.000153
C87	C	0.570784	-0.412860	0.084225
C88	C	0.571557	-0.337258	0.000147
C89	C	0.571818	-0.312071	-0.083925
C90	C	0.571568	-0.337298	-0.167990
C91	C	0.571053	-0.387710	-0.167982
C92	C	0.571034	-0.387633	0.168290
C93	C	0.571549	-0.337221	0.168275
C94	C	0.571810	-0.312034	0.084203
C95	C	0.658921	0.057739	0.000196
C96	C	0.712575	0.058295	0.000205
C97	C	0.566321	0.150328	0.000211
C98	C	0.566870	0.203983	0.000232
N99	N	0.570503	0.061939	0.219651
N100	N	0.570535	0.061904	-0.219298
C101	C	0.535922	0.096495	0.469309
C102	C	0.579529	0.105554	0.531127
C103	C	0.570515	0.061927	0.408813
C104	C	0.526919	0.052880	0.531088
C105	C	0.570523	0.061917	0.591534
C106	C	0.614145	0.071007	0.469270
C107	C	0.561506	0.018315	0.469225
C108	C	0.605145	0.027354	0.531015
C109	C	0.570510	0.061934	0.303551
C110	C	0.570533	0.061910	0.696793
H111	H	-0.180247	-0.020712	0.000172
H112	H	0.573183	-0.176241	0.152661
O113	O	0.501116	0.131421	0.436863
C114	C	0.483482	0.204160	0.345156
C115	C	0.522943	0.164632	0.381822
H116	H	0.501116	0.231028	0.300664
H117	H	0.456220	0.186539	0.301584
H118	H	0.463896	0.224197	0.406140
H119	H	0.542566	0.144581	0.320895
H120	H	0.550173	0.182282	0.425422
O121	O	-0.199281	0.146196	0.000080
C122	C	-0.149392	0.197924	-0.079737
C123	C	-0.170433	0.149153	-0.079720
H124	H	-0.126056	0.200327	-0.144239
H125	H	-0.180397	0.229179	-0.079782
H126	H	-0.126118	0.200358	-0.015157
H127	H	-0.193701	0.146672	-0.144289
H128	H	-0.139405	0.117921	-0.079627
H129	H	0.343357	-0.015402	0.000111
H130	H	0.634435	-0.001885	0.557939
H131	H	0.587157	0.142432	0.558317
O132	O	0.658098	0.080233	0.436863
C133	C	0.707400	0.090596	0.302523
C134	C	0.657608	0.080132	0.339099
H135	H	0.707024	0.090508	0.223477
H136	H	0.715130	0.127667	0.328528
H137	H	0.736924	0.061323	0.328497
H138	H	0.628052	0.109374	0.313140
H139	H	0.649920	0.043046	0.313101
H140	H	-0.067965	0.184744	0.000289
H141	H	0.566922	-0.791364	-0.152303
O142	O	0.569163	-0.563312	0.250017
C143	C	0.527122	-0.572892	0.393755
C144	C	0.527440	-0.545195	0.301255
H145	H	0.493398	-0.558249	0.435215
H146	H	0.526679	-0.613260	0.379384
H147	H	0.561078	-0.567651	0.435172
H148	H	0.493491	-0.550397	0.259791
H149	H	0.527909	-0.504838	0.315691
O150	O	-0.274650	-0.028630	0.000040
C151	C	-0.279691	-0.104130	-0.079918
C152	C	-0.258683	-0.055342	-0.079863
H153	H	-0.266799	-0.125736	-0.144522
H154	H	-0.266762	-0.125796	-0.015429
H155	H	-0.321098	-0.096961	-0.079870
H156	H	-0.217276	-0.062468	-0.079944
H157	H	-0.271650	-0.033692	-0.144346
H158	H	0.553864	-0.018551	0.442015
O159	O	0.570332	-0.464043	-0.249601
C160	C	0.612720	-0.412858	-0.347200
C161	C	0.612458	-0.440588	-0.254728
H162	H	0.646770	-0.393879	-0.351367
H163	H	0.612470	-0.439520	-0.407334
H164	H	0.579089	-0.384618	-0.351330
H165	H	0.646083	-0.468827	-0.250508
H166	H	0.612683	-0.413897	-0.194638
H167	H	0.412733	0.145478	0.000167
H168	H	0.490046	0.045232	0.558246
O169	O	-0.298678	0.145213	0.000082
C170	C	-0.324501	0.220418	-0.079738
C171	C	-0.290072	0.172210	-0.079713
H172	H	-0.317548	0.242263	-0.144236
H173	H	-0.363826	0.212459	-0.079796
H174	H	-0.317593	0.242237	-0.015154
H175	H	-0.296936	0.150367	-0.144286
H176	H	-0.250759	0.180202	-0.079607
O177	O	-0.036632	-0.070374	0.000185
C178	C	-0.019224	-0.157763	0.000109
C179	C	0.001775	-0.108970	0.000089
H180	H	0.011818	-0.188980	0.000011
H181	H	-0.042501	-0.160237	0.064672
H182	H	-0.042542	-0.160191	-0.064413
H183	H	0.025114	-0.106508	0.064567
H184	H	0.025024	-0.106517	-0.064516
O185	O	0.062710	-0.069293	0.000003
C186	C	0.126654	-0.119906	-0.079976
C187	C	0.092222	-0.071701	-0.079900
H188	H	0.150517	-0.121874	-0.144580
H189	H	0.150601	-0.121884	-0.015487
H190	H	0.104308	-0.151667	-0.079945
H191	H	0.114529	-0.039913	-0.079963
H192	H	0.068274	-0.069766	-0.144384
O193	O	0.439786	-0.021326	-0.000015
C194	C	0.503753	-0.071929	-0.079957
C195	C	0.469303	-0.023734	-0.079910
H196	H	0.527619	-0.073896	-0.144555
H197	H	0.527694	-0.073889	-0.015461
H198	H	0.481420	-0.103700	-0.079915
H199	H	0.491597	0.008064	-0.079985
H200	H	0.445360	-0.021817	-0.144400
H201	H	0.117531	-0.061833	0.000133
H202	H	0.321282	0.144553	0.000194
H203	H	0.570224	-0.467934	0.236776
O204	O	0.567887	-0.695943	0.166035
C205	C	0.567761	-0.701223	0.332810
C206	C	0.567493	-0.728947	0.240298
H207	H	0.567432	-0.727892	0.392876
H208	H	0.601847	-0.682302	0.337104
H209	H	0.534165	-0.672937	0.336931
H210	H	0.601065	-0.757256	0.236115
H211	H	0.533385	-0.747834	0.236042
H212	H	0.023486	0.185674	0.000264
O213	O	0.213975	-0.067743	0.000170
C214	C	0.297040	-0.106014	0.000098
C215	C	0.262586	-0.057822	0.000091
H216	H	0.336349	-0.098010	0.000014
H217	H	0.290169	-0.127855	0.064648
H218	H	0.290103	-0.127859	-0.064437
H219	H	0.269503	-0.035939	0.064582
H220	H	0.269465	-0.036018	-0.064502
H221	H	0.567865	-0.699915	-0.152326
H222	H	0.571778	-0.316781	-0.236444
H223	H	0.566908	-0.791302	0.152752
O224	O	0.177660	0.194210	0.000289
C225	C	0.160257	0.281599	0.000289
C226	C	0.139255	0.232807	0.000230
H227	H	0.129217	0.312818	0.000222
H228	H	0.183536	0.284078	0.064850
H229	H	0.183573	0.284019	-0.064234
H230	H	0.115917	0.230354	0.064710
H231	H	0.116004	0.230348	-0.064374
O232	O	0.570744	-0.412147	-0.249707
C233	C	0.528688	-0.421828	-0.393402
C234	C	0.528983	-0.394110	-0.300887
H235	H	0.494923	-0.407262	-0.434798
H236	H	0.562610	-0.416581	-0.434917
H237	H	0.528300	-0.462189	-0.378947
H238	H	0.529355	-0.353740	-0.315258
H239	H	0.495064	-0.399397	-0.259400
H240	H	0.083285	0.186273	0.000249
H241	H	0.569301	-0.559477	-0.236416
H242	H	0.573192	-0.176313	-0.152409
H243	H	0.574125	-0.084847	-0.152414
H244	H	0.574102	-0.084790	0.152642
O245	O	0.571816	-0.312799	0.250030
C246	C	0.571731	-0.318092	0.416804
C247	C	0.571433	-0.345808	0.324288
H248	H	0.571411	-0.344766	0.476866
H249	H	0.605822	-0.299179	0.421072
H250	H	0.538141	-0.289800	0.420961
H251	H	0.605000	-0.374122	0.320070
H252	H	0.537320	-0.364687	0.320060
H253	H	0.570822	-0.408135	0.236752
