data_functionalizedCrystal
_audit_creation_method	'MofGen! by Chris Wilmer'
_symmetry_space_group_name_H-M	'P1'
_symmetry_Int_Tables_number	1
_symmetry_cell_setting	triclinic
loop_
_symmetry_equiv_pos_as_xyz
  x,y,z
_cell_length_a	19.188905
_cell_length_b	19.188930
_cell_length_c	13.596369
_cell_angle_alpha	90.005514
_cell_angle_beta	90.013034
_cell_angle_gamma	83.139668
loop_
_atom_site_label
_atom_site_type_symbol
_atom_site_fract_x
_atom_site_fract_y
_atom_site_fract_z
O1	O	0.926158	0.087080	0.081964
O2	O	1.259491	0.420413	0.415298
O3	O	1.592825	0.753746	0.748631
O4	O	0.722844	0.098832	0.081932
O5	O	1.056178	0.432166	0.415266
O6	O	1.389511	0.765499	0.748599
O7	O	0.830368	-0.008700	0.081930
O8	O	1.163702	0.324633	0.415263
O9	O	1.497035	0.657966	0.748597
O10	O	0.818634	0.194612	0.081967
O11	O	1.151967	0.527945	0.415300
O12	O	1.485301	0.861279	0.748633
O13	O	0.830355	-0.008694	-0.081653
O14	O	1.163688	0.324639	0.251680
O15	O	1.497022	0.657972	0.585014
O16	O	0.722831	0.098838	-0.081651
O17	O	1.056164	0.432172	0.251683
O18	O	1.389498	0.765505	0.585016
O19	O	0.926145	0.087086	-0.081618
O20	O	1.259478	0.420419	0.251715
O21	O	1.592811	0.753752	0.585048
Zn22	Zn	0.824486	0.092963	-0.107607
Zn23	Zn	1.157819	0.426296	0.225726
Zn24	Zn	1.491152	0.759630	0.559060
Zn25	Zn	0.824503	0.092955	0.107921
Zn26	Zn	1.157836	0.426288	0.441254
Zn27	Zn	1.491170	0.759622	0.774587
O28	O	0.818621	0.194618	-0.081616
O29	O	1.151954	0.527951	0.251717
O30	O	1.485287	0.861285	0.585050
C31	C	0.696826	0.098458	0.000136
C32	C	1.030160	0.431791	0.333470
C33	C	1.363493	0.765124	0.666803
C34	C	0.619321	0.097324	0.000123
C35	C	0.952654	0.430657	0.333457
C36	C	1.285987	0.763991	0.666790
C37	C	0.829982	-0.034708	0.000136
C38	C	1.163315	0.298625	0.333469
C39	C	1.496648	0.631959	0.666802
C40	C	0.828841	-0.112213	0.000127
C41	C	1.162174	0.221121	0.333460
C42	C	1.495508	0.554454	0.666794
C43	C	0.582936	0.096776	0.089295
C44	C	0.916270	0.430109	0.422628
C45	C	1.249603	0.763443	0.755962
C46	C	0.510113	0.095703	0.089307
C47	C	0.843446	0.429036	0.422640
C48	C	1.176779	0.762370	0.755974
C49	C	0.473678	0.095164	0.000142
C50	C	0.807012	0.428497	0.333476
C51	C	1.140345	0.761830	0.666809
C52	C	0.510071	0.095716	-0.089041
C53	C	0.843404	0.429049	0.244292
C54	C	1.176738	0.762382	0.577626
C55	C	0.582892	0.096796	-0.089050
C56	C	0.916226	0.430129	0.244283
C57	C	1.249559	0.763462	0.577616
N58	N	0.364653	0.053738	-0.066222
N59	N	0.697986	0.387071	0.267112
N60	N	1.031319	0.720404	0.600445
N61	N	0.295476	0.052710	-0.066207
N62	N	0.628809	0.386043	0.267127
N63	N	0.962142	0.719377	0.600460
C64	C	0.254272	0.091911	0.000166
C65	C	0.587605	0.425244	0.333499
C66	C	0.920938	0.758578	0.666832
N67	N	0.284859	0.132170	0.066537
N68	N	0.618192	0.465503	0.399870
N69	N	0.951526	0.798836	0.733204
N70	N	0.354043	0.133194	0.066525
N71	N	0.687376	0.466528	0.399858
N72	N	1.020709	0.799861	0.733191
C73	C	0.394716	0.093993	0.000143
C74	C	0.728049	0.427326	0.333476
C75	C	1.061382	0.760660	0.666809
C76	C	0.138923	0.090201	0.089356
C77	C	0.472256	0.423534	0.422690
C78	C	0.805590	0.756868	0.756023
C79	C	0.066098	0.089132	0.089365
C80	C	0.399431	0.422465	0.422698
C81	C	0.732764	0.755799	0.756031
C82	C	0.066058	0.089138	-0.088986
C83	C	0.399392	0.422471	0.244347
C84	C	0.732725	0.755804	0.577681
C85	C	0.138882	0.090213	-0.088992
C86	C	0.472215	0.423547	0.244342
C87	C	0.805548	0.756880	0.577675
C88	C	0.175310	0.090742	0.000182
C89	C	0.508643	0.424075	0.333515
C90	C	0.841977	0.757408	0.666849
C91	C	0.891933	-0.157142	0.000132
C92	C	1.225266	0.176191	0.333466
C93	C	1.558599	0.509525	0.666799
C94	C	0.890861	-0.229966	0.000148
C95	C	1.224194	0.103367	0.333481
C96	C	1.557528	0.436701	0.666815
C97	C	0.826694	-0.257857	0.000139
C98	C	1.160027	0.075477	0.333472
C99	C	1.493361	0.408810	0.666805
C100	C	0.763594	-0.212917	0.000139
C101	C	1.096927	0.120416	0.333472
C102	C	1.430261	0.453749	0.666805
C103	C	0.764668	-0.140095	0.000133
C104	C	1.098001	0.193238	0.333466
C105	C	1.431334	0.526572	0.666800
N106	N	0.777642	-0.365855	-0.055540
N107	N	1.110975	-0.032522	0.277794
N108	N	1.444308	0.300811	0.611127
N109	N	0.776626	-0.435034	-0.055536
N110	N	1.109959	-0.101700	0.277797
N111	N	1.443293	0.231633	0.611130
C112	C	0.823456	-0.477265	0.000158
C113	C	1.156789	-0.143932	0.333491
C114	C	1.490122	0.189402	0.666825
N115	N	0.871350	-0.447706	0.055836
N116	N	1.204683	-0.114373	0.389170
N117	N	1.538017	0.218961	0.722503
N118	N	0.872368	-0.378521	0.055829
N119	N	1.205701	-0.045188	0.389162
N120	N	1.539034	0.288145	0.722495
C121	C	0.825523	-0.336819	0.000145
C122	C	1.158856	-0.003486	0.333479
C123	C	1.492190	0.329848	0.666812
C124	C	0.885390	-0.601159	0.000181
C125	C	1.218723	-0.267826	0.333515
C126	C	1.552056	0.065508	0.666848
C127	C	0.884315	-0.673984	0.000203
C128	C	1.217649	-0.340650	0.333536
C129	C	1.550982	-0.007317	0.666870
C130	C	0.757047	-0.656933	0.000184
C131	C	1.090380	-0.323600	0.333517
C132	C	1.423713	0.009733	0.666851
C133	C	0.758123	-0.584110	0.000172
C134	C	1.091456	-0.250777	0.333506
C135	C	1.424790	0.082556	0.666839
C136	C	0.822296	-0.556228	0.000166
C137	C	1.155630	-0.222894	0.333500
C138	C	1.488963	0.110439	0.666833
C139	C	0.952163	0.087460	0.000180
C140	C	1.285496	0.420794	0.333513
C141	C	1.618829	0.754127	0.666846
C142	C	1.029668	0.088594	0.000199
C143	C	1.363001	0.421927	0.333532
C144	C	1.696335	0.755261	0.666866
C145	C	0.819007	0.220626	0.000180
C146	C	1.152341	0.553959	0.333514
C147	C	1.485674	0.887293	0.666847
C148	C	0.820148	0.298131	0.000195
C149	C	1.153481	0.631464	0.333529
C150	C	1.486815	0.964797	0.666862
N151	N	0.824479	0.092968	-0.254699
N152	N	1.157812	0.426301	0.078635
N153	N	1.491146	0.759635	0.411968
C154	C	0.824482	0.092969	-0.343697
C155	C	1.157816	0.426303	-0.010363
C156	C	1.491149	0.759636	0.322970
C157	C	0.824489	0.092965	-0.455348
C158	C	1.157823	0.426298	-0.122015
C159	C	1.491156	0.759631	0.211319
C160	C	0.824498	0.092957	-0.544338
C161	C	1.157832	0.426290	-0.211005
C162	C	1.491165	0.759623	0.122328
C163	C	0.824506	0.092952	-0.655997
C164	C	1.157840	0.426286	-0.322664
C165	C	1.491173	0.759619	0.010670
N166	N	0.824515	0.092945	0.255013
N167	N	1.157849	0.426278	0.588346
N168	N	1.491182	0.759611	0.921679
H169	H	0.612592	0.097206	0.161907
H170	H	0.945925	0.430540	0.495241
H171	H	1.279258	0.763873	0.828574
Br172	Br	0.016618	0.088416	-0.209998
Br173	Br	0.349952	0.421750	0.123336
Br174	Br	0.683285	0.755083	0.456669
H175	H	0.036474	0.088690	0.161982
H176	H	0.369807	0.422024	0.495315
H177	H	0.703141	0.755357	0.828648
Br178	Br	0.669961	-0.694777	0.000181
Br179	Br	1.003295	-0.361444	0.333515
Br180	Br	1.336628	-0.028110	0.666848
Br181	Br	0.679036	-0.079115	0.000129
Br182	Br	1.012370	0.254219	0.333462
Br183	Br	1.345703	0.587552	0.666795
H184	H	0.480401	0.095278	-0.161639
H185	H	0.813735	0.428612	0.171694
H186	H	1.147068	0.761945	0.505027
Br187	Br	0.188265	0.090955	-0.210017
Br188	Br	0.521598	0.424288	0.123316
Br189	Br	0.854931	0.757622	0.456649
H190	H	0.706747	-0.547527	0.000162
H191	H	1.040080	-0.214194	0.333496
H192	H	1.373413	0.119139	0.666829
H193	H	0.944187	-0.134445	0.000131
H194	H	1.277521	0.198888	0.333464
H195	H	1.610854	0.532221	0.666798
H196	H	0.612516	0.097242	-0.161667
H197	H	0.945850	0.430576	0.171666
H198	H	1.279183	0.763909	0.505000
H199	H	0.168584	0.090638	0.161967
H200	H	0.501917	0.423972	0.495300
H201	H	0.835250	0.757305	0.828634
H202	H	0.942239	-0.266555	0.000156
H203	H	1.275573	0.066779	0.333489
H204	H	1.608906	0.400112	0.666823
H205	H	0.711349	-0.235631	0.000133
H206	H	1.044682	0.097703	0.333467
H207	H	1.378016	0.431036	0.666800
Br208	Br	0.460722	0.094961	0.210334
Br209	Br	0.794055	0.428294	0.543667
Br210	Br	1.127389	0.761628	0.877001
Br211	Br	0.972480	-0.563314	0.000163
Br212	Br	1.305813	-0.229980	0.333497
Br213	Br	1.639146	0.103353	0.666830
Br214	Br	0.969948	-0.734962	0.000221
Br215	Br	1.303281	-0.401629	0.333554
Br216	Br	1.636614	-0.068296	0.666887
