data_functionalizedCrystal
_audit_creation_method	'MofGen! by Chris Wilmer'
_symmetry_space_group_name_H-M	'P1'
_symmetry_Int_Tables_number	1
_symmetry_cell_setting	triclinic
loop_
_symmetry_equiv_pos_as_xyz
  x,y,z
_cell_length_a	13.033748
_cell_length_b	13.031981
_cell_length_c	10.686551
_cell_angle_alpha	100.978188
_cell_angle_beta	86.659449
_cell_angle_gamma	105.194673
loop_
_atom_site_label
_atom_site_type_symbol
_atom_site_fract_x
_atom_site_fract_y
_atom_site_fract_z
Zn1	Zn	1.602159	-0.184294	0.439820
Zn2	Zn	2.102159	0.315706	0.939820
Zn3	Zn	1.562394	-0.379096	0.205003
Zn4	Zn	2.062394	0.120904	0.705003
Zn5	Zn	1.410896	-0.220583	0.252554
Zn6	Zn	1.910896	0.279417	0.752554
Zn7	Zn	1.401969	-0.384503	0.439690
Zn8	Zn	1.901969	0.115497	0.939690
O9	O	1.494355	-0.292119	0.334267
O10	O	1.994355	0.207881	0.834267
O11	O	1.744067	-0.192686	0.388825
O12	O	2.244067	0.307314	0.888825
O13	O	1.529392	-0.370993	0.034721
O14	O	2.029392	0.129007	0.534721
O15	O	1.456646	-0.065643	0.297350
O16	O	1.956646	0.434357	0.797350
O17	O	1.714851	-0.335806	0.216306
O18	O	2.214851	0.164194	0.716306
O19	O	1.597166	-0.038982	0.434934
O20	O	2.097166	0.461018	0.934934
O21	O	1.418087	-0.254534	0.069657
O22	O	1.918087	0.245466	0.569657
O23	O	1.262530	-0.259777	0.297224
O24	O	1.762530	0.240223	0.797224
O25	O	1.441431	-0.345021	0.616296
O26	O	1.941431	0.154979	1.116296
O27	O	1.255971	-0.380208	0.434712
O28	O	1.755971	0.119792	0.934712
O29	O	1.588509	-0.197928	0.616392
O30	O	2.088509	0.302072	1.116392
O31	O	1.520735	-0.529940	0.216179
O32	O	2.020735	-0.029940	0.716179
O33	O	1.402872	-0.533912	0.388603
O34	O	1.902872	-0.033912	0.888603
C35	C	1.221087	-0.324518	0.371114
C36	C	1.721087	0.175482	0.871114
C37	C	1.104181	-0.338401	0.386904
C38	C	1.604181	0.161599	0.886904
C39	C	1.456550	-0.570847	0.297241
C40	C	1.956550	-0.070847	0.797241
C41	C	1.440477	-0.690073	0.281430
C42	C	1.940477	-0.190073	0.781430
C43	C	1.055300	-0.284898	0.326054
C44	C	1.555300	0.215102	0.826054
C45	C	0.934472	-0.299246	0.342372
C46	C	1.434472	0.200754	0.842372
C47	C	1.502801	-0.729953	0.342536
C48	C	2.002801	-0.229953	0.842536
C49	C	1.486190	-0.853179	0.326196
C50	C	1.986190	-0.353179	0.826196
C51	C	1.768689	-0.259595	0.297276
C52	C	2.268689	0.240405	0.797276
C53	C	1.885594	-0.245735	0.281513
C54	C	2.385594	0.254265	0.781513
C55	C	1.518410	-0.268030	0.663412
C56	C	2.018410	0.231970	1.163412
C57	C	1.528661	-0.257765	0.803674
C58	C	2.028661	0.242235	1.303674
C59	C	1.532337	-0.012298	0.371461
C60	C	2.032337	0.487702	0.871461
C61	C	1.548523	0.106946	0.387311
C62	C	2.048523	0.606946	0.887311
C63	C	1.470464	-0.316030	0.006404
C64	C	1.970464	0.183970	0.506404
C65	C	1.460458	-0.325969	-0.133845
C66	C	1.960458	0.174031	0.366155
H67	H	1.102904	-0.228473	0.261871
H68	H	1.602904	0.271527	0.761871
O69	O	1.616396	-0.170006	0.874967
O70	O	2.116396	0.329994	1.374967
H71	H	1.694628	-0.180442	0.836180
H72	H	2.194628	0.319558	1.336180
H73	H	0.933192	-0.189305	0.217326
H74	H	1.433192	0.310695	0.717326
H75	H	0.886870	-0.355682	0.406549
H76	H	1.386870	0.144318	0.906549
H77	H	1.056576	-0.394834	0.451077
H78	H	1.556576	0.105166	0.951077
H79	H	1.394226	-0.392218	0.812343
H80	H	1.894226	0.107782	1.312343
H81	H	1.568454	-0.672870	0.406954
H82	H	2.068454	-0.172870	0.906954
H83	H	1.420525	-0.910262	0.261787
H84	H	1.920525	-0.410262	0.761787
H85	H	1.374816	-0.747159	0.217025
H86	H	1.874816	-0.247159	0.717025
O87	O	1.635506	-0.817458	0.472636
O88	O	2.135506	-0.317458	0.972636
H89	H	1.634913	-0.732534	0.472074
H90	H	2.134913	-0.232534	0.972074
