data_functionalizedCrystal
_audit_creation_method	'MofGen! by Chris Wilmer'
_symmetry_space_group_name_H-M	'P1'
_symmetry_Int_Tables_number	1
_symmetry_cell_setting	triclinic
loop_
_symmetry_equiv_pos_as_xyz
  x,y,z
_cell_length_a	17.639874
_cell_length_b	29.839132
_cell_length_c	17.640968
_cell_angle_alpha	101.232799
_cell_angle_beta	87.863041
_cell_angle_gamma	101.268809
loop_
_atom_site_label
_atom_site_type_symbol
_atom_site_fract_x
_atom_site_fract_y
_atom_site_fract_z
Zn1	Zn	-1.247777	0.012932	-0.195118
Zn2	Zn	-1.221942	0.105627	-0.068131
Zn3	Zn	-1.095088	0.042155	-0.093758
Zn4	Zn	-1.120686	0.099711	-0.220710
O5	O	-1.171373	0.065106	-0.144430
O6	O	-1.350627	0.015474	-0.156838
O7	O	-1.183589	0.111913	0.034744
O8	O	-1.115441	-0.024601	-0.107219
O9	O	-1.331646	0.083576	-0.063541
O10	O	-1.227621	-0.046072	-0.181688
O11	O	-1.090390	0.065281	0.015915
O12	O	-0.992207	0.059544	-0.132034
O13	O	-1.159071	0.073493	-0.323590
O14	O	-1.011014	0.101830	-0.225305
O15	O	-1.252443	0.009738	-0.304788
O16	O	-1.208411	0.167722	-0.088357
O17	O	-1.134019	0.163376	-0.200456
C18	C	-0.974054	0.083217	-0.184228
C19	C	-0.889643	0.090973	-0.201272
C20	C	-0.563038	0.006153	-0.014915
C21	C	-0.483724	0.013449	-0.030941
C22	C	-0.503328	0.057583	-0.127897
C23	C	-0.582647	0.050289	-0.111882
C24	C	-0.612495	0.024574	-0.055390
C25	C	-0.632103	0.068710	-0.152356
C26	C	-0.711414	0.061419	-0.136339
C27	C	-0.741268	0.035706	-0.079848
C28	C	-0.691805	0.017283	-0.039373
C29	C	-0.602253	0.094428	-0.208844
C30	C	-0.651709	0.112849	-0.249318
C31	C	-0.731022	0.105555	-0.233306
C32	C	-0.760876	0.079843	-0.176815
C33	C	-0.780485	0.123979	-0.273781
C34	C	-0.859795	0.116688	-0.257764
C35	C	-0.840187	0.072551	-0.160798
C36	C	-1.171214	0.181849	-0.144415
C37	C	-1.171220	0.231782	-0.144420
C38	C	-0.369462	0.046921	-0.104468
C39	C	-0.453871	0.039159	-0.087419
C40	C	-1.210152	0.543648	-0.086093
C41	C	-1.210227	0.731313	-0.086095
O42	O	-1.243244	0.757477	-0.036506
N43	N	-1.171455	0.752539	-0.144426
C44	C	-1.132666	0.726846	-0.202763
O45	O	-1.099696	0.749206	-0.252381
C46	C	-1.132595	0.539182	-0.202763
C47	C	-1.171363	0.517959	-0.144424
C48	C	-1.248917	0.522425	-0.027759
C49	C	-1.248894	0.475513	-0.027756
C50	C	-1.210106	0.449823	-0.086088
C51	C	-1.171340	0.471047	-0.144421
C52	C	-1.093810	0.513489	-0.261102
C53	C	-1.093797	0.466570	-0.261098
C54	C	-1.132566	0.445347	-0.202759
C55	C	-1.132528	0.398445	-0.202750
N56	N	-1.171301	0.377218	-0.144420
C57	C	-1.210089	0.402907	-0.086088
C58	C	-1.132704	0.825373	-0.202758
C59	C	-1.132721	0.872289	-0.202758
C60	C	-1.210284	0.876752	-0.086090
C61	C	-1.210262	0.829836	-0.086088
C62	C	-1.171476	0.804146	-0.144427
C63	C	-1.210038	0.304388	-0.086087
C64	C	-1.210009	0.257471	-0.086088
C65	C	-1.132449	0.253012	-0.202758
C66	C	-1.132474	0.299925	-0.202755
C67	C	-1.171274	0.325611	-0.144416
O68	O	-1.099537	0.372251	-0.252318
O69	O	-1.243068	0.380537	-0.036487
C70	C	-1.210174	0.590561	-0.086095
C71	C	-1.171409	0.611784	-0.144429
C72	C	-1.132620	0.586095	-0.202760
C73	C	-1.171425	0.658700	-0.144428
C74	C	-1.210214	0.684390	-0.086097
C75	C	-1.248986	0.663163	-0.027766
C76	C	-1.248963	0.616250	-0.027764
C77	C	-1.093848	0.607322	-0.261091
C78	C	-1.093873	0.654235	-0.261088
C79	C	-1.132662	0.679924	-0.202757
C80	C	-1.211494	0.037696	-0.342515
C81	C	-1.228591	0.026015	-0.426927
C82	C	-1.171526	0.947908	-0.144446
C83	C	-1.171509	0.897978	-0.144426
C84	C	-1.041780	0.153572	-0.753489
C85	C	-1.057861	0.142589	-0.832804
C86	C	-1.155082	0.076205	-0.813216
C87	C	-1.139006	0.087181	-0.733899
C88	C	-1.082355	0.125865	-0.704042
C89	C	-1.179581	0.059475	-0.684451
C90	C	-1.163509	0.070452	-0.605140
C91	C	-1.106862	0.109135	-0.575276
C92	C	-1.066283	0.136842	-0.624730
C93	C	-1.236236	0.020793	-0.714309
C94	C	-1.276811	-0.006913	-0.664862
C95	C	-1.260736	0.004062	-0.585550
C96	C	-1.204088	0.042745	-0.555686
C97	C	-1.301315	-0.023646	-0.536095
C98	C	-1.285243	-0.012669	-0.456784
C99	C	-1.188016	0.053721	-0.476375
C100	C	-1.131452	0.092373	0.052894
C101	C	-1.114502	0.103914	0.137335
H102	H	-0.479014	0.078522	-0.173890
H103	H	-1.100909	0.317205	-0.250261
O104	O	-0.818311	0.028540	-0.064291
C105	C	-0.848836	-0.019655	-0.078587
H106	H	-0.800541	-0.039560	-0.074919
H107	H	-0.894961	-0.027813	-0.033641
H108	H	-0.875689	-0.030566	-0.138758
O109	O	-1.286437	0.454901	0.028970
C110	C	-1.233299	0.438548	0.069343
H111	H	-1.172529	0.458866	0.062021
H112	H	-1.248987	0.443576	0.133314
H113	H	-1.235413	0.399979	0.045343
O114	O	-1.247991	0.809287	-0.029382
C115	C	-1.282207	0.842031	0.022112
H116	H	-1.291121	0.870922	-0.008476
H117	H	-1.340417	0.824066	0.042238
H118	H	-1.242755	0.857584	0.074210
H119	H	-1.322939	-0.038408	-0.689182
O120	O	-1.248009	0.901762	-0.029539
C121	C	-1.239717	0.947718	-0.042064
H122	H	-1.226592	0.948305	-0.105668
H123	H	-1.295616	0.960974	-0.025569
H124	H	-1.190241	0.971037	-0.005084
H125	H	-1.062214	0.445655	-0.308607
O126	O	-1.094961	0.800390	-0.259331
C127	C	-1.037154	0.783790	-0.225943
H128	H	-1.052335	0.782249	-0.163002
H129	H	-1.033195	0.747459	-0.258933
H130	H	-0.979190	0.808239	-0.228895
O131	O	-0.525238	0.101499	-0.224541
C132	C	-0.513509	0.082383	-0.302705
H133	H	-0.568074	0.079840	-0.337195
H134	H	-0.463162	0.105688	-0.326852
H135	H	-0.499805	0.046163	-0.307274
O136	O	-0.622733	0.137896	-0.304111
C137	C	-0.638697	0.183191	-0.283493
H138	H	-0.648187	0.191805	-0.218416
H139	H	-0.587835	0.209291	-0.300514
H140	H	-0.692976	0.185104	-0.314874
H141	H	-0.587344	-0.014795	0.031075
H142	H	-1.100865	0.232089	-0.250249
H143	H	-1.318282	-0.035231	-0.416523
H144	H	-1.201209	0.044710	-0.837537
H145	H	-0.443459	-0.001558	0.002017
O146	O	-0.751464	0.148886	-0.328740
C147	C	-0.715551	0.120773	-0.387114
H148	H	-0.740460	0.082529	-0.387084
H149	H	-0.726469	0.129077	-0.445692
H150	H	-0.650685	0.127979	-0.375769
H151	H	-0.900065	0.131687	-0.290723
H152	H	-1.024816	0.165154	-0.873063
H153	H	-1.101143	0.889566	-0.250257
O154	O	-1.056144	0.534020	-0.317853
C155	C	-1.021898	0.501279	-0.369321
H156	H	-1.053532	0.464596	-0.365686
H157	H	-1.025877	0.507287	-0.430798
H158	H	-0.958595	0.505478	-0.353098
O159	O	-1.251855	0.010211	-0.791351
C160	C	-1.276675	0.047814	-0.813904
H161	H	-1.254393	0.081214	-0.770816
H162	H	-1.253162	0.051598	-0.873877
H163	H	-1.342540	0.041039	-0.815257
H164	H	-1.280532	0.598974	0.019741
H165	H	-1.241578	0.240194	-0.038579
O166	O	-1.286789	0.688111	0.028799
C167	C	-1.344568	0.704717	-0.004622
H168	H	-1.361290	0.681857	-0.063507
H169	H	-1.397499	0.703636	0.034569
H170	H	-1.321636	0.742086	-0.011951
H171	H	-1.347445	-0.055139	-0.560416
H172	H	-1.062297	0.671511	-0.308595
O173	O	-1.286607	0.547314	0.028987
C174	C	-1.320831	0.518509	0.080454
H175	H	-1.289172	0.488308	0.076819
H176	H	-1.316864	0.539596	0.141932
H177	H	-1.384129	0.504330	0.064229
H178	H	-1.241634	0.325296	-0.038584
H179	H	-1.062262	0.586409	-0.308592
H180	H	-0.864493	0.051603	-0.114808
O181	O	-1.132896	0.091249	-0.447356
C182	C	-1.074593	0.076525	-0.411362
H183	H	-1.074797	0.038257	-0.436209
H184	H	-1.015943	0.098265	-0.422259
H185	H	-1.085894	0.081146	-0.346515
O186	O	-1.091385	0.119789	-0.498206
C187	C	-1.158776	0.128328	-0.457015
H188	H	-1.211797	0.110310	-0.493891
H189	H	-1.161550	0.114167	-0.401234
H190	H	-1.157476	0.167412	-0.442613
H191	H	-1.020133	0.168333	-0.600423
H192	H	-0.716111	-0.003665	0.006617
H193	H	-0.995630	0.185063	-0.729182
