data_functionalizedCrystal
_audit_creation_method	'MofGen! by Chris Wilmer'
_symmetry_space_group_name_H-M	'P1'
_symmetry_Int_Tables_number	1
_symmetry_cell_setting	triclinic
loop_
_symmetry_equiv_pos_as_xyz
  x,y,z
_cell_length_a	10.489694
_cell_length_b	9.565339
_cell_length_c	10.654550
_cell_angle_alpha	89.998599
_cell_angle_beta	95.497574
_cell_angle_gamma	89.997533
loop_
_atom_site_label
_atom_site_type_symbol
_atom_site_fract_x
_atom_site_fract_y
_atom_site_fract_z
O1	O	-1.694002	0.116220	0.176902
O2	O	-1.322791	0.116231	0.193596
O3	O	-1.516931	0.116220	0.002512
O4	O	-1.499862	0.116231	0.367986
O5	O	-1.516916	-0.116300	0.002524
O6	O	-1.322775	-0.116289	0.193608
O7	O	-1.693987	-0.116300	0.176914
Zn8	Zn	-1.508379	-0.153212	0.185263
Zn9	Zn	-1.508399	0.153143	0.185247
O10	O	-1.499846	-0.116289	0.367998
C11	C	-1.275251	-0.000028	0.192354
C12	C	-1.133621	-0.000024	0.188619
C13	C	-1.035889	-0.000016	0.305795
C14	C	-0.958565	-0.114668	0.243893
C15	C	-0.958586	0.114579	0.243854
C16	C	-1.058162	-0.114770	0.126765
C17	C	-1.058189	0.114579	0.126743
C18	C	-0.980913	-0.000100	0.064754
N19	N	-1.508374	-0.362291	0.185273
C20	C	-1.418563	-0.453490	0.273613
C21	C	-1.534050	-0.546671	0.299006
C22	C	-1.392937	-0.546665	0.159890
C23	C	-1.623920	-0.453421	0.210723
C24	C	-1.482730	-0.453407	0.071557
C25	C	-1.598300	-0.546547	0.096902
C26	C	-0.741524	-0.000034	0.178176
C27	C	-0.883147	-0.000018	0.181970
C28	C	-1.515670	-0.000038	-0.044280
C29	C	-1.511921	-0.000033	-0.183724
N30	N	-1.508414	0.362223	0.185227
C31	C	-1.626227	-0.000041	-0.263176
C32	C	-1.622696	-0.000031	-0.394197
C33	C	-1.390542	-0.000012	-0.366304
C34	C	-1.394074	-0.000012	-0.235285
C35	C	-1.760260	-0.000057	-0.279281
C36	C	-1.756729	-0.000048	-0.410303
C37	C	-1.501107	-0.000028	0.414790
C38	C	-1.504857	-0.000023	0.554234
H39	H	-0.956532	-0.000169	-0.037238
H40	H	-1.295298	-0.587627	0.138441
H41	H	-1.674351	-0.587149	0.022173
H42	H	-1.797242	0.100347	-0.455938
O43	O	-1.068530	-0.000164	0.440786
H44	H	-1.124573	0.095078	0.458420
H45	H	-1.101715	0.211509	0.077310
O46	O	-1.318045	-0.399351	0.372646
H47	H	-1.364493	-0.333912	0.441267
O48	O	-1.823593	-0.128946	-0.465608
H49	H	-1.859117	-0.192067	-0.388775
H50	H	-0.915051	-0.211592	0.293363
H51	H	-0.915085	0.211495	0.293338
H52	H	-1.294595	0.000007	-0.408301
O53	O	-1.816807	-0.133034	-0.232060
H54	H	-1.758206	-0.223601	-0.257251
O55	O	-1.562817	-0.600940	0.426361
H56	H	-1.651575	-0.664731	0.415440
H57	H	-1.812692	0.097244	-0.249912
O58	O	-1.115540	-0.243315	0.061310
H59	H	-1.184523	-0.211224	-0.019038
O60	O	-1.753291	-0.399418	0.239288
H61	H	-1.742021	-0.334870	0.326212
O62	O	-1.453926	-0.399082	-0.055759
H63	H	-1.357988	-0.436357	-0.076596
O64	O	-1.270788	-0.000006	-0.149585
H65	H	-1.188253	-0.000010	-0.207454
