data_functionalizedCrystal
_audit_creation_method	'MofGen! by Chris Wilmer'
_symmetry_space_group_name_H-M	'P1'
_symmetry_Int_Tables_number	1
_symmetry_cell_setting	triclinic
loop_
_symmetry_equiv_pos_as_xyz
  x,y,z
_cell_length_a	12.759401
_cell_length_b	16.120484
_cell_length_c	12.759393
_cell_angle_alpha	92.862882
_cell_angle_beta	89.981504
_cell_angle_gamma	92.925560
loop_
_atom_site_label
_atom_site_type_symbol
_atom_site_fract_x
_atom_site_fract_y
_atom_site_fract_z
Zn1	Zn	1.584972	-0.331853	-0.615146
Zn2	Zn	1.575923	-0.471291	-0.448359
Zn3	Zn	1.409271	-0.331897	-0.439488
Zn4	Zn	1.400324	-0.471227	-0.623996
O5	O	1.492622	-0.401567	-0.531747
O6	O	1.730792	-0.350358	-0.593030
O7	O	1.553774	-0.452845	-0.300164
O8	O	1.440109	-0.215226	-0.455373
O9	O	1.724144	-0.452803	-0.470492
O10	O	1.569196	-0.215194	-0.584428
O11	O	1.431335	-0.350433	-0.293646
O12	O	1.261064	-0.350370	-0.463955
O13	O	1.424860	-0.452693	-0.769840
O14	O	1.254490	-0.452736	-0.599512
O15	O	1.560520	-0.350296	-0.763338
O16	O	1.545098	-0.587947	-0.479074
O17	O	1.416086	-0.587900	-0.608114
C18	C	1.219656	-0.401551	-0.531732
C19	C	1.102879	-0.401565	-0.531752
C20	C	1.044616	-0.454952	-0.602231
C21	C	0.934891	-0.454962	-0.602243
C22	C	0.941702	-0.348197	-0.461287
C23	C	1.051425	-0.348183	-0.461281
C24	C	1.096069	-0.508334	-0.672701
C25	C	1.037806	-0.561726	-0.743185
C26	C	0.928081	-0.561736	-0.743197
C27	C	0.876620	-0.508355	-0.672725
C28	C	1.478668	-0.618174	-0.545540
C29	C	1.472794	-0.710839	-0.551475
C30	C	1.462076	-0.880500	-0.562334
C31	C	1.523357	-0.921793	-0.501178
C32	C	1.517393	-1.016198	-0.507219
C33	C	1.468038	-0.786086	-0.556293
C34	C	1.766655	-0.401583	-0.531763
C35	C	1.883431	-0.401590	-0.531770
C36	C	1.492701	-0.401483	-0.805775
C37	C	1.492735	-0.401447	-0.922550
C38	C	1.506660	-0.184114	-0.517924
C39	C	1.512642	-0.091448	-0.512033
C40	C	1.563383	-0.348123	-0.974027
C41	C	1.563410	-0.348093	-1.083750
C42	C	1.422138	-0.454717	-1.090507
C43	C	1.422106	-0.454742	-0.980787
C44	C	1.634011	-0.294828	-0.915790
C45	C	1.704666	-0.241501	-0.967268
C46	C	1.704693	-0.241471	-1.076990
C47	C	1.634065	-0.294768	-1.135235
C48	C	1.492608	-0.401590	-0.258781
C49	C	1.492793	-0.401391	-0.141992
H50	H	1.079714	-0.605181	-0.800566
O51	O	1.773358	-0.189783	-1.127122
C52	C	1.838181	-0.237237	-1.193593
H53	H	1.797052	-0.300410	-1.214038
H54	H	1.915439	-0.246413	-1.151900
C55	C	1.910703	-0.113748	-1.269795
C56	C	1.860183	-0.191337	-1.294913
H57	H	1.924280	-0.085435	-1.332292
H58	H	1.867034	-0.081778	-1.225010
H59	H	1.975079	-0.121406	-1.235049
H60	H	1.795803	-0.183678	-1.329646
H61	H	1.903843	-0.223306	-1.339706
O62	O	0.871641	-0.613673	-0.811702
C63	C	0.940590	-0.660767	-0.873914
H64	H	1.018603	-0.663602	-0.831048
H65	H	0.954250	-0.630313	-0.951832
C66	C	0.796252	-0.746034	-0.947172
C67	C	0.892067	-0.749522	-0.894519
H68	H	0.766320	-0.800782	-0.959887
H69	H	0.749799	-0.714304	-0.905262
H70	H	0.807649	-0.720652	-1.012098
H71	H	0.880667	-0.774894	-0.829589
H72	H	0.938517	-0.781258	-0.936419
H73	H	1.405137	-0.916046	-0.619223
H74	H	0.787275	-0.508361	-0.672749
H75	H	0.899793	-0.304737	-0.403912
O76	O	1.591376	-0.879519	-0.433269
C77	C	1.647161	-0.936506	-0.377570
H78	H	1.646940	-0.998573	-0.424502
H79	H	1.608145	-0.945813	-0.298332
C80	C	1.761370	-0.826108	-0.302723
C81	C	1.761106	-0.902338	-0.360370
H82	H	1.831656	-0.805032	-0.292109
H83	H	1.723785	-0.787715	-0.340246
H84	H	1.728852	-0.833875	-0.236698
H85	H	1.793612	-0.894569	-0.426398
H86	H	1.798700	-0.940730	-0.322858
O87	O	1.773408	-0.189770	-0.910811
C88	C	1.876951	-0.208003	-0.938768
H89	H	1.877081	-0.240030	-1.020468
H90	H	1.909554	-0.250884	-0.879741
C91	C	1.945680	-0.087394	-0.838335
C92	C	1.945840	-0.126724	-0.938684
H93	H	1.988176	-0.037258	-0.838279
H94	H	1.875922	-0.075111	-0.819496
H95	H	1.972846	-0.123137	-0.789157
H96	H	1.918662	-0.090985	-0.987858
H97	H	2.015596	-0.138998	-0.957532
O98	O	1.353643	-0.506465	-1.147244
C99	C	1.368805	-0.494995	-1.255124
H100	H	1.451651	-0.467690	-1.268378
H101	H	1.309362	-0.450590	-1.283444
C102	C	1.252002	-0.612873	-1.300528
C103	C	1.353758	-0.579343	-1.316808
H104	H	1.242716	-0.664901	-1.338579
H105	H	1.241783	-0.620599	-1.227847
H106	H	1.202477	-0.575861	-1.324128
H107	H	1.403280	-0.616350	-1.293196
H108	H	1.363985	-0.571625	-1.389486
O109	O	1.353463	-0.506636	-0.930943
C110	C	1.291130	-0.553669	-1.005869
H111	H	1.333987	-0.556524	-1.084275
H112	H	1.213296	-0.523151	-1.015580
C113	C	1.217652	-0.638909	-0.872386
C114	C	1.270294	-0.642421	-0.968683
H115	H	1.204795	-0.693655	-0.849446
H116	H	1.259644	-0.607220	-0.821905
H117	H	1.152797	-0.613474	-0.880491
H118	H	1.335153	-0.667847	-0.960573
H119	H	1.228313	-0.674117	-1.019161
H120	H	1.634081	-0.294729	-1.224577
O121	O	1.107867	-0.296305	-0.392709
C122	C	1.038927	-0.249185	-0.330519
H123	H	0.958514	-0.283335	-0.328993
H124	H	1.031346	-0.185901	-0.365087
C125	C	1.181253	-0.195129	-0.219826
C126	C	1.082490	-0.237075	-0.217944
H127	H	1.208125	-0.187655	-0.150385
H128	H	1.227700	-0.226872	-0.261726
H129	H	1.174922	-0.142397	-0.248637
H130	H	1.088824	-0.289810	-0.189146
H131	H	1.036044	-0.205341	-0.176036
H132	H	1.185412	-0.508333	-0.672697
H133	H	1.634000	-0.294848	-0.826449
