data_functionalizedCrystal
_audit_creation_method	'MofGen! by Chris Wilmer'
_symmetry_space_group_name_H-M	'P1'
_symmetry_Int_Tables_number	1
_symmetry_cell_setting	triclinic
loop_
_symmetry_equiv_pos_as_xyz
  x,y,z
_cell_length_a	17.699077
_cell_length_b	17.699104
_cell_length_c	16.176319
_cell_angle_alpha	89.992259
_cell_angle_beta	89.993140
_cell_angle_gamma	83.286047
loop_
_atom_site_label
_atom_site_type_symbol
_atom_site_fract_x
_atom_site_fract_y
_atom_site_fract_z
O1	O	1.004089	0.095691	-0.068737
O2	O	0.783711	0.108148	-0.068742
O3	O	0.900118	-0.008269	-0.068732
O4	O	0.887682	0.212107	-0.068747
O5	O	0.900102	-0.008276	0.068761
O6	O	0.783695	0.108140	0.068752
O7	O	1.004073	0.095683	0.068756
Cu8	Cu	0.893882	0.101911	0.081308
Cu9	Cu	0.893901	0.101920	-0.081294
O10	O	0.887666	0.212100	0.068746
C11	C	0.755506	0.107698	0.000005
C12	C	0.671487	0.106362	0.000003
C13	C	0.899661	-0.036469	0.000015
C14	C	0.898317	-0.120487	0.000015
C15	C	0.632011	0.105728	0.074952
C16	C	0.553068	0.104460	0.074953
C17	C	0.513603	0.103831	0.000004
C18	C	0.553085	0.104463	-0.074950
C19	C	0.632027	0.105725	-0.074950
C20	C	0.234721	0.099369	-0.074951
C21	C	0.155773	0.098109	-0.074945
C22	C	0.155763	0.098104	0.074951
C23	C	0.234705	0.099366	0.074951
C24	C	0.274180	0.099994	-0.000002
C25	C	0.359779	0.101367	-0.000003
C26	C	0.428005	0.102463	0.000003
C27	C	1.032278	0.096133	0.000008
C28	C	1.116296	0.097469	0.000004
C29	C	0.959061	-0.645359	-0.000007
C30	C	0.960320	-0.566415	0.000000
C31	C	0.891984	-0.517796	0.000001
C32	C	0.822385	-0.548125	0.000002
C33	C	0.821127	-0.627067	0.000001
C34	C	0.827458	-0.229759	0.000009
C35	C	0.828722	-0.150811	0.000008
C36	C	0.966651	-0.169107	0.000009
C37	C	0.965393	-0.248049	0.000007
C38	C	0.895794	-0.278371	0.000013
C39	C	0.894430	-0.363971	0.000007
C40	C	0.893348	-0.432198	0.000001
C41	C	0.888122	0.240300	-0.000002
C42	C	0.889467	0.324318	-0.000008
N43	N	0.893875	0.101904	0.195673
N44	N	0.893915	0.101920	-0.195659
C45	C	0.945435	0.050376	0.238942
C46	C	0.945439	0.050375	0.325489
C47	C	0.893885	0.101907	0.368766
C48	C	0.842319	0.153438	0.325491
C49	C	0.842312	0.153434	0.238946
C50	C	0.842345	0.153452	0.674520
C51	C	0.842357	0.153453	0.761071
C52	C	0.945472	0.050393	0.761063
C53	C	0.945465	0.050390	0.674517
C54	C	0.893896	0.101917	0.631250
C55	C	0.893892	0.101917	0.537406
C56	C	0.893893	0.101912	0.462608
H57	H	0.664138	0.106246	0.135983
H58	H	0.987459	0.008434	0.796300
H59	H	0.766746	-0.508533	0.000008
O60	O	0.670426	0.106210	-0.147735
C61	C	0.724794	0.041427	-0.152207
H62	H	0.707076	-0.004753	-0.109671
H63	H	0.782656	0.057196	-0.132074
C64	C	0.751717	0.068458	-0.293993
C65	C	0.729952	0.011737	-0.241754
H66	H	0.754902	0.050146	-0.349230
H67	H	0.715091	0.112106	-0.290979
H68	H	0.799934	0.081594	-0.277205
H69	H	0.681732	-0.001391	-0.258536
H70	H	0.766571	-0.031913	-0.244773
H71	H	0.987419	0.008416	0.203711
O72	O	1.025513	-0.692476	0.000027
C73	C	1.087207	-0.648779	0.000009
H74	H	1.067882	-0.589829	0.026042
H75	H	1.108554	-0.643186	-0.065952
C76	C	1.175605	-0.760639	0.021956
C77	C	1.151870	-0.688237	0.053936
H78	H	1.215494	-0.784979	0.055217
H79	H	1.134041	-0.790079	0.021965
H80	H	1.193388	-0.755967	-0.033011
H81	H	1.134078	-0.692910	0.108898
H82	H	1.193433	-0.658798	0.053938
O83	O	0.792200	0.203564	0.197040
C84	C	0.746686	0.249037	0.253794
H85	H	0.777719	0.249857	0.315479
H86	H	0.690511	0.224532	0.263017
C87	C	0.692818	0.329697	0.144239
C88	C	0.730936	0.330709	0.220000
H89	H	0.683099	0.380076	0.123394
H90	H	0.723479	0.299060	0.106003
H91	H	0.646010	0.309273	0.151936
H92	H	0.777748	0.351125	0.212301
H93	H	0.700282	0.361352	0.258235
H94	H	0.266833	0.099882	0.135982
H95	H	1.023322	-0.144410	-0.000007
H96	H	0.764457	-0.651754	0.000007
H97	H	0.987447	0.008430	0.639284
O98	O	0.514833	0.103884	0.147832
C99	C	0.566596	0.104697	0.213982
H100	H	0.619693	0.129549	0.192004
H101	H	0.583043	0.044136	0.237038
C102	C	0.463984	0.123295	0.311780
C103	C	0.529195	0.153826	0.284788
H104	H	0.440913	0.153598	0.355458
H105	H	0.429110	0.122745	0.267214
H106	H	0.477699	0.072829	0.330987
H107	H	0.515478	0.204288	0.265571
H108	H	0.564066	0.154386	0.329352
O109	O	0.273181	0.099958	-0.147684
C110	C	0.351318	0.101225	-0.131622
H111	H	0.365276	0.077437	-0.067210
H112	H	0.365667	0.162280	-0.135175
C113	C	0.381287	0.081485	-0.275397
C114	C	0.398432	0.052262	-0.196288
H115	H	0.410350	0.051285	-0.315288
H116	H	0.328644	0.080634	-0.286220
H117	H	0.393245	0.132364	-0.278346
H118	H	0.386465	0.001388	-0.193337
H119	H	0.451074	0.053103	-0.185466
O120	O	0.792197	0.203538	0.802984
C121	C	0.746690	0.249028	0.746238
H122	H	0.745887	0.217998	0.684551
H123	H	0.771152	0.305227	0.737017
C124	C	0.666009	0.302832	0.855804
C125	C	0.665017	0.264718	0.780040
H126	H	0.615629	0.312514	0.876655
H127	H	0.696669	0.272187	0.894035
H128	H	0.686397	0.349660	0.848109
H129	H	0.644637	0.217887	0.787737
H130	H	0.634351	0.295356	0.741810
O131	O	1.027878	-0.536873	-0.000114
C132	C	1.032747	-0.491761	-0.071331
H133	H	0.973059	-0.471986	-0.095067
H134	H	1.066294	-0.526693	-0.121199
C135	C	1.146689	-0.446300	-0.020548
C136	C	1.073378	-0.422005	-0.049696
H137	H	1.171754	-0.403273	-0.007205
H138	H	1.143410	-0.476694	0.027431
H139	H	1.174635	-0.475410	-0.062109
H140	H	1.045430	-0.392904	-0.008132
H141	H	1.076653	-0.391604	-0.097668
H142	H	0.123613	0.097589	0.135982
O143	O	0.762267	-0.103689	0.000051
C144	C	0.700567	-0.147378	0.000036
H145	H	0.719882	-0.206336	0.026067
H146	H	0.679229	-0.152954	-0.065924
C147	C	0.612178	-0.035516	0.021989
C148	C	0.635900	-0.107926	0.053967
H149	H	0.572286	-0.011179	0.055252
H150	H	0.653746	-0.006080	0.021995
H151	H	0.594401	-0.040172	-0.032978
H152	H	0.653685	-0.103268	0.108928
H153	H	0.594333	-0.137360	0.053971
H154	H	0.987423	0.008417	0.360718
H155	H	1.021039	-0.287632	0.000003
O156	O	0.759899	-0.259293	-0.000106
C157	C	0.755042	-0.304384	-0.071327
H158	H	0.814735	-0.324156	-0.095061
H159	H	0.721507	-0.269436	-0.121193
C160	C	0.641086	-0.349853	-0.020551
C161	C	0.714402	-0.374143	-0.049698
H162	H	0.616015	-0.392882	-0.007211
H163	H	0.644356	-0.319472	0.027431
H164	H	0.613150	-0.320729	-0.062111
H165	H	0.742340	-0.403257	-0.008134
H166	H	0.711136	-0.404530	-0.097672
O167	O	0.792365	0.203547	0.632411
C168	C	0.832811	0.250200	0.582350
H169	H	0.892082	0.219973	0.569367
H170	H	0.837865	0.306126	0.615701
C171	C	0.717301	0.303572	0.516101
C172	C	0.790096	0.266444	0.500148
H173	H	0.690951	0.313595	0.465396
H174	H	0.690051	0.272143	0.549829
H175	H	0.721523	0.350173	0.543895
H176	H	0.785873	0.219840	0.472364
H177	H	0.817345	0.297865	0.466413
H178	H	0.123642	0.097596	-0.135981
H179	H	0.520946	0.103945	-0.135974
H180	H	0.800339	0.195394	0.360732
