data_functionalizedCrystal
_audit_creation_method	'MofGen! by Chris Wilmer'
_symmetry_space_group_name_H-M	'P1'
_symmetry_Int_Tables_number	1
_symmetry_cell_setting	triclinic
loop_
_symmetry_equiv_pos_as_xyz
  x,y,z
_cell_length_a	9.065215
_cell_length_b	15.995300
_cell_length_c	8.140239
_cell_angle_alpha	90.001029
_cell_angle_beta	89.997810
_cell_angle_gamma	84.243252
loop_
_atom_site_label
_atom_site_type_symbol
_atom_site_fract_x
_atom_site_fract_y
_atom_site_fract_z
O1	O	1.957471	0.122761	-0.136575
O2	O	1.527945	0.132834	-0.136581
O3	O	1.754488	0.005996	-0.136586
O4	O	1.730928	0.249599	-0.136570
O5	O	1.754475	0.005995	0.136641
O6	O	1.527932	0.132833	0.136646
O7	O	1.957458	0.122760	0.136652
Zn8	Zn	1.742693	0.127796	0.180029
Zn9	Zn	1.742710	0.127798	-0.179959
O10	O	1.730915	0.249597	0.136657
C11	C	1.472975	0.131866	0.000031
C12	C	1.309201	0.128973	0.000028
C13	C	1.753521	-0.025207	0.000022
C14	C	1.750640	-0.118182	0.000005
C15	C	1.745320	-0.288405	0.000021
C16	C	1.906623	-0.334648	0.000020
C17	C	1.903680	-0.431359	0.000646
C18	C	1.740083	-0.456001	0.000035
C19	C	1.660048	-0.415474	0.155752
C20	C	1.664130	-0.318810	0.155876
C21	C	1.661756	-0.318550	-0.154845
C22	C	1.661771	-0.415495	-0.156886
C23	C	1.737116	-0.550719	0.000048
C24	C	1.748283	-0.193687	0.000019
C25	C	2.012428	0.123728	0.000035
C26	C	2.176202	0.126621	0.000028
C27	C	1.731882	0.280801	0.000045
C28	C	1.734763	0.373775	0.000051
N29	N	1.742693	0.127794	0.425712
N30	N	1.742722	0.127793	-0.425642
H31	H	1.966570	-0.459346	-0.110951
C32	C	1.500631	-0.437431	-0.170209
N33	N	1.379253	-0.453950	-0.180229
C34	C	1.992885	-0.307512	0.150659
N35	N	2.057851	-0.287073	0.264126
C36	C	1.733514	-0.290319	-0.314345
N37	N	1.787579	-0.269057	-0.434472
H38	H	1.721799	-0.300053	0.272720
H39	H	1.545683	-0.287434	0.162520
C40	C	1.734207	-0.453227	0.312902
N41	N	1.790070	-0.481663	0.431265
C42	C	1.988244	-0.468341	0.152340
N43	N	2.051933	-0.496194	0.266609
H44	H	1.720217	-0.442392	-0.272087
H45	H	1.542822	-0.287681	-0.156331
C46	C	1.497643	-0.435736	0.162969
N47	N	1.375315	-0.450993	0.168394
H48	H	1.971443	-0.315678	-0.111644
