data_functionalizedCrystal
_audit_creation_method	'MofGen! by Chris Wilmer'
_symmetry_space_group_name_H-M	'P1'
_symmetry_Int_Tables_number	1
_symmetry_cell_setting	triclinic
loop_
_symmetry_equiv_pos_as_xyz
  x,y,z
_cell_length_a	17.699083
_cell_length_b	10.489716
_cell_length_c	16.776229
_cell_angle_alpha	89.997416
_cell_angle_beta	89.998886
_cell_angle_gamma	83.906075
loop_
_atom_site_label
_atom_site_type_symbol
_atom_site_fract_x
_atom_site_fract_y
_atom_site_fract_z
O1	O	1.005125	0.161298	-0.066169
O2	O	0.784883	0.182283	-0.066194
O3	O	0.900025	-0.013903	-0.066184
O4	O	0.889983	0.357483	-0.066180
O5	O	0.900010	-0.013915	0.066392
O6	O	0.784868	0.182271	0.066382
O7	O	1.005110	0.161286	0.066407
Zn8	Zn	0.894986	0.171776	0.087444
Zn9	Zn	0.895007	0.171792	-0.087231
O10	O	0.889967	0.357471	0.066397
C11	C	0.756673	0.181525	0.000090
C12	C	0.672641	0.179269	0.000080
C13	C	0.624767	0.294426	0.000082
C14	C	0.545810	0.292299	0.000092
C15	C	0.514728	0.175013	0.000095
C16	C	0.562608	0.059847	0.000096
C17	C	0.641563	0.061976	0.000092
C18	C	0.244189	0.051261	0.000116
C19	C	0.165227	0.049141	0.000118
C20	C	0.148436	0.281583	0.000117
C21	C	0.227391	0.283712	0.000112
C22	C	0.275264	0.168547	0.000117
C23	C	0.360878	0.170855	0.000107
C24	C	0.429115	0.172704	0.000099
C25	C	0.899263	-0.061427	0.000102
C26	C	0.897006	-0.203016	0.000094
C27	C	0.967614	-0.302002	0.000109
C28	C	0.930311	-0.378664	-0.065260
C29	C	0.930279	-0.378639	0.065450
C30	C	0.859731	-0.277813	-0.065329
C31	C	0.859710	-0.277783	0.065439
C32	C	0.822355	-0.354395	0.000054
C33	C	1.033319	0.162043	0.000121
C34	C	1.117352	0.164299	0.000125
C35	C	0.890730	0.404995	0.000109
C36	C	0.892987	0.546584	0.000112
N37	N	0.894978	0.171765	0.206655
N38	N	0.895021	0.171793	-0.206443
C39	C	0.945979	0.084929	0.248377
C40	C	0.945983	0.084928	0.331829
C41	C	0.894989	0.171770	0.373558
C42	C	0.843983	0.258609	0.331831
C43	C	0.843976	0.258603	0.248380
C44	C	0.844010	0.258634	0.668378
C45	C	0.844023	0.258636	0.751834
C46	C	0.946018	0.084959	0.751827
C47	C	0.946010	0.084953	0.668376
C48	C	0.895002	0.171788	0.626656
C49	C	0.894997	0.171786	0.536168
C50	C	0.894997	0.171778	0.464045
H51	H	0.650067	0.389933	0.000079
O52	O	1.000993	-0.008734	0.376825
H53	H	0.992426	0.005844	0.441864
H54	H	0.987537	0.014243	0.634403
H55	H	0.283158	-0.042514	0.000120
H56	H	0.960094	-0.422671	0.120713
O57	O	1.000976	-0.008741	0.203370
H58	H	1.036435	-0.069133	0.246405
H59	H	0.802479	0.329340	0.634416
H60	H	0.680542	-0.031797	0.000090
H61	H	1.029032	-0.278467	0.000050
H62	H	0.829923	-0.233717	0.120701
O63	O	0.788983	0.352283	0.376832
H64	H	0.797562	0.337712	0.441871
O65	O	0.788972	0.352266	0.203374
H66	H	0.753519	0.412664	0.246409
O67	O	0.969806	-0.437016	-0.138451
H68	H	0.941072	-0.395051	-0.192662
O69	O	0.260918	0.410211	0.000121
H70	H	0.214362	0.489932	0.000135
O71	O	0.096802	0.405806	0.000129
H72	H	0.036677	0.384630	0.000144
H73	H	0.506834	0.386071	0.000093
O74	O	0.820287	-0.219733	-0.138624
H75	H	0.822322	-0.114343	-0.138072
O76	O	0.131701	-0.077367	0.000126
H77	H	0.096125	-0.083878	0.054161
H78	H	0.987550	0.014249	0.785804
O79	O	0.789027	0.352328	0.796838
H80	H	0.729937	0.336205	0.780843
O81	O	0.529090	-0.066659	0.000102
H82	H	0.466144	-0.048795	0.000098
H83	H	0.760891	-0.377683	0.000012
