data_functionalizedCrystal
_audit_creation_method	'MofGen! by Chris Wilmer'
_symmetry_space_group_name_H-M	'P1'
_symmetry_Int_Tables_number	1
_symmetry_cell_setting	triclinic
loop_
_symmetry_equiv_pos_as_xyz
  x,y,z
_cell_length_a	19.188905
_cell_length_b	14.044220
_cell_length_c	12.503572
_cell_angle_alpha	86.156832
_cell_angle_beta	86.486933
_cell_angle_gamma	91.838284
loop_
_atom_site_label
_atom_site_type_symbol
_atom_site_fract_x
_atom_site_fract_y
_atom_site_fract_z
O1	O	0.937474	-0.112684	-0.089503
O2	O	1.437474	0.387316	0.410497
O3	O	0.735189	-0.128637	-0.089466
O4	O	1.235189	0.371363	0.410534
O5	O	0.833295	0.017311	-0.089473
O6	O	1.333295	0.517311	0.410527
O7	O	0.839368	-0.258631	-0.089496
O8	O	1.339368	0.241369	0.410504
O9	O	0.825918	0.006316	0.089169
O10	O	1.325918	0.506316	0.589169
O11	O	0.727811	-0.139631	0.089176
O12	O	1.227811	0.360369	0.589176
O13	O	0.930097	-0.123678	0.089140
O14	O	1.430097	0.376322	0.589140
Cu15	Cu	0.828281	-0.132658	0.105469
Cu16	Cu	1.328281	0.367342	0.605469
Cu17	Cu	0.837005	-0.119656	-0.105796
Cu18	Cu	1.337005	0.380344	0.394204
O19	O	0.831991	-0.269626	0.089147
O20	O	1.331991	0.230374	0.589147
C21	C	0.705455	-0.133622	-0.000140
C22	C	1.205455	0.366378	0.499860
C23	C	0.627850	-0.132084	-0.000126
C24	C	1.127850	0.367916	0.499874
C25	C	0.595432	-0.125352	-0.097507
C26	C	1.095432	0.374648	0.402493
C27	C	0.522515	-0.123895	-0.097520
C28	C	1.022515	0.376105	0.402480
C29	C	0.482019	-0.129151	-0.000147
C30	C	0.982019	0.370849	0.499853
C31	C	0.514445	-0.135889	0.097246
C32	C	1.014445	0.364111	0.597246
C33	C	0.587361	-0.137356	0.097257
C34	C	1.087361	0.362644	0.597257
N35	N	0.366378	-0.077382	0.072323
N36	N	0.866378	0.422618	0.572323
N37	N	0.297111	-0.075987	0.072306
N38	N	0.797111	0.424013	0.572306
C39	C	0.262329	-0.124735	-0.000173
C40	C	0.762329	0.375265	0.499827
N41	N	0.299430	-0.174918	-0.072651
N42	N	0.799430	0.325082	0.427349
N43	N	0.368703	-0.176309	-0.072637
N44	N	0.868703	0.323691	0.427363
C45	C	0.402954	-0.127562	-0.000148
C46	C	0.902954	0.372438	0.499852
C47	C	0.150846	-0.116423	-0.097575
C48	C	0.650846	0.383577	0.402425
C49	C	0.077927	-0.114972	-0.097584
C50	C	0.577927	0.385028	0.402416
C51	C	0.069859	-0.126958	0.097186
C52	C	0.569859	0.373042	0.597186
C53	C	0.142776	-0.128418	0.097192
C54	C	0.642776	0.371582	0.597192
C55	C	0.183265	-0.123146	-0.000191
C56	C	0.683265	0.376854	0.499809
C57	C	0.826948	0.047117	-0.000151
C58	C	1.326948	0.547117	0.499849
C59	C	0.819019	0.152308	-0.000148
C60	C	1.319019	0.652308	0.499852
C61	C	0.959831	-0.118693	-0.000188
C62	C	1.459831	0.381307	0.499812
C63	C	1.037436	-0.120230	-0.000210
C64	C	1.537436	0.379770	0.499790
N65	N	0.822150	-0.141803	0.254062
N66	N	1.322150	0.358197	0.754062
C67	C	0.838338	-0.299431	-0.000178
C68	C	1.338338	0.200569	0.499822
C69	C	0.846267	-0.404623	-0.000188
C70	C	1.346267	0.095377	0.499812
C71	C	0.804524	0.344909	-0.000161
C72	C	1.304524	0.844909	0.499839
C73	C	0.860759	0.402783	-0.000175
C74	C	1.360759	0.902783	0.499825
C75	C	0.852694	0.509952	-0.000182
C76	C	1.352694	1.009952	0.499818
C77	C	0.812588	0.237729	-0.000154
C78	C	1.312588	0.737729	0.499846
N79	N	0.843141	-0.110505	-0.254389
N80	N	1.343141	0.389495	0.245611
C81	C	0.813131	-0.155262	0.473178
C82	C	1.313131	0.344738	0.973178
C83	C	0.852158	-0.097048	0.526502
C84	C	1.352158	0.402952	1.026502
C85	C	0.847140	-0.104537	0.648426
C86	C	1.347140	0.395463	1.148426
C87	C	0.818148	-0.147774	0.351243
C88	C	1.318148	0.352226	0.851243
H89	H	0.496115	-0.118414	-0.176822
H90	H	0.996115	0.381586	0.323178
H91	H	0.750326	0.375846	-0.000154
H92	H	1.250326	0.875846	0.499846
N93	N	0.763883	-0.228726	0.533986
N94	N	1.263883	0.271274	1.033986
H95	H	0.767236	-0.223729	0.613726
H96	H	1.267236	0.276271	1.113726
H97	H	0.777013	-0.294707	0.514391
H98	H	1.277013	0.205293	1.014391
N99	N	0.901410	-0.023579	0.465694
N100	N	1.401410	0.476421	0.965694
H101	H	0.898062	-0.028574	0.385953
H102	H	1.398062	0.471426	0.885953
H103	H	0.950830	-0.035427	0.485267
H104	H	1.450830	0.464573	0.985267
H105	H	0.481469	-0.140171	0.176528
H106	H	0.981469	0.359829	0.676528
N107	N	0.639102	-0.119662	-0.202537
N108	N	1.139102	0.380338	0.297463
H109	H	0.607496	-0.115174	-0.264230
H110	H	1.107496	0.384826	0.235770
H111	H	0.667522	-0.178739	-0.206788
H112	H	1.167522	0.321261	0.293212
N113	N	0.194517	-0.110749	-0.202607
N114	N	0.694517	0.389251	0.297393
H115	H	0.222943	-0.169818	-0.206946
H116	H	0.722943	0.330182	0.293054
H117	H	0.226915	-0.052321	-0.206878
H118	H	0.726915	0.447679	0.293122
N119	N	0.622331	-0.144621	0.202293
N120	N	1.122331	0.355379	0.702293
H121	H	0.585616	-0.147735	0.263980
H122	H	1.085616	0.352265	0.763980
H123	H	0.654417	-0.086758	0.206547
H124	H	1.154417	0.413242	0.706547
N125	N	0.932554	0.361799	-0.000168
N126	N	1.432554	0.861799	0.499832
H127	H	0.956033	0.379936	0.066054
H128	H	1.456033	0.879936	0.566054
H129	H	0.961462	0.388078	-0.066436
H130	H	1.461462	0.888078	0.433564
H131	H	0.169171	-0.133894	0.176490
H132	H	0.669171	0.366106	0.676490
H133	H	0.051534	-0.109496	-0.176886
H134	H	0.551534	0.390504	0.323114
H135	H	0.036888	-0.131244	0.176469
H136	H	0.536888	0.368756	0.676469
