data_functionalizedCrystal
_audit_creation_method	'MofGen! by Chris Wilmer'
_symmetry_space_group_name_H-M	'P1'
_symmetry_Int_Tables_number	1
_symmetry_cell_setting	triclinic
loop_
_symmetry_equiv_pos_as_xyz
  x,y,z
_cell_length_a	10.654558
_cell_length_b	14.519709
_cell_length_c	9.130313
_cell_angle_alpha	89.997798
_cell_angle_beta	90.000369
_cell_angle_gamma	84.084231
loop_
_atom_site_label
_atom_site_type_symbol
_atom_site_fract_x
_atom_site_fract_y
_atom_site_fract_z
O1	O	1.666582	0.129565	-0.121782
O2	O	1.300986	0.141898	-0.121790
O3	O	1.493478	0.001543	-0.121773
O4	O	1.474091	0.269919	-0.121800
O5	O	1.493475	0.001547	0.121826
O6	O	1.300984	0.141901	0.121809
O7	O	1.666580	0.129568	0.121816
Cu8	Cu	1.483782	0.135735	0.144055
Cu9	Cu	1.483785	0.135731	-0.144029
O10	O	1.474089	0.269923	0.121799
C11	C	1.254196	0.140992	0.000008
C12	C	1.114780	0.138278	0.000006
C13	C	0.918279	0.134461	-0.132780
C14	C	1.049277	0.137003	-0.132781
C15	C	1.049279	0.137002	0.132803
C16	C	0.918284	0.134454	0.132804
C17	C	0.852782	0.133195	-0.265576
C18	C	0.918274	0.134470	-0.398374
C19	C	1.049272	0.137011	-0.398376
C20	C	1.114778	0.138279	-0.265579
C21	C	1.492573	-0.032819	0.000027
C22	C	1.489865	-0.135215	0.000028
C23	C	1.479898	-0.510162	-0.000011
C24	C	1.482666	-0.405840	0.000000
C25	C	1.484882	-0.322692	0.000010
C26	C	1.487650	-0.218363	0.000018
C27	C	1.713370	0.130474	0.000015
C28	C	1.852787	0.133188	0.000008
C29	C	1.474993	0.304286	-0.000004
C30	C	1.477701	0.406681	-0.000014
N31	N	1.483789	0.135738	0.346678
N32	N	1.483787	0.135721	-0.346651
C33	C	1.569046	0.073610	0.423337
C34	C	1.569042	0.073599	0.576674
C35	C	1.398521	0.197852	0.576678
C36	C	1.398520	0.197857	0.423344
C37	C	1.654315	0.011491	0.346671
C38	C	1.739580	-0.050641	0.423331
C39	C	1.739576	-0.050652	0.576667
C40	C	1.654308	0.011469	0.653344
H41	H	0.746116	0.131128	-0.265589
C42	C	1.833353	-0.118982	0.338983
N43	N	1.903981	-0.170461	0.275454
C44	C	1.833350	-0.119010	0.660989
N45	N	1.903985	-0.170500	0.724497
H46	H	1.654304	0.011448	0.778202
H47	H	1.329101	0.248429	0.639119
H48	H	0.864932	0.133431	-0.506492
H49	H	1.102594	0.138040	-0.506506
C50	C	1.258880	0.141078	-0.265589
N51	N	1.367415	0.143194	-0.265598
H52	H	1.102624	0.138036	0.240920
H53	H	0.864956	0.133434	0.240931
H54	H	1.654328	0.011496	0.221816
H55	H	1.329095	0.248447	0.360927
