data_functionalizedCrystal
_audit_creation_method	'MofGen! by Chris Wilmer'
_symmetry_space_group_name_H-M	'P1'
_symmetry_Int_Tables_number	1
_symmetry_cell_setting	triclinic
loop_
_symmetry_equiv_pos_as_xyz
  x,y,z
_cell_length_a	10.654556
_cell_length_b	14.971486
_cell_length_c	13.448316
_cell_angle_alpha	90.002892
_cell_angle_beta	90.003272
_cell_angle_gamma	84.050833
loop_
_atom_site_label
_atom_site_type_symbol
_atom_site_fract_x
_atom_site_fract_y
_atom_site_fract_z
O1	O	1.666490	0.125656	0.082655
O2	O	2.166490	0.625656	0.582655
O3	O	1.300884	0.137619	0.082665
O4	O	1.800884	0.637619	0.582665
O5	O	1.493486	0.001491	0.082653
O6	O	1.993486	0.501491	0.582653
O7	O	1.473888	0.261784	0.082667
O8	O	1.973888	0.761784	0.582667
O9	O	1.493467	0.001492	-0.082731
O10	O	1.993467	0.501492	0.417269
O11	O	1.300865	0.137620	-0.082719
O12	O	1.800865	0.637620	0.417281
O13	O	1.666471	0.125657	-0.082729
O14	O	2.166471	0.625657	0.417271
Cu15	Cu	1.483666	0.131639	-0.097825
Cu16	Cu	1.983666	0.631639	0.402175
Cu17	Cu	1.483689	0.131637	0.097761
Cu18	Cu	1.983689	0.631637	0.597761
O19	O	1.473869	0.261785	-0.082716
O20	O	1.973869	0.761785	0.417284
C21	C	1.254086	0.136740	-0.000026
C22	C	1.754086	0.636740	0.499974
C23	C	1.114671	0.134108	-0.000022
C24	C	1.614671	0.634108	0.499978
C25	C	0.918176	0.130402	0.090121
C26	C	1.418176	0.630402	0.590121
C27	C	1.049172	0.132869	0.090127
C28	C	1.549172	0.632869	0.590127
C29	C	1.049170	0.132871	-0.090183
C30	C	1.549170	0.632871	0.409817
C31	C	0.918178	0.130397	-0.090188
C32	C	1.418178	0.630397	0.409812
C33	C	1.492600	-0.031838	-0.000039
C34	C	1.992600	0.468162	0.499961
C35	C	1.489973	-0.131150	-0.000038
C36	C	1.989973	0.368850	0.499962
C37	C	1.603122	-0.187757	-0.000042
C38	C	2.103122	0.312243	0.499958
C39	C	1.600647	-0.281070	-0.000032
C40	C	2.100647	0.218930	0.499968
C41	C	1.485021	-0.317774	-0.000025
C42	C	1.985021	0.182226	0.499975
C43	C	1.371864	-0.261159	-0.000018
C44	C	1.871864	0.238841	0.499982
C45	C	1.374341	-0.167848	-0.000021
C46	C	1.874341	0.332152	0.499979
C47	C	1.366710	-0.455649	-0.000014
C48	C	1.866710	0.044351	0.499986
C49	C	1.364233	-0.548967	-0.000013
C50	C	1.864233	-0.048967	0.499987
C51	C	1.593016	-0.568872	-0.000025
C52	C	2.093016	-0.068872	0.499975
C53	C	1.595492	-0.475561	-0.000028
C54	C	2.095492	0.024439	0.499972
C55	C	1.482335	-0.418952	-0.000023
C56	C	1.982335	0.081048	0.499977
C57	C	1.713269	0.126536	-0.000036
C58	C	2.213269	0.626536	0.499964
C59	C	1.852683	0.129167	-0.000033
C60	C	2.352683	0.629167	0.499967
C61	C	1.474755	0.295114	-0.000023
C62	C	1.974755	0.795114	0.499977
C63	C	1.477381	0.394425	-0.000017
C64	C	1.977381	0.894425	0.499983
N65	N	1.483659	0.131639	-0.235389
N66	N	1.983659	0.631639	0.264611
C67	C	1.407464	0.076873	-0.712638
C68	C	1.907464	0.576873	-0.212638
C69	C	1.407460	0.076870	-0.608534
C70	C	1.907460	0.576870	-0.108534
C71	C	1.483691	0.131630	-0.556470
C72	C	1.983691	0.631630	-0.056470
C73	C	1.559941	0.186388	-0.608515
C74	C	2.059941	0.686388	-0.108515
C75	C	1.559951	0.186386	-0.712616
C76	C	2.059951	0.686386	-0.212616
C77	C	1.559912	0.186392	-0.391535
C78	C	2.059912	0.686392	0.108465
C79	C	1.559901	0.186396	-0.287426
C80	C	2.059901	0.686396	0.212574
C81	C	1.407421	0.076876	-0.287453
C82	C	1.907421	0.576876	0.212547
C83	C	1.407431	0.076874	-0.391554
C84	C	1.907431	0.576874	0.108446
C85	C	1.483680	0.131634	-0.443592
C86	C	1.983680	0.631634	0.056408
N87	N	1.483705	0.131630	0.235325
N88	N	1.983705	0.631630	0.735325
H89	H	0.864852	0.129391	-0.163607
H90	H	1.364852	0.629391	0.336393
H91	H	1.102491	0.133874	0.163540
H92	H	1.602491	0.633874	0.663540
H93	H	1.270081	-0.578847	-0.000024
H94	H	1.770081	-0.078847	0.499976
F95	F	1.641070	0.244670	-0.446914
F96	F	2.141070	0.744670	0.053086
F97	F	1.641078	0.244663	-0.553102
F98	F	2.141078	0.744663	-0.053102
H99	H	1.689644	-0.445680	-0.000041
H100	H	2.189644	0.054320	0.499959
F101	F	1.641072	0.244650	-0.232018
F102	F	2.141072	0.744650	0.267982
H103	H	1.622035	0.230974	-0.754984
H104	H	2.122035	0.730974	-0.254984
H105	H	0.864855	0.129400	0.163531
H106	H	1.364855	0.629400	0.663531
F107	F	1.118883	0.134186	-0.186127
F108	F	1.618883	0.634186	0.313873
H109	H	1.697277	-0.157881	-0.000054
H110	H	2.197277	0.342119	0.499946
F111	F	1.721075	-0.341313	-0.000038
F112	F	2.221075	0.158687	0.499962
H113	H	1.685153	-0.614968	-0.000026
H114	H	2.185153	-0.114968	0.499974
F115	F	1.246274	-0.395404	-0.000007
F116	F	1.746274	0.104596	0.499993
F117	F	1.253913	-0.107601	-0.000014
F118	F	1.753913	0.392399	0.499986
F119	F	1.326321	0.018594	-0.768039
F120	F	1.826321	0.518594	-0.268039
F121	F	1.248807	-0.300224	0.000000
F122	F	1.748807	0.199776	0.500000
F123	F	1.326288	0.018600	-0.446963
F124	F	1.826288	0.518600	0.053037
H125	H	1.345380	0.032279	-0.566170
H126	H	1.845380	0.532279	-0.066170
F127	F	1.326270	0.018596	-0.232070
F128	F	1.826270	0.518596	0.267930
