data_functionalizedCrystal
_audit_creation_method	'MofGen! by Chris Wilmer'
_symmetry_space_group_name_H-M	'P1'
_symmetry_Int_Tables_number	1
_symmetry_cell_setting	triclinic
loop_
_symmetry_equiv_pos_as_xyz
  x,y,z
_cell_length_a	16.974959
_cell_length_b	16.992694
_cell_length_c	15.455321
_cell_angle_alpha	92.866245
_cell_angle_beta	89.024386
_cell_angle_gamma	92.971704
loop_
_atom_site_label
_atom_site_type_symbol
_atom_site_fract_x
_atom_site_fract_y
_atom_site_fract_z
O1	O	0.170343	-1.037351	0.060082
O2	O	0.670343	-0.537351	0.560082
O3	O	0.168511	-0.809060	0.060236
O4	O	0.668511	-0.309060	0.560236
O5	O	0.055088	-0.929179	0.068168
O6	O	0.555088	-0.429179	0.568168
O7	O	0.283765	-0.917232	0.052150
O8	O	0.783765	-0.417232	0.552150
O9	O	0.048625	-0.936041	-0.075642
O10	O	0.548625	-0.436041	0.424358
O11	O	0.162048	-0.815922	-0.083574
O12	O	0.662048	-0.315922	0.416426
O13	O	0.163880	-1.044213	-0.083728
O14	O	0.663880	-0.544213	0.416272
Cu15	Cu	0.162374	-0.930694	-0.096782
Cu16	Cu	0.662374	-0.430694	0.403218
Cu17	Cu	0.170017	-0.922579	0.073290
Cu18	Cu	0.670017	-0.422579	0.573290
O19	O	0.277302	-0.924094	-0.091660
O20	O	0.777302	-0.424094	0.408340
C21	C	0.162921	-0.783273	-0.011501
C22	C	0.662921	-0.283273	0.488499
C23	C	0.155884	-0.696212	-0.010998
C24	C	0.655884	-0.196212	0.489002
N25	N	0.156998	-0.936407	-0.216402
N26	N	0.656998	-0.436407	0.283598
C27	C	0.022461	-0.932025	-0.001676
C28	C	0.522461	-0.432025	0.498324
C29	C	-0.065129	-0.930274	0.004465
C30	C	0.434871	-0.430274	0.504465
C31	C	-0.557792	-0.920079	0.047546
C32	C	-0.057792	-0.420079	0.547546
C33	C	-0.475491	-0.921718	0.041757
C34	C	0.024509	-0.421718	0.541757
C35	C	-0.437880	-0.926272	-0.039528
C36	C	0.062120	-0.426272	0.460472
C37	C	-0.482575	-0.929194	-0.115030
C38	C	0.017425	-0.429194	0.384970
C39	C	-0.564874	-0.927561	-0.109241
C40	C	-0.064874	-0.427561	0.390759
C41	C	-0.192123	-0.931563	-0.065247
C42	C	0.307877	-0.431563	0.434753
C43	C	-0.109817	-0.933194	-0.071031
C44	C	0.390183	-0.433194	0.428969
C45	C	-0.102740	-0.925719	0.085757
C46	C	0.397260	-0.425719	0.585757
C47	C	-0.185040	-0.924081	0.091539
C48	C	0.314960	-0.424081	0.591539
C49	C	-0.229728	-0.927008	0.016037
C50	C	0.270272	-0.427008	0.516037
N51	N	-0.353756	-0.927945	-0.045446
N52	N	0.146244	-0.427945	0.454554
N53	N	-0.313851	-0.925340	0.021956
N54	N	0.186149	-0.425340	0.521956
C55	C	0.309930	-0.921248	-0.021815
C56	C	0.809930	-0.421248	0.478185
C57	C	0.397520	-0.922999	-0.027951
C58	C	0.897520	-0.422999	0.472049
C59	C	0.169470	-1.070000	-0.011990
C60	C	0.669470	-0.570000	0.488010
C61	C	0.176507	-1.157061	-0.012487
C62	C	0.676507	-0.657061	0.487513
C63	C	0.223784	-0.646130	-0.015755
C64	C	0.723784	-0.146130	0.484245
C65	C	0.217167	-0.564328	-0.015303
C66	C	0.717167	-0.064328	0.484697
C67	C	0.142649	-0.532610	-0.010089
C68	C	0.642649	-0.032610	0.489911
C69	C	0.074743	-0.582699	-0.005334
C70	C	0.574743	-0.082699	0.494666
C71	C	0.081361	-0.664499	-0.005792
C72	C	0.581361	-0.164499	0.494208
C73	C	0.115220	-0.288949	-0.008190
C74	C	0.615220	0.211051	0.491810
C75	C	0.108607	-0.207143	-0.007730
C76	C	0.608607	0.292857	0.492270
C77	C	0.251031	-0.188778	-0.017701
C78	C	0.751031	0.311222	0.482299
C79	C	0.257643	-0.270581	-0.018154
C80	C	0.757643	0.229419	0.481846
C81	C	0.189737	-0.320662	-0.013403
C82	C	0.689737	0.179338	0.486597
N83	N	0.135883	-0.448996	-0.009624
N84	N	0.635883	0.051004	0.490376
N85	N	0.196503	-0.404275	-0.013874
N86	N	0.696503	0.095725	0.486126
N87	N	0.175387	-0.916872	0.192909
N88	N	0.675387	-0.416872	0.692909
C89	C	0.205078	-0.885279	0.734840
C90	C	0.705078	-0.385279	1.234840
C91	C	0.201022	-0.889602	0.644316
C92	C	0.701022	-0.389602	1.144316
C93	C	0.148881	-0.945050	0.602552
C94	C	0.648881	-0.445050	1.102552
C95	C	0.100799	-0.996183	0.651316
C96	C	0.600799	-0.496183	1.151316
C97	C	0.104859	-0.991864	0.741838
C98	C	0.604859	-0.491864	1.241838
C99	C	0.131366	-0.963686	0.332196
C100	C	0.631366	-0.463686	0.832196
C101	C	0.127307	-0.968000	0.241667
C102	C	0.627307	-0.468000	0.741667
C103	C	0.227532	-0.861419	0.234673
C104	C	0.727532	-0.361419	0.734673
C105	C	0.231584	-0.857101	0.325198
C106	C	0.731584	-0.357101	0.825198
C107	C	0.183505	-0.908238	0.373954
C108	C	0.683505	-0.408238	0.873954
N109	N	0.144731	-0.949468	0.510022
N110	N	0.644731	-0.449468	1.010022
N111	N	0.187659	-0.903823	0.466482
N112	N	0.687659	-0.403823	0.966482
H113	H	-0.588408	-0.916363	0.113737
H114	H	-0.088408	-0.416363	0.613737
H115	H	0.026069	-0.705275	-0.001918
H116	H	0.526069	-0.205275	0.498082
C117	C	-0.053584	-0.922510	0.168801
C118	C	0.446416	-0.422510	0.668801
H119	H	0.000817	-0.924142	0.153715
H120	H	0.500817	-0.424142	0.653715
H121	H	-0.062491	-0.875021	0.201753
H122	H	0.437509	-0.375021	0.701753
H123	H	-0.068744	-0.966405	0.202164
H124	H	0.431256	-0.466405	0.702164
H125	H	-0.228497	-0.933947	-0.126726
H126	H	0.271503	-0.433947	0.373274
C127	C	-0.068443	-0.938209	-0.160446
C128	C	0.431557	-0.438209	0.339554
H129	H	-0.013028	-0.938753	-0.153077
H130	H	0.486972	-0.438753	0.346923
H131	H	-0.086506	-0.985168	-0.191495
H132	H	0.413494	-0.485168	0.308505
H133	H	-0.080261	-0.893784	-0.191922
H134	H	0.419739	-0.393784	0.308078
C135	C	-0.614034	-0.930772	-0.192284
C136	C	-0.114034	-0.430772	0.307716
H137	H	-0.668435	-0.929154	-0.177195
H138	H	-0.168435	-0.429154	0.322805
H139	H	-0.598879	-0.886887	-0.225656
H140	H	-0.098879	-0.386887	0.274344
H141	H	-0.605125	-0.978270	-0.225228
H142	H	-0.105125	-0.478270	0.274772
C143	C	0.078473	-1.019926	0.385817
C144	C	0.578473	-0.519926	0.885817
H145	H	0.046833	-1.053559	0.347977
H146	H	0.546833	-0.553559	0.847977
H147	H	0.110541	-1.050894	0.418994
H148	H	0.610541	-0.550894	0.918994
H149	H	0.045397	-0.990017	0.423555
H150	H	0.545397	-0.490017	0.923555
H151	H	0.318324	-0.296399	-0.022390
H152	H	0.818324	0.203601	0.477610
H153	H	0.272459	-0.523554	-0.019176
H154	H	0.772459	-0.023554	0.480824
C155	C	0.040527	-0.344028	-0.002960
C156	C	0.540527	0.155972	0.497040
H157	H	-0.004799	-0.313419	0.000221
H158	H	0.495201	0.186581	0.500221
H159	H	0.037892	-0.378720	-0.053081
H160	H	0.537892	0.121280	0.446919
H161	H	0.042399	-0.373920	0.047224
H162	H	0.542399	0.126080	0.547224
C163	C	0.262435	-0.824288	0.780773
C164	C	0.762435	-0.324288	1.280773
H165	H	0.290494	-0.794463	0.738766
H166	H	0.790494	-0.294463	1.238766
H167	H	0.233534	-0.789952	0.818224
H168	H	0.733534	-0.289952	1.318224
H169	H	0.298678	-0.850828	0.813656
H170	H	0.798678	-0.350828	1.313656
C171	C	-0.441208	-0.934202	-0.204443
C172	C	0.058792	-0.434202	0.295557
H173	H	-0.479613	-0.935714	-0.248577
H174	H	0.020387	-0.435714	0.251423
H175	H	-0.406127	-0.889305	-0.210172
H176	H	0.093873	-0.389305	0.289828
H177	H	-0.412375	-0.980689	-0.209750
H178	H	0.087625	-0.480689	0.290250
H179	H	0.284465	-0.671948	-0.020000
H180	H	0.784465	-0.171948	0.480000
C181	C	0.280421	-0.805182	0.181040
C182	C	0.780421	-0.305182	0.681040
H183	H	0.270542	-0.815698	0.121146
H184	H	0.770542	-0.315698	0.621146
H185	H	0.269108	-0.752144	0.196718
H186	H	0.769108	-0.252144	0.696718
H187	H	0.334251	-0.813021	0.192158
H188	H	0.834251	-0.313021	0.692158
H189	H	0.084845	-1.013155	0.207667
H190	H	0.584845	-0.513155	0.707667
H191	H	0.047922	-0.181321	-0.003483
H192	H	0.547922	0.318679	0.496517
H193	H	0.240173	-0.847970	0.604618
H194	H	0.740173	-0.347970	1.104618
H195	H	0.274042	-0.811951	0.359200
H196	H	0.774042	-0.311951	0.859200
H197	H	0.306316	-0.147994	-0.021570
H198	H	0.806316	0.352006	0.478430
C199	C	0.043444	-1.057173	0.605378
C200	C	0.543444	-0.557173	1.105378
H201	H	0.047904	-1.052418	0.544483
H202	H	0.547904	-0.552418	1.044483
H203	H	0.056089	-1.108795	0.619367
H204	H	0.556089	-0.608795	1.119367
H205	H	-0.009056	-1.047920	0.623936
H206	H	0.490944	-0.547920	1.123936
C207	C	-0.007225	-0.547810	0.000404
C208	C	0.492775	-0.047810	0.500404
H209	H	-0.001443	-0.491920	0.000004
H210	H	0.498557	0.008080	0.500004
H211	H	-0.037655	-0.567389	-0.047771
H212	H	0.462345	-0.067389	0.452229
H213	H	-0.033143	-0.562591	0.052534
H214	H	0.466857	-0.062591	0.552534
C215	C	-0.226411	-0.919076	0.180950
C216	C	0.273589	-0.419076	0.680950
H217	H	-0.281825	-0.918514	0.173585
H218	H	0.218175	-0.418514	0.673585
H219	H	-0.214594	-0.963496	0.212424
H220	H	0.285406	-0.463496	0.712424
H221	H	-0.208344	-0.872113	0.211999
H222	H	0.291656	-0.372113	0.711999
C223	C	0.051969	-1.048102	0.795472
C224	C	0.551969	-0.548102	1.295472
H225	H	0.020328	-1.081739	0.757636
H226	H	0.520328	-0.581739	1.257636
H227	H	0.084042	-1.079066	0.828649
H228	H	0.584042	-0.579066	1.328649
H229	H	0.018893	-1.018194	0.833211
H230	H	0.518893	-0.518194	1.333211
H231	H	-0.439110	-0.919341	0.103234
H232	H	0.060890	-0.419341	0.603234
