data_functionalizedCrystal
_audit_creation_method	'MofGen! by Chris Wilmer'
_symmetry_space_group_name_H-M	'P1'
_symmetry_Int_Tables_number	1
_symmetry_cell_setting	triclinic
loop_
_symmetry_equiv_pos_as_xyz
  x,y,z
_cell_length_a	18.215407
_cell_length_b	12.759394
_cell_length_c	18.215399
_cell_angle_alpha	89.976598
_cell_angle_beta	89.980167
_cell_angle_gamma	90.015017
loop_
_atom_site_label
_atom_site_type_symbol
_atom_site_fract_x
_atom_site_fract_y
_atom_site_fract_z
Zn1	Zn	1.125125	-0.418265	-0.416139
Zn2	Zn	1.125055	-0.593962	-0.293083
Zn3	Zn	1.002057	-0.418299	-0.293087
Zn4	Zn	1.002045	-0.593904	-0.416108
O5	O	1.063571	-0.506107	-0.354604
O6	O	1.228100	-0.441581	-0.399827
O7	O	1.108715	-0.570699	-0.190099
O8	O	1.018417	-0.271273	-0.309425
O9	O	1.228049	-0.570666	-0.309418
O10	O	1.108834	-0.271248	-0.399831
O11	O	1.018349	-0.441640	-0.190102
O12	O	0.899071	-0.441583	-0.309394
O13	O	1.018396	-0.570566	-0.519096
O14	O	0.899063	-0.570599	-0.399777
O15	O	1.108822	-0.441525	-0.519119
O16	O	1.108704	-0.740975	-0.309387
O17	O	1.018329	-0.740932	-0.399773
C18	C	0.872364	-0.506089	-0.354583
C19	C	0.790565	-0.506107	-0.354591
C20	C	0.602386	-0.573391	-0.401595
C21	C	0.525528	-0.573395	-0.401604
C22	C	0.525507	-0.438843	-0.307629
C23	C	0.602364	-0.438835	-0.307624
C24	C	0.640802	-0.506115	-0.354606
C25	C	0.487086	-0.506126	-0.354620
C26	C	0.403752	-0.506129	-0.354630
C27	C	0.724141	-0.506111	-0.354598
C28	C	1.063527	-0.779075	-0.354592
C29	C	1.063576	-0.895852	-0.354612
C30	C	0.969580	-1.115487	-0.260433
C31	C	0.922521	-1.060722	-0.213316
C32	C	0.922479	-0.951000	-0.213296
C33	C	0.969500	-0.896042	-0.260399
C34	C	1.016559	-0.950807	-0.307516
C35	C	1.016597	-1.060532	-0.307529
C36	C	1.110635	-0.950617	-0.401729
C37	C	1.110682	-1.060339	-0.401747
C38	C	1.157656	-0.895659	-0.448832
C39	C	1.204720	-0.950425	-0.495946
C40	C	1.204760	-1.060153	-0.495964
C41	C	1.157741	-1.115105	-0.448863
C42	C	1.255524	-0.506126	-0.354626
C43	C	1.337322	-0.506134	-0.354635
C44	C	1.063615	-0.506035	-0.546557
C45	C	1.063635	-0.506004	-0.628356
C46	C	1.063634	-0.232074	-0.354632
C47	C	1.063661	-0.115297	-0.354643
C48	C	1.110736	-0.438749	-0.816563
C49	C	1.110745	-0.438719	-0.893422
C50	C	1.016585	-0.573096	-0.893387
C51	C	1.016573	-0.573121	-0.816529
C52	C	1.063653	-0.505949	-0.778119
C53	C	1.063674	-0.505894	-0.931836
C54	C	1.063683	-0.505861	-1.015169
C55	C	1.063643	-0.505980	-0.694780
C56	C	1.063568	-0.506104	-0.163398
C57	C	1.063692	-0.505839	-0.081599
H58	H	0.494202	-0.384067	-0.269378
O59	O	0.970927	-0.638315	-0.930813
C60	C	0.981020	-0.623868	-1.006893
H61	H	1.037823	-0.589459	-1.017406
H62	H	0.937384	-0.567910	-1.028704
C63	C	0.904493	-0.772419	-1.033425
C64	C	0.974262	-0.730166	-1.046338
H65	H	0.900321	-0.837987	-1.057758
H66	H	0.897690	-0.782150	-0.982169
H67	H	0.868137	-0.725777	-1.051601
H68	H	1.010616	-0.776801	-1.028154
H69	H	0.981071	-0.720445	-1.097592
H70	H	1.149070	-0.384051	-0.785292
O71	O	1.157550	-0.789076	-0.448932
C72	C	1.138616	-0.752373	-0.519446
H73	H	1.106536	-0.815610	-0.549851
H74	H	1.190693	-0.732819	-0.551373
C75	C	1.130320	-0.575604	-0.474926
C76	C	1.090914	-0.653270	-0.512267
H77	H	1.100898	-0.514470	-0.470499
H78	H	1.143079	-0.600330	-0.427420
H79	H	1.173716	-0.559322	-0.501537
H80	H	1.047524	-0.669560	-0.485651
H81	H	1.078146	-0.628544	-0.559769
H82	H	1.243075	-1.104737	-0.534339
O83	O	0.639767	-0.373626	-0.261939
C84	C	0.684184	-0.433355	-0.214324
H85	H	0.695695	-0.513020	-0.240187
H86	H	0.654543	-0.444802	-0.159774
C87	C	0.743058	-0.277674	-0.169302
C88	C	0.757201	-0.375518	-0.201069
H89	H	0.788096	-0.241997	-0.161122
H90	H	0.713131	-0.237433	-0.201378
H91	H	0.718355	-0.287228	-0.123846
H92	H	0.781895	-0.365963	-0.246528
H93	H	0.787133	-0.415756	-0.169000
H94	H	0.978227	-0.627842	-0.785227
O95	O	0.876919	-1.114271	-0.167584
C96	C	0.887032	-1.222858	-0.177713
H97	H	0.943817	-1.237758	-0.201871
H98	H	0.843368	-1.254010	-0.216866
C99	C	0.810609	-1.260963	-0.073581
C100	C	0.880356	-1.279264	-0.103247
H101	H	0.806488	-1.295759	-0.027648
H102	H	0.803793	-1.187806	-0.066758
H103	H	0.774230	-1.286923	-0.106216
H104	H	0.916733	-1.253292	-0.070616
H105	H	0.887178	-1.352418	-0.110063
H106	H	0.633680	-0.628173	-0.439852
O107	O	0.488325	-0.638848	-0.447271
C108	C	0.538735	-0.698205	-0.488748
H109	H	0.593507	-0.701783	-0.458594
H110	H	0.546940	-0.659832	-0.544685
C111	C	0.441456	-0.805649	-0.536262
C112	C	0.508726	-0.810051	-0.499223
H113	H	0.422944	-0.874639	-0.542727
H114	H	0.407493	-0.765657	-0.508321
H115	H	0.448303	-0.773667	-0.582872
H116	H	0.501877	-0.842020	-0.452611
H117	H	0.542688	-0.850051	-0.527157
H118	H	1.149084	-0.383997	-0.924719
H119	H	0.969615	-1.204828	-0.260439
H120	H	0.884157	-0.906410	-0.174932
O121	O	0.969386	-0.789459	-0.260268
C122	C	0.917750	-0.752907	-0.208600
H123	H	0.907491	-0.816185	-0.165602
H124	H	0.864066	-0.733479	-0.237733
C125	C	0.960324	-0.576024	-0.223702
C126	C	0.947728	-0.653741	-0.170887
H127	H	0.978813	-0.514851	-0.200441
H128	H	0.995110	-0.600648	-0.258514
H129	H	0.915583	-0.559847	-0.247975
H130	H	0.992470	-0.669926	-0.146621
H131	H	0.912950	-0.629116	-0.136070
O132	O	1.250309	-0.897085	-0.541804
C133	C	1.234208	-0.923873	-0.615140
H134	H	1.175429	-0.954112	-0.618807
H135	H	1.273684	-0.987491	-0.634423
C136	C	1.314892	-0.789209	-0.659746
C137	C	1.242696	-0.826340	-0.664250
H138	H	1.320130	-0.729048	-0.690040
H139	H	1.325742	-0.771163	-0.610338
H140	H	1.347780	-0.842233	-0.675813
H141	H	1.209810	-0.773321	-0.648174
H142	H	1.231841	-0.844375	-0.713656
H143	H	1.157772	-1.204446	-0.448871
