data_functionalizedCrystal
_audit_creation_method	'MofGen! by Chris Wilmer'
_symmetry_space_group_name_H-M	'P1'
_symmetry_Int_Tables_number	1
_symmetry_cell_setting	triclinic
loop_
_symmetry_equiv_pos_as_xyz
  x,y,z
_cell_length_a	19.288864
_cell_length_b	19.188925
_cell_length_c	17.766277
_cell_angle_alpha	89.993978
_cell_angle_beta	89.976791
_cell_angle_gamma	83.139398
loop_
_atom_site_label
_atom_site_type_symbol
_atom_site_fract_x
_atom_site_fract_y
_atom_site_fract_z
O1	O	0.921358	0.087099	-0.062835
O2	O	0.719098	0.098849	-0.062783
O3	O	0.826067	-0.008682	-0.062806
O4	O	0.814389	0.194631	-0.062812
O5	O	0.826048	-0.008688	0.062382
O6	O	0.719079	0.098844	0.062405
O7	O	0.921339	0.087094	0.062354
Cu8	Cu	0.820207	0.092968	0.073810
Cu9	Cu	0.820230	0.092975	-0.074240
O10	O	0.814370	0.194625	0.062377
C11	C	0.693212	0.098468	-0.000183
C12	C	0.616108	0.097333	-0.000163
C13	C	0.825680	-0.034696	-0.000213
C14	C	0.824546	-0.112201	-0.000214
C15	C	0.571416	0.160428	-0.000176
C16	C	0.498968	0.159362	-0.000185
C17	C	0.471217	0.095197	-0.000195
C18	C	0.515920	0.032095	-0.000177
C19	C	0.588366	0.033163	-0.000161
C20	C	0.362959	0.044759	-0.044078
C21	C	0.290515	0.043694	-0.044098
C22	C	0.247772	0.091901	-0.000240
C23	C	0.277480	0.141185	0.043629
C24	C	0.349926	0.142253	0.043645
C25	C	0.392663	0.094032	-0.000211
C26	C	0.124523	0.153843	-0.000261
C27	C	0.052075	0.152774	-0.000265
C28	C	0.069028	0.025506	-0.000265
C29	C	0.141474	0.026576	-0.000254
C30	C	0.169217	0.090747	-0.000255
C31	C	0.879724	-0.673975	-0.000247
C32	C	0.880795	-0.601152	-0.000240
C33	C	0.818029	-0.556213	-0.000225
C34	C	0.754187	-0.584102	-0.000196
C35	C	0.753118	-0.656924	-0.000195
N36	N	0.772595	-0.435527	-0.042824
N37	N	0.773615	-0.366350	-0.042826
C38	C	0.821246	-0.336804	-0.000226
N39	N	0.867829	-0.379050	0.042368
N40	N	0.866811	-0.448234	0.042367
C41	C	0.819181	-0.477248	-0.000225
C42	C	0.886245	-0.229960	-0.000242
C43	C	0.887313	-0.157135	-0.000231
C44	C	0.760704	-0.140086	-0.000194
C45	C	0.759637	-0.212910	-0.000198
C46	C	0.822410	-0.257842	-0.000225
C47	C	0.947225	0.087475	-0.000249
C48	C	1.024329	0.088610	-0.000274
C49	C	0.814757	0.220639	-0.000219
C50	C	0.815891	0.298144	-0.000223
N51	N	0.820197	0.092963	0.177940
N52	N	0.820246	0.092974	-0.178370
C53	C	0.867578	0.045372	0.217317
C54	C	0.867582	0.045369	0.296119
C55	C	0.820212	0.092969	0.335541
C56	C	0.772822	0.140564	0.296155
C57	C	0.772814	0.140561	0.217354
C58	C	0.810916	0.156586	0.460379
C59	C	0.810928	0.156589	0.539177
C60	C	0.820230	0.092977	0.578587
C61	C	0.829534	0.029359	0.539189
C62	C	0.829527	0.029356	0.460388
C63	C	0.820214	0.092977	0.420987
C64	C	0.867618	0.045378	0.703410
C65	C	0.867617	0.045374	0.782213
C66	C	0.772860	0.140576	0.782247
C67	C	0.772858	0.140574	0.703446
C68	C	0.820240	0.092976	0.664032
H69	H	0.593999	0.212680	-0.000179
H70	H	0.701136	-0.679623	-0.000174
Br71	Br	0.971433	-0.290944	-0.000278
H72	H	0.147112	0.206095	-0.000252
H73	H	0.803357	0.208391	0.571250
Br74	Br	0.438302	0.244996	-0.000199
Br75	Br	0.708506	0.205154	0.163910
H76	H	0.932777	-0.578446	-0.000260
H77	H	0.374112	0.182379	0.079367
Br78	Br	0.708527	0.205160	0.349653
H79	H	0.624755	-0.018218	-0.000150
H80	H	0.703083	-0.547508	-0.000181
H81	H	0.397755	0.005502	-0.079797
H82	H	0.242680	0.180439	0.079343
Br83	Br	0.964914	-0.734952	-0.000278
Br84	Br	0.973951	-0.119295	-0.000265
Br85	Br	0.478260	-0.054986	-0.000182
Br86	Br	0.842167	-0.056979	0.592663
H87	H	0.837101	-0.022444	0.428313
Br88	Br	0.675520	-0.079105	-0.000159
Br89	Br	0.931920	-0.019220	0.649917
H90	H	0.906199	0.006616	0.814274
H91	H	0.015686	0.204156	-0.000272
Br92	Br	0.708564	0.205169	0.835742
Br93	Br	0.673002	-0.250752	-0.000170
H94	H	0.906158	0.006613	0.185228
H95	H	0.906166	0.006612	0.328185
H96	H	0.046434	-0.026738	-0.000319
Br97	Br	0.708554	0.205167	0.650000
H98	H	0.803330	0.208390	0.428298
H99	H	0.266331	0.003566	-0.079822
Br100	Br	0.202133	-0.059057	-0.000237
