data_functionalizedCrystal
_audit_creation_method	'MofGen! by Chris Wilmer'
_symmetry_space_group_name_H-M	'P1'
_symmetry_Int_Tables_number	1
_symmetry_cell_setting	triclinic
loop_
_symmetry_equiv_pos_as_xyz
  x,y,z
_cell_length_a	13.897449
_cell_length_b	17.640280
_cell_length_c	17.637464
_cell_angle_alpha	92.150542
_cell_angle_beta	78.805003
_cell_angle_gamma	101.199189
loop_
_atom_site_label
_atom_site_type_symbol
_atom_site_fract_x
_atom_site_fract_y
_atom_site_fract_z
Zn1	Zn	1.479768	0.389124	0.368373
Zn2	Zn	1.979768	0.889124	0.868373
Zn3	Zn	1.542366	0.490445	0.215744
Zn4	Zn	2.042366	0.990445	0.715744
Zn5	Zn	1.343489	0.363479	0.241390
Zn6	Zn	1.843489	0.863479	0.741390
Zn7	Zn	1.356112	0.516067	0.342696
Zn8	Zn	1.856112	1.016067	0.842696
O9	O	1.430434	0.439779	0.292051
O10	O	1.930434	0.939779	0.792051
O11	O	1.623052	0.402574	0.348140
O12	O	2.123052	0.902574	0.848140
O13	O	1.536899	0.452148	0.112873
O14	O	2.036899	0.952148	0.612873
O15	O	1.330086	0.260619	0.279713
O16	O	1.830086	0.760619	0.779713
O17	O	1.669042	0.477014	0.236004
O18	O	2.169042	0.977014	0.736004
O19	O	1.430210	0.279460	0.373007
O20	O	1.930210	0.779460	0.873007
O21	O	1.390785	0.358866	0.131715
O22	O	1.890785	0.858866	0.631715
O23	O	1.210183	0.383711	0.254815
O24	O	1.710183	0.883711	0.754815
O25	O	1.351601	0.520683	0.452376
O26	O	1.851601	1.020683	0.952376
O27	O	1.219457	0.495816	0.329245
O28	O	1.719457	0.995816	0.829245
O29	O	1.442450	0.427419	0.471240
O30	O	1.942450	0.927419	0.971240
O31	O	1.549139	0.600106	0.211106
O32	O	2.049139	1.100106	0.711106
O33	O	1.412300	0.618930	0.304377
O34	O	1.912300	1.118930	0.804377
C35	C	1.179821	0.439762	0.292027
C36	C	1.679821	0.939762	0.792027
C37	C	1.072610	0.439777	0.292031
C38	C	1.572610	0.939777	0.792031
C39	C	1.488905	0.637074	0.252189
C40	C	1.988905	1.137074	0.752189
C41	C	1.514002	0.721482	0.235161
C42	C	2.014002	1.221482	0.735161
C43	C	1.391451	0.479770	0.490134
C44	C	1.891451	0.979770	0.990134
C45	C	1.374839	0.496811	0.574545
C46	C	1.874839	0.996811	1.074545
C47	C	0.985538	0.439782	0.292043
C48	C	1.485538	0.939782	0.792043
C49	C	0.876303	0.439792	0.292065
C50	C	1.376303	0.939792	0.792065
C51	C	1.682025	0.439797	0.292075
C52	C	2.182025	0.939797	0.792075
C53	C	1.789238	0.439804	0.292086
C54	C	2.289238	0.939804	0.792086
C55	C	1.371757	0.241717	0.332085
C56	C	1.871757	0.741717	0.832085
C57	C	1.346753	0.157315	0.349145
C58	C	1.846753	0.657315	0.849145
C59	C	1.240113	1.048176	0.421684
C60	C	1.740113	1.548176	0.921684
C61	C	1.263702	1.127486	0.405660
C62	C	1.763702	1.627486	0.905660
C63	C	1.406250	1.107839	0.308635
C64	C	1.906250	1.607839	0.808635
C65	C	1.382676	1.028526	0.324653
C66	C	1.882676	1.528526	0.824653
C67	C	1.299605	0.998702	0.381178
C68	C	1.799605	1.498702	0.881178
C69	C	1.442168	0.979051	0.284148
C70	C	1.942168	1.479051	0.784148
C71	C	1.418592	0.899745	0.300162
C72	C	1.918592	1.399745	0.800162
C73	C	1.335523	0.869914	0.356683
C74	C	1.835523	1.369914	0.856683
C75	C	1.276029	0.919395	0.397193
C76	C	1.776029	1.419395	0.897193
C77	C	1.525234	1.008877	0.227619
C78	C	2.025234	1.508877	0.727619
C79	C	1.584726	0.959402	0.187113
C80	C	2.084726	1.459402	0.687113
C81	C	1.561155	0.880095	0.203132
C82	C	2.061155	1.380095	0.703132
C83	C	1.478086	0.850264	0.259652
C84	C	1.978086	1.350264	0.759652
C85	C	1.620649	0.830613	0.162622
C86	C	2.120649	1.330613	0.662622
C87	C	1.597073	0.751307	0.178637
C88	C	2.097073	1.251307	0.678637
C89	C	1.454510	0.770957	0.275667
C90	C	1.954510	1.270957	0.775667
C91	C	1.469304	0.399889	0.094749
C92	C	1.969304	0.899889	0.594749
C93	C	1.486039	0.382634	0.010382
C94	C	1.986039	0.882634	0.510382
C95	C	1.304130	0.569385	0.683699
C96	C	1.804130	1.069385	1.183699
C97	C	1.319745	0.553366	0.604383
C98	C	1.819745	1.053366	1.104383
C99	C	1.414345	0.456256	0.624017
C100	C	1.914345	0.956256	1.124017
C101	C	1.398742	0.472270	0.703336
C102	C	1.898742	0.972270	1.203336
C103	C	1.343633	0.528834	0.733170
C104	C	1.843633	1.028834	1.233170
C105	C	1.438245	0.431719	0.752808
C106	C	1.938245	0.931719	1.252808
C107	C	1.422639	0.447729	0.832120
C108	C	1.922639	0.947729	1.332120
C109	C	1.367530	0.504289	0.861961
C110	C	1.867530	1.004289	1.361961
C111	C	1.328027	0.544844	0.812483
C112	C	1.828027	1.044844	1.312483
C113	C	1.493348	0.375151	0.722973
C114	C	1.993348	0.875151	1.222973
C115	C	1.532851	0.334601	0.772444
C116	C	2.032851	0.834601	1.272444
C117	C	1.517251	0.350614	0.851757
C118	C	2.017251	0.850614	1.351757
C119	C	1.462142	0.407174	0.881598
C120	C	1.962142	0.907174	1.381598
C121	C	1.556754	0.310059	0.901236
C122	C	2.056754	0.810059	1.401236
C123	C	1.541148	0.326069	0.980548
C124	C	2.041148	0.826069	1.480548
C125	C	1.446536	0.423184	0.960910
C126	C	1.946536	0.923184	1.460910
H127	H	1.316323	0.805336	0.369716
H128	H	1.816323	1.305336	0.869716
H129	H	1.544429	1.073454	0.214584
H130	H	2.044429	1.573454	0.714584
H131	H	1.208390	0.895113	0.443227
H132	H	1.708390	1.395113	0.943227
C133	C	1.210657	0.545930	0.513057
C134	C	1.710657	1.045930	1.013057
C135	C	1.276321	0.597958	0.550012
C136	C	1.776321	1.097958	1.050012
H137	H	1.183845	0.573463	0.479498
H138	H	1.683845	1.073463	0.979498
H139	H	1.245706	0.509965	0.483926
H140	H	1.745706	1.009965	0.983926
H141	H	1.157876	0.519086	0.550687
H142	H	1.657876	1.019086	1.050687
H143	H	1.329106	0.624797	0.512382
H144	H	1.829106	1.124797	1.012382
H145	H	1.241270	0.633936	0.579144
H146	H	1.741270	1.133936	1.079144
H147	H	1.172474	1.023894	0.467718
H148	H	1.672474	1.523894	0.967718
H149	H	1.215260	1.167770	0.438658
H150	H	1.715260	1.667770	0.938658
H151	H	1.652360	0.983696	0.141089
H152	H	2.152360	1.483696	0.641089
H153	H	1.688279	0.854908	0.116594
H154	H	2.188279	1.354908	0.616594
H155	H	1.473884	1.132133	0.262610
H156	H	1.973884	1.632133	0.762610
H157	H	1.645517	0.711023	0.145652
H158	H	2.145517	1.211023	0.645652
H159	H	1.401669	0.469249	0.985202
H160	H	1.901669	0.969249	1.485202
H161	H	1.506056	0.362120	0.658391
H162	H	2.006056	0.862120	1.158391
C163	C	1.442670	0.546604	0.971666
C164	C	1.942670	1.046604	1.471666
C165	C	1.350377	0.521898	0.949141
C166	C	1.850377	1.021898	1.449141
H167	H	1.432078	0.557480	1.025486
H168	H	1.932078	1.057480	1.525486
H169	H	1.481130	0.507113	0.960985
H170	H	1.981130	1.007113	1.460985
H171	H	1.477386	0.591982	0.943810
H172	H	1.977386	1.091982	1.443810
H173	H	1.315664	0.476516	0.976993
H174	H	1.815664	0.976516	1.476993
H175	H	1.311901	0.561392	0.959829
H176	H	1.811901	1.061392	1.459829
C177	C	1.236077	0.639243	0.785113
C178	C	1.736077	1.139243	1.285113
C179	C	1.267454	0.607024	0.845284
C180	C	1.767454	1.107024	1.345284
H181	H	1.198679	0.677624	0.805366
H182	H	1.698679	1.177624	1.305366
H183	H	1.292794	0.662048	0.748314
H184	H	1.792794	1.162048	1.248314
H185	H	1.195464	0.599905	0.760861
H186	H	1.695464	1.099905	1.260861
H187	H	1.308074	0.646360	0.869533
H188	H	1.808074	1.146360	1.369533
H189	H	1.210729	0.584220	0.882097
H190	H	1.710729	1.084220	1.382097
H191	H	1.259263	0.615450	0.707990
H192	H	1.759263	1.115450	1.207990
H193	H	1.459212	0.410200	0.599716
H194	H	1.959212	0.910200	1.099716
C195	C	1.598796	0.266944	0.659581
C196	C	2.098796	0.766944	1.159581
C197	C	1.593435	0.272433	0.739644
C198	C	2.093435	0.772433	1.239644
H199	H	1.636207	0.228569	0.639334
H200	H	2.136207	0.728569	1.139334
H201	H	1.533258	0.253192	0.648830
H202	H	2.033258	0.753192	1.148830
H203	H	1.630574	0.315349	0.636281
H204	H	2.130574	0.815349	1.136281
H205	H	1.561650	0.224030	0.762945
H206	H	2.061650	0.724030	1.262945
H207	H	1.658985	0.286181	0.750402
H208	H	2.158985	0.786181	1.250402
H209	H	1.601616	0.264000	0.876933
H210	H	2.101616	0.764000	1.376933
H211	H	1.573310	0.293045	1.020830
H212	H	2.073310	0.793045	1.520830
H213	H	1.386871	0.746675	0.321701
H214	H	1.886871	1.246675	0.821701
