data_functionalizedCrystal
_audit_creation_method	'MofGen! by Chris Wilmer'
_symmetry_space_group_name_H-M	'P1'
_symmetry_Int_Tables_number	1
_symmetry_cell_setting	triclinic
loop_
_symmetry_equiv_pos_as_xyz
  x,y,z
_cell_length_a	15.625950
_cell_length_b	23.532407
_cell_length_c	14.185569
_cell_angle_alpha	76.924933
_cell_angle_beta	120.545593
_cell_angle_gamma	83.582877
loop_
_atom_site_label
_atom_site_type_symbol
_atom_site_fract_x
_atom_site_fract_y
_atom_site_fract_z
O1	O	1.290518	0.014754	0.385860
O2	O	1.002143	0.039811	0.280991
O3	O	1.155031	-0.056106	0.336608
O4	O	1.137630	0.110671	0.330243
O5	O	1.200196	-0.084438	0.519872
O6	O	1.047308	0.011479	0.464255
O7	O	1.335682	-0.013578	0.569124
Cu8	Cu	1.195619	-0.003637	0.533423
Cu9	Cu	1.142207	0.029869	0.316692
O10	O	1.182794	0.082339	0.513507
C11	C	0.987839	0.027316	0.359209
C12	C	0.877928	0.032288	0.319240
C13	C	0.639415	-0.028527	0.687139
C14	C	0.536122	-0.023836	0.649530
C15	C	0.486937	0.007048	0.449762
C16	C	0.590227	0.002362	0.487353
C17	C	0.666459	-0.015426	0.606043
C18	C	0.617271	0.015464	0.406258
C19	C	0.720553	0.010775	0.443847
C20	C	0.796791	-0.007014	0.562532
C21	C	0.769741	-0.020115	0.643633
C22	C	0.541038	0.033248	0.287568
C23	C	0.568082	0.046349	0.206473
C24	C	0.671365	0.041665	0.244061
C25	C	0.747603	0.023875	0.362746
C26	C	0.698414	0.054765	0.162961
C27	C	0.801696	0.050077	0.200550
C28	C	0.850884	0.019187	0.400336
C29	C	1.177171	-0.091466	0.428082
C30	C	1.175842	-0.154615	0.427606
C31	C	1.257948	-0.557995	0.457410
C32	C	1.256709	-0.617330	0.456952
O33	O	1.332827	-0.658042	0.484595
N34	N	1.165821	-0.635211	0.423900
C35	C	1.076162	-0.593753	0.391293
O36	O	0.998740	-0.614410	0.363137
C37	C	1.077400	-0.534418	0.391744
C38	C	1.168298	-0.516542	0.424809
C39	C	1.348838	-0.540118	0.490471
C40	C	1.350077	-0.480788	0.490931
C41	C	1.260427	-0.439335	0.458330
C42	C	1.169537	-0.457212	0.425269
C43	C	0.987741	-0.492960	0.359130
C44	C	0.988987	-0.433622	0.359582
C45	C	1.079884	-0.415746	0.392647
C46	C	1.081125	-0.356430	0.393128
N47	N	1.172014	-0.338548	0.426180
C48	C	1.261665	-0.380001	0.458781
C49	C	1.073569	-0.718359	0.390347
C50	C	1.072331	-0.777694	0.389904
C51	C	1.252878	-0.801266	0.455561
C52	C	1.254117	-0.741932	0.456011
C53	C	1.164457	-0.700478	0.423399
C54	C	1.264260	-0.255403	0.459745
C55	C	1.265493	-0.196067	0.460207
C56	C	1.084945	-0.172499	0.394545
C57	C	1.083713	-0.231830	0.394089
C58	C	1.173378	-0.273281	0.426688
O59	O	1.005047	-0.315684	0.365495
O60	O	1.339070	-0.359332	0.486918
C61	C	1.349986	-0.001083	0.490904
C62	C	1.459895	-0.006054	0.530865
C63	C	1.160653	0.117699	0.422031
C64	C	1.161981	0.180849	0.422499
N65	N	1.233193	-0.027204	0.685863
N66	N	1.104640	0.053432	0.164255
C67	C	0.994246	0.122647	0.966590
C68	C	1.022715	0.104799	1.081968
C69	C	1.158125	0.019891	1.131187
C70	C	1.129664	0.037730	1.015810
C71	C	1.047725	0.089109	0.933520
C72	C	1.183142	0.004193	0.982740
C73	C	1.154687	0.022033	0.867374
C74	C	1.072753	0.073411	0.785078
C75	C	1.019269	0.106949	0.818154
C76	C	1.265086	-0.047184	1.065034
C77	C	1.318564	-0.080721	1.031964
C78	C	1.290104	-0.062884	0.916595
C79	C	1.208170	-0.011506	0.834299
C80	C	1.343588	-0.096423	0.883520
C81	C	1.315132	-0.078582	0.768154
C82	C	1.179715	0.006334	0.718933
H83	H	0.701487	-0.043004	0.783787
H84	H	0.927516	0.164481	0.899581
H85	H	1.337273	-0.289146	0.486287
H86	H	1.000555	-0.684611	0.363798
H87	H	1.224843	-0.021941	1.198202
H88	H	0.952539	0.148783	0.751145
H89	H	1.011955	-0.138738	0.368006
H90	H	0.636333	0.069242	0.066324
H91	H	0.506002	0.060830	0.109835
H92	H	0.831813	-0.034591	0.740281
H93	H	0.979160	0.132114	1.108883
H94	H	0.823714	0.060748	0.134513
H95	H	0.912956	0.004711	0.496984
H96	H	1.339516	-0.181518	0.487136
H97	H	1.288254	-0.061705	1.158972
H98	H	0.424856	0.021529	0.353124
H99	H	1.424094	-0.466239	0.517851
H100	H	1.421846	-0.573864	0.517016
H101	H	0.880888	-0.010832	0.593136
H102	H	1.410310	-0.138252	0.950537
H103	H	1.328133	-0.727382	0.482935
H104	H	1.358681	-0.105892	0.741230
H105	H	1.325876	-0.835028	0.482102
H106	H	0.514108	-0.034493	0.715576
H107	H	1.385282	-0.122553	1.098979
H108	H	0.998318	-0.792245	0.362998
H109	H	0.456940	0.037067	0.256967
H110	H	0.913721	-0.507502	0.332198
H111	H	0.915973	-0.399872	0.333023
H112	H	1.009705	-0.246390	0.367195
H113	H	1.112985	0.048168	0.651924
H114	H	1.049589	0.087937	0.691142
