data_functionalizedCrystal
_audit_creation_method	'MofGen! by Chris Wilmer'
_symmetry_space_group_name_H-M	'P1'
_symmetry_Int_Tables_number	1
_symmetry_cell_setting	triclinic
loop_
_symmetry_equiv_pos_as_xyz
  x,y,z
_cell_length_a	17.038272
_cell_length_b	19.288865
_cell_length_c	16.098538
_cell_angle_alpha	92.708117
_cell_angle_beta	87.069734
_cell_angle_gamma	87.123902
loop_
_atom_site_label
_atom_site_type_symbol
_atom_site_fract_x
_atom_site_fract_y
_atom_site_fract_z
O1	O	-1.040387	-0.147907	0.069168
O2	O	-0.540387	0.352093	0.569168
O3	O	-0.812765	-0.145512	0.069192
O4	O	-0.312765	0.354488	0.569192
O5	O	-0.933152	-0.045987	0.069163
O6	O	-0.433152	0.454013	0.569163
O7	O	-0.920000	-0.247432	0.069198
O8	O	-0.420000	0.252568	0.569198
O9	O	-0.926120	-0.051776	-0.069348
O10	O	-0.426120	0.448224	0.430652
O11	O	-0.805733	-0.151301	-0.069319
O12	O	-0.305733	0.348699	0.430681
O13	O	-1.033354	-0.153697	-0.069343
O14	O	-0.533354	0.346303	0.430657
Zn15	Zn	-0.918427	-0.153418	-0.091323
Zn16	Zn	-0.418427	0.346582	0.408677
Zn17	Zn	-0.927692	-0.145791	0.091172
Zn18	Zn	-0.427692	0.354209	0.591172
O19	O	-0.912967	-0.253222	-0.069314
O20	O	-0.412967	0.246778	0.430686
C21	C	-0.780128	-0.146229	-0.000060
C22	C	-0.280128	0.353771	0.499940
C23	C	-0.693356	-0.139731	-0.000052
C24	C	-0.193356	0.360269	0.499948
C25	C	-0.929213	-0.022979	-0.000095
C26	C	-0.429213	0.477021	0.499905
C27	C	-0.927942	0.054203	-0.000102
C28	C	-0.427942	0.554203	0.499898
C29	C	-1.065992	-0.152980	-0.000088
C30	C	-0.565992	0.347020	0.499912
C31	C	-1.152764	-0.159478	-0.000091
C32	C	-0.652764	0.340522	0.499909
C33	C	-0.643050	-0.199386	-0.000042
C34	C	-0.143050	0.300614	0.499958
C35	C	-0.561519	-0.193277	-0.000055
C36	C	-0.061519	0.306723	0.499945
C37	C	-0.530295	-0.127512	-0.000071
C38	C	-0.030295	0.372488	0.499929
C39	C	-0.580608	-0.067852	-0.000083
C40	C	-0.080608	0.432148	0.499917
C41	C	-0.662137	-0.073962	-0.000076
C42	C	-0.162137	0.426038	0.499924
C43	C	-0.284606	-0.105928	-0.000097
C44	C	0.215394	0.394072	0.499903
C45	C	-0.203070	-0.099822	-0.000101
C46	C	0.296930	0.400178	0.499899
C47	C	-0.183986	-0.225248	-0.000074
C48	C	0.316014	0.274752	0.499926
C49	C	-0.265518	-0.231352	-0.000063
C50	C	0.234482	0.268648	0.499937
C51	C	-0.315824	-0.171692	-0.000079
C52	C	0.184176	0.328308	0.499921
C53	C	-0.446957	-0.121266	-0.000081
C54	C	0.053043	0.378734	0.499919
C55	C	-0.399160	-0.177939	-0.000075
C56	C	0.100840	0.322061	0.499925
C57	C	-0.916907	-0.276229	-0.000054
C58	C	-0.416907	0.223771	0.499946
C59	C	-0.918178	-0.353411	-0.000041
C60	C	-0.418178	0.146589	0.499959
N61	N	-0.912109	-0.158624	-0.215870
N62	N	-0.412109	0.341376	0.284130
C63	C	-0.998580	0.094528	-0.000114
C64	C	-0.498580	0.594528	0.499886
C65	C	-0.997387	0.167050	-0.000100
C66	C	-0.497387	0.667050	0.499900
C67	C	-0.925551	0.199242	-0.000092
C68	C	-0.425551	0.699242	0.499908
C69	C	-0.854904	0.158908	-0.000076
C70	C	-0.354904	0.658908	0.499924
C71	C	-0.856099	0.086388	-0.000081
C72	C	-0.356099	0.586388	0.499919
C73	C	-0.866616	0.308996	-0.048604
C74	C	-0.366616	0.808996	0.451396
C75	C	-0.865423	0.381514	-0.048604
C76	C	-0.365423	0.881514	0.451396
C77	C	-0.921861	0.422917	-0.000073
C78	C	-0.421861	0.922917	0.499927
C79	C	-0.979504	0.391793	0.048447
C80	C	-0.479504	0.891793	0.548447
C81	C	-0.980699	0.319273	0.048442
C82	C	-0.480699	0.819273	0.548442
C83	C	-0.924247	0.277877	-0.000086
C84	C	-0.424247	0.777877	0.499914
C85	C	-0.991210	0.541878	-0.000069
C86	C	-0.491210	1.041878	0.499931
C87	C	-0.990015	0.614401	-0.000051
C88	C	-0.490015	1.114401	0.499949
C89	C	-0.847529	0.606258	-0.000035
C90	C	-0.347529	1.106258	0.499965
C91	C	-0.848727	0.533737	-0.000045
C92	C	-0.348727	1.033737	0.499955
C93	C	-0.920570	0.501551	-0.000066
C94	C	-0.420570	1.001551	0.499934
C95	C	-0.963225	-0.116399	-0.259468
C96	C	-0.463225	0.383601	0.240532
C97	C	-0.958813	-0.120047	-0.346656
C98	C	-0.458813	0.379953	0.153344
C99	C	-0.903288	-0.165925	-0.390244
C100	C	-0.403288	0.334075	0.109756
C101	C	-0.852167	-0.208152	-0.346641
C102	C	-0.352167	0.291848	0.153359
C103	C	-0.856576	-0.204499	-0.259454
C104	C	-0.356576	0.295501	0.240546
C105	C	-0.887304	-0.179154	-0.653490
C106	C	-0.387304	0.320846	-0.153490
C107	C	-0.882901	-0.182805	-0.740683
C108	C	-0.382901	0.317195	-0.240683
C109	C	-0.989546	-0.094699	-0.740692
C110	C	-0.489546	0.405301	-0.240692
C111	C	-0.993954	-0.091053	-0.653504
C112	C	-0.493954	0.408947	-0.153504
C113	C	-0.942830	-0.133278	-0.609908
C114	C	-0.442830	0.366722	-0.109908
C115	C	-0.898778	-0.169657	-0.479364
C116	C	-0.398778	0.330343	0.020636
C117	C	-0.947336	-0.129542	-0.520789
C118	C	-0.447336	0.370458	-0.020789
N119	N	-0.934016	-0.140580	0.215720
N120	N	-0.434016	0.359420	0.715720
H121	H	-0.668465	-0.252939	-0.000029
H122	H	-0.168465	0.247061	0.499971
F123	F	-0.547375	0.002141	-0.000106
F124	F	-0.047375	0.502141	0.499894
H125	H	-1.008442	-0.079043	-0.223983
H126	H	-0.508442	0.420957	0.276017
H127	H	-1.057080	0.068328	-0.000128
H128	H	-0.557080	0.568328	0.499872
H129	H	-1.047539	0.647234	-0.000056
H130	H	-0.547539	1.147234	0.499944
F131	F	-1.072572	0.209975	-0.000111
F132	F	-0.572572	0.709975	0.499889
F133	F	-0.338134	-0.042431	-0.000114
F134	F	0.161866	0.457569	0.499886
H135	H	-0.992542	-0.092185	-0.485297
H136	H	-0.492542	0.407815	0.014703
F137	F	-0.130443	-0.288738	-0.000059
F138	F	0.369557	0.211262	0.499941
F139	F	-0.298742	-0.301348	-0.000041
F140	F	0.201258	0.198652	0.499959
H141	H	-0.853570	-0.207013	-0.514862
H142	H	-0.353570	0.292987	-0.014862
H143	H	-0.421525	-0.067721	-0.000118
H144	H	0.078475	0.432279	0.499882
H145	H	-1.025461	0.425502	0.087966
H146	H	-0.525461	0.925502	0.587966
H147	H	-0.837683	-0.220167	-0.776169
H148	H	-0.337683	0.279833	-0.276169
H149	H	-0.789039	0.632468	-0.000024
H150	H	-0.289039	1.132468	0.499976
H151	H	-0.177652	-0.046266	-0.000113
H152	H	0.322348	0.453734	0.499887
F153	F	-0.780913	0.043469	-0.000068
F154	F	-0.280913	0.543469	0.499932
H155	H	-1.031168	-0.060321	-0.776195
H156	H	-0.531168	0.439679	-0.276195
F157	F	-0.507982	-0.256772	-0.000041
F158	F	-0.007982	0.243228	0.499959
H159	H	-0.703097	-0.025384	-0.000084
H160	H	-0.203097	0.474616	0.499916
H161	H	-0.845679	-0.213536	-0.618001
H162	H	-0.345679	0.286464	-0.118001
H163	H	-0.424585	-0.231485	-0.000066
H164	H	0.075415	0.268515	0.499934
H165	H	-1.027633	0.293935	0.087950
H166	H	-0.527633	0.793935	0.587950
H167	H	-0.791206	0.500903	-0.000040
H168	H	-0.291206	1.000903	0.499960
H169	H	-1.049709	0.515672	-0.000083
H170	H	-0.549709	1.015672	0.499917
H171	H	-0.806953	-0.245504	-0.382136
H172	H	-0.306953	0.254496	0.117864
F173	F	-0.804078	0.414632	-0.100246
F174	F	-0.304078	0.914632	0.399754
F175	F	-0.806544	0.264938	-0.100262
F176	F	-0.306544	0.764938	0.399738
H177	H	-0.796414	0.185123	-0.000067
H178	H	-0.296414	0.685123	0.499933
H179	H	-1.000435	-0.085664	-0.382152
H180	H	-0.500435	0.414336	0.117848
F181	F	-1.053050	-0.042226	-0.607114
F182	F	-0.553050	0.457774	-0.107114
H183	H	-0.814951	-0.238883	-0.223958
H184	H	-0.314951	0.261117	0.276042
