data_functionalizedCrystal
_audit_creation_method	'MofGen! by Chris Wilmer'
_symmetry_space_group_name_H-M	'P1'
_symmetry_Int_Tables_number	1
_symmetry_cell_setting	triclinic
loop_
_symmetry_equiv_pos_as_xyz
  x,y,z
_cell_length_a	14.421503
_cell_length_b	10.540539
_cell_length_c	10.540539
_cell_angle_alpha	84.525492
_cell_angle_beta	90.006472
_cell_angle_gamma	89.994347
loop_
_atom_site_label
_atom_site_type_symbol
_atom_site_fract_x
_atom_site_fract_y
_atom_site_fract_z
O1	O	0.077063	-1.685895	-0.178883
O2	O	0.077074	-1.316482	-0.195739
O3	O	0.077067	-1.509616	-0.002604
O4	O	0.077070	-1.492760	-0.372017
O5	O	-0.077156	-1.509584	-0.002633
O6	O	-0.077149	-1.316450	-0.195768
O7	O	-0.077160	-1.685863	-0.178912
Cu8	Cu	-0.091237	-1.501153	-0.187342
Cu9	Cu	0.091151	-1.501191	-0.187308
O10	O	-0.077153	-1.492728	-0.372046
C11	C	-0.000036	-1.269163	-0.194489
C12	C	-0.000032	-1.128215	-0.190707
N13	N	-0.219518	-1.501136	-0.187365
C14	C	-0.000043	-1.508336	0.044684
C15	C	-0.000038	-1.504554	0.185632
C16	C	-0.469168	-1.411814	-0.276630
C17	C	-0.530974	-1.526746	-0.302309
C18	C	-0.408679	-1.501167	-0.187335
C19	C	-0.530967	-1.386265	-0.161686
C20	C	-0.591401	-1.501186	-0.187309
C21	C	-0.469124	-1.616157	-0.213072
C22	C	-0.469112	-1.475599	-0.072399
C23	C	-0.530890	-1.590614	-0.098030
C24	C	-0.303418	-1.501154	-0.187354
C25	C	-0.696660	-1.501212	-0.187290
N26	N	0.219432	-1.501219	-0.187275
C27	C	-0.000048	-1.733182	-0.180161
C28	C	-0.000046	-1.874130	-0.183943
C29	C	-0.000393	-0.944788	-0.045790
C30	C	-0.000036	-1.091406	-0.049624
C31	C	0.088034	-1.066560	-0.258586
C32	C	0.088099	-0.920016	-0.253771
C33	C	-0.087282	-0.919491	-0.256674
C34	C	-0.088437	-1.066473	-0.257974
C35	C	-0.000041	-1.494008	-0.419335
C36	C	-0.000040	-1.497790	-0.560283
C37	C	0.000313	-1.359637	0.369059
C38	C	-0.000034	-1.363471	0.222441
C39	C	-0.088109	-1.572432	0.247274
C40	C	-0.088183	-1.567617	0.393818
C41	C	0.087198	-1.570522	0.394369
C42	C	0.088362	-1.571822	0.247387
H43	H	-0.442068	-1.336330	-0.352206
Cl44	Cl	0.097437	-1.281007	0.156677
H45	H	-0.092181	-1.669081	0.441786
H46	H	-0.441918	-1.453920	0.024759
Cl47	Cl	-0.572910	-1.236230	-0.128206
H48	H	-0.063166	-1.134007	0.003787
H49	H	-0.063550	-0.916189	0.009934
Cl50	Cl	-0.097663	-1.280386	0.157945
Cl51	Cl	0.094273	-0.845951	-0.410419
Cl52	Cl	-0.572928	-1.560164	-0.452357
H53	H	-0.442074	-1.713358	-0.234871
Cl54	Cl	-0.189819	-1.490118	0.437342
H55	H	-0.153588	-1.107422	-0.208386
Cl56	Cl	0.097824	-1.273605	0.413230
Cl57	Cl	0.189227	-1.132327	-0.185751
H58	H	-0.091386	-1.676039	0.224919
Cl59	Cl	-0.572477	-1.707412	0.018579
H60	H	-0.153646	-1.525254	0.204662
Cl61	Cl	0.190259	-1.500033	0.443083
Cl62	Cl	0.188970	-1.495785	0.183575
H63	H	0.062412	-0.914594	0.009722
H64	H	0.063202	-1.133165	0.004187
Cl65	Cl	0.096576	-1.730633	0.209989
H66	H	0.091312	-1.088914	-0.362193
H67	H	0.153928	-0.891819	-0.203578
H68	H	-0.154036	-0.887931	-0.211028
H69	H	-0.087876	-0.872264	-0.358578
Cl70	Cl	-0.096644	-1.103862	-0.416789
Cl71	Cl	-0.096359	-1.273679	0.416222
Cl72	Cl	0.088111	-1.727852	0.467284
