data_functionalizedCrystal
_audit_creation_method	'MofGen! by Chris Wilmer'
_symmetry_space_group_name_H-M	'P1'
_symmetry_Int_Tables_number	1
_symmetry_cell_setting	triclinic
loop_
_symmetry_equiv_pos_as_xyz
  x,y,z
_cell_length_a	16.625547
_cell_length_b	16.625547
_cell_length_c	16.625539
_cell_angle_alpha	90.019469
_cell_angle_beta	89.972942
_cell_angle_gamma	89.996613
loop_
_atom_site_label
_atom_site_type_symbol
_atom_site_fract_x
_atom_site_fract_y
_atom_site_fract_z
Zn1	Zn	-1.232783	-0.321018	0.456099
Zn2	Zn	-0.732783	0.178982	0.956099
Zn3	Zn	-1.232729	-0.455861	0.321287
Zn4	Zn	-0.732729	0.044139	0.821287
Zn5	Zn	-1.097945	-0.321044	0.321264
Zn6	Zn	-0.597945	0.178956	0.821264
Zn7	Zn	-1.097958	-0.455810	0.456061
Zn8	Zn	-0.597958	0.044190	0.956061
O9	O	-1.165354	-0.388433	0.388677
O10	O	-0.665354	0.111567	0.888677
O11	O	-1.345608	-0.338915	0.438241
O12	O	-0.845608	0.161085	0.938241
O13	O	-1.214822	-0.438009	0.208451
O14	O	-0.714822	0.061991	0.708451
O15	O	-1.115848	-0.208208	0.339156
O16	O	-0.615848	0.291792	0.839156
O17	O	-1.345569	-0.437984	0.339195
O18	O	-0.845569	0.062016	0.839195
O19	O	-1.214913	-0.208189	0.438219
O20	O	-0.714913	0.291811	0.938219
O21	O	-1.115796	-0.338960	0.208434
O22	O	-0.615796	0.161040	0.708434
O23	O	-0.985114	-0.338911	0.339120
O24	O	-0.485114	0.161089	0.839120
O25	O	-1.115871	-0.437897	0.568899
O26	O	-0.615871	0.062103	1.068899
O27	O	-0.985124	-0.437923	0.438155
O28	O	-0.485124	0.062077	0.938155
O29	O	-1.214926	-0.338866	0.568926
O30	O	-0.714926	0.161134	1.068926
O31	O	-1.214835	-0.568686	0.339159
O32	O	-0.714835	-0.068686	0.839159
O33	O	-1.115819	-0.568649	0.438177
O34	O	-0.615819	-0.068649	0.938177
C35	C	-0.955863	-0.388415	0.388631
C36	C	-0.455863	0.111585	0.888631
C37	C	-0.866242	-0.388426	0.388631
C38	C	-0.366242	0.111574	0.888631
C39	C	-0.793459	-0.388427	0.388638
C40	C	-0.293459	0.111573	0.888638
C41	C	-0.702151	-0.388430	0.388654
C42	C	-0.202151	0.111570	0.888654
C43	C	-0.629374	-0.388436	0.388672
C44	C	-0.129374	0.111564	0.888672
C45	C	-0.538060	-0.388441	0.388688
C46	C	-0.038060	0.111559	0.888688
C47	C	-1.165344	-0.597924	0.388684
C48	C	-0.665344	-0.097924	0.888684
C49	C	-1.165414	-0.687545	0.388713
C50	C	-0.665414	-0.187545	0.888713
C51	C	-0.375663	-0.388449	0.388715
C52	C	0.124337	0.111551	0.888715
C53	C	-0.465284	-0.388447	0.388705
C54	C	0.034716	0.111553	0.888705
C55	C	-1.165385	-0.178124	0.388689
C56	C	-0.665385	0.321876	0.888689
C57	C	-1.165399	-0.088503	0.388694
C58	C	-0.665399	0.411497	0.888694
C59	C	-1.165406	-0.388373	0.598986
C60	C	-0.665406	0.111627	1.098986
C61	C	-1.165428	-0.388347	0.688608
C62	C	-0.665428	0.111653	1.188608
C63	C	-1.165408	-0.015721	0.388700
C64	C	-0.665408	0.484279	0.888700
C65	C	-1.165412	0.075588	0.388707
C66	C	-0.665412	0.575588	0.888707
C67	C	-1.165410	0.148364	0.388708
C68	C	-0.665410	0.648364	0.888708
C69	C	-1.165415	0.239679	0.388712
C70	C	-0.665415	0.739679	0.888712
C71	C	-1.165348	-0.388435	0.179187
C72	C	-0.665348	0.111565	0.679187
C73	C	-1.165482	-0.388233	0.089566
C74	C	-0.665482	0.111767	0.589566
C75	C	-1.165466	-0.388257	1.016783
C76	C	-0.665466	0.111743	1.516783
C77	C	-1.165453	-0.388285	0.925475
C78	C	-0.665453	0.111715	1.425475
C79	C	-1.165447	-0.388303	0.852698
C80	C	-0.665447	0.111697	1.352698
C81	C	-1.165434	-0.388329	0.761384
C82	C	-0.665434	0.111671	1.261384
