data_functionalizedCrystal
_audit_creation_method	'MofGen! by Chris Wilmer'
_symmetry_space_group_name_H-M	'P1'
_symmetry_Int_Tables_number	1
_symmetry_cell_setting	triclinic
loop_
_symmetry_equiv_pos_as_xyz
  x,y,z
_cell_length_a	19.077212
_cell_length_b	17.638516
_cell_length_c	19.076919
_cell_angle_alpha	77.040002
_cell_angle_beta	90.114942
_cell_angle_gamma	103.941131
loop_
_atom_site_label
_atom_site_type_symbol
_atom_site_fract_x
_atom_site_fract_y
_atom_site_fract_z
Zn1	Zn	1.003732	-0.291675	0.490846
Zn2	Zn	0.984286	-0.420436	0.395527
Zn3	Zn	0.891026	-0.291252	0.368548
Zn4	Zn	0.860100	-0.431153	0.510107
O5	O	0.934786	-0.358629	0.441257
O6	O	1.100292	-0.304448	0.481431
O7	O	0.976719	-0.398637	0.292815
O8	O	0.927058	-0.178873	0.365420
O9	O	1.086005	-0.399048	0.411401
O10	O	1.009862	-0.179184	0.455271
O11	O	0.908202	-0.303727	0.272993
O12	O	0.787784	-0.314119	0.384097
O13	O	0.874349	-0.417314	0.606686
O14	O	0.765063	-0.416903	0.488100
O15	O	0.979874	-0.314840	0.592535
O16	O	0.946731	-0.534294	0.430079
O17	O	0.855493	-0.542168	0.514260
C18	C	0.750718	-0.366629	0.435261
C19	C	0.671968	-0.370071	0.432716
C20	C	0.227892	-0.394727	0.414490
C21	C	0.301887	-0.391488	0.416876
C22	C	0.346306	-0.340703	0.454617
C23	C	0.316727	-0.293148	0.489970
C24	C	0.242735	-0.296383	0.487580
C25	C	0.568397	-0.325751	0.465679
C26	C	0.642394	-0.322521	0.468068
C27	C	0.627549	-0.420861	0.394972
C28	C	0.553555	-0.424095	0.392589
C29	C	0.523983	-0.376537	0.427939
N30	N	0.421940	-0.337393	0.457058
N31	N	0.448351	-0.379843	0.425494
C32	C	0.895665	-0.567384	0.477203
C33	C	0.878992	-0.656688	0.492607
C34	C	1.061869	-0.929763	0.324305
C35	C	1.046190	-1.013679	0.338791
C36	C	0.951110	-1.021923	0.426374
C37	C	0.966779	-0.938006	0.411894
C38	C	1.022160	-0.891932	0.360859
C39	C	0.927070	-0.900175	0.448448
C40	C	0.942741	-0.816265	0.433971
C41	C	0.998120	-0.770186	0.382941
C42	C	1.037831	-0.808023	0.346383
C43	C	0.871693	-0.946250	0.499486
C44	C	0.831984	-0.908419	0.536040
C45	C	0.847651	-0.824508	0.521560
C46	C	0.903031	-0.778429	0.470529
C47	C	0.807941	-0.786671	0.558118
C48	C	0.823611	-0.702762	0.543641
C49	C	0.918701	-0.694519	0.456053
C50	C	1.119573	-0.350599	0.447277
C51	C	1.198318	-0.347177	0.449842
C52	C	0.925831	-0.367319	0.626034
C53	C	0.922015	-0.371022	0.704774
C54	C	0.974079	-0.149060	0.405187
C55	C	0.990823	-0.059753	0.389816
C56	C	0.943758	-0.349914	0.257191
C57	C	0.947754	-0.345978	0.178416
C58	C	0.975161	-0.319412	0.734401
C59	C	0.971567	-0.322889	0.808385
C60	C	0.914829	-0.377981	0.852743
C61	C	0.861678	-0.429593	0.823112
C62	C	0.865270	-0.426112	0.749128
C63	C	0.898194	-0.394109	1.074801
C64	C	0.894608	-0.397589	1.148790
C65	C	1.004496	-0.290883	1.134058
C66	C	1.008085	-0.287410	1.060074
C67	C	0.954932	-0.339019	1.030449
N68	N	0.911156	-0.381537	0.928367
N69	N	0.958603	-0.335458	0.954824
H70	H	0.678559	-0.281160	0.498800
N71	N	0.833412	-0.456999	1.196648
H72	H	0.834263	-0.513329	1.194021
H73	H	0.785790	-0.446038	1.179955
H74	H	0.651634	-0.459580	0.366192
H75	H	1.082922	-0.770508	0.304819
H76	H	0.762855	-0.824197	0.599675
H77	H	0.821987	-0.468131	0.725006
H78	H	0.963793	-0.657004	0.414489
N79	N	1.036363	-0.260000	0.686562
H80	H	1.016050	-0.222572	0.648512
H81	H	1.064534	-0.289853	0.662615
H82	H	1.014845	-0.280864	0.832503
N83	N	0.772249	-0.958112	0.591077
H84	H	0.783485	-0.945379	0.639535
H85	H	0.768373	-1.016992	0.594641
H86	H	0.218658	-0.257660	0.516365
H87	H	1.106961	-0.892248	0.282742
H88	H	1.047769	-0.248864	1.158187
H89	H	1.054288	-0.242550	1.023962
N90	N	0.840849	-0.449746	1.042848
H91	H	0.804359	-0.485167	1.082175
H92	H	0.864177	-0.484243	1.019478
N93	N	1.089021	-1.054472	0.299347
H94	H	1.055337	-1.089032	0.271569
H95	H	1.113940	-1.089128	0.335265
N96	N	0.179985	-0.449508	0.373787
H97	H	0.209951	-0.479137	0.351753
H98	H	0.157000	-0.416546	0.334419
N99	N	0.333787	-0.442768	0.378740
H100	H	0.294420	-0.475433	0.354471
H101	H	0.356129	-0.480013	0.414922
N102	N	0.780788	-0.661951	0.583068
H103	H	0.743326	-0.703870	0.617594
H104	H	0.755920	-0.627247	0.547138
N105	N	0.536522	-0.274445	0.503801
H106	H	0.544606	-0.288826	0.556980
H107	H	0.482920	-0.284204	0.496507
N108	N	1.015030	-0.679683	0.367319
H109	H	1.029439	-0.661152	0.412854
H110	H	0.970820	-0.661083	0.349174
N111	N	0.800469	-0.488997	0.870947
H112	H	0.806255	-0.483370	0.922311
H113	H	0.801350	-0.545299	0.868257
N114	N	0.854782	-1.036753	0.515092
H115	H	0.813676	-1.060200	0.552969
H116	H	0.899008	-1.055356	0.533178
N117	N	0.505648	-0.478868	0.351879
H118	H	0.535612	-0.508498	0.329843
H119	H	0.482665	-0.445901	0.312512
H120	H	0.352900	-0.251794	0.520697
H121	H	0.906021	-1.059447	0.467929
