data_functionalizedCrystal
_audit_creation_method	'MofGen! by Chris Wilmer'
_symmetry_space_group_name_H-M	'P1'
_symmetry_Int_Tables_number	1
_symmetry_cell_setting	triclinic
loop_
_symmetry_equiv_pos_as_xyz
  x,y,z
_cell_length_a	19.188933
_cell_length_b	19.188930
_cell_length_c	7.681481
_cell_angle_alpha	95.727723
_cell_angle_beta	84.294566
_cell_angle_gamma	83.145175
loop_
_atom_site_label
_atom_site_type_symbol
_atom_site_fract_x
_atom_site_fract_y
_atom_site_fract_z
O1	O	0.919524	0.093803	0.146393
O2	O	0.716212	0.105536	0.146412
O3	O	0.823736	-0.001988	0.146367
O4	O	0.811999	0.201327	0.146437
O5	O	0.836971	-0.015252	-0.146496
O6	O	0.729446	0.092272	-0.146452
O7	O	0.932758	0.080538	-0.146471
Zn8	Zn	0.833204	0.084299	-0.192960
Zn9	Zn	0.815766	0.101776	0.192900
O10	O	0.825234	0.188063	-0.146426
C11	C	0.696818	0.098524	-0.000018
C12	C	0.619313	0.097383	-0.000012
C13	C	0.058845	0.096467	0.159606
C14	C	0.131669	0.097536	0.159613
C15	C	0.175300	0.090843	-0.000026
C16	C	0.146104	0.083063	-0.159684
C17	C	0.073282	0.081988	-0.159687
N18	N	0.289689	0.126880	-0.118839
N19	N	0.358866	0.127904	-0.118825
C20	C	0.394709	0.094081	-0.000028
N21	N	0.358758	0.059206	0.118782
N22	N	0.289574	0.058185	0.118774
C23	C	0.254264	0.092008	-0.000041
C24	C	0.502861	0.103014	0.159628
C25	C	0.575687	0.104078	0.159628
C26	C	0.590120	0.089611	-0.159673
C27	C	0.517296	0.088541	-0.159669
C28	C	0.473670	0.095245	-0.000014
C29	C	0.829974	-0.034631	-0.000070
C30	C	0.828834	-0.112136	-0.000085
C31	C	0.891925	-0.157060	-0.000099
C32	C	0.890852	-0.229883	-0.000071
C33	C	0.826686	-0.257780	-0.000063
C34	C	0.763586	-0.212845	-0.000039
C35	C	0.764660	-0.140023	-0.000050
N36	N	0.782143	-0.370299	-0.099726
N37	N	0.781127	-0.439477	-0.099719
C38	C	0.823446	-0.477187	-0.000027
N39	N	0.866832	-0.443107	0.099636
N40	N	0.867850	-0.373923	0.099622
C41	C	0.825514	-0.336741	-0.000051
C42	C	0.885379	-0.601074	-0.000009
C43	C	0.884303	-0.673897	0.000031
C44	C	0.757035	-0.656858	0.000045
C45	C	0.758112	-0.584036	0.000023
C46	C	0.822286	-0.556149	-0.000012
C47	C	0.952152	0.087551	-0.000037
C48	C	1.029656	0.088692	-0.000031
C49	C	0.818996	0.220706	0.000014
C50	C	0.820135	0.298212	0.000041
N51	N	0.845109	0.072372	-0.456299
N52	N	0.803867	0.113698	0.456240
H53	H	0.155438	0.103871	0.289613
C54	C	0.194093	0.075689	-0.335287
H55	H	0.166278	0.070895	-0.430366
H56	H	0.217357	0.116509	-0.341937
H57	H	0.228247	0.035094	-0.341907
C58	C	0.693003	-0.243525	-0.000024
H59	H	0.655579	-0.206336	-0.000002
H60	H	0.694549	-0.276212	-0.102146
H61	H	0.685327	-0.266944	0.102123
H62	H	0.704789	-0.679570	0.000059
C63	C	0.746991	0.170680	-0.442161
H64	H	0.748281	0.169376	-0.319201
H65	H	0.755846	0.215889	-0.472272
H66	H	0.701750	0.161921	-0.472304
C67	C	0.607797	0.112634	0.335234
H68	H	0.657417	0.112308	0.312373
H69	H	0.587448	0.156140	0.400823
H70	H	0.598346	0.074723	0.400832
H71	H	0.049518	0.075659	-0.289687
C72	C	0.901989	0.015387	-0.557906
H73	H	0.900694	0.016684	-0.680866
H74	H	0.947226	0.024139	-0.527756
H75	H	0.893126	-0.029824	-0.527797
C76	C	0.688713	-0.534615	0.000027
H77	H	0.698542	-0.487249	0.000036
H78	H	0.667003	-0.547680	-0.102091
H79	H	0.657780	-0.538417	0.102178
C80	C	0.010858	0.103836	0.335214
H81	H	-0.036694	0.102087	0.312355
H82	H	0.025278	0.066280	0.400806
H83	H	0.014377	0.147697	0.400811
C84	C	0.454869	0.110391	0.335237
H85	H	0.482687	0.115168	0.430316
H86	H	0.420717	0.150983	0.341868
H87	H	0.431606	0.069566	0.341877
C88	C	0.695257	-0.090606	-0.000051
H89	H	0.656887	-0.117647	-0.000050
H90	H	0.688416	-0.057207	0.102066
H91	H	0.697649	-0.066483	-0.102202
H92	H	0.625644	0.084159	-0.289655
C93	C	0.962512	-0.126384	-0.000131
H94	H	0.954118	-0.076580	-0.000151
H95	H	0.983871	-0.137186	0.101988
H96	H	0.993090	-0.146453	-0.102281
H97	H	0.493531	0.082212	-0.289663
C98	C	0.960256	-0.279309	-0.000099
H99	H	0.998629	-0.252271	-0.000132
H100	H	0.957872	-0.303441	0.102027
H101	H	0.967090	-0.312700	-0.102242
C102	C	0.955965	-0.570393	-0.000027
H103	H	0.993386	-0.607580	-0.000005
H104	H	0.963645	-0.546975	-0.102162
H105	H	0.954412	-0.537704	0.102106
H106	H	0.935681	-0.710474	0.000029
