data_functionalizedCrystal
_audit_creation_method	'MofGen! by Chris Wilmer'
_symmetry_space_group_name_H-M	'P1'
_symmetry_Int_Tables_number	1
_symmetry_cell_setting	triclinic
loop_
_symmetry_equiv_pos_as_xyz
  x,y,z
_cell_length_a	14.044220
_cell_length_b	14.044191
_cell_length_c	12.503572
_cell_angle_alpha	86.162165
_cell_angle_beta	93.843168
_cell_angle_gamma	93.190327
loop_
_atom_site_label
_atom_site_type_symbol
_atom_site_fract_x
_atom_site_fract_y
_atom_site_fract_z
O1	O	0.225145	1.282208	-0.089273
O2	O	0.216832	1.005536	-0.089287
O3	O	0.082653	1.139719	-0.089269
O4	O	0.359324	1.148026	-0.089290
O5	O	0.092762	1.129629	0.089371
O6	O	0.226941	0.995447	0.089354
O7	O	0.235254	1.272118	0.089368
Cu8	Cu	0.232021	1.132861	0.105672
Cu9	Cu	0.220065	1.144794	-0.105591
O10	O	0.369433	1.137936	0.089350
C11	C	0.218250	0.964870	0.000032
C12	C	0.207402	0.858727	0.000027
C13	C	0.264503	0.613268	0.000034
C14	C	0.187587	0.664393	0.000038
C15	C	0.198615	0.772531	0.000032
C16	C	0.253477	0.505121	0.000040
C17	C	0.052086	1.131038	0.000051
C18	C	-0.054057	1.120194	0.000052
C19	C	-0.248396	1.100368	0.000036
C20	C	-0.299524	1.177283	0.000036
C21	C	-0.407661	1.166252	0.000027
C22	C	-0.140249	1.111398	0.000045
C23	C	0.400000	1.146617	0.000027
C24	C	0.506143	1.157462	0.000020
C25	C	0.233836	1.312785	0.000046
C26	C	0.244683	1.418929	0.000044
N27	N	0.240429	1.124476	0.254263
N28	N	0.211650	1.153186	-0.254182
C29	C	0.252807	1.112141	0.473377
C30	C	0.199275	1.165518	0.526711
C31	C	0.206162	1.158655	0.648633
C32	C	0.245921	1.119003	0.351444
H33	H	0.338629	0.650710	0.000025
O34	O	0.313672	1.051399	0.527966
C35	C	0.362118	1.003132	0.454372
H36	H	0.318430	1.003118	0.374172
H37	H	0.372136	0.926336	0.486979
H38	H	0.434960	1.040911	0.442455
O39	O	0.099212	0.619583	-0.000014
C40	C	0.107729	0.520023	0.000012
H41	H	0.178382	0.504971	-0.033800
H42	H	0.046049	0.487528	-0.051860
H43	H	0.105641	0.487065	0.085714
O44	O	0.138200	1.225954	0.471947
C45	C	0.071413	1.173188	0.407079
H46	H	0.102425	1.102786	0.390260
H47	H	0.054963	1.216094	0.327984
H48	H	0.002849	1.158018	0.450535
O49	O	-0.254710	1.265653	0.000099
C50	C	-0.155153	1.257142	0.000080
H51	H	-0.136280	1.182668	0.033890
H52	H	-0.116802	1.312960	0.051957
H53	H	-0.131871	1.268916	-0.085619
H54	H	-0.285835	1.026241	0.000029
