data_functionalizedCrystal
_audit_creation_method	'MofGen! by Chris Wilmer'
_symmetry_space_group_name_H-M	'P1'
_symmetry_Int_Tables_number	1
_symmetry_cell_setting	triclinic
loop_
_symmetry_equiv_pos_as_xyz
  x,y,z
_cell_length_a	11.792254
_cell_length_b	11.792241
_cell_length_c	9.730223
_cell_angle_alpha	89.996253
_cell_angle_beta	89.997852
_cell_angle_gamma	84.196007
loop_
_atom_site_label
_atom_site_type_symbol
_atom_site_fract_x
_atom_site_fract_y
_atom_site_fract_z
O1	O	1.506897	0.155635	-0.114289
O2	O	2.006897	0.655635	0.385711
O3	O	1.176557	0.171653	-0.114292
O4	O	1.676557	0.671653	0.385708
O5	O	1.349743	-0.001526	-0.114281
O6	O	1.849743	0.498474	0.385719
O7	O	1.333711	0.328814	-0.114301
O8	O	1.833711	0.828814	0.385699
O9	O	1.349736	-0.001529	0.114299
O10	O	1.849736	0.498471	0.614299
O11	O	1.176550	0.171650	0.114288
O12	O	1.676550	0.671650	0.614288
O13	O	1.506889	0.155632	0.114291
O14	O	2.006889	0.655632	0.614291
Zn15	Zn	1.341718	0.163641	0.150581
Zn16	Zn	1.841718	0.663641	0.650581
Zn17	Zn	1.341728	0.163644	-0.150583
Zn18	Zn	1.841728	0.663644	0.349417
O19	O	1.333703	0.328811	0.114279
O20	O	1.833703	0.828811	0.614279
C21	C	1.134263	0.170642	-0.000003
C22	C	1.634263	0.670642	0.499997
C23	C	1.008250	0.167622	-0.000004
C24	C	1.508250	0.667622	0.499996
C25	C	0.905913	0.165168	-0.000009
C26	C	1.405913	0.665168	0.499991
C27	C	0.777527	0.162100	-0.000010
C28	C	1.277527	0.662100	0.499990
C29	C	1.348732	-0.043819	0.000008
C30	C	1.848732	0.456181	0.500008
C31	C	1.345718	-0.169832	0.000007
C32	C	1.845718	0.330168	0.500007
C33	C	1.340175	-0.400545	-0.000016
C34	C	1.840175	0.099455	0.499984
C35	C	1.343255	-0.272160	-0.000003
C36	C	1.843255	0.227840	0.499997
C37	C	1.549183	0.156643	-0.000002
C38	C	2.049183	0.656643	0.499998
C39	C	1.675196	0.159663	-0.000010
C40	C	2.175196	0.659663	0.499990
C41	C	1.334714	0.371104	-0.000013
C42	C	1.834714	0.871104	0.499987
C43	C	1.337728	0.497118	-0.000021
C44	C	1.837728	0.997118	0.499979
N45	N	1.341719	0.163638	0.356117
N46	N	1.841719	0.663638	0.856117
C47	C	1.272472	0.094329	0.428069
C48	C	1.772472	0.594329	0.928069
C49	C	1.272473	0.094336	0.571952
C50	C	1.772473	0.594336	1.071952
C51	C	1.410980	0.232963	0.571919
C52	C	1.910980	0.732963	1.071919
C53	C	1.410971	0.232961	0.428039
C54	C	1.910971	0.732961	0.928039
C55	C	1.203219	0.025006	0.356148
C56	C	1.703219	0.525006	0.856148
C57	C	1.133967	-0.044309	0.428100
C58	C	1.633967	0.455691	0.928100
C59	C	1.133969	-0.044303	0.571983
C60	C	1.633969	0.455697	1.071983
C61	C	1.203223	0.025019	0.643914
C62	C	1.703223	0.525019	1.143914
N63	N	1.341730	0.163646	0.643881
N64	N	1.841730	0.663646	1.143881
H65	H	1.203212	0.024991	0.238991
H66	H	1.703212	0.524991	0.738991
H67	H	1.467364	0.289401	0.630497
H68	H	1.967364	0.789401	1.130497
F69	F	1.060257	-0.118072	0.351544
F70	F	1.560257	0.381928	0.851544
F71	F	1.203213	0.025031	0.797049
F72	F	1.703213	0.525031	1.297049
F73	F	1.060256	-0.118062	0.648556
F74	F	1.560256	0.381938	1.148556
H75	H	1.467355	0.289403	0.369454
H76	H	1.967355	0.789403	0.869454
