data_functionalizedCrystal
_audit_creation_method	'MofGen! by Chris Wilmer'
_symmetry_space_group_name_H-M	'P1'
_symmetry_Int_Tables_number	1
_symmetry_cell_setting	triclinic
loop_
_symmetry_equiv_pos_as_xyz
  x,y,z
_cell_length_a	11.792241
_cell_length_b	15.995350
_cell_length_c	10.268362
_cell_angle_alpha	89.996947
_cell_angle_beta	89.999626
_cell_angle_gamma	83.842895
loop_
_atom_site_label
_atom_site_type_symbol
_atom_site_fract_x
_atom_site_fract_y
_atom_site_fract_z
O1	O	1.505952	0.114763	-0.108167
O2	O	1.175512	0.126591	-0.108197
O3	O	1.349764	-0.001170	-0.108180
O4	O	1.331699	0.242524	-0.108184
O5	O	1.349749	-0.001175	0.108421
O6	O	1.175497	0.126586	0.108404
O7	O	1.505936	0.114758	0.108434
Cu8	Cu	1.340715	0.120671	0.128196
Cu9	Cu	1.340733	0.120678	-0.127959
O10	O	1.331684	0.242518	0.108417
C11	C	1.133220	0.125845	0.000100
C12	C	1.007224	0.123621	0.000088
C13	C	0.776546	0.119532	0.000126
C14	C	0.904913	0.121804	0.000105
C15	C	1.349010	-0.032370	0.000118
C16	C	1.346771	-0.125331	0.000111
C17	C	1.338730	-0.463115	0.000114
C18	C	1.214630	-0.416244	-0.000383
C19	C	1.216870	-0.319544	0.000106
C20	C	1.342718	-0.295536	0.000112
C21	C	1.403920	-0.336339	0.123804
C22	C	1.400803	-0.432989	0.123908
C23	C	1.403383	-0.433329	-0.122408
C24	C	1.403354	-0.336384	-0.124042
C25	C	1.344979	-0.200829	0.000115
C26	C	1.336473	-0.557823	0.000120
C27	C	1.548229	0.115504	0.000134
C28	C	1.674224	0.117727	0.000137
C29	C	1.332438	0.273719	0.000116
C30	C	1.334677	0.366680	0.000115
N31	N	1.340711	0.120666	0.308362
N32	N	1.340746	0.120676	-0.308125
C33	C	1.340727	0.120676	0.574033
C34	C	1.340715	0.120673	0.426195
H35	H	1.168761	-0.291338	-0.088562
H36	H	1.165035	-0.434999	-0.089086
O37	O	1.155597	-0.439969	0.104697
C38	C	1.058671	-0.476797	0.062243
H39	H	1.073252	-0.501360	-0.041285
H40	H	0.981104	-0.427699	0.064109
C41	C	1.019968	-0.520003	0.280349
C42	C	1.037881	-0.550178	0.153199
H43	H	1.007140	-0.565265	0.336457
H44	H	1.085266	-0.495188	0.308953
H45	H	0.955331	-0.479087	0.281886
H46	H	1.102525	-0.591085	0.151661
H47	H	0.972593	-0.575002	0.124597
O48	O	1.350133	-0.303922	-0.233179
C49	C	1.354735	-0.216227	-0.236334
H50	H	1.429271	-0.199523	-0.174340
H51	H	1.271738	-0.182953	-0.196150
C52	C	1.279645	-0.208461	-0.453951
C53	C	1.371197	-0.187946	-0.377817
H54	H	1.289795	-0.191014	-0.541223
H55	H	1.276540	-0.267542	-0.451824
H56	H	1.210490	-0.180731	-0.420448
H57	H	1.440348	-0.215684	-0.411310
H58	H	1.374314	-0.128868	-0.379952
H59	H	1.361400	-0.308153	0.215848
H60	H	1.168425	-0.291901	0.088916
H61	H	1.362816	-0.454051	-0.216159
O62	O	1.509548	-0.470882	0.130458
C63	C	1.571757	-0.447052	0.021813
H64	H	1.529882	-0.384820	-0.018381
H65	H	1.572712	-0.497553	-0.056637
C66	C	1.746419	-0.513300	0.112772
C67	C	1.694992	-0.436862	0.063412
H68	H	1.822437	-0.507018	0.138429
H69	H	1.704508	-0.529358	0.185966
H70	H	1.747204	-0.555377	0.047388
H71	H	1.694195	-0.394789	0.128800
H72	H	1.736906	-0.420797	-0.009771
H73	H	1.356161	-0.451495	0.216366
O74	O	1.512834	-0.317517	-0.132726
C75	C	1.537099	-0.266689	-0.026265
H76	H	1.476303	-0.276645	0.057269
H77	H	1.525874	-0.197798	-0.056944
C78	C	1.735567	-0.278550	-0.083969
C79	C	1.660901	-0.290784	0.018633
H80	H	1.811934	-0.293409	-0.056276
H81	H	1.719219	-0.312792	-0.155697
H82	H	1.726198	-0.221140	-0.109525
H83	H	1.670260	-0.348194	0.044177
H84	H	1.677253	-0.256552	0.090367
O85	O	1.512469	-0.470859	-0.123474
C86	C	1.511614	-0.558884	-0.128158
H87	H	1.427202	-0.574601	-0.170812
H88	H	1.522048	-0.585796	-0.025524
C89	C	1.714289	-0.578151	-0.161910
C90	C	1.610616	-0.597455	-0.214309
H91	H	1.775361	-0.601944	-0.215047
H92	H	1.714867	-0.518847	-0.158750
H93	H	1.722968	-0.600578	-0.076383
H94	H	1.601932	-0.575018	-0.299827
H95	H	1.610039	-0.656756	-0.217486
O96	O	1.514196	-0.318951	0.129544
C97	C	1.531612	-0.274631	0.245261
H98	H	1.464610	-0.288050	0.320247
H99	H	1.524037	-0.204315	0.223864
C100	C	1.733671	-0.286596	0.207175
C101	C	1.651384	-0.303084	0.299277
H102	H	1.807554	-0.304144	0.240493
H103	H	1.721938	-0.316452	0.129211
H104	H	1.727344	-0.227999	0.189352
H105	H	1.657703	-0.361681	0.317086
H106	H	1.663121	-0.273238	0.377246
