data_functionalizedCrystal
_audit_creation_method	'MofGen! by Chris Wilmer'
_symmetry_space_group_name_H-M	'P1'
_symmetry_Int_Tables_number	1
_symmetry_cell_setting	triclinic
loop_
_symmetry_equiv_pos_as_xyz
  x,y,z
_cell_length_a	17.699083
_cell_length_b	23.532407
_cell_length_c	16.176319
_cell_angle_alpha	89.988536
_cell_angle_beta	89.998611
_cell_angle_gamma	83.065847
loop_
_atom_site_label
_atom_site_type_symbol
_atom_site_fract_x
_atom_site_fract_y
_atom_site_fract_z
O1	O	1.003713	0.072020	-0.068639
O2	O	0.783287	0.081390	-0.068667
O3	O	0.900147	-0.006208	-0.068637
O4	O	0.886853	0.159618	-0.068669
O5	O	0.900131	-0.006213	0.068856
O6	O	0.783271	0.081384	0.068826
O7	O	1.003697	0.072014	0.068854
Cu8	Cu	0.893483	0.076699	0.081394
Cu9	Cu	0.893502	0.076705	-0.081207
O10	O	0.886837	0.159612	0.068824
C11	C	0.755084	0.081051	0.000076
C12	C	0.671071	0.080044	0.000066
C13	C	0.622189	0.131462	0.000056
C14	C	0.543251	0.130512	0.000067
C15	C	0.513196	0.078144	0.000082
C16	C	0.562084	0.026722	0.000094
C17	C	0.641021	0.027672	0.000089
C18	C	0.243740	0.022888	0.000115
C19	C	0.164797	0.021942	0.000117
C20	C	0.145970	0.125728	0.000093
C21	C	0.224907	0.126678	0.000088
C22	C	0.273788	0.075257	0.000105
C23	C	0.359382	0.076287	0.000094
C24	C	0.427603	0.077113	0.000086
C25	C	0.899801	-0.027427	0.000111
C26	C	0.898783	-0.090647	0.000118
C27	C	0.961554	-0.489570	0.000080
C28	C	0.960609	-0.548973	0.000074
O29	O	1.018799	-0.585550	0.000051
N30	N	0.891136	-0.571799	0.000066
C31	C	0.822604	-0.535218	0.000055
O32	O	0.763424	-0.560088	0.000047
C33	C	0.823550	-0.475816	0.000056
C34	C	0.893028	-0.452994	0.000073
C35	C	1.031026	-0.466747	0.000096
C36	C	1.031972	-0.407348	0.000104
C37	C	0.963445	-0.370772	0.000096
C38	C	0.893973	-0.393595	0.000080
C39	C	0.755019	-0.439237	0.000040
C40	C	0.755971	-0.379832	0.000039
C41	C	0.825448	-0.357009	0.000056
C42	C	0.826391	-0.297620	0.000081
N43	N	0.895864	-0.274795	0.000089
C44	C	0.964391	-0.311371	0.000097
C45	C	0.820622	-0.659966	0.000053
C46	C	0.819674	-0.719367	0.000058
C47	C	0.957680	-0.733118	0.000075
C48	C	0.958626	-0.673716	0.000076
C49	C	0.890095	-0.637141	0.000061
C50	C	0.966371	-0.186628	0.000114
C51	C	0.967310	-0.127223	0.000125
C52	C	0.829305	-0.113478	0.000104
C53	C	0.828365	-0.172877	0.000097
C54	C	0.896904	-0.209452	0.000099
O55	O	0.768232	-0.261008	0.000100
O56	O	1.023560	-0.286493	0.000094
C57	C	1.031901	0.072353	0.000109
C58	C	1.115914	0.073360	0.000114
C59	C	0.887184	0.180832	0.000073
C60	C	0.888202	0.244052	0.000062
N61	N	0.893475	0.076694	0.195759
N62	N	0.893516	0.076706	-0.195573
C63	C	0.945236	0.037921	0.239037
C64	C	0.945240	0.037921	0.325584
C65	C	0.893486	0.076696	0.368852
C66	C	0.841719	0.115470	0.325568
C67	C	0.841713	0.115467	0.239023
C68	C	0.841745	0.115481	0.674597
C69	C	0.841758	0.115481	0.761148
C70	C	0.945273	0.037934	0.761158
C71	C	0.945266	0.037932	0.674612
C72	C	0.893497	0.076704	0.631336
C73	C	0.893493	0.076703	0.537492
C74	C	0.893493	0.076700	0.462695
H75	H	0.283530	-0.018983	0.000129
O76	O	0.098378	0.175628	0.000122
C77	C	0.022260	0.163564	0.000112
H78	H	0.019569	0.118837	0.026156
H79	H	-0.013750	0.196347	0.040022
H80	H	-0.000590	0.165755	-0.065850
O81	O	0.752203	-0.741561	0.000196
C82	C	0.747520	-0.775534	0.071389
H83	H	0.786957	-0.761549	0.121169
H84	H	0.686477	-0.770125	0.095280
H85	H	0.765336	-0.822399	0.055285
H86	H	1.022182	-0.216401	0.000113
H87	H	0.140330	-0.020705	0.000130
O88	O	0.495801	0.180476	-0.000092
C89	C	0.509374	0.212283	-0.071303
H90	H	0.536577	0.182178	-0.121067
H91	H	0.453192	0.235200	-0.095207
H92	H	0.549328	0.245189	-0.055218
H93	H	1.088547	-0.388773	0.000114
O94	O	0.791434	0.153200	0.632694
C95	C	0.745749	0.187415	0.689445
H96	H	0.776783	0.188029	0.751131
H97	H	0.733853	0.232907	0.664427
H98	H	0.689669	0.168975	0.698667
O99	O	0.253976	0.177599	0.000111
C100	C	0.193903	0.222779	0.000086
H101	H	0.140394	0.206888	0.026121
H102	H	0.210127	0.259345	0.039997
H103	H	0.182612	0.238639	-0.065879
H104	H	0.764811	-0.630189	0.000048
H105	H	0.799610	0.147058	0.796376
O106	O	0.995503	0.000301	0.632478
C107	C	1.041959	0.030677	0.582284
H108	H	1.043082	0.075572	0.608347
H109	H	1.102235	0.007287	0.581172
H110	H	1.018127	0.033733	0.516746
O111	O	0.532765	-0.024099	0.000073
C112	C	0.452611	-0.013914	0.000093
H113	H	0.433736	0.030556	-0.025947
H114	H	0.428624	-0.047416	-0.039816
H115	H	0.430657	-0.016645	0.066057
H116	H	0.680820	-0.014197	0.000096
O117	O	1.034757	-0.104988	0.000028
C118	C	1.039451	-0.071038	-0.071187
H119	H	0.979686	-0.056161	-0.094933
H120	H	1.069322	-0.032182	-0.055164
H121	H	1.073140	-0.097317	-0.121050
H122	H	0.773512	-0.083687	0.000101
O123	O	0.995523	0.000186	0.803108
C124	C	0.983634	-0.056179	0.781992
H125	H	0.954457	-0.056081	0.719157
H126	H	1.040734	-0.084281	0.779035
H127	H	0.946096	-0.073756	0.830709
H128	H	0.698442	-0.457808	0.000021
O129	O	0.995422	0.000202	0.367656
C130	C	0.955171	-0.034892	0.417749
H131	H	0.895490	-0.035801	0.391680
H132	H	0.986400	-0.080186	0.418736
H133	H	0.951077	-0.017067	0.483337
H134	H	1.086833	-0.496522	0.000099
H135	H	0.987383	0.006349	0.203814
O136	O	1.026183	-0.651644	0.000047
C137	C	1.086458	-0.696671	0.000077
H138	H	1.065550	-0.736994	-0.025952
H139	H	1.134997	-0.684319	-0.039837
H140	H	1.107567	-0.705111	0.066042
O141	O	0.791339	0.153078	0.367561
C142	C	0.716490	0.143896	0.346413
H143	H	0.716467	0.098298	0.322636
H144	H	0.678463	0.150481	0.403332
H145	H	0.694013	0.175483	0.296170
O146	O	0.689327	-0.344384	0.000062
C147	C	0.627809	-0.377271	0.000024
H148	H	0.647363	-0.421635	0.026055
H149	H	0.579814	-0.355308	0.039933
H150	H	0.606506	-0.381465	-0.065944
H151	H	1.013478	-0.762909	0.000079
O152	O	0.760810	-0.194956	0.000047
C153	C	0.700530	-0.149932	0.000066
H154	H	0.721440	-0.109598	-0.025946
H155	H	0.652005	-0.162273	-0.039869
H156	H	0.679401	-0.141517	0.066026
H157	H	0.646653	0.174106	0.000044
H158	H	0.799563	0.147039	0.203787
