data_functionalizedCrystal
_audit_creation_method	'MofGen! by Chris Wilmer'
_symmetry_space_group_name_H-M	'P1'
_symmetry_Int_Tables_number	1
_symmetry_cell_setting	triclinic
loop_
_symmetry_equiv_pos_as_xyz
  x,y,z
_cell_length_a	6.817900
_cell_length_b	11.353959
_cell_length_c	10.773894
_cell_angle_alpha	107.082425
_cell_angle_beta	96.645922
_cell_angle_gamma	107.526623
loop_
_atom_site_label
_atom_site_type_symbol
_atom_site_fract_x
_atom_site_fract_y
_atom_site_fract_z
V1	V	-3.980486	-0.175628	-0.427091
V2	V	-3.480486	0.324372	0.072909
O3	O	-3.935538	0.013371	-0.378636
O4	O	-3.435538	0.513371	0.121364
O5	O	-3.964386	-0.352984	-0.462954
O6	O	-3.464386	0.147016	0.037046
O7	O	-3.897273	-0.170763	-0.595667
O8	O	-3.397273	0.329237	-0.095667
O9	O	-4.003116	-0.170112	-0.245004
O10	O	-3.503116	0.329888	0.254996
V11	V	-4.464439	-0.153278	-0.400601
V12	V	-3.964439	0.346722	0.099399
O13	O	-4.240800	-0.224657	-0.485200
O14	O	-3.740800	0.275343	0.014800
O15	O	-4.654322	-0.104249	-0.342492
O16	O	-4.154322	0.395751	0.157508
O17	O	-4.257332	0.024078	-0.364739
O18	O	-3.757332	0.524078	0.135261
O19	O	-4.626784	-0.342277	-0.449056
O20	O	-4.126784	0.157723	0.050944
O21	O	-4.559206	-0.158794	-0.582688
O22	O	-4.059206	0.341206	-0.082688
O23	O	-4.324446	-0.158143	-0.232026
O24	O	-3.824446	0.341857	0.267974
C25	C	-3.818372	-0.396287	-0.466224
C26	C	-3.318372	0.103713	0.033776
C27	C	-3.886263	-0.541264	-0.496669
C28	C	-3.386263	-0.041264	0.003331
C29	C	-3.897067	-0.589539	-0.398124
C30	C	-3.397067	-0.089539	0.101876
C31	C	-3.967236	-0.739380	-0.429589
C32	C	-3.467236	-0.239380	0.070411
C33	C	-3.732760	-0.163845	-0.635510
C34	C	-3.232760	0.336155	-0.135510
C35	C	-3.746222	-0.161040	-0.773576
C36	C	-3.246222	0.338960	-0.273576
C37	C	-3.925181	-0.165901	-0.842494
C38	C	-3.425181	0.334099	-0.342494
C39	C	-3.939098	-0.163002	-0.985193
C40	C	-3.439098	0.336998	-0.485193
C41	C	-4.066691	0.067374	-0.361467
C42	C	-3.566691	0.567374	0.138533
C43	C	-3.978036	0.212350	-0.331030
C44	C	-3.478036	0.712350	0.168970
C45	C	-4.152302	-0.165066	-0.192177
C46	C	-3.652302	0.334934	0.307823
C47	C	-4.118079	-0.167863	-0.054108
C48	C	-3.618079	0.332137	0.445892
H49	H	-3.935346	-0.718056	-0.223361
H50	H	-3.435346	-0.218056	0.276639
H51	H	-4.261007	-0.174175	-1.007476
H52	H	-3.761007	0.325825	-0.507476
H53	H	-3.928968	-0.610864	-0.604331
H54	H	-3.428968	-0.110864	-0.104331
F55	F	-3.752278	-0.154749	-1.046140
F56	F	-3.252278	0.345251	-0.546140
F57	F	-3.559414	-0.152788	-0.834529
F58	F	-3.059414	0.347212	-0.334529
F59	F	-3.841323	-0.498575	-0.257402
F60	F	-3.341323	0.001425	0.242598
F61	F	-4.023058	-0.830343	-0.570321
F62	F	-3.523058	-0.330343	-0.070321
H63	H	-4.068088	-0.172198	-0.795850
H64	H	-3.568088	0.327802	-0.295850
