data_functionalizedCrystal
_audit_creation_method	'MofGen! by Chris Wilmer'
_symmetry_space_group_name_H-M	'P1'
_symmetry_Int_Tables_number	1
_symmetry_cell_setting	triclinic
loop_
_symmetry_equiv_pos_as_xyz
  x,y,z
_cell_length_a	11.792241
_cell_length_b	19.188930
_cell_length_c	10.868271
_cell_angle_alpha	89.989749
_cell_angle_beta	89.999893
_cell_angle_gamma	83.669099
loop_
_atom_site_label
_atom_site_type_symbol
_atom_site_fract_x
_atom_site_fract_y
_atom_site_fract_z
O1	O	1.505476	0.095695	-0.102218
O2	O	2.005476	0.595695	0.397782
O3	O	1.174987	0.105557	-0.102248
O4	O	1.674987	0.605557	0.397752
O5	O	1.349769	-0.000975	-0.102208
O6	O	1.849769	0.499025	0.397792
O7	O	1.330695	0.202228	-0.102258
O8	O	1.830695	0.702228	0.397742
O9	O	1.349755	-0.000980	0.102437
O10	O	1.849755	0.499020	0.602437
O11	O	1.174973	0.105553	0.102396
O12	O	1.674973	0.605553	0.602396
O13	O	1.505462	0.095691	0.102427
O14	O	2.005462	0.595691	0.602427
Zn15	Zn	1.340215	0.100621	0.134903
Zn16	Zn	1.840215	0.600621	0.634903
Zn17	Zn	1.340234	0.100627	-0.134725
Zn18	Zn	1.840234	0.600627	0.365275
O19	O	1.330680	0.202224	0.102387
O20	O	1.830680	0.702224	0.602387
C21	C	1.132699	0.104936	0.000071
C22	C	1.632699	0.604936	0.500071
C23	C	1.006713	0.103082	0.000060
C24	C	1.506713	0.603082	0.500060
C25	C	0.776051	0.099672	0.000096
C26	C	1.276051	0.599672	0.500096
C27	C	0.904408	0.101566	0.000076
C28	C	1.404408	0.601566	0.500076
C29	C	1.349144	-0.026992	0.000118
C30	C	1.849144	0.473008	0.500118
C31	C	1.347290	-0.104507	0.000128
C32	C	1.847290	0.395493	0.500128
C33	C	1.449846	-0.148850	0.000143
C34	C	1.949846	0.351150	0.500143
C35	C	1.448104	-0.221684	0.000123
C36	C	1.948104	0.278316	0.500123
C37	C	1.343800	-0.250171	0.000113
C38	C	1.843800	0.249829	0.500113
C39	C	1.241230	-0.205818	0.000091
C40	C	1.741230	0.294182	0.500091
C41	C	1.242975	-0.132986	0.000098
C42	C	1.742975	0.367014	0.500098
N43	N	1.264067	-0.358629	0.069750
N44	N	1.764067	0.141371	0.569750
N45	N	1.262417	-0.427817	0.069746
N46	N	1.762417	0.072183	0.569746
C47	C	1.338536	-0.469609	0.000088
C48	C	1.838536	0.030391	0.500088
N49	N	1.416386	-0.439602	-0.069550
N50	N	1.916386	0.060398	0.430450
N51	N	1.418040	-0.370408	-0.069540
N52	N	1.918040	0.129592	0.430460
C53	C	1.341896	-0.329144	0.000104
C54	C	1.841896	0.170856	0.500104
C55	C	1.439211	-0.592928	0.000080
C56	C	1.939211	-0.092928	0.500080
C57	C	1.437464	-0.665762	0.000052
C58	C	1.937464	-0.165762	0.500052
C59	C	1.230588	-0.649895	0.000032
C60	C	1.730588	-0.149895	0.500032
C61	C	1.232337	-0.577062	0.000047
C62	C	1.732337	-0.077062	0.500047
C63	C	1.336652	-0.548583	0.000077
C64	C	1.836652	-0.048583	0.500077
C65	C	1.547751	0.096313	0.000105
C66	C	2.047751	0.596313	0.500105
C67	C	1.673737	0.098167	0.000108
C68	C	2.173737	0.598167	0.500108
C69	C	1.331305	0.228240	0.000058
C70	C	1.831305	0.728240	0.500058
C71	C	1.333159	0.305755	0.000040
C72	C	1.833159	0.805755	0.500040
N73	N	1.340211	0.100617	0.318917
N74	N	1.840211	0.600617	0.818917
N75	N	1.340248	0.100626	-0.318739
N76	N	1.840248	0.600626	0.181261
C77	C	1.340228	0.100625	0.569923
C78	C	1.840228	0.600625	1.069923
C79	C	1.340215	0.100623	0.430246
C80	C	1.840215	0.600623	0.930246
H81	H	1.534787	-0.125667	0.000163
H82	H	2.034787	0.374333	0.500163
H83	H	1.524150	-0.569739	0.000098
H84	H	2.024150	-0.069739	0.500098
C85	C	1.559420	-0.269874	-0.000104
C86	C	2.059420	0.230126	0.499896
C87	C	1.564491	-0.312129	-0.105403
C88	C	2.064491	0.187871	0.394597
C89	C	1.667022	-0.356522	-0.105660
C90	C	2.167022	0.143478	0.394340
H91	H	1.563129	-0.298688	0.071178
H92	H	2.063129	0.201312	0.571178
H93	H	1.621828	-0.242507	-0.000152
H94	H	2.121828	0.257493	0.499848
H95	H	1.502099	-0.339493	-0.105343
H96	H	2.002099	0.160507	0.394657
H97	H	1.560801	-0.283334	-0.176702
H98	H	2.060801	0.216666	0.323298
H99	H	1.729431	-0.329155	-0.105708
H100	H	2.229431	0.170845	0.394292
H101	H	1.670723	-0.385331	-0.034374
H102	H	2.170723	0.114669	0.465626
H103	H	1.670481	-0.385192	-0.177109
H104	H	2.170481	0.114808	0.322891
H105	H	1.159459	-0.096881	0.000086
H106	H	1.659459	0.403119	0.500086
C107	C	1.548941	-0.713793	0.000130
C108	C	2.048941	-0.213793	0.500130
C109	C	1.640661	-0.673259	0.000193
C110	C	2.140661	-0.173259	0.500193
C111	C	1.743371	-0.717482	0.000282
C112	C	2.243371	-0.217482	0.500282
H113	H	1.552735	-0.742539	-0.071219
H114	H	2.052735	-0.242539	0.428781
H115	H	1.552609	-0.742535	0.071519
H116	H	2.052609	-0.242535	0.571519
H117	H	1.636994	-0.644530	-0.071189
H118	H	2.136994	-0.144530	0.428811
H119	H	1.636904	-0.644515	0.071536
H120	H	2.136904	-0.144515	0.571536
H121	H	1.747040	-0.746224	0.071671
H122	H	2.247040	-0.246224	0.571671
H123	H	1.747154	-0.746226	-0.071068
H124	H	2.247154	-0.246226	0.428932
H125	H	1.805615	-0.689986	0.000336
H126	H	2.305615	-0.189986	0.500336
H127	H	1.156305	-0.229017	0.000080
H128	H	1.656305	0.270983	0.500080
H129	H	1.145661	-0.673089	0.000017
H130	H	1.645661	-0.173089	0.500017
C131	C	1.120865	-0.529030	0.000111
C132	C	1.620865	-0.029030	0.500111
C133	C	1.029144	-0.569563	0.000130
C134	C	1.529144	-0.069563	0.500130
C135	C	0.926435	-0.525340	0.000202
C136	C	1.426435	-0.025340	0.500202
H137	H	1.117087	-0.500263	-0.071230
H138	H	1.617087	-0.000263	0.428770
H139	H	1.117181	-0.500309	0.071508
H140	H	1.617181	-0.000309	0.571508
H141	H	1.032826	-0.598272	-0.071260
H142	H	1.532826	-0.098272	0.428740
H143	H	1.032885	-0.598329	0.071465
H144	H	1.532885	-0.098329	0.571465
H145	H	0.922751	-0.496620	0.071598
H146	H	1.422751	0.003380	0.571598
H147	H	0.922668	-0.496575	-0.071140
H148	H	1.422668	0.003425	0.428860
H149	H	0.864190	-0.552836	0.000226
H150	H	1.364190	-0.052836	0.500226
