data_functionalizedCrystal
_audit_creation_method	'MofGen! by Chris Wilmer'
_symmetry_space_group_name_H-M	'P1'
_symmetry_Int_Tables_number	1
_symmetry_cell_setting	triclinic
loop_
_symmetry_equiv_pos_as_xyz
  x,y,z
_cell_length_a	17.699083
_cell_length_b	9.130307
_cell_length_c	17.699083
_cell_angle_alpha	90.004177
_cell_angle_beta	96.716985
_cell_angle_gamma	90.004943
loop_
_atom_site_label
_atom_site_type_symbol
_atom_site_fract_x
_atom_site_fract_y
_atom_site_fract_z
O1	O	-1.004073	0.121582	0.095710
O2	O	-0.504073	0.621582	0.595710
O3	O	-0.783694	0.121634	0.108162
O4	O	-0.283694	0.621634	0.608162
O5	O	-0.900110	0.121594	-0.008253
O6	O	-0.400110	0.621594	0.491747
O7	O	-0.887657	0.121623	0.212125
O8	O	-0.387657	0.621623	0.712125
O9	O	-0.900106	-0.122005	-0.008254
O10	O	-0.400106	0.377995	0.491746
O11	O	-0.783691	-0.121965	0.108161
O12	O	-0.283691	0.378035	0.608161
O13	O	-1.004069	-0.122017	0.095709
O14	O	-0.504069	0.377983	0.595709
Cu15	Cu	-0.893879	-0.144233	0.101935
Cu16	Cu	-0.393879	0.355767	0.601935
Cu17	Cu	-0.893884	0.143851	0.101936
Cu18	Cu	-0.393884	0.643851	0.601936
O19	O	-0.887653	-0.121976	0.212124
O20	O	-0.387653	0.378024	0.712124
C21	C	-0.755495	-0.000159	0.107716
C22	C	-0.255495	0.499841	0.607716
C23	C	-0.671477	-0.000140	0.106377
C24	C	-0.171477	0.499860	0.606377
C25	C	-0.622856	-0.000131	0.174710
C26	C	-0.122856	0.499869	0.674710
C27	C	-0.543913	-0.000149	0.173448
C28	C	-0.043913	0.499851	0.673448
C29	C	-0.513592	-0.000165	0.103852
C30	C	-0.013592	0.499835	0.603852
C31	C	-0.562219	-0.000179	0.035513
C32	C	-0.062219	0.499821	0.535513
C33	C	-0.641161	-0.000171	0.036776
C34	C	-0.141161	0.499829	0.536776
C35	C	-0.243856	-0.000211	0.030418
C36	C	0.256144	0.499789	0.530418
C37	C	-0.164908	-0.000214	0.029160
C38	C	0.335092	0.499786	0.529160
C39	C	-0.146608	-0.000188	0.167090
C40	C	0.353392	0.499812	0.667090
C41	C	-0.225550	-0.000181	0.168353
C42	C	0.274450	0.499819	0.668353
C43	C	-0.274170	-0.000202	0.100015
C44	C	0.225830	0.499798	0.600015
C45	C	-0.359769	-0.000185	0.101384
C46	C	0.140231	0.499815	0.601384
C47	C	-0.427995	-0.000172	0.102481
C48	C	0.072005	0.499828	0.602481
N49	N	-0.893882	-0.346856	0.101934
N50	N	-0.393882	0.153144	0.601934
C51	C	-0.997009	-0.346882	-0.001123
C52	C	-0.497009	0.153118	0.498877
C53	C	-1.048578	-0.423561	-0.052649
C54	C	-0.548578	0.076439	0.447351
C55	C	-1.048586	-0.576895	-0.052649
C56	C	-0.548586	-0.076895	0.447351
C57	C	-0.997017	-0.653552	-0.001120
C58	C	-0.497017	-0.153552	0.498880
C59	C	-0.945449	-0.576873	0.050406
C60	C	-0.445449	-0.076873	0.550406
C61	C	-0.945448	-0.423536	0.050403
C62	C	-0.445448	0.076464	0.550403
C63	C	-0.842319	-0.576847	0.153458
C64	C	-0.342319	-0.076847	0.653458
C65	C	-0.842313	-0.423514	0.153463
C66	C	-0.342313	0.076486	0.653463
C67	C	-0.790750	-0.653504	0.204987
C68	C	-0.290750	-0.153504	0.704987
C69	C	-0.739184	-0.576825	0.256518
C70	C	-0.239184	-0.076825	0.756518
C71	C	-0.739179	-0.423482	0.256517
C72	C	-0.239179	0.076518	0.756517
C73	C	-0.790745	-0.346834	0.204989
C74	C	-0.290745	0.153166	0.704989
C75	C	-0.032268	-0.000217	0.096156
C76	C	0.467732	0.499783	0.596156
C77	C	-0.116286	-0.000215	0.097494
C78	C	0.383714	0.499785	0.597494
C79	C	-0.899662	-0.000206	-0.036451
C80	C	-0.399662	0.499794	0.463549
C81	C	-0.898323	-0.000206	-0.120469
C82	C	-0.398323	0.499794	0.379531
N83	N	-0.893887	0.346473	0.101932
N84	N	-0.393887	0.846473	0.601932
C85	C	-0.966656	-0.000224	-0.169090
C86	C	-0.466656	0.499776	0.330910
C87	C	-0.965394	-0.000211	-0.248033
C88	C	-0.465394	0.499789	0.251967
C89	C	-0.895798	-0.000190	-0.278354
C90	C	-0.395798	0.499810	0.221646
C91	C	-0.827459	-0.000168	-0.229727
C92	C	-0.327459	0.499832	0.270273
C93	C	-0.828722	-0.000170	-0.150785
C94	C	-0.328722	0.499830	0.349215
C95	C	-0.822364	-0.000155	-0.548090
C96	C	-0.322364	0.499845	-0.048090
C97	C	-0.821106	-0.000156	-0.627038
C98	C	-0.321106	0.499844	-0.127038
C99	C	-0.959036	-0.000195	-0.645338
C100	C	-0.459036	0.499805	-0.145338
C101	C	-0.960299	-0.000198	-0.566396
C102	C	-0.460299	0.499802	-0.066396
C103	C	-0.891961	-0.000168	-0.517776
C104	C	-0.391961	0.499832	-0.017776
C105	C	-0.893330	-0.000179	-0.432177
C106	C	-0.393330	0.499821	0.067823
C107	C	-0.894427	-0.000189	-0.363951
C108	C	-0.394427	0.499811	0.136049
C109	C	-0.888102	-0.000174	0.240322
C110	C	-0.388102	0.499826	0.740322
C111	C	-0.889440	-0.000164	0.324340
C112	C	-0.389440	0.499836	0.824340
H113	H	-0.537526	-0.000213	-0.021154
H114	H	-0.037526	0.499787	0.478846
H115	H	-0.790748	-0.221982	0.204986
H116	H	-0.290748	0.278018	0.704986
Cl117	Cl	-0.674341	-0.327099	0.321293
Cl118	Cl	-0.174341	0.172901	0.821293
H119	H	-0.504328	-0.000140	0.229092
H120	H	-0.004328	0.499860	0.729092
Cl121	Cl	-0.263663	-0.000152	0.255849
Cl122	Cl	0.236337	0.499848	0.755849
H123	H	-0.680748	-0.000178	-0.018868
H124	H	-0.180748	0.499822	0.481132
Cl125	Cl	-0.085481	-0.000169	0.253002
Cl126	Cl	0.414519	0.499831	0.753002
H127	H	-0.997015	-0.222030	-0.001121
H128	H	-0.497015	0.277970	0.498879
Cl129	Cl	-1.113412	-0.673294	-0.117430
Cl130	Cl	-0.613412	-0.173294	0.382570
H131	H	-1.023330	-0.000250	-0.144409
H132	H	-0.523330	0.499750	0.355591
Cl133	Cl	-0.739966	-0.000123	-0.267844
Cl134	Cl	-0.239966	0.499877	0.232156
Cl135	Cl	-0.742813	-0.000142	-0.089661
Cl136	Cl	-0.242813	0.499858	0.410339
H137	H	-0.140225	-0.000230	-0.027517
H138	H	0.359775	0.499770	0.472483
H139	H	-0.647537	-0.000116	0.231384
H140	H	-0.147537	0.499884	0.731384
Cl141	Cl	-1.113402	-0.327190	-0.117429
Cl142	Cl	-0.613402	0.172810	0.382571
H143	H	-0.283434	-0.000230	-0.025228
H144	H	0.216566	0.499770	0.474772
H145	H	-0.997021	-0.778404	-0.001130
H146	H	-0.497021	-0.278404	0.498870
Cl147	Cl	-0.790755	-0.846268	0.204985
Cl148	Cl	-0.290755	-0.346268	0.704985
Cl149	Cl	-0.674358	-0.673198	0.321287
Cl150	Cl	-0.174358	-0.173198	0.821287
H151	H	-1.021038	-0.000229	-0.287618
H152	H	-0.521038	0.499771	0.212382
H153	H	-1.016971	-0.000222	-0.541714
H154	H	-0.516971	0.499778	-0.041714
Cl155	Cl	-0.733606	-0.000127	-0.665153
Cl156	Cl	-0.233606	0.499873	-0.165153
H157	H	-1.014680	-0.000212	-0.684934
H158	H	-0.514680	0.499788	-0.184934
H159	H	-0.766718	-0.000130	-0.508512
H160	H	-0.266718	0.499870	-0.008512
