data_functionalizedCrystal
_audit_creation_method	'MofGen! by Chris Wilmer'
_symmetry_space_group_name_H-M	'P1'
_symmetry_Int_Tables_number	1
_symmetry_cell_setting	triclinic
loop_
_symmetry_equiv_pos_as_xyz
  x,y,z
_cell_length_a	11.026607
_cell_length_b	10.065875
_cell_length_c	11.026607
_cell_angle_alpha	100.731764
_cell_angle_beta	71.413983
_cell_angle_gamma	100.697662
loop_
_atom_site_label
_atom_site_type_symbol
_atom_site_fract_x
_atom_site_fract_y
_atom_site_fract_z
O1	O	1.741286	0.113490	-0.518966
O2	O	2.241286	0.613490	-0.018966
O3	O	1.374706	0.113493	-0.458202
O4	O	1.874706	0.613493	0.041798
O5	O	1.527614	0.113487	-0.305294
O6	O	2.027614	0.613487	0.194706
O7	O	1.588379	0.113496	-0.671873
O8	O	2.088379	0.613496	-0.171873
O9	O	1.498489	-0.113501	-0.334601
O10	O	1.998489	0.386499	0.165399
O11	O	1.345582	-0.113495	-0.487509
O12	O	1.845582	0.386505	0.012491
O13	O	1.712161	-0.113497	-0.548273
O14	O	2.212161	0.386503	-0.048273
Zn15	Zn	1.524247	-0.149535	-0.522544
Zn16	Zn	2.024247	0.350465	-0.022544
Zn17	Zn	1.562620	0.149531	-0.483931
Zn18	Zn	2.062620	0.649531	0.016069
O19	O	1.559254	-0.113491	-0.701180
O20	O	2.059254	0.386509	-0.201180
C21	C	1.312485	-0.000001	-0.461645
C22	C	1.812485	0.499999	0.038355
C23	C	1.170471	-0.000000	-0.428228
C24	C	1.670471	0.500000	0.071772
N25	N	1.498068	-0.353640	-0.548898
N26	N	1.998068	0.146360	-0.048898
C27	C	1.116822	0.000003	-0.520498
C28	C	1.616822	0.500003	-0.020498
C29	C	0.970043	0.000004	-0.485962
C30	C	1.470043	0.500004	0.014038
C31	C	1.553502	-0.421421	-0.493090
C32	C	2.053502	0.078579	0.006910
C33	C	1.533366	-0.578587	-0.513385
C34	C	2.033366	-0.078587	-0.013385
C35	C	1.774384	-0.000001	-0.544829
C36	C	2.274384	0.499999	-0.044829
C37	C	1.916399	0.000007	-0.578244
C38	C	2.416399	0.500007	-0.078244
C39	C	1.501842	-0.000005	-0.272288
C40	C	2.001842	0.499995	0.227712
C41	C	1.468426	-0.000000	-0.130273
C42	C	1.968426	0.500000	0.369727
N43	N	1.588808	0.353635	-0.457569
N44	N	2.088808	0.853635	0.042431
C45	C	1.585026	0.000004	-0.734186
C46	C	2.085026	0.500004	-0.234186
C47	C	1.618444	0.000008	-0.876199
C48	C	2.118444	0.500008	-0.376199
C49	C	1.560695	0.000001	-0.076624
C50	C	2.060695	0.500001	0.423376
C51	C	1.526160	0.000006	0.070155
C52	C	2.026160	0.500006	0.570155
H53	H	1.179554	-0.000002	-0.625061
H54	H	1.679554	0.499998	-0.125061
H55	H	0.907318	0.000036	-0.381388
H56	H	1.407318	0.500036	0.118612
C57	C	1.001129	0.000019	-0.719508
C58	C	1.501129	0.500019	-0.219508
H59	H	1.088667	0.000029	-0.724191
H60	H	1.588667	0.500029	-0.224191
H61	H	0.973349	-0.079131	-0.770967
H62	H	1.473349	0.420869	-0.270967
H63	H	0.993658	0.079190	-0.750508
H64	H	1.493658	0.579190	-0.250508
H65	H	1.651173	-0.588046	-0.394755
H66	H	2.151173	-0.088046	0.105245
H67	H	1.363864	0.000009	-0.067539
H68	H	1.863864	0.500009	0.432461
H69	H	1.107742	0.000032	-0.323661
H70	H	1.607742	0.500032	0.176339
C71	C	1.701952	-0.000005	-0.161360
C72	C	2.201952	0.499995	0.338640
H73	H	1.706631	-0.000017	-0.248897
H74	H	2.206631	0.499983	0.251103
H75	H	1.753346	0.079148	-0.133519
H76	H	2.253346	0.579148	0.366481
H77	H	1.733021	-0.079173	-0.153953
H78	H	2.233021	0.420827	0.346047
H79	H	1.615864	-0.363099	-0.430280
H80	H	2.115864	0.136901	0.069720
H81	H	1.470989	-0.636906	-0.576187
H82	H	1.970989	-0.136906	-0.076187
H83	H	1.435696	-0.411964	-0.611696
H84	H	1.935696	0.088036	-0.111696
H85	H	1.723027	0.000110	0.061086
H86	H	2.223027	0.500110	0.561086
C87	C	1.384896	0.000009	0.154887
C88	C	1.884896	0.500009	0.654887
H89	H	1.380215	0.000003	0.242422
H90	H	1.880215	0.500003	0.742422
H91	H	1.353818	0.079161	0.147477
H92	H	1.853818	0.579161	0.647477
H93	H	1.333509	-0.079160	0.127045
H94	H	1.833509	0.420840	0.627045
