data_functionalizedCrystal
_audit_creation_method	'MofGen! by Chris Wilmer'
_symmetry_space_group_name_H-M	'P1'
_symmetry_Int_Tables_number	1
_symmetry_cell_setting	triclinic
loop_
_symmetry_equiv_pos_as_xyz
  x,y,z
_cell_length_a	16.992694
_cell_length_b	14.971486
_cell_length_c	14.048226
_cell_angle_alpha	89.993360
_cell_angle_beta	89.999324
_cell_angle_gamma	87.141176
loop_
_atom_site_label
_atom_site_type_symbol
_atom_site_fract_x
_atom_site_fract_y
_atom_site_fract_z
O1	O	1.040571	0.189676	-0.079042
O2	O	1.540571	0.689676	0.420958
O3	O	0.812284	0.187595	-0.079070
O4	O	1.312284	0.687595	0.420930
O5	O	0.932546	0.058866	-0.079049
O6	O	1.432546	0.558866	0.420951
O7	O	0.920309	0.318406	-0.079064
O8	O	1.420309	0.818406	0.420936
O9	O	0.932532	0.058856	0.079273
O10	O	1.432532	0.558856	0.579273
O11	O	0.812269	0.187586	0.079251
O12	O	1.312269	0.687586	0.579251
O13	O	1.040557	0.189667	0.079279
O14	O	1.540557	0.689667	0.579279
Zn15	Zn	0.926411	0.188625	0.104402
Zn16	Zn	1.426411	0.688625	0.604402
Zn17	Zn	0.926430	0.188637	-0.104193
Zn18	Zn	1.426430	0.688637	0.395807
O19	O	0.920294	0.318397	0.079257
O20	O	1.420294	0.818397	0.579257
C21	C	0.931992	0.025498	0.000111
C22	C	1.431992	0.525498	0.500111
C23	C	0.930352	-0.073914	0.000110
C24	C	1.430352	0.426086	0.500110
C25	C	0.783062	0.184914	0.000087
C26	C	1.283062	0.684914	0.500087
C27	C	0.696010	0.176927	0.000076
C28	C	1.196010	0.676927	0.500076
C29	C	1.001003	-0.126176	0.000120
C30	C	1.501003	0.373824	0.500120
C31	C	0.999457	-0.219584	0.000110
C32	C	1.499457	0.280416	0.500110
C33	C	0.927260	-0.260729	0.000098
C34	C	1.427260	0.239271	0.500098
C35	C	0.856603	-0.208461	0.000086
C36	C	1.356603	0.291539	0.500086
C37	C	0.858150	-0.115054	0.000088
C38	C	1.358150	0.384946	0.500088
C39	C	0.853385	-0.403149	0.000082
C40	C	1.353385	0.096851	0.500082
C41	C	0.851838	-0.496562	0.000080
C42	C	1.351838	0.003438	0.500080
C43	C	0.994692	-0.507679	0.000103
C44	C	1.494692	-0.007679	0.500103
C45	C	0.996239	-0.414272	0.000106
C46	C	1.496239	0.085728	0.500106
C47	C	0.925582	-0.362011	0.000096
C48	C	1.425582	0.137989	0.500096
C49	C	0.645842	0.253991	0.000073
C50	C	1.145842	0.753991	0.500073
C51	C	0.564048	0.246481	0.000086
C52	C	1.064048	0.746481	0.500086
C53	C	0.532424	0.161906	0.000097
C54	C	1.032424	0.661906	0.500097
C55	C	0.582599	0.084836	0.000103
C56	C	1.082599	0.584836	0.500103
C57	C	0.664391	0.092347	0.000096
C58	C	1.164391	0.592347	0.500096
C59	C	0.288797	0.130776	0.000124
C60	C	0.788797	0.630776	0.500124
C61	C	0.206999	0.123271	0.000128
C62	C	0.706999	0.623271	0.500128
C63	C	0.188454	0.284917	0.000112
C64	C	0.688454	0.784917	0.500112
C65	C	0.270248	0.292421	0.000100
C66	C	0.770248	0.792421	0.500100
C67	C	0.320416	0.215351	0.000112
C68	C	0.820416	0.715351	0.500112
N69	N	0.448818	0.154227	0.000107
N70	N	0.948818	0.654227	0.500107
N71	N	0.404020	0.223030	0.000108
N72	N	0.904020	0.723030	0.500108
C73	C	1.069779	0.192349	0.000120
C74	C	1.569779	0.692349	0.500120
C75	C	1.156831	0.200336	0.000124
C76	C	1.656831	0.700336	0.500124
C77	C	0.920849	0.351765	0.000095
C78	C	1.420849	0.851765	0.500095
C79	C	0.922489	0.451177	0.000090
C80	C	1.422489	0.951177	0.500090
N81	N	0.926403	0.188617	0.246763
N82	N	1.426403	0.688617	0.746763
N83	N	0.926443	0.188639	-0.246554
N84	N	1.426443	0.688639	0.253446
C85	C	0.979672	0.131642	0.296590
C86	C	1.479672	0.631642	0.796590
C87	C	0.979678	0.131641	0.396248
C88	C	1.479678	0.631641	0.896248
C89	C	0.926417	0.188622	0.446076
C90	C	1.426417	0.688622	0.946076
C91	C	0.873143	0.245600	0.396242
C92	C	1.373143	0.745600	0.896242
C93	C	0.873134	0.245594	0.296586
C94	C	1.373134	0.745594	0.796586
C95	C	0.873165	0.245608	0.603956
C96	C	1.373165	0.745608	1.103956
C97	C	0.873174	0.245614	0.703618
C98	C	1.373174	0.745614	1.203618
C99	C	0.979709	0.131655	0.703618
C100	C	1.479709	0.631655	1.203618
C101	C	0.979700	0.131650	0.603962
C102	C	1.479700	0.631650	1.103962
C103	C	0.926426	0.188629	0.554134
C104	C	1.426426	0.688629	1.054134
H105	H	1.059794	-0.092683	0.000136
H106	H	1.559794	0.407317	0.500136
H107	H	0.181255	0.054397	0.000135
H108	H	0.681255	0.554397	0.500135
H109	H	1.056988	-0.262131	0.000120
H110	H	1.556988	0.237869	0.500120
O111	O	0.821323	0.300854	0.751986
O112	O	1.321323	0.800854	1.251986
C113	C	0.743692	0.280706	0.727637
C114	C	1.243692	0.780706	1.227637
H115	H	0.743256	0.209062	0.700243
H116	H	1.243256	0.709062	1.200243
H117	H	0.704359	0.288138	0.793185
H118	H	1.204359	0.788138	1.293185
H119	H	0.720684	0.328626	0.669797
H120	H	1.220684	0.828626	1.169797
H121	H	1.023086	0.085260	0.744193
H122	H	1.523086	0.585260	1.244193
O123	O	0.784699	-0.352474	-0.000056
O124	O	1.284699	0.147526	0.499944
C125	C	0.740883	-0.371886	-0.082069
C126	C	1.240883	0.128114	0.417931
H127	H	0.760069	-0.441284	-0.109406
H128	H	1.260069	0.058716	0.390594
H129	H	0.675487	-0.369994	-0.063634
H130	H	1.175487	0.130006	0.436366
H131	H	0.751661	-0.320080	-0.139483
H132	H	1.251661	0.179920	0.360517
O133	O	1.066438	-0.374446	0.000080
O134	O	1.566438	0.125554	0.500080
C135	C	1.128470	-0.440601	0.000112
C136	C	1.628470	0.059399	0.500112
H137	H	1.106437	-0.505552	-0.029868
H138	H	1.606437	-0.005552	0.470132
H139	H	1.178875	-0.417491	-0.045843
H140	H	1.678875	0.082509	0.454157
H141	H	1.150258	-0.452253	0.076070
H142	H	1.650258	0.047747	0.576070
O143	O	0.139641	0.359713	-0.000017
O144	O	0.639641	0.859713	0.499983
C145	C	0.091783	0.360224	-0.082021
C146	C	0.591783	0.860224	0.417979
H147	H	0.087580	0.288930	-0.109355
H148	H	0.587580	0.788930	0.390645
H149	H	0.030343	0.389150	-0.063575
H150	H	0.530343	0.889150	0.436425
H151	H	0.118726	0.403007	-0.139442
H152	H	0.618726	0.903007	0.360558
H153	H	1.023073	0.085257	0.563392
H154	H	1.523073	0.585257	1.063392
H155	H	0.829781	0.292003	0.563389
H156	H	1.329781	0.792003	1.063389
H157	H	0.829773	0.291991	0.436817
H158	H	1.329773	0.791991	0.936817
O159	O	0.337411	0.055822	0.000089
O160	O	0.837411	0.555822	0.500089
C161	C	0.291956	-0.020432	0.000121
C162	C	0.791956	0.479568	0.500121
H163	H	0.230934	-0.002087	-0.029855
H164	H	0.730934	0.497913	0.470145
H165	H	0.322072	-0.074790	-0.045838
H166	H	0.822072	0.425210	0.454162
H167	H	0.286107	-0.046082	0.076078
H168	H	0.786107	0.453918	0.576078
O169	O	1.031440	0.076206	0.248339
O170	O	1.531440	0.576206	0.748339
C171	C	1.078470	0.025934	0.313693
C172	C	1.578470	0.525934	0.813693
H173	H	1.046326	0.022609	0.384736
H174	H	1.546326	0.522609	0.884736
H175	H	1.090366	-0.044643	0.284912
H176	H	1.590366	0.455357	0.784912
H177	H	1.136745	0.059182	0.324278
H178	H	1.636745	0.559182	0.824278
O179	O	0.821361	0.301027	0.248327
O180	O	1.321361	0.801027	0.748327
C181	C	0.774341	0.351306	0.313674
C182	C	1.274341	0.851306	0.813674
H183	H	0.806496	0.354642	0.384707
H184	H	1.306496	0.854642	0.884707
H185	H	0.762438	0.421879	0.284868
H186	H	1.262438	0.921879	0.784868
H187	H	0.716068	0.318057	0.324288
H188	H	1.216068	0.818057	0.824288
O189	O	0.551752	0.002747	0.000073
O190	O	1.051752	0.502747	0.500073
C191	C	0.468802	0.012641	0.000099
C192	C	0.968802	0.512641	0.500099
H193	H	0.449659	0.081075	-0.029880
H194	H	0.949659	0.581075	0.470120
H195	H	0.443640	-0.041829	-0.045860
H196	H	0.943640	0.458171	0.454140
H197	H	0.446032	0.006676	0.076056
H198	H	0.946032	0.506676	0.576056
O199	O	0.713015	0.017396	0.000053
O200	O	1.213015	0.517396	0.500053
C201	C	0.667566	-0.058864	0.000085
C202	C	1.167566	0.441136	0.500085
H203	H	0.606542	-0.040523	-0.029886
H204	H	1.106542	0.459477	0.470114
H205	H	0.697684	-0.113218	-0.045878
H206	H	1.197684	0.386782	0.454122
H207	H	0.661723	-0.084517	0.076042
H208	H	1.161723	0.415483	0.576042
H209	H	1.023053	0.085247	0.436817
H210	H	1.523053	0.585247	0.936817
O211	O	0.781775	-0.536676	0.000105
O212	O	1.281775	-0.036676	0.500105
C213	C	0.795566	-0.630325	0.000087
C214	C	1.295566	-0.130325	0.500087
H215	H	0.856735	-0.647858	0.030076
H216	H	1.356735	-0.147858	0.530076
H217	H	0.749357	-0.662281	0.046041
H218	H	1.249357	-0.162281	0.546041
H219	H	0.791756	-0.656562	-0.075868
H220	H	1.291756	-0.156562	0.424132
O221	O	0.786421	-0.248322	0.000197
O222	O	1.286421	0.251678	0.500197
C223	C	0.743345	-0.222140	0.082198
C224	C	1.243345	0.277860	0.582198
H225	H	0.764776	-0.155906	0.109540
H226	H	1.264776	0.344094	0.609540
H227	H	0.678059	-0.213851	0.063745
H228	H	1.178059	0.286149	0.563745
H229	H	0.752367	-0.275488	0.139615
H230	H	1.252367	0.224512	0.639615
H231	H	1.052223	-0.550235	0.000109
H232	H	1.552223	-0.050235	0.500109
O233	O	0.789541	-0.064246	-0.000087
O234	O	1.289541	0.435754	0.499913
C235	C	0.786181	-0.009859	-0.082071
C236	C	1.286181	0.490141	0.417929
H237	H	0.826253	-0.041158	-0.139375
H238	H	1.326253	0.458842	0.360625
H239	H	0.723030	-0.003876	-0.109605
H240	H	1.223030	0.496124	0.390395
H241	H	0.806541	0.059436	-0.063530
H242	H	1.306541	0.559436	0.436470
H243	H	0.295990	0.361291	0.000080
H244	H	0.795990	0.861291	0.500080
H245	H	0.523204	0.309235	0.000082
H246	H	1.023204	0.809235	0.500082
O247	O	0.676427	0.336217	0.000103
O248	O	1.176427	0.836217	0.500103
C249	C	0.614604	0.402624	0.000081
C250	C	1.114604	0.902624	0.500081
H251	H	0.559021	0.373574	0.030061
H252	H	1.059021	0.873574	0.530061
H253	H	0.631750	0.461319	0.046040
H254	H	1.131750	0.961319	0.546040
H255	H	0.603049	0.426680	-0.075875
H256	H	1.103049	0.926680	0.424125
