data_functionalizedCrystal
_audit_creation_method	'MofGen! by Chris Wilmer'
_symmetry_space_group_name_H-M	'P1'
_symmetry_Int_Tables_number	1
_symmetry_cell_setting	triclinic
loop_
_symmetry_equiv_pos_as_xyz
  x,y,z
_cell_length_a	16.625548
_cell_length_b	18.101395
_cell_length_c	16.625539
_cell_angle_alpha	89.972352
_cell_angle_beta	89.979432
_cell_angle_gamma	90.032172
loop_
_atom_site_label
_atom_site_type_symbol
_atom_site_fract_x
_atom_site_fract_y
_atom_site_fract_z
Zn1	Zn	1.232632	-0.294807	-0.455913
Zn2	Zn	1.565965	0.038526	-0.122580
Zn3	Zn	1.899299	0.371859	0.210754
Zn4	Zn	1.232515	-0.418656	-0.321082
Zn5	Zn	1.565848	-0.085323	0.012252
Zn6	Zn	1.899182	0.248010	0.345585
Zn7	Zn	1.097794	-0.294835	-0.321094
Zn8	Zn	1.431127	0.038498	0.012240
Zn9	Zn	1.764461	0.371831	0.345573
Zn10	Zn	1.097744	-0.418614	-0.455872
Zn11	Zn	1.431077	-0.085280	-0.122538
Zn12	Zn	1.764411	0.248053	0.210795
O13	O	1.165171	-0.356728	-0.388490
O14	O	1.498505	-0.023395	-0.055157
O15	O	1.831838	0.309939	0.278177
O16	O	1.345449	-0.311242	-0.438040
O17	O	1.678782	0.022091	-0.104706
O18	O	2.012116	0.355425	0.228627
O19	O	1.214616	-0.402261	-0.208251
O20	O	1.547949	-0.068927	0.125082
O21	O	1.881282	0.264406	0.458416
O22	O	1.115750	-0.191199	-0.339000
O23	O	1.449084	0.142135	-0.005667
O24	O	1.782417	0.475468	0.327667
O25	O	1.345363	-0.402233	-0.338980
O26	O	1.678696	-0.068900	-0.005646
O27	O	2.012030	0.264433	0.327687
O28	O	1.214815	-0.191178	-0.438051
O29	O	1.548149	0.142155	-0.104718
O30	O	1.881482	0.475489	0.228616
O31	O	1.115637	-0.311290	-0.208260
O32	O	1.448970	0.022043	0.125074
O33	O	1.782303	0.355377	0.458407
O34	O	0.984955	-0.311249	-0.338960
O35	O	1.318288	0.022084	-0.005626
O36	O	1.651622	0.355418	0.327707
O37	O	1.115665	-0.402161	-0.568710
O38	O	1.448999	-0.068828	-0.235376
O39	O	1.782332	0.264506	0.097957
O40	O	0.984918	-0.402188	-0.437981
O41	O	1.318252	-0.068855	-0.104647
O42	O	1.651585	0.264478	0.228686
O43	O	1.214767	-0.311201	-0.568740
O44	O	1.548100	0.022133	-0.235407
O45	O	1.881434	0.355466	0.097927
O46	O	1.214567	-0.522284	-0.338940
O47	O	1.547901	-0.188950	-0.005606
O48	O	1.881234	0.144383	0.327727
O49	O	1.115552	-0.522252	-0.437969
O50	O	1.448885	-0.188919	-0.104636
O51	O	1.782218	0.144414	0.228697
C52	C	0.955680	-0.356718	-0.388467
C53	C	1.289014	-0.023384	-0.055134
C54	C	1.622347	0.309949	0.278199
C55	C	0.866059	-0.356731	-0.388477
C56	C	1.199393	-0.023398	-0.055144
C57	C	1.532726	0.309936	0.278190
C58	C	1.165063	-0.549139	-0.388466
C59	C	1.498397	-0.215805	-0.055133
C60	C	1.831730	0.117528	0.278200
C61	C	1.165091	-0.631453	-0.388483
C62	C	1.498424	-0.298119	-0.055150
C63	C	1.831758	0.035214	0.278184
C64	C	0.537884	-0.356736	-0.388511
C65	C	0.871217	-0.023402	-0.055178
C66	C	1.204550	0.309931	0.278155
C67	C	0.629192	-0.356732	-0.388499
C68	C	0.962525	-0.023399	-0.055166
C69	C	1.295859	0.309934	0.278167
C70	C	0.701969	-0.356734	-0.388494
C71	C	1.035302	-0.023400	-0.055160
C72	C	1.368635	0.309933	0.278173
C73	C	0.793283	-0.356729	-0.388483
C74	C	1.126616	-0.023396	-0.055149
C75	C	1.459949	0.309937	0.278184
C76	C	1.165268	-0.930544	-0.388527
C77	C	1.498601	-0.597210	-0.055193
C78	C	1.831935	-0.263877	0.278140
C79	C	1.103114	-0.899230	-0.450988
C80	C	1.436448	-0.565896	-0.117655
C81	C	1.769781	-0.232563	0.215679
C82	C	1.102819	-0.813612	-0.450793
C83	C	1.436152	-0.480278	-0.117459
C84	C	1.769486	-0.146945	0.215874
C85	C	1.165180	-0.782161	-0.388506
C86	C	1.498513	-0.448828	-0.055172
C87	C	1.831847	-0.115495	0.278161
C88	C	1.142173	-0.813313	-0.303528
C89	C	1.475506	-0.479980	0.029806
C90	C	1.808840	-0.146647	0.363139
C91	C	1.141772	-0.898959	-0.303901
C92	C	1.475106	-0.565625	0.029432
C93	C	1.808439	-0.232292	0.362765
C94	C	1.250565	-0.898886	-0.410295
C95	C	1.583898	-0.565552	-0.076962
C96	C	1.917231	-0.232219	0.256372
C97	C	1.250063	-0.813235	-0.412159
C98	C	1.583396	-0.479901	-0.078825
C99	C	1.916730	-0.146568	0.254508
C100	C	1.165132	-0.698302	-0.388489
C101	C	1.498465	-0.364968	-0.055155
C102	C	1.831799	-0.031635	0.278178
C103	C	1.165314	-1.014403	-0.388538
C104	C	1.498647	-0.681070	-0.055205
C105	C	1.831981	-0.347736	0.278129
C106	C	1.375480	-0.356739	-0.388513
C107	C	1.708813	-0.023406	-0.055180
C108	C	2.042147	0.309927	0.278154
C109	C	1.465101	-0.356744	-0.388523
C110	C	1.798435	-0.023411	-0.055190
C111	C	2.131768	0.309923	0.278144
C112	C	1.165224	-0.356673	-0.598799
C113	C	1.498557	-0.023340	-0.265466
C114	C	1.831890	0.309994	0.067868
C115	C	1.165246	-0.356649	-0.688420
C116	C	1.498579	-0.023316	-0.355087
C117	C	1.831913	0.310017	-0.021753
C118	C	1.165302	-0.163566	-0.388531
C119	C	1.498635	0.169767	-0.055198
C120	C	1.831968	0.503100	0.278135
C121	C	1.165357	-0.081252	-0.388549
C122	C	1.498690	0.252081	-0.055216
C123	C	1.832024	0.585415	0.278118
C124	C	1.165283	-0.356567	-1.016596
C125	C	1.498617	-0.023233	-0.683263
C126	C	1.831950	0.310100	-0.349929
C127	C	1.165271	-0.356592	-0.925287
C128	C	1.498604	-0.023259	-0.591954
C129	C	1.831937	0.310075	-0.258621
C130	C	1.165265	-0.356609	-0.852511
C131	C	1.498598	-0.023275	-0.519178
C132	C	1.831932	0.310058	-0.185844
C133	C	1.165252	-0.356633	-0.761197
C134	C	1.498585	-0.023300	-0.427863
C135	C	1.831918	0.310034	-0.094530
C136	C	1.165165	-0.356730	-0.178999
C137	C	1.498499	-0.023396	0.154334
C138	C	1.831832	0.309937	0.487667
C139	C	1.165299	-0.356545	-0.089378
C140	C	1.498633	-0.023211	0.243955
C141	C	1.831966	0.310122	0.577288
H142	H	1.117214	-0.792547	-0.513803
H143	H	1.450547	-0.459214	-0.180469
H144	H	1.783880	-0.125880	0.152864
H145	H	1.079421	-0.919003	-0.285461
H146	H	1.412754	-0.585669	0.047872
H147	H	1.746087	-0.252336	0.381205
H148	H	1.185078	-0.919675	-0.255776
H149	H	1.518412	-0.586342	0.077557
H150	H	1.851745	-0.253009	0.410891
Br151	Br	1.327750	-0.932650	-0.334484
Br152	Br	1.661083	-0.599317	-0.001151
Br153	Br	1.994416	-0.265984	0.332182
H154	H	1.186018	-0.792943	-0.255720
H155	H	1.519352	-0.459609	0.077613
H156	H	1.852685	-0.126276	0.410946
H157	H	1.080482	-0.791930	-0.284757
H158	H	1.413815	-0.458596	0.048576
H159	H	1.747148	-0.125263	0.381910
Br160	Br	1.126862	-0.933477	-0.556354
Br161	Br	1.460196	-0.600144	-0.223021
Br162	Br	1.793529	-0.266810	0.110312
Br163	Br	0.998380	-0.935229	-0.427279
Br164	Br	1.331713	-0.601896	-0.093946
Br165	Br	1.665046	-0.268562	0.239387
Br166	Br	0.997440	-0.779567	-0.426766
Br167	Br	1.330773	-0.446233	-0.093432
Br168	Br	1.664106	-0.112900	0.239901
H169	H	1.271540	-0.920433	-0.471205
H170	H	1.604873	-0.587100	-0.137872
H171	H	1.938207	-0.253766	0.195462
Br172	Br	1.278984	-0.779297	-0.516396
Br173	Br	1.612318	-0.445964	-0.183063
Br174	Br	1.945651	-0.112631	0.150270
Br175	Br	1.331335	-0.777539	-0.341867
Br176	Br	1.664669	-0.444205	-0.008534
Br177	Br	1.998002	-0.110872	0.324799
