data_functionalizedCrystal
_audit_creation_method	'MofGen! by Chris Wilmer'
_symmetry_space_group_name_H-M	'P1'
_symmetry_Int_Tables_number	1
_symmetry_cell_setting	triclinic
loop_
_symmetry_equiv_pos_as_xyz
  x,y,z
_cell_length_a	13.897448
_cell_length_b	13.033304
_cell_length_c	13.032268
_cell_angle_alpha	90.922231
_cell_angle_beta	97.148041
_cell_angle_gamma	82.813841
loop_
_atom_site_label
_atom_site_type_symbol
_atom_site_fract_x
_atom_site_fract_y
_atom_site_fract_z
Zn1	Zn	-0.300132	-1.498457	-0.781522
Zn2	Zn	-0.438750	-1.520199	-0.609548
Zn3	Zn	-0.295035	-1.348318	-0.587693
Zn4	Zn	-0.478956	-1.326451	-0.759583
O5	O	-0.378218	-1.423356	-0.684587
O6	O	-0.303827	-1.645259	-0.777037
O7	O	-0.400726	-1.515650	-0.462741
O8	O	-0.160728	-1.368286	-0.613440
O9	O	-0.405669	-1.661233	-0.650689
O10	O	-0.164473	-1.478592	-0.755845
O11	O	-0.295140	-1.389369	-0.446685
O12	O	-0.334126	-1.201499	-0.592167
O13	O	-0.474194	-1.331017	-0.906401
O14	O	-0.469252	-1.185433	-0.718453
O15	O	-0.342813	-1.457389	-0.922519
O16	O	-0.579067	-1.494446	-0.629416
O17	O	-0.608606	-1.352100	-0.739645
C18	C	-0.405499	-1.156150	-0.650558
C19	C	-0.417197	-1.041834	-0.636025
C20	C	-0.372126	-0.982953	-0.692157
C21	C	-0.384215	-0.864802	-0.677138
C22	C	-0.628836	-1.423285	-0.684547
C23	C	-0.736047	-1.423344	-0.684577
C24	C	-0.932339	-1.423444	-0.684655
C25	C	-0.823109	-1.423385	-0.684614
C26	C	-0.126622	-1.423453	-0.684652
C27	C	-0.019406	-1.423494	-0.684680
C28	C	-0.413557	-1.389339	-0.952817
C29	C	-0.428617	-1.374842	-1.067121
C30	C	-0.350826	-0.691607	-0.718741
C31	C	-0.339138	-0.805922	-0.733278
C32	C	-0.370326	-1.430906	-1.126056
C33	C	-0.385889	-1.415925	-1.244195
C34	C	-0.342941	-1.457301	-0.417407
C35	C	-0.327590	-1.471996	-0.303129
H36	H	-0.291593	-0.842976	-0.792453
H37	H	-0.266154	-1.531084	-1.266129
H38	H	-0.490038	-1.315747	-1.104125
O39	O	-0.441059	-0.820540	-0.606677
C40	C	-0.517439	-0.750967	-0.657265
H41	H	-0.530886	-0.773153	-0.742345
H42	H	-0.496359	-0.669136	-0.650592
C43	C	-0.594668	-0.728289	-0.502114
C44	C	-0.611190	-0.755543	-0.606609
H45	H	-0.652498	-0.731107	-0.470865
H46	H	-0.543208	-0.775159	-0.468030
H47	H	-0.577099	-0.660099	-0.496567
H48	H	-0.628746	-0.823737	-0.612154
H49	H	-0.662656	-0.708685	-0.640693
O50	O	-0.474037	-0.997568	-0.565569
C51	C	-0.550418	-0.927995	-0.616157
H52	H	-0.563864	-0.950181	-0.701236
H53	H	-0.529337	-0.846164	-0.609484
C54	C	-0.627647	-0.905317	-0.461005
C55	C	-0.644168	-0.932572	-0.565500
H56	H	-0.685476	-0.908135	-0.429756
H57	H	-0.576186	-0.952187	-0.426921
H58	H	-0.610078	-0.837127	-0.455458
H59	H	-0.661725	-1.000765	-0.571045
H60	H	-0.695634	-0.885713	-0.599584
O61	O	-0.296997	-1.501275	-1.081787
C62	C	-0.232532	-1.450568	-1.012227
H63	H	-0.272415	-1.374625	-0.986308
H64	H	-0.167604	-1.434098	-1.052140
C65	C	-0.146959	-1.613287	-0.949170
C66	C	-0.195946	-1.520017	-0.917330
H67	H	-0.124387	-1.656127	-0.890635
H68	H	-0.190387	-1.647450	-0.996036
H69	H	-0.092859	-1.599549	-0.982432
H70	H	-0.250051	-1.533755	-0.884080
H71	H	-0.152526	-1.485858	-0.870455
O72	O	-0.459160	-1.345506	-1.288499
C73	C	-0.458380	-1.346214	-1.396590
H74	H	-0.420585	-1.423759	-1.421271
H75	H	-0.417233	-1.281389	-1.419322
C76	C	-0.610587	-1.234564	-1.420301
C77	C	-0.564174	-1.329809	-1.450616
H78	H	-0.675845	-1.224440	-1.453628
H79	H	-0.611112	-1.234083	-1.347478
H80	H	-0.576287	-1.180553	-1.439246
H81	H	-0.598466	-1.383817	-1.431659
H82	H	-0.563657	-1.330298	-1.523438
H83	H	-0.324586	-1.020013	-0.751329
