data_functionalizedCrystal
_audit_creation_method	'MofGen! by Chris Wilmer'
_symmetry_space_group_name_H-M	'P1'
_symmetry_Int_Tables_number	1
_symmetry_cell_setting	triclinic
loop_
_symmetry_equiv_pos_as_xyz
  x,y,z
_cell_length_a	21.295419
_cell_length_b	21.295417
_cell_length_c	21.295411
_cell_angle_alpha	89.979403
_cell_angle_beta	89.975461
_cell_angle_gamma	90.044503
loop_
_atom_site_label
_atom_site_type_symbol
_atom_site_fract_x
_atom_site_fract_y
_atom_site_fract_z
Zn1	Zn	0.962359	-0.250432	-0.355916
Zn2	Zn	1.462359	0.249568	0.144084
Zn3	Zn	0.962263	-0.355684	-0.250643
Zn4	Zn	1.462263	0.144316	0.249357
Zn5	Zn	0.857082	-0.250460	-0.250661
Zn6	Zn	1.357082	0.249540	0.249339
Zn7	Zn	0.857053	-0.355695	-0.355875
Zn8	Zn	1.357053	0.144305	0.144125
O9	O	0.909689	-0.303068	-0.303274
O10	O	1.409689	0.196932	0.196726
O11	O	1.050436	-0.264378	-0.341961
O12	O	1.550436	0.235622	0.158039
O13	O	0.948282	-0.341733	-0.162556
O14	O	1.448282	0.158267	0.337444
O15	O	0.871100	-0.162367	-0.264648
O16	O	1.371100	0.337633	0.235352
O17	O	1.050365	-0.341706	-0.264617
O18	O	1.550365	0.158294	0.235383
O19	O	0.948446	-0.162347	-0.341978
O20	O	1.448446	0.337653	0.158022
O21	O	0.871007	-0.264425	-0.162569
O22	O	1.371007	0.235575	0.337431
O23	O	0.768989	-0.264436	-0.264608
O24	O	1.268989	0.235564	0.235392
O25	O	0.871050	-0.341724	-0.443970
O26	O	1.371050	0.158276	0.056030
O27	O	0.768968	-0.341751	-0.341908
O28	O	1.268968	0.158249	0.158092
O29	O	0.948418	-0.264388	-0.444000
O30	O	1.448418	0.235612	0.056000
O31	O	0.948254	-0.443775	-0.264578
O32	O	1.448254	0.056225	0.235422
O33	O	0.870957	-0.443783	-0.341891
O34	O	1.370957	0.056217	0.158109
C35	C	0.746138	-0.303098	-0.303256
C36	C	1.246138	0.196902	0.196744
C37	C	0.676170	-0.303126	-0.303263
C38	C	1.176170	0.196874	0.196737
C39	C	0.643362	-0.262927	-0.343598
C40	C	1.143362	0.237073	0.156402
C41	C	0.577620	-0.262910	-0.343601
C42	C	1.077620	0.237090	0.156399
C43	C	0.544687	-0.303104	-0.303275
C44	C	1.044687	0.196896	0.196725
C45	C	0.577502	-0.343305	-0.262932
C46	C	1.077502	0.156695	0.237068
C47	C	0.643244	-0.343317	-0.262926
C48	C	1.143244	0.156683	0.237074
N49	N	0.441412	-0.358181	-0.298356
N50	N	0.941412	0.141819	0.201644
N51	N	0.378961	-0.358168	-0.298365
N52	N	0.878961	0.141832	0.201635
C53	C	0.346612	-0.303071	-0.303289
C54	C	0.846612	0.196929	0.196711
N55	N	0.379074	-0.247985	-0.308215
N56	N	0.879074	0.252015	0.191785
N57	N	0.441532	-0.247999	-0.308209
N58	N	0.941532	0.252001	0.191791
C59	C	0.473402	-0.303095	-0.303276
C60	C	0.973402	0.196905	0.196724
C61	C	0.242519	-0.262850	-0.343628
C62	C	0.742519	0.237150	0.156372
C63	C	0.176776	-0.262832	-0.343626
C64	C	0.676776	0.237168	0.156374
C65	C	0.176660	-0.343233	-0.262961
C66	C	0.676660	0.156767	0.237039
C67	C	0.242402	-0.343245	-0.262960
C68	C	0.742402	0.156755	0.237040
C69	C	0.275328	-0.303055	-0.303297
C70	C	0.775328	0.196945	0.196703
C71	C	0.909609	-0.466619	-0.303242
C72	C	1.409609	0.033381	0.196758
C73	C	0.909632	-0.536588	-0.303249
C74	C	1.409632	-0.036588	0.196751
C75	C	0.949884	-0.569386	-0.343544
C76	C	1.449884	-0.069386	0.156456
C77	C	0.949906	-0.635129	-0.343559
C78	C	1.449906	-0.135129	0.156441
C79	C	0.909683	-0.668070	-0.303269
C80	C	1.409683	-0.168070	0.196731
C81	C	0.869424	-0.635263	-0.262971
C82	C	1.369424	-0.135263	0.237029
C83	C	0.869399	-0.569522	-0.262962
C84	C	1.369399	-0.069522	0.237038
N85	N	0.904924	-0.771324	-0.248178
N86	N	1.404924	-0.271324	0.251822
N87	N	0.904952	-0.833775	-0.248189
N88	N	1.404952	-0.333775	0.251811
C89	C	0.909757	-0.866145	-0.303297
C90	C	1.409757	-0.366145	0.196703
N91	N	0.914545	-0.833704	-0.358395
N92	N	1.414545	-0.333704	0.141605
N93	N	0.914521	-0.771247	-0.358383
N94	N	1.414521	-0.271247	0.141617
C95	C	0.909706	-0.739355	-0.303276
C96	C	1.409706	-0.239355	0.196724
C97	C	0.950034	-0.970229	-0.343612
C98	C	1.450034	-0.470229	0.156388
C99	C	0.950052	-1.035973	-0.343629
C100	C	1.450052	-0.535973	0.156371
C101	C	0.869574	-1.036106	-0.263035
C102	C	1.369574	-0.536106	0.236965
C103	C	0.869553	-0.970363	-0.263024
C104	C	1.369553	-0.470363	0.236976
C105	C	0.909786	-0.937429	-0.303312
C106	C	1.409786	-0.437429	0.196688
C107	C	1.073880	-0.303038	-0.303292
C108	C	1.573880	0.196962	0.196708
C109	C	1.143848	-0.303025	-0.303299
C110	C	1.643848	0.196975	0.196701
C111	C	0.909742	-0.303055	-0.467464
C112	C	1.409742	0.196945	0.032536
C113	C	0.909764	-0.303049	-0.537432
C114	C	1.409764	0.196951	-0.037432
C115	C	0.909787	-0.138878	-0.303319
C116	C	1.409787	0.361122	0.196681
C117	C	0.909829	-0.068909	-0.303339
C118	C	1.409829	0.431091	0.196661
C119	C	0.950048	-0.262778	-0.570315
C120	C	1.450048	0.237222	-0.070315
C121	C	0.950047	-0.262751	-0.636058
C122	C	1.450047	0.237249	-0.136058
C123	C	0.909769	-0.303006	-0.668915
C124	C	1.409769	0.196994	-0.168915
C125	C	0.869477	-0.343279	-0.636023
C126	C	1.369477	0.156721	-0.136023
C127	C	0.869475	-0.343301	-0.570282
C128	C	1.369475	0.156699	-0.070282
N129	N	0.904913	-0.358075	-0.772131
N130	N	1.404913	0.141925	-0.272131
N131	N	0.904919	-0.358052	-0.834582
N132	N	1.404919	0.141948	-0.334582
C133	C	0.909773	-0.302942	-0.866989
C134	C	1.409773	0.197058	-0.366989
N135	N	0.914633	-0.247853	-0.834586
N136	N	1.414633	0.252147	-0.334586
N137	N	0.914630	-0.247876	-0.772128
N138	N	1.414630	0.252124	-0.272128
C139	C	0.909767	-0.302986	-0.740200
C140	C	1.409767	0.197014	-0.240200
C141	C	0.950058	-0.262638	-0.971158
C142	C	1.450058	0.237362	-0.471158
C143	C	0.950052	-0.262610	-1.036902
C144	C	1.450052	0.237390	-0.536902
C145	C	0.869486	-0.343143	-1.036866
C146	C	1.369486	0.156857	-0.536866
C147	C	0.869488	-0.343166	-0.971124
C148	C	1.369488	0.156834	-0.471124
C149	C	0.909777	-0.302914	-0.938274
C150	C	1.409777	0.197086	-0.438274
C151	C	0.909674	-0.303036	-0.139722
C152	C	1.409674	0.196964	0.360278
C153	C	0.909773	-0.302864	-0.069754
C154	C	1.409773	0.197136	0.430246
H155	H	0.149847	-0.375959	-0.230127
H156	H	0.649847	0.124041	0.269873
C157	C	0.278492	-0.387473	-0.218593
C158	C	0.778492	0.112527	0.281407
N159	N	0.305674	-0.420787	-0.185172
N160	N	0.805674	0.079213	0.314828
C161	C	0.994145	-0.533162	-0.387858
C162	C	1.494145	-0.033162	0.112142
N163	N	1.027485	-0.505877	-0.421234
N164	N	1.527485	-0.005877	0.078766
C165	C	0.825175	-0.387470	-0.934951
C166	C	1.325175	0.112530	-0.434951
N167	N	0.791795	-0.420841	-0.907705
N168	N	1.291795	0.079159	-0.407705
H169	H	0.150065	-0.230094	-0.376471
H170	H	0.650065	0.269906	0.123529
C171	C	0.994283	-0.933999	-0.387938
C172	C	1.494283	-0.433999	0.112062
N173	N	1.027610	-0.906712	-0.421326
N174	N	1.527610	-0.406712	0.078674
H175	H	0.982678	-0.661839	-0.376379
H176	H	1.482678	-0.161839	0.123621
H177	H	0.982853	-0.230001	-0.543573
H178	H	1.482853	0.269999	-0.043573
H179	H	0.670166	-0.230200	-0.376443
H180	H	1.170166	0.269800	0.123557
H181	H	0.982849	-0.229954	-0.662837
H182	H	1.482849	0.270046	-0.162837
C183	C	0.541275	-0.387518	-0.218574
C184	C	1.041275	0.112482	0.281426
N185	N	0.513989	-0.420820	-0.185161
N186	N	1.013989	0.079180	0.314839
C187	C	0.278740	-0.218635	-0.387994
C188	C	0.778740	0.281365	0.112006
N189	N	0.306020	-0.185330	-0.421409
N190	N	0.806020	0.314670	0.078591
C191	C	0.994337	-1.072051	-0.387956
C192	C	1.494337	-0.572051	0.112044
N193	N	1.027696	-1.099226	-0.421341
N194	N	1.527696	-0.599226	0.078659
C195	C	0.825169	-0.387556	-0.672167
C196	C	1.325169	0.112444	-0.172167
N197	N	0.791791	-0.420905	-0.699390
N198	N	1.291791	0.079095	-0.199390
C199	C	0.994370	-0.218355	-0.935021
C200	C	1.494370	0.281645	-0.435021
N201	N	1.027746	-0.185000	-0.907804
N202	N	1.527746	0.315000	-0.407804
H203	H	0.982855	-0.229813	-1.063675
H204	H	1.482855	0.270187	-0.563675
H205	H	0.550903	-0.230172	-0.376445
H206	H	1.050903	0.269828	0.123555
C207	C	0.825204	-0.671500	-0.218628
C208	C	1.325204	-0.171500	0.281372
N209	N	0.791903	-0.698793	-0.185219
N210	N	1.291903	-0.198793	0.314781
H211	H	0.836621	-0.542817	-0.230148
H212	H	1.336621	-0.042817	0.269852
C213	C	0.679333	-0.387543	-0.218556
C214	C	1.179333	0.112457	0.281444
N215	N	0.706516	-0.420857	-0.185136
N216	N	1.206516	0.079143	0.314864
H217	H	0.836685	-0.375913	-1.063618
H218	H	1.336685	0.124087	-0.563618
C219	C	0.825320	-1.072337	-0.218724
C220	C	1.325320	-0.572337	0.281276
N221	N	0.791983	-1.099630	-0.185351
N222	N	1.291983	-0.599630	0.314649
H223	H	0.836668	-0.376093	-0.543509
H224	H	1.336668	0.123907	-0.043509
C225	C	0.825269	-0.934283	-0.218700
C226	C	1.325269	-0.434283	0.281300
N227	N	0.791908	-0.907108	-0.185317
N228	N	1.291908	-0.407108	0.314683
