data_functionalizedCrystal
_audit_creation_method	'MofGen! by Chris Wilmer'
_symmetry_space_group_name_H-M	'P1'
_symmetry_Int_Tables_number	1
_symmetry_cell_setting	triclinic
loop_
_symmetry_equiv_pos_as_xyz
  x,y,z
_cell_length_a	14.519709
_cell_length_b	19.188930
_cell_length_c	13.596369
_cell_angle_alpha	89.988893
_cell_angle_beta	90.000291
_cell_angle_gamma	83.412464
loop_
_atom_site_label
_atom_site_type_symbol
_atom_site_fract_x
_atom_site_fract_y
_atom_site_fract_z
O1	O	1.223300	0.091524	-0.081675
O2	O	0.954756	0.102302	-0.081706
O3	O	1.096778	-0.004715	-0.081670
O4	O	1.081278	0.198542	-0.081711
O5	O	1.096763	-0.004720	0.081912
O6	O	0.954742	0.102297	0.081877
O7	O	1.223286	0.091519	0.081908
Zn8	Zn	1.089012	0.096907	0.107865
Zn9	Zn	1.089030	0.096914	-0.107663
O10	O	1.081264	0.198536	0.081872
C11	C	0.920392	0.101797	0.000081
C12	C	0.818020	0.100292	0.000070
C13	C	0.443159	0.094751	0.000116
C14	C	0.547457	0.096290	0.000103
C15	C	0.630586	0.097521	0.000092
C16	C	0.734891	0.099060	0.000081
C17	C	1.096269	-0.030730	0.000124
C18	C	1.094762	-0.108240	0.000132
C19	C	1.178095	-0.152867	0.000146
C20	C	1.176680	-0.225696	0.000131
C21	C	1.091926	-0.253895	0.000120
C22	C	1.008582	-0.209257	0.000100
C23	C	1.009999	-0.136430	0.000106
N24	N	1.027137	-0.362132	0.055783
N25	N	1.025796	-0.431316	0.055779
C26	C	1.087649	-0.473318	0.000100
N27	N	1.150908	-0.443526	-0.055564
N28	N	1.152252	-0.374336	-0.055556
C29	C	1.090379	-0.332863	0.000113
C30	C	1.169454	-0.596916	0.000095
C31	C	1.168035	-0.669745	0.000073
C32	C	0.999934	-0.653305	0.000053
C33	C	1.001355	-0.580477	0.000065
C34	C	1.086118	-0.552287	0.000091
C35	C	1.257649	0.092024	0.000118
C36	C	1.360021	0.093529	0.000123
C37	C	1.081773	0.224551	0.000076
C38	C	1.083280	0.302061	0.000061
N39	N	1.089006	0.096901	0.254956
N40	N	1.089043	0.096914	-0.254755
C41	C	1.089029	0.096915	0.656247
C42	C	1.089020	0.096914	0.544596
C43	C	1.089018	0.096909	0.455605
C44	C	1.089008	0.096906	0.343947
H45	H	1.247116	-0.129920	0.000164
H46	H	0.942137	-0.100094	0.000095
C47	C	0.906704	-0.684317	0.000040
C48	C	0.837568	-0.667510	-0.084912
C49	C	0.744335	-0.698527	-0.084928
C50	C	0.720239	-0.746349	0.000008
C51	C	0.789377	-0.763158	0.084967
C52	C	0.882609	-0.732141	0.084983
H53	H	0.855403	-0.632107	-0.147793
H54	H	0.693155	-0.686084	-0.147821
H55	H	0.651223	-0.769309	-0.000004
H56	H	0.771541	-0.798561	0.147848
H57	H	0.933789	-0.744584	0.147876
H58	H	1.244542	-0.262039	0.000138
C59	C	1.262687	-0.565898	0.000111
C60	C	1.286771	-0.518110	0.085066
C61	C	1.380004	-0.487094	0.085081
C62	C	1.449151	-0.503866	0.000140
C63	C	1.425068	-0.551657	-0.084822
C64	C	1.331836	-0.582673	-0.084837
H65	H	1.235582	-0.505692	0.147950
H66	H	1.397831	-0.451716	0.147975
H67	H	1.518167	-0.480906	0.000151
H68	H	1.476257	-0.564074	-0.147706
H69	H	1.314009	-0.618050	-0.147731
C70	C	0.915351	-0.240272	0.000087
C71	C	0.913787	-0.320379	0.000085
C72	C	0.820552	-0.351392	0.000065
C73	C	0.728882	-0.302298	0.000047
C74	C	0.730443	-0.222187	0.000050
C75	C	0.823677	-0.191174	0.000070
H76	H	0.981649	-0.356725	0.000098
H77	H	0.819397	-0.410696	0.000063
H78	H	0.659864	-0.325256	0.000033
H79	H	0.662580	-0.185841	0.000037
H80	H	0.824832	-0.131870	0.000071
C81	C	1.259709	-0.718838	0.000087
C82	C	1.329227	-0.715622	0.085050
C83	C	1.420903	-0.764715	0.085063
C84	C	1.443063	-0.817024	0.000114
C85	C	1.373543	-0.820241	-0.084855
C86	C	1.281867	-0.771148	-0.084868
H87	H	1.312825	-0.676899	0.147940
H88	H	1.472366	-0.762333	0.147963
H89	H	1.510927	-0.853365	0.000124
H90	H	1.389946	-0.858965	-0.147745
H91	H	1.230404	-0.773530	-0.147768
H92	H	0.933496	-0.544140	0.000058
