data_functionalizedCrystal
_audit_creation_method	'MofGen! by Chris Wilmer'
_symmetry_space_group_name_H-M	'P1'
_symmetry_Int_Tables_number	1
_symmetry_cell_setting	triclinic
loop_
_symmetry_equiv_pos_as_xyz
  x,y,z
_cell_length_a	19.902436
_cell_length_b	19.377369
_cell_length_c	19.377028
_cell_angle_alpha	97.569636
_cell_angle_beta	75.503061
_cell_angle_gamma	48.633065
loop_
_atom_site_label
_atom_site_type_symbol
_atom_site_fract_x
_atom_site_fract_y
_atom_site_fract_z
Zr1	Zr	0.525324	0.779801	-0.049375
O2	O	0.371379	0.928456	0.037219
O3	O	0.585631	0.631155	-0.057037
O4	O	0.530478	0.779797	0.064442
O5	O	0.455119	0.779813	-0.201565
O6	O	0.641061	0.779783	0.064435
O7	O	0.426531	0.779814	-0.084260
O8	O	0.739719	0.513889	-0.152868
O9	O	0.356461	1.045707	0.015738
O10	O	0.678034	0.692281	-0.083124
O11	O	0.616842	0.692291	-0.170663
O12	O	0.551906	0.867298	-0.027638
O13	O	0.490714	0.867308	-0.115176
Zr14	Zr	0.747285	0.779777	-0.236475
Zr15	Zr	0.701691	0.779779	-0.049386
Zr16	Zr	0.570918	0.779799	-0.236464
Zr17	Zr	0.501532	0.966803	-0.083635
Zr18	Zr	0.771077	0.592775	-0.202215
O19	O	0.686978	0.928423	-0.228813
O20	O	0.622150	0.928425	0.037203
O21	O	0.436207	0.928455	-0.228797
O22	O	0.901231	0.631122	-0.323069
O23	O	0.836402	0.631123	-0.057052
O24	O	0.650460	0.631153	-0.323053
O25	O	0.817490	0.779765	-0.084284
O26	O	0.742131	0.779781	-0.350292
O27	O	0.631548	0.779795	-0.350285
O28	O	0.846078	0.779764	-0.201590
O29	O	0.496649	1.045690	0.015729
O30	O	0.775960	0.513888	-0.301579
O31	O	0.916148	0.513871	-0.301588
O32	O	0.879907	0.513871	-0.152877
O33	O	0.392702	1.045707	-0.132973
O34	O	0.532890	1.045689	-0.132981
O35	O	0.720703	0.692280	-0.258212
O36	O	0.781895	0.692270	-0.170673
O37	O	0.655768	0.867287	-0.115187
O38	O	0.594576	0.867297	-0.202725
C39	C	0.666065	0.545878	-0.100071
C40	C	0.676165	0.466491	-0.085527
C41	C	0.550086	0.205112	-0.266412
C42	C	0.559705	0.130425	-0.252808
C43	C	0.623585	0.130424	-0.161424
C44	C	0.613976	0.205110	-0.175023
C45	C	0.577225	0.242449	-0.227517
C46	C	0.641115	0.242446	-0.136129
C47	C	0.631502	0.317128	-0.149724
C48	C	0.594750	0.354475	-0.202214
C49	C	0.567612	0.317131	-0.241113
C50	C	0.677859	0.205111	-0.083631
C51	C	0.704998	0.242447	-0.044737
C52	C	0.695391	0.317126	-0.058336
C53	C	0.658639	0.354472	-0.110826
C54	C	0.722529	0.354469	-0.019437
C55	C	0.712916	0.429152	-0.033033
C56	C	0.649026	0.429154	-0.124421
C57	C	0.415697	0.779817	-0.142911
C58	C	0.340824	0.779826	-0.142906
C59	C	0.068837	0.779776	-0.142931
C60	C	0.017828	0.890181	-0.108193
C61	C	0.095583	0.890250	-0.107901
C62	C	0.203773	0.779802	-0.142919
C63	C	0.198523	0.724973	-0.092602
C64	C	0.120106	0.725679	-0.092325
C65	C	0.154515	0.723411	-0.227865
C66	C	0.231136	0.725485	-0.228099
C67	C	0.280036	0.779810	-0.142911
C68	C	-0.007426	0.779765	-0.142934
C69	C	0.856913	0.779761	-0.142939
C70	C	0.931785	0.779752	-0.142943
C71	C	0.579273	0.779790	0.091095
C72	C	0.559918	0.779791	0.170519
C73	C	0.606544	1.013700	-0.185779
C74	C	0.596444	1.093087	-0.200323
C75	C	0.471718	0.779800	0.282469
C76	C	0.489913	0.779799	0.207838
C77	C	0.611751	0.779788	0.207824
C78	C	0.593563	0.779794	0.282459
C79	C	0.523546	0.779799	0.319775
C80	C	0.645390	0.779793	0.319764
C81	C	0.627207	0.779794	0.394390
C82	C	0.557195	0.779795	0.431711
C83	C	0.505362	0.779800	0.394401
C84	C	0.715412	0.779781	0.282444
C85	C	0.767239	0.779780	0.319750
C86	C	0.749051	0.779788	0.394380
C87	C	0.679040	0.779789	0.431700
C88	C	0.800884	0.779783	0.431690
C89	C	0.782701	0.779784	0.506316
C90	C	0.660856	0.779790	0.506326
C91	C	0.693334	0.779788	0.623056
C92	C	0.712684	0.779789	0.543632
C93	C	0.886673	0.545850	-0.100085
C94	C	0.971646	0.466454	-0.085546
C95	C	0.723096	0.545877	-0.334091
C96	C	0.752552	0.466489	-0.398971
C97	C	0.943704	0.545849	-0.334105
C98	C	1.048033	0.466452	-0.398989
C99	C	0.328905	1.013729	0.048255
C100	C	0.224577	1.093126	0.113140
C101	C	0.385936	1.013728	-0.185765
C102	C	0.300964	1.093124	-0.200304
C103	C	0.549513	1.013701	0.048241
C104	C	0.520057	1.093089	0.113121
C105	C	0.957333	0.429174	-0.033010
C106	C	1.037162	0.354583	-0.019333
C107	C	1.131304	0.317268	-0.058197
C108	C	1.145614	0.354555	-0.110735
C109	C	1.065784	0.429150	-0.124407
C110	C	0.820602	0.429202	-0.475146
C111	C	0.848276	0.354619	-0.536117
C112	C	0.807906	0.317320	-0.520909
C113	C	0.739848	0.354614	-0.444726
C114	C	0.712169	0.429200	-0.383758
C115	C	1.128976	0.429161	-0.383766
C116	C	1.227007	0.354569	-0.444726
C117	C	1.244094	0.317265	-0.520909
C118	C	1.163142	0.354563	-0.536133
C119	C	1.065112	0.429158	-0.475173
C120	C	0.143633	1.130426	0.097914
C121	C	0.045598	1.205041	0.158871
C122	C	0.028511	1.242349	0.235053
C123	C	0.109464	1.205046	0.250277
C124	C	0.207495	1.130438	0.189321
C125	C	0.315273	1.130412	-0.252833
C126	C	0.235437	1.205024	-0.266493
C127	C	0.141294	1.242341	-0.227628
C128	C	0.126985	1.205051	-0.175092
C129	C	0.206818	1.130445	-0.161429
C130	C	0.560446	1.130365	0.097890
C131	C	0.532788	1.204948	0.158846
C132	C	0.464735	1.242259	0.235032
C133	C	0.424346	1.204976	0.250263
C134	C	0.452010	1.130389	0.189308
H135	H	0.537599	0.100031	-0.284482
H136	H	0.195155	1.100088	-0.118657
Br137	Br	1.336853	0.303964	-0.424048
H138	H	0.095538	1.235432	0.312312
H139	H	0.853482	0.459563	-0.487544
H140	H	0.735014	0.459552	-0.001360
Br141	Br	1.377143	0.216027	-0.603632
Br142	Br	0.565817	0.779817	0.556980
H143	H	0.274955	0.643764	-0.115832
H144	H	1.177070	0.324179	-0.598169
Br145	Br	1.085228	0.479730	-0.195714
H146	H	0.414696	0.779815	0.312857
H147	H	0.999211	0.459511	-0.487579
H148	H	-0.020302	0.933514	-0.143006
H149	H	0.050323	1.235446	-0.143451
Br150	Br	0.685068	0.303982	-0.424100
H151	H	0.880681	0.459555	-0.001351
Br152	Br	0.362014	0.591166	-0.277490
Br153	Br	-0.086209	0.962056	-0.004942
Br154	Br	0.652805	1.079746	-0.005500
Br155	Br	0.619816	0.479791	-0.280377
Br156	Br	0.184729	0.590675	-0.129989
Br157	Br	0.772384	0.303801	0.051813
H158	H	0.903695	0.324263	-0.598143
Br159	Br	-0.064248	1.255648	0.138192
Br160	Br	1.105813	0.479778	-0.280382
Br161	Br	0.032958	1.343593	-0.246180
H162	H	-0.051318	1.303100	0.284681
H163	H	0.095335	0.933487	-0.142625
H164	H	0.247107	1.235373	-0.309274
Br165	Br	0.845481	0.216094	-0.603662
H166	H	0.542395	0.779791	0.492474
Br167	Br	1.273387	0.303899	-0.163474
H168	H	0.157528	1.100053	0.035889
Br169	Br	0.317341	1.079821	0.209999
H170	H	0.565681	1.235296	0.146429
H171	H	0.061523	0.764642	-0.029364
Br172	Br	0.221689	0.587850	-0.271605
H173	H	1.025492	0.324233	0.023447
H174	H	0.442218	1.302993	0.284658
Br175	Br	0.443028	1.079786	-0.305587
Br176	Br	0.331981	1.255632	0.353662
Br177	Br	0.397177	1.079817	0.209992
Br178	Br	0.754865	0.191772	0.026507
Br179	Br	0.581693	0.455838	-0.220660
Br180	Br	0.517747	0.367803	-0.312363
Br181	Br	0.419570	0.779793	0.157211
Br182	Br	0.706776	0.779775	0.157175
Br183	Br	0.100165	0.782282	-0.294728
Br184	Br	0.500221	0.255785	-0.337662
H185	H	0.730217	0.779776	0.221678
Br186	Br	0.673452	0.079749	-0.090180
H187	H	0.824905	0.779781	0.536690
H188	H	0.619101	0.459558	-0.167168
H189	H	0.071177	0.933528	-0.045560
Br190	Br	0.164830	0.788436	0.011496
H191	H	0.685677	0.144304	-0.072559
H192	H	0.233005	0.765463	-0.265508
Br193	Br	0.410323	0.779826	0.445054
H194	H	0.824250	0.779772	0.289358
Br195	Br	1.239635	0.216030	-0.039633
Br196	Br	0.895918	0.779757	0.381033
