data_functionalizedCrystal
_audit_creation_method	'MofGen! by Chris Wilmer'
_symmetry_space_group_name_H-M	'P1'
_symmetry_Int_Tables_number	1
_symmetry_cell_setting	triclinic
loop_
_symmetry_equiv_pos_as_xyz
  x,y,z
_cell_length_a	14.971486
_cell_length_b	11.792241
_cell_length_c	14.048226
_cell_angle_alpha	89.993434
_cell_angle_beta	89.998499
_cell_angle_gamma	83.903772
loop_
_atom_site_label
_atom_site_type_symbol
_atom_site_fract_x
_atom_site_fract_y
_atom_site_fract_z
O1	O	1.187540	0.147909	-0.079051
O2	O	0.927210	0.165622	-0.079077
O3	O	1.063692	-0.008446	-0.079057
O4	O	1.051058	0.321977	-0.079072
O5	O	1.063676	-0.008456	0.079264
O6	O	0.927194	0.165611	0.079244
O7	O	1.187523	0.147899	0.079270
Zn8	Zn	1.057356	0.156753	0.104394
Zn9	Zn	1.057378	0.156767	-0.104201
O10	O	1.051041	0.321966	0.079250
C11	C	0.893874	0.164824	0.000080
C12	C	0.794568	0.162451	0.000070
C13	C	0.737752	0.264710	0.000067
C14	C	0.644444	0.262473	0.000081
C15	C	0.607953	0.157975	0.000092
C16	C	0.664776	0.055707	0.000098
C17	C	0.758082	0.057946	0.000091
C18	C	0.470294	0.051049	0.000111
C19	C	0.376981	0.048810	0.000117
C20	C	0.356656	0.255577	0.000102
C21	C	0.449963	0.257815	0.000095
C22	C	0.506779	0.155547	0.000099
C23	C	1.062891	-0.050737	0.000103
C24	C	1.060515	-0.176735	0.000102
C25	C	1.056147	-0.407419	0.000086
C26	C	1.058574	-0.279050	0.000095
C27	C	1.220859	0.148696	0.000110
C28	C	1.320166	0.151070	0.000114
C29	C	1.051843	0.364257	0.000087
C30	C	1.054218	0.490256	0.000082
N31	N	1.057347	0.156744	0.246754
N32	N	1.057393	0.156768	-0.246562
C33	C	1.117801	0.079698	0.296582
C34	C	1.117807	0.079698	0.396239
C35	C	1.057363	0.156749	0.446068
C36	C	0.996903	0.233797	0.396234
C37	C	0.996894	0.233792	0.296578
C38	C	0.996929	0.233806	0.603948
C39	C	0.996940	0.233813	0.703611
C40	C	1.117843	0.079712	0.703609
C41	C	1.117833	0.079706	0.603953
C42	C	1.057374	0.156757	0.554126
H43	H	0.804341	-0.025325	0.000093
O44	O	1.176428	0.004671	0.248246
C45	C	1.227897	-0.192599	0.217892
C46	C	1.161439	-0.107736	0.272656
H47	H	1.215815	-0.283498	0.237623
H48	H	1.217529	-0.179503	0.138089
H49	H	1.299600	-0.177608	0.237474
H50	H	1.089710	-0.122675	0.253154
H51	H	1.171886	-0.120852	0.352447
H52	H	1.167032	0.016961	0.436808
H53	H	0.947719	0.296555	0.744177
O54	O	0.938062	0.308528	0.444594
C55	C	0.782862	0.374743	0.475061
C56	C	0.849400	0.290028	0.420253
H57	H	0.711165	0.359832	0.455386
H58	H	0.793177	0.361514	0.554858
H59	H	0.794994	0.465666	0.455465
H60	H	0.837309	0.199072	0.439769
H61	H	0.839069	0.303357	0.340469
O62	O	0.589165	0.361736	-0.000058
C63	C	0.472064	0.479243	-0.082121
C64	C	0.534597	0.366767	-0.082069
H65	H	0.427943	0.483358	-0.148430
H66	H	0.427812	0.483393	-0.015906
H67	H	0.514196	0.554291	-0.082092
H68	H	0.492536	0.291656	-0.082131
H69	H	0.578853	0.362717	-0.148278
H70	H	1.167055	0.016971	0.563383
O71	O	0.938291	0.308810	0.555586
C72	C	0.886799	0.506054	0.525115
C73	C	0.953263	0.421237	0.579928
H74	H	0.898868	0.596969	0.544790
H75	H	0.897174	0.492914	0.445319
H76	H	0.815098	0.491060	0.544708
H77	H	1.024990	0.436179	0.560415
H78	H	0.942810	0.434398	0.659711
H79	H	0.479670	0.342907	0.000077
H80	H	0.347274	-0.036282	0.000127
H81	H	0.310391	0.338847	0.000103
H82	H	1.167070	0.016974	0.744184
H83	H	0.767455	0.349805	0.000058
O84	O	0.525359	-0.048399	0.000068
C85	C	0.535678	-0.253719	0.000120
C86	C	0.473215	-0.141185	0.000156
H87	H	0.493545	-0.328765	0.000211
H88	H	0.579846	-0.257907	-0.066159
H89	H	0.579895	-0.257788	0.066356
H90	H	0.428942	-0.137040	-0.066035
H91	H	0.429108	-0.137043	0.066478
O92	O	0.938261	0.308793	0.248215
C93	C	0.886756	0.506033	0.217743
C94	C	0.953227	0.421223	0.272554
H95	H	0.898820	0.596950	0.237416
H96	H	0.897129	0.492892	0.137946
H97	H	0.815057	0.491033	0.237340
H98	H	1.024952	0.436172	0.253037
H99	H	0.942776	0.434384	0.352337
H100	H	0.635057	-0.029377	0.000120
