data_functionalizedCrystal
_audit_creation_method	'MofGen! by Chris Wilmer'
_symmetry_space_group_name_H-M	'P1'
_symmetry_Int_Tables_number	1
_symmetry_cell_setting	triclinic
loop_
_symmetry_equiv_pos_as_xyz
  x,y,z
_cell_length_a	12.759401
_cell_length_b	18.050590
_cell_length_c	12.759393
_cell_angle_alpha	90.035753
_cell_angle_beta	90.018496
_cell_angle_gamma	90.018713
loop_
_atom_site_label
_atom_site_type_symbol
_atom_site_fract_x
_atom_site_fract_y
_atom_site_fract_z
Zn1	Zn	1.606227	-0.295612	0.593951
Zn2	Zn	1.606110	-0.419823	0.418258
Zn3	Zn	1.430529	-0.295651	0.418290
Zn4	Zn	1.430506	-0.419765	0.593900
O5	O	1.518343	-0.357713	0.506100
O6	O	1.753233	-0.312097	0.570653
O7	O	1.582779	-0.403391	0.271241
O8	O	1.453895	-0.191722	0.441627
O9	O	1.753146	-0.403354	0.441572
O10	O	1.582979	-0.191693	0.570684
O11	O	1.453781	-0.312163	0.271265
O12	O	1.283505	-0.312108	0.441577
O13	O	1.453855	-0.403256	0.740927
O14	O	1.283488	-0.403294	0.570597
O15	O	1.582957	-0.312041	0.740965
O16	O	1.582757	-0.523740	0.441522
O17	O	1.453741	-0.523698	0.570565
C18	C	1.245376	-0.357699	0.506085
C19	C	1.128599	-0.357711	0.506104
C20	C	1.073756	-0.405268	0.573173
C21	C	0.964032	-0.405277	0.573185
C22	C	0.964004	-0.310171	0.439049
C23	C	1.073726	-0.310159	0.439043
C24	C	1.073771	-0.460179	0.650613
C25	C	0.964047	-0.460188	0.650624
C26	C	1.518262	-0.550665	0.506058
C27	C	1.518324	-0.633211	0.506075
C28	C	1.588628	-0.832657	0.435999
C29	C	1.614296	-0.881981	0.531886
C30	C	1.518384	-0.784341	0.506117
C31	C	1.492823	-0.882099	0.410274
C32	C	1.518443	-0.930326	0.506149
C33	C	1.544100	-0.832578	0.602054
C34	C	1.422583	-0.832691	0.480377
C35	C	1.448214	-0.881993	0.576329
C36	C	1.518352	-0.700243	0.506097
C37	C	1.518475	-1.014423	0.506180
C38	C	1.792376	-0.357727	0.506115
C39	C	1.909153	-0.357733	0.506121
C40	C	1.518417	-0.357638	0.780133
C41	C	1.518448	-0.357606	0.896910
C42	C	1.518453	-0.164007	0.506165
C43	C	1.518500	-0.081462	0.506192
C44	C	1.518330	-0.357734	0.233132
C45	C	1.518502	-0.357557	0.116356
C46	C	1.585680	-0.310106	0.951793
C47	C	1.585705	-0.310079	1.061517
C48	C	1.451263	-0.405059	1.061465
C49	C	1.451233	-0.405081	0.951743
C50	C	1.663303	-0.255273	0.951824
C51	C	1.663328	-0.255246	1.061548
H52	H	1.648052	-0.810994	0.376764
H53	H	1.341564	-0.811022	0.458557
C54	C	1.573474	-0.803328	0.711600
H55	H	1.585719	-0.843927	0.757336
H56	H	1.635122	-0.774008	0.706802
H57	H	1.517688	-0.774010	0.738250
C58	C	1.767688	-0.283115	0.905833
H59	H	1.814195	-0.295495	0.961279
H60	H	1.755169	-0.325716	0.863906
H61	H	1.798109	-0.245302	0.863953
H62	H	1.388836	-0.903519	0.635708
C63	C	0.923780	-0.537865	0.620982
H64	H	0.981677	-0.569801	0.608773
H65	H	0.882439	-0.557026	0.676626
H66	H	0.882393	-0.534685	0.559244
H67	H	1.641540	-0.197759	0.922074
H68	H	1.471179	-0.903850	0.329207
H69	H	0.919313	-0.271455	0.384451
H70	H	0.930051	-0.439658	0.727978
C71	C	1.723771	-0.911238	0.561325
H72	H	1.773582	-0.894351	0.511427
H73	H	1.742434	-0.893554	0.628940
H74	H	1.722839	-0.963863	0.561744
C75	C	1.377258	-0.457317	0.891374
H76	H	1.337237	-0.485589	0.939748
H77	H	1.331496	-0.428903	0.848588
H78	H	1.417406	-0.489696	0.848554
C79	C	1.377341	-0.457283	1.121785
H80	H	1.386990	-0.450471	1.194992
H81	H	1.306751	-0.446417	1.103803
H82	H	1.392692	-0.507188	1.103781
C83	C	1.623965	-0.181439	1.107566
H84	H	1.625297	-0.183947	1.181925
H85	H	1.668015	-0.142242	1.084616
H86	H	1.554263	-0.172611	1.084558
C87	C	1.134051	-0.257845	0.365270
H88	H	1.085653	-0.229534	0.325327
H89	H	1.176879	-0.225518	0.405540
H90	H	1.176825	-0.286214	0.319411
C91	C	1.114049	-0.439454	0.760580
H92	H	1.056157	-0.430931	0.805808
H93	H	1.155411	-0.478835	0.787513
H94	H	1.155418	-0.395795	0.756260
C95	C	1.773241	-0.276059	1.101788
H96	H	1.773255	-0.276032	1.176245
H97	H	1.791380	-0.323993	1.076961
H98	H	1.822892	-0.240980	1.076993
C99	C	1.119722	-0.533947	0.611054
H100	H	1.064259	-0.566808	0.593447
H101	H	1.161608	-0.525067	0.550819
H102	H	1.161638	-0.555483	0.664505
