data_functionalizedCrystal
_audit_creation_method	'MofGen! by Chris Wilmer'
_symmetry_space_group_name_H-M	'P1'
_symmetry_Int_Tables_number	1
_symmetry_cell_setting	triclinic
loop_
_symmetry_equiv_pos_as_xyz
  x,y,z
_cell_length_a	14.044220
_cell_length_b	19.188930
_cell_length_c	12.503572
_cell_angle_alpha	93.506241
_cell_angle_beta	86.164750
_cell_angle_gamma	88.166830
loop_
_atom_site_label
_atom_site_type_symbol
_atom_site_fract_x
_atom_site_fract_y
_atom_site_fract_z
O1	O	1.262485	0.164589	-0.089229
O2	O	0.986542	0.158515	-0.089255
O3	O	1.132475	0.060411	-0.089220
O4	O	1.116552	0.262693	-0.089264
O5	O	1.121500	0.067803	0.089419
O6	O	0.975567	0.165907	0.089384
O7	O	1.251510	0.171980	0.089411
Cu8	Cu	1.112536	0.169618	0.105709
Cu9	Cu	1.125516	0.160877	-0.105553
O10	O	1.105577	0.270084	0.089376
C11	C	0.945752	0.159553	0.000061
C12	C	0.840559	0.151624	0.000052
C13	C	0.647956	0.137129	0.000077
C14	C	0.590090	0.193363	0.000069
C15	C	0.482920	0.185298	0.000083
C16	C	0.755137	0.145193	0.000063
C17	C	1.126472	0.038063	0.000102
C18	C	1.124923	-0.039541	0.000112
C19	C	1.210552	-0.078939	0.000125
C20	C	1.209099	-0.151857	0.000108
C21	C	1.122010	-0.185374	0.000098
C22	C	1.036370	-0.145968	0.000079
C23	C	1.037826	-0.073051	0.000086
N24	N	1.051706	-0.295160	0.060886
N25	N	1.050328	-0.364427	0.060882
C26	C	1.117616	-0.405067	0.000076
N27	N	1.186348	-0.373823	-0.060712
N28	N	1.187729	-0.304548	-0.060704
C29	C	1.120421	-0.264440	0.000091
C30	C	1.201676	-0.523532	0.000069
C31	C	1.200219	-0.596451	0.000045
C32	C	1.027487	-0.590560	0.000028
C33	C	1.028947	-0.517642	0.000041
C34	C	1.116043	-0.484132	0.000067
C35	C	1.292301	0.170943	0.000092
C36	C	1.397493	0.178872	0.000094
C37	C	1.111580	0.292433	0.000051
C38	C	1.113129	0.370037	0.000034
N39	N	1.103414	0.175766	0.254299
N40	N	1.134645	0.154724	-0.254143
C41	C	1.089995	0.184816	0.473411
C42	C	1.148061	0.145676	0.526752
C43	C	1.140595	0.150712	0.648673
C44	C	1.097461	0.179782	0.351478
H45	H	0.617011	0.082933	0.000094
H46	H	1.278831	-0.183941	0.000114
C47	C	1.305056	-0.042476	-0.000030
C48	C	1.316577	-0.004567	-0.091920
C49	C	1.403617	0.029040	-0.092095
H50	H	1.355929	-0.076314	-0.000081
H51	H	1.305402	-0.011543	0.062235
H52	H	1.316240	-0.035496	-0.154168
H53	H	1.265726	0.029283	-0.091888
H54	H	1.403963	0.059972	-0.029831
H55	H	1.454483	-0.004803	-0.092144
H56	H	1.411442	0.054770	-0.154437
C57	C	0.631536	0.265573	-0.000040
C58	C	0.731140	0.259321	-0.000090
C59	C	0.769358	0.325820	-0.000221
H60	H	0.606937	0.292866	0.062223
H61	H	0.614506	0.287627	-0.062376
H62	H	0.748162	0.237276	0.062239
H63	H	0.755765	0.232040	-0.062349
H64	H	0.752328	0.347875	-0.062557
H65	H	0.744753	0.353108	0.062043
H66	H	0.836944	0.321587	-0.000265
H67	H	0.965462	-0.173262	0.000069
H68	H	0.968095	-0.040973	0.000075
C69	C	1.296335	-0.487276	0.000021
C70	C	1.371020	-0.537392	-0.000015
C71	C	1.458234	-0.504023	-0.000079
H72	H	1.296810	-0.456387	0.062301
H73	H	1.304366	-0.461541	-0.062298
H74	H	1.362991	-0.563115	0.062297
H75	H	1.370576	-0.568284	-0.062291
H76	H	1.466265	-0.478288	-0.062397
H77	H	1.458699	-0.473134	0.062203
H78	H	1.508919	-0.538021	-0.000113
H79	H	1.034680	0.222105	0.519305
C80	C	1.293180	-0.639273	-0.000167
C81	C	1.303056	-0.685080	-0.092096
C82	C	1.388687	-0.724531	-0.092336
H83	H	1.292469	-0.665337	0.062049
H84	H	1.345285	-0.608893	-0.000208
H85	H	1.250965	-0.715456	-0.092045
H86	H	1.303784	-0.659034	-0.154327
H87	H	1.440792	-0.694151	-0.092377
H88	H	1.387969	-0.750591	-0.030116
H89	H	1.395404	-0.755611	-0.154713
C90	C	0.933025	-0.627068	0.000066
C91	C	0.950073	-0.699358	0.000084
C92	C	0.863075	-0.733014	0.000127
H93	H	0.901535	-0.616556	-0.062216
H94	H	0.893938	-0.611379	0.062383
H95	H	0.989144	-0.715041	-0.062227
H96	H	0.981548	-0.709889	0.062361
H97	H	0.823988	-0.717325	0.062444
H98	H	0.831592	-0.722497	-0.062156
H99	H	0.874629	-0.782065	0.000149
C100	C	1.221710	0.095771	0.465748
C101	C	1.204697	0.027391	0.493155
C102	C	1.272511	-0.018629	0.437024
H103	H	1.283881	0.107874	0.484107
H104	H	1.217067	0.098828	0.390712
H105	H	1.209349	0.024337	0.568174
H106	H	1.142539	0.015266	0.474793
H107	H	1.267867	-0.015572	0.361988
H108	H	1.334677	-0.006519	0.455388
H109	H	1.260971	-0.065030	0.455604
H110	H	0.959218	-0.485563	0.000036
