data_functionalizedCrystal
_audit_creation_method	'MofGen! by Chris Wilmer'
_symmetry_space_group_name_H-M	'P1'
_symmetry_Int_Tables_number	1
_symmetry_cell_setting	triclinic
loop_
_symmetry_equiv_pos_as_xyz
  x,y,z
_cell_length_a	18.101398
_cell_length_b	18.101397
_cell_length_c	18.101390
_cell_angle_alpha	89.964458
_cell_angle_beta	89.975319
_cell_angle_gamma	90.015732
loop_
_atom_site_label
_atom_site_type_symbol
_atom_site_fract_x
_atom_site_fract_y
_atom_site_fract_z
Zn1	Zn	1.132178	-0.294895	-0.418825
Zn2	Zn	1.132096	-0.418752	-0.294978
Zn3	Zn	1.008337	-0.294918	-0.294986
Zn4	Zn	1.008311	-0.418689	-0.418767
O5	O	1.070231	-0.356813	-0.356889
O6	O	1.235800	-0.311341	-0.402418
O7	O	1.115656	-0.402361	-0.191346
O8	O	1.024809	-0.191282	-0.311442
O9	O	1.235740	-0.402338	-0.311428
O10	O	1.115795	-0.191265	-0.402426
O11	O	1.024730	-0.311381	-0.191352
O12	O	0.904700	-0.311320	-0.311385
O13	O	1.024766	-0.402231	-0.522407
O14	O	0.904682	-0.402254	-0.402326
O15	O	1.115771	-0.311280	-0.522450
O16	O	1.115631	-0.522376	-0.311371
O17	O	1.024686	-0.522330	-0.402318
C18	C	0.877820	-0.356783	-0.356850
C19	C	0.795506	-0.356788	-0.356851
C20	C	0.496415	-0.356835	-0.356914
C21	C	0.527727	-0.299336	-0.299975
C22	C	0.613345	-0.299490	-0.299732
C23	C	0.644798	-0.356811	-0.356883
C24	C	0.613694	-0.434824	-0.335555
C25	C	0.528049	-0.434505	-0.335159
C26	C	0.528026	-0.336998	-0.435314
C27	C	0.613677	-0.335261	-0.434886
C28	C	0.728657	-0.356802	-0.356867
C29	C	0.412556	-0.356848	-0.356928
C30	C	1.070167	-0.549224	-0.356853
C31	C	1.070208	-0.631538	-0.356863
C32	C	1.070302	-0.930629	-0.356930
C33	C	1.127363	-0.899302	-0.299555
C34	C	1.127560	-0.813684	-0.299704
C35	C	1.070256	-0.782246	-0.356896
C36	C	1.091412	-0.813249	-0.434959
C37	C	1.091854	-0.898894	-0.434646
C38	C	0.991933	-0.899133	-0.336918
C39	C	0.992321	-0.813484	-0.335175
C40	C	1.070228	-0.698387	-0.356881
C41	C	1.070332	-1.014488	-0.356950
C42	C	1.263392	-0.356844	-0.356928
C43	C	1.345707	-0.356857	-0.356945
C44	C	1.070275	-0.356746	-0.550051
C45	C	1.070293	-0.356717	-0.632365
C46	C	1.070314	-0.163652	-0.356941
C47	C	1.070350	-0.081337	-0.356964
C48	C	1.070333	-0.356671	-0.931456
C49	C	1.127780	-0.299648	-0.900158
C50	C	1.127600	-0.299437	-0.814540
C51	C	1.070314	-0.356694	-0.783074
C52	C	0.992293	-0.335484	-0.814141
C53	C	0.992637	-0.335057	-0.899787
C54	C	1.090221	-0.435050	-0.899867
C55	C	1.091933	-0.434650	-0.814217
C56	C	1.070299	-0.356708	-0.699214
C57	C	1.070344	-0.356655	-1.015316
C58	C	1.070229	-0.356827	-0.164479
C59	C	1.070354	-0.356648	-0.082165
H60	H	0.507146	-0.241309	-0.313197
H61	H	0.508040	-0.451326	-0.277844
F62	F	0.640086	-0.316627	-0.223799
F63	F	0.971465	-0.787006	-0.260089
H64	H	0.506444	-0.281101	-0.454705
F65	F	1.166983	-0.455554	-0.787682
H66	H	1.185612	-0.793144	-0.312946
H67	H	1.185454	-0.312720	-0.793536
H68	H	0.634067	-0.478814	-0.375728
F69	F	1.203647	-0.316791	-0.927095
H70	H	0.947519	-0.792092	-0.373903
F71	F	1.039884	-0.925978	-0.492422
H72	H	0.507778	-0.378878	-0.477738
H73	H	0.972687	-0.920797	-0.280981
F74	F	0.936364	-0.925614	-0.391536
H75	H	1.048383	-0.477538	-0.920111
H76	H	0.948329	-0.375737	-0.793757
F77	F	0.641685	-0.457194	-0.261449
H78	H	0.634010	-0.277852	-0.450968
H79	H	0.635090	-0.374088	-0.479583
F80	F	1.110221	-0.786288	-0.224057
H81	H	1.114781	-0.241908	-0.921697
F82	F	1.166728	-0.924936	-0.456801
H83	H	1.051123	-0.792882	-0.478857
F84	F	0.499551	-0.316270	-0.224486
F85	F	0.934782	-0.386971	-0.926848
F86	F	1.110393	-0.223542	-0.787779
F87	F	0.970576	-0.260177	-0.925920
H88	H	0.507335	-0.478797	-0.374821
H89	H	1.114287	-0.919949	-0.241500
F90	F	0.969859	-0.261425	-0.786128
F91	F	1.041218	-0.493168	-0.786222
F92	F	1.202827	-0.927364	-0.316664
F93	F	1.165448	-0.785143	-0.457491
H94	H	0.634375	-0.241640	-0.313102
F95	F	1.163309	-0.460264	-0.928112
