data_functionalizedCrystal
_audit_creation_method	'MofGen! by Chris Wilmer'
_symmetry_space_group_name_H-M	'P1'
_symmetry_Int_Tables_number	1
_symmetry_cell_setting	triclinic
loop_
_symmetry_equiv_pos_as_xyz
  x,y,z
_cell_length_a	6.817900
_cell_length_b	19.452420
_cell_length_c	19.453114
_cell_angle_alpha	96.328802
_cell_angle_beta	101.709288
_cell_angle_gamma	101.696715
loop_
_atom_site_label
_atom_site_type_symbol
_atom_site_fract_x
_atom_site_fract_y
_atom_site_fract_z
V1	V	-3.997947	-0.097915	-0.219345
O2	O	-3.995100	0.003953	-0.214816
O3	O	-3.940917	-0.193426	-0.218185
O4	O	-3.940968	-0.096739	-0.314854
O5	O	-3.995048	-0.093403	-0.117478
V6	V	-4.483804	-0.085692	-0.207120
O7	O	-4.254084	-0.124729	-0.246163
O8	O	-4.677865	-0.058878	-0.180302
O9	O	-4.317628	0.009819	-0.208280
O10	O	-4.604048	-0.187560	-0.211649
O11	O	-4.604099	-0.090204	-0.308987
O12	O	-4.317576	-0.086868	-0.111611
C13	C	-3.784096	-0.216699	-0.214813
C14	C	-3.818697	-0.294782	-0.214501
C15	C	-3.801490	-0.321196	-0.149986
C16	C	-3.834075	-0.394562	-0.149672
C17	C	-3.883827	-0.441511	-0.213874
C18	C	-3.901045	-0.415090	-0.278397
C19	C	-3.868480	-0.341726	-0.278711
N20	N	-3.846563	-0.562110	-0.259091
N21	N	-3.877492	-0.631802	-0.258789
C22	C	-3.981949	-0.662553	-0.212935
N23	N	-4.054279	-0.620977	-0.167383
N24	N	-4.023337	-0.551278	-0.167682
C25	C	-3.919143	-0.521063	-0.213542
C26	C	-4.000075	-0.768518	-0.148075
C27	C	-4.032674	-0.841885	-0.147764
C28	C	-4.099624	-0.862412	-0.276491
C29	C	-4.067045	-0.789046	-0.276801
C30	C	-4.017262	-0.742102	-0.212591
C31	C	-3.784160	-0.093365	-0.338123
C32	C	-3.818800	-0.093035	-0.416204
C33	C	-4.016538	-0.096406	-0.456473
C34	C	-4.049086	-0.096097	-0.529838
C35	C	-3.883893	-0.092431	-0.562934
C36	C	-3.686126	-0.089055	-0.522655
C37	C	-3.653579	-0.089358	-0.449290
N38	N	-3.820798	-0.129525	-0.681855
N39	N	-3.851729	-0.129240	-0.751549
C40	C	-3.981942	-0.091517	-0.783979
N41	N	-4.080090	-0.054101	-0.744084
N42	N	-4.049164	-0.054390	-0.674384
C43	C	-3.919164	-0.092102	-0.642486
C44	C	-4.214984	-0.094552	-0.903800
C45	C	-4.247523	-0.094238	-0.977166
C46	C	-3.884560	-0.087203	-0.969983
C47	C	-3.852023	-0.087510	-0.896617
C48	C	-4.017244	-0.091188	-0.863531
C49	C	-4.137790	0.033088	-0.211650
C50	C	-4.082427	0.111171	-0.211967
C51	C	-4.137726	-0.090245	-0.088339
C52	C	-4.082325	-0.090570	-0.010257
H53	H	-3.941557	-0.453320	-0.330672
H54	H	-3.882500	-0.320222	-0.331248
O55	O	-3.951868	-0.723014	-0.085644
C56	C	-3.943655	-0.762063	-0.028632
H57	H	-4.039690	-0.818609	-0.048503
H58	H	-3.777124	-0.763564	-0.005701
C59	C	-3.911959	-0.656854	0.053918
C60	C	-4.029926	-0.726303	0.029513
H61	H	-3.965166	-0.634795	0.089786
H62	H	-3.917485	-0.630544	0.015508
H63	H	-3.773191	-0.658114	0.073022
H64	H	-4.168684	-0.725041	0.010401
H65	H	-4.024426	-0.752612	0.067921
H66	H	-3.750053	-0.084212	-0.996928
O67	O	-4.016365	-0.867581	-0.085113
C68	C	-4.205607	-0.912798	-0.084430
H69	H	-4.335275	-0.898882	-0.123391
H70	H	-4.200322	-0.970394	-0.100720
C71	C	-4.085045	-0.920277	0.038801
C72	C	-4.244308	-0.903181	-0.009046
H73	H	-4.108916	-0.914348	0.085302
H74	H	-3.957545	-0.889816	0.038341
H75	H	-4.080658	-0.968273	0.025218
H76	H	-4.248676	-0.855184	0.004532
H77	H	-4.371809	-0.933634	-0.008582
H78	H	-3.820059	-0.416072	-0.097135
H79	H	-3.551625	-0.086068	-0.549606
H80	H	-4.210115	-0.098846	-0.562632
H81	H	-4.140134	-0.900637	-0.328766
H82	H	-4.081043	-0.767540	-0.329335
O83	O	-3.461488	-0.085987	-0.410112
C84	C	-3.400016	-0.024828	-0.357687
H85	H	-3.490514	0.016031	-0.375018
H86	H	-3.431366	-0.039839	-0.305265
C87	C	-3.057118	-0.043122	-0.326539
C88	C	-3.168257	0.007065	-0.347827
H89	H	-2.914157	-0.023450	-0.320453
H90	H	-3.098533	-0.084327	-0.361856
H91	H	-3.083266	-0.055626	-0.282856
H92	H	-3.142129	0.019562	-0.391513
H93	H	-3.126832	0.048274	-0.312517
H94	H	-4.349516	-0.097544	-0.876859
O95	O	-4.439720	-0.097636	-1.016274
C96	C	-4.573941	-0.160993	-1.010263
H97	H	-4.481010	-0.201757	-0.994808
H98	H	-4.661020	-0.149543	-0.967712
C99	C	-4.842599	-0.140535	-1.101035
C100	C	-4.728462	-0.190604	-1.082059
H101	H	-4.937922	-0.158800	-1.145321
H102	H	-4.752176	-0.097849	-1.105083
H103	H	-4.915147	-0.130997	-1.065570
H104	H	-4.655897	-0.200134	-1.117519
H105	H	-4.818877	-0.233293	-1.078018
O106	O	-3.659953	-0.084381	-0.857567
C107	C	-3.589337	-0.143315	-0.883094
H108	H	-3.726717	-0.188017	-0.912160
H109	H	-3.487949	-0.127125	-0.921256
C110	C	-3.294849	-0.114269	-0.784463
C111	C	-3.463583	-0.169176	-0.820158
H112	H	-3.217270	-0.130220	-0.745643
H113	H	-3.342419	-0.074563	-0.767267
H114	H	-3.210382	-0.100783	-0.816272
H115	H	-3.548059	-0.182654	-0.788351
H116	H	-3.416024	-0.208885	-0.837348
H117	H	-3.760969	-0.282979	-0.097702
H118	H	-4.151076	-0.099398	-0.429538
