data_functionalizedCrystal
_audit_creation_method	'MofGen! by Chris Wilmer'
_symmetry_space_group_name_H-M	'P1'
_symmetry_Int_Tables_number	1
_symmetry_cell_setting	triclinic
loop_
_symmetry_equiv_pos_as_xyz
  x,y,z
_cell_length_a	19.120786
_cell_length_b	21.395364
_cell_length_c	19.121249
_cell_angle_alpha	87.555892
_cell_angle_beta	94.786120
_cell_angle_gamma	87.518227
loop_
_atom_site_label
_atom_site_type_symbol
_atom_site_fract_x
_atom_site_fract_y
_atom_site_fract_z
Zn1	Zn	-0.262963	-0.962441	0.385910
Zn2	Zn	0.237037	-0.462441	0.885910
Zn3	Zn	-0.385629	-0.953053	0.263221
Zn4	Zn	0.114371	-0.453053	0.763221
Zn5	Zn	-0.268009	-0.853023	0.268256
Zn6	Zn	0.231991	-0.353023	0.768256
Zn7	Zn	-0.380636	-0.852965	0.380844
Zn8	Zn	0.119364	-0.352965	0.880844
O9	O	-0.324309	-0.905370	0.324558
O10	O	0.175691	-0.405370	0.824558
O11	O	-0.279214	-1.048875	0.369648
O12	O	0.220786	-0.548875	0.869648
O13	O	-0.374228	-0.935880	0.165424
O14	O	0.125772	-0.435880	0.665424
O15	O	-0.168869	-0.871490	0.288090
O16	O	0.331131	-0.371490	0.788090
O17	O	-0.369336	-1.041978	0.279509
O18	O	0.130664	-0.541978	0.779509
O19	O	-0.165162	-0.951879	0.374530
O20	O	0.334838	-0.451879	0.874530
O21	O	-0.287813	-0.862387	0.169123
O22	O	0.212187	-0.362387	0.669123
O23	O	-0.282971	-0.765336	0.283178
O24	O	0.217029	-0.265336	0.783178
O25	O	-0.360825	-0.871391	0.479981
O26	O	0.139175	-0.371391	0.979981
O27	O	-0.365717	-0.765293	0.365896
O28	O	0.134283	-0.265293	0.865896
O29	O	-0.274371	-0.951823	0.483703
O30	O	0.225629	-0.451823	0.983703
O31	O	-0.483438	-0.935823	0.274597
O32	O	0.016562	-0.435823	0.774597
O33	O	-0.479769	-0.862289	0.361014
O34	O	0.020231	-0.362289	0.861014
C35	C	-0.324350	-0.742580	0.324534
C36	C	0.175650	-0.242580	0.824534
C37	C	-0.324384	-0.672938	0.324540
C38	C	0.175616	-0.172938	0.824540
C39	C	-0.277529	-0.643838	0.371541
C40	C	0.222471	-0.143838	0.871541
C41	C	-0.277512	-0.578403	0.371543
C42	C	0.222488	-0.078403	0.871543
C43	C	-0.324363	-0.542071	0.324551
C44	C	0.175637	-0.042071	0.824551
C45	C	-0.371221	-0.571178	0.277541
C46	C	0.128779	-0.071178	0.777541
C47	C	-0.371232	-0.636612	0.277535
C48	C	0.128768	-0.136612	0.777535
C49	C	-0.387977	-0.435615	0.316188
C50	C	0.112023	0.064385	0.816188
C51	C	-0.387968	-0.370183	0.316198
C52	C	0.112032	0.129817	0.816198
C53	C	-0.324330	-0.340252	0.324565
C54	C	0.175670	0.159748	0.824565
C55	C	-0.260700	-0.375762	0.332937
C56	C	0.239300	0.124238	0.832937
C57	C	-0.260711	-0.441196	0.332931
C58	C	0.239289	0.058804	0.832931
C59	C	-0.324356	-0.471119	0.324552
C60	C	0.175644	0.028881	0.824552
C61	C	-0.277454	-0.240201	0.371572
C62	C	0.222546	0.259799	0.871572
C63	C	-0.277436	-0.174765	0.371570
C64	C	0.222564	0.325235	0.871570
C65	C	-0.371151	-0.167540	0.277571
C66	C	0.128849	0.332460	0.777571
C67	C	-0.371163	-0.232975	0.277570
C68	C	0.128837	0.267025	0.777570
C69	C	-0.324315	-0.269302	0.324574
C70	C	0.175685	0.230698	0.824574
C71	C	-0.507135	-0.898049	0.316725
C72	C	-0.007135	-0.398049	0.816725
C73	C	-0.585348	-0.894975	0.313397
C74	C	-0.085348	-0.394975	0.813397
C75	C	-0.620100	-0.935357	0.356875
C76	C	-0.120100	-0.435357	0.856875
C77	C	-0.693589	-0.932466	0.353750
C78	C	-0.193589	-0.432466	0.853750
C79	C	-0.732324	-0.889196	0.307142
C80	C	-0.232324	-0.389196	0.807142
C81	C	-0.697567	-0.848810	0.263663
C82	C	-0.197567	-0.348810	0.763663
C83	C	-0.624079	-0.851698	0.266792
C84	C	-0.124079	-0.351698	0.766792
C85	C	-0.954310	-0.878380	0.295444
C86	C	-0.454310	-0.378380	0.795444
C87	C	-1.027803	-0.875496	0.292316
C88	C	-0.527803	-0.375496	0.792316
C89	C	-1.023820	-0.959152	0.382405
C90	C	-0.523820	-0.459152	0.882405
C91	C	-0.950331	-0.962039	0.385527
C92	C	-0.450331	-0.462039	0.885527
C93	C	-0.915579	-0.921650	0.342050
C94	C	-0.415579	-0.421650	0.842050
C95	C	-0.807442	-0.886241	0.303945
C96	C	-0.307442	-0.386241	0.803945
C97	C	-0.840463	-0.924602	0.345251
C98	C	-0.340463	-0.424602	0.845251
C99	C	-0.140769	-0.912738	0.332437
C100	C	0.359231	-0.412738	0.832437
C101	C	-0.062555	-0.915878	0.335794
C102	C	0.437445	-0.415878	0.835794
C103	C	-0.316478	-0.912648	0.508086
C104	C	0.183522	-0.412648	1.008086
C105	C	-0.313141	-0.915749	0.586295
C106	C	0.186859	-0.415749	1.086295
C107	C	-0.324278	-0.068796	0.324578
C108	C	0.175722	0.431204	0.824578
C109	C	-0.324287	-0.138436	0.324576
C110	C	0.175713	0.361564	0.824576
C111	C	-0.292012	-0.935421	1.028726
C112	C	0.207988	-0.435421	1.528726
C113	C	-0.295151	-0.932503	0.955241
C114	C	0.204849	-0.432503	1.455241
C115	C	-0.341728	-0.889165	0.916564
C116	C	0.158272	-0.389165	1.416564
C117	C	-0.385174	-0.848747	0.951376
C118	C	0.114826	-0.348747	1.451376
C119	C	-0.382038	-0.851668	1.024860
C120	C	0.117962	-0.351668	1.524860
C121	C	-0.353451	-0.878252	0.694592
C122	C	0.146549	-0.378252	1.194592
C123	C	-0.356582	-0.875332	0.621102
C124	C	0.143418	-0.375332	1.121102
C125	C	-0.266560	-0.959090	0.624972
C126	C	0.233440	-0.459090	1.124972
C127	C	-0.263425	-0.962005	0.698458
C128	C	0.236575	-0.462005	1.198458
C129	C	-0.306874	-0.921589	0.733264
C130	C	0.193126	-0.421589	1.233264
C131	C	-0.344936	-0.886180	0.841449
C132	C	0.155064	-0.386180	1.341449
C133	C	-0.303669	-0.924578	0.808376
C134	C	0.196331	-0.424578	1.308376
C135	C	-0.332123	-0.898113	1.141742
C136	C	0.167877	-0.398113	1.641742
C137	C	-0.335453	-0.895004	1.063534
C138	C	0.164547	-0.395004	1.563534
H139	H	-0.239381	-0.673411	0.409815
H140	H	0.260619	-0.173411	0.909815
N141	N	-0.195725	-0.477477	0.341464
N142	N	0.304275	0.022523	0.841464
N143	N	-0.195748	-0.535898	0.341453
N144	N	0.304252	-0.035898	0.841453
H145	H	-0.149851	-0.561523	0.347476
H146	H	0.350149	-0.061523	0.847476
H147	H	-0.239354	-0.554706	0.409817
H148	H	0.260646	-0.054706	0.909817
H149	H	-0.409388	-0.660304	0.239260
H150	H	0.090612	-0.160304	0.739260
H151	H	-0.918794	-0.997272	0.423478
H152	H	-0.418794	-0.497272	0.923478
H153	H	-0.239303	-0.269779	0.409842
H154	H	0.260697	0.230221	0.909842
N155	N	-1.059306	-1.000401	0.426827
N156	N	-0.559306	-0.500401	0.926827
N157	N	-1.024713	-1.039029	0.468440
N158	N	-0.524713	-0.539029	0.968440
H159	H	-1.049774	-1.068162	0.499818
H160	H	-0.549774	-0.568162	0.999818
H161	H	-0.394498	-0.840026	0.589614
H162	H	0.105502	-0.340026	1.089614
N163	N	-0.729073	-0.973727	0.398161
N164	N	-0.229073	-0.473727	0.898161
N165	N	-0.720985	-1.031687	0.393903
N166	N	-0.220985	-0.531687	0.893903
H167	H	-0.746044	-1.060830	0.425271
H168	H	-0.246044	-0.560830	0.925271
H169	H	-0.208881	-0.351394	0.339750
H170	H	0.291119	0.148606	0.839750
N171	N	-0.452969	-0.333925	0.307640
N172	N	0.047031	0.166075	0.807640
N173	N	-0.493295	-0.337593	0.253204
N174	N	0.006705	0.162407	0.753204
H175	H	-0.539205	-0.311989	0.247158
H176	H	-0.039205	0.188011	0.747158
H177	H	-0.439802	-0.459979	0.309373
H178	H	0.060198	0.040021	0.809373
N179	N	-0.580534	-0.979550	0.404491
N180	N	-0.080534	-0.479550	0.904491
N181	N	-0.537628	-0.960862	0.451051
N182	N	-0.037628	-0.460862	0.951051
H183	H	-0.509685	-0.992074	0.484682
H184	H	-0.009685	-0.492074	0.984682
H185	H	-0.239278	-0.151073	0.409843
H186	H	0.260722	0.348927	0.909843
N187	N	-0.418996	-0.130426	0.229565
N188	N	0.081004	0.369574	0.729565
N189	N	-0.418977	-0.072005	0.229571
N190	N	0.081023	0.427995	0.729571
H191	H	-0.452765	-0.045789	0.195663
H192	H	0.047235	0.454211	0.695663
N193	N	-0.419030	-0.262694	0.229555
N194	N	0.080970	0.237306	0.729555
N195	N	-0.460856	-0.230249	0.187598
N196	N	0.039144	0.269751	0.687598
H197	H	-0.494664	-0.251237	0.153683
H198	H	0.005336	0.248763	0.653683
N199	N	-0.419069	-0.534059	0.229540
N200	N	0.080931	-0.034059	0.729540
N201	N	-0.419053	-0.475637	0.229551
N202	N	0.080947	0.024363	0.729551
H203	H	-0.452845	-0.449421	0.195646
H204	H	0.047155	0.050579	0.695646
H205	H	-1.059339	-0.840258	0.254362
H206	H	-0.559339	-0.340258	0.754362
N207	N	-0.588567	-0.810459	0.222379
N208	N	-0.088567	-0.310459	0.722379
N209	N	-0.522953	-0.813043	0.225179
N210	N	-0.022953	-0.313043	0.725179
H211	H	-0.497872	-0.783916	0.193812
H212	H	0.002128	-0.283916	0.693812
H213	H	-0.926021	-0.845496	0.260042
H214	H	-0.426021	-0.345496	0.760042
H215	H	-0.729111	-0.813576	0.225717
H216	H	-0.229111	-0.313576	0.725717
N217	N	-0.397845	-0.836963	0.730117
N218	N	0.102155	-0.336963	1.230117
N219	N	-0.393554	-0.779008	0.722103
N220	N	0.106446	-0.279008	1.222103
H221	H	-0.424915	-0.749847	0.747190
H222	H	0.075085	-0.249847	1.247190
N223	N	-0.432755	-0.804487	0.911860
N224	N	0.067245	-0.304487	1.411860
N225	N	-0.435550	-0.801884	0.846250
N226	N	0.064450	-0.301884	1.346250
H227	H	-0.469155	-0.770624	0.818341
H228	H	0.030845	-0.270624	1.318341
N229	N	-0.215857	-1.006276	0.737974
N230	N	0.284143	-0.506276	1.237974
N231	N	-0.213064	-1.008878	0.803584
N232	N	0.286936	-0.508878	1.303584
H233	H	-0.179467	-1.040143	0.831493
H234	H	0.320533	-0.540143	1.331493
N235	N	-0.800910	-0.968809	0.392856
N236	N	-0.300910	-0.468809	0.892856
N237	N	-0.831944	-1.004868	0.431670
N238	N	-0.331944	-0.504868	0.931670
H239	H	-0.804005	-1.036092	0.465289
H240	H	-0.304005	-0.536092	0.965289
N241	N	-0.847032	-0.842062	0.256332
N242	N	-0.347032	-0.342062	0.756332
N243	N	-0.889941	-0.860771	0.209787
N244	N	-0.389941	-0.360771	0.709787
H245	H	-0.917909	-0.829572	0.176160
H246	H	-0.417909	-0.329572	0.676160
N247	N	-0.244423	-0.979689	1.068220
N248	N	0.255577	-0.479689	1.568220
N249	N	-0.205639	-1.015771	1.037130
N250	N	0.294361	-0.515771	1.537130
H251	H	-0.172028	-1.047036	1.065020
H252	H	0.327972	-0.547036	1.565020
H253	H	-0.259779	-0.965417	0.926904
H254	H	0.240221	-0.465417	1.426904
N255	N	-0.222185	-1.000367	0.589408
N256	N	0.277815	-0.500367	1.089408
N257	N	-0.224988	-0.997754	0.523797
N258	N	0.275012	-0.497754	1.023797
H259	H	-0.193647	-1.026908	0.498679
H260	H	0.306353	-0.526908	0.998679
H261	H	-0.417414	-0.818757	1.053199
H262	H	0.082586	-0.318757	1.553199
N263	N	-0.256091	-0.968836	0.847893
N264	N	0.243909	-0.468836	1.347893
N265	N	-0.209513	-0.950214	0.890825
N266	N	0.290487	-0.450214	1.390825
H267	H	-0.175909	-0.981470	0.918740
H268	H	0.324091	-0.481470	1.418740
H269	H	-0.382858	-0.850893	0.809950
H270	H	0.117142	-0.350893	1.309950
