data_functionalizedCrystal
_audit_creation_method	'MofGen! by Chris Wilmer'
_symmetry_space_group_name_H-M	'P1'
_symmetry_Int_Tables_number	1
_symmetry_cell_setting	triclinic
loop_
_symmetry_equiv_pos_as_xyz
  x,y,z
_cell_length_a	10.489741
_cell_length_b	14.044220
_cell_length_c	12.503572
_cell_angle_alpha	86.156832
_cell_angle_beta	93.551639
_cell_angle_gamma	88.864026
loop_
_atom_site_label
_atom_site_type_symbol
_atom_site_fract_x
_atom_site_fract_y
_atom_site_fract_z
O1	O	-1.714360	-0.128402	-0.089257
O2	O	-1.464360	0.121598	0.160743
O3	O	-1.214360	0.371598	0.410743
O4	O	-0.964360	0.621598	0.660743
O5	O	-1.344439	-0.140964	-0.089274
O6	O	-1.094439	0.109036	0.160726
O7	O	-0.844439	0.359036	0.410726
O8	O	-0.594439	0.609036	0.660726
O9	O	-1.523846	0.003339	-0.089255
O10	O	-1.273846	0.253339	0.160745
O11	O	-1.023846	0.503339	0.410745
O12	O	-0.773846	0.753339	0.660745
O13	O	-1.534953	-0.272705	-0.089275
O14	O	-1.284953	-0.022705	0.160725
O15	O	-1.034953	0.227295	0.410725
O16	O	-0.784953	0.477295	0.660725
O17	O	-1.510356	-0.007531	0.089386
O18	O	-1.260356	0.242469	0.339386
O19	O	-1.010356	0.492469	0.589386
O20	O	-0.760356	0.742469	0.839386
O21	O	-1.330949	-0.151834	0.089367
O22	O	-1.080949	0.098166	0.339367
O23	O	-0.830949	0.348166	0.589367
O24	O	-0.580949	0.598166	0.839367
O25	O	-1.700869	-0.139273	0.089384
O26	O	-1.450869	0.110727	0.339384
O27	O	-1.200869	0.360727	0.589384
O28	O	-0.950869	0.610727	0.839384
Cu29	Cu	-1.514677	-0.146546	0.105687
Cu30	Cu	-1.264677	0.103454	0.355687
Cu31	Cu	-1.014677	0.353454	0.605687
Cu32	Cu	-0.764677	0.603454	0.855687
Cu33	Cu	-1.530631	-0.133690	-0.105576
Cu34	Cu	-1.280631	0.116310	0.144424
Cu35	Cu	-1.030631	0.366310	0.394424
Cu36	Cu	-0.780631	0.616310	0.644424
O37	O	-1.521462	-0.283575	0.089365
O38	O	-1.271462	-0.033575	0.339365
O39	O	-1.021462	0.216425	0.589365
O40	O	-0.771462	0.466425	0.839365
C41	C	-1.290066	-0.145450	0.000045
C42	C	-1.040066	0.104550	0.250045
C43	C	-0.790066	0.354550	0.500045
C44	C	-0.540066	0.604550	0.750045
C45	C	-1.148150	-0.142611	0.000038
C46	C	-0.898150	0.107389	0.250038
C47	C	-0.648150	0.357389	0.500038
C48	C	-0.398150	0.607389	0.750038
C49	C	-1.755242	-0.134786	0.000063
C50	C	-1.505242	0.115214	0.250063
C51	C	-1.255242	0.365214	0.500063
C52	C	-1.005242	0.615214	0.750063
C53	C	-1.897160	-0.137625	0.000062
C54	C	-1.647160	0.112375	0.250062
C55	C	-1.397160	0.362375	0.500062
C56	C	-1.147160	0.612375	0.750062
C57	C	-1.070696	-0.050796	0.000055
C58	C	-0.820696	0.199204	0.250055
C59	C	-0.570696	0.449204	0.500055
C60	C	-0.320696	0.699204	0.750055
C61	C	-0.989620	-0.088809	-0.088025
C62	C	-0.739620	0.161191	0.161975
C63	C	-0.489620	0.411191	0.411975
C64	C	-0.239620	0.661191	0.661975
C65	C	-0.976355	-0.099548	0.088101
C66	C	-0.726355	0.150452	0.338101
C67	C	-0.476355	0.400452	0.588101
C68	C	-0.226355	0.650452	0.838101
C69	C	-1.068948	-0.180657	-0.088114
C70	C	-0.818948	0.069343	0.161886
C71	C	-0.568948	0.319343	0.411886
C72	C	-0.318948	0.569343	0.661886
C73	C	-1.055686	-0.191389	0.088090
C74	C	-0.805686	0.058611	0.338090
C75	C	-0.555686	0.308611	0.588090
C76	C	-0.305686	0.558611	0.838090
C77	C	-0.974646	-0.229468	-0.000011
C78	C	-0.724646	0.020532	0.249989
C79	C	-0.474646	0.270532	0.499989
C80	C	-0.224646	0.520532	0.749989
C81	C	-1.512240	0.033251	0.000066
C82	C	-1.262240	0.283251	0.250066
C83	C	-1.012240	0.533251	0.500066
C84	C	-0.762240	0.783251	0.750066
C85	C	-1.497740	0.138576	0.000066
C86	C	-1.247740	0.388576	0.250066
C87	C	-0.997740	0.638576	0.500066
C88	C	-0.747740	0.888576	0.750066
C89	C	-1.533069	-0.313487	0.000042
C90	C	-1.283069	-0.063487	0.250042
C91	C	-1.033069	0.186513	0.500042
C92	C	-0.783069	0.436513	0.750042
C93	C	-1.547569	-0.418812	0.000034
C94	C	-1.297569	-0.168812	0.250034
C95	C	-1.047569	0.081188	0.500034
C96	C	-0.797569	0.331188	0.750034
N97	N	-1.503465	-0.155587	0.254278
N98	N	-1.253465	0.094413	0.504278
N99	N	-1.003465	0.344413	0.754278
N100	N	-0.753465	0.594413	1.004278
C101	C	-1.471233	0.331419	0.000050
C102	C	-1.221233	0.581419	0.250050
C103	C	-0.971233	0.831419	0.500050
C104	C	-0.721233	1.081419	0.750050
C105	C	-1.574071	0.388351	0.000051
C106	C	-1.324071	0.638351	0.250051
C107	C	-1.074071	0.888351	0.500051
C108	C	-0.824071	1.138351	0.750051
C109	C	-1.559322	0.495655	0.000042
C110	C	-1.309322	0.745655	0.250042
C111	C	-1.059322	0.995655	0.500042
C112	C	-0.809322	1.245655	0.750042
C113	C	-1.485980	0.224105	0.000059
C114	C	-1.235980	0.474105	0.250059
C115	C	-0.985980	0.724105	0.500059
C116	C	-0.735980	0.974105	0.750059
N117	N	-1.541853	-0.124641	-0.254168
N118	N	-1.291853	0.125359	-0.004168
N119	N	-1.041853	0.375359	0.245832
N120	N	-0.791853	0.625359	0.495832
C121	C	-1.486973	-0.168896	0.473391
C122	C	-1.236973	0.081104	0.723391
C123	C	-0.986973	0.331104	0.973391
C124	C	-0.736973	0.581104	1.223391
C125	C	-1.558341	-0.111336	0.526726
C126	C	-1.308341	0.138664	0.776726
C127	C	-1.058341	0.388664	1.026726
C128	C	-0.808341	0.638664	1.276726
C129	C	-1.549164	-0.118741	0.648648
C130	C	-1.299164	0.131259	0.898648
C131	C	-1.049164	0.381259	1.148648
C132	C	-0.799164	0.631259	1.398648
C133	C	-1.496148	-0.161492	0.351458
C134	C	-1.246148	0.088508	0.601458
C135	C	-0.996148	0.338508	0.851458
C136	C	-0.746148	0.588508	1.101458
H137	H	-1.112738	0.024690	-0.000049
H138	H	-0.862738	0.274690	0.249951
H139	H	-0.612738	0.524690	0.499951
H140	H	-0.362738	0.774690	0.749951
Br141	Br	-1.136265	-0.237800	-0.212369
Br142	Br	-0.886265	0.012200	0.037631
Br143	Br	-0.636265	0.262200	0.287631
Br144	Br	-0.386265	0.512200	0.537631
Br145	Br	-0.940737	-0.016511	-0.212136
Br146	Br	-0.690737	0.233489	0.037864
Br147	Br	-0.440737	0.483489	0.287864
Br148	Br	-0.190737	0.733489	0.537864
H149	H	-0.932889	-0.305023	-0.000065
H150	H	-0.682889	-0.055023	0.249935
H151	H	-0.432889	0.194977	0.499935
H152	H	-0.182889	0.444977	0.749935
Br153	Br	-1.373656	-0.260296	0.549897
Br154	Br	-1.123656	-0.010296	0.799897
Br155	Br	-0.873656	0.239704	1.049897
Br156	Br	-0.623656	0.489704	1.299897
Br157	Br	-1.672251	-0.020337	0.450221
Br158	Br	-1.422251	0.229663	0.700221
Br159	Br	-1.172251	0.479663	0.950221
Br160	Br	-0.922251	0.729663	1.200221
H161	H	-1.085046	-0.234738	0.162555
H162	H	-0.835046	0.015262	0.412555
H163	H	-0.585046	0.265262	0.662555
H164	H	-0.335046	0.515262	0.912555
Br165	Br	-0.908779	-0.042325	0.212215
Br166	Br	-0.658779	0.207675	0.462215
Br167	Br	-0.408779	0.457675	0.712215
Br168	Br	-0.158779	0.707675	0.962215
H169	H	-1.673195	0.356507	-0.000016
H170	H	-1.423195	0.606507	0.249984
H171	H	-1.173195	0.856507	0.499984
H172	H	-0.923195	1.106507	0.749984
Br173	Br	-1.306037	0.384499	0.000033
Br174	Br	-1.056037	0.634499	0.250033
Br175	Br	-0.806037	0.884499	0.500033
Br176	Br	-0.556037	1.134499	0.750033
