data_functionalizedCrystal
_audit_creation_method	'MofGen! by Chris Wilmer'
_symmetry_space_group_name_H-M	'P1'
_symmetry_Int_Tables_number	1
_symmetry_cell_setting	triclinic
loop_
_symmetry_equiv_pos_as_xyz
  x,y,z
_cell_length_a	12.759401
_cell_length_b	12.827892
_cell_length_c	12.759393
_cell_angle_alpha	90.029782
_cell_angle_beta	90.020938
_cell_angle_gamma	90.016917
loop_
_atom_site_label
_atom_site_type_symbol
_atom_site_fract_x
_atom_site_fract_y
_atom_site_fract_z
Zn1	Zn	1.606261	-0.415940	0.594025
Zn2	Zn	1.606150	-0.590717	0.418348
Zn3	Zn	1.430560	-0.415996	0.418361
Zn4	Zn	1.430550	-0.590644	0.593985
O5	O	1.518380	-0.503324	0.506180
O6	O	1.753268	-0.439132	0.570733
O7	O	1.582816	-0.567594	0.271328
O8	O	1.453918	-0.269752	0.441685
O9	O	1.753186	-0.567540	0.441663
O10	O	1.583005	-0.269711	0.570745
O11	O	1.453810	-0.439227	0.271338
O12	O	1.283538	-0.439156	0.441646
O13	O	1.453900	-0.567416	0.741011
O14	O	1.283530	-0.567469	0.570676
O15	O	1.582995	-0.439061	0.741041
O16	O	1.582806	-0.736944	0.441624
O17	O	1.453793	-0.736890	0.570664
C18	C	1.245413	-0.503312	0.506159
C19	C	1.128636	-0.503331	0.506175
C20	C	1.073798	-0.570246	0.573255
C21	C	0.964074	-0.570250	0.573276
C22	C	0.964036	-0.436422	0.439127
C23	C	1.073758	-0.436413	0.439112
C24	C	1.518315	-0.774834	0.506161
C25	C	1.518383	-0.890987	0.506188
C26	C	1.582298	-0.942764	0.442406
C27	C	1.582370	-1.062814	0.442433
C28	C	1.792414	-0.503338	0.506201
C29	C	1.909190	-0.503344	0.506210
C30	C	1.518459	-0.503224	0.780213
C31	C	1.518492	-0.503181	0.896990
C32	C	1.518475	-0.230754	0.506221
C33	C	1.518515	-0.114601	0.506239
C34	C	1.518363	-0.503349	0.233212
C35	C	1.518533	-0.503097	0.116436
C36	C	1.585717	-0.436336	0.951869
C37	C	1.585735	-0.436291	1.061593
C38	C	1.451301	-0.569945	1.061549
C39	C	1.451278	-0.569984	0.951827
H40	H	1.636970	-0.898218	0.387783
O41	O	1.647652	-1.116086	0.377415
C42	C	1.707215	-1.284315	0.318127
C43	C	1.633224	-1.224112	0.391812
H44	H	1.695560	-1.371664	0.329726
H45	H	1.791936	-1.262883	0.336674
H46	H	1.688873	-1.262954	0.233366
H47	H	1.651472	-1.245440	0.476598
H48	H	1.548525	-1.245549	0.373175
H49	H	1.118409	-0.381917	0.384487
H50	H	1.463720	-0.935536	0.560818
H51	H	1.463788	-1.070082	0.560844
H52	H	1.640444	-0.381938	0.907224
O53	O	1.651138	-0.371327	1.114740
C54	C	1.784435	-0.238725	1.103197
C55	C	1.710435	-0.312265	1.042879
H56	H	1.832380	-0.190939	1.045123
H57	H	1.839431	-0.286638	1.154541
H58	H	1.736215	-0.184102	1.154592
H59	H	1.758571	-0.366903	0.991426
H60	H	1.655436	-0.264287	0.991600
O61	O	1.127223	-0.635094	0.638456
C62	C	1.251119	-0.649304	0.780307
C63	C	1.190703	-0.575748	0.706512
H64	H	1.302440	-0.601351	0.835363
H65	H	1.302523	-0.703871	0.732032
H66	H	1.193052	-0.697151	0.828208
H67	H	1.248694	-0.527833	0.658595
H68	H	1.139283	-0.521250	0.754847
H69	H	1.396580	-0.624336	1.106211
O70	O	0.910967	-0.635351	0.638469
C71	C	0.922591	-0.768048	0.771567
C72	C	0.982864	-0.694390	0.697767
H73	H	0.980693	-0.815784	0.819543
H74	H	0.871211	-0.822704	0.723295
H75	H	0.871235	-0.720124	0.826551
H76	H	1.034277	-0.742230	0.642767
H77	H	1.034178	-0.639731	0.746104
O78	O	1.386087	-0.635073	0.898557
C79	C	1.334972	-0.812834	0.864983
C80	C	1.408881	-0.739250	0.925358
H81	H	1.353361	-0.897075	0.886646
H82	H	1.346506	-0.801472	0.777130
H83	H	1.250273	-0.794415	0.886531
H84	H	1.493609	-0.757622	0.903898
H85	H	1.397257	-0.750624	1.013196
H86	H	0.919341	-0.381941	0.384525
