data_functionalizedCrystal
_audit_creation_method	'MofGen! by Chris Wilmer'
_symmetry_space_group_name_H-M	'P1'
_symmetry_Int_Tables_number	1
_symmetry_cell_setting	triclinic
loop_
_symmetry_equiv_pos_as_xyz
  x,y,z
_cell_length_a	10.685661
_cell_length_b	16.120256
_cell_length_c	10.686285
_cell_angle_alpha	88.729351
_cell_angle_beta	80.943086
_cell_angle_gamma	88.733652
loop_
_atom_site_label
_atom_site_type_symbol
_atom_site_fract_x
_atom_site_fract_y
_atom_site_fract_z
Zn1	Zn	1.941398	-0.534494	-0.692442
Zn2	Zn	1.968154	-0.386240	-0.894121
Zn3	Zn	1.739693	-0.386260	-0.665610
Zn4	Zn	1.746818	-0.514784	-0.886936
O5	O	1.849016	-0.455445	-0.784777
O6	O	2.121991	-0.523068	-0.733431
O7	O	1.946064	-0.270410	-0.855586
O8	O	1.752270	-0.414180	-0.492140
O9	O	2.141649	-0.414146	-0.881604
O10	O	1.900462	-0.523087	-0.511853
O11	O	1.778214	-0.270425	-0.687700
O12	O	1.563594	-0.395069	-0.680733
O13	O	1.764414	-0.633231	-0.869358
O14	O	1.568829	-0.489495	-0.843341
O15	O	1.907371	-0.647712	-0.726464
O16	O	1.952973	-0.395035	-1.070197
O17	O	1.790359	-0.489476	-1.064918
C18	C	1.520306	-0.440146	-0.758347
C19	C	1.379684	-0.433619	-0.747071
C20	C	1.833703	-0.671345	-0.800103
C21	C	1.827178	-0.763350	-0.806634
C22	C	1.883041	-0.979962	-0.750687
C23	C	1.815217	-0.931798	-0.818501
C24	C	1.821874	-0.838065	-0.811896
C25	C	1.876385	-1.073704	-0.757290
C26	C	2.179009	-0.470803	-0.811312
C27	C	2.319633	-0.477348	-0.822619
C28	C	1.875376	-0.440134	-1.113463
C29	C	1.886766	-0.433618	-1.254088
C30	C	1.864335	-0.240391	-0.769425
C31	C	1.871077	-0.148416	-0.762558
C32	C	1.822586	-0.470834	-0.454811
C33	C	1.811324	-0.477393	-0.314200
H34	H	1.323508	-0.391187	-0.673758
C35	C	1.968245	-0.940572	-0.665568
C36	C	1.909622	-0.883154	-0.557737
C37	C	1.994830	-0.843752	-0.472626
C38	C	2.138662	-0.861768	-0.495346
C39	C	2.197293	-0.919189	-0.603182
C40	C	2.112085	-0.958591	-0.688293
H41	H	1.803142	-0.869815	-0.540913
H42	H	1.951427	-0.801245	-0.392798
H43	H	2.201738	-0.832601	-0.432341
H44	H	2.303773	-0.932528	-0.620005
H45	H	2.155488	-1.001098	-0.768120
H46	H	1.738021	-0.519857	-1.258084
C47	C	1.395503	-0.534675	-0.921653
C48	C	1.389497	-0.520242	-1.063534
C49	C	1.465376	-0.577569	-1.162569
C50	C	1.547263	-0.649331	-1.119723
C51	C	1.553273	-0.663767	-0.977835
C52	C	1.477393	-0.606440	-0.878800
H53	H	1.328877	-0.467117	-1.095257
H54	H	1.460927	-0.566882	-1.267604
H55	H	1.603433	-0.691768	-1.193035
H56	H	1.613893	-0.716892	-0.946112
H57	H	1.481842	-0.617127	-0.773765
C58	C	1.730028	-0.971186	-0.903649
C59	C	1.723412	-1.066288	-0.910229
C60	C	1.638231	-1.105680	-0.995377
C61	C	1.559667	-1.049970	-1.073947
C62	C	1.566281	-0.954862	-1.067370
C63	C	1.651461	-0.915470	-0.982221
H64	H	1.781572	-1.107533	-0.852064
H65	H	1.633336	-1.176086	-1.000245
H66	H	1.496612	-1.079130	-1.136979
H67	H	1.508121	-0.913617	-1.125534
H68	H	1.656357	-0.845065	-0.977353
C69	C	1.985797	-0.376241	-1.329894
C70	C	1.997433	-0.369574	-1.475226
C71	C	2.096462	-0.312198	-1.551032
C72	C	2.183854	-0.261489	-1.481506
C73	C	2.172220	-0.268155	-1.336166
C74	C	2.073192	-0.325530	-1.260360
H75	H	1.932738	-0.407113	-1.526700
H76	H	2.105073	-0.307264	-1.658622
H77	H	2.257161	-0.219017	-1.537622
H78	H	2.236916	-0.230616	-1.284691
H79	H	2.064581	-0.330464	-1.152769
