data_functionalizedCrystal
_audit_creation_method	'MofGen! by Chris Wilmer'
_symmetry_space_group_name_H-M	'P1'
_symmetry_Int_Tables_number	1
_symmetry_cell_setting	triclinic
loop_
_symmetry_equiv_pos_as_xyz
  x,y,z
_cell_length_a	10.654546
_cell_length_b	10.723024
_cell_length_c	9.730223
_cell_angle_alpha	90.000190
_cell_angle_beta	90.001147
_cell_angle_gamma	84.475676
loop_
_atom_site_label
_atom_site_type_symbol
_atom_site_fract_x
_atom_site_fract_y
_atom_site_fract_z
O1	O	1.667810	0.175249	0.114316
O2	O	1.302329	0.191952	0.114312
O3	O	1.493500	0.002025	0.114309
O4	O	1.476639	0.365176	0.114319
O5	O	1.493498	0.002030	-0.114271
O6	O	1.302326	0.191957	-0.114268
O7	O	1.667808	0.175253	-0.114264
Zn8	Zn	1.485067	0.183606	-0.150558
Zn9	Zn	1.485070	0.183600	0.150606
O10	O	1.476637	0.365180	-0.114261
C11	C	1.255530	0.190729	0.000022
C12	C	1.116087	0.187062	0.000020
C13	C	1.050593	0.185325	0.124625
C14	C	0.919573	0.181870	0.124636
C15	C	0.919552	0.181885	-0.124574
C16	C	1.050569	0.185349	-0.124584
C17	C	1.050605	0.185310	0.268505
C18	C	0.919585	0.181855	0.268516
C19	C	1.492272	-0.044472	0.000021
C20	C	1.488601	-0.183027	0.000026
C21	C	1.595570	-0.257995	0.000029
C22	C	1.591778	-0.401199	0.000034
C23	C	1.714607	0.176477	0.000030
C24	C	1.854050	0.180143	0.000040
C25	C	1.477865	0.411678	0.000031
C26	C	1.481536	0.550232	0.000035
N27	N	1.485074	0.183610	-0.356094
C28	C	1.569747	0.099539	-0.428021
C29	C	1.569743	0.099524	-0.571904
C30	C	1.400391	0.267661	-0.571920
C31	C	1.400389	0.267669	-0.428040
C32	C	1.667525	0.002469	-0.428014
C33	C	1.667521	0.002454	-0.571897
N34	N	1.485072	0.183586	0.356143
H35	H	1.102342	0.096438	0.313137
H36	H	1.331442	0.336099	-0.630514
H37	H	1.103887	0.186778	-0.226049
C38	C	1.357811	-0.362758	0.000031
C39	C	1.263031	-0.369085	-0.118665
C40	C	1.139307	-0.282065	-0.118668
C41	C	1.110362	-0.188718	0.000023
C42	C	1.205145	-0.182387	0.118728
C43	C	1.328869	-0.269407	0.118732
H44	H	1.284456	-0.438189	-0.206535
H45	H	1.069143	-0.286751	-0.206542
H46	H	1.018774	-0.124300	0.000021
H47	H	1.183721	-0.113283	0.206599
H48	H	1.399033	-0.264721	0.206605
H49	H	1.394213	-0.224862	0.000033
C50	C	1.307241	0.360138	-0.348913
C51	C	1.214157	0.452664	-0.428048
C52	C	1.121005	0.545134	-0.348919
C53	C	1.120936	0.545079	-0.190656
C54	C	1.214023	0.452549	-0.111513
C55	C	1.307176	0.360079	-0.190642
H56	H	1.214205	0.452708	-0.545211
H57	H	1.052095	0.613631	-0.407507
H58	H	1.051979	0.613531	-0.132081
H59	H	1.213976	0.452505	0.005650
H60	H	1.376085	0.291582	-0.132054
C61	C	1.638568	-0.127100	-0.375244
C62	C	1.726092	-0.244686	-0.413466
C63	C	1.697134	-0.374251	-0.360696
C64	C	1.580651	-0.386228	-0.269704
C65	C	1.493118	-0.268638	-0.231476
C66	C	1.522077	-0.139074	-0.284246
H67	H	1.812327	-0.235823	-0.480829
H68	H	1.761931	-0.461299	-0.388995
H69	H	1.559214	-0.482140	-0.230640
H70	H	1.406884	-0.277501	-0.164114
H71	H	1.457279	-0.052025	-0.255948
H72	H	1.758704	0.032862	-0.383385
C73	C	1.626351	-0.120009	-0.632171
C74	C	1.716777	-0.202345	-0.725656
C75	C	1.675616	-0.324811	-0.785924
C76	C	1.544030	-0.364942	-0.752708
C77	C	1.453597	-0.282605	-0.659218
C78	C	1.494757	-0.160139	-0.598949
H79	H	1.814192	-0.172639	-0.750249
H80	H	1.742562	-0.385762	-0.855132
H81	H	1.513561	-0.455598	-0.797322
H82	H	1.356182	-0.312311	-0.634625
H83	H	1.427811	-0.099188	-0.529742
H84	H	1.764030	0.023834	-0.610946
C85	C	1.715498	-0.488216	0.000037
C86	C	1.810275	-0.481896	-0.118658
C87	C	1.934000	-0.568916	-0.118654
C88	C	1.962947	-0.662256	0.000045
C89	C	1.868167	-0.668579	0.118749
C90	C	1.744443	-0.581559	0.118745
H91	H	1.788849	-0.412797	-0.206533
H92	H	2.004162	-0.564235	-0.206527
H93	H	2.054535	-0.726673	0.000047
H94	H	1.889593	-0.737678	0.206624
H95	H	1.674280	-0.586240	0.206618
C96	C	1.084134	0.304339	0.343132
C97	C	1.155281	0.401473	0.266233
C98	C	1.188812	0.520497	0.340858
C99	C	1.151196	0.542388	0.492382
C100	C	1.080046	0.445252	0.569290
C101	C	1.046515	0.326227	0.494665
H102	H	1.183129	0.385270	0.154057
H103	H	1.241482	0.592403	0.283924
H104	H	1.176018	0.630497	0.547624
H105	H	1.052197	0.461454	0.681465
H106	H	0.993845	0.254321	0.551599
C107	C	0.849694	0.301908	0.328839
C108	C	0.924791	0.408341	0.380519
C109	C	0.854898	0.528394	0.440830
C110	C	0.709907	0.542015	0.449460
C111	C	0.634802	0.435579	0.397779
C112	C	0.704695	0.315525	0.337468
H113	H	1.032130	0.398261	0.374132
H114	H	0.910497	0.607186	0.479088
H115	H	0.658168	0.630886	0.494106
H116	H	0.527463	0.445659	0.404166
H117	H	0.649096	0.236734	0.299210
H118	H	0.894784	0.093737	0.323755
H119	H	0.866191	0.180491	-0.226022
H120	H	1.689957	-0.216160	0.000021
