data_functionalizedCrystal
_audit_creation_method	'MofGen! by Chris Wilmer'
_symmetry_space_group_name_H-M	'P1'
_symmetry_Int_Tables_number	1
_symmetry_cell_setting	triclinic
loop_
_symmetry_equiv_pos_as_xyz
  x,y,z
_cell_length_a	13.897449
_cell_length_b	12.594516
_cell_length_c	12.594509
_cell_angle_alpha	89.973801
_cell_angle_beta	89.980142
_cell_angle_gamma	90.017332
loop_
_atom_site_label
_atom_site_type_symbol
_atom_site_fract_x
_atom_site_fract_y
_atom_site_fract_z
Zn1	Zn	1.474705	-0.423674	-0.601833
Zn2	Zn	1.974705	0.076326	-0.101833
Zn3	Zn	1.474606	-0.601684	-0.423861
Zn4	Zn	1.974606	-0.101684	0.076139
Zn5	Zn	1.313397	-0.423724	-0.423867
Zn6	Zn	1.813397	0.076276	0.076133
Zn7	Zn	1.313381	-0.601615	-0.601796
Zn8	Zn	1.813381	-0.101615	-0.101796
O9	O	1.394022	-0.512674	-0.512839
O10	O	1.894022	-0.012674	-0.012839
O11	O	1.609674	-0.447295	-0.578238
O12	O	2.109674	0.052705	-0.078238
O13	O	1.453187	-0.578127	-0.274916
O14	O	1.953187	-0.078127	0.225084
O15	O	1.334843	-0.274771	-0.447493
O16	O	1.834843	0.225229	0.052507
O17	O	1.609601	-0.578079	-0.447483
O18	O	2.109601	-0.078079	0.052517
O19	O	1.453356	-0.274735	-0.578244
O20	O	1.953356	0.225265	-0.078244
O21	O	1.334747	-0.447381	-0.274920
O22	O	1.834747	0.052619	0.225080
O23	O	1.178413	-0.447313	-0.447456
O24	O	1.678413	0.052687	0.052544
O25	O	1.334815	-0.577960	-0.750747
O26	O	1.834815	-0.077960	-0.250747
O27	O	1.178401	-0.578009	-0.578180
O28	O	1.678401	-0.078009	-0.078180
O29	O	1.453340	-0.447228	-0.750774
O30	O	1.953340	0.052772	-0.250774
O31	O	1.453171	-0.750621	-0.447446
O32	O	1.953171	-0.250621	0.052554
O33	O	1.334720	-0.750570	-0.578174
O34	O	1.834720	-0.250570	-0.078174
C35	C	1.143408	-0.512660	-0.512815
C36	C	1.643408	-0.012660	-0.012815
C37	C	1.036194	-0.512679	-0.512830
C38	C	1.536194	-0.012679	-0.012830
C39	C	0.839899	-0.512683	-0.512858
C40	C	1.339899	-0.012683	-0.012858
C41	C	0.949131	-0.512678	-0.512839
C42	C	1.449131	-0.012678	-0.012839
C43	C	1.393959	-0.789215	-0.512829
C44	C	1.893959	-0.289215	-0.012829
C45	C	1.394020	-0.907520	-0.512860
C46	C	1.894020	-0.407520	-0.012860
C47	C	1.329588	-0.976784	-0.583913
C48	C	1.829588	-0.476784	-0.083913
C49	C	1.306086	-1.047650	-0.486790
C50	C	1.806086	-0.547650	0.013210
C51	C	1.417610	-1.047453	-0.609999
C52	C	1.917610	-0.547453	-0.109999
C53	C	1.370472	-0.976828	-0.415686
C54	C	1.870472	-0.476828	0.084314
C55	C	1.482037	-0.976625	-0.538960
C56	C	1.982037	-0.476625	-0.038960
C57	C	1.458568	-1.047459	-0.441771
C58	C	1.958568	-0.547459	0.058229
C59	C	1.645615	-0.512689	-0.512864
C60	C	2.145615	-0.012689	-0.012864
C61	C	1.752829	-0.512695	-0.512875
C62	C	2.252829	-0.012695	-0.012875
C63	C	1.394087	-0.512581	-0.790460
C64	C	1.894087	-0.012581	-0.290460
C65	C	1.394114	-0.512541	-0.908766
C66	C	1.894114	-0.012541	-0.408766
C67	C	1.394112	-0.235053	-0.512873
C68	C	1.894112	0.264947	-0.012873
C69	C	1.394150	-0.116748	-0.512887
C70	C	1.894150	0.383252	-0.012887
C71	C	1.329669	-0.583606	-0.978004
C72	C	1.829669	-0.083606	-0.478004
C73	C	1.417684	-0.609610	-1.048793
C74	C	1.917684	-0.109610	-0.548793
C75	C	1.306168	-0.486473	-1.048776
C76	C	1.806168	0.013527	-0.548776
C77	C	1.482176	-0.538596	-0.977996
C78	C	1.982176	-0.038596	-0.477996
C79	C	1.370600	-0.415414	-0.977974
C80	C	1.870600	0.084586	-0.477974
C81	C	1.458676	-0.441381	-1.048730
C82	C	1.958676	0.058619	-0.548730
C83	C	1.394013	-0.512690	-0.236298
C84	C	1.894013	-0.012690	0.263702
C85	C	1.394173	-0.512430	-0.117993
C86	C	1.894173	-0.012430	0.382007
H87	H	1.275003	-0.945751	-0.643912
H88	H	1.775003	-0.445751	-0.143912
H89	H	1.350653	-0.333346	-0.946843
H90	H	1.850653	0.166654	-0.446843
F91	F	1.344351	-0.936451	-0.308294
F92	F	1.844351	-0.436451	0.191706
H93	H	1.556597	-0.560691	-0.947036
H94	H	2.056597	-0.060691	-0.447036
F95	F	1.579227	-0.935818	-0.567846
F96	F	2.079227	-0.435818	-0.067846
H97	H	1.437510	-1.078477	-0.692138
H98	H	1.937510	-0.578477	-0.192138
F99	F	1.208870	-1.088425	-0.457940
F100	F	1.708870	-0.588425	0.042060
F101	F	1.529863	-1.087765	-0.363161
F102	F	2.029863	-0.587765	0.136839
F103	F	1.258490	-0.662276	-0.937410
F104	F	1.758490	-0.162276	-0.437410
F105	F	1.443724	-0.716907	-1.089454
F106	F	1.943724	-0.216907	-0.589454
F107	F	1.530022	-0.362768	-1.089071
F108	F	2.030022	0.137232	-0.589071
F109	F	1.208923	-0.457713	-1.089416
F110	F	1.708923	0.042287	-0.589416
