data_functionalizedCrystal
_audit_creation_method	'MofGen! by Chris Wilmer'
_symmetry_space_group_name_H-M	'P1'
_symmetry_Int_Tables_number	1
_symmetry_cell_setting	triclinic
loop_
_symmetry_equiv_pos_as_xyz
  x,y,z
_cell_length_a	12.837943
_cell_length_b	10.723024
_cell_length_c	9.798715
_cell_angle_alpha	90.001978
_cell_angle_beta	90.002645
_cell_angle_gamma	89.648405
loop_
_atom_site_label
_atom_site_type_symbol
_atom_site_fract_x
_atom_site_fract_y
_atom_site_fract_z
O1	O	-1.377762	-0.324662	-0.113460
O2	O	-1.075842	-0.308624	-0.113468
O3	O	-1.233766	-0.135823	-0.113459
O4	O	-1.219838	-0.497463	-0.113469
O5	O	-1.233754	-0.135821	0.113523
O6	O	-1.075830	-0.308622	0.113514
O7	O	-1.377750	-0.324660	0.113522
Zn8	Zn	-1.226788	-0.316641	0.149556
Zn9	Zn	-1.226804	-0.316643	-0.149503
O10	O	-1.219826	-0.497461	0.113513
C11	C	-1.037177	-0.303205	0.000022
C12	C	-0.921985	-0.287047	0.000018
C13	C	-1.232747	-0.089212	0.000030
C14	C	-1.229714	0.049671	0.000026
C15	C	-1.416415	-0.330079	0.000029
C16	C	-1.531607	-0.346237	0.000023
C17	C	-0.682408	-0.481303	0.000032
C18	C	-0.574174	-0.466126	0.000030
C19	C	-0.597282	-0.241518	0.000022
C20	C	-0.705515	-0.256694	0.000024
C21	C	-0.748074	-0.376591	0.000027
C22	C	-0.856310	-0.391766	0.000019
C23	C	-0.879415	-0.167159	0.000021
C24	C	-0.771182	-0.151982	0.000019
C25	C	-1.220845	-0.544071	0.000020
C26	C	-1.223878	-0.682955	0.000016
N27	N	-1.226785	-0.316639	0.353656
C28	C	-1.318080	0.115056	0.000026
C29	C	-1.314948	0.258600	0.000021
N30	N	-1.226815	-0.316636	-0.353602
C31	C	-1.293093	-0.243734	0.421437
C32	C	-1.293110	-0.243731	0.578600
H33	H	-0.890959	-0.489392	0.000024
H34	H	-0.562611	-0.143903	0.000132
H35	H	-1.349883	-0.181318	0.636888
C36	C	-0.648701	-0.701795	0.000028
C37	C	-0.729197	-0.613087	0.000030
H38	H	-0.677587	-0.783153	0.000033
H39	H	-0.606973	-0.691206	-0.079122
H40	H	-0.606960	-0.691196	0.079186
H41	H	-0.770933	-0.623680	-0.079135
H42	H	-0.770942	-0.623681	0.079187
C43	C	-0.439057	-0.579362	-0.116654
C44	C	-0.501990	-0.581226	0.000028
H45	H	-0.394489	-0.650420	-0.116647
H46	H	-0.481765	-0.580624	-0.195791
H47	H	-0.398222	-0.505783	-0.116642
H48	H	-0.542830	-0.654801	0.000011
H49	H	-0.459277	-0.579976	0.079186
H50	H	-1.170024	-0.379050	0.411977
C51	C	-1.088880	-0.468321	0.660481
C52	C	-1.150173	-0.400910	0.567731
H53	H	-1.041570	-0.520353	0.611905
H54	H	-1.051029	-0.412041	0.716218
H55	H	-1.132476	-0.518303	0.716208
H56	H	-1.106578	-0.350920	0.512010
H57	H	-1.188027	-0.457196	0.511971
C58	C	-0.615526	-0.028985	0.000007
C59	C	-0.724394	-0.020197	0.000009
H60	H	-0.586646	0.052376	-0.000011
H61	H	-0.593046	-0.072623	0.079161
H62	H	-0.593054	-0.072654	-0.079147
H63	H	-0.746867	0.023464	0.079168
H64	H	-0.746883	0.023459	-0.079154
H65	H	-0.932893	-0.081895	0.000008
C66	C	-1.117702	0.165913	-0.116672
C67	C	-1.121743	0.241176	0.000010
H68	H	-1.054644	0.119075	-0.116677
H69	H	-1.175235	0.110642	-0.116654
H70	H	-1.120468	0.216984	-0.195817
H71	H	-1.118984	0.190104	0.079157
H72	H	-1.064194	0.296452	0.000006
C73	C	-1.406074	-0.081882	0.000043
C74	C	-1.423346	0.047179	0.000036
H75	H	-1.471064	-0.123782	0.000058
H76	H	-1.367739	-0.104704	-0.079108
H77	H	-1.367717	-0.104690	0.079200
H78	H	-1.461696	0.069988	-0.079126
H79	H	-1.461697	0.070010	0.079196
C80	C	-1.351988	-0.034673	0.377081
C81	C	-1.369716	-0.159497	0.342681
H82	H	-1.399291	0.017322	0.328444
H83	H	-1.362075	-0.023598	0.472351
H84	H	-1.282579	-0.013086	0.353754
H85	H	-1.439123	-0.181087	0.366017
H86	H	-1.359638	-0.170578	0.247389
H87	H	-1.390596	0.314817	0.000028
H88	H	-1.151742	0.099962	0.000014
