data_functionalizedCrystal
_audit_creation_method	'MofGen! by Chris Wilmer'
_symmetry_space_group_name_H-M	'P1'
_symmetry_Int_Tables_number	1
_symmetry_cell_setting	triclinic
loop_
_symmetry_equiv_pos_as_xyz
  x,y,z
_cell_length_a	18.215407
_cell_length_b	18.215405
_cell_length_c	18.215399
_cell_angle_alpha	90.030551
_cell_angle_beta	90.019833
_cell_angle_gamma	90.025333
loop_
_atom_site_label
_atom_site_type_symbol
_atom_site_fract_x
_atom_site_fract_y
_atom_site_fract_z
Zn1	Zn	1.125072	-0.292983	0.416103
Zn2	Zn	1.124980	-0.416054	0.293031
Zn3	Zn	1.002005	-0.293007	0.293050
Zn4	Zn	1.001970	-0.416013	0.416056
O5	O	1.063507	-0.354514	0.354560
O6	O	1.228044	-0.309316	0.399788
O7	O	1.108643	-0.399759	0.190049
O8	O	1.018382	-0.190020	0.309401
O9	O	1.227977	-0.399736	0.309368
O10	O	1.108799	-0.190002	0.399807
O11	O	1.018293	-0.309357	0.190063
O12	O	0.899016	-0.309317	0.309355
O13	O	1.018324	-0.399666	0.519046
O14	O	0.898991	-0.399689	0.399727
O15	O	1.108766	-0.309276	0.519081
O16	O	1.108610	-0.519033	0.309322
O17	O	1.018235	-0.519003	0.399708
C18	C	0.872301	-0.354502	0.354539
C19	C	0.790502	-0.354514	0.354547
C20	C	0.602314	-0.401645	0.401544
C21	C	0.525455	-0.401647	0.401554
C22	C	0.525452	-0.307397	0.307591
C23	C	0.602309	-0.307392	0.307586
C24	C	0.640738	-0.354520	0.354562
C25	C	0.487022	-0.354528	0.354576
C26	C	0.403688	-0.354530	0.354585
C27	C	0.724077	-0.354517	0.354553
C28	C	1.063429	-0.545721	0.354524
C29	C	1.063463	-0.627520	0.354534
C30	C	1.110632	-0.815705	0.307556
C31	C	1.110665	-0.892563	0.307574
C32	C	1.016476	-0.892572	0.401616
C33	C	1.016447	-0.815715	0.401601
C34	C	1.063524	-0.777283	0.354567
C35	C	1.063586	-0.930999	0.354600
C36	C	1.063621	-1.014333	0.354619
C37	C	1.063490	-0.693944	0.354548
C38	C	1.255460	-0.354528	0.354581
C39	C	1.337259	-0.354533	0.354591
C40	C	1.063552	-0.354464	0.546513
C41	C	1.063571	-0.354442	0.628312
C42	C	1.063605	-0.162561	0.354611
C43	C	1.063647	-0.080763	0.354633
C44	C	1.063504	-0.354512	0.163353
C45	C	1.063628	-0.354326	0.081555
C46	C	1.110681	-0.307332	0.816525
C47	C	1.110690	-0.307311	0.893384
C48	C	1.016513	-0.401438	0.893336
C49	C	1.016501	-0.401455	0.816479
C50	C	1.063589	-0.354403	0.778075
C51	C	1.063610	-0.354365	0.931791
C52	C	1.063619	-0.354342	1.015125
C53	C	1.063579	-0.354425	0.694736
H54	H	0.633595	-0.269012	0.269327
H55	H	0.978148	-0.439786	0.785173
H56	H	0.633601	-0.440018	0.439797
O57	O	1.156439	-0.261554	0.779333
C58	C	1.249877	-0.168217	0.787495
C59	C	1.198082	-0.220014	0.829703
H60	H	1.283570	-0.134629	0.828202
H61	H	1.216137	-0.129694	0.751538
H62	H	1.288307	-0.202023	0.751489
H63	H	1.159642	-0.186267	0.865749
H64	H	1.231869	-0.258539	0.865614
O65	O	1.156330	-0.261505	0.930764
C66	C	1.166290	-0.162146	1.017593
C67	C	1.114519	-0.213969	0.975295
H68	H	1.132507	-0.123710	1.053618
H69	H	1.199925	-0.128468	0.976971
H70	H	1.204775	-0.195938	1.053544
H71	H	1.075989	-0.180234	0.939343
H72	H	1.080935	-0.247649	1.015957
H73	H	0.978177	-0.439748	0.924614
H74	H	1.149026	-0.923843	0.269294
O75	O	0.488244	-0.447496	0.447215
C76	C	0.496364	-0.540949	0.540441
C77	C	0.538596	-0.489074	0.488752
H78	H	0.537054	-0.574568	0.574049
H79	H	0.460370	-0.579438	0.506624
H80	H	0.460392	-0.507200	0.578956
H81	H	0.574607	-0.522764	0.450227
H82	H	0.574542	-0.450583	0.522616
H83	H	0.494153	-0.269028	0.269344
H84	H	0.978146	-0.923873	0.439908
H85	H	1.148966	-0.784415	0.269260
O86	O	0.970614	-0.778501	0.447294
C87	C	0.877228	-0.786613	0.540605
C88	C	0.929077	-0.828849	0.488885
H89	H	0.843642	-0.827302	0.574256
H90	H	0.838706	-0.750705	0.506809
H91	H	0.910994	-0.750557	0.579078
H92	H	0.895370	-0.864946	0.450401
H93	H	0.967600	-0.864711	0.522726
