data_functionalizedCrystal
_audit_creation_method	'MofGen! by Chris Wilmer'
_symmetry_space_group_name_H-M	'P1'
_symmetry_Int_Tables_number	1
_symmetry_cell_setting	triclinic
loop_
_symmetry_equiv_pos_as_xyz
  x,y,z
_cell_length_a	21.606444
_cell_length_b	14.560438
_cell_length_c	21.606444
_cell_angle_alpha	60.006160
_cell_angle_beta	90.000833
_cell_angle_gamma	60.000494
loop_
_atom_site_label
_atom_site_type_symbol
_atom_site_fract_x
_atom_site_fract_y
_atom_site_fract_z
Zr1	Zr	0.596244	1.005235	-0.081145
O2	O	0.497422	1.196819	-0.179949
O3	O	0.626535	0.813650	-0.050869
O4	O	0.626534	1.005243	-0.179973
O5	O	0.497428	1.005220	0.051008
O6	O	0.728383	1.005249	-0.179977
O7	O	0.497423	1.005226	-0.050846
O8	O	0.728386	0.662524	0.050966
O9	O	0.497426	1.347945	-0.179934
O10	O	0.715467	0.892456	-0.037944
O11	O	0.639462	0.892447	0.038071
O12	O	0.639460	1.118023	-0.113932
O13	O	0.563455	1.118013	-0.037916
Zr14	Zr	0.758691	1.005235	0.081295
Zr15	Zr	0.758683	1.005245	-0.081151
Zr16	Zr	0.596252	1.005224	0.081301
Zr17	Zr	0.596251	1.246262	-0.081121
Zr18	Zr	0.758684	0.764207	0.081271
O19	O	0.728400	1.196819	0.051019
O20	O	0.728388	1.196834	-0.179958
O21	O	0.497433	1.196805	0.051027
O22	O	0.857513	0.813650	0.180099
O23	O	0.857502	0.813665	-0.050878
O24	O	0.626547	0.813635	0.180107
O25	O	0.857507	1.005249	-0.050859
O26	O	0.728402	1.005226	0.180123
O27	O	0.626552	1.005220	0.180126
O28	O	0.857512	1.005243	0.050995
O29	O	0.626543	1.347953	-0.179939
O30	O	0.728392	0.662516	0.180089
O31	O	0.857509	0.662524	0.180084
O32	O	0.857503	0.662533	0.050961
O33	O	0.497432	1.347937	-0.050812
O34	O	0.626549	1.347945	-0.050817
O35	O	0.715475	0.892447	0.114081
O36	O	0.791480	0.892456	0.038066
O37	O	0.715473	1.118023	-0.037922
O38	O	0.639468	1.118013	0.038094
C39	C	0.474282	1.005222	0.000082
C40	C	0.405322	1.005217	0.000085
C41	C	0.677459	0.703746	0.000045
C42	C	0.677457	0.601423	0.000035
C43	C	0.412598	0.887475	0.039747
C44	C	0.347801	0.887478	0.039747
C45	C	0.275728	1.005226	0.000081
C46	C	0.268454	1.122977	-0.039582
C47	C	0.333251	1.122972	-0.039578
C48	C	0.007136	1.123000	-0.039599
C49	C	-0.057662	1.122996	-0.039602
C50	C	0.021686	0.887506	0.039726
C51	C	0.086482	0.887501	0.039730
C52	C	0.079203	1.005252	0.000071
C53	C	0.149464	1.005246	0.000072
C54	C	0.205468	1.005233	0.000075
C55	C	0.621348	0.636550	-0.056046
C56	C	0.621361	0.540361	-0.056008
C57	C	0.733592	0.373920	0.056199
C58	C	0.733583	0.470108	0.056157
C59	C	0.565223	0.767865	-0.112169
C60	C	0.509109	0.802999	-0.168254
C61	C	0.509121	0.706809	-0.168216
C62	C	0.565247	0.575487	-0.112093
C63	C	0.880653	1.005248	0.000067
C64	C	0.949613	1.005252	0.000065
C65	C	0.677457	1.005248	-0.203120
C66	C	0.677454	1.005252	-0.272082
C67	C	0.677476	1.306723	0.000105
C68	C	0.677478	1.409046	0.000115
C69	C	0.637778	1.122994	-0.344146
C70	C	0.637785	1.122991	-0.408940
C71	C	0.677463	1.005243	-0.401670
C72	C	0.717143	0.887492	-0.329599
C73	C	0.717140	0.887497	-0.264806
C74	C	0.717155	0.887469	-0.590902
C75	C	0.717153	0.887473	-0.655703
C76	C	0.637799	1.122963	-0.735037
C77	C	0.637797	1.122968	-0.670243
C78	C	0.677480	1.005218	-0.598178
C79	C	0.677474	1.005223	-0.527921
C80	C	0.677465	1.005237	-0.471926
C81	C	0.677478	1.005222	0.203269
C82	C	0.677481	1.005217	0.272232
C83	C	0.880645	0.703759	0.000038
C84	C	0.949602	0.601441	0.000025
C85	C	0.677470	0.703733	0.203240
C86	C	0.677470	0.601406	0.272192
C87	C	0.880656	0.703746	0.203232
C88	C	0.949616	0.601423	0.272182
C89	C	0.474279	1.306723	-0.203083
C90	C	0.405319	1.409046	-0.272032
C91	C	0.474290	1.306710	0.000112
C92	C	0.405333	1.409029	0.000125
C93	C	0.677465	1.306736	-0.203090
C94	C	0.677465	1.409063	-0.272042
C95	C	0.942307	0.553391	-0.039664
C96	C	1.007093	0.457265	-0.039691
C97	C	1.079173	0.409185	-0.000024
C98	C	1.086467	0.457244	0.039666
C99	C	1.021682	0.553374	0.039688
C100	C	0.717149	0.553352	0.344256
C101	C	0.717147	0.457219	0.409050
C102	C	0.677470	0.409134	0.401779
C103	C	0.637787	0.457197	0.329707
C104	C	0.637785	0.553336	0.264915
C105	C	1.021681	0.553377	0.264882
C106	C	1.086483	0.457247	0.329662
C107	C	1.079217	0.409159	0.401740
C108	C	1.007144	0.457216	0.409038
C109	C	0.942344	0.553350	0.344260
C110	C	0.333254	1.457104	-0.264733
C111	C	0.268452	1.553264	-0.329512
C112	C	0.275718	1.601356	-0.401591
C113	C	0.347791	1.553294	-0.408889
C114	C	0.412591	1.457143	-0.344110
C115	C	0.412628	1.457088	0.039807
C116	C	0.347842	1.553240	0.039816
C117	C	0.275762	1.601324	0.000147
C118	C	0.268468	1.553261	-0.039540
C119	C	0.333253	1.457117	-0.039554
C120	C	0.717149	1.457117	-0.264747
C121	C	0.717163	1.553252	-0.329528
C122	C	0.677488	1.601337	-0.401605
C123	C	0.637802	1.553273	-0.408899
C124	C	0.637793	1.457134	-0.344118
H125	H	0.471279	0.791591	0.072051
C126	C	0.565259	0.469681	-0.112056
N127	N	0.565265	0.389990	-0.112027
H128	H	0.327324	1.417953	-0.206049
H129	H	0.209772	1.592425	-0.071838
C130	C	0.594123	1.404303	-0.352156
N131	N	0.561226	1.364518	-0.358216
C132	C	0.677504	1.707095	-0.472859
N133	N	0.677518	1.786755	-0.526525
C134	C	0.863024	0.606269	-0.083309
N135	N	0.803310	0.646097	-0.116189
C136	C	1.029719	0.606206	0.083361
N137	N	1.035779	0.645992	0.116258
H138	H	0.749459	0.592492	0.350191
H139	H	1.001240	0.418049	0.467733
C140	C	0.999052	0.404407	-0.083347
N141	N	0.992994	0.364593	-0.116227
C142	C	1.150432	0.303430	-0.000050
N143	N	1.204101	0.223770	-0.000069
H144	H	0.223016	1.679611	0.000164
H145	H	0.749464	0.418097	0.467727
H146	H	0.605484	1.218850	-0.676170
C147	C	0.355770	1.606198	-0.488182
N148	N	0.361777	1.646040	-0.547908
C149	C	0.355883	1.606082	0.083484
N150	N	0.361941	1.645877	0.116376
C151	C	0.863074	0.606188	0.352302
N152	N	0.803368	0.645983	0.358366
C153	C	0.189180	1.606112	-0.321467
N154	N	0.129473	1.645915	-0.315405
H155	H	0.565205	0.846196	-0.112204
H156	H	0.222947	1.679648	-0.454331
C157	C	0.594194	1.606135	-0.488191
N158	N	0.561357	1.645941	-0.547916
C159	C	0.325216	1.404247	-0.083200
N160	N	0.319156	1.364428	-0.116075
C161	C	0.165761	0.757970	0.083367
N162	N	0.225474	0.660404	0.116237
H163	H	0.471268	1.418015	-0.350063
H164	H	1.131988	0.330881	0.454481
H165	H	0.001199	1.218880	-0.071906
C166	C	0.760803	1.404235	-0.185468
N167	N	0.793690	1.364403	-0.125757
C168	C	0.491911	1.404220	0.083445
N169	N	0.551625	1.364412	0.116312
H170	H	0.605477	0.592448	0.206239
H171	H	0.749479	1.592375	-0.323575
H172	H	0.353731	0.791601	0.072045
C173	C	0.447379	0.947449	-0.229991
N174	N	0.400884	1.056251	-0.276493
C175	C	0.189172	1.252501	-0.083218
N176	N	0.129456	1.350061	-0.116090
C177	C	1.165763	0.404332	0.083303
N178	N	1.225490	0.364468	0.116175
C179	C	0.447394	0.745459	-0.229908
N180	N	0.400895	0.774575	-0.276372
C181	C	0.594106	1.252517	-0.488210
N182	N	0.561194	1.350082	-0.547918
H183	H	0.027607	0.791628	0.072021
H184	H	-0.116348	1.218886	-0.071904
H185	H	0.327322	1.218850	-0.071865
H186	H	0.749448	0.791619	-0.206129
H187	H	0.779286	0.266993	0.101893
C188	C	0.795302	0.431467	0.117852
N189	N	0.841792	0.402361	0.164321
H190	H	0.677478	0.330852	0.454543
H191	H	1.145162	0.418130	0.323706
C192	C	0.594149	0.404283	0.321721
N193	N	0.561286	0.364418	0.315709
H194	H	0.749466	0.791584	-0.649775
C195	C	0.760800	0.757940	-0.511638
N196	N	0.793674	0.660372	-0.451932
C197	C	0.760787	0.757968	-0.321604
N198	N	0.793658	0.660408	-0.315580
H199	H	0.605463	1.218878	-0.350074
H200	H	1.027611	0.592515	0.206198
H201	H	0.605490	1.218842	-0.793722
