data_functionalizedCrystal
_audit_creation_method	'MofGen! by Chris Wilmer'
_symmetry_space_group_name_H-M	'P1'
_symmetry_Int_Tables_number	1
_symmetry_cell_setting	triclinic
loop_
_symmetry_equiv_pos_as_xyz
  x,y,z
_cell_length_a	6.817900
_cell_length_b	16.418049
_cell_length_c	17.982856
_cell_angle_alpha	95.673159
_cell_angle_beta	102.449936
_cell_angle_gamma	103.389670
loop_
_atom_site_label
_atom_site_type_symbol
_atom_site_fract_x
_atom_site_fract_y
_atom_site_fract_z
V1	V	-4.014596	-0.116682	-0.237820
O2	O	-4.002825	0.004789	-0.233016
O3	O	-3.965730	-0.230574	-0.236459
O4	O	-3.961102	-0.115246	-0.341420
O5	O	-4.007485	-0.111337	-0.127329
V6	V	-4.498944	-0.102110	-0.224572
O7	O	-4.274044	-0.148646	-0.266880
O8	O	-4.689694	-0.070146	-0.195511
O9	O	-4.324604	0.011782	-0.225933
O10	O	-4.628112	-0.223581	-0.229375
O11	O	-4.623452	-0.107454	-0.335063
O12	O	-4.329232	-0.103546	-0.120972
C13	C	-3.810782	-0.258327	-0.232775
C14	C	-3.852081	-0.351437	-0.232353
C15	C	-4.128974	-0.569936	-0.235207
C16	C	-4.167767	-0.657424	-0.234817
C17	C	-3.803924	-0.648855	-0.227189
C18	C	-3.765137	-0.561369	-0.227585
C19	C	-3.927666	-0.521912	-0.231590
C20	C	-4.005247	-0.696885	-0.230804
C21	C	-4.047307	-0.791743	-0.230381
C22	C	-3.885605	-0.427048	-0.232014
C23	C	-3.804878	-0.111213	-0.366663
C24	C	-3.842421	-0.110793	-0.451358
C25	C	-3.899406	-0.187336	-0.502206
C26	C	-3.934690	-0.186939	-0.581787
C27	C	-3.912974	-0.109999	-0.610517
C28	C	-3.855989	-0.033450	-0.559663
C29	C	-3.820720	-0.033848	-0.480085
C30	C	-3.998225	-0.031845	-0.880594
C31	C	-4.033493	-0.031453	-0.960178
C32	C	-4.112195	-0.184936	-0.982296
C33	C	-4.076926	-0.185334	-0.902717
C34	C	-4.019955	-0.108786	-0.851870
C35	C	-3.981701	-0.109217	-0.765581
C36	C	-3.951213	-0.109567	-0.696805
C37	C	-4.142893	0.039531	-0.229614
C38	C	-4.080832	0.132640	-0.230041
C39	C	-4.148798	-0.107581	-0.095724
C40	C	-4.090493	-0.107997	-0.011028
H41	H	-4.331688	-0.696523	-0.237764
H42	H	-4.158595	-0.247265	-1.023706
C43	C	-3.923299	-0.271973	-0.470606
C44	C	-4.133909	-0.339222	-0.494380
C45	C	-4.157812	-0.423862	-0.462783
C46	C	-3.971105	-0.441252	-0.407412
C47	C	-3.760481	-0.374000	-0.383636
C48	C	-3.736578	-0.289361	-0.415233
H49	H	-4.272133	-0.326350	-0.535371
H50	H	-4.313731	-0.473645	-0.480384
H51	H	-3.988800	-0.503907	-0.384022
H52	H	-3.622256	-0.386872	-0.342645
H53	H	-3.580659	-0.239577	-0.397632
H54	H	-3.601203	-0.522266	-0.224642
C55	C	-3.997363	-0.271137	-0.637719
C56	C	-4.021229	-0.355769	-0.606118
C57	C	-4.083904	-0.439972	-0.662051
C58	C	-4.122714	-0.439542	-0.749585
C59	C	-4.098848	-0.354906	-0.781191
C60	C	-4.036172	-0.270704	-0.725258
H61	H	-3.992499	-0.356091	-0.541316
H62	H	-4.101571	-0.502624	-0.638654
H63	H	-4.169110	-0.501873	-0.790990
H64	H	-4.127578	-0.354585	-0.845994
H65	H	-4.018506	-0.208052	-0.748656
C66	C	-4.009620	0.053186	-0.991784
C67	C	-3.799031	0.120449	-0.968010
C68	C	-3.775159	0.205083	-0.999616
C69	C	-3.961876	0.222454	-1.054996
C70	C	-4.172479	0.155190	-1.078772
C71	C	-4.196351	0.070556	-1.047166
H72	H	-3.660799	0.107591	-0.927012
H73	H	-3.619255	0.254876	-0.982014
H74	H	-3.944204	0.285106	-1.078392
H75	H	-4.310711	0.168048	-1.119771
H76	H	-4.352255	0.020763	-1.064768
H77	H	-3.951838	0.030485	-0.839203
H78	H	-3.838322	0.029195	-0.583062
C79	C	-3.758007	0.050348	-0.424144
C80	C	-3.557088	0.117704	-0.422250
C81	C	-3.494375	0.201902	-0.366308
C82	C	-3.632581	0.218743	-0.312261
C83	C	-3.833512	0.151385	-0.314153
C84	C	-3.896226	0.067188	-0.370095
H85	H	-3.454769	0.105239	-0.462261
H86	H	-3.345631	0.251764	-0.364908
H87	H	-3.586156	0.281071	-0.270850
H88	H	-3.935832	0.163851	-0.274142
H89	H	-4.044969	0.017325	-0.371495
H90	H	-4.261318	-0.537813	-0.238468
H91	H	-3.671603	-0.680991	-0.223926
H92	H	-4.094603	-0.247986	-0.879330
