data_functionalizedCrystal
_audit_creation_method	'MofGen! by Chris Wilmer'
_symmetry_space_group_name_H-M	'P1'
_symmetry_Int_Tables_number	1
_symmetry_cell_setting	triclinic
loop_
_symmetry_equiv_pos_as_xyz
  x,y,z
_cell_length_a	16.109301
_cell_length_b	7.540329
_cell_length_c	9.065218
_cell_angle_alpha	89.998628
_cell_angle_beta	95.761317
_cell_angle_gamma	89.998886
loop_
_atom_site_label
_atom_site_type_symbol
_atom_site_fract_x
_atom_site_fract_y
_atom_site_fract_z
O1	O	1.104585	0.147363	-0.189628
O2	O	1.437919	0.480696	0.143706
O3	O	1.771252	0.814030	0.477039
O4	O	0.862705	0.147390	-0.213227
O5	O	1.196038	0.480724	0.120107
O6	O	1.529371	0.814057	0.453440
O7	O	0.988645	0.147372	0.013336
O8	O	1.321978	0.480706	0.346670
O9	O	1.655311	0.814039	0.680003
O10	O	0.978646	0.147381	-0.416191
O11	O	1.311979	0.480714	-0.082857
O12	O	1.645312	0.814047	0.250476
O13	O	0.988640	-0.147593	0.013338
O14	O	1.321974	0.185741	0.346671
O15	O	1.655307	0.519074	0.680005
O16	O	0.862700	-0.147575	-0.213225
O17	O	1.196034	0.185759	0.120108
O18	O	1.529367	0.519092	0.453442
O19	O	1.104581	-0.147602	-0.189626
O20	O	1.437914	0.185731	0.143707
O21	O	1.771248	0.519065	0.477041
Cu22	Cu	0.983640	-0.174521	-0.201425
Cu23	Cu	1.316974	0.158812	0.131908
Cu24	Cu	1.650307	0.492146	0.465241
Cu25	Cu	0.983646	0.174309	-0.201427
Cu26	Cu	1.316979	0.507643	0.131906
Cu27	Cu	1.650312	0.840976	0.465239
O28	O	0.978641	-0.147584	-0.416189
O29	O	1.311974	0.185749	-0.082856
O30	O	1.645308	0.519082	0.250478
C31	C	0.831720	-0.000089	-0.212270
C32	C	1.165054	0.333245	0.121063
C33	C	1.498387	0.666578	0.454397
C34	C	0.739403	-0.000078	-0.209404
C35	C	1.072736	0.333255	0.123929
C36	C	1.406070	0.666589	0.457263
N37	N	0.983643	-0.419870	-0.201423
N38	N	1.316976	-0.086536	0.131910
N39	N	1.650309	0.246797	0.465244
C40	C	0.518112	-0.000096	-0.337178
C41	C	0.851446	0.333237	-0.003845
C42	C	1.184779	0.666570	0.329489
C43	C	0.431371	-0.000108	-0.334474
C44	C	0.764705	0.333226	-0.001140
C45	C	1.098038	0.666559	0.332193
C46	C	0.449180	-0.000105	-0.065664
C47	C	0.782514	0.333228	0.267669
C48	C	1.115847	0.666561	0.601002
C49	C	0.535920	-0.000107	-0.068370
C50	C	0.869253	0.333227	0.264963
C51	C	1.202586	0.666560	0.598296
C52	C	0.570383	-0.000093	-0.204131
C53	C	0.903717	0.333240	0.129202
C54	C	1.237050	0.666574	0.462535
C55	C	0.396903	-0.000103	-0.198721
C56	C	0.730236	0.333230	0.134612
C57	C	1.063569	0.666563	0.467945
C58	C	0.302854	-0.000116	-0.195788
C59	C	0.636187	0.333218	0.137545
C60	C	0.969521	0.666551	0.470879
C61	C	0.664438	-0.000084	-0.207065
C62	C	0.997771	0.333249	0.126268
C63	C	1.331104	0.666583	0.459601
C64	C	1.135565	-0.000119	-0.190583
C65	C	1.468899	0.333214	0.142751
C66	C	1.802232	0.666547	0.476084
C67	C	1.227883	-0.000118	-0.193449
C68	C	1.561216	0.333215	0.139885
C69	C	1.894549	0.666549	0.473218
C70	C	0.987682	-0.000107	0.068300
C71	C	1.321015	0.333226	0.401634
C72	C	1.654348	0.666560	0.734967
C73	C	0.984808	-0.000098	0.232074
C74	C	1.318142	0.333235	0.565407
C75	C	1.651475	0.666568	0.898740
N76	N	0.983650	0.419658	-0.201418
N77	N	1.316983	0.752991	0.131915
N78	N	1.650316	1.086324	0.465249
C79	C	0.979604	-0.000101	-0.471153
C80	C	1.312938	0.333233	-0.137820
C81	C	1.646271	0.666566	0.195514
C82	C	0.982478	-0.000098	-0.634926
C83	C	1.315811	0.333235	-0.301593
C84	C	1.649144	0.666569	0.031740
H85	H	0.546169	-0.000098	-0.447723
H86	H	0.879503	0.333235	-0.114390
H87	H	1.212836	0.666568	0.218943
H88	H	0.388815	-0.000114	-0.442814
H89	H	0.722148	0.333220	-0.109480
H90	H	1.055482	0.666553	0.223853
N91	N	0.592299	-0.000118	0.075144
N92	N	0.925632	0.333215	0.408477
N93	N	1.258966	0.666549	0.741811
H94	H	0.581100	0.109225	0.134376
H95	H	0.914433	0.442558	0.467709
H96	H	1.247767	0.775892	0.801042
H97	H	0.652455	-0.000195	0.052711
H98	H	0.985788	0.333139	0.386044
H99	H	1.319121	0.666472	0.719377
H100	H	0.421109	-0.000127	0.044868
H101	H	0.754443	0.333206	0.378201
H102	H	1.087776	0.666539	0.711534
