data_functionalizedCrystal
_audit_creation_method	'MofGen! by Chris Wilmer'
_symmetry_space_group_name_H-M	'P1'
_symmetry_Int_Tables_number	1
_symmetry_cell_setting	triclinic
loop_
_symmetry_equiv_pos_as_xyz
  x,y,z
_cell_length_a	18.215407
_cell_length_b	18.215405
_cell_length_c	17.077396
_cell_angle_alpha	89.967575
_cell_angle_beta	89.985449
_cell_angle_gamma	90.022344
loop_
_atom_site_label
_atom_site_type_symbol
_atom_site_fract_x
_atom_site_fract_y
_atom_site_fract_z
Zn1	Zn	1.125055	-0.293028	-0.443769
Zn2	Zn	1.458388	0.040305	-0.110436
Zn3	Zn	1.791722	0.373639	0.222897
Zn4	Zn	1.124968	-0.416103	-0.312496
Zn5	Zn	1.458302	-0.082770	0.020837
Zn6	Zn	1.791635	0.250563	0.354170
Zn7	Zn	1.001992	-0.293050	-0.312523
Zn8	Zn	1.335326	0.040284	0.020810
Zn9	Zn	1.668659	0.373617	0.354143
Zn10	Zn	1.001953	-0.416052	-0.443726
Zn11	Zn	1.335287	-0.082719	-0.110393
Zn12	Zn	1.668620	0.250615	0.222941
O13	O	1.063492	-0.354558	-0.378129
O14	O	1.396826	-0.021225	-0.044795
O15	O	1.730159	0.312108	0.288538
O16	O	1.228028	-0.309367	-0.426362
O17	O	1.561361	0.023967	-0.093029
O18	O	1.894694	0.357300	0.240304
O19	O	1.108635	-0.399811	-0.202653
O20	O	1.441969	-0.066477	0.130681
O21	O	1.775302	0.266856	0.464014
O22	O	1.018370	-0.190063	-0.329963
O23	O	1.351703	0.143271	0.003370
O24	O	1.685036	0.476604	0.336704
O25	O	1.227964	-0.399790	-0.329917
O26	O	1.561297	-0.066456	0.003417
O27	O	1.894631	0.266877	0.336750
O28	O	1.108783	-0.190047	-0.426389
O29	O	1.442116	0.143287	-0.093055
O30	O	1.775450	0.476620	0.240278
O31	O	1.018286	-0.309404	-0.202673
O32	O	1.351619	0.023930	0.130660
O33	O	1.684952	0.357263	0.463994
O34	O	0.899003	-0.309354	-0.329921
O35	O	1.232336	0.023979	0.003412
O36	O	1.565670	0.357313	0.336746
O37	O	1.018303	-0.399702	-0.553579
O38	O	1.351636	-0.066369	-0.220245
O39	O	1.684969	0.266965	0.113088
O40	O	0.898974	-0.399723	-0.426315
O41	O	1.232308	-0.066390	-0.092982
O42	O	1.565641	0.266944	0.240352
O43	O	1.108745	-0.309317	-0.553611
O44	O	1.442078	0.024016	-0.220277
O45	O	1.775412	0.357350	0.113056
O46	O	1.108597	-0.519081	-0.329875
O47	O	1.441931	-0.185748	0.003459
O48	O	1.775264	0.147586	0.336792
O49	O	1.018219	-0.519043	-0.426288
O50	O	1.351552	-0.185710	-0.092955
O51	O	1.684886	0.147624	0.240378
C52	C	0.872286	-0.354536	-0.378117
C53	C	1.205619	-0.021202	-0.044783
C54	C	1.538953	0.312131	0.288550
C55	C	0.790487	-0.354544	-0.378130
C56	C	1.123820	-0.021211	-0.044797
C57	C	1.457154	0.312123	0.288537
C58	C	0.525434	-0.401691	-0.428252
C59	C	0.858767	-0.068358	-0.094919
C60	C	1.192100	0.264976	0.238415
C61	C	0.602293	-0.401685	-0.428248
C62	C	0.935626	-0.068351	-0.094915
C63	C	1.268959	0.264982	0.238418
C64	C	0.602292	-0.307442	-0.328019
C65	C	0.935625	0.025891	0.005314
C66	C	1.268959	0.359224	0.338648
C67	C	0.525435	-0.307453	-0.328020
C68	C	0.858768	0.025880	0.005314
C69	C	1.192101	0.359214	0.338647
C70	C	0.487008	-0.354576	-0.378140
C71	C	0.820341	-0.021243	-0.044807
C72	C	1.153674	0.312091	0.288526
C73	C	0.640724	-0.354559	-0.378136
C74	C	0.974057	-0.021226	-0.044803
C75	C	1.307390	0.312107	0.288530
C76	C	0.724057	-0.354552	-0.378132
C77	C	1.057391	-0.021219	-0.044798
C78	C	1.390724	0.312115	0.288535
C79	C	0.403669	-0.354584	-0.378144
C80	C	0.737002	-0.021251	-0.044811
C81	C	1.070335	0.312082	0.288523
C82	C	1.063415	-0.545765	-0.378091
C83	C	1.396748	-0.212431	-0.044758
C84	C	1.730081	0.120902	0.288576
C85	C	1.063449	-0.627564	-0.378101
C86	C	1.396782	-0.294230	-0.044768
C87	C	1.730115	0.039103	0.288566
C88	C	1.110619	-0.815753	-0.327991
C89	C	1.443953	-0.482419	0.005343
C90	C	1.777286	-0.149086	0.338676
C91	C	1.110652	-0.892611	-0.328010
C92	C	1.443985	-0.559278	0.005324
C93	C	1.777319	-0.225945	0.338657
C94	C	1.016459	-0.892612	-0.428323
C95	C	1.349793	-0.559279	-0.094990
C96	C	1.683126	-0.225945	0.238344
C97	C	1.016431	-0.815755	-0.428308
C98	C	1.349764	-0.482421	-0.094974
C99	C	1.683097	-0.149088	0.238359
C100	C	1.063510	-0.777327	-0.378137
C101	C	1.396843	-0.443994	-0.044804
C102	C	1.730176	-0.110660	0.288530
C103	C	1.063571	-0.931043	-0.378171
C104	C	1.396904	-0.597710	-0.044838
C105	C	1.730238	-0.264376	0.288495
C106	C	1.063606	-1.014377	-0.378192
C107	C	1.396940	-0.681043	-0.044859
C108	C	1.730273	-0.347710	0.288474
C109	C	1.063475	-0.693988	-0.378117
C110	C	1.396809	-0.360655	-0.044783
C111	C	1.730142	-0.027321	0.288550
C112	C	1.255445	-0.354582	-0.378141
C113	C	1.588778	-0.021248	-0.044808
C114	C	1.922112	0.312085	0.288525
C115	C	1.337244	-0.354591	-0.378147
C116	C	1.670577	-0.021258	-0.044813
C117	C	2.003911	0.312075	0.288520
C118	C	1.063590	-0.162605	-0.378184
C119	C	1.396924	0.170728	-0.044850
C120	C	1.730257	0.504061	0.288483
C121	C	1.063632	-0.080806	-0.378207
C122	C	1.396965	0.252527	-0.044874
C123	C	1.730299	0.585860	0.288459
C124	C	1.063529	-0.354501	-0.582873
C125	C	1.396863	-0.021168	-0.249540
C126	C	1.730196	0.312165	0.083794
C127	C	1.063545	-0.354477	-0.670123
C128	C	1.396878	-0.021144	-0.336790
C129	C	1.730212	0.312190	-0.003456
C130	C	1.016514	-0.307397	-0.711123
C131	C	1.349847	0.025937	-0.377790
C132	C	1.683181	0.359270	-0.044456
C133	C	1.016526	-0.307380	-0.793103
C134	C	1.349859	0.025954	-0.459770
C135	C	1.683193	0.359287	-0.126437
C136	C	1.063573	-0.354440	-0.834082
C137	C	1.396907	-0.021107	-0.500749
C138	C	1.730240	0.312226	-0.167416
C139	C	1.110606	-0.401526	-0.793077
C140	C	1.443939	-0.068193	-0.459743
C141	C	1.777273	0.265140	-0.126410
C142	C	1.110590	-0.401546	-0.711098
C143	C	1.443923	-0.068213	-0.377764
C144	C	1.777257	0.265121	-0.044431
C145	C	1.110638	-0.401480	-0.963947
C146	C	1.443971	-0.068147	-0.630614
C147	C	1.777305	0.265186	-0.297280
C148	C	1.110655	-0.401460	-1.045932
C149	C	1.443989	-0.068126	-0.712598
C150	C	1.777322	0.265207	-0.379265
C151	C	1.016574	-0.307314	-1.045953
C152	C	1.349908	0.026019	-0.712619
C153	C	1.683241	0.359353	-0.379286
C154	C	1.016558	-0.307334	-0.963974
C155	C	1.349891	0.026000	-0.630640
C156	C	1.683225	0.359333	-0.297307
C157	C	1.063592	-0.354419	-0.922974
C158	C	1.396925	-0.021085	-0.589640
C159	C	1.730259	0.312248	-0.256307
C160	C	1.063498	-0.354562	-0.174181
C161	C	1.396831	-0.021229	0.159152
C162	C	1.730164	0.312105	0.492486
C163	C	1.063625	-0.354379	-0.086932
C164	C	1.396958	-0.021046	0.246402
C165	C	1.730291	0.312288	0.579735
H166	H	0.494147	-0.269085	-0.287209
H167	H	0.827480	0.064248	0.046124
H168	H	1.160814	0.397581	0.379458
O169	O	1.161325	-0.452320	-0.666875
O170	O	1.494658	-0.118986	-0.333542
O171	O	1.827992	0.214347	-0.000209
H172	H	1.148683	-0.510073	-0.682596
H173	H	1.482017	-0.176740	-0.349262
H174	H	1.815350	0.156593	-0.015929
O175	O	1.161473	-0.934053	-0.273929
O176	O	1.494806	-0.600720	0.059404
O177	O	1.828139	-0.267386	0.392737
H178	H	1.153595	-0.993953	-0.282376
H179	H	1.486928	-0.660620	0.050958
H180	H	1.820261	-0.327287	0.384291
O181	O	0.965668	-0.934058	-0.482420
O182	O	1.299002	-0.600724	-0.149087
O183	O	1.632335	-0.267391	0.184247
H184	H	0.973593	-0.993958	-0.473998
H185	H	1.306926	-0.660624	-0.140665
H186	H	1.640260	-0.327291	0.192669
O187	O	1.161406	-0.774299	-0.273896
O188	O	1.494739	-0.440966	0.059437
O189	O	1.828073	-0.107633	0.392771
H190	H	1.148841	-0.789103	-0.212276
H191	H	1.482174	-0.455770	0.121058
H192	H	1.815508	-0.122436	0.454391
O193	O	0.483984	-0.452571	-0.482247
O194	O	0.817317	-0.119237	-0.148913
O195	O	1.150650	0.214096	0.184420
H196	H	0.523620	-0.485355	-0.517066
H197	H	0.856953	-0.152022	-0.183732
H198	H	1.190286	0.181312	0.149601
O199	O	0.965607	-0.774301	-0.482384
O200	O	1.298940	-0.440968	-0.149051
O201	O	1.632273	-0.107634	0.184282
H202	H	0.932863	-0.813933	-0.517262
H203	H	1.266196	-0.480600	-0.183928
H204	H	1.599530	-0.147266	0.149405
H205	H	0.978207	-0.269070	-0.677764
H206	H	1.311540	0.064263	-0.344430
H207	H	1.644874	0.397597	-0.011097
H208	H	0.633576	-0.440051	-0.469053
H209	H	0.966909	-0.106718	-0.135720
H210	H	1.300242	0.226616	0.197613
H211	H	0.978226	-0.269045	-0.826482
H212	H	1.311560	0.064288	-0.493149
H213	H	1.644893	0.397622	-0.159815
O214	O	0.965826	-0.256567	-0.919769
O215	O	1.299160	0.076766	-0.586436
O216	O	1.632493	0.410099	-0.253103
H217	H	0.933122	-0.223824	-0.962050
H218	H	1.266455	0.109509	-0.628717
H219	H	1.599788	0.442842	-0.295384
H220	H	0.978278	-0.268975	-1.079339
H221	H	1.311612	0.064359	-0.746005
H222	H	1.644945	0.397692	-0.412672
H223	H	1.148965	-0.439780	-1.079294
H224	H	1.482299	-0.106447	-0.745961
H225	H	1.815632	0.226886	-0.412628
H226	H	1.148945	-0.439815	-0.930567
H227	H	1.482278	-0.106482	-0.597234
H228	H	1.815611	0.226851	-0.263900
H229	H	0.633589	-0.269075	-0.287213
H230	H	0.966922	0.064258	0.046120
H231	H	1.300255	0.397591	0.379453
O232	O	1.161350	-0.452290	-0.837268
O233	O	1.494684	-0.118957	-0.503934
O234	O	1.828017	0.214377	-0.170601
H235	H	1.198824	-0.419349	-0.874623
H236	H	1.532157	-0.086015	-0.541290
H237	H	1.865491	0.247318	-0.207956
