data_functionalizedCrystal
_audit_creation_method	'MofGen! by Chris Wilmer'
_symmetry_space_group_name_H-M	'P1'
_symmetry_Int_Tables_number	1
_symmetry_cell_setting	triclinic
loop_
_symmetry_equiv_pos_as_xyz
  x,y,z
_cell_length_a	14.971486
_cell_length_b	14.853567
_cell_length_c	14.048226
_cell_angle_alpha	89.997365
_cell_angle_beta	89.998499
_cell_angle_gamma	83.624529
loop_
_atom_site_label
_atom_site_type_symbol
_atom_site_fract_x
_atom_site_fract_y
_atom_site_fract_z
O1	O	1.186968	0.117488	-0.079043
O2	O	0.926571	0.131557	-0.079068
O3	O	1.063725	-0.006709	-0.079058
O4	O	1.049814	0.255753	-0.079053
O5	O	1.063709	-0.006717	0.079264
O6	O	0.926554	0.131549	0.079253
O7	O	1.186952	0.117479	0.079278
Zn8	Zn	1.056750	0.124513	0.104403
Zn9	Zn	1.056772	0.124524	-0.104192
O10	O	1.049797	0.255745	0.079268
C11	C	0.893238	0.130924	0.000089
C12	C	0.793940	0.129038	0.000080
C13	C	0.736730	0.210265	0.000082
C14	C	0.643430	0.208488	0.000096
C15	C	0.607342	0.125483	0.000101
C16	C	0.664560	0.044249	0.000101
C17	C	0.757858	0.046027	0.000094
C18	C	0.470097	0.040549	0.000114
C19	C	0.376793	0.038771	0.000120
C20	C	0.355669	0.203010	0.000117
C21	C	0.448967	0.204788	0.000110
C22	C	0.506178	0.123554	0.000108
C23	C	1.063087	-0.040301	0.000100
C24	C	1.061198	-0.140385	0.000092
C25	C	0.971740	-0.552902	0.000101
C26	C	1.134683	-0.574213	0.000117
C27	C	1.136459	-0.480180	0.000111
C28	C	1.055874	-0.422503	0.000102
C29	C	0.973514	-0.458860	0.000099
C30	C	1.218818	-0.443816	0.000125
C31	C	1.220597	-0.349777	0.000120
C32	C	1.140012	-0.292099	0.000104
C33	C	1.057648	-0.328461	0.000100
C34	C	0.977064	-0.270784	0.000091
C35	C	0.894699	-0.307144	0.000079
C36	C	0.892928	-0.401181	0.000083
C37	C	1.141782	-0.198061	0.000101
C38	C	0.978837	-0.176741	0.000088
C39	C	1.220285	0.118113	0.000119
C40	C	1.319582	0.119998	0.000123
C41	C	1.050436	0.289338	0.000108
C42	C	1.052325	0.389421	0.000110
N43	N	1.056742	0.124505	0.246764
N44	N	1.056788	0.124524	-0.246553
C45	C	1.117493	0.063306	0.296586
C46	C	1.117499	0.063306	0.396244
C47	C	1.056758	0.124509	0.446077
C48	C	0.996000	0.185711	0.396247
C49	C	0.995991	0.185706	0.296592
C50	C	0.996026	0.185717	0.603962
C51	C	0.996036	0.185723	0.703624
C52	C	1.117535	0.063317	0.703614
C53	C	1.117525	0.063312	0.603958
C54	C	1.056768	0.124515	0.554135
H55	H	0.635171	-0.023335	0.000119
N56	N	0.337855	-0.050747	0.000133
H57	H	0.358704	-0.086348	-0.058553
H58	H	0.358714	-0.086265	0.058866
H59	H	1.287664	-0.320181	0.000128
H60	H	1.166989	0.013480	0.563384
H61	H	0.825871	-0.430795	0.000075
H62	H	0.596852	0.274632	0.000098
N63	N	0.930511	0.251722	0.757373
H64	H	0.939740	0.242437	0.828064
H65	H	0.940903	0.315700	0.739949
N66	N	1.230606	-0.158842	0.000123
H67	H	1.281386	-0.209649	0.000135
H68	H	1.234903	-0.120291	-0.058570
N69	N	0.930493	0.251723	0.550221
H70	H	0.892016	0.290499	0.596910
H71	H	0.964779	0.291634	0.508864
H72	H	0.946539	0.235540	0.436827
H73	H	1.167004	0.013483	0.744185
H74	H	1.166959	0.013471	0.256018
H75	H	0.946520	0.235539	0.256027
H76	H	0.766104	0.277858	0.000078
N77	N	1.221590	-0.636424	0.000138
H78	H	1.224490	-0.675919	-0.058547
H79	H	1.273986	-0.599063	0.000177
H80	H	0.904681	-0.582511	0.000088
N81	N	0.819561	-0.041586	0.000088
H82	H	0.858742	-0.044509	-0.058602
H83	H	0.858683	-0.044458	0.058816
H84	H	1.284425	-0.490782	0.000141
H85	H	1.166967	0.013473	0.436809
H86	H	0.478346	0.272378	0.000097
H87	H	0.829087	-0.260172	0.000079
H88	H	0.913214	-0.129786	0.000077
H89	H	0.309082	0.269154	0.000122
N90	N	0.531807	-0.047065	0.000119
H91	H	0.494790	-0.099919	0.000120
H92	H	0.570974	-0.049901	-0.058576
