data_functionalizedCrystal
_audit_creation_method	'MofGen! by Chris Wilmer'
_symmetry_space_group_name_H-M	'P1'
_symmetry_Int_Tables_number	1
_symmetry_cell_setting	triclinic
loop_
_symmetry_equiv_pos_as_xyz
  x,y,z
_cell_length_a	15.298206
_cell_length_b	18.101396
_cell_length_c	15.296720
_cell_angle_alpha	80.356683
_cell_angle_beta	110.778255
_cell_angle_gamma	99.624972
loop_
_atom_site_label
_atom_site_type_symbol
_atom_site_fract_x
_atom_site_fract_y
_atom_site_fract_z
Zn1	Zn	1.330459	0.523311	-0.279403
Zn2	Zn	1.830459	1.023311	0.220597
Zn3	Zn	1.357243	0.628875	-0.123912
Zn4	Zn	1.857243	1.128875	0.376088
Zn5	Zn	1.201885	0.486834	-0.150859
Zn6	Zn	1.701885	0.986834	0.349141
Zn7	Zn	1.174886	0.628864	-0.306332
Zn8	Zn	1.674886	1.128864	0.193668
O9	O	1.266118	0.566971	-0.215127
O10	O	1.766118	1.066971	0.284873
O11	O	1.464137	0.552585	-0.236230
O12	O	1.964137	1.052585	0.263770
O13	O	1.359144	0.594772	0.002653
O14	O	1.859144	1.094772	0.502653
O15	O	1.219031	0.388054	-0.167919
O16	O	1.719031	0.888054	0.332081
O17	O	1.483816	0.630143	-0.121991
O18	O	1.983816	1.130143	0.378009
O19	O	1.313493	0.414853	-0.262359
O20	O	1.813493	0.914853	0.237641
O21	O	1.245003	0.490415	-0.017146
O22	O	1.745003	0.990415	0.482854
O23	O	1.068178	0.490404	-0.194031
O24	O	1.568178	0.990404	0.305969
O25	O	1.173014	0.630123	-0.432899
O26	O	1.673014	1.130123	0.067101
O27	O	1.048342	0.594753	-0.308255
O28	O	1.548342	1.094753	0.191745
O29	O	1.287313	0.552574	-0.413115
O30	O	1.787313	1.052574	0.086885
O31	O	1.332963	0.732493	-0.148102
O32	O	1.832963	1.232493	0.351898
O33	O	1.198986	0.732485	-0.282125
O34	O	1.698986	1.232485	0.217875
C35	C	1.024520	0.538619	-0.256990
C36	C	1.524520	1.038619	0.243010
C37	C	0.921159	0.526511	-0.274921
C38	C	1.421159	1.026511	0.225079
C39	C	0.862344	0.480527	-0.342920
C40	C	1.362344	0.980527	0.157080
C41	C	0.765231	0.469143	-0.359770
C42	C	1.265231	0.969143	0.140230
C43	C	0.726923	0.503748	-0.308627
C44	C	1.226923	1.003748	0.191373
C45	C	0.785737	0.549737	-0.240631
C46	C	1.285737	1.049737	0.259369
C47	C	0.882860	0.561117	-0.223775
C48	C	1.382860	1.061117	0.276225
C49	C	0.747439	0.584337	-0.189481
C50	C	1.247439	1.084337	0.310519
C51	C	0.806253	0.630327	-0.121485
C52	C	1.306253	1.130327	0.378515
C53	C	0.903367	0.641705	-0.104633
C54	C	1.403367	1.141705	0.395367
C55	C	0.941675	0.607101	-0.155775
C56	C	1.441675	1.107101	0.344225
C57	C	0.650316	0.572958	-0.206338
C58	C	1.150316	1.072958	0.293662
C59	C	0.670832	0.653547	-0.087192
C60	C	1.170832	1.153547	0.412808
C61	C	0.767945	0.664931	-0.070343
C62	C	1.267945	1.164931	0.429657
C63	C	1.265973	0.759361	-0.215128
C64	C	1.765973	1.259361	0.284872
C65	C	1.265991	0.841680	-0.215145
C66	C	1.765991	1.341680	0.284855
C67	C	1.266147	1.140797	-0.215170
C68	C	1.766147	1.640797	0.284830
C69	C	1.181992	1.109538	-0.299642
C70	C	1.681992	1.609538	0.200358
C71	C	1.181701	1.023855	-0.299473
C72	C	1.681701	1.523855	0.200527
C73	C	1.266069	0.992402	-0.215158
C74	C	1.766069	1.492402	0.284842
C75	C	1.256508	1.008928	-0.121743
C76	C	1.756508	1.508928	0.378257
C77	C	1.255960	1.094569	-0.122258
C78	C	1.755960	1.594569	0.377742
C79	C	1.360173	1.123627	-0.223222
C80	C	1.860173	1.623627	0.276778
C81	C	1.359234	1.038162	-0.225469
C82	C	1.859234	1.538162	0.274531
C83	C	1.266028	0.908535	-0.215145
C84	C	1.766028	1.408535	0.284855
C85	C	1.266187	1.224663	-0.215177
C86	C	1.766187	1.724663	0.284823
C87	C	1.508660	0.595434	-0.173100
C88	C	2.008660	1.095434	0.326900
C89	C	1.612017	0.607563	-0.155191
C90	C	2.112017	1.107563	0.344809
C91	C	1.224164	0.595416	-0.457694
C92	C	1.724164	1.095416	0.042306
C93	C	1.206285	0.607538	-0.561062
C94	C	1.706285	1.107538	-0.061062
C95	C	1.266252	1.373832	-0.215150
C96	C	1.766252	1.873832	0.284850
C97	C	1.266225	1.291518	-0.215184
C98	C	1.766225	1.791518	0.284816
C99	C	1.393933	0.480210	-0.811234
C100	C	1.893933	0.980210	-0.311234
C101	C	1.410737	0.468823	-0.714114
C102	C	1.910737	0.968823	-0.214114
C103	C	1.359625	0.503501	-0.675846
C104	C	1.859625	1.003501	-0.175846
C105	C	1.291707	0.549568	-0.734708
C106	C	1.791707	1.049568	-0.234708
C107	C	1.274907	0.560960	-0.831837
C108	C	1.774907	1.060960	-0.331837
C109	C	1.240599	0.584251	-0.696449
C110	C	1.740599	1.084251	-0.196449
C111	C	1.172682	0.630318	-0.755311
C112	C	1.672682	1.130318	-0.255311
C113	C	1.155884	0.641708	-0.852430
C114	C	1.655884	1.141708	-0.352430
C115	C	1.206996	0.607030	-0.890698
C116	C	1.706996	1.107030	-0.390698
C117	C	1.257399	0.572858	-0.599320
C118	C	1.757399	1.072858	-0.099320
C119	C	1.138374	0.653608	-0.619922
C120	C	1.638374	1.153608	-0.119922
C121	C	1.121570	0.664995	-0.717043
C122	C	1.621570	1.164995	-0.217043
C123	C	1.307963	0.538589	0.026506
C124	C	1.807963	1.038589	0.526506
C125	C	1.326022	0.526280	0.129905
C126	C	1.826022	1.026280	0.629905
H127	H	0.815845	0.702376	-0.014980
H128	H	1.315845	1.202376	0.485020
H129	H	1.366752	1.028618	-0.294134
H130	H	1.866752	1.528618	0.205866
F131	F	1.483017	0.419798	-0.651476
F132	F	1.983017	0.919798	-0.151476
H133	H	1.422664	1.143976	-0.161490
H134	H	1.922664	1.643976	0.338510
F135	F	0.587732	0.524014	-0.278702
F136	F	1.087732	1.024014	0.221298
F137	F	0.623565	0.491632	-0.326563
F138	F	1.123565	0.991632	0.173437
H139	H	1.185796	1.140577	-0.369707
H140	H	1.685796	1.640577	0.130293
H141	H	1.187732	1.103680	-0.113457
H142	H	1.687732	1.603680	0.386543
F143	F	1.448329	0.443317	-0.851967
F144	F	1.948329	0.943317	-0.351967
F145	F	0.630067	0.690376	-0.032755
F146	F	1.130067	1.190376	0.467245
F147	F	1.083977	0.690521	-0.579200
F148	F	1.583977	1.190521	-0.079200
F149	F	1.189119	0.619150	-0.994064
F150	F	1.689119	1.119150	-0.494064
H151	H	0.951253	0.679145	-0.049258
H152	H	1.451253	1.179145	0.450742
F153	F	1.083613	0.690748	-0.915070
F154	F	1.583613	1.190748	-0.415070
F155	F	0.702644	0.420202	-0.432135
F156	F	1.202644	0.920202	0.067865
H157	H	1.373311	0.494227	-0.596766
H158	H	1.873311	0.994227	-0.096766
H159	H	1.316628	0.988012	-0.057833
H160	H	1.816628	1.488012	0.442167
F161	F	1.168416	0.966751	-0.109566
F162	F	1.668416	1.466751	0.390434
H163	H	1.372193	1.156264	-0.289284
H164	H	1.872193	1.656264	0.210716
H165	H	1.185717	1.013275	-0.369272
H166	H	1.685717	1.513275	0.130728
F167	F	1.443753	1.011322	-0.149142
F168	F	1.943753	1.511322	0.350858
H169	H	0.893545	0.452353	-0.384549
H170	H	1.393545	0.952353	0.115451
F171	F	1.045034	0.619218	-0.137851
F172	F	1.545034	1.119218	0.362149
F173	F	1.329680	0.523832	-0.536686
F174	F	1.829680	1.023832	-0.036686
F175	F	1.090979	1.124137	-0.294617
F176	F	1.590979	1.624137	0.205383
F177	F	1.333796	1.120782	-0.038382
F178	F	1.833796	1.620782	0.461618
H179	H	1.066270	0.702503	-0.764981
H180	H	1.566270	1.202503	-0.264981
H181	H	1.111669	0.992927	-0.295482
H182	H	1.611669	1.492927	0.204518
