data_functionalizedCrystal
_audit_creation_method	'MofGen! by Chris Wilmer'
_symmetry_space_group_name_H-M	'P1'
_symmetry_Int_Tables_number	1
_symmetry_cell_setting	triclinic
loop_
_symmetry_equiv_pos_as_xyz
  x,y,z
_cell_length_a	10.723024
_cell_length_b	10.723022
_cell_length_c	14.048226
_cell_angle_alpha	89.994758
_cell_angle_beta	89.993860
_cell_angle_gamma	84.467548
loop_
_atom_site_label
_atom_site_type_symbol
_atom_site_fract_x
_atom_site_fract_y
_atom_site_fract_z
O1	O	1.657191	0.175030	-0.079152
O2	O	1.294038	0.191783	-0.079155
O3	O	1.483992	0.001830	-0.079150
O4	O	1.467237	0.364983	-0.079157
O5	O	1.483969	0.001819	0.079172
O6	O	1.294015	0.191772	0.079166
O7	O	1.657168	0.175019	0.079170
Zn8	Zn	1.475588	0.183393	0.104305
Zn9	Zn	1.475618	0.183409	-0.104290
O10	O	1.467214	0.364972	0.079164
C11	C	1.247527	0.190558	0.000005
C12	C	1.108973	0.186911	0.000004
C13	C	1.482762	-0.044675	0.000010
C14	C	1.479115	-0.183229	0.000006
C15	C	1.033990	0.293199	0.000002
C16	C	0.890786	0.289431	0.000000
C17	C	1.369575	-0.231790	0.000004
C18	C	1.365803	-0.374993	0.000000
C19	C	1.703679	0.176243	0.000007
C20	C	1.842233	0.179891	0.000002
C21	C	1.468444	0.411477	0.000003
C22	C	1.472091	0.550031	-0.000000
N23	N	1.475576	0.183382	0.246666
N24	N	1.475640	0.183410	-0.246651
C25	C	1.559715	0.099306	0.296486
C26	C	1.559723	0.099306	0.396144
C27	C	1.475598	0.183388	0.445979
C28	C	1.391450	0.267468	0.396152
C29	C	1.391437	0.267462	0.296496
C30	C	1.391487	0.267477	0.603866
C31	C	1.391501	0.267486	0.703529
C32	C	1.559773	0.099322	0.703514
C33	C	1.559759	0.099315	0.603858
C34	C	1.475613	0.183397	0.554037
H35	H	1.075811	0.386984	0.000005
O36	O	1.641510	0.017774	0.248016
C37	C	1.719042	0.085257	0.190302
H38	H	1.722073	0.183685	0.220320
H39	H	1.817767	0.035189	0.189122
H40	H	1.679984	0.091464	0.114795
O41	O	1.641634	0.017597	0.751756
C42	C	1.715869	-0.056629	0.686401
H43	H	1.717694	-0.005453	0.615357
H44	H	1.815368	-0.074740	0.715178
H45	H	1.674576	-0.149712	0.675819
O46	O	1.309555	0.349016	0.444519
C47	C	1.185854	0.327612	0.420174
H48	H	1.184396	0.227691	0.392789
H49	H	1.123361	0.341391	0.485722
H50	H	1.149776	0.396443	0.362328
O51	O	0.813980	0.398023	-0.000172
C52	C	0.837280	0.468002	-0.082156
H53	H	0.881290	0.402553	-0.139465
H54	H	0.745313	0.517149	-0.109683
H55	H	0.904074	0.540889	-0.063617
H56	H	1.570103	-0.247672	0.000010
O57	O	0.919211	0.071412	-0.000123
C58	C	0.995331	0.066686	-0.082132
H59	H	1.002640	0.165817	-0.109471
H60	H	1.092805	0.021153	-0.063691
H61	H	0.952104	0.009269	-0.139547
H62	H	1.272016	-0.416805	-0.000007
H63	H	1.628234	0.030844	0.436707
O64	O	1.260902	-0.155101	0.000042
C65	C	1.158319	-0.228057	0.000011
H66	H	1.189037	-0.324964	0.029985
H67	H	1.079929	-0.180629	0.045972
H68	H	1.123040	-0.237571	-0.075946
O69	O	1.641174	0.017333	0.555451
C70	C	1.573442	-0.060262	0.498001
H71	H	1.476345	-0.011220	0.482983
H72	H	1.625329	-0.079933	0.427956
H73	H	1.563884	-0.152377	0.536607
O74	O	1.059299	0.074911	0.000046
C75	C	1.156823	-0.023184	0.000022
H76	H	1.245601	0.012426	0.029996
H77	H	1.128817	-0.103554	0.045987
H78	H	1.174910	-0.057746	-0.075933
H79	H	1.565883	-0.408165	-0.000033
O80	O	1.309726	0.348979	0.752051
C81	C	1.232184	0.281422	0.809701
H82	H	1.281073	0.184229	0.824619
H83	H	1.212901	0.333319	0.879783
H84	H	1.139877	0.272089	0.771319
H85	H	1.322961	0.335942	0.563306
O86	O	1.309833	0.349310	0.248140
C87	C	1.331148	0.473033	0.272490
H88	H	1.431064	0.474562	0.299867
H89	H	1.317316	0.535525	0.206946
H90	H	1.262302	0.509058	0.330343
