data_functionalizedCrystal
_audit_creation_method	'MofGen! by Chris Wilmer'
_symmetry_space_group_name_H-M	'P1'
_symmetry_Int_Tables_number	1
_symmetry_cell_setting	triclinic
loop_
_symmetry_equiv_pos_as_xyz
  x,y,z
_cell_length_a	10.723024
_cell_length_b	15.995350
_cell_length_c	9.798715
_cell_angle_alpha	89.999084
_cell_angle_beta	89.996609
_cell_angle_gamma	83.980122
loop_
_atom_site_label
_atom_site_type_symbol
_atom_site_fract_x
_atom_site_fract_y
_atom_site_fract_z
O1	O	1.655689	0.117435	-0.113475
O2	O	1.292393	0.128675	-0.113479
O3	O	1.483972	0.001224	-0.113475
O4	O	1.464110	0.244886	-0.113478
O5	O	1.483958	0.001224	0.113507
O6	O	1.292379	0.128675	0.113503
O7	O	1.655675	0.117434	0.113507
Zn8	Zn	1.474025	0.123055	0.149544
Zn9	Zn	1.474044	0.123055	-0.149515
O10	O	1.464096	0.244885	0.113504
C11	C	1.245897	0.127857	0.000012
C12	C	1.107374	0.125410	0.000010
C13	C	1.483144	-0.029975	0.000013
C14	C	1.480682	-0.122940	0.000005
C15	C	1.031482	0.196725	0.000008
C16	C	0.888310	0.194197	0.000007
C17	C	1.471842	-0.460738	0.000010
C18	C	1.335403	-0.414088	-0.000501
C19	C	1.337865	-0.317383	0.000011
C20	C	1.476227	-0.293152	0.000007
C21	C	1.543515	-0.333843	0.129623
C22	C	1.540088	-0.430499	0.129732
C23	C	1.542922	-0.430840	-0.128390
C24	C	1.542890	-0.333895	-0.130103
C25	C	1.478712	-0.198441	0.000010
C26	C	1.469360	-0.555450	0.000016
C27	C	1.702171	0.118252	0.000014
C28	C	1.840694	0.120700	0.000007
C29	C	1.464924	0.276085	0.000013
C30	C	1.467386	0.369049	0.000011
N31	N	1.474021	0.123054	0.353643
N32	N	1.474057	0.123049	-0.353615
C33	C	1.554463	0.069305	0.421422
C34	C	1.554483	0.069302	0.578584
H35	H	1.072501	0.259651	0.000015
H36	H	1.405188	0.169072	0.588108
C37	C	1.380994	0.185217	0.432431
N38	N	1.310923	0.232039	0.491772
H39	H	1.066355	0.062483	-0.000024
C40	C	1.261727	-0.439555	-0.126063
N41	N	1.206232	-0.458745	-0.220637
C42	C	1.266398	-0.279394	-0.125506
N43	N	1.212559	-0.250783	-0.220045
H44	H	0.823099	0.255248	-0.000000
H45	H	1.281106	-0.433994	0.091931
H46	H	1.284604	-0.289825	0.093082
H47	H	1.643790	-0.317954	-0.137932
H48	H	1.491009	-0.449082	0.226625
C49	C	1.675411	-0.473289	0.137694
N50	N	1.777335	-0.505515	0.143700
C51	C	0.928781	0.038216	0.000012
N52	N	0.995138	-0.023911	0.000020
C53	C	1.680833	-0.313955	0.136154
N54	N	1.784258	-0.298968	0.141076
C55	C	1.480357	-0.295872	0.259937
N56	N	1.432777	-0.267273	0.358087
H57	H	1.498320	-0.451636	-0.226631
C58	C	1.678819	-0.472972	-0.129577
N59	N	1.781172	-0.504711	-0.130462
C60	C	1.476491	-0.297417	-0.259647
N61	N	1.426466	-0.269944	-0.357217
C62	C	1.647464	0.007125	0.342634
N63	N	1.717509	-0.039715	0.283293
H64	H	1.623357	0.023288	0.636871
