data_functionalizedCrystal
_audit_creation_method	'MofGen! by Chris Wilmer'
_symmetry_space_group_name_H-M	'P1'
_symmetry_Int_Tables_number	1
_symmetry_cell_setting	triclinic
loop_
_symmetry_equiv_pos_as_xyz
  x,y,z
_cell_length_a	14.044220
_cell_length_b	15.944551
_cell_length_c	12.503572
_cell_angle_alpha	93.522593
_cell_angle_beta	86.164750
_cell_angle_gamma	88.343808
loop_
_atom_site_label
_atom_site_type_symbol
_atom_site_fract_x
_atom_site_fract_y
_atom_site_fract_z
O1	O	1.263178	0.198062	-0.089210
O2	O	0.987210	0.190753	-0.089237
O3	O	1.132730	0.072697	-0.089213
O4	O	1.117659	0.316117	-0.089234
O5	O	1.121786	0.081592	0.089427
O6	O	0.976267	0.199647	0.089403
O7	O	1.252235	0.206956	0.089430
Cu8	Cu	1.113251	0.204114	0.105728
Cu9	Cu	1.126194	0.193595	-0.105535
O10	O	1.106715	0.325012	0.089406
C11	C	0.946424	0.192001	0.000079
C12	C	0.841198	0.182459	0.000069
C13	C	0.648534	0.165017	0.000092
C14	C	0.590906	0.232688	0.000091
C15	C	0.483701	0.222983	0.000104
C16	C	0.755749	0.174721	0.000079
C17	C	1.126632	0.045804	0.000107
C18	C	1.124756	-0.047583	0.000107
C19	C	1.030073	-0.269530	0.000083
C20	C	1.068645	-0.322870	0.088168
C21	C	1.121363	-0.218563	0.000099
C22	C	1.079457	-0.331621	-0.087957
C23	C	1.118079	-0.383722	0.000086
C24	C	1.159956	-0.270669	0.088256
C25	C	1.170759	-0.279418	-0.087948
C26	C	1.209396	-0.332734	0.000158
C27	C	1.123252	-0.123419	0.000107
C28	C	1.116197	-0.478865	0.000085
C29	C	1.293021	0.205708	0.000111
C30	C	1.398247	0.215249	0.000114
C31	C	1.112813	0.351905	0.000083
C32	C	1.114689	0.445291	0.000076
N33	N	1.104155	0.211512	0.254318
N34	N	1.135297	0.186191	-0.254126
C35	C	1.090774	0.222403	0.473431
C36	C	1.148675	0.175303	0.526768
C37	C	1.141230	0.181362	0.648690
C38	C	1.098218	0.216344	0.351498
H39	H	0.617360	0.099799	0.000104
H40	H	1.035617	0.267275	0.519330
C41	C	0.927704	-0.232186	0.000185
C42	C	0.910742	-0.136391	-0.000748
C43	C	0.808376	-0.099045	-0.000641
C44	C	0.722970	-0.157494	0.000399
C45	C	0.739929	-0.253295	0.001333
C46	C	0.842296	-0.290641	0.001225
H47	H	0.973967	-0.093118	-0.001519
H48	H	0.795822	-0.028127	-0.001332
H49	H	0.647193	-0.129849	0.000479
H50	H	0.676705	-0.296568	0.002103
H51	H	0.854849	-0.361560	0.001916
H52	H	1.203838	0.130429	0.480864
C53	C	0.633014	0.320803	0.000076
C54	C	0.741789	0.330518	0.000062
C55	C	0.783902	0.418629	0.000047
C56	C	0.717240	0.497026	0.000045
C57	C	0.608458	0.487315	0.000058
C58	C	0.566345	0.399203	0.000074
H59	H	0.791142	0.272481	0.000064
H60	H	0.864430	0.425818	0.000037
H61	H	0.748414	0.562252	0.000033
H62	H	0.559105	0.545352	0.000057
H63	H	0.485817	0.392014	0.000084
H64	H	1.025471	-0.342162	0.162629
H65	H	1.193969	-0.244078	0.162806
H66	H	1.285235	-0.360211	0.000215
C67	C	1.229041	-0.253320	-0.188542
C68	C	1.197617	-0.279372	-0.301143
C69	C	1.255889	-0.253270	-0.401747
C70	C	1.345586	-0.201117	-0.389750
C71	C	1.377015	-0.175063	-0.277144
C72	C	1.318742	-0.201164	-0.176540
H73	H	1.131213	-0.317981	-0.310028
H74	H	1.232623	-0.272558	-0.485105
H75	H	1.388723	-0.181796	-0.464223
H76	H	1.443418	-0.136453	-0.268259
H77	H	1.342008	-0.181876	-0.093182
H78	H	1.045395	-0.358298	-0.162431
