data_functionalizedCrystal
_audit_creation_method	'MofGen! by Chris Wilmer'
_symmetry_space_group_name_H-M	'P1'
_symmetry_Int_Tables_number	1
_symmetry_cell_setting	triclinic
loop_
_symmetry_equiv_pos_as_xyz
  x,y,z
_cell_length_a	10.654534
_cell_length_b	27.732048
_cell_length_c	9.130313
_cell_angle_alpha	89.990549
_cell_angle_beta	90.004310
_cell_angle_gamma	96.439470
loop_
_atom_site_label
_atom_site_type_symbol
_atom_site_fract_x
_atom_site_fract_y
_atom_site_fract_z
O1	O	-1.664999	0.067849	-0.121845
O2	O	-1.299246	0.074325	-0.121843
O3	O	-1.493482	0.000761	-0.121816
O4	O	-1.470763	0.141413	-0.121872
O5	O	-1.493469	0.000759	0.121783
O6	O	-1.299232	0.074323	0.121756
O7	O	-1.664986	0.067847	0.121754
Cu8	Cu	-1.482108	0.071085	0.143997
Cu9	Cu	-1.482123	0.071087	-0.144086
O10	O	-1.470750	0.141411	0.121727
C11	C	-1.252461	0.073850	-0.000043
C12	C	-1.113076	0.072432	-0.000041
C13	C	-1.047592	0.071764	0.132747
C14	C	-0.916628	0.070424	0.132751
C15	C	-0.916643	0.070423	-0.132834
C16	C	-1.047606	0.071759	-0.132836
C17	C	-1.492998	-0.017250	-0.000013
C18	C	-1.491562	-0.070914	-0.000001
C19	C	-1.597302	-0.409073	-0.000076
C20	C	-1.591974	-0.610765	-0.000097
O21	O	-1.688666	-0.641421	-0.000161
N22	N	-1.476800	-0.630604	-0.000095
C23	C	-1.362950	-0.600016	-0.000097
O24	O	-1.264866	-0.621518	-0.000111
C25	C	-1.368280	-0.398324	-0.000088
C26	C	-1.483461	-0.378489	-0.000075
C27	C	-1.712475	-0.389237	-0.000065
C28	C	-1.713805	-0.338817	-0.000052
C29	C	-1.599964	-0.308232	-0.000050
C30	C	-1.484792	-0.328068	-0.000061
C31	C	-1.254431	-0.367737	-0.000101
C32	C	-1.255774	-0.317311	-0.000102
C33	C	-1.370955	-0.297476	-0.000089
C34	C	-1.372281	-0.247064	-0.000047
N35	N	-1.487455	-0.227225	-0.000048
C36	C	-1.601297	-0.257810	-0.000050
C37	C	-1.360160	-0.705907	-0.000100
C38	C	-1.358828	-0.756330	-0.000100
C39	C	-1.587852	-0.767076	-0.000102
C40	C	-1.589184	-0.716652	-0.000091
C41	C	-1.475334	-0.686069	-0.000102
C42	C	-1.604083	-0.151923	-0.000021
C43	C	-1.605404	-0.101498	-0.000002
C44	C	-1.376380	-0.090756	-0.000008
C45	C	-1.375058	-0.141177	-0.000020
C46	C	-1.488920	-0.171760	-0.000031
O47	O	-1.275641	-0.216380	0.000001
O48	O	-1.699367	-0.236299	-0.000069
C49	C	-1.595972	-0.459493	-0.000089
C50	C	-1.480800	-0.479329	-0.000101
C51	C	-1.366958	-0.448745	-0.000099
C52	C	-1.479467	-0.529752	-0.000101
C53	C	-1.593308	-0.560336	-0.000102
C54	C	-1.708482	-0.540497	-0.000104
C55	C	-1.709813	-0.490077	-0.000091
C56	C	-1.251784	-0.468583	-0.000097
C57	C	-1.250463	-0.519004	-0.000109
C58	C	-1.364304	-0.549588	-0.000110
C59	C	-0.711769	0.068326	-0.000043
C60	C	-0.851150	0.069756	-0.000035
C61	C	-1.471233	0.159422	-0.000080
C62	C	-1.472669	0.213086	-0.000101
N63	N	-1.482106	0.071083	0.346620
N64	N	-1.482135	0.071086	-0.346709
C65	C	-1.568142	0.038522	0.423284
C66	C	-1.568154	0.038522	0.576621
C67	C	-1.396090	0.103648	0.576616
C68	C	-1.396073	0.103645	0.423282
H69	H	-1.699202	-0.085351	0.000012
C70	C	-1.738240	-0.025845	0.561213
C71	C	-1.662733	0.002733	0.660889
H72	H	-1.796634	-0.047939	0.613240
H73	H	-1.686309	-0.043419	0.501434
H74	H	-1.782999	-0.005559	0.501382
H75	H	-1.617966	-0.017554	0.720714
H76	H	-1.714671	0.020308	0.720694
C77	C	-1.034421	0.071622	0.395264
C78	C	-1.119561	0.072495	0.278713
H79	H	-1.078853	0.072069	0.485378
H80	H	-0.973218	0.099235	0.389735
H81	H	-0.993466	0.042964	0.389734
H82	H	-1.160509	0.101156	0.284236
H83	H	-1.180786	0.044880	0.284244
H84	H	-1.326045	0.130159	0.639050
C85	C	-1.320691	0.187058	0.376016
C86	C	-1.301499	0.139439	0.339001
H87	H	-1.262309	0.209154	0.323976
H88	H	-1.308383	0.191719	0.478294
H89	H	-1.404393	0.192599	0.350856
H90	H	-1.217799	0.133898	0.364172
H91	H	-1.313796	0.134777	0.236700
C92	C	-0.784299	0.027440	0.286857
C93	C	-0.844654	0.069687	0.278720
H94	H	-0.739874	0.026983	0.376982
H95	H	-0.726560	0.026853	0.207790
H96	H	-0.845535	-0.000169	0.281340
H97	H	-0.783416	0.097296	0.284226
H98	H	-0.902397	0.070278	0.357808
H99	H	-0.863321	0.069875	-0.240951
C100	C	-1.073026	0.113650	-0.359232
C101	C	-1.119598	0.072496	-0.278807
H102	H	-1.117479	0.114104	-0.449339
H103	H	-0.985673	0.112755	-0.378239
H104	H	-1.084363	0.142001	-0.304667
H105	H	-1.108252	0.044145	-0.333368
H106	H	-1.206972	0.073387	-0.259805
C107	C	-1.830599	-0.157467	-0.000001
C108	C	-1.729241	-0.185535	-0.000021
H109	H	-1.907863	-0.178218	0.000015
H110	H	-1.826357	-0.137573	-0.084943
H111	H	-1.826325	-0.137580	0.084955
H112	H	-1.733509	-0.205419	-0.084984
H113	H	-1.733484	-0.205437	0.084929
H114	H	-1.807598	-0.322671	-0.000047
H115	H	-1.805183	-0.414134	-0.000072
C116	C	-1.815425	-0.732351	-0.000103
C117	C	-1.715793	-0.694852	-0.000100
H118	H	-1.893590	-0.718893	-0.000122
H119	H	-1.810136	-0.751794	0.084845
H120	H	-1.810126	-0.751792	-0.085052
H121	H	-1.721087	-0.675413	0.084855
H122	H	-1.721085	-0.675400	-0.085057
H123	H	-1.680546	-0.791987	-0.000102
C124	C	-1.132585	-0.740631	-0.000110
C125	C	-1.232217	-0.778129	-0.000102
H126	H	-1.054420	-0.754088	-0.000127
H127	H	-1.137865	-0.721195	0.084836
H128	H	-1.137893	-0.721182	-0.085062
H129	H	-1.226915	-0.797576	0.084855
H130	H	-1.226934	-0.797574	-0.085057
C131	C	-1.228759	-0.642969	-0.125330
C132	C	-1.235002	-0.672295	-0.000103
H133	H	-1.151487	-0.622222	-0.125329
H134	H	-1.297521	-0.623933	-0.125321
H135	H	-1.233014	-0.662864	-0.210268
H136	H	-1.230757	-0.652400	0.084835
H137	H	-1.166221	-0.691331	-0.000099
C138	C	-1.028194	-0.352029	-0.000143
C139	C	-1.127817	-0.389531	-0.000128
H140	H	-0.950024	-0.365484	-0.000171
H141	H	-1.033471	-0.332594	0.084806
H142	H	-1.033513	-0.332580	-0.085091
H143	H	-1.122504	-0.408978	0.084826
H144	H	-1.122537	-0.408974	-0.085086
H145	H	-1.163061	-0.292412	-0.000113
C146	C	-1.148812	-0.125487	-0.000032
C147	C	-1.248451	-0.162983	-0.000036
H148	H	-1.070650	-0.138948	-0.000064
H149	H	-1.154082	-0.106056	0.084926
H150	H	-1.154119	-0.106033	-0.084972
H151	H	-1.243149	-0.182435	0.084910
H152	H	-1.243178	-0.182423	-0.085002
H153	H	-1.638194	0.012008	0.360869
H154	H	-1.283693	-0.065846	-0.000002
H155	H	-1.803606	-0.473932	-0.000081
H156	H	-1.801176	-0.565408	-0.000099
H157	H	-1.159079	-0.443686	-0.000099
C158	C	-1.024211	-0.503304	-0.000133
C159	C	-1.123842	-0.540803	-0.000128
H160	H	-0.946046	-0.516762	-0.000164
H161	H	-1.029485	-0.483871	0.084820
H162	H	-1.029525	-0.483852	-0.085077
H163	H	-1.118534	-0.560253	0.084822
H164	H	-1.118566	-0.560244	-0.085090
