data_functionalizedCrystal
_audit_creation_method	'MofGen! by Chris Wilmer'
_symmetry_space_group_name_H-M	'P1'
_symmetry_Int_Tables_number	1
_symmetry_cell_setting	triclinic
loop_
_symmetry_equiv_pos_as_xyz
  x,y,z
_cell_length_a	19.188933
_cell_length_b	27.731996
_cell_length_c	17.666332
_cell_angle_alpha	89.987533
_cell_angle_beta	89.992061
_cell_angle_gamma	82.883478
loop_
_atom_site_label
_atom_site_type_symbol
_atom_site_fract_x
_atom_site_fract_y
_atom_site_fract_z
O1	O	0.925747	0.060354	-0.062933
O2	O	1.425747	0.560354	0.437067
O3	O	0.722382	0.068477	-0.062941
O4	O	1.222382	0.568477	0.437059
O5	O	0.830400	-0.005964	-0.062921
O6	O	1.330400	0.494036	0.437079
O7	O	0.817730	0.134795	-0.062954
O8	O	1.317730	0.634795	0.437046
O9	O	0.830381	-0.005968	0.062976
O10	O	1.330381	0.494032	0.562976
O11	O	0.722364	0.068473	0.062955
O12	O	1.222364	0.568473	0.562955
O13	O	0.925729	0.060350	0.062964
O14	O	1.425729	0.560350	0.562964
Cu15	Cu	0.824044	0.064411	0.074455
Cu16	Cu	1.324044	0.564411	0.574455
Cu17	Cu	0.824067	0.064416	-0.074433
Cu18	Cu	1.324067	0.564416	0.425567
O19	O	0.817711	0.134791	0.062943
O20	O	1.317711	0.634791	0.562943
C21	C	0.696364	0.068212	0.000006
C22	C	1.196364	0.568212	0.500006
C23	C	0.618865	0.067422	0.000004
C24	C	1.118865	0.567422	0.500004
C25	C	0.065657	0.061785	-0.068613
C26	C	0.565657	0.561785	0.431387
C27	C	0.138476	0.062524	-0.068616
C28	C	0.638476	0.562524	0.431384
C29	C	0.174880	0.062894	0.000010
C30	C	0.674880	0.562894	0.500010
C31	C	0.138462	0.062512	0.068644
C32	C	0.638462	0.562512	0.568644
C33	C	0.065645	0.061768	0.068645
C34	C	0.565645	0.561768	0.568645
N35	N	0.283702	0.091568	0.051085
N36	N	0.783702	0.591568	0.551085
N37	N	0.352875	0.092276	0.051079
N38	N	0.852875	0.592276	0.551079
C39	C	0.394274	0.065136	0.000011
C40	C	0.894274	0.565136	0.500011
N41	N	0.363886	0.037267	-0.051063
N42	N	0.863886	0.537267	0.448937
N43	N	0.294706	0.036561	-0.051060
N44	N	0.794706	0.536561	0.448940
C45	C	0.253838	0.063701	0.000016
C46	C	0.753838	0.563701	0.500016
C47	C	0.509644	0.066316	-0.068623
C48	C	1.009644	0.566316	0.431377
C49	C	0.582465	0.067053	-0.068623
C50	C	1.082465	0.567053	0.431377
C51	C	0.582448	0.067045	0.068639
C52	C	1.082448	0.567045	0.568639
C53	C	0.509629	0.066304	0.068638
C54	C	1.009629	0.566304	0.568638
C55	C	0.473231	0.065942	0.000004
C56	C	0.973231	0.565942	0.500004
C57	C	0.830130	-0.023974	0.000030
C58	C	1.330130	0.476026	0.500030
C59	C	0.829346	-0.077633	0.000038
C60	C	1.329346	0.422367	0.500038
C61	C	0.824424	-0.410362	-0.068625
C62	C	1.324424	0.089638	0.431375
C63	C	0.821447	-0.612029	-0.068639
C64	C	1.321447	-0.112029	0.431361
O65	O	0.821041	-0.638099	-0.127003
O66	O	1.321041	-0.138099	0.372997
N67	N	0.821067	-0.637249	-0.000013
N68	N	1.321067	-0.137249	0.499987
C69	C	0.821427	-0.612050	0.068621
C70	C	1.321427	-0.112050	0.568621
O71	O	0.821028	-0.638128	0.126991
O72	O	1.321028	-0.138128	0.626991
C73	C	0.824399	-0.410383	0.068633
C74	C	1.324399	0.089617	0.568633
C75	C	0.824786	-0.385166	0.000003
C76	C	1.324786	0.114834	0.500003
C77	C	0.824811	-0.385144	-0.137250
C78	C	1.324811	0.114856	0.362750
C79	C	0.825559	-0.334731	-0.137246
C80	C	1.325559	0.165269	0.362754
C81	C	0.825920	-0.309535	-0.068617
C82	C	1.325920	0.190465	0.431383
C83	C	0.825534	-0.334752	0.000007
C84	C	1.325534	0.165248	0.500007
C85	C	0.824754	-0.385183	0.137266
C86	C	1.324754	0.114817	0.637266
C87	C	0.825495	-0.334763	0.137264
C88	C	1.325495	0.165237	0.637264
C89	C	0.825882	-0.309546	0.068633
C90	C	1.325882	0.190454	0.568633
C91	C	0.826644	-0.259142	0.068640
C92	C	1.326644	0.240858	0.568640
N93	N	0.827024	-0.233922	0.000014
N94	N	1.327024	0.266078	0.500014
C95	C	0.826662	-0.259118	-0.068614
C96	C	1.326662	0.240882	0.431386
C97	C	0.819868	-0.717928	0.068609
C98	C	1.319868	-0.217928	0.568609
C99	C	0.819126	-0.768344	0.068606
C100	C	1.319126	-0.268344	0.568606
C101	C	0.819145	-0.768320	-0.068654
C102	C	1.319145	-0.268320	0.431346
C103	C	0.819892	-0.717903	-0.068650
C104	C	1.319892	-0.217903	0.431350
C105	C	0.820248	-0.692707	-0.000016
C106	C	1.320248	-0.192707	0.499984
C107	C	0.828234	-0.153246	-0.068601
C108	C	1.328234	0.346754	0.431399
C109	C	0.828985	-0.102829	-0.068590
C110	C	1.328985	0.397171	0.431410
C111	C	0.828962	-0.102857	0.068669
C112	C	1.328962	0.397143	0.568669
C113	C	0.828215	-0.153270	0.068659
C114	C	1.328215	0.346730	0.568659
C115	C	0.827848	-0.178464	0.000018
C116	C	1.327848	0.321536	0.500018
O117	O	0.827043	-0.233040	0.126974
O118	O	1.327043	0.266960	0.626974
O119	O	0.827045	-0.233030	-0.126976
O120	O	1.327045	0.266970	0.373024
C121	C	0.823676	-0.460775	-0.068629
C122	C	1.323676	0.039225	0.431371
C123	C	0.823290	-0.485992	-0.000005
C124	C	1.323290	0.014008	0.499995
C125	C	0.823652	-0.460796	0.068624
C126	C	1.323652	0.039204	0.568624
C127	C	0.822548	-0.536409	-0.000008
C128	C	1.322548	-0.036409	0.499992
C129	C	0.822186	-0.561605	-0.068636
C130	C	1.322186	-0.061605	0.431364
C131	C	0.822566	-0.536385	-0.137262
C132	C	1.322566	-0.036385	0.362738
C133	C	0.823314	-0.485971	-0.137258
C134	C	1.323314	0.014029	0.362742
C135	C	0.823272	-0.486017	0.137249
C136	C	1.323272	0.013983	0.637249
C137	C	0.822525	-0.536430	0.137240
C138	C	1.322525	-0.036430	0.637240
C139	C	0.822163	-0.561626	0.068611
C140	C	1.322163	-0.061626	0.568611
C141	C	0.951747	0.060615	0.000015
C142	C	1.451747	0.560615	0.500015
C143	C	1.029246	0.061405	0.000012
C144	C	1.529246	0.561405	0.500012
C145	C	0.817981	0.152801	-0.000010
C146	C	1.317981	0.652801	0.499990
C147	C	0.818765	0.206459	-0.000022
C148	C	1.318765	0.706459	0.499978
N149	N	0.824034	0.064408	0.179174
N150	N	1.324034	0.564408	0.679174
N151	N	0.824083	0.064416	-0.179152
N152	N	1.324083	0.564416	0.320848
C153	C	0.871879	0.031461	0.218793
C154	C	1.371879	0.531461	0.718793
C155	C	0.871883	0.031459	0.298041
C156	C	1.371883	0.531459	0.798041
C157	C	0.824049	0.064411	0.337667
C158	C	1.324049	0.564411	0.837667
C159	C	0.776194	0.097360	0.298038
C160	C	1.276194	0.597360	0.798038
C161	C	0.776187	0.097358	0.218792
C162	C	1.276187	0.597358	0.718792
N163	N	0.814688	0.107202	0.462075
N164	N	1.314688	0.607202	0.962075
N165	N	0.814699	0.107202	0.537355
N166	N	1.314699	0.607202	1.037355
C167	C	0.824067	0.064418	0.576431
C168	C	1.324067	0.564418	1.076431
N169	N	0.833437	0.021632	0.537381
N170	N	1.333437	0.521632	1.037381
N171	N	0.833429	0.021632	0.462094
N172	N	1.333429	0.521632	0.962094
C173	C	0.824051	0.064417	0.423596
C174	C	1.324051	0.564417	0.923596
C175	C	0.871919	0.031466	0.701979
C176	C	1.371919	0.531466	1.201979
C177	C	0.871919	0.031463	0.781228
C178	C	1.371919	0.531463	1.281228
C179	C	0.776233	0.097369	0.781223
C180	C	1.276233	0.597369	1.281223
C181	C	0.776230	0.097368	0.701976
C182	C	1.276230	0.597368	1.201976
C183	C	0.824077	0.064417	0.662358
C184	C	1.324077	0.564417	1.162358
H185	H	0.036026	0.061488	-0.124500
H186	H	0.536026	0.561488	0.375500
H187	H	0.818852	-0.788844	-0.124534
H188	H	1.318852	-0.288844	0.375466
H189	H	0.827906	-0.173804	0.124543
H190	H	1.327906	0.326196	0.624543
Br191	Br	0.936851	-0.013257	0.835001
Br192	Br	1.436851	0.486743	1.335001
Br193	Br	0.460242	0.065822	-0.161765
Br194	Br	0.960242	0.565822	0.338235
H195	H	0.822275	-0.556909	-0.193142
H196	H	1.322275	-0.056909	0.306858
Br197	Br	0.631882	0.067560	-0.161766
Br198	Br	1.131882	0.567560	0.338234
H199	H	0.823567	-0.465507	0.193136
H200	H	1.323567	0.034493	0.693136
Br201	Br	0.936821	-0.013258	0.351819
Br202	Br	1.436821	0.486742	0.851819
H203	H	0.737225	0.124187	0.186534
H204	H	1.237225	0.624187	0.686534
H205	H	0.737282	0.124197	0.813486
H206	H	1.237282	0.624197	1.313486
H207	H	0.823629	-0.465444	-0.193144
H208	H	1.323629	0.034556	0.306856
H209	H	0.612088	0.067345	0.124516
H210	H	1.112088	0.567345	0.624516
Br211	Br	0.187901	0.063039	-0.161757
Br212	Br	0.687901	0.563039	0.338243
H213	H	0.820161	-0.697418	0.124502
H214	H	1.320161	-0.197418	0.624502
Br215	Br	0.460210	0.065796	0.161777
Br216	Br	0.960210	0.565796	0.661777
H217	H	0.737273	0.124197	0.669716
H218	H	1.237273	0.624197	1.169716
Br219	Br	0.829514	-0.068609	-0.161738
Br220	Br	1.329514	0.431391	0.338262
Br221	Br	0.936851	-0.013253	0.648210
Br222	Br	1.436851	0.486747	1.148210
Br223	Br	0.936810	-0.013258	0.165026
Br224	Br	1.436810	0.486742	0.665026
H225	H	0.168107	0.062812	0.124520
H226	H	0.668107	0.562812	0.624520
H227	H	0.737245	0.124190	0.330305
H228	H	1.237245	0.624190	0.830305
H229	H	0.829260	-0.082333	0.124545
H230	H	1.329260	0.417667	0.624545
H231	H	0.827932	-0.173752	-0.124495
H232	H	1.327932	0.326248	0.375505
Br233	Br	0.826079	-0.300515	-0.230392
Br234	Br	1.326079	0.199485	0.269608
H235	H	0.036000	0.061460	0.124530
H236	H	0.536000	0.561460	0.624530
H237	H	0.820206	-0.697375	-0.124535
H238	H	1.320206	-0.197375	0.375465
Br239	Br	0.824319	-0.419330	-0.230402
Br240	Br	1.324319	0.080670	0.269598
Br241	Br	0.824226	-0.419393	0.230414
Br242	Br	1.324226	0.080607	0.730414
Br243	Br	0.818618	-0.802563	0.161751
Br244	Br	1.318618	-0.302563	0.661751
Br245	Br	0.825976	-0.300571	0.230414
Br246	Br	1.325976	0.199429	0.730414
H247	H	0.822215	-0.556958	0.193131
H248	H	1.322215	-0.056958	0.693131
