data_functionalizedCrystal
_audit_creation_method	'MofGen! by Chris Wilmer'
_symmetry_space_group_name_H-M	'P1'
_symmetry_Int_Tables_number	1
_symmetry_cell_setting	triclinic
loop_
_symmetry_equiv_pos_as_xyz
  x,y,z
_cell_length_a	21.295420
_cell_length_b	25.639240
_cell_length_c	21.295411
_cell_angle_alpha	89.973291
_cell_angle_beta	89.975408
_cell_angle_gamma	90.028539
loop_
_atom_site_label
_atom_site_type_symbol
_atom_site_fract_x
_atom_site_fract_y
_atom_site_fract_z
Zn1	Zn	0.962345	-0.208269	-0.355890
Zn2	Zn	1.462345	0.291731	0.144110
Zn3	Zn	0.962244	-0.295689	-0.250606
Zn4	Zn	1.462244	0.204311	0.249394
Zn5	Zn	0.857069	-0.208263	-0.250635
Zn6	Zn	1.357069	0.291737	0.249365
Zn7	Zn	0.857034	-0.295669	-0.355837
Zn8	Zn	1.357034	0.204331	0.144163
O9	O	0.909673	-0.251973	-0.303242
O10	O	1.409673	0.248027	0.196758
O11	O	1.050421	-0.219877	-0.341933
O12	O	1.550421	0.280123	0.158067
O13	O	0.948264	-0.284098	-0.162520
O14	O	1.448264	0.215902	0.337480
O15	O	0.871091	-0.135099	-0.264631
O16	O	1.371091	0.364901	0.235369
O17	O	1.050347	-0.284104	-0.264582
O18	O	1.550347	0.215896	0.235418
O19	O	0.948437	-0.135103	-0.341961
O20	O	1.448437	0.364897	0.158039
O21	O	0.870992	-0.219866	-0.162541
O22	O	1.370992	0.280134	0.337459
O23	O	0.768975	-0.219847	-0.264580
O24	O	1.268975	0.280153	0.235420
O25	O	0.871032	-0.284069	-0.443934
O26	O	1.371032	0.215931	0.056066
O27	O	0.768949	-0.284063	-0.341872
O28	O	1.268949	0.215937	0.158128
O29	O	0.948404	-0.219857	-0.443972
O30	O	1.448404	0.280143	0.056028
O31	O	0.948230	-0.368852	-0.264531
O32	O	1.448230	0.131148	0.235469
O33	O	0.870933	-0.368837	-0.341844
O34	O	1.370933	0.131163	0.158156
C35	C	0.746121	-0.251953	-0.303224
C36	C	1.246121	0.248047	0.196776
C37	C	0.676153	-0.251957	-0.303231
C38	C	1.176153	0.248043	0.196769
C39	C	0.176734	-0.218608	-0.343594
C40	C	0.676734	0.281392	0.156406
C41	C	0.242476	-0.218605	-0.343594
C42	C	0.742476	0.281395	0.156406
C43	C	0.275314	-0.251989	-0.303257
C44	C	0.775314	0.248011	0.196743
C45	C	0.242404	-0.285388	-0.262928
C46	C	0.742404	0.214612	0.237072
C47	C	0.176662	-0.285395	-0.262934
C48	C	0.676662	0.214605	0.237066
N49	N	0.378503	-0.255922	-0.248136
N50	N	0.878503	0.244078	0.251864
N51	N	0.440955	-0.255912	-0.248133
N52	N	0.940955	0.244088	0.251867
C53	C	0.473388	-0.251971	-0.303238
C54	C	0.973388	0.248029	0.196762
N55	N	0.441011	-0.248030	-0.358348
N56	N	0.941011	0.251970	0.141652
N57	N	0.378554	-0.248036	-0.358351
N58	N	0.878554	0.251964	0.141649
C59	C	0.346599	-0.251985	-0.303246
C60	C	0.846599	0.248015	0.196754
C61	C	0.577576	-0.218572	-0.343567
C62	C	1.077576	0.281428	0.156433
C63	C	0.643320	-0.218572	-0.343568
C64	C	1.143320	0.281428	0.156432
C65	C	0.643246	-0.285353	-0.262897
C66	C	1.143246	0.214647	0.237103
C67	C	0.577504	-0.285356	-0.262901
C68	C	1.077504	0.214644	0.237099
C69	C	0.544673	-0.251963	-0.303236
C70	C	1.044673	0.248037	0.196764
C71	C	0.909584	-0.387815	-0.303193
C72	C	1.409584	0.112185	0.196807
C73	C	0.909604	-0.445929	-0.303193
C74	C	1.409604	0.054071	0.196807
C75	C	0.949967	-0.806256	-0.343581
C76	C	1.449967	-0.306256	0.156419
C77	C	0.949986	-0.860860	-0.343593
C78	C	1.449986	-0.360860	0.156407
O79	O	0.984199	-0.889066	-0.377882
O80	O	1.484199	-0.389066	0.122118
N81	N	0.909760	-0.888212	-0.303303
N82	N	1.409760	-0.388212	0.196697
C83	C	0.869509	-0.860956	-0.263001
C84	C	1.369509	-0.360956	0.236999
O85	O	0.835295	-0.889234	-0.228733
O86	O	1.335295	-0.389234	0.271267
C87	C	0.869488	-0.806352	-0.262992
C88	C	1.369488	-0.306352	0.237008
C89	C	0.909720	-0.779004	-0.303281
C90	C	1.409720	-0.279004	0.196719
C91	C	0.990196	-0.778908	-0.383866
C92	C	1.490196	-0.278908	0.116134
C93	C	0.990178	-0.724307	-0.383853
C94	C	1.490178	-0.224307	0.116147
C95	C	0.949931	-0.697055	-0.343553
C96	C	1.449931	-0.197055	0.156447
C97	C	0.909703	-0.724404	-0.303267
C98	C	1.409703	-0.224404	0.196733
C99	C	0.829234	-0.779098	-0.222694
C100	C	1.329234	-0.279098	0.277306
C101	C	0.829216	-0.724491	-0.222689
C102	C	1.329216	-0.224491	0.277311
C103	C	0.869448	-0.697142	-0.262978
C104	C	1.369448	-0.197142	0.237022
C105	C	0.869438	-0.642551	-0.262954
C106	C	1.369438	-0.142551	0.237046
N107	N	0.909663	-0.615200	-0.303244
N108	N	1.409663	-0.115200	0.196756
C109	C	0.949910	-0.642452	-0.343544
C110	C	1.449910	-0.142452	0.156456
C111	C	0.869556	-0.975626	-0.263024
C112	C	1.369556	-0.475626	0.236976
C113	C	0.869580	-1.030229	-0.263030
C114	C	1.369580	-0.530229	0.236970
C115	C	0.950056	-1.030130	-0.343623
C116	C	1.450056	-0.530130	0.156377
C117	C	0.950035	-0.975526	-0.343614
C118	C	1.450035	-0.475526	0.156386
C119	C	0.909782	-0.948275	-0.303315
C120	C	1.409782	-0.448275	0.196685
C121	C	0.949870	-0.527787	-0.343511
C122	C	1.449870	-0.027787	0.156489
C123	C	0.949850	-0.473181	-0.343492
C124	C	1.449850	0.026819	0.156508
C125	C	0.869372	-0.473285	-0.262902
C126	C	1.369372	0.026715	0.237098
C127	C	0.869394	-0.527886	-0.262918
C128	C	1.369394	-0.027886	0.237082
C129	C	0.909645	-0.555135	-0.303228
C130	C	1.409645	-0.055135	0.196772
O131	O	0.835241	-0.614310	-0.228684
O132	O	1.335241	-0.114310	0.271316
O133	O	0.984112	-0.614167	-0.377813
O134	O	1.484112	-0.114167	0.122187
C135	C	1.073863	-0.251993	-0.303260
C136	C	1.573863	0.248007	0.196740
C137	C	1.143831	-0.252002	-0.303268
C138	C	1.643831	0.247998	0.196732
C139	C	0.909725	-0.251962	-0.467432
C140	C	1.409725	0.248038	0.032568
C141	C	0.909747	-0.251957	-0.537400
C142	C	1.409747	0.248043	-0.037400
C143	C	0.909779	-0.115600	-0.303305
C144	C	1.409779	0.384400	0.196695
C145	C	0.909825	-0.057486	-0.303332
C146	C	1.409825	0.442514	0.196668
C147	C	0.950033	-0.218520	-0.570288
C148	C	1.450033	0.281480	-0.070288
C149	C	0.950032	-0.218497	-0.636031
C150	C	1.450032	0.281503	-0.136031
C151	C	0.909752	-0.251921	-0.668883
C152	C	1.409752	0.248079	-0.168883
C153	C	0.869459	-0.285360	-0.635987
C154	C	1.369459	0.214640	-0.135987
C155	C	0.869456	-0.285378	-0.570246
C156	C	1.369456	0.214622	-0.070246
N157	N	0.904893	-0.297659	-0.772093
N158	N	1.404893	0.202341	-0.272093
N159	N	0.904899	-0.297640	-0.834545
N160	N	1.404899	0.202360	-0.334545
C161	C	0.909756	-0.251868	-0.866958
C162	C	1.409756	0.248132	-0.366958
N163	N	0.914619	-0.206114	-0.834560
N164	N	1.414619	0.293886	-0.334560
N165	N	0.914616	-0.206133	-0.772103
N166	N	1.414616	0.293867	-0.272103
C167	C	0.909750	-0.251905	-0.740168
C168	C	1.409750	0.248095	-0.240168
C169	C	0.950043	-0.218404	-0.971131
C170	C	1.450043	0.281596	-0.471131
C171	C	0.950038	-0.218380	-1.036875
C172	C	1.450038	0.281620	-0.536875
C173	C	0.869468	-0.285247	-1.036830
C174	C	1.369468	0.214753	-0.536830
C175	C	0.869470	-0.285266	-0.971088
C176	C	1.369470	0.214734	-0.471088
C177	C	0.909761	-0.251845	-0.938242
C178	C	1.409761	0.248155	-0.438242
C179	C	0.909657	-0.251946	-0.139690
C180	C	1.409657	0.248054	0.360310
C181	C	0.909757	-0.251803	-0.069723
C182	C	1.409757	0.248197	0.430277
H183	H	0.982615	-0.450916	-0.376300
H184	H	1.482615	0.049084	0.123700
H185	H	1.022937	-0.702043	-0.416661
H186	H	1.522937	-0.202043	0.083339
Cl187	Cl	0.283684	-0.327359	-0.212221
Cl188	Cl	0.783684	0.172641	0.287779
Cl189	Cl	0.135464	-0.176633	-0.394305
Cl190	Cl	0.635464	0.323367	0.105695
Cl191	Cl	1.000691	-0.176387	-0.929836
Cl192	Cl	1.500691	0.323613	-0.429836
H193	H	0.836668	-0.312497	-0.944310
H194	H	1.336668	0.187503	-0.444310
Cl195	Cl	0.818807	-0.327417	-0.528899
Cl196	Cl	1.318807	0.172583	-0.028899
H197	H	0.269270	-0.191409	-0.376431
H198	H	0.769270	0.308591	0.123569
Cl199	Cl	0.684522	-0.327326	-0.212192
Cl200	Cl	1.184522	0.172674	0.287808
H201	H	0.982642	-0.549967	-0.376340
H202	H	1.482642	-0.049967	0.123660
H203	H	0.836825	-1.052491	-0.230216
H204	H	1.336825	-0.552491	0.269784
H205	H	0.982843	-0.191149	-1.063651
H206	H	1.482843	0.308851	-0.563651
H207	H	1.022970	-0.801091	-0.416687
H208	H	1.522970	-0.301091	0.083313
Cl209	Cl	0.818779	-0.439015	-0.212242
Cl210	Cl	1.318779	0.060985	0.287758
H211	H	0.149874	-0.312589	-0.230095
H212	H	0.649874	0.187411	0.269905
Cl213	Cl	0.778650	-0.813465	-0.172045
Cl214	Cl	1.278650	-0.313465	0.327955
Cl215	Cl	0.536300	-0.176595	-0.394274
Cl216	Cl	1.036300	0.323405	0.105726
Cl217	Cl	1.000681	-0.176502	-0.529000
Cl218	Cl	1.500681	0.323498	-0.029000
H219	H	0.670108	-0.191380	-0.376411
H220	H	1.170108	0.308620	0.123589
Cl221	Cl	0.536139	-0.327330	-0.212193
Cl222	Cl	1.036139	0.172670	0.287807
H223	H	0.982795	-0.953262	-0.376421
H224	H	1.482795	-0.453262	0.123579
Cl225	Cl	1.000669	-0.176449	-0.677384
Cl226	Cl	1.500669	0.323551	-0.177384
H227	H	0.836779	-0.953441	-0.230203
H228	H	1.336779	-0.453441	0.269797
Cl229	Cl	1.000651	-1.064400	-0.394287
Cl230	Cl	1.500651	-0.564400	0.105713
Cl231	Cl	0.778609	-0.690235	-0.172024
Cl232	Cl	1.278609	-0.190235	0.327976
H233	H	0.836638	-0.550154	-0.230107
H234	H	1.336638	-0.050154	0.269893
Cl235	Cl	0.818818	-0.327376	-0.677287
Cl236	Cl	1.318818	0.172624	-0.177287
Cl237	Cl	0.818823	-0.327261	-1.078124
Cl238	Cl	1.318823	0.172739	-0.578124
