data_functionalizedCrystal
_audit_creation_method	'MofGen! by Chris Wilmer'
_symmetry_space_group_name_H-M	'P1'
_symmetry_Int_Tables_number	1
_symmetry_cell_setting	triclinic
loop_
_symmetry_equiv_pos_as_xyz
  x,y,z
_cell_length_a	34.490303
_cell_length_b	34.489386
_cell_length_c	34.485816
_cell_angle_alpha	60.004462
_cell_angle_beta	60.008900
_cell_angle_gamma	59.994399
loop_
_atom_site_label
_atom_site_type_symbol
_atom_site_fract_x
_atom_site_fract_y
_atom_site_fract_z
O1	O	0.053846	-0.566517	0.473678
O2	O	0.020329	-0.441078	0.381663
O3	O	0.099768	-0.520436	0.381578
O4	O	-0.025592	-0.487159	0.473762
O5	O	0.126127	-0.494082	0.407849
O6	O	0.046689	-0.414724	0.407933
O7	O	0.080206	-0.540163	0.499949
Zn8	Zn	0.067632	-0.473259	0.458112
Zn9	Zn	0.032903	-0.507982	0.423499
O10	O	0.000767	-0.460805	0.500033
N11	N	0.091336	-0.449565	0.481736
N12	N	0.009203	-0.531680	0.399875
C13	C	0.142510	-0.268211	0.532817
C14	C	0.142641	-0.398441	0.662987
C15	C	0.142524	-0.398421	0.532817
C16	C	0.272762	-0.398394	0.532723
C17	C	0.156853	-0.311177	0.547124
C18	C	0.156928	-0.384109	0.620020
C19	C	0.229794	-0.384081	0.547073
C20	C	0.156863	-0.384097	0.547124
C21	C	0.124253	-0.213522	0.514606
C22	C	0.124277	-0.416652	0.514606
C23	C	0.175110	-0.365866	0.565335
C24	C	0.352285	-0.384669	0.490824
C25	C	0.401998	-0.401229	0.474223
C26	C	0.402027	-0.481671	0.504898
C27	C	0.352316	-0.465109	0.521500
C28	C	0.136220	-0.188652	0.465734
C29	C	0.119621	-0.138936	0.449181
C30	C	0.079092	-0.138961	0.530374
C31	C	0.095691	-0.188678	0.546927
C32	C	0.075398	-0.404656	0.526651
C33	C	0.058814	-0.421229	0.510091
C34	C	0.139984	-0.461794	0.469452
C35	C	0.156570	-0.445221	0.486007
C36	C	0.075593	-0.404694	0.742565
C37	C	0.059066	-0.421281	0.792280
C38	C	0.140274	-0.461856	0.792215
C39	C	0.156800	-0.445269	0.742499
C40	C	0.124458	-0.416687	0.717675
C41	C	0.327446	-0.416608	0.514460
C42	C	-0.023585	-0.564792	0.161919
C43	C	-0.023910	-0.769260	0.366530
C44	C	-0.023880	-0.564780	0.366623
C45	C	-0.228325	-0.564561	0.366222
C46	C	-0.129610	-0.597564	0.333467
C47	C	-0.056729	-0.597644	0.333613
C48	C	-0.074925	-0.615849	0.315324
C49	C	-0.088689	-0.695351	0.357144
C50	C	-0.072155	-0.745068	0.373736
C51	C	0.008283	-0.745150	0.343188
C52	C	-0.008252	-0.695435	0.326596
C53	C	-0.154529	-0.609541	0.382326
C54	C	-0.204241	-0.592916	0.398818
C55	C	-0.204114	-0.552341	0.317588
C56	C	-0.154401	-0.568966	0.301096
C57	C	-0.068707	-0.548770	0.321590
C58	C	-0.052166	-0.532225	0.338221
C59	C	-0.011669	-0.613425	0.378886
C60	C	-0.028210	-0.629972	0.362261
C61	C	-0.068581	-0.548777	0.235758
C62	C	-0.051939	-0.532234	0.186043
C63	C	-0.011379	-0.613438	0.186090
C64	C	-0.028020	-0.629981	0.235806
C65	C	-0.056622	-0.597649	0.260639
C66	C	-0.056739	-0.670537	0.333576
C67	C	-0.005614	-0.545951	0.107238
C68	C	-0.006360	-0.823943	0.385033
C69	C	-0.005995	-0.545937	0.384582
C70	C	-0.283006	-0.545971	0.383725
N71	N	0.426163	-0.449489	0.481488
O72	O	0.588601	-0.457377	0.364497
O73	O	0.588789	-0.549696	0.489801
O74	O	0.588709	-0.549485	0.410335
O75	O	0.588681	-0.457588	0.443963
O76	O	0.509731	-0.523223	0.436741
O77	O	0.509811	-0.523434	0.516207
O78	O	0.509624	-0.431115	0.390903
Zn79	Zn	0.497178	-0.473105	0.457747
Zn80	Zn	0.601234	-0.507706	0.422956
O81	O	0.509704	-0.431326	0.470368
N82	N	0.672250	-0.531322	0.399211
N83	N	0.091303	-0.114798	0.481730
O84	O	-0.025603	0.047729	0.473733
O85	O	0.099703	0.047764	0.381394
O86	O	0.020199	0.047731	0.381655
O87	O	0.053901	0.047761	0.473472
O88	O	0.046564	-0.031252	0.407974
O89	O	0.126068	-0.031219	0.407713
O90	O	0.000762	-0.031254	0.500052
Zn91	Zn	0.067601	-0.043777	0.458061
Zn92	Zn	0.032864	0.060287	0.423385
O93	O	0.080266	-0.031222	0.499791
N94	N	0.009156	0.131307	0.399717
N95	N	0.091635	-0.449614	0.816396
O96	O	0.083664	-0.566502	0.978913
O97	O	-0.008637	-0.441152	0.978954
O98	O	-0.008421	-0.520640	0.978930
O99	O	0.083448	-0.487013	0.978936
O100	O	0.017877	-0.494296	0.899950
O101	O	0.017661	-0.414807	0.899974
O102	O	0.109961	-0.540157	0.899933
Zn103	Zn	0.067986	-0.473299	0.887414
Zn104	Zn	0.033338	-0.508010	0.991473
O105	O	0.109746	-0.460669	0.899956
N106	N	0.009689	-0.531700	1.062491
C107	C	0.030367	-0.412095	0.382120
C108	C	0.128741	-0.510370	0.382016
C109	C	0.070168	-0.569147	0.499490
C110	C	-0.028207	-0.470871	0.499595
C111	C	0.549323	-0.549278	0.518791
C112	C	0.549225	-0.549017	0.420381
C113	C	0.549087	-0.431532	0.361914
C114	C	0.549188	-0.431794	0.460322
C115	C	0.128638	0.008374	0.381806
C116	C	0.030215	0.008236	0.382161
C117	C	-0.028206	0.008233	0.499608
C118	C	0.070250	0.008272	0.499285
C119	C	-0.008199	-0.412187	0.939469
C120	C	-0.007927	-0.510619	0.939425
C121	C	0.109523	-0.569121	0.939417
C122	C	0.109257	-0.470684	0.939444
H123	H	0.049253	-0.381417	0.722357
O124	O	0.143646	-0.462017	0.939418
C125	C	0.126343	-0.415338	0.939443
H126	H	0.095849	-0.392869	0.924502
H127	H	0.156077	-0.399358	0.916511
H128	H	0.113112	-0.416042	0.977337
O129	O	0.548954	-0.396967	0.318987
C130	C	0.508022	-0.385961	0.310516
H131	H	0.494429	-0.417374	0.332676
H132	H	0.517174	-0.378194	0.271250
H133	H	0.479366	-0.353417	0.320772
O134	O	0.021912	-0.369128	0.347594
C135	C	0.062702	-0.369013	0.306631
H136	H	0.095332	-0.397095	0.317040
H137	H	0.066894	-0.332569	0.288899
H138	H	0.058862	-0.377282	0.280832
H139	H	-0.037176	-0.376187	0.939482
H140	H	-0.091926	-0.522444	0.298262
H141	H	0.549182	-0.402927	0.467517
H142	H	0.164551	0.008603	0.352745
H143	H	0.019274	-0.411508	0.812539
H144	H	0.055841	-0.118733	0.556693
O145	O	0.021541	0.008193	0.347809
C146	C	-0.025140	0.008182	0.365128
H147	H	-0.037612	-0.006759	0.405578
H148	H	-0.025827	-0.014771	0.350693
H149	H	-0.049726	0.046066	0.353116
H150	H	0.549371	-0.578259	0.554780
H151	H	0.164745	-0.517463	0.353068
H152	H	0.077330	-0.605181	0.528391
O153	O	-0.042286	-0.519256	0.939361
C154	C	-0.024986	-0.565938	0.939346
H155	H	0.015463	-0.578440	0.924411
H156	H	-0.039428	-0.566607	0.916386
H157	H	-0.037004	-0.590514	0.977226
H158	H	0.138503	-0.605120	0.939399
O159	O	-0.071140	-0.462502	0.534176
C160	C	-0.071163	-0.503342	0.575095
H161	H	-0.043061	-0.535931	0.564622
H162	H	-0.107582	-0.507593	0.592861
H163	H	-0.062867	-0.499526	0.600890
O164	O	-0.071172	0.008251	0.534130
C165	C	-0.100741	0.008228	0.517063
H166	H	-0.087902	0.023174	0.476612
H167	H	-0.138779	0.031159	0.531629
H168	H	-0.099454	-0.029667	0.529147
O169	O	0.078908	0.008190	0.533718
C170	C	0.117389	-0.032703	0.544595
H171	H	0.121123	-0.061294	0.534166
H172	H	0.110729	-0.046440	0.584325
H173	H	0.151429	-0.023444	0.524092
O174	O	0.171755	-0.489630	0.816256
C175	C	0.218430	-0.496649	0.783627
H176	H	0.218308	-0.491082	0.748197
H177	H	0.242054	-0.534355	0.797966
H178	H	0.232671	-0.470187	0.778335
H179	H	0.196592	-0.455039	0.722237
O180	O	0.549216	-0.583400	0.411729
C181	C	0.549170	-0.566102	0.365058
H182	H	0.534178	-0.525652	0.352582
H183	H	0.526246	-0.580583	0.364394
H184	H	0.587047	-0.578084	0.340459
H185	H	0.019013	-0.411451	0.519888
O186	O	0.044009	-0.376833	0.554357
C187	C	0.015229	-0.335144	0.529283
H188	H	0.034397	-0.328222	0.489505
H189	H	0.007715	-0.303829	0.538179
H190	H	-0.019697	-0.339669	0.539888
O191	O	0.171420	-0.489528	0.441661
C192	C	0.218118	-0.496573	0.434595
H193	H	0.218032	-0.466601	0.440148
H194	H	0.241693	-0.496822	0.396882
H195	H	0.232390	-0.531992	0.461039
H196	H	0.196371	-0.454985	0.476195
H197	H	0.332093	-0.491119	0.540748
H198	H	0.422223	-0.375220	0.454977
O199	O	0.426112	-0.528801	0.511791
C200	C	0.393528	-0.553440	0.536203
H201	H	0.358098	-0.531760	0.556591
H202	H	0.407921	-0.589292	0.562142
H203	H	0.388217	-0.559194	0.509616
H204	H	0.332037	-0.345175	0.485091
H205	H	0.129365	-0.118686	0.409385
O206	O	0.163942	-0.212710	0.434273
C207	C	0.170950	-0.180098	0.387586
H208	H	0.140967	-0.144666	0.387697
H209	H	0.171190	-0.194459	0.363992
H210	H	0.206360	-0.174796	0.373318
H211	H	-0.061683	-0.492436	0.165791
O212	O	0.084121	-0.212800	0.594408
C213	C	0.101135	-0.200622	0.615018
H214	H	0.131781	-0.186950	0.586688
H215	H	0.114068	-0.233308	0.644320
H216	H	0.071316	-0.171762	0.630711
O217	O	-0.096336	-0.517303	0.259806
C218	C	-0.103330	-0.470619	0.227185
H219	H	-0.073325	-0.470745	0.191775
H220	H	-0.103596	-0.447026	0.241565
H221	H	-0.138723	-0.456337	0.221836
H222	H	-0.018278	-0.669778	0.256062
O223	O	0.016342	-0.644893	0.162024
C224	C	-0.008780	-0.673587	0.174115
H225	H	-0.037758	-0.674036	0.210180
H226	H	0.016706	-0.711307	0.175856
H227	H	-0.025601	-0.658622	0.146085
O228	O	-0.063731	-0.484745	0.326458
C229	C	-0.046659	-0.464135	0.276666
H230	H	-0.016000	-0.492476	0.260684
H231	H	-0.033726	-0.434861	0.267178
H232	H	-0.076443	-0.448403	0.261871
O233	O	0.016015	-0.644893	0.406723
C234	C	0.023049	-0.691577	0.413753
H235	H	-0.006900	-0.691455	0.408132
H236	H	0.023251	-0.715173	0.451477
H237	H	0.058485	-0.705854	0.387334
H238	H	-0.018458	-0.669769	0.372051
H239	H	0.017768	-0.675232	0.307405
H240	H	-0.098172	-0.765271	0.392919
O241	O	0.055399	-0.769319	0.336327
C242	C	0.081107	-0.757195	0.287257
H243	H	0.056720	-0.743505	0.266663
H244	H	0.111995	-0.789912	0.279250
H245	H	0.095396	-0.728363	0.276179
O246	O	-0.135779	-0.671183	0.363847
C247	C	-0.150915	-0.683325	0.341470
H248	H	-0.119137	-0.697032	0.312137
H249	H	-0.178248	-0.650612	0.325479
H250	H	-0.167599	-0.712149	0.368700
O251	O	-0.130520	-0.637298	0.413833
C252	C	-0.163175	-0.644310	0.460496
H253	H	-0.198590	-0.614307	0.460350
H254	H	-0.148852	-0.644585	0.484144
H255	H	-0.168490	-0.679707	0.474726
H256	H	-0.224531	-0.602667	0.438605
H257	H	-0.224299	-0.529059	0.291228
H258	H	-0.134111	-0.559208	0.261309
