data_functionalizedCrystal
_audit_creation_method	'MofGen! by Chris Wilmer'
_symmetry_space_group_name_H-M	'P1'
_symmetry_Int_Tables_number	1
_symmetry_cell_setting	triclinic
loop_
_symmetry_equiv_pos_as_xyz
  x,y,z
_cell_length_a	8.497374
_cell_length_b	19.077105
_cell_length_c	19.077068
_cell_angle_alpha	89.884684
_cell_angle_beta	92.284024
_cell_angle_gamma	92.300019
loop_
_atom_site_label
_atom_site_type_symbol
_atom_site_fract_x
_atom_site_fract_y
_atom_site_fract_z
Zn1	Zn	1.016648	1.062860	0.323110
Zn2	Zn	0.762970	1.058079	0.440586
Zn3	Zn	0.741875	0.945387	0.318369
Zn4	Zn	1.015701	0.940595	0.435851
O5	O	0.884299	1.001730	0.379479
O6	O	0.992222	1.160556	0.342659
O7	O	0.539410	1.043135	0.424372
O8	O	0.769893	0.964977	0.220667
O9	O	0.805846	1.157044	0.428968
O10	O	0.971767	1.051283	0.224150
O11	O	0.523911	0.960341	0.334579
O12	O	0.768974	0.846421	0.329988
O13	O	1.236588	0.956809	0.420898
O14	O	0.970152	0.842901	0.416301
O15	O	1.237285	1.046636	0.338067
O16	O	0.804927	1.038488	0.538289
O17	O	0.990607	0.952173	0.534810
C18	C	0.867172	0.819165	0.372117
C19	C	0.859884	0.741062	0.368984
C20	C	0.961050	0.702552	0.412519
C21	C	0.954209	0.629166	0.409566
C22	C	0.846193	0.594292	0.363082
C23	C	0.745023	0.632808	0.319542
C24	C	0.751873	0.706192	0.322492
C25	C	0.814499	0.375011	0.349430
C26	C	0.807654	0.301621	0.346485
C27	C	1.016843	0.297985	0.436509
C28	C	1.023677	0.371371	0.439457
C29	C	0.922512	0.409880	0.395915
N30	N	0.839195	0.519280	0.360064
N31	N	0.929519	0.484891	0.398930
C32	C	0.899989	0.994311	0.562047
C33	C	0.906761	0.991201	0.640152
C34	C	1.295778	1.001725	0.379480
C35	C	1.474423	1.001726	0.379487
C36	C	0.901493	1.185009	0.386870
C37	C	0.908820	1.263111	0.390020
C38	C	0.868583	1.009198	0.196199
C39	C	0.861886	1.012380	0.118097
C40	C	0.813355	1.034715	0.678636
C41	C	0.819734	1.031794	0.752025
C42	C	0.919510	0.985356	0.786928
C43	C	1.012926	0.941841	0.748439
C44	C	1.006555	0.944765	0.675052
C45	C	0.948930	0.971789	1.006221
C46	C	0.955291	0.968866	1.079613
C47	C	0.762100	1.058821	1.083193
C48	C	0.755730	1.061739	1.009804
C49	C	0.849152	1.018226	0.971322
N50	N	0.926029	0.982368	0.861943
N51	N	0.842641	1.021218	0.896309
H52	H	0.669500	0.737547	0.287037
H53	H	0.732112	0.406356	0.313981
C54	C	0.703602	1.085799	0.640248
H55	H	0.648899	1.111300	0.673682
H56	H	0.629812	1.060088	0.610573
H57	H	0.764400	1.117537	0.612817
C58	C	1.051680	0.923926	0.963896
H59	H	1.033617	0.932321	0.915190
H60	H	1.025129	0.876241	0.974065
H61	H	1.159702	0.933697	0.976312
H62	H	0.657081	0.604407	0.281691
C63	C	1.122675	0.890758	0.786831
H64	H	1.113080	0.895242	0.836050
H65	H	1.228606	0.901479	0.775191
H66	H	1.094017	0.844031	0.772944
H67	H	0.743672	1.067227	0.783355
C68	C	1.109304	0.896902	0.632720
H69	H	1.169632	0.868822	0.664017
H70	H	1.178117	0.924900	0.605140
H71	H	1.043546	0.867444	0.602895
H72	H	0.686043	1.094248	1.114533
C73	C	1.079871	0.740907	0.463651
H74	H	1.139152	0.707459	0.489151
H75	H	1.024718	0.768289	0.495377
H76	H	1.149078	0.770627	0.437965
H77	H	1.036570	0.931059	1.108030
C78	C	1.065399	0.586806	0.457498
H79	H	1.130669	0.618085	0.485623
H80	H	1.129297	0.559251	0.429556
H81	H	1.004796	0.556955	0.486909
C82	C	0.645986	1.112825	0.971415
H83	H	0.591280	1.138328	1.004847
H84	H	0.572200	1.087114	0.941739
H85	H	0.706787	1.144563	0.943985
H86	H	1.111631	0.399760	0.477312
H87	H	1.099208	0.266623	0.471957
C88	C	0.688841	0.263261	0.295346
H89	H	0.629582	0.296706	0.269831
H90	H	0.619635	0.233540	0.321024
H91	H	0.744023	0.235879	0.263624
