data_functionalizedCrystal
_audit_creation_method	'MofGen! by Chris Wilmer'
_symmetry_space_group_name_H-M	'P1'
_symmetry_Int_Tables_number	1
_symmetry_cell_setting	triclinic
loop_
_symmetry_equiv_pos_as_xyz
  x,y,z
_cell_length_a	6.817900
_cell_length_b	11.168136
_cell_length_c	11.168138
_cell_angle_alpha	92.020086
_cell_angle_beta	108.508793
_cell_angle_gamma	108.508683
loop_
_atom_site_label
_atom_site_type_symbol
_atom_site_fract_x
_atom_site_fract_y
_atom_site_fract_z
V1	V	-4.109883	-0.393710	-0.174724
O2	O	-4.069466	-0.386204	0.008377
O3	O	-4.086173	-0.391027	-0.346429
O4	O	-4.086174	-0.565415	-0.172045
O5	O	-4.069465	-0.210609	-0.167215
V6	V	-4.587113	-0.371808	-0.152822
O7	O	-4.384947	-0.441753	-0.222767
O8	O	-4.762246	-0.323765	-0.104778
O9	O	-4.387617	-0.374490	0.018883
O10	O	-4.744927	-0.379314	-0.335922
O11	O	-4.744928	-0.554909	-0.160331
O12	O	-4.387616	-0.200102	-0.155501
C13	C	-3.936381	-0.384819	-0.388287
C14	C	-3.998446	-0.383771	-0.528658
C15	C	-4.265095	-0.388208	-0.742424
C16	C	-4.200952	-0.389292	-0.597343
C17	C	-3.936381	-0.607267	-0.165841
C18	C	-3.998443	-0.747637	-0.164786
C19	C	-4.200951	-0.816329	-0.170305
C20	C	-4.265099	-0.961410	-0.169216
C21	C	-4.200752	-0.380695	0.060735
C22	C	-4.117926	-0.381752	0.201105
C23	C	-4.200751	-0.158245	-0.161709
C24	C	-4.117926	-0.017873	-0.162757
H25	H	-3.944440	-0.377021	-0.739834
O26	O	-3.847950	-0.805390	-0.158124
C27	C	-3.647220	-0.713357	-0.153238
H28	H	-3.638610	-0.614908	-0.115626
H29	H	-3.503675	-0.737462	-0.086955
H30	H	-3.637057	-0.713280	-0.253177
O31	O	-4.351182	-0.758341	-0.177128
C32	C	-4.385054	-0.699532	-0.287922
H33	H	-4.338047	-0.747698	-0.360842
H34	H	-4.566118	-0.709342	-0.330387
H35	H	-4.278393	-0.594005	-0.262130
O36	O	-4.472086	-1.032010	-0.175018
C37	C	-4.573490	-1.125806	-0.284703
H38	H	-4.441324	-1.145564	-0.315711
H39	H	-4.679422	-1.217476	-0.261960
H40	H	-4.681721	-1.090228	-0.365130
O41	O	-3.911042	-0.947549	-0.157353
C42	C	-3.870078	-0.992961	-0.263130
H43	H	-4.033436	-1.045035	-0.343326
H44	H	-3.767477	-0.909016	-0.297818
H45	H	-3.776196	-1.061550	-0.233782
O46	O	-4.471975	-0.393623	-0.812783
C47	C	-4.512985	-0.287851	-0.767402
H48	H	-4.349644	-0.207645	-0.715318
H49	H	-4.615570	-0.253176	-0.851365
H50	H	-4.606901	-0.317199	-0.698830
O51	O	-4.350956	-0.395660	-0.539296
C52	C	-4.271244	-0.286751	-0.446214
H53	H	-4.144830	-0.206089	-0.470418
H54	H	-4.414175	-0.255456	-0.444522
H55	H	-4.190274	-0.310639	-0.348436
H56	H	-3.872548	-0.378248	-0.577238
