data_functionalizedCrystal
_audit_creation_method	'MofGen! by Chris Wilmer'
_symmetry_space_group_name_H-M	'P1'
_symmetry_Int_Tables_number	1
_symmetry_cell_setting	triclinic
loop_
_symmetry_equiv_pos_as_xyz
  x,y,z
_cell_length_a	14.853567
_cell_length_b	14.853569
_cell_length_c	13.330367
_cell_angle_alpha	89.996202
_cell_angle_beta	90.003945
_cell_angle_gamma	83.635248
loop_
_atom_site_label
_atom_site_type_symbol
_atom_site_fract_x
_atom_site_fract_y
_atom_site_fract_z
O1	O	1.196370	0.117691	0.083357
O2	O	1.696370	0.617691	0.583357
O3	O	0.933911	0.131712	0.083375
O4	O	1.433911	0.631712	0.583375
O5	O	1.072150	-0.006528	0.083356
O6	O	1.572150	0.493472	0.583356
O7	O	1.058130	0.255931	0.083376
O8	O	1.558130	0.755931	0.583376
O9	O	1.072129	-0.006506	-0.083491
O10	O	1.572129	0.493494	0.416509
O11	O	0.933889	0.131734	-0.083473
O12	O	1.433889	0.631734	0.416527
O13	O	1.196349	0.117713	-0.083490
O14	O	1.696349	0.617713	0.416510
Cu15	Cu	1.065117	0.124726	-0.098716
Cu16	Cu	1.565117	0.624726	0.401284
Cu17	Cu	1.065142	0.124700	0.098600
Cu18	Cu	1.565142	0.624700	0.598600
O19	O	1.058109	0.255953	-0.083471
O20	O	1.558109	0.755953	0.416529
C21	C	0.900311	0.131088	-0.000047
C22	C	1.400311	0.631088	0.499953
C23	C	0.800228	0.129184	-0.000041
C24	C	1.300228	0.629184	0.499959
C25	C	1.071504	-0.040106	-0.000068
C26	C	1.571504	0.459894	0.499932
C27	C	1.069600	-0.140189	-0.000069
C28	C	1.569600	0.359811	0.499931
C29	C	0.387693	0.039019	-0.000070
C30	C	0.887693	0.539019	0.499930
C31	C	0.366413	0.203251	-0.000056
C32	C	0.866413	0.703251	0.499944
C33	C	0.460447	0.205041	-0.000053
C34	C	0.960447	0.705041	0.499947
C35	C	0.518108	0.123819	-0.000057
C36	C	1.018108	0.623819	0.499943
C37	C	0.481736	0.040806	-0.000064
C38	C	0.981736	0.540806	0.499936
C39	C	0.496826	0.288053	-0.000036
C40	C	0.996826	0.788053	0.499964
C41	C	0.590866	0.289846	-0.000031
C42	C	1.090866	0.789846	0.499969
C43	C	0.648529	0.208622	-0.000042
C44	C	1.148529	0.708622	0.499958
C45	C	0.612151	0.125606	-0.000050
C46	C	1.112151	0.625606	0.499950
C47	C	0.669813	0.044384	-0.000054
C48	C	1.169813	0.544384	0.499946
C49	C	0.633437	-0.038633	-0.000069
C50	C	1.133437	0.461367	0.499931
C51	C	0.539399	-0.040417	-0.000074
C52	C	1.039399	0.459583	0.499926
C53	C	0.742566	0.210407	-0.000037
C54	C	1.242566	0.710407	0.499963
C55	C	0.763855	0.046172	-0.000047
C56	C	1.263855	0.546172	0.499953
C57	C	0.986589	-0.176566	-0.000065
C58	C	1.486589	0.323434	0.499935
C59	C	1.150822	-0.197855	-0.000065
C60	C	1.650822	0.302145	0.499935
C61	C	1.149035	-0.291889	-0.000061
C62	C	1.649035	0.208111	0.499939
C63	C	1.066024	-0.328266	-0.000057
C64	C	1.566024	0.171734	0.499943
C65	C	0.984800	-0.270608	-0.000058
C66	C	1.484800	0.229392	0.499942
C67	C	1.230258	-0.349554	-0.000050
C68	C	1.730258	0.150446	0.499950
C69	C	1.228475	-0.443594	-0.000044
C70	C	1.728475	0.056406	0.499956
C71	C	1.145463	-0.479972	-0.000048
C72	C	1.645463	0.020028	0.499952
C73	C	1.064235	-0.422309	-0.000050
C74	C	1.564235	0.077691	0.499950
C75	C	0.981224	-0.458685	-0.000046
C76	C	1.481224	0.041315	0.499954
C77	C	0.899996	-0.401023	-0.000055
C78	C	1.399996	0.098977	0.499945
C79	C	0.901788	-0.306987	-0.000061
C80	C	1.401788	0.193013	0.499939
C81	C	1.143670	-0.574009	-0.000042
C82	C	1.643670	-0.074009	0.499958
C83	C	0.979435	-0.552728	-0.000038
C84	C	1.479435	-0.052728	0.499962
C85	C	1.229948	0.118337	-0.000066
C86	C	1.729948	0.618337	0.499934
C87	C	1.330032	0.120241	-0.000066
C88	C	1.830032	0.620241	0.499934
C89	C	1.058755	0.289531	-0.000045
C90	C	1.558755	0.789531	0.499955
C91	C	1.060660	0.389615	-0.000038
C92	C	1.560660	0.889615	0.499962
N93	N	1.065106	0.124744	-0.237497
N94	N	1.565106	0.624744	0.262503
C95	C	1.119898	0.179463	-0.710109
C96	C	1.619898	0.679463	-0.210109
C97	C	1.010414	0.069900	-0.710099
C98	C	1.510414	0.569900	-0.210099
C99	C	1.010400	0.069914	-0.605081
C100	C	1.510400	0.569914	-0.105081
C101	C	1.065138	0.124702	-0.552572
C102	C	1.565138	0.624702	-0.052572
C103	C	1.119889	0.179476	-0.605081
C104	C	1.619889	0.679476	-0.105081
C105	C	0.955658	0.015134	-0.552564
C106	C	1.455658	0.515134	-0.052564
C107	C	0.955643	0.015145	-0.447539
C108	C	1.455643	0.515145	0.052461
C109	C	1.010377	0.069939	-0.395028
C110	C	1.510377	0.569939	0.104972
C111	C	1.065129	0.124716	-0.447544
C112	C	1.565129	0.624716	0.052456
C113	C	1.119866	0.179504	-0.395035
C114	C	1.619866	0.679504	0.104965
C115	C	1.174614	0.234287	-0.447548
C116	C	1.674614	0.734287	0.052452
C117	C	1.174622	0.234270	-0.552570
C118	C	1.674622	0.734270	-0.052570
C119	C	1.010369	0.069955	-0.290006
C120	C	1.510369	0.569955	0.209994
C121	C	1.119857	0.179518	-0.290006
C122	C	1.619857	0.679518	0.209994
N123	N	1.065160	0.124675	0.237382
N124	N	1.565160	0.624675	0.737382
H125	H	0.810798	-0.019971	-0.000054
H126	H	1.310798	0.480029	0.499946
Br127	Br	0.338330	-0.073642	-0.000099
Br128	Br	0.838330	0.426358	0.499901
H129	H	1.209806	-0.620953	-0.000024
H130	H	1.709806	-0.120953	0.499976
Br131	Br	1.248912	0.308615	-0.623844
Br132	Br	1.748912	0.808615	-0.123844
Br133	Br	1.194139	0.253886	-0.218752
Br134	Br	1.694139	0.753886	0.281248
Br135	Br	1.263474	-0.148486	-0.000055
Br136	Br	1.763474	0.351514	0.499945
Br137	Br	0.876355	-0.098315	-0.000084
Br138	Br	1.376355	0.401685	0.499916
Br139	Br	1.194186	0.253816	-0.781372
Br140	Br	1.694186	0.753816	-0.281372
Br141	Br	1.342909	-0.300182	-0.000039
Br142	Br	1.842909	0.199818	0.499961
Br143	Br	0.936135	-0.004456	-0.781362
Br144	Br	1.436135	0.495544	-0.281362
H145	H	1.294616	-0.490536	-0.000039
H146	H	1.794616	0.009464	0.499961
Br147	Br	1.248907	0.308630	-0.376274
Br148	Br	1.748907	0.808630	0.123726
Br149	Br	0.881376	-0.059217	-0.623830
Br150	Br	1.381376	0.440783	-0.123830
H151	H	0.772179	0.277998	-0.000026
H152	H	1.272179	0.777998	0.499974
H153	H	0.680397	-0.104764	-0.000065
H154	H	1.180397	0.395236	0.499935
Br155	Br	0.881329	-0.059185	-0.376280
Br156	Br	1.381329	0.440815	0.123720
H157	H	0.835656	-0.260030	-0.000066
H158	H	1.335656	0.239970	0.499934
Br159	Br	0.936095	-0.004406	-0.218742
Br160	Br	1.436095	0.495594	0.281258
H161	H	0.911837	-0.582338	-0.000045
H162	H	1.411837	-0.082338	0.499955
Br163	Br	0.288159	0.313476	-0.000033
Br164	Br	0.788159	0.813476	0.499967
Br165	Br	0.490026	-0.153073	-0.000092
Br166	Br	0.990026	0.346927	0.499908
H167	H	0.449872	0.354179	-0.000023
H168	H	0.949872	0.854179	0.499977
Br169	Br	0.640225	0.402508	-0.000011
Br170	Br	1.140225	0.902508	0.499989
H171	H	0.832408	-0.430653	-0.000046
H172	H	1.332408	0.069347	0.499954
