data_functionalizedCrystal
_audit_creation_method	'MofGen! by Chris Wilmer'
_symmetry_space_group_name_H-M	'P1'
_symmetry_Int_Tables_number	1
_symmetry_cell_setting	triclinic
loop_
_symmetry_equiv_pos_as_xyz
  x,y,z
_cell_length_a	11.792254
_cell_length_b	11.792241
_cell_length_c	18.366186
_cell_angle_alpha	89.993644
_cell_angle_beta	89.991016
_cell_angle_gamma	84.196007
loop_
_atom_site_label
_atom_site_type_symbol
_atom_site_fract_x
_atom_site_fract_y
_atom_site_fract_z
O1	O	1.506907	0.155638	-0.060549
O2	O	1.176568	0.171656	-0.060551
O3	O	1.349754	-0.001523	-0.060545
O4	O	1.333721	0.328817	-0.060555
O5	O	1.349725	-0.001532	0.060554
O6	O	1.176539	0.171647	0.060548
O7	O	1.506878	0.155629	0.060550
Zn8	Zn	1.341703	0.163637	0.079776
Zn9	Zn	1.341743	0.163648	-0.079777
O10	O	1.333692	0.328808	0.060544
C11	C	1.134263	0.170642	-0.000001
C12	C	1.008250	0.167622	-0.000002
C13	C	0.905913	0.165168	-0.000005
C14	C	0.777527	0.162100	-0.000005
C15	C	1.348732	-0.043819	0.000004
C16	C	1.345718	-0.169832	0.000004
C17	C	1.340175	-0.400545	-0.000008
C18	C	1.343255	-0.272160	-0.000002
C19	C	1.549183	0.156643	-0.000001
C20	C	1.675196	0.159663	-0.000005
C21	C	1.334714	0.371104	-0.000007
C22	C	1.337728	0.497118	-0.000011
N23	N	1.341685	0.163628	0.188667
N24	N	1.341770	0.163648	-0.188668
C25	C	1.418397	0.086983	0.226771
C26	C	1.418405	0.086978	0.302998
C27	C	1.341710	0.163638	0.341120
C28	C	1.264984	0.240289	0.303008
C29	C	1.264971	0.240284	0.226782
C30	C	1.327476	0.266916	0.461877
C31	C	1.327497	0.266922	0.538102
C32	C	1.341743	0.163652	0.576228
C33	C	1.355992	0.060371	0.538119
C34	C	1.355980	0.060367	0.461893
C35	C	1.341715	0.163651	0.423775
C36	C	1.418467	0.086995	0.696986
C37	C	1.418466	0.086988	0.773215
C38	C	1.265051	0.240310	0.773223
C39	C	1.265046	0.240306	0.696995
C40	C	1.341760	0.163650	0.658881
H41	H	1.480860	0.024562	0.195740
H42	H	1.480931	0.024568	0.804239
H43	H	1.315855	0.351016	0.430842
H44	H	1.480875	0.024561	0.334028
H45	H	1.202536	0.302705	0.334051
H46	H	1.202501	0.302699	0.195757
H47	H	1.202600	0.302723	0.804261
O48	O	1.369773	-0.040055	0.424986
C49	C	1.398092	-0.244924	0.433037
C50	C	1.382462	-0.131280	0.474924
H51	H	1.408378	-0.318708	0.473393
H52	H	1.320205	-0.253094	0.397386
H53	H	1.477351	-0.247094	0.397315
H54	H	1.303245	-0.129031	0.510686
H55	H	1.460407	-0.123156	0.510529
H56	H	1.367592	-0.023721	0.569159
O57	O	1.493016	0.012417	0.660069
C58	C	1.645223	-0.139612	0.668104
C59	C	1.560841	-0.055232	0.710000
H60	H	1.700098	-0.194312	0.708455
H61	H	1.595929	-0.196723	0.632449
H62	H	1.702166	-0.090203	0.632385
H63	H	1.503877	-0.104548	0.745758
H64	H	1.610206	0.001879	0.745609
O65	O	1.190494	0.314880	0.660091
C66	C	1.038285	0.466905	0.668146
C67	C	1.122679	0.382530	0.710030
H68	H	0.983419	0.521607	0.708503
H69	H	1.087569	0.524016	0.632464
H70	H	0.981335	0.417493	0.632453
H71	H	1.179651	0.431850	0.745762
H72	H	1.073325	0.325420	0.745665
O73	O	1.313594	0.367344	0.575005
C74	C	1.285382	0.572215	0.566942
C75	C	1.301089	0.458568	0.525062
H76	H	1.275292	0.646000	0.526581
H77	H	1.206068	0.574519	0.602625
H78	H	1.363250	0.580259	0.602632
H79	H	1.223285	0.450449	0.489332
H80	H	1.380449	0.456314	0.489425
