data_functionalizedCrystal
_audit_creation_method	'MofGen! by Chris Wilmer'
_symmetry_space_group_name_H-M	'P1'
_symmetry_Int_Tables_number	1
_symmetry_cell_setting	triclinic
loop_
_symmetry_equiv_pos_as_xyz
  x,y,z
_cell_length_a	12.645331
_cell_length_b	11.169416
_cell_length_c	11.169409
_cell_angle_alpha	90.030874
_cell_angle_beta	90.023363
_cell_angle_gamma	90.009319
loop_
_atom_site_label
_atom_site_type_symbol
_atom_site_fract_x
_atom_site_fract_y
_atom_site_fract_z
Zn1	Zn	1.620793	-0.477743	0.678668
Zn2	Zn	2.120793	0.022257	1.178668
Zn3	Zn	1.620695	-0.678483	0.477990
Zn4	Zn	2.120695	-0.178483	0.977990
Zn5	Zn	1.443505	-0.477809	0.477990
Zn6	Zn	1.943505	0.022191	0.977990
Zn7	Zn	1.443512	-0.678379	0.678623
Zn8	Zn	1.943512	-0.178379	1.178623
O9	O	1.532126	-0.578103	0.578318
O10	O	2.032126	-0.078103	1.078318
O11	O	1.769127	-0.504387	0.652067
O12	O	2.269127	-0.004387	1.152067
O13	O	1.597147	-0.651935	0.310040
O14	O	2.097147	-0.151935	0.810040
O15	O	1.467061	-0.309851	0.504630
O16	O	1.967061	0.190149	1.004630
O17	O	1.769055	-0.651870	0.504630
O18	O	2.269055	-0.151870	1.004630
O19	O	1.597313	-0.309802	0.652067
O20	O	2.097313	0.190198	1.152067
O21	O	1.466966	-0.504500	0.310040
O22	O	1.966966	-0.004500	0.810040
O23	O	1.295159	-0.504399	0.504586
O24	O	1.795159	-0.004399	1.004586
O25	O	1.467072	-0.651692	0.846579
O26	O	1.967072	-0.151692	1.346579
O27	O	1.295164	-0.651757	0.651989
O28	O	1.795164	-0.151757	1.151989
O29	O	1.597320	-0.504286	0.846612
O30	O	2.097320	-0.004286	1.346612
O31	O	1.597153	-0.846419	0.504586
O32	O	2.097153	-0.346419	1.004586
O33	O	1.466977	-0.846342	0.651989
O34	O	1.966977	-0.346342	1.151989
C35	C	1.532084	-0.889928	0.578309
C36	C	2.032084	-0.389928	1.078309
C37	C	1.532163	-1.023328	0.578345
C38	C	2.032163	-0.523328	1.078345
C39	C	1.256696	-0.578075	0.578283
C40	C	1.756696	-0.078075	1.078283
C41	C	1.138866	-0.578092	0.578297
C42	C	1.638866	-0.078092	1.078297
C43	C	0.971264	-0.484962	0.486077
C44	C	1.471264	0.015038	0.986077
C45	C	1.093824	-0.485203	0.485670
C46	C	1.593824	0.014797	0.985670
C47	C	1.094360	-0.704527	0.543753
C48	C	1.594360	-0.204527	1.043753
C49	C	0.971761	-0.704018	0.543124
C50	C	1.471761	-0.204018	1.043124
C51	C	0.971715	-0.545989	0.705417
C52	C	1.471715	-0.045989	1.205417
C53	C	1.094320	-0.543165	0.704711
C54	C	1.594320	-0.043165	1.204711
C55	C	1.808631	-0.578133	0.578353
C56	C	2.308631	-0.078133	1.078353
C57	C	1.926461	-0.578145	0.578369
C58	C	2.426461	-0.078145	1.078369
C59	C	1.532207	-0.577970	0.891360
C60	C	2.032207	-0.077970	1.391360
C61	C	1.532242	-0.577913	1.024761
C62	C	2.032242	-0.077913	1.524761
C63	C	1.532197	-0.265061	0.578353
C64	C	2.032197	0.234939	1.078353
C65	C	1.532227	-0.131661	0.578368
C66	C	2.032227	0.368339	1.078368
C67	C	1.532106	-0.578150	0.266493
C68	C	2.032106	-0.078150	0.766493
C69	C	1.532277	-0.577868	0.133094
C70	C	2.032277	-0.077868	0.633094
H71	H	1.123914	-0.391447	0.507322
H72	H	1.623914	0.108553	1.007322
H73	H	1.123414	-0.450123	0.730759
H74	H	1.623414	0.049877	1.230759
Cl75	Cl	0.926001	-0.814845	0.642371
Cl76	Cl	1.426001	-0.314845	1.142371
Cl77	Cl	1.141656	-0.640311	0.816560
Cl78	Cl	1.641656	-0.140311	1.316560
Cl79	Cl	0.924004	-0.406125	0.753920
Cl80	Cl	1.424004	0.093875	1.253920
H81	H	0.941789	-0.390924	0.507496
H82	H	1.441789	0.109076	1.007496
H83	H	0.940417	-0.505982	0.392482
H84	H	1.440417	-0.005982	0.892482
Cl85	Cl	1.139037	-0.518014	0.340311
Cl86	Cl	1.639037	-0.018014	0.840311
H87	H	0.942744	-0.613860	0.774183
H88	H	1.442744	-0.113860	1.274183
Cl89	Cl	0.927533	-0.746112	0.399725
Cl90	Cl	1.427533	-0.246112	0.899725
H91	H	1.123538	-0.775811	0.608864
H92	H	1.623538	-0.275811	1.108864
H93	H	1.125017	-0.732262	0.451871
H94	H	1.625017	-0.232262	0.951871
