data_functionalizedCrystal
_audit_creation_method	'MofGen! by Chris Wilmer'
_symmetry_space_group_name_H-M	'P1'
_symmetry_Int_Tables_number	1
_symmetry_cell_setting	triclinic
loop_
_symmetry_equiv_pos_as_xyz
  x,y,z
_cell_length_a	18.215407
_cell_length_b	13.032721
_cell_length_c	18.215399
_cell_angle_alpha	97.154261
_cell_angle_beta	89.980650
_cell_angle_gamma	97.205008
loop_
_atom_site_label
_atom_site_type_symbol
_atom_site_fract_x
_atom_site_fract_y
_atom_site_fract_z
Zn1	Zn	1.087877	-0.416036	-0.453320
Zn2	Zn	1.421211	-0.082703	-0.119987
Zn3	Zn	1.754544	0.250630	0.213347
Zn4	Zn	1.072164	-0.590801	-0.345882
Zn5	Zn	1.405497	-0.257467	-0.012549
Zn6	Zn	1.738831	0.075866	0.320785
Zn7	Zn	0.964808	-0.416072	-0.330270
Zn8	Zn	1.298141	-0.082738	0.003063
Zn9	Zn	1.631475	0.250595	0.336396
Zn10	Zn	0.949158	-0.590741	-0.468902
Zn11	Zn	1.282492	-0.257408	-0.135568
Zn12	Zn	1.615825	0.075925	0.197765
O13	O	1.018502	-0.503413	-0.399593
O14	O	1.351835	-0.170079	-0.066260
O15	O	1.685169	0.163254	0.267073
O16	O	1.188776	-0.439229	-0.439081
O17	O	1.522110	-0.105896	-0.105747
O18	O	1.855443	0.227437	0.227586
O19	O	1.057896	-0.567662	-0.240830
O20	O	1.391230	-0.234329	0.092503
O21	O	1.724563	0.099004	0.425836
O22	O	0.994259	-0.269828	-0.333539
O23	O	1.327592	0.063506	-0.000205
O24	O	1.660925	0.396839	0.333128
O25	O	1.177232	-0.567628	-0.360146
O26	O	1.510565	-0.234295	-0.026813
O27	O	1.843898	0.099039	0.306520
O28	O	1.084677	-0.269802	-0.423943
O29	O	1.418011	0.063532	-0.090609
O30	O	1.751344	0.396865	0.242724
O31	O	0.979022	-0.439290	-0.229361
O32	O	1.312355	-0.105956	0.103973
O33	O	1.645689	0.227377	0.437306
O34	O	0.859749	-0.439232	-0.348648
O35	O	1.193082	-0.105899	-0.015314
O36	O	1.526415	0.227435	0.318019
O37	O	0.967586	-0.567527	-0.569815
O38	O	1.300920	-0.234193	-0.236482
O39	O	1.634253	0.099140	0.096851
O40	O	0.848251	-0.567561	-0.450499
O41	O	1.181584	-0.234228	-0.117166
O42	O	1.514918	0.099106	0.216167
O43	O	1.069503	-0.439172	-0.558368
O44	O	1.402836	-0.105838	-0.225034
O45	O	1.736169	0.227495	0.108299
O46	O	1.042722	-0.737032	-0.375255
O47	O	1.376055	-0.403699	-0.041922
O48	O	1.709388	-0.070366	0.291412
O49	O	0.952350	-0.736989	-0.465637
O50	O	1.285683	-0.403655	-0.132304
O51	O	1.619017	-0.070322	0.201030
C52	C	0.827297	-0.503395	-0.399571
C53	C	1.160631	-0.170061	-0.066237
C54	C	1.493964	0.163272	0.267096
C55	C	0.745497	-0.503412	-0.399581
C56	C	1.078830	-0.170079	-0.066247
C57	C	1.412163	0.163254	0.267086
C58	C	0.551326	-0.570338	-0.452565
C59	C	0.884659	-0.237005	-0.119232
C60	C	1.217993	0.096328	0.214101
C61	C	0.474467	-0.570341	-0.452575
C62	C	0.807800	-0.237008	-0.119241
C63	C	1.141134	0.096325	0.214092
C64	C	0.486428	-0.436506	-0.346639
C65	C	0.819762	-0.103173	-0.013306
C66	C	1.153095	0.230161	0.320027
C67	C	0.563286	-0.436498	-0.346634
C68	C	0.896620	-0.103165	-0.013301
C69	C	1.229953	0.230169	0.320033
C70	C	0.595733	-0.503420	-0.399596
C71	C	0.929066	-0.170087	-0.066263
C72	C	1.262399	0.163246	0.267071
C73	C	0.442016	-0.503431	-0.399611
C74	C	0.775349	-0.170098	-0.066278
C75	C	1.108682	0.163235	0.267055
C76	C	0.358682	-0.503434	-0.399621
C77	C	0.692015	-0.170101	-0.066288
C78	C	1.025348	0.163232	0.267046
C79	C	0.679072	-0.503416	-0.399587
C80	C	1.012405	-0.170083	-0.066254
C81	C	1.345739	0.163251	0.267079
C82	C	0.994152	-0.774929	-0.423847
C83	C	1.327486	-0.441595	-0.090514
C84	C	1.660819	-0.108262	0.242820
C85	C	0.983803	-0.891084	-0.434247
C86	C	1.317136	-0.557751	-0.100914
C87	C	1.650470	-0.224418	0.232419
C88	C	1.023943	-0.942857	-0.394199
C89	C	1.357276	-0.609524	-0.060865
C90	C	1.690609	-0.276191	0.272468
C91	C	1.013247	-1.062910	-0.404947
C92	C	1.346580	-0.729577	-0.071614
C93	C	1.679913	-0.396244	0.261720
C94	C	1.210453	-0.503431	-0.399617
C95	C	1.543786	-0.170098	-0.066283
C96	C	1.877120	0.163235	0.267050
C97	C	1.292251	-0.503439	-0.399627
C98	C	1.625585	-0.170106	-0.066293
C99	C	1.958918	0.163227	0.267040
C100	C	1.018552	-0.503339	-0.591540
C101	C	1.351885	-0.170005	-0.258207
C102	C	1.685218	0.163328	0.075127
C103	C	1.018573	-0.503307	-0.673336
C104	C	1.351906	-0.169974	-0.340003
C105	C	1.685240	0.163360	-0.006669
C106	C	1.042967	-0.230836	-0.375261
C107	C	1.376300	0.102497	-0.041928
C108	C	1.709633	0.435830	0.291405
C109	C	1.053392	-0.114680	-0.364892
C110	C	1.386725	0.218653	-0.031559
C111	C	1.720059	0.551986	0.301774
C112	C	1.071676	-0.436382	-0.932426
C113	C	1.405009	-0.103049	-0.599093
C114	C	1.738343	0.230284	-0.265759
C115	C	1.071665	-0.436411	-0.855570
C116	C	1.404998	-0.103077	-0.522236
C117	C	1.738332	0.230256	-0.188903
C118	C	0.965543	-0.570080	-0.867481
C119	C	1.298877	-0.236747	-0.534148
C120	C	1.632210	0.096587	-0.200814
C121	C	0.965558	-0.570056	-0.944336
C122	C	1.298892	-0.236723	-0.611003
C123	C	1.632225	0.096610	-0.277670
C124	C	1.018624	-0.503202	-0.976806
C125	C	1.351958	-0.169868	-0.643473
C126	C	1.685291	0.163465	-0.310140
C127	C	1.018598	-0.503254	-0.823095
C128	C	1.351931	-0.169920	-0.489761
C129	C	1.685265	0.163413	-0.156428
C130	C	1.018585	-0.503285	-0.739764
C131	C	1.351919	-0.169951	-0.406430
C132	C	1.685252	0.163382	-0.073097
C133	C	1.018638	-0.503171	-1.060143
C134	C	1.351971	-0.169838	-0.726809
C135	C	1.685305	0.163495	-0.393476
C136	C	1.018501	-0.503411	-0.208387
C137	C	1.351835	-0.170078	0.124946
C138	C	1.685168	0.163256	0.458280
C139	C	1.018649	-0.503148	-0.126565
C140	C	1.351982	-0.169815	0.206768
C141	C	1.685316	0.163519	0.540102
H142	H	0.577741	-0.624828	-0.495692
H143	H	0.911075	-0.291495	-0.162359
H144	H	1.244408	0.041839	0.170974
H145	H	1.066229	-0.898306	-0.351956
H146	H	1.399562	-0.564972	-0.018623
H147	H	1.732896	-0.231639	0.314710
C148	C	0.907193	-0.643565	-0.993158
C149	C	1.240526	-0.310231	-0.659825
C150	C	1.573860	0.023102	-0.326491
N151	N	0.863235	-0.698930	-1.029930
N152	N	1.196568	-0.365597	-0.696597
N153	N	1.529901	-0.032263	-0.363263
H154	H	0.970963	-1.107460	-0.447197
H155	H	1.304297	-0.774127	-0.113864
H156	H	1.637630	-0.440794	0.219469
C157	C	1.130023	-0.362899	-0.806754
C158	C	1.463356	-0.029565	-0.473421
C159	C	1.796690	0.303768	-0.140087
N160	N	1.173980	-0.307525	-0.769986
N161	N	1.507313	0.025808	-0.436653
N162	N	1.840647	0.359142	-0.103319
C163	C	0.425622	-0.643966	-0.510839
C164	C	0.758955	-0.310633	-0.177506
C165	C	1.092288	0.022700	0.155828
N166	N	0.388831	-0.699427	-0.554725
N167	N	0.722165	-0.366093	-0.221391
N168	N	1.055498	-0.032760	0.111942
H169	H	1.095681	-1.070132	-0.322647
H170	H	1.429015	-0.736798	0.010686
H171	H	1.762348	-0.403465	0.344019
H172	H	0.460001	-0.382022	-0.303518
H173	H	0.793334	-0.048689	0.029815
H174	H	1.126667	0.284645	0.363148
H175	H	1.114885	-0.381944	-0.958860
H176	H	1.448219	-0.048611	-0.625527
H177	H	1.781552	0.284722	-0.292194
H178	H	0.922338	-0.624509	-0.841034
H179	H	1.255671	-0.291176	-0.507701
H180	H	1.589005	0.042157	-0.174368
C181	C	0.926677	-0.951270	-0.491319
C182	C	1.260011	-0.617936	-0.157985
C183	C	1.593344	-0.284603	0.175348
N184	N	0.883648	-0.996600	-0.534305
N185	N	1.216981	-0.663267	-0.200972
N186	N	1.550314	-0.329934	0.132362
H187	H	0.599444	-0.381999	-0.303499
H188	H	0.932778	-0.048666	0.029834
H189	H	1.266111	0.284668	0.363167
