data_functionalizedCrystal
_audit_creation_method	'MofGen! by Chris Wilmer'
_symmetry_space_group_name_H-M	'P1'
_symmetry_Int_Tables_number	1
_symmetry_cell_setting	triclinic
loop_
_symmetry_equiv_pos_as_xyz
  x,y,z
_cell_length_a	8.497374
_cell_length_b	17.077404
_cell_length_c	17.077402
_cell_angle_alpha	89.976892
_cell_angle_beta	89.987778
_cell_angle_gamma	90.003463
loop_
_atom_site_label
_atom_site_type_symbol
_atom_site_fract_x
_atom_site_fract_y
_atom_site_fract_z
Zn1	Zn	0.891988	1.199930	0.312640
Zn2	Zn	0.628173	1.199874	0.443874
Zn3	Zn	0.628207	1.068699	0.312627
Zn4	Zn	0.891897	1.068630	0.443868
O5	O	0.760066	1.134283	0.378252
O6	O	0.857016	1.309770	0.330056
O7	O	0.407415	1.182479	0.426461
O8	O	0.663251	1.086159	0.202782
O9	O	0.663193	1.309729	0.426474
O10	O	0.857049	1.182574	0.202791
O11	O	0.407440	1.086105	0.330034
O12	O	0.663162	0.958843	0.330028
O13	O	1.112671	1.086042	0.426463
O14	O	0.856894	0.958792	0.426450
O15	O	1.112738	1.182508	0.330050
O16	O	0.663104	1.182412	0.553720
O17	O	0.856861	1.085988	0.553716
C18	C	0.760023	0.930336	0.378238
C19	C	0.760042	0.843086	0.378251
C20	C	0.760003	1.134208	0.582200
C21	C	0.760029	1.134247	0.669450
C22	C	0.860756	0.802090	0.428533
C23	C	0.860781	0.720109	0.428535
C24	C	0.760083	0.679126	0.378257
C25	C	0.659364	0.720128	0.327969
C26	C	0.659348	0.802107	0.327964
C27	C	0.659402	0.549258	0.327985
C28	C	0.659416	0.467273	0.327991
C29	C	0.860835	0.467260	0.428556
C30	C	0.860819	0.549239	0.428551
C31	C	0.760098	0.590235	0.378263
C32	C	1.171547	1.134278	0.378253
C33	C	1.350191	1.134279	0.378262
C34	C	0.760111	1.339028	0.378267
C35	C	0.760130	1.426277	0.378273
C36	C	0.760164	1.134381	0.173508
C37	C	0.760206	1.134422	0.086258
C38	C	0.659248	1.184506	0.710416
C39	C	0.659289	1.184545	0.792397
C40	C	0.760103	1.134319	0.833409
C41	C	0.860895	1.084058	0.792437
C42	C	0.860861	1.084024	0.710458
C43	C	0.860955	1.084130	0.963307
C44	C	0.860986	1.084163	1.045291
C45	C	0.659382	1.184651	1.045246
C46	C	0.659349	1.184618	0.963267
C47	C	0.760139	1.134355	0.922300
H48	H	0.942751	0.835452	0.469478
H49	H	0.577437	0.433907	0.287041
C50	C	0.971641	0.422171	0.483870
C51	C	0.958431	0.433410	0.573096
C52	C	1.069227	0.388319	0.628412
C53	C	1.193232	0.331988	0.594502
C54	C	1.206447	0.320746	0.505272
C55	C	1.095651	0.365838	0.449956
H56	H	0.866631	0.475112	0.598202
H57	H	1.059444	0.396641	0.694466
H58	H	1.275250	0.298608	0.635451
H59	H	1.298247	0.279045	0.480166
H60	H	1.105434	0.357516	0.383902
H61	H	0.577398	0.582634	0.287028
H62	H	0.577147	1.225403	0.677029
H63	H	0.577222	1.225471	0.825748
C64	C	0.548521	1.239950	1.090302
C65	C	0.369163	1.233616	1.079075
C66	C	0.258302	1.288911	1.124133
C67	C	0.326800	1.350542	1.180418
C68	C	0.506168	1.356879	1.191647
C69	C	0.617028	1.301583	1.146589
H70	H	0.318448	1.187991	1.037407
H71	H	0.125522	1.284220	1.115820
H72	H	0.244734	1.391475	1.213772
H73	H	0.556882	1.402503	1.233315
H74	H	0.749808	1.306274	1.154902
C75	C	0.548599	0.675046	0.272662
C76	C	0.617196	0.618710	0.211097
C77	C	0.506426	0.573628	0.155791
C78	C	0.327059	0.584882	0.162050
C79	C	0.258452	0.641221	0.223619
C80	C	0.369222	0.686303	0.278925
H81	H	0.749983	0.610376	0.206461
H82	H	0.557215	0.531922	0.110214
H83	H	0.245060	0.551510	0.121110
H84	H	0.125665	0.649554	0.228255
H85	H	0.318434	0.728008	0.324502
C86	C	0.548563	0.847207	0.272652
C87	C	0.561769	0.835965	0.183427
C88	C	0.450990	0.881065	0.128110
C89	C	0.327005	0.937408	0.162018
C90	C	0.313795	0.948653	0.251247
C91	C	0.424574	0.903553	0.306565
H92	H	0.653555	0.794254	0.158322
H93	H	0.460770	0.872740	0.062056
H94	H	0.245000	0.970794	0.121068
H95	H	0.222009	0.990364	0.276352
H96	H	0.414794	0.911878	0.372619
H97	H	0.942791	0.686734	0.469481
H98	H	0.943108	1.043279	1.078682
C99	C	0.971717	1.028736	0.665390
C100	C	0.903225	0.967116	0.609093
C101	C	1.014090	0.911830	0.564026
C102	C	1.193448	0.918164	0.575257
C103	C	1.261949	0.979786	0.631557
C104	C	1.151084	1.035072	0.676624
H105	H	0.770445	0.962425	0.600777
H106	H	0.963380	0.866213	0.522349
H107	H	1.275517	0.877238	0.541895
H108	H	1.394729	0.984477	0.639873
H109	H	1.201795	1.080689	0.718301
C110	C	0.971821	1.028838	0.918244
C111	C	1.095724	1.062770	0.861832
C112	C	1.206581	1.007476	0.816770
C113	C	1.193534	0.918250	0.828119
C114	C	1.069626	0.884314	0.884533
C115	C	0.958769	0.939608	0.929595
H116	H	1.105387	1.128825	0.853429
H117	H	1.298306	1.032599	0.775008
H118	H	1.275597	0.877318	0.794760
H119	H	1.059964	0.818259	0.892936
H120	H	0.867044	0.914485	0.971357
H121	H	0.577251	1.225511	0.929875
H122	H	0.942807	0.582606	0.469495
H123	H	0.942986	1.043166	0.825836
