data_functionalizedCrystal
_audit_creation_method	'MofGen! by Chris Wilmer'
_symmetry_space_group_name_H-M	'P1'
_symmetry_Int_Tables_number	1
_symmetry_cell_setting	triclinic
loop_
_symmetry_equiv_pos_as_xyz
  x,y,z
_cell_length_a	8.497367
_cell_length_b	8.497374
_cell_length_c	12.594517
_cell_angle_alpha	90.003871
_cell_angle_beta	90.033674
_cell_angle_gamma	90.038609
loop_
_atom_site_label
_atom_site_type_symbol
_atom_site_fract_x
_atom_site_fract_y
_atom_site_fract_z
Zn1	Zn	0.628339	0.892563	1.627450
Zn2	Zn	0.892085	0.628982	1.627549
Zn3	Zn	0.628311	0.628780	1.449508
Zn4	Zn	0.892070	0.892703	1.449590
O5	O	0.760201	0.760757	1.538524
O6	O	0.663343	0.857624	1.776409
O7	O	0.857089	0.408193	1.603939
O8	O	0.407552	0.663628	1.473037
O9	O	0.857116	0.663972	1.776482
O10	O	0.407572	0.857428	1.603770
O11	O	0.663296	0.408044	1.473133
O12	O	0.663282	0.663765	1.300573
O13	O	0.857091	1.113447	1.473176
O14	O	0.857064	0.857668	1.300633
O15	O	0.663329	1.113344	1.603849
O16	O	1.112845	0.664109	1.604018
O17	O	1.112835	0.857864	1.473272
C18	C	0.760169	0.760711	1.261983
C19	C	0.760194	0.760728	1.143678
C20	C	1.348721	0.760611	1.538450
C21	C	1.170077	0.760900	1.538584
C22	C	0.760203	1.172237	1.538516
C23	C	0.760220	1.350881	1.538519
C24	C	0.654652	0.655465	1.074361
C25	C	0.798540	0.616778	1.003642
C26	C	0.616377	0.799442	1.003598
C27	C	0.904157	0.721966	1.074517
C28	C	0.721897	0.904697	1.074479
C29	C	0.865884	0.866065	1.003792
C30	C	0.760234	0.760805	1.816145
C31	C	0.760248	0.760825	1.934451
H32	H	0.565486	0.566338	1.105348
H33	H	0.689428	1.026370	1.105620
Cl34	Cl	0.428568	0.849932	0.955498
Cl35	Cl	0.848604	0.428871	0.955599
H36	H	1.025840	0.689127	1.105536
H37	H	0.955264	0.955124	0.973000
