data_functionalizedCrystal
_audit_creation_method	'MofGen! by Chris Wilmer'
_symmetry_space_group_name_H-M	'P1'
_symmetry_Int_Tables_number	1
_symmetry_cell_setting	triclinic
loop_
_symmetry_equiv_pos_as_xyz
  x,y,z
_cell_length_a	10.654547
_cell_length_b	26.210047
_cell_length_c	10.654555
_cell_angle_alpha	89.992904
_cell_angle_beta	84.487805
_cell_angle_gamma	90.009836
loop_
_atom_site_label
_atom_site_type_symbol
_atom_site_fract_x
_atom_site_fract_y
_atom_site_fract_z
O1	O	1.667857	0.042435	0.176397
O2	O	1.302380	0.042433	0.193199
O3	O	1.493514	0.042434	0.002060
O4	O	1.476723	0.042434	0.367536
O5	O	1.493477	-0.042424	0.002089
O6	O	1.302343	-0.042425	0.193229
O7	O	1.667820	-0.042423	0.176427
Cu8	Cu	1.485078	-0.050172	0.184830
Cu9	Cu	1.485122	0.050182	0.184795
O10	O	1.476686	-0.042424	0.367566
C11	C	1.255563	0.000004	0.191980
C12	C	1.116120	0.000004	0.188286
C13	C	0.854140	0.092525	0.181292
C14	C	0.919679	0.138782	0.183013
C15	C	1.050696	0.138780	0.186493
C16	C	1.116179	0.092518	0.188248
C17	C	1.050641	0.046262	0.186527
C18	C	0.919620	0.046268	0.183051
C19	C	1.050582	-0.046252	0.186566
C20	C	0.919563	-0.046252	0.183095
C21	C	1.116065	-0.092515	0.188321
C22	C	1.050525	-0.138772	0.186609
C23	C	0.919499	-0.138769	0.183131
C24	C	0.854025	-0.092508	0.181374
N25	N	1.485057	-0.120756	0.184854
C26	C	1.569748	-0.473270	0.100178
C27	C	1.569775	-0.686929	0.100161
O28	O	1.641734	-0.714550	0.028171
N29	N	1.485128	-0.713650	0.184768
C30	C	1.400463	-0.686954	0.269380
O31	O	1.328458	-0.714584	0.341334
C32	C	1.400431	-0.473296	0.269390
C33	C	1.485092	-0.446577	0.184786
C34	C	1.654401	-0.446551	0.015580
C35	C	1.654398	-0.393140	0.015590
C36	C	1.569742	-0.366447	0.100197
C37	C	1.485088	-0.393166	0.184795
C38	C	1.315760	-0.446601	0.353994
C39	C	1.315757	-0.393183	0.353987
C40	C	1.400418	-0.366464	0.269383
C41	C	1.400429	-0.313062	0.269413
N42	N	1.485076	-0.286340	0.184806
C43	C	1.569732	-0.313033	0.100198
C44	C	1.400488	-0.799127	0.269370
C45	C	1.400497	-0.852541	0.269369
C46	C	1.569808	-0.852512	0.100148
C47	C	1.569804	-0.799097	0.100156
C48	C	1.485135	-0.772405	0.184763
C49	C	1.569720	-0.200865	0.100226
C50	C	1.569713	-0.147449	0.100247
C51	C	1.400398	-0.147482	0.269462
C52	C	1.400409	-0.200894	0.269447
C53	C	1.485075	-0.227584	0.184818
O54	O	1.328498	-0.285407	0.341356
O55	O	1.641708	-0.285393	0.028236
C56	C	1.569751	-0.526681	0.100168
C57	C	1.485098	-0.553400	0.184766
C58	C	1.400442	-0.526708	0.269374
C59	C	1.485107	-0.606814	0.184765
C60	C	1.569763	-0.633507	0.100158
C61	C	1.654410	-0.606786	0.015551
C62	C	1.654407	-0.553374	0.015560
C63	C	1.315795	-0.553429	0.353981
C64	C	1.315806	-0.606841	0.353965
C65	C	1.400462	-0.633533	0.269357
C66	C	1.714637	0.000007	0.177646
C67	C	1.854080	0.000011	0.181339
C68	C	1.492260	0.000006	-0.044723
C69	C	1.488562	0.000009	-0.184166
N70	N	1.485153	0.120766	0.184761
C71	C	1.481582	-0.092509	-0.446165
C72	C	1.483293	-0.138766	-0.380634
C73	C	1.486762	-0.138767	-0.249615
C74	C	1.488516	-0.092505	-0.184123
C75	C	1.486805	-0.046248	-0.249654
C76	C	1.483340	-0.046253	-0.380676
C77	C	1.486851	0.046266	-0.249697
C78	C	1.483392	0.046267	-0.380717
C79	C	1.488605	0.092528	-0.184205
C80	C	1.486903	0.138786	-0.249737
C81	C	1.483436	0.138784	-0.380764
C82	C	1.481681	0.092524	-0.446248
C83	C	1.477940	0.000005	0.414349
C84	C	1.481638	0.000005	0.553792
H85	H	0.747457	0.092531	0.178475
H86	H	1.638658	-0.125696	0.031352
C87	C	1.222615	-0.475979	0.447058
N88	N	1.152448	-0.498106	0.517154
C89	C	1.488837	0.189668	-0.177689
N90	N	1.490300	0.227994	-0.123418
H91	H	1.222747	-0.092513	0.191146
C92	C	1.222664	-0.636225	0.447042
N93	N	1.152502	-0.658356	0.517137
H94	H	1.491423	0.092525	-0.077522
C95	C	1.481358	-0.189652	-0.452683
N96	N	1.479896	-0.227979	-0.506947
C97	C	1.488645	-0.189651	-0.177529
N98	N	1.490065	-0.227977	-0.123235
H99	H	1.723338	-0.468280	-0.053324
H100	H	0.866145	-0.176436	0.181735
C101	C	1.662924	-0.881884	0.007072
N102	N	1.733048	-0.904009	-0.063036
H103	H	0.866349	0.176448	0.181578
C104	C	1.307286	-0.230285	0.362522
N105	N	1.237135	-0.252419	0.432620
C106	C	1.481569	0.189672	-0.452839
N107	N	1.480171	0.228001	-0.507123
H108	H	0.747342	-0.092501	0.178549
C109	C	1.492319	-0.092507	-0.039997
N110	N	1.495186	-0.092509	0.068560
H111	H	1.638661	-0.222590	0.031312
C112	C	1.477864	0.092518	-0.590372
N113	N	1.474984	0.092511	-0.698927
H114	H	1.104058	0.176446	0.187892
H115	H	1.638741	-0.777346	0.031264
H116	H	1.478772	-0.092514	-0.552849
H117	H	1.103853	-0.176435	0.188031
H118	H	1.222862	0.092521	0.191066
C119	C	1.307372	-0.881926	0.362449
N120	N	1.237221	-0.904056	0.432554
H121	H	1.331538	-0.777398	0.338270
C122	C	1.747519	-0.363756	-0.077496
N123	N	1.817657	-0.341628	-0.147618
C124	C	1.222625	-0.363825	0.447077
N125	N	1.152485	-0.341714	0.517199
H126	H	1.331475	-0.125741	0.338353
H127	H	1.723346	-0.531623	-0.053332
H128	H	1.723345	-0.628527	-0.053337
H129	H	1.246856	-0.531700	0.422878
