data_functionalizedCrystal
_audit_creation_method	'MofGen! by Chris Wilmer'
_symmetry_space_group_name_H-M	'P1'
_symmetry_Int_Tables_number	1
_symmetry_cell_setting	triclinic
loop_
_symmetry_equiv_pos_as_xyz
  x,y,z
_cell_length_a	8.497367
_cell_length_b	8.497374
_cell_length_c	16.120530
_cell_angle_alpha	92.899701
_cell_angle_beta	92.935376
_cell_angle_gamma	90.038609
loop_
_atom_site_label
_atom_site_type_symbol
_atom_site_fract_x
_atom_site_fract_y
_atom_site_fract_z
Zn1	Zn	0.750850	1.014825	1.274790
Zn2	Zn	1.250850	1.514825	1.774790
Zn3	Zn	1.014604	0.751252	1.274867
Zn4	Zn	1.514604	1.251252	1.774867
Zn5	Zn	0.737428	0.737674	1.135407
Zn6	Zn	1.237428	1.237674	1.635407
Zn7	Zn	1.001192	1.001604	1.135471
Zn8	Zn	1.501192	1.501604	1.635471
O9	O	0.876018	0.876339	1.205134
O10	O	1.376018	1.376339	1.705134
O11	O	0.797068	0.991077	1.391470
O12	O	1.297068	1.491077	1.891470
O13	O	0.977831	0.528689	1.256373
O14	O	1.477831	1.028689	1.756373
O15	O	0.518440	0.774290	1.153837
O16	O	1.018440	1.274290	1.653837
O17	O	0.990846	0.797430	1.391527
O18	O	1.490846	1.297430	1.891527
O19	O	0.528301	0.977911	1.256241
O20	O	1.028301	1.477911	1.756241
O21	O	0.774191	0.518714	1.153912
O22	O	1.274191	1.018714	1.653912
O23	O	0.761186	0.761470	1.018746
O24	O	1.261186	1.261470	1.518746
O25	O	0.967989	1.224120	1.153947
O26	O	1.467989	1.724120	1.653947
O27	O	0.954973	0.955378	1.018793
O28	O	1.454973	1.455378	1.518793
O29	O	0.784063	1.233833	1.256303
O30	O	1.284063	1.733833	1.756303
O31	O	1.233593	0.784611	1.256435
O32	O	1.733593	1.284611	1.756435
O33	O	1.223740	0.968543	1.154022
O34	O	1.723740	1.468543	1.654022
C35	C	0.855169	0.855517	0.988518
C36	C	1.355169	1.355517	1.488518
C37	C	0.846288	0.846647	0.895849
C38	C	1.346288	1.346647	1.395849
C39	C	1.464532	0.876187	1.205076
C40	C	1.964532	1.376187	1.705076
C41	C	1.285899	0.876486	1.205181
C42	C	1.785899	1.376486	1.705181
C43	C	0.876020	1.287819	1.205128
C44	C	1.376020	1.787819	1.705128
C45	C	0.876037	1.466463	1.205130
C46	C	1.376037	1.966463	1.705130
C47	C	0.830036	0.830466	0.726181
C48	C	1.330036	1.330466	1.226181
C49	C	0.922117	0.922327	0.684927
C50	C	1.422117	1.422327	1.184927
C51	C	0.913074	0.913324	0.590518
C52	C	1.413074	1.413324	1.090518
C53	C	0.839077	0.839467	0.820598
C54	C	1.339077	1.339467	1.320598
C55	C	0.896950	0.897243	1.422596
C56	C	1.396950	1.397243	1.922596
C57	C	0.905870	0.906151	1.515265
C58	C	1.405870	1.406151	2.015265
H59	H	1.007739	1.007735	0.720513
H60	H	1.507739	1.507735	1.220513
H61	H	0.744420	0.745066	0.690598
H62	H	1.244420	1.245066	1.190598
