data_functionalizedCrystal
_audit_creation_method	'MofGen! by Chris Wilmer'
_symmetry_space_group_name_H-M	'P1'
_symmetry_Int_Tables_number	1
_symmetry_cell_setting	triclinic
loop_
_symmetry_equiv_pos_as_xyz
  x,y,z
_cell_length_a	10.654550
_cell_length_b	12.837942
_cell_length_c	11.892095
_cell_angle_alpha	85.697431
_cell_angle_beta	93.940295
_cell_angle_gamma	89.656921
loop_
_atom_site_label
_atom_site_type_symbol
_atom_site_fract_x
_atom_site_fract_y
_atom_site_fract_z
O1	O	-1.690993	-0.139141	-0.094097
O2	O	-1.327028	-0.153026	-0.094079
O3	O	-1.500940	0.004877	-0.094081
O4	O	-1.517082	-0.297044	-0.094095
O5	O	-1.486437	-0.008269	0.093927
O6	O	-1.312525	-0.166171	0.093929
O7	O	-1.676490	-0.152286	0.093910
Zn8	Zn	-1.492205	-0.161316	0.123770
Zn9	Zn	-1.511313	-0.143997	-0.123938
O10	O	-1.502579	-0.310189	0.093912
C11	C	-1.272868	-0.158579	-0.000073
C12	C	-1.133091	-0.155530	-0.000066
C13	C	-1.488236	0.036964	-0.000077
C14	C	-1.471973	0.152158	-0.000078
C15	C	-1.730651	-0.146733	-0.000098
C16	C	-1.870429	-0.149782	-0.000113
C17	C	-1.063752	-0.248499	-0.000087
C18	C	-0.932419	-0.245626	-0.000106
C19	C	-0.939776	-0.056806	-0.000088
C20	C	-1.071106	-0.059681	-0.000061
C21	C	-1.125737	-0.344348	-0.000092
C22	C	-1.056398	-0.437325	-0.000114
C23	C	-0.925065	-0.434452	-0.000133
C24	C	-0.863071	-0.338602	-0.000131
C25	C	-1.515283	-0.342276	-0.000094
C26	C	-1.531546	-0.457470	-0.000100
N27	N	-1.479174	-0.173135	0.292824
C28	C	-1.667480	0.391713	-0.000112
C29	C	-1.652206	0.499949	-0.000113
C30	C	-1.426153	0.476868	-0.000090
C31	C	-1.441427	0.368632	-0.000089
C32	C	-1.562094	0.326059	-0.000098
C33	C	-1.577367	0.217820	-0.000089
C34	C	-1.351315	0.194742	-0.000074
C35	C	-1.336041	0.302978	-0.000075
N36	N	-1.524354	-0.132169	-0.292993
C37	C	-1.615027	-0.049865	0.529471
C38	C	-1.605928	-0.058134	0.647813
C39	C	-1.451871	-0.197937	0.647852
C40	C	-1.460970	-0.189668	0.529510
C41	C	-1.542552	-0.115630	0.470324
C42	C	-1.551657	-0.107367	0.351979
C43	C	-1.397593	-0.247165	0.352021
C44	C	-1.388494	-0.255434	0.470363
H45	H	-1.232675	-0.346698	-0.000081
Cl46	Cl	-1.349302	-0.290997	0.722270
H47	H	-1.765731	0.357049	-0.000108
H48	H	-1.738023	0.553402	-0.000128
H49	H	-1.327912	0.511551	-0.000094
Cl50	Cl	-0.837898	-0.551334	-0.000150
H51	H	-1.322068	-0.315712	0.518566
Cl52	Cl	-1.306486	-0.329851	0.277654
H53	H	-1.681464	0.010413	0.481280
H54	H	-1.106881	-0.515363	-0.000107
H55	H	-0.756130	-0.336271	-0.000129
H56	H	-1.237797	0.337657	-0.000072
H57	H	-1.664943	-0.004580	0.695967
H58	H	-0.889292	0.021232	-0.000105
H59	H	-1.265501	0.141273	-0.000054
H60	H	-1.127564	0.016023	-0.000047
H61	H	-1.618089	-0.047084	0.303791
Cl62	Cl	-1.729060	0.164300	-0.000093
