data_functionalizedCrystal
_audit_creation_method	'MofGen! by Chris Wilmer'
_symmetry_space_group_name_H-M	'P1'
_symmetry_Int_Tables_number	1
_symmetry_cell_setting	triclinic
loop_
_symmetry_equiv_pos_as_xyz
  x,y,z
_cell_length_a	8.497374
_cell_length_b	8.497374
_cell_length_c	21.295418
_cell_angle_alpha	89.983088
_cell_angle_beta	90.023166
_cell_angle_gamma	90.004389
loop_
_atom_site_label
_atom_site_type_symbol
_atom_site_fract_x
_atom_site_fract_y
_atom_site_fract_z
Zn1	Zn	0.892992	0.627650	0.962356
Zn2	Zn	0.629257	0.891400	0.962351
Zn3	Zn	0.629122	0.627701	0.857117
Zn4	Zn	0.892892	0.891455	0.857103
O5	O	0.761066	0.759552	0.909732
O6	O	0.858105	0.662593	1.050445
O7	O	0.408477	0.856418	0.948395
O8	O	0.664110	0.406932	0.871086
O9	O	0.664340	0.856369	1.050441
O10	O	0.857974	0.406895	0.948405
O11	O	0.408378	0.662679	0.871080
O12	O	0.664013	0.662732	0.769026
O13	O	1.113667	0.856463	0.871062
O14	O	0.857804	0.856512	0.769016
O15	O	1.113741	0.662647	0.948391
O16	O	0.664244	1.112170	0.948381
O17	O	0.857935	1.112210	0.871056
C18	C	0.760884	0.759635	0.746180
C19	C	0.760844	0.759708	0.676212
C20	C	1.351186	0.759577	0.909736
C21	C	1.172542	0.759570	0.909729
C22	C	0.761088	1.169431	0.909724
C23	C	0.761063	1.348075	0.909741
C24	C	0.861600	0.860742	0.643357
C25	C	0.861671	0.860704	0.577614
C26	C	0.760957	0.759647	0.544730
C27	C	0.660194	0.658593	0.577593
C28	C	0.660138	0.658623	0.643334
N29	N	0.622972	0.747287	0.441471
N30	N	0.623030	0.747267	0.379019
C31	C	0.761125	0.759546	0.346655
N32	N	0.899161	0.771877	0.379101
N33	N	0.899101	0.771905	0.441558
C34	C	0.761008	0.759602	0.473444
C35	C	0.861966	0.860544	0.242514
C36	C	0.862039	0.860494	0.176770
C37	C	0.660549	0.658392	0.176751
C38	C	0.660490	0.658433	0.242493
C39	C	0.761196	0.759518	0.275371
C40	C	0.761249	0.759469	1.073922
C41	C	0.761327	0.759434	1.143890
H42	H	0.943724	0.942977	0.550858
N43	N	0.970245	0.969737	0.678815
H44	H	0.954928	0.954426	0.725448
H45	H	0.945541	1.082366	0.667297
H46	H	0.578196	0.576309	0.550815
N47	N	0.970590	0.969551	0.277980
H48	H	0.906340	1.042576	0.305219
H49	H	1.034417	1.033438	0.247148
N50	N	0.551473	0.549635	0.678776
H51	H	0.487686	0.485599	0.647971
H52	H	0.478340	0.613740	0.706019
N53	N	0.970712	0.969478	0.141329
H54	H	1.034488	1.033521	0.172136
H55	H	0.906391	1.042357	0.114021
N56	N	0.551931	0.549380	0.141292
H57	H	0.567257	0.564686	0.094659
H58	H	0.439214	0.573760	0.152744
N59	N	0.551826	0.549450	0.277935
H60	H	0.488038	0.485418	0.247129
H61	H	0.478695	0.613549	0.305181
