data_functionalizedCrystal
_audit_creation_method	'MofGen! by Chris Wilmer'
_symmetry_space_group_name_H-M	'P1'
_symmetry_Int_Tables_number	1
_symmetry_cell_setting	triclinic
loop_
_symmetry_equiv_pos_as_xyz
  x,y,z
_cell_length_a	19.077569
_cell_length_b	19.077241
_cell_length_c	16.120484
_cell_angle_alpha	84.670961
_cell_angle_beta	90.690422
_cell_angle_gamma	94.521759
loop_
_atom_site_label
_atom_site_type_symbol
_atom_site_fract_x
_atom_site_fract_y
_atom_site_fract_z
Zn1	Zn	-0.452650	-1.083087	-0.258976
Zn2	Zn	-0.119317	-0.749753	0.074357
Zn3	Zn	0.214017	-0.416420	0.407691
Zn4	Zn	-0.340731	-1.072288	-0.404232
Zn5	Zn	-0.007397	-0.738955	-0.070899
Zn6	Zn	0.325936	-0.405622	0.262434
Zn7	Zn	-0.330508	-0.959984	-0.270654
Zn8	Zn	0.002825	-0.626651	0.062679
Zn9	Zn	0.336158	-0.293318	0.396012
Zn10	Zn	-0.453832	-0.959184	-0.404175
Zn11	Zn	-0.120499	-0.625850	-0.070842
Zn12	Zn	0.212834	-0.292517	0.262491
O13	O	-0.394430	-1.018636	-0.334509
O14	O	-0.061097	-0.685302	-0.001176
O15	O	0.272236	-0.351969	0.332157
O16	O	-0.441587	-1.180508	-0.273381
O17	O	-0.108254	-0.847174	0.059952
O18	O	0.225080	-0.513841	0.393286
O19	O	-0.240925	-1.053207	-0.391424
O20	O	0.092409	-0.719873	-0.058091
O21	O	0.425742	-0.386540	0.275242
O22	O	-0.341938	-0.981168	-0.152436
O23	O	-0.008605	-0.647835	0.180898
O24	O	0.324729	-0.314502	0.514231
O25	O	-0.359360	-1.172574	-0.380100
O26	O	-0.026027	-0.839241	-0.046767
O27	O	0.307306	-0.505907	0.286566
O28	O	-0.431675	-1.071611	-0.143856
O29	O	-0.098342	-0.738278	0.189478
O30	O	0.234992	-0.404944	0.522811
O31	O	-0.233414	-0.970698	-0.293285
O32	O	0.099919	-0.637364	0.040048
O33	O	0.433252	-0.304031	0.373382
O34	O	-0.343084	-0.861025	-0.293230
O35	O	-0.009751	-0.527691	0.040104
O36	O	0.323582	-0.194358	0.373437
O37	O	-0.552125	-0.979804	-0.380003
O38	O	-0.218792	-0.646470	-0.046670
O39	O	0.114541	-0.313137	0.286664
O40	O	-0.433690	-0.860436	-0.391327
O41	O	-0.100356	-0.527103	-0.057994
O42	O	0.232977	-0.193770	0.275340
O43	O	-0.551257	-1.070835	-0.273326
O44	O	-0.217924	-0.737501	0.060008
O45	O	0.115410	-0.404168	0.393341
O46	O	-0.360507	-1.052430	-0.520894
O47	O	-0.027173	-0.719097	-0.187561
O48	O	0.306160	-0.385764	0.145772
O49	O	-0.443602	-0.969333	-0.520852
O50	O	-0.110268	-0.636000	-0.187519
O51	O	0.223065	-0.302666	0.145814
C52	C	-0.387406	-0.835099	-0.343540
C53	C	-0.054073	-0.501766	-0.010207
C54	C	0.279260	-0.168432	0.323127
C55	C	-0.384419	-0.756581	-0.347423
C56	C	-0.051086	-0.423248	-0.014089
C57	C	0.282248	-0.089914	0.319244
C58	C	-0.403308	-1.009643	-0.551123
C59	C	-0.069974	-0.676309	-0.217789
C60	C	0.263359	-0.342976	0.115544
C61	C	-0.407132	-1.005861	-0.643786
C62	C	-0.073798	-0.672528	-0.310453
C63	C	0.259535	-0.339194	0.022880
C64	C	-0.577932	-1.026434	-0.325355
C65	C	-0.244599	-0.693101	0.007978
C66	C	0.088735	-0.359768	0.341311
C67	C	-0.656129	-1.029758	-0.321454
C68	C	-0.322796	-0.696424	0.011879
C69	C	0.010537	-0.363091	0.345212
C70	C	-0.693320	-0.983925	-0.375159
C71	C	-0.359987	-0.650592	-0.041825
C72	C	-0.026653	-0.317259	0.291508
C73	C	-0.766795	-0.987054	-0.371493
C74	C	-0.433462	-0.653720	-0.038160
C75	C	-0.100128	-0.320387	0.295174
C76	C	-0.803078	-1.036012	-0.314118
C77	C	-0.469744	-0.702679	0.019215
C78	C	-0.136411	-0.369345	0.352549
C79	C	-0.765882	-1.081849	-0.260411
C80	C	-0.432549	-0.748516	0.072922
C81	C	-0.099216	-0.415183	0.406255
C82	C	-0.692409	-1.078724	-0.264082
C83	C	-0.359076	-0.745390	0.069252
C84	C	-0.025742	-0.412057	0.402585
C85	C	-1.022771	-1.050445	-0.297189
C86	C	-0.689438	-0.717112	0.036144
C87	C	-0.356105	-0.383779	0.369478
C88	C	-1.096250	-1.053566	-0.293521
C89	C	-0.762916	-0.720233	0.039812
C90	C	-0.429583	-0.386899	0.373146
C91	C	-1.097157	-0.958771	-0.404604
C92	C	-0.763824	-0.625438	-0.071271
C93	C	-0.430491	-0.292104	0.262063
C94	C	-1.023682	-0.955647	-0.408266
C95	C	-0.690349	-0.622314	-0.074933
C96	C	-0.357016	-0.288980	0.258401
C97	C	-0.986493	-1.001487	-0.354562
C98	C	-0.653160	-0.668153	-0.021229
C99	C	-0.319827	-0.334820	0.312104
N100	N	-0.878181	-1.039209	-0.310368
N101	N	-0.544848	-0.705876	0.022965
N102	N	-0.211514	-0.372543	0.356299
N103	N	-0.911392	-0.998292	-0.358317
N104	N	-0.578059	-0.664959	-0.024984
N105	N	-0.244725	-0.331625	0.308350
C106	C	-0.211642	-1.010910	-0.343566
C107	C	0.121692	-0.677577	-0.010233
C108	C	0.455025	-0.344244	0.323101
C109	C	-0.133440	-1.007734	-0.347225
C110	C	0.199893	-0.674400	-0.013892
C111	C	0.533226	-0.341067	0.319441
C112	C	-0.425899	-0.723824	-0.293765
C113	C	-0.092565	-0.390490	0.039568
C114	C	0.240768	-0.057157	0.372902
C115	C	-0.423086	-0.650048	-0.297409
C116	C	-0.089752	-0.316714	0.035924
C117	C	0.243581	0.016619	0.369257
C118	C	-0.378796	-0.609030	-0.354716
C119	C	-0.045463	-0.275697	-0.021383
C120	C	0.287871	0.057637	0.311951
C121	C	-0.337311	-0.641792	-0.408376
C122	C	-0.003978	-0.308459	-0.075043
C123	C	0.329355	0.024875	0.258291
C124	C	-0.340121	-0.715567	-0.404727
C125	C	-0.006788	-0.382234	-0.071394
C126	C	0.326545	-0.048900	0.261940
C127	C	-0.365790	-0.387944	-0.371575
C128	C	-0.032457	-0.054610	-0.038242
C129	C	0.300877	0.278723	0.295092
C130	C	-0.362985	-0.314164	-0.375222
C131	C	-0.029651	0.019169	-0.041888
C132	C	0.303682	0.352503	0.291445
C133	C	-0.448758	-0.322425	-0.264253
C134	C	-0.115425	0.010909	0.069080
C135	C	0.217908	0.344242	0.402413
C136	C	-0.451567	-0.396200	-0.260613
C137	C	-0.118234	-0.062867	0.072721
C138	C	0.215099	0.270466	0.406054
C139	C	-0.410080	-0.428956	-0.314270
C140	C	-0.076747	-0.095623	0.019063
C141	C	0.256586	0.237711	0.352397
N142	N	-0.375921	-0.533619	-0.358444
N143	N	-0.042588	-0.200286	-0.025111
N144	N	0.290746	0.133048	0.308222
N145	N	-0.412952	-0.504366	-0.310537
N146	N	-0.079619	-0.171033	0.022796
N147	N	0.253715	0.162301	0.356130
C148	C	-0.401476	-0.202889	-0.325440
C149	C	-0.068143	0.130444	0.007893
C150	C	0.265190	0.463778	0.341227
C151	C	-0.404464	-0.281407	-0.321564
C152	C	-0.071131	0.051927	0.011769
C153	C	0.262202	0.385260	0.345103
C154	C	-0.414127	-0.998962	-0.813443
C155	C	-0.080794	-0.665628	-0.480110
C156	C	0.252539	-0.332295	-0.146776
C157	C	-0.374750	-1.038437	-0.854729
C158	C	-0.041416	-0.705103	-0.521395
C159	C	0.291917	-0.371770	-0.188062
C160	C	-0.378642	-1.034598	-0.949131
C161	C	-0.045309	-0.701264	-0.615798
C162	C	0.288024	-0.367931	-0.282465
C163	C	-0.410236	-1.002800	-0.719032
C164	C	-0.076902	-0.669466	-0.385698
C165	C	0.256431	-0.336133	-0.052365
C166	C	-0.385534	-1.027684	-0.117049
C167	C	-0.052201	-0.694350	0.216285
C168	C	0.281132	-0.361017	0.549618
C169	C	-0.381744	-1.031539	-0.024380
C170	C	-0.048410	-0.698206	0.308953
C171	C	0.284923	-0.364873	0.642287
H172	H	-0.663783	-0.944050	-0.421870
H173	H	-0.330450	-0.610717	-0.088537
H174	H	0.002884	-0.277383	0.244797
H175	H	-0.338114	-1.075115	-0.819176
H176	H	-0.004780	-0.741782	-0.485842
H177	H	0.328553	-0.408448	-0.152509
Cl178	Cl	-0.287974	-0.756747	-0.472186
Cl179	Cl	0.045360	-0.423414	-0.138853
Cl180	Cl	0.378693	-0.090081	0.194480
Cl181	Cl	-0.811496	-1.143401	-0.188287
Cl182	Cl	-0.478162	-0.810067	0.145047
Cl183	Cl	-0.144829	-0.476734	0.478380
H184	H	-0.994147	-0.915790	-0.454999
H185	H	-0.660813	-0.582457	-0.121666
H186	H	-0.327480	-0.249124	0.211667
H187	H	-0.487635	-0.429592	-0.213950
H188	H	-0.154302	-0.096259	0.119383
H189	H	0.179031	0.237074	0.452716
Cl190	Cl	-0.813546	-0.929439	-0.439018
Cl191	Cl	-0.480213	-0.596105	-0.105684
Cl192	Cl	-0.146880	-0.262772	0.227649
Cl193	Cl	-1.143913	-0.901151	-0.472116
Cl194	Cl	-0.810580	-0.567817	-0.138783
Cl195	Cl	-0.477247	-0.234484	0.194550
Cl196	Cl	-0.470685	-0.942334	-0.868331
Cl197	Cl	-0.137352	-0.609000	-0.534998
Cl198	Cl	0.195982	-0.275667	-0.201664
H199	H	-1.125789	-1.093432	-0.246792
H200	H	-0.792456	-0.760098	0.086541
H201	H	-0.459122	-0.426765	0.419875
Cl202	Cl	-0.500908	-0.281242	-0.196801
Cl203	Cl	-0.167575	0.052092	0.136532
Cl204	Cl	0.165759	0.385425	0.469865
Cl205	Cl	-0.976029	-1.108070	-0.229671
Cl206	Cl	-0.642696	-0.774737	0.103662
Cl207	Cl	-0.309362	-0.441403	0.436995
Cl208	Cl	-0.307319	-0.262599	-0.447289
Cl209	Cl	0.026014	0.070734	-0.113955
Cl210	Cl	0.359347	0.404067	0.219378
H211	H	-0.461966	-0.757215	-0.247101
H212	H	-0.128633	-0.423882	0.086232
H213	H	0.204700	-0.090549	0.419565
Cl214	Cl	-0.645655	-1.136347	-0.196568
Cl215	Cl	-0.312322	-0.803014	0.136766
Cl216	Cl	0.021012	-0.469680	0.470099
H217	H	-0.332009	-0.414604	-0.415267
H218	H	0.001324	-0.081271	-0.081934
H219	H	0.334658	0.252062	0.251399
H220	H	-0.456864	-0.623380	-0.253717
H221	H	-0.123531	-0.290047	0.079616
H222	H	0.209802	0.043286	0.412950
H223	H	-0.301246	-0.608390	-0.455033
H224	H	0.032087	-0.275056	-0.121699
H225	H	0.365420	0.058277	0.211634
