data_functionalizedCrystal
_audit_creation_method	'MofGen! by Chris Wilmer'
_symmetry_space_group_name_H-M	'P1'
_symmetry_Int_Tables_number	1
_symmetry_cell_setting	triclinic
loop_
_symmetry_equiv_pos_as_xyz
  x,y,z
_cell_length_a	15.944551
_cell_length_b	22.010155
_cell_length_c	15.944551
_cell_angle_alpha	89.996699
_cell_angle_beta	83.498738
_cell_angle_gamma	90.003973
loop_
_atom_site_label
_atom_site_type_symbol
_atom_site_fract_x
_atom_site_fract_y
_atom_site_fract_z
O1	O	1.114530	0.050463	0.108320
O2	O	0.869981	0.050478	0.121677
O3	O	0.998934	0.050465	-0.007276
O4	O	0.985577	0.050477	0.237273
O5	O	0.998910	-0.050585	-0.007257
O6	O	0.869957	-0.050572	0.121696
O7	O	1.114507	-0.050587	0.108340
Cu8	Cu	0.992230	-0.059806	0.115020
Cu9	Cu	0.992258	0.059697	0.114997
O10	O	0.985554	-0.050574	0.237293
C11	C	0.838675	-0.000045	0.121132
C12	C	0.745429	-0.000039	0.119470
N13	N	0.992217	-0.143859	0.115035
C14	C	0.530572	-0.000055	0.035565
C15	C	0.469564	0.049770	0.074518
C16	C	0.574703	-0.000047	0.116462
C17	C	0.469563	-0.049858	0.074556
C18	C	0.409790	-0.000056	0.113551
C19	C	0.514923	0.049820	0.155437
C20	C	0.514928	-0.049853	0.155464
C21	C	0.453937	-0.000016	0.194476
C22	C	0.669705	-0.000040	0.118137
C23	C	0.314789	-0.000058	0.111883
C24	C	1.049361	-0.563644	0.057905
C25	C	1.049365	-0.627252	0.057899
O26	O	1.097918	-0.660148	0.009335
N27	N	0.992257	-0.659066	0.114979
C28	C	0.935136	-0.627269	0.172063
O29	O	0.886561	-0.660170	0.220614
C30	C	0.935128	-0.563663	0.172064
C31	C	0.992246	-0.531852	0.114986
C32	C	1.106474	-0.531833	0.000830
C33	C	1.106471	-0.468230	0.000837
C34	C	1.049355	-0.436438	0.057919
C35	C	0.992243	-0.468249	0.114993
C36	C	0.878004	-0.531867	0.229144
C37	C	0.878001	-0.468256	0.229140
C38	C	0.935118	-0.436445	0.172061
C39	C	0.935125	-0.372853	0.172082
N40	N	0.992233	-0.341039	0.115001
C41	C	1.049348	-0.372831	0.057920
C42	C	0.935154	-0.760847	0.172056
C43	C	0.935165	-0.824452	0.172059
C44	C	1.049394	-0.824430	0.057893
C45	C	1.049386	-0.760824	0.057895
C46	C	0.992262	-0.729033	0.114975
C47	C	1.049338	-0.239260	0.057939
C48	C	1.049332	-0.175651	0.057954
C49	C	0.935101	-0.175678	0.172116
C50	C	0.935109	-0.239282	0.172105
C51	C	0.992231	-0.271071	0.115010
O52	O	0.886594	-0.339916	0.220618
O53	O	1.097907	-0.339922	0.009370
C54	C	1.145813	-0.000063	0.108885
C55	C	1.239059	-0.000064	0.110547
C56	C	0.998367	-0.000060	-0.038561
C57	C	0.996705	-0.000061	-0.131807
N58	N	0.992278	0.143750	0.114975
C59	C	0.912801	-0.000047	-0.346663
C60	C	0.951752	-0.049873	-0.407671
C61	C	0.993698	-0.000056	-0.302533
C62	C	0.951794	0.049754	-0.407674
C63	C	0.990787	-0.000048	-0.467445
C64	C	1.032671	-0.049923	-0.362312
C65	C	1.032702	0.049749	-0.362308
C66	C	1.071711	-0.000089	-0.423298
C67	C	0.995372	-0.000061	-0.207530
C68	C	0.989119	-0.000048	-0.562446
C69	C	0.986120	-0.000047	0.268577
C70	C	0.987782	-0.000043	0.361823
H71	H	0.449463	0.091890	0.040294
H72	H	0.534920	0.091989	0.189620
H73	H	0.420779	0.000015	0.261683
O74	O	1.104728	-0.729877	0.002366
C75	C	1.122524	-0.658152	-0.112458
C76	C	1.059771	-0.693135	-0.049573
H77	H	1.086201	-0.628448	-0.154478
H78	H	1.164507	-0.628310	-0.076281
H79	H	1.163328	-0.691840	-0.153208
H80	H	1.018911	-0.659491	-0.008806
H81	H	1.017846	-0.722987	-0.085802
H82	H	1.138919	-0.000122	-0.456457
O83	O	1.161824	-0.437222	-0.054607
C84	C	1.276151	-0.365105	-0.072822
C85	C	1.213662	-0.400244	-0.009863
H86	H	1.318067	-0.335190	-0.036671
H87	H	1.317044	-0.398636	-0.113763
H88	H	1.239557	-0.335441	-0.114650
H89	H	1.250188	-0.429908	0.032021
H90	H	1.172769	-0.366679	0.031019
H91	H	0.888607	-0.265183	0.218592
O92	O	1.104905	-0.270040	0.002445
C93	C	1.218169	-0.263288	-0.110823
C94	C	1.155297	-0.228355	-0.048013
H95	H	1.258915	-0.229601	-0.151647
H96	H	1.260193	-0.293051	-0.074584
H97	H	1.181896	-0.293081	-0.152779
H98	H	1.191501	-0.198529	-0.006041
H99	H	1.113273	-0.198631	-0.084305
O100	O	1.073376	0.100061	-0.338317
C101	C	1.076758	0.209461	-0.333998
C102	C	1.030611	0.152528	-0.361199
H103	H	1.042211	0.251895	-0.352503
H104	H	1.078138	0.208776	-0.262673
H105	H	1.144134	0.209856	-0.366736
H106	H	0.963215	0.152096	-0.328520
H107	H	1.029299	0.153235	-0.432531
H108	H	1.152984	-0.557713	-0.045656
H109	H	0.449467	-0.091979	0.040333
H110	H	0.535050	-0.091975	0.189660
H111	H	0.888600	-0.149783	0.218594
H112	H	1.095847	-0.149753	0.011474
O113	O	0.832750	-0.000067	-0.306790
C114	C	0.744614	0.000378	-0.173640
C115	C	0.835310	0.000418	-0.218689
H116	H	0.746653	0.000757	-0.102403
H117	H	0.709771	0.042437	-0.192992
H118	H	0.710268	-0.042139	-0.192185
H119	H	0.869727	0.042906	-0.200167
H120	H	0.870089	-0.041670	-0.199335
H121	H	0.917577	0.091882	-0.427759
O122	O	1.104838	-0.855253	0.002323
C123	C	1.154011	-0.874739	-0.143704
C124	C	1.091191	-0.839783	-0.080868
H125	H	1.142987	-0.862254	-0.210977
H126	H	1.221304	-0.862220	-0.132790
H127	H	1.144210	-0.925660	-0.133855
H128	H	1.100915	-0.788854	-0.090680
H129	H	1.023920	-0.852352	-0.091798
H130	H	0.888639	-0.734966	0.218545
O131	O	0.879606	-0.855255	0.227543
C132	C	0.766340	-0.848546	0.340812
C133	C	0.829208	-0.813589	0.278012
H134	H	0.725589	-0.814874	0.381644
H135	H	0.724320	-0.878307	0.304563
H136	H	0.802616	-0.878343	0.382760
H137	H	0.793000	-0.783760	0.236047
H138	H	0.871227	-0.783866	0.314312
O139	O	0.910844	-0.100058	-0.431748
C140	C	0.794488	-0.139105	-0.499627
C141	C	0.840752	-0.082224	-0.472431
H142	H	0.737799	-0.124706	-0.532509
H143	H	0.839351	-0.167264	-0.544882
H144	H	0.772033	-0.167459	-0.441563
H145	H	0.863211	-0.053823	-0.530445
H146	H	0.795859	-0.054110	-0.427148
O147	O	0.822436	-0.562664	0.284621
C148	C	0.709161	-0.555945	0.397879
C149	C	0.772037	-0.520993	0.335080
H150	H	0.668408	-0.522269	0.438704
H151	H	0.667142	-0.585707	0.361629
H152	H	0.745430	-0.585740	0.439835
H153	H	0.735836	-0.491165	0.293108
H154	H	0.814054	-0.491270	0.371382
O155	O	0.822626	-0.437308	0.284627
C156	C	0.804734	-0.365540	0.399380
C157	C	0.867534	-0.400538	0.336574
H158	H	0.841017	-0.335812	0.441407
H159	H	0.762784	-0.335720	0.363136
H160	H	0.763900	-0.399218	0.440132
H161	H	0.908423	-0.366903	0.295806
H162	H	0.909426	-0.430367	0.372869
O163	O	1.073388	-0.100216	-0.338313
C164	C	1.120676	-0.156622	-0.222961
C165	C	1.074533	-0.099648	-0.250024
H166	H	1.121632	-0.156175	-0.151580
H167	H	1.086414	-0.199048	-0.241964
H168	H	1.188201	-0.156799	-0.255323
H169	H	1.007007	-0.099412	-0.217675
H170	H	1.108860	-0.057247	-0.231036
H171	H	0.563905	0.000003	-0.031573
