data_functionalizedCrystal
_audit_creation_method	'MofGen! by Chris Wilmer'
_symmetry_space_group_name_H-M	'P1'
_symmetry_Int_Tables_number	1
_symmetry_cell_setting	triclinic
loop_
_symmetry_equiv_pos_as_xyz
  x,y,z
_cell_length_a	23.532407
_cell_length_b	23.532407
_cell_length_c	9.565339
_cell_angle_alpha	89.995586
_cell_angle_beta	90.001814
_cell_angle_gamma	82.848678
loop_
_atom_site_label
_atom_site_type_symbol
_atom_site_fract_x
_atom_site_fract_y
_atom_site_fract_z
O1	O	0.755259	0.069131	-0.116100
O2	O	1.255259	0.569131	0.383900
O3	O	0.589396	0.079134	-0.116143
O4	O	1.089396	0.579134	0.383857
O5	O	0.677329	-0.008799	-0.116094
O6	O	1.177329	0.491201	0.383906
O7	O	0.667326	0.157064	-0.116148
O8	O	1.167326	0.657064	0.383852
O9	O	0.677322	-0.008794	0.116426
O10	O	1.177322	0.491206	0.616426
O11	O	0.589389	0.079139	0.116377
O12	O	1.089389	0.579139	0.616377
O13	O	0.755252	0.069136	0.116421
O14	O	1.255252	0.569136	0.616421
Zn15	Zn	0.672319	0.074139	0.153317
Zn16	Zn	1.172319	0.574139	0.653317
Zn17	Zn	0.672329	0.074131	-0.153039
Zn18	Zn	1.172329	0.574131	0.346961
O19	O	0.667319	0.157070	0.116372
O20	O	1.167319	0.657070	0.616372
C21	C	0.568176	0.078882	0.000112
C22	C	1.068176	0.578882	0.500112
C23	C	0.504959	0.078116	0.000097
C24	C	1.004959	0.578116	0.500097
C25	C	0.105856	0.125350	0.000145
C26	C	0.605856	0.625350	0.500145
C27	C	0.046456	0.124638	0.000154
C28	C	0.546456	0.624638	0.500154
O29	O	0.009711	0.168424	0.000190
O30	O	0.509711	0.668424	0.500190
N31	N	0.023830	0.072362	0.000168
N32	N	0.523830	0.572362	0.500168
C33	C	0.060607	0.020794	0.000188
C34	C	0.560607	0.520794	0.500188
O35	O	0.035908	-0.023737	0.000203
O36	O	0.535908	0.476263	0.500203
C37	C	0.120006	0.021506	0.000190
C38	C	0.620006	0.521506	0.500190
C39	C	0.142629	0.073785	0.000161
C40	C	0.642629	0.573785	0.500161
C41	C	0.128479	0.177625	0.000118
C42	C	0.628479	0.677625	0.500118
C43	C	0.187876	0.178336	0.000106
C44	C	0.687876	0.678336	0.500106
C45	C	0.224649	0.126772	0.000122
C46	C	0.724649	0.626772	0.500122
C47	C	0.202025	0.074497	0.000149
C48	C	0.702025	0.574497	0.500149
C49	C	0.156783	-0.030062	0.000220
C50	C	0.656783	0.469938	0.500220
C51	C	0.216185	-0.029345	0.000222
C52	C	0.716185	0.470655	0.500222
C53	C	0.238808	0.022934	0.000193
C54	C	0.738808	0.522934	0.500193
C55	C	0.298194	0.023643	0.000154
C56	C	0.798194	0.523643	0.500154
N57	N	0.320820	0.075920	0.000139
N58	N	0.820820	0.575920	0.500139
C59	C	0.284048	0.127484	0.000123
C60	C	0.784048	0.627484	0.500123
C61	C	-0.064135	0.019302	0.000188
C62	C	0.435865	0.519302	0.500188
C63	C	-0.123533	0.018589	0.000177
C64	C	0.376467	0.518589	0.500177
C65	C	-0.137680	0.122434	0.000145
C66	C	0.362320	0.622434	0.500145
C67	C	-0.078281	0.123146	0.000146
C68	C	0.421719	0.623146	0.500146
C69	C	-0.041509	0.071578	0.000174
C70	C	0.458491	0.571578	0.500174
C71	C	0.408784	0.128974	0.000098
C72	C	0.908784	0.628974	0.500098
C73	C	0.468186	0.129680	0.000081
C74	C	0.968186	0.629680	0.500081
C75	C	0.482329	0.025836	0.000121
C76	C	0.982329	0.525836	0.500121
C77	C	0.422932	0.025129	0.000130
C78	C	0.922932	0.525129	0.500130
C79	C	0.386160	0.076702	0.000124
C80	C	0.886160	0.576702	0.500124
O81	O	0.334974	-0.020119	0.000123
O82	O	0.834974	0.479881	0.500123
O83	O	0.308755	0.172007	0.000127
O84	O	0.808755	0.672007	0.500127
C85	C	0.677071	-0.030013	0.000169
C86	C	1.177071	0.469987	0.500169
C87	C	0.676305	-0.093230	0.000180
C88	C	1.176305	0.406770	0.500180
C89	C	0.723539	-0.492333	0.000116
C90	C	1.223539	0.007667	0.500116
C91	C	0.722827	-0.551733	0.000105
C92	C	1.222827	-0.051733	0.500105
O93	O	0.766613	-0.588478	0.000065
O94	O	1.266613	-0.088478	0.500065
N95	N	0.670551	-0.574359	0.000092
N96	N	1.170551	-0.074359	0.500092
C97	C	0.618983	-0.537582	0.000076
C98	C	1.118983	-0.037582	0.500076
O99	O	0.574452	-0.562281	0.000063
O100	O	1.074452	-0.062281	0.500063
C101	C	0.619695	-0.478182	0.000077
C102	C	1.119695	0.021818	0.500077
C103	C	0.671974	-0.455560	0.000104
C104	C	1.171974	0.044440	0.500104
C105	C	0.775814	-0.469710	0.000141
C106	C	1.275814	0.030290	0.500141
C107	C	0.776525	-0.410313	0.000154
C108	C	1.276525	0.089687	0.500154
C109	C	0.724961	-0.373540	0.000142
C110	C	1.224961	0.126460	0.500142
C111	C	0.672685	-0.396164	0.000117
C112	C	1.172685	0.103836	0.500117
C113	C	0.568127	-0.441406	0.000051
C114	C	1.068127	0.058594	0.500051
C115	C	0.568844	-0.382004	0.000051
C116	C	1.068844	0.117996	0.500051
C117	C	0.621123	-0.359381	0.000078
C118	C	1.121123	0.140619	0.500078
C119	C	0.621832	-0.299995	0.000119
C120	C	1.121832	0.200005	0.500119
N121	N	0.674109	-0.277368	0.000131
N122	N	1.174109	0.222632	0.500131
C123	C	0.725673	-0.314141	0.000143
C124	C	1.225673	0.185859	0.500143
C125	C	0.617491	-0.662324	0.000072
C126	C	1.117491	-0.162324	0.500072
C127	C	0.616778	-0.721722	0.000081
C128	C	1.116778	-0.221722	0.500081
C129	C	0.720623	-0.735869	0.000107
C130	C	1.220623	-0.235869	0.500107
C131	C	0.721335	-0.676470	0.000108
C132	C	1.221335	-0.176470	0.500108
C133	C	0.669767	-0.639698	0.000085
C134	C	1.169767	-0.139698	0.500085
C135	C	0.727163	-0.189405	0.000173
C136	C	1.227163	0.310595	0.500173
C137	C	0.727869	-0.130003	0.000192
C138	C	1.227869	0.369997	0.500192
C139	C	0.624025	-0.115860	0.000158
C140	C	1.124025	0.384140	0.500158
C141	C	0.623318	-0.175257	0.000147
C142	C	1.123318	0.324743	0.500147
C143	C	0.674891	-0.212029	0.000149
C144	C	1.174891	0.287971	0.500149
O145	O	0.578070	-0.263215	0.000153
O146	O	1.078070	0.236785	0.500153
O147	O	0.770196	-0.289433	0.000138
O148	O	1.270196	0.210567	0.500138
C149	C	0.776472	0.069388	0.000163
C150	C	1.276472	0.569388	0.500163
C151	C	0.839689	0.070154	0.000169
C152	C	1.339689	0.570154	0.500169
C153	C	0.667577	0.178283	0.000105
C154	C	1.167577	0.678283	0.500105
C155	C	0.668343	0.241500	0.000086
C156	C	1.168343	0.741500	0.500086
N157	N	0.672317	0.074143	0.362396
N158	N	1.172317	0.574143	0.862396
N159	N	0.672335	0.074122	-0.362118
N160	N	1.172335	0.574122	0.137882
C161	C	0.631639	0.114796	0.453577
C162	C	1.131639	0.614796	0.953577
C163	C	0.683041	0.125556	0.546765
C164	C	1.183041	0.625556	1.046765
C165	C	0.620937	0.063388	0.546763
C166	C	1.120937	0.563388	1.046763
C167	C	0.723745	0.084929	0.453532
C168	C	1.223745	0.584929	0.953532
C169	C	0.661608	0.022738	0.453523
C170	C	1.161608	0.522738	0.953523
C171	C	0.713047	0.033476	0.546669
C172	C	1.213047	0.533476	1.046669
H173	H	-0.141947	-0.023982	0.000179
H174	H	0.358053	0.476018	0.500179
O175	O	0.772083	-0.654429	-0.000065
O176	O	1.272083	-0.154429	0.499935
C177	C	0.775615	-0.620505	-0.120510
C178	C	1.275615	-0.120505	0.379490
H179	H	0.730644	-0.605458	-0.160671
H180	H	1.230644	-0.105458	0.339329
H181	H	0.798094	-0.581733	-0.093425
H182	H	1.298094	-0.081733	0.406575
H183	H	0.800963	-0.646890	-0.204826
H184	H	1.300963	-0.146890	0.295174
H185	H	0.652521	-0.020711	0.412534
H186	H	1.152521	0.479289	0.912534
H187	H	0.692112	0.169019	0.587721
H188	H	1.192112	0.669019	1.087721
O189	O	0.775549	0.095890	0.404660
O190	O	1.275549	0.595890	0.904660
C191	C	0.774904	0.095799	0.257268
C192	C	1.274904	0.595799	0.757268
H193	H	0.728836	0.104975	0.218717
H194	H	1.228836	0.604975	0.718717
H195	H	0.800718	0.130235	0.216592
H196	H	1.300718	0.630235	0.716592
H197	H	0.794637	0.052115	0.217311
H198	H	1.294637	0.552115	0.717311
H199	H	-0.034198	-0.022693	0.000198
H200	H	0.465802	0.477307	0.500198
H201	H	0.770443	-0.111587	0.000217
H202	H	1.270443	0.388413	0.500217
H203	H	0.747493	-0.000914	0.587286
H204	H	1.247493	0.499086	1.087286
O205	O	0.590647	0.155800	0.404562
O206	O	1.090647	0.655800	0.904562
C207	C	0.590863	0.154930	0.257177
C208	C	1.090863	0.654930	0.757177
H209	H	0.610588	0.110957	0.219072
H210	H	1.110588	0.610957	0.719072
H211	H	0.545046	0.164151	0.216914
H212	H	1.045046	0.664151	0.716914
H213	H	0.617130	0.188978	0.216366
H214	H	1.117130	0.688978	0.716366
H215	H	0.580748	-0.193677	0.000164
H216	H	1.080748	0.306323	0.500164
H217	H	0.577479	0.054300	0.587719
H218	H	1.077479	0.554300	1.087719
O219	O	0.517326	-0.463343	-0.000232
O220	O	1.017326	0.036657	0.499768
C221	C	0.485923	-0.444498	-0.120655
C222	C	0.985923	0.055502	0.379345
H223	H	0.516510	-0.432313	-0.204802
H224	H	1.016510	0.067687	0.295198
H225	H	0.461896	-0.480342	-0.161102
H226	H	0.961896	0.019658	0.338898
H227	H	0.453968	-0.405602	-0.093442
H228	H	0.953968	0.094398	0.406558
O229	O	0.490256	0.180417	-0.000018
O230	O	0.990256	0.680417	0.499982
C231	C	0.550569	0.169994	0.000002
C232	C	1.050569	0.669994	0.500002
H233	H	0.564762	0.125466	-0.043994
H234	H	1.064762	0.625466	0.456006
H235	H	0.568618	0.203420	-0.067535
H236	H	1.068618	0.703420	0.432465
H237	H	0.567096	0.172666	0.111546
H238	H	1.067096	0.672666	0.611546
H239	H	0.378851	0.170970	0.000098
H240	H	0.878851	0.670970	0.500098
O241	O	0.777223	-0.225176	0.000368
O242	O	1.277223	0.274824	0.500368
C243	C	0.779925	-0.259954	0.120806
C244	C	1.279925	0.240046	0.620806
H245	H	0.734737	-0.262720	0.160933
H246	H	1.234737	0.237280	0.660933
H247	H	0.801408	-0.304714	0.093726
H248	H	1.301408	0.195286	0.593726
H249	H	0.805812	-0.240553	0.205146
H250	H	1.305812	0.259447	0.705146
O251	O	0.209752	0.229171	0.000157
O252	O	0.709752	0.729171	0.500157
C253	C	0.164549	0.274524	0.000115
C254	C	0.664549	0.774524	0.500115
H255	H	0.124285	0.258787	0.044135
H256	H	0.624285	0.758787	0.544135
H257	H	0.176756	0.311045	0.067619
H258	H	0.676756	0.811045	0.567619
H259	H	0.156053	0.290414	-0.111438
H260	H	0.656053	0.790414	0.388562
O261	O	0.825960	-0.505345	0.000219
O262	O	1.325960	-0.005345	0.500219
C263	C	0.872245	-0.472627	0.000204
C264	C	1.372245	0.027373	0.500204
H265	H	0.857518	-0.428213	0.044212
H266	H	1.357518	0.071787	0.544212
H267	H	0.908352	-0.494730	0.067732
H268	H	1.408352	0.005270	0.567732
H269	H	0.888292	-0.468481	-0.111340
H270	H	1.388292	0.031519	0.388660
H271	H	0.098544	0.219617	0.000110
H272	H	0.598544	0.719617	0.500110
O273	O	-0.056403	0.173980	0.000190
O274	O	0.443597	0.673980	0.500190
C275	C	-0.101604	0.219335	0.000134
C276	C	0.398396	0.719335	0.500134
H277	H	-0.141870	0.203603	0.044155
H278	H	0.358130	0.703603	0.544155
H279	H	-0.089396	0.255858	0.067629
H280	H	0.410604	0.755858	0.567629
H281	H	-0.110097	0.235220	-0.111425
H282	H	0.389903	0.735220	0.388575
O283	O	0.770729	-0.771574	0.000352
O284	O	1.270729	-0.271574	0.500352
C285	C	0.802499	-0.761368	0.120764
C286	C	1.302499	-0.261368	0.620764
H287	H	0.772319	-0.740900	0.204936
H288	H	1.272319	-0.240900	0.704936
H289	H	0.825576	-0.803646	0.161179
H290	H	1.325576	-0.303646	0.661179
H291	H	0.835292	-0.731305	0.093547
H292	H	1.335292	-0.231305	0.593547
H293	H	0.138375	-0.072634	0.000244
H294	H	0.638375	0.427366	0.500244
H295	H	0.575496	-0.632386	0.000065
H296	H	1.075496	-0.132386	0.500065
O297	O	-0.173465	0.172489	-0.000048
O298	O	0.326535	0.672489	0.499952
C299	C	-0.208241	0.175186	-0.120486
C300	C	0.291759	0.675186	0.379514
H301	H	-0.210992	0.129998	-0.160623
H302	H	0.289008	0.629998	0.339377
H303	H	-0.253006	0.196656	-0.093403
H304	H	0.246994	0.696656	0.406597
H305	H	-0.188846	0.201085	-0.204821
H306	H	0.311154	0.701085	0.295179
O307	O	0.251882	-0.079455	-0.000006
O308	O	0.751882	0.420545	0.499994
C309	C	0.241655	-0.111225	-0.120398
C310	C	0.741655	0.388775	0.379602
H311	H	0.221185	-0.081043	-0.204576
H312	H	0.721185	0.418957	0.295424
H313	H	0.283925	-0.134312	-0.160818
H314	H	0.783925	0.365688	0.339182
H315	H	0.211587	-0.144010	-0.093151
H316	H	0.711587	0.355990	0.406849
O317	O	0.401047	-0.025704	0.000201
O318	O	0.901047	0.474296	0.500201
C319	C	0.446245	-0.071063	0.000165
C320	C	0.946245	0.428937	0.500165
H321	H	0.486514	-0.055333	0.044168
H322	H	0.986514	0.444667	0.544168
H323	H	0.434036	-0.107582	0.067685
H324	H	0.934036	0.392418	0.567685
H325	H	0.454731	-0.086952	-0.111385
H326	H	0.954731	0.413048	0.388615
O327	O	0.518136	-0.024199	0.000202
O328	O	1.018136	0.475801	0.500202
C329	C	0.575412	-0.012354	0.000160
C330	C	1.075412	0.487646	0.500160
H331	H	0.577438	0.032370	0.044152
H332	H	1.077438	0.532370	0.544152
H333	H	0.602510	-0.045235	0.067689
H334	H	1.102510	0.454765	0.567689
H335	H	0.592604	-0.014619	-0.111390
H336	H	1.092604	0.485381	0.388610
H337	H	0.574207	-0.740136	0.000084
H338	H	1.074207	-0.240136	0.500084
H339	H	0.526850	-0.352066	0.000030
H340	H	1.026850	0.147934	0.500030
H341	H	0.819097	-0.391900	0.000170
H342	H	1.319097	0.108100	0.500170
O343	O	0.573922	-0.080158	0.000386
O344	O	1.073922	0.419842	0.500386
C345	C	0.542142	-0.090376	0.120771
C346	C	1.042142	0.409624	0.620771
H347	H	0.572315	-0.110849	0.204962
H348	H	1.072315	0.389151	0.704962
H349	H	0.519058	-0.048103	0.161176
H350	H	1.019058	0.451897	0.661176
H351	H	0.509353	-0.120439	0.093523
H352	H	1.009353	0.379561	0.593523
