data_functionalizedCrystal
_audit_creation_method	'MofGen! by Chris Wilmer'
_symmetry_space_group_name_H-M	'P1'
_symmetry_Int_Tables_number	1
_symmetry_cell_setting	triclinic
loop_
_symmetry_equiv_pos_as_xyz
  x,y,z
_cell_length_a	17.077404
_cell_length_b	13.897447
_cell_length_c	17.077396
_cell_angle_alpha	90.026095
_cell_angle_beta	90.019501
_cell_angle_gamma	90.019755
loop_
_atom_site_label
_atom_site_type_symbol
_atom_site_fract_x
_atom_site_fract_y
_atom_site_fract_z
Zn1	Zn	1.200073	-0.384009	0.443856
Zn2	Zn	1.700073	0.115991	0.943856
Zn3	Zn	1.199988	-0.545322	0.312595
Zn4	Zn	1.699988	-0.045322	0.812595
Zn5	Zn	1.068805	-0.384043	0.312604
Zn6	Zn	1.568805	0.115957	0.812604
Zn7	Zn	1.068780	-0.545264	0.443819
Zn8	Zn	1.568780	-0.045264	0.943819
O9	O	1.134411	-0.464660	0.378218
O10	O	1.634411	0.035340	0.878218
O11	O	1.309909	-0.405417	0.426456
O12	O	1.809909	0.094583	0.926456
O13	O	1.182561	-0.523966	0.202749
O14	O	1.682561	-0.023966	0.702749
O15	O	1.086264	-0.249057	0.330034
O16	O	1.586264	0.250943	0.830034
O17	O	1.309846	-0.523933	0.330019
O18	O	1.809846	-0.023933	0.830019
O19	O	1.182706	-0.249032	0.426464
O20	O	1.682706	0.250968	0.926464
O21	O	1.086181	-0.405475	0.202756
O22	O	1.586181	0.094525	0.702756
O23	O	0.958955	-0.405420	0.329998
O24	O	1.458955	0.094580	0.829998
O25	O	1.086222	-0.523835	0.553671
O26	O	1.586222	-0.023835	1.053671
O27	O	0.958937	-0.523868	0.426401
O28	O	1.458937	-0.023868	0.926401
O29	O	1.182682	-0.405362	0.553698
O30	O	1.682682	0.094638	1.053698
O31	O	1.182537	-0.680296	0.329983
O32	O	1.682537	-0.180296	0.829983
O33	O	1.086139	-0.680254	0.426393
O34	O	1.586139	-0.180254	0.926393
C35	C	0.930464	-0.464642	0.378197
C36	C	1.430464	0.035358	0.878197
C37	C	0.843214	-0.464658	0.378206
C38	C	1.343214	0.035342	0.878206
C39	C	1.134348	-0.715274	0.378200
C40	C	1.634348	-0.215274	0.878200
C41	C	1.134392	-0.822488	0.378219
C42	C	1.634392	-0.322488	0.878219
C43	C	0.802235	-0.526427	0.428323
C44	C	1.302235	-0.026427	0.928323
C45	C	0.720254	-0.526429	0.428335
C46	C	1.220254	-0.026429	0.928335
C47	C	0.679254	-0.464666	0.378227
C48	C	1.179254	0.035334	0.878227
C49	C	0.720239	-0.402890	0.328108
C50	C	1.220239	0.097110	0.828108
C51	C	0.802218	-0.402884	0.328100
C52	C	1.302218	0.097116	0.828100
C53	C	0.549369	-0.402909	0.328127
C54	C	1.049369	0.097091	0.828127
C55	C	0.467384	-0.402916	0.328133
C56	C	0.967384	0.097084	0.828133
C57	C	0.467405	-0.526454	0.428362
C58	C	0.967405	-0.026454	0.928362
C59	C	0.549384	-0.526448	0.428354
C60	C	1.049384	-0.026448	0.928354
C61	C	0.590363	-0.464673	0.378234
C62	C	1.090363	0.035327	0.878234
C63	C	1.134430	-0.909558	0.378237
C64	C	1.634430	-0.409558	0.878237
C65	C	1.134485	-1.018790	0.378257
C66	C	1.634485	-0.518790	0.878257
C67	C	1.339156	-0.464678	0.378241
C68	C	1.839156	0.035322	0.878241
C69	C	1.426405	-0.464686	0.378250
C70	C	1.926405	0.035314	0.878250
C71	C	1.134459	-0.464588	0.582963
C72	C	1.634459	0.035412	1.082963
C73	C	1.134479	-0.464558	0.670213
C74	C	1.634479	0.035442	1.170213
C75	C	1.134497	-0.213067	0.378254
C76	C	1.634497	0.286933	0.878254
C77	C	1.134533	-0.105853	0.378269
C78	C	1.634533	0.394147	0.878269
C79	C	1.134409	-0.464661	0.174271
C80	C	1.634409	0.035339	0.674271
C81	C	1.134541	-0.464419	0.087021
C82	C	1.634541	0.035581	0.587021
C83	C	1.184708	-0.402864	0.711218
C84	C	1.684708	0.097136	1.211218
C85	C	1.184717	-0.402832	0.793199
C86	C	1.684717	0.097168	1.293199
C87	C	1.134501	-0.464500	0.834172
C88	C	1.634501	0.035500	1.334172
C89	C	1.084267	-0.526197	0.793161
C90	C	1.584267	-0.026197	1.293161
C91	C	1.084255	-0.526223	0.711182
C92	C	1.584255	-0.026223	1.211182
C93	C	1.084299	-0.526139	0.964031
C94	C	1.584299	-0.026139	1.464031
C95	C	1.084313	-0.526114	1.046016
C96	C	1.584313	-0.026114	1.546016
C97	C	1.184762	-0.402747	1.046048
C98	C	1.684762	0.097253	1.546048
C99	C	1.184749	-0.402774	0.964069
C100	C	1.684749	0.097226	1.464069
C101	C	1.134516	-0.464472	0.923063
C102	C	1.634516	0.035528	1.423063
H103	H	0.835611	-0.576725	0.469124
H104	H	1.335611	-0.076725	0.969124
H105	H	1.225662	-0.352508	1.079438
H106	H	1.725662	0.147492	1.579438
Cl107	Cl	0.668696	-0.325238	0.265119
Cl108	Cl	1.168696	0.174762	0.765119
Cl109	Cl	0.600884	-0.325247	0.265117
Cl110	Cl	1.100884	0.174753	0.765117
Cl111	Cl	0.853735	-0.325225	0.265095
Cl112	Cl	1.353735	0.174775	0.765095
Cl113	Cl	0.415842	-0.325274	0.265135
Cl114	Cl	0.915842	0.174726	0.765135
H115	H	1.225602	-0.352650	0.677863
H116	H	1.725602	0.147350	1.177863
Cl117	Cl	0.415890	-0.604101	0.491381
Cl118	Cl	0.915890	-0.104101	0.991381
Cl119	Cl	0.600926	-0.604101	0.491343
Cl120	Cl	1.100926	-0.104101	0.991343
Cl121	Cl	1.247899	-0.325312	0.844745
Cl122	Cl	1.747899	0.174688	1.344745
Cl123	Cl	1.247883	-0.325253	0.912560
Cl124	Cl	1.747883	0.174747	1.412560
H125	H	1.043421	-0.576327	1.079374
H126	H	1.543421	-0.076327	1.579374
Cl127	Cl	1.021146	-0.603703	0.912482
Cl128	Cl	1.521146	-0.103703	1.412482
Cl129	Cl	1.021136	-0.603719	0.844670
Cl130	Cl	1.521136	-0.103719	1.344670
H131	H	0.686893	-0.576729	0.469144
H132	H	1.186893	-0.076729	0.969144
H133	H	1.043345	-0.576451	0.677796
H134	H	1.543345	-0.076451	1.177796
