data_functionalizedCrystal
_audit_creation_method	'MofGen! by Chris Wilmer'
_symmetry_space_group_name_H-M	'P1'
_symmetry_Int_Tables_number	1
_symmetry_cell_setting	triclinic
loop_
_symmetry_equiv_pos_as_xyz
  x,y,z
_cell_length_a	34.571875
_cell_length_b	34.571051
_cell_length_c	34.567439
_cell_angle_alpha	60.004367
_cell_angle_beta	60.008842
_cell_angle_gamma	59.994195
loop_
_atom_site_label
_atom_site_type_symbol
_atom_site_fract_x
_atom_site_fract_y
_atom_site_fract_z
O1	O	0.053721	-0.565181	0.472559
O2	O	0.553721	-0.065181	0.972559
O3	O	0.020283	-0.440038	0.380761
O4	O	0.520283	0.059962	0.880761
O5	O	0.099534	-0.519209	0.380676
O6	O	0.599534	-0.019209	0.880676
O7	O	-0.025530	-0.486010	0.472643
O8	O	0.474470	0.013990	0.972643
O9	O	0.125831	-0.492917	0.406885
O10	O	0.625831	0.007083	0.906885
O11	O	0.046580	-0.413746	0.406969
O12	O	0.546580	0.086254	0.906969
O13	O	0.080018	-0.538889	0.498767
O14	O	0.580018	-0.038889	0.998767
Zn15	Zn	0.067475	-0.472143	0.457030
Zn16	Zn	0.567475	0.027857	0.957030
Zn17	Zn	0.032827	-0.506784	0.422498
Zn18	Zn	0.532827	-0.006784	0.922498
O19	O	0.000767	-0.459718	0.498852
O20	O	0.500767	0.040282	0.998852
N21	N	0.091122	-0.448505	0.480598
N22	N	0.591122	0.051495	0.980598
N23	N	0.009184	-0.530426	0.398930
N24	N	0.509184	-0.030426	0.898930
C25	C	0.124402	-0.415465	0.717633
C26	C	0.624402	0.084535	1.217633
C27	C	0.328327	-0.415388	0.513477
C28	C	0.828327	0.084612	1.013477
C29	C	0.124221	-0.415437	0.513630
C30	C	0.624221	0.084563	1.013630
C31	C	0.124201	-0.211364	0.513624
C32	C	0.624201	0.288636	1.013624
C33	C	0.157075	-0.309853	0.546423
C34	C	0.657075	0.190147	1.046423
C35	C	0.157084	-0.382601	0.546423
C36	C	0.657084	0.117399	1.046423
C37	C	0.175289	-0.364414	0.564591
C38	C	0.675289	0.135586	1.064591
C39	C	0.254624	-0.350722	0.522790
C40	C	0.754624	0.149278	1.022790
C41	C	0.304220	-0.367243	0.506229
C42	C	0.804220	0.132757	1.006229
C43	C	0.304249	-0.447494	0.536832
C44	C	0.804249	0.052506	1.036832
C45	C	0.254655	-0.430972	0.553394
C46	C	0.754655	0.069028	1.053394
C47	C	0.169014	-0.285043	0.497667
C48	C	0.669014	0.214957	0.997667
C49	C	0.152454	-0.235444	0.481153
C50	C	0.652454	0.264556	0.981153
C51	C	0.112020	-0.235469	0.562154
C52	C	0.612020	0.264531	1.062154
C53	C	0.128580	-0.285068	0.578668
C54	C	0.628580	0.214932	1.078668
C55	C	0.108321	-0.370634	0.558439
C56	C	0.608321	0.129366	1.058439
C57	C	0.091776	-0.387168	0.541918
C58	C	0.591776	0.112832	1.041918
C59	C	0.172754	-0.427637	0.501375
C60	C	0.672754	0.072363	1.001375
C61	C	0.189301	-0.411103	0.517891
C62	C	0.689301	0.088897	1.017891
C63	C	0.108399	-0.370649	0.643978
C64	C	0.608399	0.129351	1.143978
C65	C	0.091911	-0.387197	0.693575
C66	C	0.591911	0.112803	1.193575
C67	C	0.172928	-0.427676	0.693511
C68	C	0.672928	0.072324	1.193511
C69	C	0.189415	-0.411128	0.643912
C70	C	0.689415	0.088872	1.143912
C71	C	0.157149	-0.382613	0.619147
C72	C	0.657149	0.117387	1.119147
C73	C	0.229844	-0.382585	0.546371
C74	C	0.729844	0.117415	1.046371
C75	C	0.105624	-0.433333	0.772186
C76	C	0.605624	0.066667	1.272186
C77	C	0.382878	-0.432925	0.495007
C78	C	0.882878	0.067075	0.995007
C79	C	0.105380	-0.433313	0.495792
C80	C	0.605380	0.066687	0.995792
C81	C	0.105683	-0.156808	0.496094
C82	C	0.605683	0.343192	0.996094
C83	C	-0.023527	-0.563458	0.161535
C84	C	0.476473	-0.063458	0.661535
C85	C	-0.023851	-0.767445	0.365663
C86	C	0.476149	-0.267445	0.865663
C87	C	-0.023821	-0.563448	0.365756
C88	C	0.476179	-0.063448	0.865756
C89	C	-0.227785	-0.563229	0.365355
C90	C	0.272215	-0.063229	0.865355
C91	C	-0.129302	-0.596153	0.332678
C92	C	0.370698	-0.096153	0.832678
C93	C	-0.056593	-0.596234	0.332823
C94	C	0.443407	-0.096234	0.832823
C95	C	-0.074746	-0.614396	0.314578
C96	C	0.425254	-0.114396	0.814578
C97	C	-0.088477	-0.693710	0.356299
C98	C	0.411523	-0.193710	0.856299
C99	C	-0.071982	-0.743310	0.372851
C100	C	0.428018	-0.243310	0.872851
C101	C	0.008266	-0.743392	0.342376
C102	C	0.508266	-0.243392	0.842376
C103	C	-0.008230	-0.693794	0.325823
C104	C	0.491770	-0.193794	0.825823
C105	C	-0.154162	-0.608103	0.381422
C106	C	0.345838	-0.108103	0.881422
C107	C	-0.203757	-0.591517	0.397874
C108	C	0.296243	-0.091517	0.897874
C109	C	-0.203630	-0.551037	0.316836
C110	C	0.296370	-0.051037	0.816836
C111	C	-0.154034	-0.567623	0.300384
C112	C	0.345966	-0.067623	0.800384
C113	C	-0.068543	-0.547475	0.320829
C114	C	0.431457	-0.047475	0.820829
C115	C	-0.052041	-0.530969	0.337421
C116	C	0.447959	-0.030969	0.837421
C117	C	-0.011639	-0.611977	0.377990
C118	C	0.488361	-0.111977	0.877990
C119	C	-0.028141	-0.628485	0.361404
C120	C	0.471859	-0.128485	0.861404
C121	C	-0.068417	-0.547482	0.235199
C122	C	0.431583	-0.047482	0.735199
C123	C	-0.051814	-0.530977	0.185602
C124	C	0.448186	-0.030977	0.685602
C125	C	-0.011349	-0.611990	0.185649
C126	C	0.488651	-0.111990	0.685649
C127	C	-0.027951	-0.628493	0.235248
C128	C	0.472049	-0.128493	0.735248
C129	C	-0.056486	-0.596238	0.260022
C130	C	0.443514	-0.096238	0.760022
C131	C	-0.056602	-0.668955	0.332787
C132	C	0.443398	-0.168955	0.832787
C133	C	-0.005599	-0.544662	0.106983
C134	C	0.494401	-0.044662	0.606983
C135	C	-0.006342	-0.821999	0.384121
C136	C	0.493658	-0.321999	0.884121
C137	C	-0.005979	-0.544649	0.383673
C138	C	0.494021	-0.044649	0.883673
C139	C	-0.282336	-0.544682	0.382817
C140	C	0.217664	-0.044682	0.882817
N141	N	0.427518	-0.448428	0.480350
N142	N	0.927518	0.051572	0.980350
O143	O	0.589573	-0.456297	0.363634
O144	O	1.089573	0.043703	0.863634
O145	O	0.589761	-0.548399	0.488643
O146	O	1.089761	-0.048399	0.988643
O147	O	0.589681	-0.548188	0.409364
O148	O	1.089681	-0.048188	0.909364
O149	O	0.589654	-0.456508	0.442913
O150	O	1.089654	0.043492	0.942913
O151	O	0.510890	-0.521988	0.435708
O152	O	1.010890	-0.021988	0.935708
O153	O	0.510970	-0.522199	0.514987
O154	O	1.010970	-0.022199	1.014987
O155	O	0.510782	-0.430098	0.389978
O156	O	1.010782	0.069902	0.889978
Zn157	Zn	0.498366	-0.471989	0.456665
Zn158	Zn	0.998366	0.028011	0.956665
Zn159	Zn	0.602177	-0.506508	0.421956
Zn160	Zn	1.102177	-0.006508	0.921956
O161	O	0.510862	-0.430308	0.469257
O162	O	1.010862	0.069692	0.969257
N163	N	0.673025	-0.530068	0.398267
N164	N	1.173025	-0.030068	0.898267
N165	N	0.091092	-0.112167	0.480590
N166	N	0.591092	0.387833	0.980590
O167	O	-0.025539	0.049976	0.472612
O168	O	0.474461	0.549976	0.972612
O169	O	0.099472	0.050011	0.380491
O170	O	0.599472	0.550011	0.880491
O171	O	0.020155	0.049979	0.380751
O172	O	0.520155	0.549979	0.880751
O173	O	0.053778	0.050009	0.472352
O174	O	0.553778	0.550009	0.972352
O175	O	0.046458	-0.028818	0.407008
O176	O	0.546458	0.471182	0.907008
O177	O	0.125775	-0.028785	0.406748
O178	O	0.625775	0.471215	0.906748
O179	O	0.000764	-0.028821	0.498869
O180	O	0.500764	0.471179	0.998869
Zn181	Zn	0.067445	-0.041314	0.456977
Zn182	Zn	0.567445	0.458686	0.956977
Zn183	Zn	0.032791	0.062504	0.422382
Zn184	Zn	0.532791	0.562504	0.922382
O185	O	0.080081	-0.028788	0.498609
O186	O	0.580081	0.471212	0.998609
N187	N	0.009138	0.133358	0.398771
N188	N	0.509138	0.633358	0.898771
N189	N	0.091421	-0.448552	0.816827
N190	N	0.591421	0.051448	1.316827
O191	O	0.083469	-0.565164	0.978960
O192	O	0.583469	-0.065164	1.478960
O193	O	-0.008614	-0.440110	0.979002
O194	O	0.491386	0.059890	1.479002
O195	O	-0.008399	-0.519410	0.978978
O196	O	0.491601	-0.019410	1.478978
O197	O	0.083253	-0.485863	0.978984
O198	O	0.583253	0.014137	1.478984
O199	O	0.017837	-0.493128	0.900185
O200	O	0.517837	0.006872	1.400185
O201	O	0.017621	-0.413827	0.900208
O202	O	0.517621	0.086173	1.400208
O203	O	0.109704	-0.538881	0.900167
O204	O	0.609704	-0.038881	1.400167
Zn205	Zn	0.067828	-0.472181	0.887677
Zn206	Zn	0.567828	0.027819	1.387677
Zn207	Zn	0.033262	-0.506810	0.991491
Zn208	Zn	0.533262	-0.006810	1.491491
O209	O	0.109489	-0.459581	0.900191
O210	O	0.609489	0.040419	1.400191
N211	N	0.009668	-0.530444	1.062341
N212	N	0.509668	-0.030444	1.562341
C213	C	0.030297	-0.411123	0.381218
C214	C	0.530297	0.088877	0.881218
C215	C	0.128439	-0.509167	0.381113
C216	C	0.628439	-0.009167	0.881113
C217	C	0.070004	-0.567805	0.498310
C218	C	0.570004	-0.067805	0.998310
C219	C	-0.028138	-0.469761	0.498415
C220	C	0.471862	0.030239	0.998415
C221	C	0.550388	-0.547982	0.517564
C222	C	1.050388	-0.047982	1.017564
C223	C	0.550290	-0.547721	0.419387
C224	C	1.050290	-0.047721	0.919387
C225	C	0.550153	-0.430514	0.361058
C226	C	1.050153	0.069486	0.861058
C227	C	0.550253	-0.430775	0.459234
C228	C	1.050253	0.069225	0.959234
C229	C	0.128339	0.010714	0.380902
C230	C	0.628339	0.510714	0.880902
C231	C	0.030148	0.010577	0.381256
C232	C	0.530148	0.510577	0.881256
C233	C	-0.028136	0.010574	0.498426
C234	C	0.471864	0.510574	0.998426
C235	C	0.070089	0.010613	0.498104
C236	C	0.570089	0.510613	0.998104
C237	C	-0.008178	-0.411214	0.939610
C238	C	0.491822	0.088786	1.439610
C239	C	-0.007906	-0.509413	0.939566
C240	C	0.492094	-0.009413	1.439566
C241	C	0.109268	-0.567777	0.939558
C242	C	0.609268	-0.067777	1.439558
C243	C	0.109002	-0.469572	0.939586
C244	C	0.609002	0.030428	1.439586
H245	H	0.082121	-0.347425	0.623816
H246	H	0.582121	0.152575	1.123816
O247	O	0.078518	-0.610726	0.532665
O248	O	0.578518	-0.110726	1.032665
C249	C	0.089655	-0.646407	0.516400
C250	C	0.589655	-0.146407	1.016400
H251	H	0.074380	-0.630245	0.486971
H252	H	0.574380	-0.130245	0.986971
H253	H	0.129773	-0.663061	0.502144
H254	H	0.629773	-0.163061	1.002144
C255	C	0.087021	-0.704567	0.593792
C256	C	0.587021	-0.204567	1.093792
C257	C	0.068257	-0.684718	0.557649
C258	C	0.568257	-0.184718	1.057649
H259	H	0.073824	-0.728200	0.619235
H260	H	0.573824	-0.228200	1.119235
H261	H	0.079519	-0.680529	0.604750
H262	H	0.579519	-0.180529	1.104750
H263	H	0.120452	-0.718442	0.581905
H264	H	0.620452	-0.218442	1.081905
H265	H	0.034827	-0.670838	0.569534
H266	H	0.534827	-0.170838	1.069534
H267	H	0.075752	-0.708754	0.546694
H268	H	0.575752	-0.208754	1.046694
H269	H	0.138179	-0.603691	0.939539
H270	H	0.638179	-0.103691	1.439539
O271	O	0.143310	-0.460926	0.939560
O272	O	0.643310	0.039074	1.439560
C273	C	0.126047	-0.414357	0.939585
C274	C	0.626047	0.085643	1.439585
H275	H	0.095625	-0.391941	0.924679
H276	H	0.595625	0.108059	1.424679
H277	H	0.112847	-0.415060	0.977389
H278	H	0.612847	0.084940	1.477389
C279	C	0.203482	-0.420354	0.926990
C280	C	0.703482	0.079646	1.426990
C281	C	0.166119	-0.392820	0.908678
C282	C	0.666119	0.107180	1.408678
H283	H	0.228200	-0.407069	0.907926
H284	H	0.728200	0.092931	1.407926
H285	H	0.215112	-0.451728	0.926974
H286	H	0.715112	0.048272	1.426974
H287	H	0.192475	-0.420937	0.958492
H288	H	0.692475	0.079063	1.458492
H289	H	0.177125	-0.392242	0.877178
H290	H	0.677125	0.107758	1.377178
H291	H	0.154492	-0.361445	0.908687
H292	H	0.654492	0.138555	1.408687
H293	H	0.164166	0.010943	0.351910
H294	H	0.664166	0.510943	0.851910
O295	O	-0.071000	0.010592	0.532867
O296	O	0.429000	0.510592	1.032867
C297	C	-0.100500	0.010568	0.515840
C298	C	0.399500	0.510568	1.015840
H299	H	-0.087690	0.025479	0.475484
H300	H	0.412310	0.525479	0.975484
H301	H	-0.099215	-0.027237	0.527895
H302	H	0.400785	0.472763	1.027895
C303	C	-0.167493	0.023157	0.585035
C304	C	0.332507	0.523157	1.085035
C305	C	-0.151763	0.041474	0.535469
C306	C	0.348237	0.541474	1.035469
H307	H	-0.199116	0.042219	0.597145
H308	H	0.300884	0.542219	1.097145
H309	H	-0.147619	0.023171	0.596507
H310	H	0.352381	0.523171	1.096507
H311	H	-0.166419	-0.008348	0.595075
H312	H	0.333581	0.491652	1.095075
H313	H	-0.152832	0.072975	0.525430
H314	H	0.347168	0.572975	1.025430
H315	H	-0.171639	0.041466	0.523995
H316	H	0.328361	0.541466	1.023995
H317	H	0.550303	-0.576522	0.412207
H318	H	1.050303	-0.076522	0.912207
O319	O	0.171256	-0.517531	0.346599
O320	O	0.671256	-0.017531	0.846599
C321	C	0.171288	-0.476779	0.305785
C322	C	0.671288	0.023221	0.805785
H323	H	0.133295	-0.454221	0.306311
H324	H	0.633295	0.045779	0.806311
H325	H	0.188247	-0.455360	0.305196
H326	H	0.688247	0.044640	0.805196
C327	C	0.246401	-0.519378	0.260638
C328	C	0.746401	-0.019378	0.760638
C329	C	0.199737	-0.491673	0.261283
C330	C	0.699737	0.008327	0.761283
H331	H	0.263952	-0.528565	0.233188
H332	H	0.763952	-0.028565	0.733188
H333	H	0.246381	-0.546833	0.288136
H334	H	0.746381	-0.046833	0.788136
H335	H	0.260527	-0.501524	0.260150
H336	H	0.760527	-0.001524	0.760150
H337	H	0.185610	-0.509529	0.261778
H338	H	0.685610	-0.009529	0.761778
H339	H	0.199756	-0.464221	0.233785
H340	H	0.699756	0.035779	0.733785
O341	O	-0.042624	-0.368349	0.939646
O342	O	0.457376	0.131651	1.439646
C343	C	-0.025567	-0.338861	0.939641
C344	C	0.474433	0.161139	1.439641
H345	H	0.004854	-0.361642	0.954551
H346	H	0.504854	0.138358	1.454551
H347	H	-0.012426	-0.314930	0.901842
H348	H	0.487574	0.185070	1.401842
C349	C	-0.103142	-0.280224	0.952241
C350	C	0.396858	0.219776	1.452241
C351	C	-0.065782	-0.308204	0.970557
C352	C	0.434218	0.191796	1.470557
H353	H	-0.127949	-0.261311	0.971310
H354	H	0.372051	0.238689	1.471310
H355	H	-0.114634	-0.300089	0.952243
H356	H	0.385366	0.199911	1.452243
H357	H	-0.092185	-0.260286	0.920743
H358	H	0.407815	0.239714	1.420743
H359	H	-0.076738	-0.328146	1.002053
H360	H	0.423262	0.171854	1.502053
H361	H	-0.054293	-0.288341	0.970562
H362	H	0.445707	0.211659	1.470562
H363	H	-0.036687	-0.516580	0.939532
H364	H	0.463313	-0.016580	1.439532
H365	H	0.550436	-0.576894	0.553469
H366	H	1.050436	-0.076894	1.053469
O367	O	0.044536	-0.375505	0.717618
O368	O	0.544536	0.124495	1.217618
C369	C	0.019598	-0.346798	0.685121
C370	C	0.519598	0.153202	1.185121
H371	H	0.043228	-0.328760	0.649757
H372	H	0.543228	0.171240	1.149757
H373	H	0.008894	-0.369678	0.679857
H374	H	0.508894	0.130322	1.179857
C375	C	-0.054130	-0.331053	0.747939
C376	C	0.445870	0.168947	1.247939
C377	C	-0.025108	-0.308895	0.704505
C378	C	0.474892	0.191105	1.204505
H379	H	-0.081707	-0.307675	0.759896
H380	H	0.418293	0.192325	1.259896
H381	H	-0.037329	-0.350395	0.769833
H382	H	0.462671	0.149605	1.269833
H383	H	-0.063044	-0.350120	0.743546
H384	H	0.436956	0.149880	1.243546
H385	H	-0.016189	-0.289834	0.708899
H386	H	0.483811	0.210166	1.208899
H387	H	-0.041908	-0.289549	0.682612
H388	H	0.458092	0.210451	1.182612
O389	O	0.550103	-0.396073	0.318197
O390	O	1.050103	0.103927	0.818197
C391	C	0.550070	-0.413127	0.288724
C392	C	1.050070	0.086873	0.788724
H393	H	0.565031	-0.453483	0.301531
H394	H	1.065031	0.046517	0.801531
H395	H	0.512257	-0.401116	0.290048
H396	H	1.012257	0.098884	0.790048
C397	C	0.562526	-0.343902	0.221714
C398	C	1.062526	0.156098	0.721714
C399	C	0.580906	-0.393467	0.237441
C400	C	1.080906	0.106533	0.737441
H401	H	0.581545	-0.331773	0.190079
H402	H	1.081545	0.168227	0.690079
H403	H	0.562547	-0.332411	0.241570
H404	H	1.062547	0.167589	0.741570
H405	H	0.531016	-0.333899	0.222821
H406	H	1.031016	0.166101	0.722821
H407	H	0.612413	-0.403469	0.236339
H408	H	1.112413	0.096531	0.736339
H409	H	0.580891	-0.404959	0.217583
H410	H	1.080891	0.095041	0.717583
O411	O	0.021725	-0.368259	0.346805
O412	O	0.521725	0.131741	0.846805
C413	C	-0.016647	-0.359805	0.335925
C414	C	0.483353	0.140195	0.835925
H415	H	-0.020411	-0.394999	0.346379
H416	H	0.479589	0.105001	0.846379
H417	H	-0.050607	-0.336995	0.356320
H418	H	0.449393	0.163005	0.856320
C419	C	-0.002984	-0.290618	0.269527
C420	C	0.497016	0.209382	0.769527
C421	C	-0.007604	-0.333845	0.282364
C422	C	0.492396	0.166155	0.782364
H423	H	0.002593	-0.274603	0.236489
H424	H	0.502593	0.225397	0.736489
H425	H	0.022867	-0.296312	0.276858
H426	H	0.522867	0.203688	0.776858
H427	H	-0.031285	-0.271615	0.286527
H428	H	0.468715	0.228385	0.786527
H429	H	0.020699	-0.352849	0.265368
H430	H	0.520699	0.147151	0.765368
H431	H	-0.033450	-0.328154	0.275029
H432	H	0.466550	0.171846	0.775029
O433	O	0.204336	-0.455379	0.717491
O434	O	0.704336	0.044621	1.217491
C435	C	0.250899	-0.462375	0.684937
C436	C	0.750899	0.037625	1.184937
H437	H	0.250777	-0.456830	0.649593
H438	H	0.750777	0.043170	1.149593
H439	H	0.265099	-0.435967	0.679650
H440	H	0.765099	0.064033	1.179650
C441	C	0.282894	-0.519993	0.747670
C442	C	0.782894	-0.019993	1.247670
C443	C	0.282745	-0.513186	0.704262
C444	C	0.782745	-0.013186	1.204262
H445	H	0.302539	-0.551334	0.759591
H446	H	0.802539	-0.051334	1.259591
H447	H	0.251524	-0.515278	0.769603
H448	H	0.751524	-0.015278	1.269603
H449	H	0.294727	-0.497982	0.743258
H450	H	0.794727	0.002018	1.243258
H451	H	0.270907	-0.535192	0.708675
H452	H	0.770907	-0.035192	1.208675
H453	H	0.314114	-0.517906	0.682330
H454	H	0.814114	-0.017906	1.182330
O455	O	0.044403	-0.375605	0.553671
O456	O	0.544403	0.124395	1.053671
C457	C	0.023848	-0.392577	0.603351
C458	C	0.523848	0.107423	1.103351
H459	H	0.052115	-0.423162	0.619310
H460	H	0.552115	0.076838	1.119310
H461	H	0.008192	-0.362829	0.618051
H462	H	0.508192	0.137171	1.118051
C463	C	-0.050355	-0.372423	0.596600
C464	C	0.449645	0.127577	1.096600
C465	C	-0.015639	-0.409990	0.616202
C466	C	0.484361	0.090010	1.116202
H467	H	-0.074715	-0.383162	0.604528
H468	H	0.425285	0.116838	1.104528
H469	H	-0.036508	-0.360986	0.563130
H470	H	0.463492	0.139014	1.063130
H471	H	-0.063397	-0.347636	0.608853
H472	H	0.436603	0.152364	1.108853
H473	H	-0.002594	-0.434774	0.603944
H474	H	0.497406	0.065226	1.103944
H475	H	-0.029485	-0.421431	0.649670
H476	H	0.470515	0.078569	1.149670
O477	O	0.204115	-0.455304	0.473651
O478	O	0.704115	0.044696	0.973651
C479	C	0.250701	-0.462330	0.466603
C480	C	0.750701	0.037670	0.966603
H481	H	0.250613	-0.432428	0.472144
H482	H	0.750613	0.067572	0.972144
H483	H	0.264940	-0.497665	0.492985
H484	H	0.764940	0.002335	0.992985
C485	C	0.282584	-0.499393	0.408976
C486	C	0.782584	0.000607	0.908976
C487	C	0.282476	-0.462664	0.415778
C488	C	0.782476	0.037336	0.915778
H489	H	0.302186	-0.499601	0.377626
H490	H	0.802186	0.000399	0.877626
H491	H	0.251199	-0.494661	0.413725
H492	H	0.751199	0.005339	0.913725
H493	H	0.294449	-0.528835	0.430964
H494	H	0.794449	-0.028835	0.930964
H495	H	0.270607	-0.433223	0.393794
H496	H	0.770607	0.066777	0.893794
H497	H	0.313861	-0.467392	0.411024
H498	H	0.813861	0.032608	0.911024
O499	O	0.021494	0.010534	0.346985
O500	O	0.521494	0.510534	0.846985
C501	C	-0.025076	0.010523	0.364263
C502	C	0.474924	0.510523	0.864263
H503	H	-0.037519	-0.004382	0.404617
H504	H	0.462481	0.495618	0.904617
H505	H	-0.049604	0.048318	0.352279
H506	H	0.450396	0.548318	0.852279
C507	C	-0.010722	-0.002100	0.295246
C508	C	0.489278	0.497900	0.795246
C509	C	-0.026003	-0.020411	0.344811
C510	C	0.473997	0.479589	0.844811
H511	H	-0.011295	-0.021180	0.283246
H512	H	0.488705	0.478820	0.783246
H513	H	0.020653	-0.002091	0.283605
H514	H	0.520653	0.497909	0.783605
H515	H	-0.031164	0.029395	0.285266
H516	H	0.468836	0.529395	0.785266
H517	H	-0.005558	-0.051903	0.354790
H518	H	0.494442	0.448097	0.854790
H519	H	-0.057375	-0.020426	0.356453
H520	H	0.442625	0.479574	0.856453
H521	H	0.229113	-0.420876	0.623698
H522	H	0.729113	0.079124	1.123698
O523	O	-0.071009	-0.461239	0.532824
O524	O	0.428991	0.038761	1.032824
C525	C	-0.100461	-0.414693	0.515702
C526	C	0.399539	0.085307	1.015702
H527	H	-0.077654	-0.392190	0.485270
H528	H	0.422346	0.107810	0.985270
H529	H	-0.124394	-0.415418	0.502558
H530	H	0.375606	0.084582	1.002558
C531	C	-0.159123	-0.420906	0.593243
C532	C	0.340877	0.079094	1.093243
C533	C	-0.131111	-0.393266	0.555868
C534	C	0.368889	0.106734	1.055868
H535	H	-0.178032	-0.407689	0.618019
H536	H	0.321968	0.092311	1.118019
H537	H	-0.139282	-0.452266	0.604779
H538	H	0.360718	0.047734	1.104779
H539	H	-0.179064	-0.421508	0.582283
H540	H	0.320936	0.078492	1.082283
H541	H	-0.111168	-0.392670	0.566827
H542	H	0.388832	0.107330	1.066827
H543	H	-0.150950	-0.361905	0.544335
H544	H	0.349050	0.138095	1.044335
H545	H	0.550247	-0.401977	0.466412
H546	H	1.050247	0.098023	0.966412
O547	O	0.078726	0.010531	0.532456
O548	O	0.578726	0.510531	1.032456
C549	C	0.117116	-0.030266	0.543307
C550	C	0.617116	0.469734	1.043307
H551	H	0.120842	-0.058790	0.532902
H552	H	0.620842	0.441210	1.032902
H553	H	0.151076	-0.021029	0.522852
H554	H	0.651076	0.478971	1.022852
C555	C	0.103566	-0.013746	0.609627
C556	C	0.603566	0.486254	1.109627
C557	C	0.108140	-0.048780	0.596851
C558	C	0.608140	0.451220	1.096851
H559	H	0.098031	-0.025166	0.642655
H560	H	0.598031	0.474834	1.142655
H561	H	0.077703	0.013741	0.602316
H562	H	0.577703	0.513741	1.102316
H563	H	0.131867	-0.006051	0.592577
H564	H	0.631867	0.493949	1.092577
H565	H	0.079836	-0.056470	0.613897
H566	H	0.579836	0.443530	1.113897
H567	H	0.133998	-0.076269	0.604167
H568	H	0.633998	0.423731	1.104167
O569	O	0.230655	-0.461987	0.576272
O570	O	0.730655	0.038013	1.076272
C571	C	0.263191	-0.508238	0.578924
C572	C	0.763191	-0.008238	1.078924
H573	H	0.298528	-0.506342	0.549614
H574	H	0.798528	-0.006342	1.049614
H575	H	0.268500	-0.527174	0.614856
H576	H	0.768500	-0.027174	1.114856
C577	C	0.200423	-0.538071	0.608877
C578	C	0.700423	-0.038071	1.108877
C579	C	0.243824	-0.535742	0.572875
C580	C	0.743824	-0.035742	1.072875
H581	H	0.188477	-0.555038	0.605147
H582	H	0.688477	-0.055038	1.105147
H583	H	0.178503	-0.506912	0.607092
H584	H	0.678503	-0.006912	1.107092
H585	H	0.204853	-0.553850	0.638816
H586	H	0.704853	-0.053850	1.138816
H587	H	0.239393	-0.519959	0.542937
H588	H	0.739393	-0.019959	1.042937
H589	H	0.265744	-0.566900	0.574655
H590	H	0.765744	-0.066900	1.074655
O591	O	0.328377	-0.494482	0.543564
O592	O	0.828377	0.005518	1.043564
C593	C	0.357044	-0.501212	0.499286
C594	C	0.857044	-0.001212	0.999286
H595	H	0.342066	-0.469812	0.470704
H596	H	0.842066	0.030188	0.970704
H597	H	0.394633	-0.504131	0.490674
H598	H	0.894633	-0.004131	0.990674
C599	C	0.376212	-0.585603	0.536267
C600	C	0.876212	-0.085603	1.036267
C601	C	0.357813	-0.547039	0.501163
C602	C	0.857813	-0.047039	1.001163
H603	H	0.376689	-0.613872	0.537424
H604	H	0.876689	-0.113872	1.037424
H605	H	0.356900	-0.581069	0.566098
H606	H	0.856900	-0.081069	1.066098
H607	H	0.407535	-0.588029	0.529086
H608	H	0.907535	-0.088029	1.029086
H609	H	0.326489	-0.544609	0.508347
H610	H	0.826489	-0.044609	1.008347
H611	H	0.377120	-0.551573	0.471333
H612	H	0.877120	-0.051573	0.971333
H613	H	0.082085	-0.347427	0.581670
H614	H	0.582085	0.152573	1.081670
H615	H	0.229008	-0.420842	0.508101
H616	H	0.729008	0.079158	1.008101
H617	H	0.234427	-0.311322	0.517070
H618	H	0.734427	0.188678	1.017070
O619	O	0.328270	-0.336260	0.483250
O620	O	0.828270	0.163740	0.983250
C621	C	0.316102	-0.302583	0.442382
C622	C	0.816102	0.197417	0.942382
H623	H	0.302456	-0.317870	0.430998
H624	H	0.802456	0.182130	0.930998
H625	H	0.287311	-0.269154	0.450505
H626	H	0.787311	0.230846	0.950505
C627	C	0.376896	-0.271529	0.416126
C628	C	0.876896	0.228471	0.916126
C629	C	0.360139	-0.290306	0.402142
C630	C	0.860139	0.209694	0.902142
H631	H	0.404059	-0.263954	0.391305
H632	H	0.904059	0.236046	0.891305
H633	H	0.385093	-0.294216	0.443661
H634	H	0.885093	0.205784	0.943661
H635	H	0.352899	-0.243674	0.422895
H636	H	0.852899	0.256326	0.922895
H637	H	0.384134	-0.318164	0.395379
H638	H	0.884134	0.181836	0.895379
H639	H	0.351947	-0.267623	0.374606
H640	H	0.851947	0.232377	0.874606
O641	O	0.196669	-0.309047	0.466282
O642	O	0.696669	0.190953	0.966282
C643	C	0.203659	-0.276510	0.419706
C644	C	0.703659	0.223490	0.919706
H645	H	0.173747	-0.241162	0.419818
H646	H	0.673747	0.258838	0.919818
H647	H	0.238986	-0.271223	0.405469
H648	H	0.738986	0.228777	0.905469
C649	C	0.240719	-0.339278	0.387773
C650	C	0.740719	0.160722	0.887773
C651	C	0.203978	-0.295864	0.387909
C652	C	0.703978	0.204136	0.887909
H653	H	0.240918	-0.351217	0.368158
H654	H	0.740918	0.148783	0.868158
H655	H	0.236011	-0.361199	0.419152
H656	H	0.736011	0.138801	0.919152
H657	H	0.270154	-0.334866	0.375910
H658	H	0.770154	0.165134	0.875910
H659	H	0.174543	-0.300277	0.399777
H660	H	0.674543	0.199723	0.899777
H661	H	0.208681	-0.273944	0.356531
H662	H	0.708681	0.226056	0.856531
H663	H	0.162174	-0.215242	0.441450
H664	H	0.662174	0.284758	0.941450
H665	H	0.088825	-0.215289	0.588411
H666	H	0.588825	0.284711	1.088411
H667	H	0.118851	-0.305270	0.618371
H668	H	0.618851	0.194730	1.118371
H669	H	-0.061536	-0.491273	0.165398
H670	H	0.438464	0.008727	0.665398
H671	H	-0.091654	-0.521212	0.255368
H672	H	0.408346	-0.021212	0.755368
H673	H	-0.018232	-0.668197	0.255455
H674	H	0.481768	-0.168197	0.755455
O675	O	0.016307	-0.643370	0.161640
O676	O	0.516307	-0.143370	0.661640
C677	C	-0.008756	-0.671997	0.173702
C678	C	0.491244	-0.171997	0.673702
H679	H	-0.037666	-0.672445	0.209682
H680	H	0.462334	-0.172445	0.709682
H681	H	-0.025538	-0.657067	0.145738
H682	H	0.474462	-0.157067	0.645738
C683	C	0.061096	-0.722279	0.131856
C684	C	0.561096	-0.222279	0.631856
C685	C	0.025591	-0.722832	0.176050
C686	C	0.525591	-0.222832	0.676050
H687	H	0.082283	-0.753636	0.133303
H688	H	0.582283	-0.253636	0.633303
H689	H	0.077981	-0.702992	0.123728
H690	H	0.577981	-0.202992	0.623728
H691	H	0.047106	-0.709835	0.108558
H692	H	0.547106	-0.209835	0.608558
H693	H	0.039581	-0.735270	0.199346
H694	H	0.539581	-0.235270	0.699346
H695	H	0.008709	-0.742122	0.184182
H696	H	0.508709	-0.242122	0.684182
O697	O	-0.096195	-0.516082	0.293091
O698	O	0.403805	-0.016082	0.793091
C699	C	-0.103196	-0.469507	0.286058
C700	C	0.396804	0.030493	0.786058
H701	H	-0.097703	-0.469600	0.315996
H702	H	0.402297	0.030400	0.815996
H703	H	-0.076757	-0.455330	0.250758
H704	H	0.423243	0.044670	0.750758
C705	C	-0.160725	-0.437539	0.248848
C706	C	0.339275	0.062461	0.748848
C707	C	-0.153982	-0.437653	0.285621
C708	C	0.346018	0.062347	0.785621
H709	H	-0.192051	-0.417889	0.248577
H710	H	0.307949	0.082111	0.748577
H711	H	-0.156007	-0.468917	0.253585
H712	H	0.343993	0.031083	0.753585
H713	H	-0.138689	-0.425726	0.219435
H714	H	0.361311	0.074274	0.719435
H715	H	-0.176014	-0.449471	0.315034
H716	H	0.323986	0.050529	0.815034
H717	H	-0.158705	-0.406276	0.280890
H718	H	0.341295	0.093724	0.780890
H719	H	0.011532	-0.638242	0.401256
H720	H	0.511532	-0.138242	0.901256
O721	O	-0.063557	-0.483616	0.325753
O722	O	0.436443	0.016384	0.825753
C723	C	-0.021860	-0.471693	0.300850
C724	C	0.478140	0.028307	0.800850
H725	H	0.009265	-0.504407	0.309855
H726	H	0.509265	-0.004407	0.809855
H727	H	-0.014831	-0.458091	0.261142
H728	H	0.485169	0.041909	0.761142
C729	C	-0.066083	-0.392670	0.304062
C730	C	0.433917	0.107330	0.804062
C731	C	-0.027855	-0.432850	0.315126
C732	C	0.472145	0.067150	0.815126
H733	H	-0.069781	-0.368709	0.312866
H734	H	0.430219	0.131291	0.812866
H735	H	-0.094176	-0.400702	0.320839
H736	H	0.405824	0.099298	0.820839
H737	H	-0.060220	-0.381341	0.270972
H738	H	0.439780	0.118659	0.770972
H739	H	-0.033720	-0.444182	0.348216
H740	H	0.466280	0.055818	0.848216
H741	H	0.000237	-0.424819	0.298355
H742	H	0.500237	0.075181	0.798355
H743	H	0.017729	-0.673638	0.306677
H744	H	0.517729	-0.173638	0.806677
O745	O	-0.016554	-0.675858	0.373118
O746	O	0.483446	-0.175858	0.873118
C747	C	-0.033589	-0.696451	0.422788
C748	C	0.466411	-0.196451	0.922788
H749	H	-0.038467	-0.672956	0.440182
H750	H	0.461533	-0.172956	0.940182
H751	H	-0.069034	-0.700094	0.433936
H752	H	0.430966	-0.200094	0.933936
C753	C	0.008262	-0.774617	0.417128
C754	C	0.508262	-0.274617	0.917128
C755	C	0.002275	-0.745762	0.438491
C756	C	0.502275	-0.245762	0.938491
H757	H	0.030384	-0.805035	0.426814
H758	H	0.530384	-0.305035	0.926814
H759	H	0.019738	-0.760744	0.383664
H760	H	0.519738	-0.260744	0.883664
H761	H	-0.021278	-0.777648	0.426420
H762	H	0.478722	-0.277648	0.926420
H763	H	0.031813	-0.742727	0.429194
H764	H	0.531813	-0.242727	0.929194
H765	H	-0.009195	-0.759636	0.471954
H766	H	0.490805	-0.259636	0.971954
O767	O	0.055271	-0.767504	0.335531
O768	O	0.555271	-0.267504	0.835531
C769	C	0.080919	-0.755408	0.286577
C770	C	0.580919	-0.255408	0.786577
H771	H	0.056589	-0.741750	0.266031
H772	H	0.556589	-0.241750	0.766031
H773	H	0.095174	-0.726644	0.275525
H774	H	0.595174	-0.226644	0.775525
C775	C	0.152428	-0.816272	0.301019
C776	C	0.652428	-0.316272	0.801019
C777	C	0.122546	-0.799501	0.275784
C778	C	0.622546	-0.299501	0.775784
H779	H	0.178107	-0.843470	0.294361
H780	H	0.678107	-0.343470	0.794361
H781	H	0.135149	-0.824420	0.334000
H782	H	0.635149	-0.324420	0.834000
H783	H	0.164302	-0.792298	0.291807
H784	H	0.664302	-0.292298	0.791807
H785	H	0.110668	-0.823472	0.285001
H786	H	0.610668	-0.323472	0.785001
H787	H	0.139824	-0.791358	0.242804
H788	H	0.639824	-0.291358	0.742804
O789	O	-0.103008	-0.767284	0.395669
O790	O	0.396992	-0.267284	0.895669
C791	C	-0.126216	-0.755163	0.365293
C792	C	0.373784	-0.255163	0.865293
H793	H	-0.125006	-0.719185	0.337025
H794	H	0.374994	-0.219185	0.837025
H795	H	-0.107733	-0.783114	0.347583
H796	H	0.392267	-0.283114	0.847583
C797	C	-0.179658	-0.796953	0.428943
C798	C	0.320342	-0.296953	0.928943
C799	C	-0.178175	-0.752762	0.394225
C800	C	0.321825	-0.252762	0.894225
H801	H	-0.211708	-0.795474	0.446789
H802	H	0.288292	-0.295474	0.946789
H803	H	-0.164022	-0.805120	0.449407
H804	H	0.335978	-0.305120	0.949407
H805	H	-0.164253	-0.820241	0.414179
H806	H	0.335747	-0.320241	0.914179
H807	H	-0.193575	-0.729476	0.408990
H808	H	0.306425	-0.229476	0.908990
H809	H	-0.193816	-0.744591	0.373763
H810	H	0.306184	-0.244591	0.873763
O811	O	-0.130209	-0.635795	0.412855
O812	O	0.369791	-0.135795	0.912855
C813	C	-0.162788	-0.642790	0.459407
C814	C	0.337212	-0.142790	0.959407
H815	H	-0.198120	-0.612858	0.459262
H816	H	0.301880	-0.112858	0.959262
H817	H	-0.168089	-0.678103	0.473603
H818	H	0.331911	-0.178103	0.973603
C819	C	-0.100091	-0.679924	0.491456
C820	C	0.399909	-0.179924	0.991456
C821	C	-0.143485	-0.643159	0.491278
C822	C	0.356515	-0.143159	0.991278
H823	H	-0.088184	-0.680154	0.511116
H824	H	0.411816	-0.180154	1.011116
H825	H	-0.078142	-0.675213	0.460093
H826	H	0.421858	-0.175213	0.960093
H827	H	-0.104515	-0.709348	0.503285
H828	H	0.395485	-0.209348	1.003285
H829	H	-0.139060	-0.613735	0.479443
H830	H	0.360940	-0.113735	0.979443
H831	H	-0.165433	-0.647865	0.522640
H832	H	0.334567	-0.147865	1.022640
H833	H	-0.127865	-0.673490	0.361973
H834	H	0.372135	-0.173490	0.861973
H835	H	-0.223768	-0.527810	0.290539
H836	H	0.276232	-0.027810	0.790539
O837	O	-0.227963	-0.603142	0.445216
O838	O	0.272037	-0.103142	0.945216
C839	C	-0.256650	-0.628079	0.457138
C840	C	0.243350	-0.128079	0.957138
H841	H	-0.264022	-0.619127	0.424414
H842	H	0.235978	-0.119127	0.924414
H843	H	-0.237573	-0.667783	0.470782
H844	H	0.262427	-0.167783	0.970782
C845	C	-0.294745	-0.624775	0.536127
C846	C	0.205255	-0.124775	1.036127
C847	C	-0.303802	-0.613776	0.495936
C848	C	0.196198	-0.113776	0.995936
H849	H	-0.323830	-0.615955	0.560060
H850	H	0.176170	-0.115955	1.060060
H851	H	-0.275417	-0.607976	0.528095
H852	H	0.224583	-0.107976	1.028095
H853	H	-0.278846	-0.657861	0.547491
H854	H	0.221154	-0.157861	1.047491
H855	H	-0.319695	-0.580690	0.484569
H856	H	0.180305	-0.080690	0.984569
H857	H	-0.323134	-0.630569	0.503966
H858	H	0.176866	-0.130569	1.003966
H859	H	-0.133793	-0.557888	0.260690
H860	H	0.366207	-0.057888	0.760690
