data_functionalizedCrystal
_audit_creation_method	'MofGen! by Chris Wilmer'
_symmetry_space_group_name_H-M	'P1'
_symmetry_Int_Tables_number	1
_symmetry_cell_setting	triclinic
loop_
_symmetry_equiv_pos_as_xyz
  x,y,z
_cell_length_a	10.968094
_cell_length_b	14.519731
_cell_length_c	10.065875
_cell_angle_alpha	98.805316
_cell_angle_beta	93.118877
_cell_angle_gamma	84.210617
loop_
_atom_site_label
_atom_site_type_symbol
_atom_site_fract_x
_atom_site_fract_y
_atom_site_fract_z
O1	O	1.613229	0.160803	0.265874
O2	O	1.946562	0.494136	0.599208
O3	O	2.279895	0.827470	0.932541
O4	O	1.263196	0.163442	0.183557
O5	O	1.596529	0.496776	0.516890
O6	O	1.929862	0.830109	0.850223
O7	O	1.447478	0.028194	0.226907
O8	O	1.780811	0.361527	0.560240
O9	O	2.114144	0.694861	0.893574
O10	O	1.428947	0.296051	0.222524
O11	O	1.762280	0.629385	0.555858
O12	O	2.095613	0.962718	0.889191
O13	O	1.412338	0.054092	0.445629
O14	O	1.745671	0.387426	0.778963
O15	O	2.079004	0.720759	1.112296
O16	O	1.228056	0.189341	0.402279
O17	O	1.561389	0.522674	0.735613
O18	O	1.894723	0.856007	1.068946
O19	O	1.578089	0.186701	0.484597
O20	O	1.911422	0.520035	0.817930
O21	O	2.244755	0.853368	1.151264
Zn22	Zn	1.397493	0.192133	0.478165
Zn23	Zn	1.730826	0.525466	0.811498
Zn24	Zn	2.064160	0.858800	1.144832
Zn25	Zn	1.443791	0.158011	0.189989
Zn26	Zn	1.777125	0.491344	0.523322
Zn27	Zn	2.110458	0.824677	0.856655
O28	O	1.393807	0.321950	0.441247
O29	O	1.727140	0.655283	0.774580
O30	O	2.060474	0.988616	1.107913
C31	C	1.200828	0.174244	0.282383
C32	C	1.534161	0.507577	0.615716
C33	C	1.867495	0.840910	0.949050
C34	C	1.067345	0.167833	0.250992
C35	C	1.400679	0.501167	0.584325
C36	C	1.734012	0.834500	0.917659
C37	C	1.429039	0.006755	0.336064
C38	C	1.762372	0.340088	0.669398
C39	C	2.095706	0.673422	1.002731
C40	C	1.426437	-0.095711	0.335453
C41	C	1.759770	0.237622	0.668786
C42	C	2.093103	0.570955	1.002120
C43	C	0.851665	0.171755	0.317850
C44	C	1.184998	0.505088	0.651183
C45	C	1.518331	0.838422	0.984516
C46	C	0.989623	0.178389	0.350307
C47	C	1.322956	0.511722	0.683640
C48	C	1.656289	0.845056	1.016973
C49	C	1.424322	-0.178926	0.334953
C50	C	1.757656	0.154407	0.668286
C51	C	2.090989	0.487741	1.001619
C52	C	1.421682	-0.283323	0.334321
C53	C	1.755015	0.050010	0.667655
C54	C	2.088349	0.383343	1.000988
C55	C	1.419586	-0.366533	0.333820
C56	C	1.752920	-0.033200	0.667153
C57	C	2.086253	0.300134	1.000486
C58	C	1.416945	-0.470937	0.333191
C59	C	1.750279	-0.137603	0.666524
C60	C	2.083612	0.195730	0.999857
C61	C	1.640457	0.175900	0.385768
C62	C	1.973790	0.509233	0.719101
C63	C	2.307123	0.842566	1.052434
C64	C	1.773941	0.182309	0.417150
C65	C	2.107274	0.515642	0.750483
C66	C	2.440608	0.848976	1.083817
C67	C	1.412246	0.343388	0.332087
C68	C	1.745579	0.676722	0.665420
C69	C	2.078913	1.010055	0.998753
C70	C	1.414850	0.445854	0.332689
C71	C	1.748183	0.779187	0.666022
C72	C	2.081516	1.112520	0.999356
N73	N	1.365905	0.215420	0.674840
N74	N	1.699238	0.548754	1.008173
N75	N	2.032571	0.882087	1.341506
N76	N	1.475389	0.134716	-0.006684
N77	N	1.808723	0.468050	0.326649
N78	N	2.142056	0.801383	0.659983
C79	C	1.432793	0.166107	0.758353
C80	C	1.766126	0.499440	1.091687
C81	C	2.099460	0.832774	1.425020
C82	C	1.408491	0.184037	0.909804
C83	C	1.741824	0.517370	1.243137
C84	C	2.075158	0.850704	1.576470
H85	H	0.816073	0.157803	0.208806
H86	H	1.149407	0.491136	0.542140
H87	H	1.482740	0.824469	0.875473
N88	N	1.034228	0.195883	0.487122
N89	N	1.367562	0.529217	0.820455
N90	N	1.700895	0.862550	1.153789
N91	N	1.018412	0.140085	0.566283
N92	N	1.351746	0.473419	0.899616
N93	N	1.685079	0.806752	1.232950
H94	H	1.049913	0.152442	0.662909
H95	H	1.383246	0.485775	0.996242
H96	H	1.716579	0.819108	1.329576
H97	H	1.031761	0.153887	0.141941
H98	H	1.365094	0.487220	0.475274
H99	H	1.698427	0.820553	0.808607
H100	H	0.809534	0.196252	0.526194
H101	H	1.142867	0.529585	0.859527
H102	H	1.476201	0.862918	1.192860
H103	H	1.508047	0.110610	0.717732
H104	H	1.841380	0.443943	1.051065
H105	H	2.174713	0.777277	1.384398
N106	N	1.314069	0.253647	0.960765
N107	N	1.647402	0.586980	1.294098
N108	N	1.980736	0.920313	1.627432
N109	N	1.294457	0.268110	1.083720
N110	N	1.627790	0.601443	1.417054
N111	N	1.961124	0.934776	1.750387
H112	H	1.227771	0.317270	1.119715
H113	H	1.561105	0.650603	1.453049
H114	H	1.894438	0.983936	1.786382
N115	N	1.569805	0.065084	0.942401
N116	N	1.903138	0.398418	1.275735
N117	N	2.236471	0.731751	1.609068
N118	N	1.543602	-0.002466	0.856498
N119	N	1.876936	0.330868	1.189832
N120	N	2.210269	0.664201	1.523165
H121	H	1.610286	-0.051643	0.820549
H122	H	1.943619	0.281690	1.153882
H123	H	2.276953	0.615024	1.487215
N124	N	1.271487	0.285026	0.725807
N125	N	1.604821	0.618360	1.059141
N126	N	1.938154	0.951693	1.392474
N127	N	1.251875	0.299489	0.848763
N128	N	1.585209	0.632823	1.182096
N129	N	1.918542	0.966156	1.515429
H130	H	1.185190	0.348649	0.884758
H131	H	1.518523	0.681983	1.218091
H132	H	1.851856	1.015316	1.551424
