data_functionalizedCrystal
_audit_creation_method	'MofGen! by Chris Wilmer'
_symmetry_space_group_name_H-M	'P1'
_symmetry_Int_Tables_number	1
_symmetry_cell_setting	triclinic
loop_
_symmetry_equiv_pos_as_xyz
  x,y,z
_cell_length_a	16.992694
_cell_length_b	16.974813
_cell_length_c	9.130313
_cell_angle_alpha	86.340922
_cell_angle_beta	90.002155
_cell_angle_gamma	87.024634
loop_
_atom_site_label
_atom_site_type_symbol
_atom_site_fract_x
_atom_site_fract_y
_atom_site_fract_z
O1	O	1.040210	0.167649	-0.141484
O2	O	0.811926	0.165810	-0.141309
O3	O	0.932432	0.052028	-0.127793
O4	O	0.919704	0.281431	-0.155000
O5	O	0.932424	0.052024	0.115807
O6	O	0.811918	0.165806	0.102291
O7	O	1.040201	0.167645	0.102116
Cu8	Cu	0.926059	0.166725	0.124446
Cu9	Cu	0.926069	0.166730	-0.163639
O10	O	0.919696	0.281427	0.088600
C11	C	0.782712	0.163442	-0.019234
C12	C	0.695676	0.156382	-0.018414
C13	C	0.645362	0.224498	-0.026491
C14	C	0.563582	0.217860	-0.025684
C15	C	0.532118	0.143106	-0.016809
C16	C	0.582439	0.074985	-0.008727
C17	C	0.664216	0.081623	-0.009524
C18	C	0.288550	0.115591	-0.013507
C19	C	0.206766	0.108957	-0.012715
C20	C	0.187915	0.251833	-0.029669
C21	C	0.269695	0.258465	-0.030474
C22	C	0.320009	0.190344	-0.022384
N23	N	0.448527	0.136319	-0.015988
N24	N	0.403598	0.197132	-0.023194
C25	C	0.931944	0.022537	-0.002499
C26	C	0.930491	-0.065332	0.007912
C27	C	0.929816	-0.106606	-0.119982
C28	C	0.928446	-0.189167	-0.110196
C29	C	0.927758	-0.230454	0.027486
C30	C	0.928432	-0.189173	0.155390
C31	C	0.929796	-0.106613	0.145602
C32	C	0.923674	-0.477373	0.070998
C33	C	0.922312	-0.559939	0.080777
C34	C	0.922325	-0.559927	-0.184810
C35	C	0.923693	-0.477366	-0.194586
C36	C	0.924363	-0.436093	-0.066682
N37	N	0.926361	-0.314845	0.037493
N38	N	0.925754	-0.351702	-0.076690
C39	C	1.069415	0.170013	-0.019962
C40	C	1.156452	0.177073	-0.020792
C41	C	0.920184	0.310918	-0.036697
C42	C	0.921636	0.398786	-0.047117
N43	N	0.926058	0.166722	0.327069
N44	N	0.926076	0.166727	-0.366261
C45	C	0.979435	0.116363	0.409703
C46	C	0.979443	0.116363	0.563040
C47	C	0.872693	0.217089	0.551094
C48	C	0.872682	0.217083	0.397761
H49	H	0.329506	0.060122	-0.006918
H50	H	0.295307	0.319338	-0.037717
H51	H	0.829212	0.258092	0.330475
O52	O	0.551747	0.002428	-0.000176
C53	C	0.434121	-0.071121	0.008648
C54	C	0.468772	0.011099	-0.001072
H55	H	0.367032	-0.064138	0.007958
H56	H	0.454788	-0.105059	-0.089296
H57	H	0.454900	-0.105039	0.114593
H58	H	0.448008	0.045083	-0.106955
H59	H	0.448108	0.044977	0.096947
H60	H	0.146942	0.307293	-0.036252
H61	H	0.921748	-0.593552	0.192900
O62	O	0.713062	0.015433	-0.001942
C63	C	0.754164	-0.104672	-0.113854
C64	C	0.698815	-0.029733	-0.122644
H65	H	0.742653	-0.141218	-0.211411
H66	H	0.818032	-0.087132	-0.116033
H67	H	0.742745	-0.141172	-0.007530
H68	H	0.710164	0.006801	-0.228954
H69	H	0.634965	-0.047328	-0.120382
H70	H	0.930380	-0.072996	-0.232098
O71	O	0.176331	0.036276	-0.004022
C72	C	0.203654	-0.104738	0.012617
C73	C	0.238226	-0.022482	0.002824
H74	H	0.253679	-0.152265	0.018124
H75	H	0.165867	-0.111468	0.115382
H76	H	0.165811	-0.111372	-0.088521
H77	H	0.276105	-0.015792	0.103886
H78	H	0.275968	-0.015789	-0.100004
H79	H	1.022896	0.075354	0.352150
O80	O	0.924382	-0.437414	0.195385
C81	C	0.924227	-0.446146	0.459842
C82	C	0.923428	-0.491503	0.319086
H83	H	0.923440	-0.489856	0.559890
H84	H	0.979727	-0.411295	0.462434
H85	H	0.870042	-0.403695	0.461398
H86	H	0.977575	-0.533993	0.317437
H87	H	0.867892	-0.526301	0.316550
H88	H	0.930335	-0.073008	0.249747
H89	H	0.927899	-0.222769	-0.214341
O90	O	1.031371	0.067421	0.643085
C91	C	1.137222	-0.032516	0.638745
C92	C	1.078467	0.022887	0.547916
H93	H	1.175304	-0.068549	0.561841
H94	H	1.176406	0.004083	0.706143
H95	H	1.103410	-0.074141	0.715518
H96	H	1.112215	0.064522	0.471063
H97	H	1.039284	-0.013761	0.480617
O98	O	0.820742	0.265924	0.619715
C99	C	0.684369	0.303584	0.662124
C100	C	0.743116	0.248214	0.584356
H101	H	0.621596	0.289297	0.633540
H102	H	0.693479	0.294934	0.785928
H103	H	0.694548	0.367559	0.624395
H104	H	0.732973	0.184219	0.621965
H105	H	0.733992	0.256933	0.460565
O106	O	0.924229	-0.437131	-0.328216
C107	C	0.925901	-0.309908	-0.460995
C108	C	0.925419	-0.355383	-0.309566
H109	H	0.926847	-0.243806	-0.445969
H110	H	0.980419	-0.329756	-0.524424
H111	H	0.870729	-0.322501	-0.524708
H112	H	0.980553	-0.342812	-0.245733
H113	H	0.870864	-0.335530	-0.246249
H114	H	0.927867	-0.222795	0.267493
O115	O	0.676052	0.297055	-0.035175
C116	C	0.793676	0.370606	-0.043835
C117	C	0.759028	0.288386	-0.034032
H118	H	0.860766	0.363626	-0.042884
H119	H	0.772997	0.404543	-0.149829
H120	H	0.772907	0.404525	0.054065
H121	H	0.779781	0.254402	-0.131855
H122	H	0.779703	0.254509	0.072022
O123	O	0.514819	0.284108	-0.033607
C124	C	0.504752	0.426521	-0.050423
C125	C	0.560065	0.351557	-0.041496
H126	H	0.541311	0.481072	-0.056773
H127	H	0.466000	0.427041	-0.152445
H128	H	0.465987	0.426942	0.051458
H129	H	0.598880	0.351086	-0.143302
H130	H	0.598764	0.351067	0.060590
O131	O	0.921548	-0.599933	-0.309142
C132	C	0.853180	-0.620559	-0.533619
C133	C	0.853987	-0.575181	-0.392889
H134	H	0.798554	-0.600577	-0.601353
H135	H	0.908248	-0.608090	-0.600707
H136	H	0.852118	-0.686655	-0.502923
H137	H	0.855022	-0.509073	-0.423454
H138	H	0.798922	-0.587716	-0.325838
