data_functionalizedCrystal
_audit_creation_method	'MofGen! by Chris Wilmer'
_symmetry_space_group_name_H-M	'P1'
_symmetry_Int_Tables_number	1
_symmetry_cell_setting	triclinic
loop_
_symmetry_equiv_pos_as_xyz
  x,y,z
_cell_length_a	10.685661
_cell_length_b	10.685194
_cell_length_c	10.685880
_cell_angle_alpha	90.299888
_cell_angle_beta	81.602365
_cell_angle_gamma	89.666250
loop_
_atom_site_label
_atom_site_type_symbol
_atom_site_fract_x
_atom_site_fract_y
_atom_site_fract_z
Zn1	Zn	1.936574	-0.712836	-0.806950
Zn2	Zn	1.904321	-0.903946	-0.578828
Zn3	Zn	1.710886	-0.678287	-0.581352
Zn4	Zn	1.708449	-0.903833	-0.774793
O5	O	1.815058	-0.799725	-0.685481
O6	O	2.108719	-0.752693	-0.789091
O7	O	1.866183	-0.859600	-0.402738
O8	O	1.755342	-0.508498	-0.625792
O9	O	2.085023	-0.893101	-0.621491
O10	O	1.921154	-0.533881	-0.791538
O11	O	1.724067	-0.693809	-0.404592
O12	O	1.534139	-0.693700	-0.594611
O13	O	1.751189	-0.892908	-0.955484
O14	O	1.532349	-0.859408	-0.736731
O15	O	1.918791	-0.752583	-0.979110
O16	O	1.863820	-1.078303	-0.590309
O17	O	1.719914	-1.078220	-0.734284
C18	C	1.487499	-0.772794	-0.662456
C19	C	1.347368	-0.761305	-0.652633
C20	C	1.788139	-1.123479	-0.658563
C21	C	1.776741	-1.261996	-0.647098
C22	C	2.143895	-0.826763	-0.708596
C23	C	2.284026	-0.838285	-0.718447
C24	C	1.838316	-0.826587	-1.014321
C25	C	1.848227	-0.838034	-1.154453
C26	C	1.842117	-0.474712	-0.712534
C27	C	1.853649	-0.336211	-0.724062
C28	C	1.791970	-0.772884	-0.357932
C29	C	1.782332	-0.761106	-0.217847
H30	H	1.337003	-0.912974	-0.782316
H31	H	1.702161	-1.304431	-0.572434
C32	C	1.276646	-0.661895	-0.567277
C33	C	1.189492	-0.719603	-0.475239
C34	C	1.124337	-0.628074	-0.396572
H35	H	1.233088	-0.607404	-0.616375
H36	H	1.335134	-0.615163	-0.527228
H37	H	1.131012	-0.766314	-0.515285
H38	H	1.233017	-0.774086	-0.426111
H39	H	1.182824	-0.581342	-0.356523
H40	H	1.080786	-0.573588	-0.445681
H41	H	1.065203	-0.667216	-0.334108
C42	C	1.953044	-1.279406	-0.823502
C43	C	1.945005	-1.148705	-0.815462
C44	C	2.036560	-1.096327	-0.907036
H45	H	1.938882	-1.305922	-0.905224
H46	H	2.034775	-1.306006	-0.809335
H47	H	1.863294	-1.122116	-0.829639
H48	H	1.959181	-1.122155	-0.733760
H49	H	2.118290	-1.122927	-0.892869
H50	H	2.022390	-1.122852	-0.988752
H51	H	2.031126	-1.007642	-0.901586
C52	C	1.697101	-0.661645	-1.147057
C53	C	1.703908	-0.669654	-1.017483
C54	C	1.625422	-0.578039	-0.952225
H55	H	1.612326	-0.674558	-1.160961
H56	H	1.724039	-0.581144	-1.176770
H57	H	1.676963	-0.750135	-0.987779
H58	H	1.788665	-0.656728	-1.003541
H59	H	1.652360	-0.497538	-0.981939
H60	H	1.540652	-0.590960	-0.966139
H61	H	1.630039	-0.583453	-0.864304
H62	H	1.912234	-0.912660	-1.207391
