data_functionalizedCrystal
_audit_creation_method	'MofGen! by Chris Wilmer'
_symmetry_space_group_name_H-M	'P1'
_symmetry_Int_Tables_number	1
_symmetry_cell_setting	triclinic
loop_
_symmetry_equiv_pos_as_xyz
  x,y,z
_cell_length_a	12.594516
_cell_length_b	13.032831
_cell_length_c	13.032268
_cell_angle_alpha	90.886977
_cell_angle_beta	82.847564
_cell_angle_gamma	97.178696
loop_
_atom_site_label
_atom_site_type_symbol
_atom_site_fract_x
_atom_site_fract_y
_atom_site_fract_z
Zn1	Zn	-0.718822	-1.498496	0.780872
Zn2	Zn	-0.218822	-0.998496	1.280872
Zn3	Zn	-0.877407	-1.520242	0.608900
Zn4	Zn	-0.377407	-1.020242	1.108900
Zn5	Zn	-0.674358	-1.348353	0.587111
Zn6	Zn	-0.174358	-0.848353	1.087111
Zn7	Zn	-0.871652	-1.326490	0.759025
Zn8	Zn	-0.371652	-0.826490	1.259025
O9	O	-0.785560	-1.423395	0.683977
O10	O	-0.285560	-0.923395	1.183977
O11	O	-0.760876	-1.645302	0.776322
O12	O	-0.260876	-1.145302	1.276322
O13	O	-0.834272	-1.515691	0.462092
O14	O	-0.334272	-1.015691	0.962092
O15	O	-0.531320	-1.368319	0.612838
O16	O	-0.031320	-0.868319	1.112838
O17	O	-0.877387	-1.661279	0.649975
O18	O	-0.377387	-1.161279	1.149975
O19	O	-0.563987	-1.478628	0.755193
O20	O	-0.063987	-0.978628	1.255193
O21	O	-0.685093	-1.389406	0.446084
O22	O	-0.185093	-0.889406	0.946084
O23	O	-0.679512	-1.201532	0.591654
O24	O	-0.179512	-0.701532	1.091654
O25	O	-0.867579	-1.331056	0.905841
O26	O	-0.367579	-0.831056	1.405841
O27	O	-0.824463	-1.185469	0.717958
O28	O	-0.324463	-0.685469	1.217958
O29	O	-0.755295	-1.457428	0.921892
O30	O	-0.255295	-0.957428	1.421892
O31	O	-1.025580	-1.494491	0.628791
O32	O	-0.525580	-0.994491	1.128791
O33	O	-1.021351	-1.352143	0.739087
O34	O	-0.521351	-0.852143	1.239087
C35	C	-0.746539	-1.156183	0.650071
C36	C	-0.246539	-0.656183	1.150071
C37	C	-0.729875	-1.041866	0.635591
C38	C	-0.229875	-0.541866	1.135591
C39	C	-0.815755	-1.389378	0.952226
C40	C	-0.315755	-0.889378	1.452226
C41	C	-0.828622	-1.374882	1.066537
C42	C	-0.328622	-0.874882	1.566537
C43	C	-1.062090	-1.423329	0.683958
C44	C	-0.562090	-0.923329	1.183958
C45	C	-1.180408	-1.423391	0.683997
C46	C	-0.680408	-0.923391	1.183997
C47	C	-1.247394	-1.345967	0.743938
C48	C	-0.747394	-0.845967	1.243938
C49	C	-1.304009	-1.332833	0.646920
C50	C	-0.804009	-0.832833	1.146920
C51	C	-1.334607	-1.436617	0.781043
C52	C	-0.834607	-0.936617	1.281043
C53	C	-1.235453	-1.410213	0.586923
C54	C	-0.735453	-0.910213	1.086923
C55	C	-1.266057	-1.514033	0.721115
C56	C	-0.766057	-1.014033	1.221115
C57	C	-1.322639	-1.500943	0.624037
C58	C	-0.822639	-1.000943	1.124037
C59	C	-0.507956	-1.423487	0.684022
C60	C	-0.007956	-0.923487	1.184022
C61	C	-0.389658	-1.423526	0.684041
C62	C	0.110342	-0.923526	1.184041
C63	C	-0.824733	-1.691651	0.718016
C64	C	-0.324733	-1.191651	1.218016
C65	C	-0.841426	-1.805965	0.732521
C66	C	-0.341426	-1.305965	1.232521
C67	C	-0.794257	-0.982991	0.691535
C68	C	-0.294257	-0.482991	1.191535
C69	C	-0.777035	-0.864838	0.676569
C70	C	-0.277035	-0.364838	1.176569
C71	C	-0.755414	-1.457340	0.416779
C72	C	-0.255414	-0.957340	0.916779
C73	C	-0.742276	-1.472035	0.302494
C74	C	-0.242276	-0.972035	0.802494
C75	C	-0.778803	-1.430945	1.125443
C76	C	-0.278803	-0.930945	1.625443
C77	C	-0.792101	-1.415964	1.243590
C78	C	-0.292101	-0.915964	1.743590
H79	H	-1.214409	-1.280399	0.794530
H80	H	-0.714409	-0.780399	1.294530
H81	H	-0.726303	-1.490030	1.088406
H82	H	-0.226303	-0.990030	1.588406
O83	O	-0.891397	-1.304452	1.110603
O84	O	-0.391397	-0.804452	1.610603
C85	C	-0.997836	-1.330207	1.087284
C86	C	-0.497836	-0.830207	1.587284
H87	H	-0.997095	-1.379566	1.014275
H88	H	-0.497095	-0.879566	1.514275
H89	H	-1.034324	-1.256416	1.074291
H90	H	-0.534324	-0.756416	1.574291
H91	H	-1.048157	-1.375462	1.154429
H92	H	-0.548157	-0.875462	1.654429
O93	O	-1.324511	-1.241375	0.609642
O94	O	-0.824511	-0.741375	1.109642
C95	C	-1.286127	-1.159879	0.673018
C96	C	-0.786127	-0.659879	1.173018
H97	H	-1.280595	-1.191204	0.753115
H98	H	-0.780595	-0.691204	1.253115
H99	H	-1.343911	-1.098717	0.679866
H100	H	-0.843911	-0.598717	1.179866
H101	H	-1.202838	-1.123817	0.637321
H102	H	-0.702838	-0.623817	1.137321
H103	H	-0.862124	-1.020059	0.750512
H104	H	-0.362124	-0.520059	1.250512
O105	O	-0.922426	-0.849999	0.802960
O106	O	-0.422426	-0.349999	1.302960
C107	C	-0.978962	-0.772317	0.852049
C108	C	-0.478962	-0.272317	1.352049
H109	H	-0.924694	-0.695252	0.846047
H110	H	-0.424694	-0.195252	1.346047
H111	H	-1.004073	-0.793180	0.936976
H112	H	-0.504073	-0.293180	1.436976
H113	H	-1.053832	-0.765704	0.812820
H114	H	-0.553832	-0.265704	1.312820
O115	O	-1.184029	-1.396784	0.489061
O116	O	-0.684029	-0.896784	0.989061
C117	C	-1.072246	-1.396856	0.490222
C118	C	-0.572246	-0.896856	0.990222
H119	H	-1.050476	-1.374941	0.570701
H120	H	-0.550476	-0.874941	1.070701
H121	H	-1.026258	-1.338408	0.431454
H122	H	-0.526258	-0.838408	0.931454
H123	H	-1.049612	-1.477274	0.469447
H124	H	-0.549612	-0.977274	0.969447
O125	O	-1.361657	-1.579034	0.563357
O126	O	-0.861657	-1.079034	1.063357
C127	C	-1.310392	-1.564773	0.461187
C128	C	-0.810392	-1.064773	0.961187
H129	H	-1.278032	-1.479690	0.448331
H130	H	-0.778032	-0.979690	0.948331
H131	H	-1.370896	-1.589578	0.404619
H132	H	-0.870896	-1.089578	0.904619
H133	H	-1.240797	-1.613518	0.447993
H134	H	-0.740797	-1.113518	0.947993
O135	O	-1.245550	-1.605324	0.758753
O136	O	-0.745550	-1.105324	1.258753
C137	C	-1.296487	-1.618900	0.861104
C138	C	-0.796487	-1.118900	1.361104
H139	H	-1.310779	-1.540377	0.896167
H140	H	-0.810779	-1.040377	1.396167
H141	H	-1.242824	-1.657634	0.908909
H142	H	-0.742824	-1.157634	1.408909
H143	H	-1.377046	-1.669667	0.861002
H144	H	-0.877046	-1.169667	1.361002
O145	O	-1.385837	-1.449959	0.878986
O146	O	-0.885837	-0.949959	1.378986
C147	C	-1.309327	-1.458239	0.947775
C148	C	-0.809327	-0.958239	1.447775
H149	H	-1.233541	-1.484571	0.903566
H150	H	-0.733541	-0.984571	1.403566
H151	H	-1.344587	-1.517096	1.010594
H152	H	-0.844587	-1.017096	1.510594
H153	H	-1.287988	-1.379747	0.984790
H154	H	-0.787988	-0.879747	1.484790
H155	H	-0.662001	-1.004798	0.576621
H156	H	-0.162001	-0.504798	1.076621
H157	H	-0.709156	-0.827774	0.617595
H158	H	-0.209156	-0.327774	1.117595
H159	H	-0.844593	-1.356864	1.280621
H160	H	-0.344593	-0.856864	1.780621
O161	O	-0.679538	-1.542396	1.258203
O162	O	-0.179538	-1.042396	1.758203
C163	C	-0.595284	-1.491668	1.188675
C164	C	-0.095284	-0.991668	1.688675
H165	H	-0.619667	-1.415737	1.162781
H166	H	-0.119667	-0.915737	1.662781
H167	H	-0.578663	-1.543078	1.118409
H168	H	-0.078663	-1.043078	1.618409
H169	H	-0.519393	-1.475169	1.228609
H170	H	-0.019393	-0.975169	1.728609
