data_functionalizedCrystal
_audit_creation_method	'MofGen! by Chris Wilmer'
_symmetry_space_group_name_H-M	'P1'
_symmetry_Int_Tables_number	1
_symmetry_cell_setting	triclinic
loop_
_symmetry_equiv_pos_as_xyz
  x,y,z
_cell_length_a	27.440280
_cell_length_b	14.560438
_cell_length_c	14.560438
_cell_angle_alpha	59.999883
_cell_angle_beta	89.994691
_cell_angle_gamma	59.991707
loop_
_atom_site_label
_atom_site_type_symbol
_atom_site_fract_x
_atom_site_fract_y
_atom_site_fract_z
Zr1	Zr	0.469472	1.005225	-0.120559
O2	O	0.391649	1.196849	-0.267203
O3	O	0.493332	0.813612	-0.075605
O4	O	0.493328	1.005223	-0.267210
O5	O	0.391654	1.005236	0.075542
O6	O	0.573530	1.005208	-0.267215
O7	O	0.391654	1.005238	-0.075598
O8	O	0.573538	0.662452	0.075530
O9	O	0.391646	1.347992	-0.267203
O10	O	0.563358	0.892410	-0.056437
O11	O	0.503505	0.892419	0.056362
O12	O	0.503499	1.118016	-0.169228
O13	O	0.443645	1.118025	-0.056429
Zr14	Zr	0.597385	1.005197	0.120484
Zr15	Zr	0.597385	1.005201	-0.120568
Zr16	Zr	0.469472	1.005221	0.120493
Zr17	Zr	0.469466	1.246280	-0.120560
Zr18	Zr	0.597391	0.764141	0.120484
O19	O	0.573525	1.196809	0.075530
O20	O	0.573525	1.196815	-0.267215
O21	O	0.391649	1.196843	0.075542
O22	O	0.675208	0.813573	0.267127
O23	O	0.675208	0.813579	-0.075618
O24	O	0.493333	0.813606	0.267140
O25	O	0.675203	1.005186	-0.075618
O26	O	0.573530	1.005199	0.267134
O27	O	0.493328	1.005214	0.267140
O28	O	0.675204	1.005184	0.075523
O29	O	0.493319	1.347973	-0.267210
O30	O	0.573538	0.662449	0.267135
O31	O	0.675212	0.662430	0.267128
O32	O	0.675212	0.662433	0.075523
O33	O	0.391646	1.347988	-0.075599
O34	O	0.493319	1.347970	-0.075606
O35	O	0.563359	0.892406	0.169152
O36	O	0.623212	0.892397	0.056354
O37	O	0.563353	1.118003	-0.056437
O38	O	0.503499	1.118012	0.056362
C39	C	0.533436	0.703687	-0.000037
C40	C	0.533439	0.601352	-0.000037
C41	C	0.577610	0.373849	0.083228
C42	C	0.577621	0.469991	0.083226
C43	C	0.489245	0.636572	-0.083311
C44	C	0.489237	0.540431	-0.083314
C45	C	0.621792	0.242488	0.166503
C46	C	0.665986	0.207261	0.249776
C47	C	0.665997	0.303403	0.249775
C48	C	0.621814	0.434772	0.166500
C49	C	0.373429	1.005240	-0.000027
C50	C	0.319127	1.005250	-0.000023
C51	C	-0.017571	1.005183	-0.083304
C52	C	-0.068589	1.005174	-0.083305
O53	O	-0.094964	1.005127	-0.154095
N54	N	-0.094107	1.005175	-0.000041
C55	C	-0.068600	1.005172	0.083235
O56	O	-0.094990	1.005171	0.154057
C57	C	-0.017581	1.005172	0.083239
C58	C	0.007931	1.005184	-0.000037
C59	C	0.007941	1.005194	-0.166572
C60	C	0.058955	1.005206	-0.166572
C61	C	0.084457	1.005207	-0.083305
C62	C	0.058945	1.005196	-0.000037
C63	C	0.007927	1.005160	0.166519
C64	C	0.058950	1.005159	0.166516
C65	C	0.084462	1.005171	0.083241
C66	C	0.135460	1.005209	0.083231
N67	N	0.160978	1.005208	-0.000033
C68	C	0.135476	1.005207	-0.083300
C69	C	-0.175744	1.005170	0.083220
C70	C	-0.226765	1.005179	0.083212
C71	C	-0.226749	1.005179	-0.083326
C72	C	-0.175730	1.005179	-0.083322
C73	C	-0.150226	1.005169	-0.000043
C74	C	0.242608	1.005232	-0.083295
C75	C	0.293625	1.005249	-0.083291
C76	C	0.293607	1.005243	0.083251
C77	C	0.242593	1.005233	0.083243
C78	C	0.217096	1.005223	-0.000035
O79	O	0.161869	1.005251	0.153987
O80	O	0.161876	1.005191	-0.154103
C81	C	0.693428	1.005182	-0.000049
C82	C	0.747731	1.005172	-0.000052
C83	C	0.533429	1.005216	-0.301557
C84	C	0.533429	1.005218	-0.403890
C85	C	0.533421	1.306735	-0.000038
C86	C	0.533419	1.409069	-0.000038
C87	C	0.502180	1.122979	-0.510842
C88	C	0.502182	1.122973	-0.606991
C89	C	0.564681	0.887433	-0.489222
C90	C	0.564683	0.887441	-0.393076
C91	C	0.470926	1.240756	-0.521657
C92	C	0.439675	1.358528	-0.628613
C93	C	0.439676	1.358521	-0.724762
C94	C	0.470930	1.240744	-0.713954
C95	C	0.533429	1.005206	0.301482
C96	C	0.533429	1.005204	0.403815
C97	C	0.693436	0.703657	-0.000048
C98	C	0.747741	0.601313	-0.000052
C99	C	0.533436	0.703682	0.301482
C100	C	0.533439	0.601345	0.403815
C101	C	0.693436	0.703652	0.301471
C102	C	0.747741	0.601306	0.403801
C103	C	0.373422	1.306769	-0.301547
C104	C	0.319117	1.409116	-0.403876
C105	C	0.373422	1.306764	-0.000027
C106	C	0.319117	1.409109	-0.000024
C107	C	0.533421	1.306740	-0.301558
C108	C	0.533419	1.409076	-0.403891
C109	C	0.742000	0.553258	-0.058939
C110	C	0.793020	0.457108	-0.058965
C111	C	0.849781	0.409008	-0.000097
C112	C	0.855520	0.457073	0.058793
C113	C	0.804501	0.553228	0.058811
C114	C	0.804491	0.553239	0.392976
C115	C	0.855521	0.457087	0.489116
C116	C	0.849800	0.408998	0.596080
C117	C	0.793043	0.457075	0.606902
C118	C	0.742014	0.553231	0.510763
C119	C	0.262366	1.457195	-0.393051
C120	C	0.211336	1.553377	-0.489191
C121	C	0.217058	1.601471	-0.596155
C122	C	0.273814	1.553387	-0.606978
C123	C	0.324843	1.457214	-0.510839
C124	C	0.324858	1.457174	0.058854
C125	C	0.273838	1.553351	0.058853
C126	C	0.217077	1.601454	-0.000019
C127	C	0.211337	1.553385	-0.058904
C128	C	0.262357	1.457216	-0.058909
C129	C	0.564684	0.553256	0.510767
C130	C	0.564682	0.457105	0.606916
C131	C	0.502188	0.457138	0.489147
C132	C	0.502187	0.553294	0.393001
C133	C	0.595936	0.601308	0.521581
C134	C	0.627184	0.553217	0.628538
C135	C	0.627182	0.457067	0.724687
C136	C	0.595931	0.409007	0.713879
H137	H	0.621830	0.513050	0.166500
H138	H	0.701960	0.100298	0.317571
C139	C	0.786693	0.404243	-0.123739
N140	N	0.781925	0.364424	-0.172523
C141	C	0.917963	0.404139	0.123553
N142	N	0.964996	0.364259	0.172338
C143	C	0.595944	0.707070	0.415821
N144	N	0.595951	0.786727	0.336162
H145	H	0.414235	1.454416	-0.811847
C146	C	0.810800	0.606126	0.275324
N147	N	0.815557	0.645961	0.186711
C148	C	0.280098	1.606293	-0.724649
N149	N	0.284830	1.646136	-0.813282
H150	H	0.891356	0.330701	0.674353
H151	H	0.891319	0.330711	-0.000120
C152	C	0.148895	1.606294	-0.123640
N153	N	0.101861	1.646138	-0.172389
C154	C	0.440625	0.579175	-0.174911
N155	N	0.404011	0.608358	-0.243907
C156	C	0.214526	1.005230	0.174845
N157	N	0.193393	1.005215	0.243847
C158	C	0.661556	0.606088	0.640421
N159	N	0.687447	0.645908	0.649374
C160	C	0.661554	0.404171	0.842337
N161	N	0.687448	0.364326	0.930951
H162	H	0.595926	0.330724	0.792175
H163	H	0.257696	1.418042	-0.305964
C164	C	0.679567	0.606156	-0.123711
N165	N	0.632545	0.646000	-0.172508
C166	C	0.148910	1.606248	-0.477261
N167	N	0.101891	1.646068	-0.468272
H168	H	-0.154984	1.005172	0.151034
H169	H	0.788393	0.417907	0.694005
C170	C	0.467819	0.404260	0.477267
N171	N	0.441934	0.364427	0.468318
H172	H	0.476746	0.592447	0.305915
C173	C	0.679590	0.606092	0.522690
N174	N	0.632572	0.645905	0.531681
C175	C	0.160918	1.707254	-0.701901
N176	N	0.118632	1.786925	-0.781544
C177	C	0.917948	0.404208	0.477186
N178	N	0.964966	0.364379	0.468196
H179	H	0.371051	1.418069	-0.519666
C180	C	0.256032	1.404340	-0.123668
N181	N	0.251263	1.364516	-0.172446
H182	H	0.371071	1.418016	0.106802
H183	H	0.453274	0.743536	-0.151109
H184	H	-0.247538	1.005190	0.151013
H185	H	0.314394	1.005263	-0.151107
H186	H	0.470935	1.240748	-0.792250
C187	C	0.621781	0.136722	0.166515
N188	N	0.621772	0.057061	0.166526
C189	C	0.714612	0.264651	0.341372
N190	N	0.751230	0.235457	0.410370
C191	C	0.214568	1.005228	-0.174909
N192	N	0.193445	1.005233	-0.243916
H193	H	0.278523	1.592473	0.106808
C194	C	0.160959	1.707237	0.000004
N195	N	0.118693	1.786908	0.000029
H196	H	0.079725	1.005210	-0.234380
H197	H	-0.012817	1.005189	-0.234379
C198	C	-0.254807	1.005165	-0.174916
N199	N	-0.275942	1.005152	-0.243897
C200	C	-0.147668	1.005179	-0.174924
N201	N	-0.126534	1.005175	-0.243920
H202	H	0.079714	1.005147	0.234335
C203	C	-0.020121	1.005133	0.258137
N204	N	-0.041244	1.005106	0.327152
H205	H	0.314377	1.005249	0.151044
H206	H	0.470920	1.240775	-0.443374
H207	H	0.414233	1.454417	-0.637405
H208	H	0.809183	0.592342	0.106771
H209	H	0.590125	0.791545	-0.480433
H210	H	0.590127	0.791549	-0.305989
