data_functionalizedCrystal
_audit_creation_method	'MofGen! by Chris Wilmer'
_symmetry_space_group_name_H-M	'P1'
_symmetry_Int_Tables_number	1
_symmetry_cell_setting	triclinic
loop_
_symmetry_equiv_pos_as_xyz
  x,y,z
_cell_length_a	14.044220
_cell_length_b	14.971486
_cell_length_c	13.448316
_cell_angle_alpha	90.001801
_cell_angle_beta	89.992660
_cell_angle_gamma	91.598497
loop_
_atom_site_label
_atom_site_type_symbol
_atom_site_fract_x
_atom_site_fract_y
_atom_site_fract_z
O1	O	0.123538	-1.196679	-0.082579
O2	O	0.138332	-0.937445	-0.082607
O3	O	-0.007054	-1.063171	-0.082584
O4	O	0.268924	-1.070953	-0.082602
O5	O	-0.007063	-1.063153	0.082800
O6	O	0.138323	-0.937427	0.082777
O7	O	0.123529	-1.196661	0.082804
Cu8	Cu	0.130925	-1.067042	0.097892
Cu9	Cu	0.130936	-1.067064	-0.097694
O10	O	0.268915	-1.070935	0.082781
C11	C	-0.042377	-1.059755	0.000108
C12	C	-0.147614	-1.049594	0.000108
C13	C	0.137666	-0.904059	0.000082
C14	C	0.135683	-0.804606	0.000072
C15	C	0.124195	-1.230047	0.000114
C16	C	0.126178	-1.329501	0.000117
C17	C	-0.340297	-1.031018	0.000092
C18	C	-0.397848	-1.103085	0.000097
C19	C	-0.505063	-1.092748	0.000088
C20	C	-0.233071	-1.041353	0.000101
C21	C	0.304238	-1.074351	0.000087
C22	C	0.409475	-1.084512	0.000080
N23	N	0.130917	-1.067034	0.235456
C24	C	0.221093	-0.754109	0.000067
C25	C	0.219225	-0.660662	0.000082
C26	C	0.131945	-0.617714	0.000094
C27	C	0.046528	-0.668218	0.000102
C28	C	0.048398	-0.761663	0.000094
C29	C	0.042638	-0.473449	0.000116
C30	C	0.040767	-0.379997	0.000122
C31	C	0.213465	-0.372448	0.000104
C32	C	0.215334	-0.465893	0.000096
C33	C	0.129917	-0.516390	0.000102
N34	N	0.130936	-1.067079	-0.235258
C35	C	0.066567	-1.122727	0.287506
C36	C	0.066566	-1.122732	0.391610
C37	C	0.130921	-1.067049	0.443660
C38	C	0.195274	-1.011350	0.391603
C39	C	0.195270	-1.011341	0.287501
C40	C	0.195281	-1.011376	0.608583
C41	C	0.195287	-1.011386	0.712691
C42	C	0.066577	-1.122767	0.712691
C43	C	0.066572	-1.122757	0.608590
C44	C	0.130927	-1.067060	0.556539
H45	H	-0.371545	-0.961562	0.000082
H46	H	0.247670	-0.966007	0.433988
C47	C	0.313181	-0.605120	0.000078
C48	C	0.384674	-0.614847	-0.085812
C49	C	0.478636	-0.559307	-0.085812
C50	C	0.501104	-0.494039	0.000077
C51	C	0.429609	-0.484309	0.085973
C52	C	0.335647	-0.539849	0.085973
H53	H	0.368043	-0.663165	-0.149397
H54	H	0.531561	-0.566511	-0.149398
H55	H	0.570660	-0.452925	0.000077
H56	H	0.446240	-0.435991	0.149558
H57	H	0.282722	-0.532646	0.149559
H58	H	0.292167	-0.789070	0.000056
C59	C	-0.355642	-1.196926	0.000121
C60	C	-0.290718	-1.225541	0.086016
C61	C	-0.248508	-1.319379	0.086046
C62	C	-0.271223	-1.384602	0.000180
C63	C	-0.336151	-1.355989	-0.085721
C64	C	-0.378361	-1.262151	-0.085751
H65	H	-0.273900	-1.177257	0.149585
H66	H	-0.200444	-1.340560	0.149636
H67	H	-0.239977	-1.454066	0.000202
H68	H	-0.352970	-1.404272	-0.149289
H69	H	-0.426425	-1.240970	-0.149341
H70	H	-0.030303	-0.345032	0.000133
H71	H	0.247669	-0.965989	0.245123
H72	H	0.014177	-1.168118	0.755077
H73	H	0.286405	-0.500859	0.000077
C74	C	0.307428	-0.316909	0.000103
C75	C	0.329895	-0.251622	-0.085770
C76	C	0.423855	-0.196079	-0.085777
C77	C	0.495349	-0.205824	0.000090
C78	C	0.472884	-0.271114	0.085969
C79	C	0.378924	-0.326656	0.085976
H80	H	0.276969	-0.244406	-0.149339
H81	H	0.440484	-0.147748	-0.149351
H82	H	0.564904	-0.164708	0.000084
H83	H	0.525810	-0.278330	0.149538
H84	H	0.362294	-0.374988	0.149550
H85	H	-0.024537	-0.633242	0.000126
H86	H	-0.021152	-0.802776	0.000097
H87	H	-0.026919	-0.514561	0.000122
C88	C	-0.004215	-1.184008	0.551329
C89	C	-0.112170	-1.173903	0.565652
C90	C	-0.182960	-1.235152	0.508390
C91	C	-0.145795	-1.306506	0.436803
C92	C	-0.037835	-1.316614	0.422476
C93	C	0.032955	-1.255365	0.479739
H94	H	-0.139686	-1.121080	0.618648
H95	H	-0.262879	-1.227669	0.518996
H96	H	-0.198198	-1.351846	0.394414
H97	H	-0.010319	-1.369437	0.369480
H98	H	0.112874	-1.262848	0.469132
C99	C	0.266073	-0.950127	0.769944
C100	C	0.336848	-0.888855	0.712688
C101	C	0.407635	-0.827594	0.769938
C102	C	0.407647	-0.827605	0.884446
C103	C	0.336868	-0.888879	0.941709
C104	C	0.266081	-0.950140	0.884458
H105	H	0.336842	-0.888846	0.627917
H106	H	0.460030	-0.782235	0.727548
H107	H	0.460047	-0.782255	0.926826
H108	H	0.336874	-0.888888	1.026480
H109	H	0.213687	-0.995499	0.926849
H110	H	0.014166	-1.168080	0.433989
H111	H	0.014166	-1.168074	0.245134
H112	H	0.247682	-0.966017	0.566206
