data_functionalizedCrystal
_audit_creation_method	'MofGen! by Chris Wilmer'
_symmetry_space_group_name_H-M	'P1'
_symmetry_Int_Tables_number	1
_symmetry_cell_setting	triclinic
loop_
_symmetry_equiv_pos_as_xyz
  x,y,z
_cell_length_a	25.639242
_cell_length_b	18.215405
_cell_length_c	18.215399
_cell_angle_alpha	90.032960
_cell_angle_beta	89.974553
_cell_angle_gamma	89.979588
loop_
_atom_site_label
_atom_site_type_symbol
_atom_site_fract_x
_atom_site_fract_y
_atom_site_fract_z
Zn1	Zn	0.799292	0.293062	-0.416272
Zn2	Zn	0.799232	0.416139	-0.293200
Zn3	Zn	0.711863	0.293081	-0.293201
Zn4	Zn	0.711835	0.416082	-0.416206
O5	O	0.755555	0.354591	-0.354720
O6	O	0.872449	0.309404	-0.399973
O7	O	0.787629	0.399846	-0.190216
O8	O	0.723498	0.190094	-0.309554
O9	O	0.872405	0.399828	-0.309553
O10	O	0.787732	0.190080	-0.399974
O11	O	0.723440	0.309436	-0.190216
O12	O	0.638694	0.309381	-0.309491
O13	O	0.723449	0.399731	-0.519199
O14	O	0.638673	0.399750	-0.399862
O15	O	0.787704	0.309349	-0.519247
O16	O	0.787601	0.519115	-0.309489
O17	O	0.723391	0.519074	-0.399862
C18	C	0.755500	0.545797	-0.354684
C19	C	0.755525	0.627596	-0.354694
C20	C	0.619713	0.354562	-0.354670
C21	C	0.561599	0.354567	-0.354666
C22	C	0.755580	0.354532	-0.546673
C23	C	0.755591	0.354507	-0.628472
C24	C	0.201234	0.401724	-0.401732
C25	C	0.146629	0.401729	-0.401743
O26	O	0.118391	0.441787	-0.441718
N27	N	0.119316	0.354611	-0.354768
C28	C	0.146611	0.307481	-0.307783
O29	O	0.118365	0.267403	-0.267828
C30	C	0.201214	0.307473	-0.307775
C31	C	0.228524	0.354599	-0.354749
C32	C	0.228544	0.448846	-0.448702
C33	C	0.283144	0.448842	-0.448689
C34	C	0.310435	0.401717	-0.401706
C35	C	0.283125	0.354595	-0.354736
C36	C	0.228507	0.260339	-0.260795
C37	C	0.283114	0.260335	-0.260792
C38	C	0.310424	0.307461	-0.307765
C39	C	0.365016	0.307466	-0.307740
N40	N	0.392328	0.354584	-0.354716
C41	C	0.365038	0.401709	-0.401699
C42	C	0.031940	0.307499	-0.307803
C43	C	-0.022662	0.307510	-0.307806
C44	C	-0.022640	0.401758	-0.401767
C45	C	0.031964	0.401750	-0.401760
C46	C	0.059253	0.354617	-0.354778
C47	C	0.479703	0.401698	-0.401668
C48	C	0.534309	0.401692	-0.401649
C49	C	0.534281	0.307443	-0.307690
C50	C	0.479681	0.307451	-0.307706
C51	C	0.452393	0.354581	-0.354701
O52	O	0.393289	0.267426	-0.267788
O53	O	0.393291	0.441773	-0.441654
C54	C	0.891928	0.354620	-0.354770
C55	C	0.950043	0.354633	-0.354792
C56	C	0.755625	0.162638	-0.354771
C57	C	0.755655	0.080839	-0.354793
C58	C	0.789037	0.815787	-0.307724
C59	C	0.789061	0.892646	-0.307741
C60	C	0.722141	0.892642	-0.401769
C61	C	0.722120	0.815785	-0.401754
C62	C	0.755568	0.777359	-0.354727
C63	C	0.755612	0.931075	-0.354760
C64	C	0.755637	1.014409	-0.354779
C65	C	0.755544	0.694020	-0.354708
C66	C	0.722196	0.307399	-0.816667
C67	C	0.722205	0.307384	-0.893526
C68	C	0.789048	0.401527	-0.893514
C69	C	0.789036	0.401545	-0.816657
C70	C	0.755611	0.354477	-0.778235
C71	C	0.755632	0.354444	-0.931951
C72	C	0.755642	0.354428	-1.015285
C73	C	0.755600	0.354493	-0.694896
C74	C	0.755561	0.354596	-0.163513
C75	C	0.755652	0.354414	-0.081715
H76	H	0.556542	0.440071	-0.439901
H77	H	-0.044894	0.269143	-0.269548
H78	H	0.694978	0.269073	-0.785386
H79	H	0.305330	0.221949	-0.222537
H80	H	0.694908	0.923938	-0.440055
H81	H	0.694995	0.269049	-0.924813
H82	H	0.816316	0.923930	-0.269467
H83	H	0.816248	0.439885	-0.785365
H84	H	0.054196	0.440123	-0.440011
H85	H	0.694865	0.784495	-0.440034
H86	H	0.054156	0.269119	-0.269539
H87	H	0.457492	0.440074	-0.439937
H88	H	0.816262	0.439848	-0.924807
H89	H	0.206330	0.487221	-0.486965
H90	H	0.206281	0.221966	-0.222542
H91	H	0.556511	0.269077	-0.269436
H92	H	0.305376	0.487216	-0.486941
H93	H	-0.044870	0.440127	-0.440026
H94	H	0.816273	0.784503	-0.269433
H95	H	0.457444	0.269078	-0.269455
