data_functionalizedCrystal
_audit_creation_method	'MofGen! by Chris Wilmer'
_symmetry_space_group_name_H-M	'P1'
_symmetry_Int_Tables_number	1
_symmetry_cell_setting	triclinic
loop_
_symmetry_equiv_pos_as_xyz
  x,y,z
_cell_length_a	25.639242
_cell_length_b	18.101395
_cell_length_c	18.101389
_cell_angle_alpha	89.983159
_cell_angle_beta	90.027770
_cell_angle_gamma	89.973368
loop_
_atom_site_label
_atom_site_type_symbol
_atom_site_fract_x
_atom_site_fract_y
_atom_site_fract_z
Zn1	Zn	0.799282	0.294996	0.418915
Zn2	Zn	1.132615	0.628329	0.752248
Zn3	Zn	1.465948	0.961662	1.085582
Zn4	Zn	0.799208	0.418821	0.295077
Zn5	Zn	1.132541	0.752155	0.628410
Zn6	Zn	1.465875	1.085488	0.961743
Zn7	Zn	0.711849	0.294988	0.295069
Zn8	Zn	1.045183	0.628322	0.628402
Zn9	Zn	1.378516	0.961655	0.961735
Zn10	Zn	0.711815	0.418790	0.418858
Zn11	Zn	1.045148	0.752123	0.752191
Zn12	Zn	1.378481	1.085457	1.085525
O13	O	0.755538	0.356899	0.356980
O14	O	1.088872	0.690232	0.690313
O15	O	1.422205	1.023566	1.023646
O16	O	0.872437	0.311437	0.402515
O17	O	1.205770	0.644771	0.735848
O18	O	1.539104	0.978104	1.069181
O19	O	0.787604	0.402405	0.191443
O20	O	1.120937	0.735738	0.524776
O21	O	1.454270	1.069071	0.858109
O22	O	0.723493	0.191357	0.311517
O23	O	1.056826	0.524690	0.644851
O24	O	1.390159	0.858023	0.978184
O25	O	0.872383	0.402412	0.311531
O26	O	1.205716	0.735745	0.644865
O27	O	1.539050	1.069078	0.978198
O28	O	0.787729	0.191362	0.402507
O29	O	1.121062	0.524695	0.735840
O30	O	1.454395	0.858028	1.069173
O31	O	0.723421	0.311425	0.191437
O32	O	1.056755	0.644759	0.524770
O33	O	1.390088	0.978092	0.858103
O34	O	0.638679	0.311395	0.311462
O35	O	0.972013	0.644728	0.644796
O36	O	1.305346	0.978062	0.978129
O37	O	0.723433	0.402358	0.522498
O38	O	1.056767	0.735692	0.855832
O39	O	1.390100	1.069025	1.189165
O40	O	0.638654	0.402352	0.402410
O41	O	0.971987	0.735685	0.735743
O42	O	1.305321	1.069018	1.069076
O43	O	0.787695	0.311407	0.522540
O44	O	1.121028	0.644740	0.855874
O45	O	1.454362	0.978074	1.189207
O46	O	0.787570	0.522450	0.311476
O47	O	1.120903	0.855783	0.644809
O48	O	1.454236	1.189117	0.978143
O49	O	0.723362	0.522427	0.402418
O50	O	1.056695	0.855761	0.735751
O51	O	1.390029	1.189094	1.069084
C52	C	0.619696	0.356870	0.356929
C53	C	0.953029	0.690203	0.690263
C54	C	1.286362	1.023536	1.023596
C55	C	0.561582	0.356875	0.356925
C56	C	0.894915	0.690208	0.690259
C57	C	1.228248	1.023542	1.023592
C58	C	0.755468	0.549309	0.356958
C59	C	1.088802	0.882643	0.690291
C60	C	1.422135	1.215976	1.023624
C61	C	0.755486	0.631624	0.356973
C62	C	1.088820	0.964957	0.690306
C63	C	1.422153	1.298290	1.023640
C64	C	0.755569	0.356880	0.550142
C65	C	1.088902	0.690213	0.883475
C66	C	1.422235	1.023547	1.216808
C67	C	0.755581	0.356872	0.632456
C68	C	1.088915	0.690205	0.965789
C69	C	1.422248	1.023539	1.299122
C70	C	0.201214	0.404339	0.404291
C71	C	0.534548	0.737672	0.737624
C72	C	0.867881	1.071006	1.070958
C73	C	0.146610	0.404344	0.404303
C74	C	0.479943	0.737677	0.737636
C75	C	0.813277	1.071010	1.070969
O76	O	0.118369	0.444663	0.444532
O77	O	0.451703	0.777996	0.777865
O78	O	0.785036	1.111330	1.111199
N79	N	0.119299	0.356919	0.357028
N80	N	0.452633	0.690253	0.690361
N81	N	0.785966	1.023586	1.023694
C82	C	0.146596	0.309482	0.309744
C83	C	0.479929	0.642815	0.643077
C84	C	0.813262	0.976149	0.976410
O85	O	0.118352	0.269144	0.269534
O86	O	0.451685	0.602477	0.602868
O87	O	0.785019	0.935810	0.936201
C88	C	0.201199	0.309474	0.309736
C89	C	0.534532	0.642808	0.643069
C90	C	0.867866	0.976141	0.976403
C91	C	0.228507	0.356907	0.357009
C92	C	0.561840	0.690240	0.690342
C93	C	0.895174	1.023574	1.023675
C94	C	0.228522	0.451767	0.451560
C95	C	0.561856	0.785101	0.784894
C96	C	0.895189	1.118434	1.118227
C97	C	0.283123	0.451764	0.451547
C98	C	0.616456	0.785097	0.784881
C99	C	0.949789	1.118430	1.118214
C100	C	0.310415	0.404332	0.404265
C101	C	0.643749	0.737665	0.737599
C102	C	0.977082	1.070998	1.070932
C103	C	0.283107	0.356903	0.356996
C104	C	0.616441	0.690237	0.690329
C105	C	0.949774	1.023570	1.023663
C106	C	0.228495	0.262034	0.262456
C107	C	0.561828	0.595367	0.595789
C108	C	0.895161	0.928700	0.929123
C109	C	0.283102	0.262030	0.262453
C110	C	0.616435	0.595363	0.595787
C111	C	0.949768	0.928696	0.929120
C112	C	0.310409	0.309463	0.309726
C113	C	0.643743	0.642796	0.643059
C114	C	0.977076	0.976129	0.976393
C115	C	0.365001	0.309467	0.309701
C116	C	0.698334	0.642801	0.643034
C117	C	1.031667	0.976134	0.976368
N118	N	0.392311	0.356892	0.356976
N119	N	0.725645	0.690225	0.690309
N120	N	1.058978	1.023559	1.023642
C121	C	0.365019	0.404324	0.404258
C122	C	0.698352	0.737657	0.737591
C123	C	1.031685	1.070991	1.070925
C124	C	0.031925	0.309501	0.309764
C125	C	0.365258	0.642834	0.643097
C126	C	0.698592	0.976168	0.976430
C127	C	-0.022677	0.309512	0.309767
C128	C	0.310656	0.642845	0.643100
C129	C	0.643989	0.976178	0.976433
C130	C	-0.022659	0.404373	0.404327
C131	C	0.310674	0.737706	0.737660
C132	C	0.644007	1.071039	1.070994
C133	C	0.031944	0.404365	0.404320
C134	C	0.365277	0.737698	0.737653
C135	C	0.698611	1.071032	1.070986
C136	C	0.059236	0.356925	0.357038
C137	C	0.392569	0.690259	0.690372
C138	C	0.725902	1.023592	1.023705
C139	C	0.479684	0.404313	0.404227
C140	C	0.813017	0.737646	0.737560
C141	C	1.146350	1.070980	1.070894
C142	C	0.534289	0.404307	0.404208
C143	C	0.867622	0.737640	0.737541
C144	C	1.200956	1.070974	1.070874
C145	C	0.534266	0.309444	0.309650
C146	C	0.867600	0.642777	0.642984
C147	C	1.200933	0.976110	0.976317
C148	C	0.479666	0.309452	0.309667
C149	C	0.812999	0.642785	0.643000
C150	C	1.146332	0.976119	0.976333
C151	C	0.452376	0.356889	0.356961
C152	C	0.785709	0.690222	0.690294
C153	C	1.119042	1.023556	1.023627
O154	O	0.393276	0.269167	0.269494
O155	O	0.726609	0.602500	0.602827
O156	O	1.059942	0.935833	0.936161
O157	O	0.393269	0.444648	0.444467
O158	O	0.726602	0.777982	0.777801
O159	O	1.059936	1.111315	1.111134
C160	C	0.891911	0.356929	0.357030
C161	C	1.225245	0.690262	0.690364
C162	C	1.558578	1.023595	1.023697
C163	C	0.950025	0.356941	0.357052
C164	C	1.283359	0.690275	0.690385
C165	C	1.616692	1.023608	1.023719
C166	C	0.755623	0.163737	0.357018
C167	C	1.088956	0.497070	0.690351
C168	C	1.422289	0.830404	1.023684
C169	C	0.755659	0.081423	0.357034
C170	C	1.088992	0.414756	0.690367
C171	C	1.422325	0.748090	1.023701
C172	C	0.755601	0.930714	0.357013
C173	C	1.088934	1.264048	0.690346
C174	C	1.422268	1.597381	1.023680
C175	C	0.715297	0.899406	0.414373
C176	C	1.048630	1.232739	0.747706
C177	C	1.381964	1.566072	1.081040
C178	C	0.715105	0.813788	0.414194
C179	C	1.048439	1.147121	0.747527
C180	C	1.381772	1.480454	1.080860
C181	C	0.755544	0.782332	0.356994
C182	C	1.088877	1.115665	0.690327
C183	C	1.422211	1.448999	1.023661
C184	C	0.740627	0.813467	0.278941
C185	C	1.073960	1.146801	0.612275
C186	C	1.407293	1.480134	0.945608
C187	C	0.740367	0.899113	0.279284
C188	C	1.073700	1.232446	0.612618
C189	C	1.407034	1.565779	0.945951
C190	C	0.810911	0.899068	0.377019
C191	C	1.144244	1.232401	0.710352
C192	C	1.477577	1.565735	1.043686
C193	C	0.810585	0.813417	0.378730
C194	C	1.143919	1.146750	0.712064
C195	C	1.477252	1.480084	1.045397
C196	C	0.755513	0.698472	0.356978
C197	C	1.088846	1.031806	0.690312
C198	C	1.422179	1.365139	1.023645
C199	C	0.755631	1.014574	0.357023
C200	C	1.088964	1.347907	0.690357
C201	C	1.422298	1.681241	1.023690
C202	C	0.755538	0.356864	0.164569
C203	C	1.088872	0.690197	0.497902
C204	C	1.422205	1.023531	0.831236
C205	C	0.755627	0.356663	0.082255
C206	C	1.088960	0.689997	0.415589
C207	C	1.422293	1.023330	0.748922
C208	C	0.755612	0.356733	0.931547
C209	C	1.088945	0.690067	1.264880
C210	C	1.422279	1.023400	1.598213
C211	C	0.715041	0.413775	0.900195
C212	C	1.048374	0.747109	1.233529
C213	C	1.381708	1.080442	1.566862
C214	C	0.715151	0.414040	0.814577
C215	C	1.048484	0.747373	1.147910
C216	C	1.381817	1.080707	1.481244
C217	C	0.755596	0.356802	0.783164
C218	C	1.088930	0.690136	1.116498
C219	C	1.422263	1.023469	1.449831
C220	C	0.810683	0.377992	0.814275
C221	C	1.144016	0.711326	1.147608
C222	C	1.477349	1.044659	1.480942
C223	C	0.810456	0.378367	0.899920
C224	C	1.143790	0.711700	1.233253
C225	C	1.477123	1.045034	1.566587
C226	C	0.741576	0.278374	0.899968
C227	C	1.074909	0.611708	1.233301
C228	C	1.408242	0.945041	1.566634
C229	C	0.740350	0.278827	0.814317
C230	C	1.073683	0.612160	1.147650
C231	C	1.407017	0.945493	1.480983
C232	C	0.755591	0.356840	0.699305
C233	C	1.088924	0.690173	1.032638
C234	C	1.422258	1.023507	1.365971
C235	C	0.755621	0.356698	1.015406
C236	C	1.088954	0.690031	1.348740
C237	C	1.422288	1.023364	1.682073
H238	H	0.556521	0.442935	0.442703
H239	H	0.889854	0.776269	0.776037
H240	H	1.223187	1.109602	1.109370
H241	H	0.768449	0.919825	0.235089
H242	H	1.101783	1.253158	0.568422
H243	H	1.435116	1.586492	0.901756
H244	H	-0.044907	0.270895	0.271265
H245	H	0.288427	0.604228	0.604598
H246	H	0.621760	0.937561	0.937932
Br247	Br	0.672778	0.252195	0.780436
Br248	Br	1.006112	0.585528	1.113769
Br249	Br	1.339445	0.918861	1.447102
H250	H	0.724537	0.919965	0.472435
H251	H	1.057871	1.253298	0.805769
H252	H	1.391204	1.586632	1.139102
Br253	Br	0.788014	0.779513	0.205762
Br254	Br	1.121348	1.112846	0.539095
Br255	Br	1.454681	1.446179	0.872428
H256	H	0.700624	0.792075	0.261692
H257	H	1.033957	1.125408	0.595026
H258	H	1.367291	1.458742	0.928359
H259	H	0.822788	0.434665	0.792836
H260	H	1.156121	0.767999	1.126169
H261	H	1.489454	1.101332	1.459502
H262	H	0.724438	0.792735	0.472069
H263	H	1.057772	1.126069	0.805402
H264	H	1.391105	1.459402	1.138735
H265	H	0.054175	0.442988	0.442814
H266	H	0.387508	0.776321	0.776148
H267	H	0.720841	1.109654	1.109481
H268	H	0.457431	0.270830	0.271172
H269	H	0.790764	0.604163	0.604505
H270	H	1.124097	0.937497	0.937839
H271	H	0.724216	0.471503	0.921723
H272	H	1.057549	0.804836	1.255056
H273	H	1.390883	1.138170	1.588390
Br274	Br	0.647068	0.391932	0.779510
Br275	Br	0.980401	0.725266	1.112844
Br276	Br	1.313734	1.058599	1.446177
Br277	Br	0.863287	0.777716	0.314181
Br278	Br	1.196620	1.111050	0.647515
Br279	Br	1.529954	1.444383	0.980848
H280	H	0.824511	0.920628	0.432966
H281	H	1.157844	1.253961	0.766299
H282	H	1.491178	1.587294	1.099632
H283	H	0.702105	0.259070	0.921550
H284	H	1.035438	0.592403	1.254883
H285	H	1.368772	0.925736	1.588216
H286	H	0.767744	0.234071	0.792934
H287	H	1.101077	0.567404	1.126267
H288	H	1.434410	0.900737	1.459600
H289	H	0.771126	0.235875	0.920245
H290	H	1.104459	0.569208	1.253578
H291	H	1.437792	0.902542	1.586912
Br292	Br	0.068958	0.245116	0.245586
Br293	Br	0.402292	0.578450	0.578919
Br294	Br	0.735625	0.911783	0.912252
H295	H	0.821834	0.793066	0.436173
H296	H	1.155168	1.126399	0.769506
H297	H	1.488501	1.459732	1.102840
Br298	Br	0.320175	0.516137	0.515710
Br299	Br	0.653508	0.849470	0.849043
Br300	Br	0.986842	1.182804	1.182377
H301	H	0.674109	0.793358	0.400941
H302	H	1.007442	1.126691	0.734274
H303	H	1.340775	1.460024	1.067608
Br304	Br	0.830289	0.473839	0.933236
Br305	Br	1.163622	0.807172	1.266569
Br306	Br	1.496956	1.140506	1.599902
H307	H	0.457471	0.442939	0.442740
H308	H	0.790804	0.776272	0.776073
H309	H	1.124137	1.109606	1.109407
H310	H	0.840938	0.919313	0.335242
H311	H	1.174272	1.252647	0.668575
H312	H	1.507605	1.585980	1.001908
H313	H	0.305320	0.223393	0.223955
H314	H	0.638653	0.556727	0.557288
H315	H	0.971986	0.890060	0.890621
H316	H	-0.044891	0.442992	0.442829
H317	H	0.288443	0.776325	0.776163
H318	H	0.621776	1.109659	1.109496
H319	H	0.556498	0.270828	0.271152
H320	H	0.889831	0.604162	0.604485
H321	H	1.223165	0.937495	0.937819
H322	H	0.206270	0.223411	0.223960
H323	H	0.539603	0.556744	0.557293
H324	H	0.872936	0.890078	0.890626
H325	H	0.674549	0.920985	0.401287
H326	H	1.007883	1.254319	0.734620
H327	H	1.341216	1.587652	1.067954
H328	H	0.206306	0.490393	0.490067
H329	H	0.539640	0.823726	0.823401
H330	H	0.872973	1.157059	1.156734
Br331	Br	0.672980	0.932511	0.251040
Br332	Br	1.006313	1.265844	0.584373
Br333	Br	1.339647	1.599177	0.917707
Br334	Br	0.646748	0.391897	0.934490
Br335	Br	0.980081	0.725230	1.267823
Br336	Br	1.313414	1.058564	1.601156
Br337	Br	0.862514	0.312079	0.934496
Br338	Br	1.195847	0.645412	1.267829
Br339	Br	1.529181	0.978746	1.601163
Br340	Br	0.730627	0.510838	0.780435
Br341	Br	1.063960	0.844171	1.113769
Br342	Br	1.397294	1.177505	1.447102
H343	H	0.841723	0.337751	0.793931
H344	H	1.175056	0.671085	1.127264
H345	H	1.508389	1.004418	1.460597
