data_functionalizedCrystal
_audit_creation_method	'MofGen! by Chris Wilmer'
_symmetry_space_group_name_H-M	'P1'
_symmetry_Int_Tables_number	1
_symmetry_cell_setting	triclinic
loop_
_symmetry_equiv_pos_as_xyz
  x,y,z
_cell_length_a	10.654550
_cell_length_b	11.792241
_cell_length_c	9.730223
_cell_angle_alpha	89.998500
_cell_angle_beta	89.996251
_cell_angle_gamma	84.339159
loop_
_atom_site_label
_atom_site_type_symbol
_atom_site_fract_x
_atom_site_fract_y
_atom_site_fract_z
O1	O	1.667383	0.159415	-0.114404
O2	O	1.301862	0.174603	-0.114382
O3	O	1.493493	0.001859	-0.114383
O4	O	1.475752	0.332159	-0.114402
O5	O	1.493490	0.001863	0.114196
O6	O	1.301859	0.174608	0.114198
O7	O	1.667381	0.159419	0.114176
Zn8	Zn	1.484620	0.167014	0.150479
Zn9	Zn	1.484623	0.167008	-0.150685
O10	O	1.475750	0.332163	0.114178
C11	C	1.255066	0.173490	-0.000089
C12	C	1.115632	0.170154	-0.000080
C13	C	1.035858	0.271863	-0.000106
C14	C	0.904847	0.268721	-0.000129
C15	C	0.933394	0.062152	-0.000107
C16	C	1.064404	0.065295	-0.000074
C17	C	1.087087	0.376722	-0.000112
C18	C	1.007312	0.478439	-0.000139
C19	C	0.876300	0.475297	-0.000163
C20	C	0.825063	0.370438	-0.000159
C21	C	1.492377	-0.040432	-0.000094
C22	C	1.489042	-0.166454	-0.000095
C23	C	1.482908	-0.397180	-0.000118
C24	C	1.486316	-0.268787	-0.000105
C25	C	1.714177	0.160532	-0.000120
C26	C	1.853611	0.163869	-0.000137
C27	C	1.476865	0.374455	-0.000114
C28	C	1.480201	0.500476	-0.000122
N29	N	1.484627	0.167017	0.356016
N30	N	1.484625	0.166996	-0.356221
C31	C	1.569503	0.090552	0.427941
C32	C	1.569500	0.090539	0.571824
C33	C	1.399740	0.243465	0.571844
C34	C	1.399739	0.243472	0.427963
C35	C	1.654391	0.014098	0.355993
C36	C	1.739275	-0.062373	0.427919
C37	C	1.739272	-0.062387	0.571802
C38	C	1.654385	0.014070	0.643759
H39	H	1.049039	0.563812	-0.000130
H40	H	1.193762	0.379291	-0.000099
H41	H	1.808379	-0.124659	0.630362
C42	C	1.814589	-0.130321	0.207350
C43	C	1.832526	-0.146460	0.348828
H44	H	1.872149	-0.182245	0.158528
H45	H	1.730683	-0.143308	0.183810
H46	H	1.828791	-0.054466	0.183761
H47	H	1.818314	-0.222313	0.372419
H48	H	1.916452	-0.133481	0.372378
H49	H	0.811350	0.558120	-0.000171
H50	H	0.718383	0.367888	-0.000157
C51	C	1.561979	0.097384	0.149897
C52	C	1.654402	0.014118	0.197836
H53	H	1.561995	0.097404	0.052258
H54	H	1.481622	0.081156	0.182433
H55	H	1.579655	0.170066	0.182472
H56	H	1.636721	-0.058565	0.165269
H57	H	1.734778	0.030339	0.165286
C58	C	0.974766	-0.141717	-0.000085
C59	C	0.877078	-0.053104	-0.000117
H60	H	0.939997	-0.212872	-0.000087
H61	H	1.025292	-0.136197	-0.079776
H62	H	1.025248	-0.136188	0.079646
H63	H	0.826600	-0.058629	-0.079854
H64	H	0.826531	-0.058627	0.079582
C65	C	1.228344	-0.050995	-0.117531
C66	C	1.152107	-0.046500	-0.000051
H67	H	1.282494	-0.120011	-0.117505
H68	H	1.176665	-0.047942	-0.197241
H69	H	1.277590	0.011912	-0.117506
H70	H	1.102854	-0.109404	-0.000081
H71	H	1.203792	-0.049564	0.079680
H72	H	1.654381	0.014044	0.760918
H73	H	1.330630	0.305714	0.630441
C74	C	1.231953	0.394646	0.442424
C75	C	1.306450	0.327530	0.348892
H76	H	1.174364	0.446543	0.393605
H77	H	1.186461	0.347019	0.498540
H78	H	1.284515	0.435910	0.498544
H79	H	1.253888	0.286260	0.292778
H80	H	1.351945	0.375164	0.292753
