data_functionalizedCrystal
_audit_creation_method	'MofGen! by Chris Wilmer'
_symmetry_space_group_name_H-M	'P1'
_symmetry_Int_Tables_number	1
_symmetry_cell_setting	triclinic
loop_
_symmetry_equiv_pos_as_xyz
  x,y,z
_cell_length_a	14.908571
_cell_length_b	12.645330
_cell_length_c	14.908308
_cell_angle_alpha	93.270481
_cell_angle_beta	90.175053
_cell_angle_gamma	86.714080
loop_
_atom_site_label
_atom_site_type_symbol
_atom_site_fract_x
_atom_site_fract_y
_atom_site_fract_z
Zn1	Zn	1.345316	-0.553227	-0.587609
Zn2	Zn	1.353903	-0.720906	-0.437258
Zn3	Zn	1.203631	-0.532865	-0.428606
Zn4	Zn	1.194931	-0.719646	-0.578909
O5	O	1.274445	-0.631661	-0.508096
O6	O	1.472282	-0.584518	-0.574926
O7	O	1.341204	-0.687967	-0.310285
O8	O	1.222473	-0.387223	-0.449718
O9	O	1.478590	-0.707711	-0.464464
O10	O	1.326569	-0.402183	-0.566537
O11	O	1.230799	-0.549815	-0.303929
O12	O	1.076650	-0.548593	-0.441282
O13	O	1.207645	-0.705565	-0.705889
O14	O	1.070259	-0.685821	-0.551710
O15	O	1.318133	-0.583297	-0.712280
O16	O	1.332768	-0.869081	-0.456028
O17	O	1.215971	-0.868156	-0.560099
C18	C	1.040829	-0.614862	-0.494614
C19	C	0.940886	-0.607702	-0.488867
C20	C	0.746483	-0.737343	-0.592903
C21	C	0.652577	-0.730619	-0.587507
C22	C	0.659166	-0.587526	-0.472684
C23	C	0.753072	-0.594249	-0.478080
C24	C	0.796727	-0.669162	-0.538191
C25	C	0.890635	-0.675890	-0.543582
C26	C	0.897222	-0.532792	-0.428764
C27	C	0.803316	-0.526068	-0.423368
C28	C	1.274380	-0.907085	-0.508079
C29	C	1.274433	-1.024921	-0.508107
C30	C	1.201231	-1.191981	-0.573809
C31	C	1.200890	-1.069382	-0.573564
C32	C	1.254254	-1.061620	-0.411871
C33	C	1.253808	-1.184216	-0.412269
C34	C	1.368282	-1.200403	-0.537898
C35	C	1.367579	-1.077886	-0.539936
C36	C	1.508974	-0.648527	-0.521631
C37	C	1.608916	-0.655714	-0.527399
C38	C	1.260961	-0.646562	-0.742622
C39	C	1.255214	-0.652912	-0.842563
C40	C	1.274534	-0.355164	-0.508133
C41	C	1.274571	-0.237338	-0.508149
C42	C	1.359465	-0.537502	-1.037020
C43	C	1.354068	-0.543464	-1.130923
C44	C	1.239021	-0.670794	-1.124275
C45	C	1.244418	-0.664831	-1.030371
C46	C	1.304642	-0.598184	-0.986747
C47	C	1.310043	-0.592227	-0.892842
C48	C	1.194992	-0.719550	-0.886195
C49	C	1.189595	-0.725513	-0.980099
C50	C	1.287929	-0.616745	-0.274485
C51	C	1.293850	-0.610109	-0.174555
H52	H	0.938141	-0.477276	-0.384212
H53	H	1.212881	-1.044868	-0.644752
H54	H	0.623606	-0.526530	-0.423751
H55	H	1.131307	-1.034056	-0.553424
N56	N	1.319441	-1.025155	-0.348525
N57	N	1.328896	-0.927963	-0.335001
H58	H	1.374936	-0.902206	-0.290264
N59	N	1.128067	-0.793581	-1.024649
N60	N	1.079116	-0.847747	-0.979748
H61	H	1.035655	-0.895817	-1.011209
H62	H	1.382895	-1.054579	-0.610788
H63	H	1.387759	-1.237265	-0.607169
N64	N	1.439181	-1.040564	-0.484850
N65	N	1.422653	-0.974028	-0.420947
H66	H	1.473220	-0.947671	-0.382032
N67	N	1.436747	-1.237335	-0.477985
N68	N	1.432543	-1.209531	-0.396222
H69	H	1.480891	-1.235616	-0.353904
H70	H	1.189989	-0.725054	-1.159810
N71	N	1.169459	-1.015338	-0.380646
N72	N	1.123749	-0.955317	-0.429097
H73	H	1.063861	-0.922629	-0.407049
N74	N	1.138981	-0.781521	-0.834831
N75	N	1.084706	-0.736776	-0.779132
H76	H	1.045149	-0.780542	-0.742855
H77	H	1.213061	-1.227037	-0.645218
N78	N	0.791095	-0.813847	-0.654299
N79	N	0.874939	-0.819837	-0.659111
H80	H	0.906448	-0.873869	-0.702474
N81	N	0.935231	-0.752420	-0.604967
N82	N	0.925080	-0.849090	-0.598265
H83	H	0.956574	-0.903142	-0.641620
H84	H	0.767759	-0.465075	-0.374431
H85	H	1.132076	-1.216836	-0.553899
H86	H	1.359082	-0.537961	-0.857325
H87	H	0.611672	-0.786137	-0.632061
N88	N	1.168076	-1.212288	-0.381446
N89	N	1.108989	-1.141377	-0.359793
H90	H	1.048438	-1.161197	-0.338023
H91	H	1.305205	-1.213914	-0.361385
N92	N	1.420992	-0.469433	-0.992468
N93	N	1.469942	-0.415263	-1.037366
H94	H	1.513398	-0.367188	-1.005903
N95	N	1.410068	-0.481465	-1.182262
N96	N	1.463829	-0.421962	-1.143296
H97	H	1.503381	-0.378168	-1.179553
