data_functionalizedCrystal
_audit_creation_method	'MofGen! by Chris Wilmer'
_symmetry_space_group_name_H-M	'P1'
_symmetry_Int_Tables_number	1
_symmetry_cell_setting	triclinic
loop_
_symmetry_equiv_pos_as_xyz
  x,y,z
_cell_length_a	10.686220
_cell_length_b	10.686551
_cell_length_c	19.805405
_cell_angle_alpha	94.410986
_cell_angle_beta	85.591520
_cell_angle_gamma	90.308082
loop_
_atom_site_label
_atom_site_type_symbol
_atom_site_fract_x
_atom_site_fract_y
_atom_site_fract_z
Zn1	Zn	1.972224	-0.562358	0.165018
Zn2	Zn	2.472224	-0.062358	0.665018
Zn3	Zn	1.955947	-0.352578	0.287529
Zn4	Zn	2.455947	0.147422	0.787529
Zn5	Zn	1.746336	-0.368672	0.182333
Zn6	Zn	2.246336	0.131328	0.682333
Zn7	Zn	1.762378	-0.578356	0.286157
Zn8	Zn	2.262378	-0.078356	0.786157
O9	O	1.859221	-0.465491	0.230259
O10	O	2.359221	0.034509	0.730259
O11	O	2.145609	-0.521099	0.174597
O12	O	2.645609	-0.021099	0.674597
O13	O	1.914616	-0.179166	0.281395
O14	O	2.414616	0.320834	0.781395
O15	O	1.776398	-0.394405	0.085314
O16	O	2.276398	0.105595	0.585314
O17	O	2.133651	-0.366975	0.264605
O18	O	2.633651	0.133025	0.764605
O19	O	1.942357	-0.536705	0.072592
O20	O	2.442357	-0.036705	0.572592
O21	O	1.760616	-0.190990	0.204108
O22	O	2.260616	0.309010	0.704108
O23	O	1.572919	-0.409918	0.202778
O24	O	2.072919	0.090082	0.702778
O25	O	1.803740	-0.751780	0.262267
O26	O	2.303740	-0.251780	0.762267
O27	O	1.584706	-0.563972	0.279057
O28	O	2.084706	-0.063972	0.779057
O29	O	1.957913	-0.740027	0.173267
O30	O	2.457913	-0.240027	0.673267
O31	O	1.930172	-0.382488	0.382069
O32	O	2.430172	0.117512	0.882069
O33	O	1.787957	-0.548366	0.381062
O34	O	2.287957	-0.048366	0.881062
C35	C	1.533296	-0.490428	0.242648
C36	C	2.033296	0.009572	0.742648
C37	C	1.393866	-0.501126	0.247963
C38	C	1.893866	-0.001126	0.747963
C39	C	1.884432	-0.792694	0.215683
C40	C	2.384432	-0.292694	0.715683
C41	C	1.895175	-0.932128	0.209471
C42	C	2.395175	-0.432128	0.709471
C43	C	2.186419	-0.440457	0.217823
C44	C	2.686419	0.059543	0.717823
C45	C	2.325852	-0.429789	0.212523
C46	C	2.825852	0.070211	0.712523
C47	C	1.859075	-0.465441	0.406123
C48	C	2.359075	0.034559	0.906123
C49	C	1.859131	-0.465453	0.481353
C50	C	2.359131	0.034547	0.981353
C51	C	1.834181	-0.139556	0.244727
C52	C	2.334181	0.360444	0.744727
C53	C	1.823681	-0.000103	0.250739
C54	C	2.323681	0.499897	0.750739
C55	C	1.859404	-0.465566	0.053706
C56	C	2.359404	0.034434	0.553706
C57	C	1.859482	-0.465598	-0.021531
C58	C	2.359482	0.034402	0.478469
C59	C	1.933267	-0.379158	0.517192
C60	C	2.433267	0.120842	1.017192
C61	C	1.933322	-0.379182	0.587877
C62	C	2.433322	0.120818	1.087877
C63	C	1.859234	-0.465495	0.622722
C64	C	2.359234	0.034505	1.122722
C65	C	1.785096	-0.551799	0.586877
C66	C	2.285096	-0.051799	1.086877
C67	C	1.785048	-0.551780	0.516193
C68	C	2.285048	-0.051780	1.016193
C69	C	1.785288	-0.551878	0.871939
C70	C	2.285288	-0.051878	1.371939
C71	C	1.785339	-0.551887	0.942629
C72	C	2.285339	-0.051887	1.442629
C73	C	1.933562	-0.379279	0.943624
C74	C	2.433562	0.120721	1.443624
C75	C	1.933514	-0.379261	0.872939
C76	C	2.433514	0.120739	1.372939
C77	C	1.859381	-0.465568	0.837100
C78	C	2.359381	0.034432	1.337100
C79	C	1.859324	-0.465543	0.760455
C80	C	2.359324	0.034457	1.260455
C81	C	1.859284	-0.465516	0.699366
C82	C	2.359284	0.034484	1.199366
H83	H	1.374290	-0.360530	0.178116
H84	H	1.874290	0.139470	0.678116
H85	H	1.724924	-0.622150	0.842765
H86	H	2.224924	-0.122150	1.342765
H87	H	1.754257	-0.951628	0.290824
H88	H	2.254257	-0.451628	0.790824
H89	H	1.345421	-0.570382	0.282377
H90	H	1.845421	-0.070382	0.782377
H91	H	1.964612	-0.980608	0.169388
H92	H	2.464612	-0.480608	0.669388
H93	H	1.993591	-0.308867	0.488827
H94	H	2.493591	0.191133	0.988827
H95	H	1.993689	-0.308911	0.617055
H96	H	2.493689	0.191089	1.117055
H97	H	1.724681	-0.622052	0.487012
H98	H	2.224681	-0.122052	0.987012
C99	C	2.015004	-0.284299	0.834615
C100	C	2.515004	0.215701	1.334615
N101	N	2.076384	-0.212771	0.805750
N102	N	2.576384	0.287229	1.305750
C103	C	1.703839	-0.646850	0.980956
C104	C	2.203839	-0.146850	1.480956
N105	N	1.642458	-0.718372	1.009824
N106	N	2.142458	-0.218372	1.509824
C107	C	2.015117	-0.284344	0.983053
C108	C	2.515117	0.215656	1.483053
N109	N	2.076539	-0.212838	1.012750
N110	N	2.576539	0.287162	1.512750
H111	H	1.724778	-0.622082	0.615253
H112	H	2.224778	-0.122082	1.115253
