data_functionalizedCrystal
_audit_creation_method	'MofGen! by Chris Wilmer'
_symmetry_space_group_name_H-M	'P1'
_symmetry_Int_Tables_number	1
_symmetry_cell_setting	triclinic
loop_
_symmetry_equiv_pos_as_xyz
  x,y,z
_cell_length_a	19.851628
_cell_length_b	14.560438
_cell_length_c	14.560438
_cell_angle_alpha	90.000844
_cell_angle_beta	60.004850
_cell_angle_gamma	59.997497
loop_
_atom_site_label
_atom_site_type_symbol
_atom_site_fract_x
_atom_site_fract_y
_atom_site_fract_z
Zr1	Zr	0.737341	-0.120578	0.884822
O2	O	0.877869	-0.267232	0.738189
O3	O	0.596810	-0.075615	0.929764
O4	O	0.737340	-0.267225	0.929777
O5	O	0.737341	0.075516	0.738177
O6	O	0.737341	-0.267226	1.080915
O7	O	0.737340	-0.075622	0.738177
O8	O	0.485960	0.075530	1.080893
O9	O	0.988723	-0.267240	0.738200
O10	O	0.654615	-0.056447	1.061735
O11	O	0.654615	0.056347	0.948943
O12	O	0.820070	-0.169249	0.948958
O13	O	0.820070	-0.056456	0.836166
Zr14	Zr	0.737347	0.120468	1.125872
Zr15	Zr	0.737344	-0.120580	1.125871
Zr16	Zr	0.737344	0.120470	0.884824
Zr17	Zr	0.914140	-0.120590	0.884839
Zr18	Zr	0.560547	0.120479	1.125855
O19	O	0.877878	0.075504	1.080930
O20	O	0.877873	-0.267235	1.080928
O21	O	0.877873	0.075507	0.738191
O22	O	0.596818	0.267122	1.272505
O23	O	0.596814	-0.075617	1.272504
O24	O	0.596814	0.267125	0.929766
O25	O	0.737346	-0.075626	1.272517
O26	O	0.737348	0.267115	1.080918
O27	O	0.737346	0.267116	0.929779
O28	O	0.737348	0.075512	1.272518
O29	O	0.988725	-0.267241	0.929801
O30	O	0.485962	0.267131	1.080894
O31	O	0.485964	0.267129	1.272495
O32	O	0.485962	0.075528	1.272494
O33	O	0.988725	-0.075639	0.738201
O34	O	0.988728	-0.075640	0.929802
O35	O	0.654617	0.169139	1.061737
O36	O	0.654617	0.056345	1.174529
O37	O	0.820073	-0.056457	1.061751
O38	O	0.820073	0.056336	0.948959
C39	C	0.516195	-0.000041	1.005326
C40	C	0.441139	-0.000036	1.005319
C41	C	0.737340	-0.000053	0.703833
C42	C	0.737339	-0.000052	0.601501
C43	C	0.737347	0.301459	1.005349
C44	C	0.737349	0.403791	1.005349
C45	C	0.259780	0.061454	0.943839
C46	C	0.270116	-0.044608	0.899268
C47	C	0.303719	-0.000051	1.005337
C48	C	0.159667	0.105984	1.049873
C49	C	0.170974	-0.000058	1.005354
C50	C	0.315089	-0.106176	0.960705
C51	C	0.204594	0.044492	1.111368
C52	C	0.214964	-0.061633	1.066824
C53	C	0.380190	-0.000047	1.005325
C54	C	0.094509	-0.000074	1.005365
C55	C	0.958493	-0.000069	1.005368
C56	C	1.033549	-0.000074	1.005375
C57	C	0.737340	-0.301569	1.005346
C58	C	0.737339	-0.403901	1.005345
C59	C	0.823713	0.392987	0.946482
C60	C	0.823709	0.489142	0.946476
C61	C	0.650968	0.606901	1.064214
C62	C	0.650973	0.510747	1.064212
C63	C	0.650974	0.058826	0.612292
C64	C	0.650979	0.058826	0.516137
C65	C	0.823720	-0.058937	0.398405
C66	C	0.823714	-0.058931	0.494558
C67	C	0.737347	-0.000057	1.306862
C68	C	0.737349	-0.000058	1.409193
C69	C	0.516198	-0.000043	1.306840
C70	C	0.441144	-0.000039	1.409164
C71	C	0.516198	0.301474	1.005328
C72	C	0.441144	0.403810	1.005321
C73	C	0.516202	0.301471	1.306842
C74	C	0.441149	0.403807	1.409167
C75	C	0.958485	-0.301582	0.703852
C76	C	1.033539	-0.403917	0.601528
C77	C	0.958489	-0.000067	0.703854
C78	C	1.033544	-0.000071	0.601530
C79	C	0.958489	-0.301584	1.005367
C80	C	1.033544	-0.403920	1.005373
C81	C	0.405896	-0.058923	1.398340
C82	C	0.335384	-0.058942	1.494475
C83	C	0.300116	-0.000069	1.601434
C84	C	0.335371	0.058817	1.612256
C85	C	0.405887	0.058829	1.516122
C86	C	0.405899	0.510754	1.064195
C87	C	0.335387	0.606919	1.064184
C88	C	0.300116	0.596137	1.005306
C89	C	0.335368	0.489181	0.946425
C90	C	0.405884	0.393019	0.946429
C91	C	0.405903	0.392987	1.516106
C92	C	0.335392	0.489133	1.612260
C93	C	0.300123	0.596097	1.601472
C94	C	0.335376	0.606914	1.494522
C95	C	0.405891	0.510770	1.398370
C96	C	1.068793	-0.393098	0.494588
C97	C	1.139326	-0.489243	0.398434
C98	C	1.174598	-0.596207	0.409222
C99	C	1.139341	-0.607024	0.516172
C100	C	1.068814	-0.510880	0.612324
C101	C	1.068799	0.058803	0.612354
C102	C	1.139331	0.058795	0.516219
C103	C	1.174601	-0.000081	0.409261
C104	C	1.139343	-0.058963	0.398438
C105	C	1.068817	-0.058961	0.494572
C106	C	1.068792	-0.393102	1.064263
C107	C	1.139304	-0.489248	1.064291
C108	C	1.174572	-0.596212	1.005422
C109	C	1.139317	-0.607028	0.946531
C110	C	1.068801	-0.510882	0.946510
H111	H	0.279523	0.113387	0.891765
H112	H	0.306640	0.480419	0.898487
H113	H	1.168069	-0.694126	0.524943
H114	H	0.894046	0.305902	0.898549
H115	H	1.232025	-0.674485	0.330920
H116	H	0.434571	0.305943	0.898491
H117	H	0.434576	0.106786	1.524951
H118	H	0.306693	0.693997	1.112136
F119	F	0.915630	0.477636	0.883811
F120	F	1.176834	-0.477707	0.284621
F121	F	0.305358	-0.093864	0.782073
F122	F	0.559046	0.720735	1.126860
F123	F	0.297883	0.477597	1.726073
H124	H	1.168043	-0.694130	0.898601
H125	H	0.580641	0.519552	1.112149
H126	H	0.580642	0.106781	0.699366
H127	H	0.381487	-0.195893	0.922942
F128	F	1.031265	-0.279267	0.483082
F129	F	0.169369	0.093781	1.228540
H130	H	0.434608	0.305900	1.524911
H131	H	0.894047	-0.106874	0.485764
F132	F	0.443421	0.522255	1.126870
F133	F	1.031296	-0.522412	0.726134
H134	H	1.168002	-0.480420	1.112246
F135	F	1.031298	-0.121620	0.483035
F136	F	1.031302	-0.522413	0.883818
F137	F	0.225066	0.698493	1.005312
H138	H	0.195426	-0.113721	1.118826
F139	F	1.031277	0.121469	0.726179
H140	H	0.242706	0.674375	1.679774
F141	F	0.559058	0.121497	0.527629
H142	H	1.168026	0.106748	0.525053
F143	F	0.297831	0.720762	1.483058
H144	H	1.040088	-0.306015	1.112201
H145	H	0.093238	0.195659	1.087531
H146	H	0.242697	-0.000086	1.679703
H147	H	0.434579	0.519595	1.311299
F148	F	1.249660	-0.000072	0.306955
F149	F	0.915642	-0.121599	0.284584
H150	H	1.168070	-0.106898	0.311340
H151	H	1.231991	-0.674490	1.005448
H152	H	0.434610	-0.106879	1.311258
H153	H	0.306688	-0.106894	1.485641
H154	H	0.306646	0.106749	1.699354
