data_functionalizedCrystal
_audit_creation_method	'MofGen! by Chris Wilmer'
_symmetry_space_group_name_H-M	'P1'
_symmetry_Int_Tables_number	1
_symmetry_cell_setting	triclinic
loop_
_symmetry_equiv_pos_as_xyz
  x,y,z
_cell_length_a	19.805407
_cell_length_b	19.121063
_cell_length_c	19.805399
_cell_angle_alpha	92.409585
_cell_angle_beta	89.983114
_cell_angle_gamma	92.469032
loop_
_atom_site_label
_atom_site_type_symbol
_atom_site_fract_x
_atom_site_fract_y
_atom_site_fract_z
Zn1	Zn	1.023216	-0.279621	-0.394202
Zn2	Zn	1.523216	0.220379	0.105798
Zn3	Zn	1.018304	-0.397076	-0.285838
Zn4	Zn	1.518304	0.102924	0.214162
Zn5	Zn	0.910035	-0.279643	-0.281028
Zn6	Zn	1.410035	0.220357	0.218972
Zn7	Zn	0.905164	-0.397036	-0.398983
Zn8	Zn	1.405164	0.102964	0.101017
O9	O	0.964180	-0.338344	-0.340013
O10	O	1.464180	0.161656	0.159987
O11	O	1.117280	-0.295209	-0.379840
O12	O	1.617280	0.204791	0.120160
O13	O	1.003925	-0.381524	-0.190484
O14	O	1.503925	0.118476	0.309516
O15	O	0.929142	-0.181355	-0.292027
O16	O	1.429142	0.318645	0.207973
O17	O	1.113672	-0.381503	-0.300225
O18	O	1.613672	0.118497	0.199775
O19	O	1.012296	-0.181339	-0.375176
O20	O	1.512296	0.318661	0.124824
O21	O	0.924380	-0.295247	-0.186950
O22	O	1.424380	0.204753	0.313050
O23	O	0.814672	-0.295208	-0.296663
O24	O	1.314672	0.204792	0.203337
O25	O	0.920841	-0.381434	-0.493064
O26	O	1.420841	0.118566	0.006936
O27	O	0.811094	-0.381456	-0.383323
O28	O	1.311094	0.118544	0.116677
O29	O	1.007573	-0.295170	-0.489552
O30	O	1.507573	0.204830	0.010448
O31	O	0.999202	-0.495355	-0.304860
O32	O	1.499202	0.004645	0.195140
O33	O	0.916079	-0.495326	-0.387987
O34	O	1.416079	0.004674	0.112013
C35	C	0.788324	-0.338330	-0.339990
C36	C	1.288324	0.161670	0.160010
C37	C	0.713092	-0.338341	-0.339997
C38	C	1.213092	0.161659	0.160003
C39	C	0.675899	-0.383318	-0.385054
C40	C	1.175899	0.116682	0.114946
C41	C	0.605211	-0.383320	-0.385064
C42	C	1.105211	0.116680	0.114936
C43	C	0.571716	-0.338347	-0.340013
C44	C	1.071716	0.161653	0.159987
C45	C	0.608914	-0.293365	-0.294954
C46	C	1.108914	0.206635	0.205046
C47	C	0.679601	-0.293361	-0.294948
C48	C	1.179601	0.206639	0.205052
C49	C	0.323840	-0.293381	-0.294977
C50	C	0.823840	0.206619	0.205023
C51	C	0.253147	-0.293390	-0.294985
C52	C	0.753147	0.206610	0.205015
C53	C	0.249449	-0.383339	-0.385093
C54	C	0.749449	0.116661	0.114907
C55	C	0.320137	-0.383335	-0.385087
C56	C	0.820137	0.116665	0.114913
C57	C	0.357328	-0.338351	-0.340031
C58	C	0.857328	0.161649	0.159969
C59	C	0.433977	-0.338349	-0.340022
C60	C	0.933977	0.161651	0.159978
C61	C	0.495069	-0.338352	-0.340018
C62	C	0.995069	0.161648	0.159982
C63	C	0.956597	-0.520824	-0.347479
C64	C	1.456597	-0.020824	0.152521
C65	C	0.953415	-0.598890	-0.350696
C66	C	1.453415	-0.098890	0.149304
C67	C	0.995232	-0.635558	-0.308963
C68	C	1.495232	-0.135558	0.191037
C69	C	0.992244	-0.708909	-0.311992
C70	C	1.492244	-0.208909	0.188008
C71	C	0.947434	-0.745592	-0.356751
C72	C	1.447434	-0.245592	0.143249
C73	C	0.905616	-0.708919	-0.398489
C74	C	1.405616	-0.208919	0.101511
C75	C	0.908608	-0.635569	-0.395462
C76	C	1.408608	-0.135569	0.104538
C77	C	0.936236	-0.967062	-0.368055
C78	C	1.436236	-0.467062	0.131945
C79	C	0.933245	-1.040417	-0.371077
C80	C	1.433245	-0.540417	0.128923
C81	C	1.019874	-1.040402	-0.284581
C82	C	1.519874	-0.540402	0.215419
C83	C	1.022860	-0.967051	-0.281556
C84	C	1.522860	-0.467051	0.218444
C85	C	0.981044	-0.930384	-0.323296
C86	C	1.481044	-0.430384	0.176704
C87	C	0.944377	-0.820569	-0.359847
C88	C	1.444377	-0.320569	0.140153
C89	C	0.984105	-0.855409	-0.320203
C90	C	1.484105	-0.355409	0.179797
C91	C	1.140722	-0.338358	-0.340036
C92	C	1.640722	0.161642	0.159964
C93	C	1.215954	-0.338364	-0.340045
C94	C	1.715954	0.161636	0.159955
C95	C	0.964211	-0.338295	-0.516553
C96	C	1.464211	0.161705	-0.016553
C97	C	0.964225	-0.338274	-0.591785
C98	C	1.464225	0.161726	-0.091785
C99	C	0.971810	-0.155150	-0.332532
C100	C	1.471810	0.344850	0.167468
C101	C	0.975062	-0.077084	-0.329344
C102	C	1.475062	0.422916	0.170656
C103	C	0.922818	-0.293345	-0.625288
C104	C	1.422818	0.206655	-0.125288
C105	C	0.922828	-0.293332	-0.695976
C106	C	1.422828	0.206668	-0.195976
C107	C	0.964249	-0.338244	-0.733159
C108	C	1.464249	0.161756	-0.233159
C109	C	1.005657	-0.383178	-0.699651
C110	C	1.505657	0.116822	-0.199651
C111	C	1.005643	-0.383194	-0.628964
C112	C	1.505643	0.116806	-0.128964
C113	C	1.005713	-0.383112	-0.984721
C114	C	1.505713	0.116888	-0.484721
C115	C	1.005726	-0.383090	-1.055413
C116	C	1.505726	0.116910	-0.555413
C117	C	0.922898	-0.293249	-1.051733
C118	C	1.422898	0.206751	-0.551733
C119	C	0.922884	-0.293266	-0.981047
C120	C	1.422884	0.206734	-0.481047
C121	C	0.964290	-0.338202	-0.947545
C122	C	1.464290	0.161798	-0.447545
C123	C	0.964278	-0.338217	-0.870897
C124	C	1.464278	0.161783	-0.370897
C125	C	0.964265	-0.338226	-0.809805
C126	C	1.464265	0.161774	-0.309805
C127	C	0.964189	-0.338342	-0.164157
C128	C	1.464189	0.161658	0.335843
C129	C	0.964315	-0.338164	-0.088918
C130	C	1.464315	0.161836	0.411082
H131	H	0.354113	-0.256757	-0.258284
H132	H	0.854113	0.243243	0.241716
H133	H	0.219160	-0.419965	-0.421782
H134	H	0.719160	0.080035	0.078218
C135	C	0.564299	-0.432794	-0.434624
C136	C	1.064299	0.067206	0.065376
H137	H	0.517403	-0.426351	-0.428182
H138	H	1.017403	0.073649	0.071818
H139	H	0.573919	-0.479970	-0.426571
H140	H	1.073919	0.020030	0.073429
H141	H	0.576327	-0.422573	-0.479700
H142	H	1.076327	0.077427	0.020300
C143	C	0.572071	-0.243898	-0.245396
C144	C	1.072071	0.256102	0.254604
H145	H	0.524645	-0.250347	-0.251847
H146	H	1.024645	0.249653	0.248153
H147	H	0.585616	-0.196720	-0.253442
H148	H	1.085616	0.303280	0.246558
H149	H	0.583217	-0.254123	-0.200319
H150	H	1.083217	0.245877	0.299681
H151	H	0.347404	-0.419959	-0.421770
H152	H	0.847404	0.080041	0.078230
H153	H	1.026295	-0.738761	-0.278008
H154	H	1.526295	-0.238761	0.221992
H155	H	0.907892	-0.850443	-0.396289
H156	H	1.407892	-0.350443	0.103711
H157	H	0.902186	-0.937214	-0.402040
H158	H	1.402186	-0.437214	0.097960
C159	C	0.216304	-0.243912	-0.245431
C160	C	0.716304	0.256088	0.254569
H161	H	0.248578	-0.217115	-0.218601
H162	H	0.748578	0.282885	0.281399
H163	H	0.187604	-0.270738	-0.216995
H164	H	0.687604	0.229262	0.283005
H165	H	0.190009	-0.213349	-0.270133
H166	H	0.690009	0.286651	0.229867
H167	H	0.709883	-0.256732	-0.258261
H168	H	1.209883	0.243268	0.241739
C169	C	0.877319	-0.243865	-0.940149
C170	C	1.377319	0.256135	-0.440149
H171	H	0.852655	-0.217110	-0.970227
H172	H	1.352655	0.282890	-0.470227
H173	H	0.904477	-0.213272	-0.911326
H174	H	1.404477	0.286728	-0.411326
H175	H	0.846702	-0.270745	-0.913670
H176	H	1.346702	0.229255	-0.413670
H177	H	1.020591	-0.825540	-0.283762
H178	H	1.520591	-0.325540	0.216238
H179	H	1.031718	-0.605696	-0.272512
H180	H	1.531718	-0.105696	0.227488
H181	H	1.059347	-0.937185	-0.245109
H182	H	1.559347	-0.437185	0.254891
C183	C	0.877342	-0.243830	-1.088588
C184	C	1.377342	0.256170	-0.588588
H185	H	0.883273	-0.250257	-1.136012
H186	H	1.383273	0.249743	-0.636012
H187	H	0.889208	-0.196642	-1.075082
H188	H	1.389208	0.303358	-0.575082
H189	H	0.831433	-0.254116	-1.077413
H190	H	1.331433	0.245884	-0.577413
C191	C	0.862611	-0.595234	-0.441369
C192	C	1.362611	-0.095234	0.058631
H193	H	0.835492	-0.627585	-0.468457
H194	H	1.335492	-0.127585	0.031543
H195	H	0.889656	-0.566579	-0.469701
H196	H	1.389656	-0.066579	0.030299
H197	H	0.834298	-0.566663	-0.414270
H198	H	1.334298	-0.066663	0.085730
C199	C	0.877249	-0.243947	-0.584393
C200	C	1.377249	0.256053	-0.084393
H201	H	0.852584	-0.217194	-0.614474
H202	H	1.352584	0.282806	-0.114474
H203	H	0.904403	-0.213351	-0.555569
H204	H	1.404403	0.286649	-0.055569
H205	H	0.846632	-0.270828	-0.557916
H206	H	1.346632	0.229172	-0.057916
C207	C	1.065872	-1.080736	-0.238677
C208	C	1.565872	-0.580736	0.261323
H209	H	1.057678	-1.129675	-0.246892
H210	H	1.557678	-0.629675	0.253108
H211	H	1.056487	-1.068757	-0.192696
H212	H	1.556487	-0.568757	0.307304
H213	H	1.111837	-1.068668	-0.248134
H214	H	1.611837	-0.568668	0.251866
H215	H	0.889108	-0.256749	-0.723251
H216	H	1.389108	0.243251	-0.223251
H217	H	1.039457	-0.419666	-1.085685
H218	H	1.539457	0.080334	-0.585685
C219	C	1.051268	-0.432529	-0.947877
C220	C	1.551268	0.067471	-0.447877
H221	H	1.075945	-0.459265	-0.980148
H222	H	1.575945	0.040735	-0.480148
H223	H	1.024104	-0.463140	-0.921546
H224	H	1.524104	0.036860	-0.421546
H225	H	1.081875	-0.405662	-0.919213
H226	H	1.581875	0.094338	-0.419213
C227	C	0.883958	-1.080766	-0.420320
C228	C	1.383958	-0.580766	0.079680
H229	H	0.859488	-1.048424	-0.444751
H230	H	1.359488	-0.548424	0.055249
H231	H	0.853313	-1.109424	-0.395586
H232	H	1.353313	-0.609424	0.104414
H233	H	0.908676	-1.109336	-0.451011
H234	H	1.408676	-0.609336	0.048989
H235	H	1.039366	-0.419775	-0.601687
H236	H	1.539366	0.080225	-0.101687
C237	C	0.856325	-0.749267	-0.447721
C238	C	1.356325	-0.249267	0.052279
H239	H	0.860526	-0.798204	-0.443542
H240	H	1.360526	-0.298204	0.056458
H241	H	0.866691	-0.737207	-0.492711
H242	H	1.366691	-0.237207	0.007289
H243	H	0.811341	-0.737290	-0.437272
H244	H	1.311341	-0.237290	0.062728
C245	C	1.051220	-0.432579	-0.740550
C246	C	1.551220	0.067421	-0.240550
H247	H	1.045304	-0.426130	-0.787447
H248	H	1.545304	0.073870	-0.287447
H249	H	1.039348	-0.479772	-0.730892
H250	H	1.539348	0.020228	-0.230892
H251	H	1.097125	-0.422301	-0.728549
H252	H	1.597125	0.077699	-0.228549
H253	H	0.703165	-0.419943	-0.421738
H254	H	1.203165	0.080057	0.078262
