data_functionalizedCrystal
_audit_creation_method	'MofGen! by Chris Wilmer'
_symmetry_space_group_name_H-M	'P1'
_symmetry_Int_Tables_number	1
_symmetry_cell_setting	triclinic
loop_
_symmetry_equiv_pos_as_xyz
  x,y,z
_cell_length_a	11.792254
_cell_length_b	11.792254
_cell_length_c	9.130313
_cell_angle_alpha	89.998555
_cell_angle_beta	89.999802
_cell_angle_gamma	84.198598
loop_
_atom_site_label
_atom_site_type_symbol
_atom_site_fract_x
_atom_site_fract_y
_atom_site_fract_z
O1	O	1.506901	0.155630	-0.121799
O2	O	1.176562	0.171648	-0.121802
O3	O	1.349740	-0.001530	-0.121790
O4	O	1.333723	0.328808	-0.121811
O5	O	1.349738	-0.001525	0.121809
O6	O	1.176560	0.171653	0.121797
O7	O	1.506899	0.155635	0.121800
Cu8	Cu	1.341729	0.163644	0.144041
Cu9	Cu	1.341732	0.163639	-0.144043
O10	O	1.333721	0.328813	0.121788
C11	C	1.134271	0.170642	-0.000003
C12	C	1.008257	0.167621	-0.000004
C13	C	0.905921	0.165168	-0.000010
C14	C	0.777534	0.162099	-0.000011
C15	C	1.348730	-0.043818	0.000009
C16	C	1.345710	-0.169832	0.000008
C17	C	1.343256	-0.272168	0.000002
C18	C	1.340188	-0.400555	-0.000011
C19	C	1.549190	0.156642	-0.000002
C20	C	1.675204	0.159662	-0.000011
C21	C	1.334731	0.371102	-0.000014
C22	C	1.337751	0.497115	-0.000022
N23	N	1.341736	0.163648	0.346664
N24	N	1.341734	0.163627	-0.346666
C25	C	1.418439	0.086990	0.423321
C26	C	1.418436	0.086977	0.576658
C27	C	1.265023	0.240287	0.576666
C28	C	1.265021	0.240295	0.423332
C29	C	1.507014	-0.001519	0.423317
C30	C	1.507011	-0.001533	0.576654
H31	H	1.202554	0.302705	0.360919
H32	H	1.589352	0.025918	0.375758
H33	H	1.202563	0.302691	0.639107
C34	C	1.481122	-0.119302	0.367082
C35	C	1.460243	-0.214262	0.476670
C36	C	1.434349	-0.332041	0.420434
C37	C	1.429335	-0.354859	0.254611
C38	C	1.450215	-0.259895	0.145013
C39	C	1.476108	-0.142117	0.201248
H40	H	1.463954	-0.197374	0.599431
H41	H	1.418893	-0.402339	0.501567
H42	H	1.410167	-0.442045	0.212982
H43	H	1.446504	-0.276784	0.022251
H44	H	1.491565	-0.071819	0.120116
H45	H	1.479642	-0.083906	0.624206
C46	C	1.624769	0.024445	0.632891
C47	C	1.719702	0.045408	0.523304
C48	C	1.837455	0.071386	0.579540
C49	C	1.860274	0.076401	0.745364
C50	C	1.765338	0.055437	0.854961
C51	C	1.647585	0.029459	0.798724
H52	H	1.702813	0.041696	0.400542
H53	H	1.907732	0.086905	0.498408
H54	H	1.947441	0.095631	0.786993
H55	H	1.782227	0.059148	0.977723
H56	H	1.577308	0.013940	0.879856
