data_functionalizedCrystal
_audit_creation_method	'MofGen! by Chris Wilmer'
_symmetry_space_group_name_H-M	'P1'
_symmetry_Int_Tables_number	1
_symmetry_cell_setting	triclinic
loop_
_symmetry_equiv_pos_as_xyz
  x,y,z
_cell_length_a	17.077404
_cell_length_b	18.101397
_cell_length_c	17.077395
_cell_angle_alpha	89.969587
_cell_angle_beta	89.982416
_cell_angle_gamma	90.018712
loop_
_atom_site_label
_atom_site_type_symbol
_atom_site_fract_x
_atom_site_fract_y
_atom_site_fract_z
Zn1	Zn	1.200038	-0.294873	-0.443866
Zn2	Zn	1.700038	0.205127	0.056134
Zn3	Zn	1.199959	-0.418719	-0.312593
Zn4	Zn	1.699959	0.081281	0.187407
Zn5	Zn	1.068779	-0.294892	-0.312609
Zn6	Zn	1.568779	0.205108	0.187391
Zn7	Zn	1.068743	-0.418674	-0.443812
Zn8	Zn	1.568743	0.081326	0.056188
O9	O	1.134380	-0.356790	-0.378220
O10	O	1.634380	0.143210	0.121780
O11	O	1.309874	-0.311313	-0.426468
O12	O	1.809874	0.188687	0.073532
O13	O	1.182540	-0.402320	-0.202748
O14	O	1.682540	0.097680	0.297252
O15	O	1.086238	-0.191257	-0.330051
O16	O	1.586238	0.308743	0.169949
O17	O	1.309817	-0.402302	-0.330022
O18	O	1.809817	0.097698	0.169978
O19	O	1.182674	-0.191243	-0.426484
O20	O	1.682674	0.308757	0.073516
O21	O	1.086162	-0.311345	-0.202760
O22	O	1.586162	0.188655	0.297240
O23	O	0.958927	-0.311301	-0.329998
O24	O	1.458927	0.188699	0.170002
O25	O	1.086178	-0.402224	-0.553666
O26	O	1.586178	0.097776	-0.053666
O27	O	0.958901	-0.402243	-0.426392
O28	O	1.458901	0.097757	0.073608
O29	O	1.182639	-0.311269	-0.553706
O30	O	1.682639	0.188731	-0.053706
O31	O	1.182506	-0.522346	-0.329969
O32	O	1.682506	-0.022346	0.170031
O33	O	1.086102	-0.522313	-0.426376
O34	O	1.586102	-0.022313	0.073624
C35	C	0.930432	-0.356770	-0.378191
C36	C	1.430432	0.143230	0.121809
C37	C	0.843182	-0.356779	-0.378198
C38	C	1.343182	0.143221	0.121802
C39	C	0.467395	-0.309517	-0.428548
C40	C	0.967395	0.190483	0.071452
C41	C	0.549375	-0.309512	-0.428540
C42	C	1.049375	0.190488	0.071460
C43	C	0.590333	-0.356805	-0.378240
C44	C	1.090333	0.143195	0.121760
C45	C	0.549306	-0.404113	-0.327951
C46	C	1.049306	0.095887	0.172049
C47	C	0.467328	-0.404121	-0.327964
C48	C	0.967328	0.095879	0.172036
C49	C	0.720177	-0.404090	-0.327926
C50	C	1.220177	0.095910	0.172074
C51	C	0.802161	-0.404081	-0.327911
C52	C	1.302161	0.095919	0.172089
C53	C	0.802224	-0.309481	-0.428501
C54	C	1.302224	0.190519	0.071499
C55	C	0.720245	-0.309490	-0.428514
C56	C	1.220245	0.190510	0.071486
C57	C	0.679224	-0.356796	-0.378224
C58	C	1.179224	0.143204	0.121776
C59	C	1.134313	-0.549200	-0.378182
C60	C	1.634313	-0.049200	0.121818
C61	C	1.134356	-0.631514	-0.378192
C62	C	1.634356	-0.131514	0.121808
C63	C	1.134456	-0.930605	-0.378264
C64	C	1.634456	-0.430605	0.121736
C65	C	1.194941	-0.899270	-0.317445
C66	C	1.694941	-0.399270	0.182555
C67	C	1.195151	-0.813652	-0.317602
C68	C	1.695151	-0.313652	0.182398
C69	C	1.134406	-0.782223	-0.378227
C70	C	1.634406	-0.282223	0.121773
C71	C	1.156826	-0.813231	-0.460969
C72	C	1.656826	-0.313231	0.039031
C73	C	1.157294	-0.898876	-0.460638
C74	C	1.657294	-0.398876	0.039362
C75	C	1.051389	-0.899112	-0.357056
C76	C	1.551389	-0.399112	0.142944
C77	C	1.051800	-0.813462	-0.355209
C78	C	1.551800	-0.313462	0.144791
C79	C	1.134377	-0.698363	-0.378212
C80	C	1.634377	-0.198363	0.121788
C81	C	1.134487	-1.014465	-0.378284
C82	C	1.634487	-0.514465	0.121716
C83	C	1.339124	-0.356810	-0.378249
C84	C	1.839124	0.143190	0.121751
C85	C	1.426374	-0.356819	-0.378262
C86	C	1.926374	0.143181	0.121738
C87	C	1.134413	-0.356739	-0.582964
C88	C	1.634413	0.143261	-0.082964
C89	C	1.134428	-0.356718	-0.670214
C90	C	1.634428	0.143282	-0.170214
C91	C	1.134469	-0.163628	-0.378275
C92	C	1.634469	0.336372	0.121725
C93	C	1.134506	-0.081314	-0.378299
C94	C	1.634506	0.418686	0.121701
C95	C	1.184742	-0.309257	-1.046051
C96	C	1.684742	0.190743	-0.546051
C97	C	1.184726	-0.309283	-0.964070
C98	C	1.684726	0.190717	-0.464070
C99	C	1.134493	-0.356648	-0.923063
C100	C	1.634493	0.143352	-0.423063
C101	C	1.084277	-0.403996	-0.964041
C102	C	1.584277	0.096004	-0.464041
C103	C	1.084298	-0.403973	-1.046020
C104	C	1.584298	0.096027	-0.546020
C105	C	1.084236	-0.404038	-0.793171
C106	C	1.584236	0.095962	-0.293171
C107	C	1.084214	-0.404060	-0.711186
C108	C	1.584214	0.095940	-0.211186
C109	C	1.184665	-0.309348	-0.711221
C110	C	1.684665	0.190652	-0.211221
C111	C	1.184686	-0.309326	-0.793200
C112	C	1.684686	0.190674	-0.293200
C113	C	1.134469	-0.356672	-0.834172
C114	C	1.634469	0.143328	-0.334172
C115	C	1.134391	-0.356786	-0.174272
C116	C	1.634391	0.143214	0.325728
C117	C	1.134529	-0.356599	-0.087023
C118	C	1.634529	0.143401	0.412977
H119	H	0.686900	-0.270976	-0.469469
H120	H	1.186900	0.229024	0.030531
H121	H	1.225552	-0.270795	-0.677858
H122	H	1.725552	0.229205	-0.177858
H123	H	1.043347	-0.442595	-0.826528
H124	H	1.543347	0.057405	-0.326528
N125	N	0.675930	-0.455116	-0.273689
N126	N	1.175930	0.044884	0.226311
H127	H	0.714314	-0.485073	-0.241820
H128	H	1.214314	0.014927	0.258180
H129	H	0.641906	-0.424927	-0.237428
H130	H	1.141906	0.075073	0.262572
N131	N	0.846462	-0.258449	-0.482736
N132	N	1.346462	0.241551	0.017264
H133	H	0.904611	-0.265619	-0.475098
H134	H	1.404611	0.234381	0.024902
H135	H	0.832157	-0.270038	-0.538780
H136	H	1.332157	0.229962	-0.038780
H137	H	1.043292	-0.442612	-0.677800
H138	H	1.543292	0.057388	-0.177800
H139	H	1.256137	-0.920740	-0.331315
H140	H	1.756137	-0.420740	0.168685
H141	H	1.043409	-0.442524	-1.079378
H142	H	1.543409	0.057476	-0.579378
N143	N	1.030096	-0.455079	-0.919809
N144	N	1.530096	0.044921	-0.419809
H145	H	0.974020	-0.443565	-0.934078
H146	H	1.474020	0.056435	-0.434078
H147	H	1.042330	-0.507971	-0.934077
H148	H	1.542330	-0.007971	-0.434077
N149	N	0.593481	-0.455117	-0.273694
N150	N	1.093481	0.044883	0.226306
H151	H	0.555052	-0.485085	-0.241840
H152	H	1.055052	0.014915	0.258160
H153	H	0.627504	-0.489425	-0.305570
H154	H	1.127504	0.010575	0.194430
N155	N	1.176581	-0.785880	-0.236335
N156	N	1.676581	-0.285880	0.263665
H157	H	1.221621	-0.754960	-0.216465
H158	H	1.721621	-0.254960	0.283535
H159	H	1.127483	-0.754834	-0.238065
H160	H	1.627483	-0.254834	0.261935
N161	N	0.423079	-0.455142	-0.273730
N162	N	0.923079	0.044858	0.226270
H163	H	0.461464	-0.485101	-0.241862
H164	H	0.961464	0.014899	0.258138
H165	H	0.389054	-0.424957	-0.237468
H166	H	0.889054	0.075043	0.262532
H167	H	0.434053	-0.271001	-0.469503
H168	H	0.934053	0.228999	0.030497
N169	N	0.593605	-0.258474	-0.482769
N170	N	1.093605	0.241526	0.017231
H171	H	0.627607	-0.224115	-0.450923
H172	H	1.127607	0.275885	0.049077
H173	H	0.627587	-0.288648	-0.519083
H174	H	1.127587	0.211352	-0.019083
N175	N	0.846340	-0.455090	-0.273663
N176	N	1.346340	0.044910	0.226337
H177	H	0.807916	-0.485064	-0.241811
H178	H	1.307916	0.014936	0.258189
H179	H	0.880362	-0.489392	-0.305549
H180	H	1.380362	0.010608	0.194451
N181	N	1.236358	-0.784758	-0.485165
N182	N	1.736358	-0.284758	0.014835
H183	H	1.273018	-0.827787	-0.493668
H184	H	1.773018	-0.327787	0.006332
H185	H	1.231295	-0.755624	-0.535362
H186	H	1.731295	-0.255624	-0.035362
N187	N	1.176588	-0.926601	-0.235928
N188	N	1.676588	-0.426601	0.264072
H189	H	1.128890	-0.959564	-0.237629
H190	H	1.628890	-0.459564	0.262371
H191	H	1.222698	-0.955445	-0.215053
H192	H	1.722698	-0.455445	0.284947
N193	N	1.276653	-0.786433	-0.336189
N194	N	1.776653	-0.286433	0.163811
H195	H	1.312583	-0.830071	-0.344317
H196	H	1.812583	-0.330071	0.155683
H197	H	1.275216	-0.755516	-0.385415
H198	H	1.775216	-0.255516	0.114585
N199	N	1.238916	-0.258162	-1.090277
N200	N	1.738916	0.241838	-0.590277
H201	H	1.270723	-0.228176	-1.051878
H202	H	1.770723	0.271824	-0.551878
H203	H	1.275237	-0.288300	-1.124288
H204	H	1.775237	0.211700	-0.624288
H205	H	1.218012	-0.918797	-0.478602
H206	H	1.718012	-0.418797	0.021398
H207	H	1.115168	-0.919601	-0.507514
H208	H	1.615168	-0.419601	-0.007514
H209	H	1.225617	-0.270734	-0.930715
H210	H	1.725617	0.229266	-0.430715
N211	N	1.024363	-0.927789	-0.278519
N212	N	1.524363	-0.427789	0.221481
H213	H	1.021262	-0.983487	-0.280166
H214	H	1.521262	-0.483487	0.219834
H215	H	1.062784	-0.912150	-0.236743
H216	H	1.562784	-0.412150	0.263257
N217	N	1.100258	-0.786268	-0.522614
N218	N	1.600258	-0.286268	-0.022614
H219	H	1.059457	-0.753614	-0.497438
H220	H	1.559457	-0.253614	0.002562
H221	H	1.129729	-0.757183	-0.563617
H222	H	1.629729	-0.257183	-0.063617
N223	N	1.238869	-0.258235	-0.837420
N224	N	1.738869	0.241765	-0.337420
H225	H	1.275239	-0.288324	-0.871429
H226	H	1.775239	0.211676	-0.371429
H227	H	1.206938	-0.223910	-0.871393
H228	H	1.706938	0.276090	-0.371393
N229	N	1.029546	-0.786625	-0.274514
N230	N	1.529546	-0.286625	0.225486
H231	H	1.069705	-0.804175	-0.235292
H232	H	1.569705	-0.304175	0.264708
H233	H	1.027682	-0.730859	-0.274340
H234	H	1.527682	-0.230859	0.225660
H235	H	1.006323	-0.919376	-0.401353
H236	H	1.506323	-0.419376	0.098647
N237	N	0.988884	-0.785121	-0.409570
N238	N	1.488884	-0.285121	0.090430
H239	H	1.013147	-0.751483	-0.450074
H240	H	1.513147	-0.251483	0.049926
H241	H	0.962761	-0.828202	-0.436569
H242	H	1.462761	-0.328202	0.063431
