data_functionalizedCrystal
_audit_creation_method	'MofGen! by Chris Wilmer'
_symmetry_space_group_name_H-M	'P1'
_symmetry_Int_Tables_number	1
_symmetry_cell_setting	triclinic
loop_
_symmetry_equiv_pos_as_xyz
  x,y,z
_cell_length_a	12.759401
_cell_length_b	19.121063
_cell_length_c	12.759393
_cell_angle_alpha	92.404035
_cell_angle_beta	89.980404
_cell_angle_gamma	92.469135
loop_
_atom_site_label
_atom_site_type_symbol
_atom_site_fract_x
_atom_site_fract_y
_atom_site_fract_z
Zn1	Zn	1.588332	-0.279574	-0.611773
Zn2	Zn	1.580688	-0.397040	-0.443568
Zn3	Zn	1.412629	-0.279609	-0.436114
Zn4	Zn	1.405091	-0.396989	-0.619206
O5	O	1.496685	-0.338303	-0.527665
O6	O	1.734339	-0.295163	-0.589469
O7	O	1.558350	-0.381499	-0.295560
O8	O	1.442290	-0.181320	-0.453186
O9	O	1.728723	-0.381465	-0.465889
O10	O	1.571378	-0.181294	-0.582241
O11	O	1.434878	-0.295222	-0.290084
O12	O	1.264608	-0.295172	-0.460393
O13	O	1.429443	-0.381377	-0.765239
O14	O	1.259070	-0.381411	-0.594910
O15	O	1.564069	-0.295113	-0.759778
O16	O	1.551041	-0.495318	-0.473097
O17	O	1.422030	-0.495280	-0.602137
C18	C	1.223718	-0.338290	-0.527650
C19	C	1.106941	-0.338302	-0.527669
C20	C	0.939487	-0.383285	-0.597619
C21	C	1.049211	-0.383278	-0.597607
C22	C	1.054940	-0.293336	-0.457731
C23	C	0.945218	-0.293348	-0.457738
C24	C	1.484917	-0.520783	-0.539255
C25	C	1.479978	-0.598849	-0.544249
C26	C	1.544880	-0.635520	-0.479466
C27	C	1.540241	-0.708871	-0.484168
C28	C	1.470696	-0.745549	-0.553649
C29	C	1.405792	-0.708872	-0.618439
C30	C	1.410436	-0.635523	-0.613741
C31	C	1.453315	-0.967018	-0.571197
C32	C	1.448673	-1.040373	-0.575887
C33	C	1.583124	-1.040367	-0.441617
C34	C	1.587758	-0.967016	-0.436921
C35	C	1.522858	-0.930345	-0.501715
C36	C	1.465951	-0.820526	-0.558455
C37	C	1.527609	-0.855370	-0.496914
C38	C	1.770717	-0.338316	-0.527681
C39	C	1.887494	-0.338322	-0.527688
C40	C	1.496768	-0.338235	-0.801694
C41	C	1.496803	-0.338207	-0.918469
C42	C	1.508528	-0.155110	-0.516053
C43	C	1.513574	-0.077045	-0.511105
C44	C	1.566909	-0.293282	-0.970489
C45	C	1.566928	-0.293251	-1.080211
C46	C	1.426734	-0.383077	-1.085885
C47	C	1.426710	-0.383103	-0.976164
C48	C	1.496666	-0.338319	-0.254699
C49	C	1.496847	-0.338150	-0.137912
H50	H	1.101953	-0.256719	-0.400782
H51	H	1.357589	-0.605665	-0.666496
H52	H	1.584237	-0.825505	-0.440346
N53	N	1.642509	-0.244859	-0.908264
H54	H	1.689342	-0.273421	-0.864567
H55	H	1.686850	-0.216409	-0.957945
H56	H	0.902884	-0.256732	-0.400787
H57	H	1.369669	-0.419632	-1.132873
N58	N	1.619886	-0.595963	-0.404522
H59	H	1.660298	-0.630328	-0.364199
H60	H	1.670413	-0.565481	-0.445379
H61	H	1.593090	-0.738726	-0.431414
H62	H	1.635963	-1.070232	-0.388868
N63	N	1.662783	-0.927457	-0.361997
H64	H	1.703201	-0.961820	-0.321676
H65	H	1.713303	-0.896980	-0.402871
N66	N	1.642530	-0.244789	-1.136319
H67	H	1.686924	-0.216351	-1.083117
H68	H	1.689313	-0.273363	-1.183670
H69	H	1.392054	-1.070234	-0.632485
H70	H	1.400469	-0.937167	-0.623953
H71	H	1.369614	-0.419686	-0.933809
H72	H	1.091539	-0.419892	-0.654551
N73	N	0.877225	-0.431793	-0.673055
H74	H	0.926816	-0.460278	-0.717351
H75	H	0.829596	-0.464266	-0.632271
H76	H	1.349171	-0.738741	-0.675016
H77	H	1.409325	-0.850397	-0.615024
