data_functionalizedCrystal
_audit_creation_method	'MofGen! by Chris Wilmer'
_symmetry_space_group_name_H-M	'P1'
_symmetry_Int_Tables_number	1
_symmetry_cell_setting	triclinic
loop_
_symmetry_equiv_pos_as_xyz
  x,y,z
_cell_length_a	14.044220
_cell_length_b	10.489716
_cell_length_c	13.101039
_cell_angle_alpha	93.400284
_cell_angle_beta	86.340132
_cell_angle_gamma	88.859007
loop_
_atom_site_label
_atom_site_type_symbol
_atom_site_fract_x
_atom_site_fract_y
_atom_site_fract_z
O1	O	1.264950	0.301303	-0.085088
O2	O	0.988908	0.290196	-0.085115
O3	O	1.133223	0.110788	-0.085105
O4	O	1.120635	0.480711	-0.085099
O5	O	1.122868	0.123683	0.085324
O6	O	0.978553	0.303092	0.085314
O7	O	1.254596	0.314199	0.085341
Zn8	Zn	1.114931	0.310693	0.112387
Zn9	Zn	1.128573	0.293702	-0.112161
O10	O	1.110281	0.493607	0.085331
C11	C	0.948383	0.291782	0.000096
C12	C	0.843060	0.277282	0.000086
C13	C	1.127100	0.069607	0.000107
C14	C	1.124271	-0.072311	0.000097
C15	C	0.650219	0.250775	0.000105
C16	C	0.593280	0.353613	0.000112
C17	C	0.485976	0.338865	0.000123
C18	C	0.757532	0.265522	0.000094
C19	C	1.212769	-0.161008	0.000115
C20	C	1.171109	-0.249470	-0.083917
C21	C	1.160880	-0.236722	0.084112
C22	C	1.082653	-0.158910	-0.084005
C23	C	1.072432	-0.146149	0.084101
C24	C	1.030709	-0.234571	0.000048
C25	C	1.295120	0.312612	0.000128
C26	C	1.400444	0.327112	0.000131
C27	C	1.116404	0.534787	0.000117
C28	C	1.119233	0.676705	0.000120
N29	N	1.105627	0.322288	0.265635
N30	N	1.137884	0.282097	-0.265409
C31	C	1.092970	0.338076	0.474676
C32	C	1.150539	0.266313	0.525556
C33	C	1.143496	0.275098	0.641874
C34	C	1.100011	0.329293	0.358348
H35	H	0.625122	0.452733	0.000108
C36	C	1.038560	-0.113656	-0.178884
C37	C	1.008477	-0.219309	-0.237749
C38	C	0.967848	-0.177668	-0.325152
H39	H	1.084600	-0.068974	-0.218278
H40	H	0.985348	-0.058435	-0.158845
H41	H	1.061682	-0.274509	-0.257790
H42	H	0.962427	-0.264003	-0.198386
H43	H	0.914636	-0.122447	-0.305113
H44	H	1.013893	-0.132985	-0.364537
H45	H	0.947424	-0.249345	-0.365097
C46	C	1.020109	0.428825	0.532882
C47	C	0.968359	0.493293	0.463084
C48	C	0.901226	0.576888	0.516678
H49	H	1.052063	0.489005	0.574742
H50	H	0.977704	0.381609	0.574715
H51	H	1.010758	0.540507	0.421269
H52	H	0.936385	0.433146	0.421221
H53	H	0.858822	0.529672	0.558511
H54	H	0.933188	0.637060	0.558537
H55	H	0.866100	0.620631	0.469328
H56	H	0.618379	0.151663	0.000109
H57	H	1.205115	0.198279	0.481758
C58	C	1.315431	-0.117722	-0.000221
C59	C	1.366697	-0.170327	-0.088419
C60	C	1.461261	-0.130441	-0.088787
H61	H	1.343732	-0.145540	0.058795
H62	H	1.316501	-0.027155	0.000322
H63	H	1.365633	-0.260875	-0.088953
H64	H	1.338427	-0.142515	-0.147449
H65	H	1.462331	-0.039874	-0.088243
H66	H	1.489551	-0.158262	-0.029767
H67	H	1.496054	-0.166118	-0.148632
H68	H	1.212784	-0.294551	-0.154955
H69	H	1.193942	-0.271028	0.155153
H70	H	0.953675	-0.266819	-0.000005
H71	H	1.030790	-0.101042	0.155141
