data_functionalizedCrystal
_audit_creation_method	'MofGen! by Chris Wilmer'
_symmetry_space_group_name_H-M	'P1'
_symmetry_Int_Tables_number	1
_symmetry_cell_setting	triclinic
loop_
_symmetry_equiv_pos_as_xyz
  x,y,z
_cell_length_a	14.560432
_cell_length_b	14.560438
_cell_length_c	14.560438
_cell_angle_alpha	60.000069
_cell_angle_beta	90.000207
_cell_angle_gamma	60.001007
loop_
_atom_site_label
_atom_site_type_symbol
_atom_site_fract_x
_atom_site_fract_y
_atom_site_fract_z
Zr1	Zr	0.884751	1.005300	-0.120509
O2	O	0.738105	1.196899	-0.267154
O3	O	0.929705	0.813699	-0.075557
O4	O	0.929705	1.005304	-0.267158
O5	O	0.738106	1.005293	0.075588
O6	O	1.080843	1.005308	-0.267158
O7	O	0.738105	1.005295	-0.075553
O8	O	1.080843	0.662563	0.075581
O9	O	0.738106	1.348037	-0.267151
O10	O	1.061670	0.892511	-0.056383
O11	O	0.948878	0.892506	0.056412
O12	O	0.948878	1.118095	-0.169173
O13	O	0.836086	1.118090	-0.056378
Zr14	Zr	1.125798	1.005302	0.120543
Zr15	Zr	1.125798	1.005306	-0.120509
Zr16	Zr	0.884751	1.005296	0.120543
Zr17	Zr	0.884751	1.246347	-0.120504
Zr18	Zr	1.125798	0.764254	0.120538
O19	O	1.080844	1.196902	0.075591
O20	O	1.080843	1.196908	-0.267154
O21	O	0.738106	1.196893	0.075591
O22	O	1.272444	0.813702	0.267188
O23	O	1.272443	0.813708	-0.075558
O24	O	0.929706	0.813693	0.267188
O25	O	1.272444	1.005309	-0.075554
O26	O	1.080844	1.005298	0.267192
O27	O	0.929706	1.005294	0.267192
O28	O	1.272444	1.005306	0.075587
O29	O	0.929706	1.348042	-0.267151
O30	O	1.080843	0.662559	0.267185
O31	O	1.272443	0.662564	0.267185
O32	O	1.272443	0.662568	0.075580
O33	O	0.738106	1.348034	-0.075547
O34	O	0.929706	1.348039	-0.075547
O35	O	1.061671	0.892507	0.169207
O36	O	1.174463	0.892512	0.056412
O37	O	1.061671	1.118096	-0.056378
O38	O	0.948879	1.118091	0.056417
C39	C	1.005274	0.703787	0.000011
C40	C	1.005274	0.601456	0.000009
C41	C	1.064148	0.553382	-0.058869
C42	C	1.064152	0.457223	-0.058858
C43	C	0.946400	0.457223	0.058910
C44	C	0.946402	0.553374	0.058905
C45	C	0.703761	1.005293	0.000018
C46	C	0.601431	1.005290	0.000018
C47	C	0.719169	0.769778	0.117761
C48	C	0.729962	0.652026	0.176627
C49	C	0.633809	0.652031	0.176624
C50	C	0.526856	0.769802	0.117751
C51	C	0.516063	0.887554	0.058885
C52	C	0.612224	0.887535	0.058892
C53	C	0.398326	1.123063	-0.058850
C54	C	0.494477	1.123061	-0.058855
C55	C	0.291372	1.240834	-0.117723
C56	C	0.280579	1.358588	-0.176597
C57	C	0.376739	1.358578	-0.176592
C58	C	0.483685	1.240813	-0.117721
C59	C	1.306788	1.005309	0.000016
C60	C	1.409119	1.005311	0.000016
C61	C	1.005274	1.005306	-0.301503
C62	C	1.005274	1.005308	-0.403836
C63	C	1.005275	1.306815	0.000023
C64	C	1.005275	1.409146	0.000025
C65	C	1.088537	1.005311	-0.451912
C66	C	1.088540	1.005299	-0.548058
C67	C	0.922008	1.005286	-0.548046
C68	C	0.922010	1.005289	-0.451897
C69	C	1.005275	1.005295	0.301537
C70	C	1.005275	1.005294	0.403870
C71	C	1.306787	0.703795	0.000011
C72	C	1.409118	0.601466	0.000009
C73	C	1.005274	0.703782	0.301531
C74	C	1.005274	0.601449	0.403862
C75	C	1.306788	0.703789	0.301530
C76	C	1.409118	0.601459	0.403861
C77	C	0.703762	1.306812	-0.301496
C78	C	0.601431	1.409142	-0.403827
C79	C	0.703762	1.306807	0.000023
C80	C	0.601431	1.409135	0.000025
C81	C	1.005275	1.306820	-0.301497
C82	C	1.005275	1.409153	-0.403828
C83	C	1.398319	0.553389	-0.058867
C84	C	1.494474	0.457249	-0.058873
C85	C	1.612222	0.457267	0.058882
C86	C	1.516068	0.553412	0.058880
C87	C	1.064150	0.553371	0.510815
C88	C	1.064137	0.457228	0.606962
C89	C	0.946372	0.457244	0.489189
C90	C	0.946379	0.553392	0.393045
C91	C	1.516070	0.553385	0.393062
C92	C	1.612217	0.457243	0.489216
C93	C	1.494447	0.457255	0.606967
C94	C	1.398302	0.553402	0.510813
H95	H	0.797468	0.769762	0.117760
H96	H	0.367939	1.454467	-0.224514
O97	O	0.832208	1.005280	-0.400024
H98	H	0.748251	1.093327	-0.462487
H99	H	1.524882	0.592513	0.305980
H100	H	0.898430	0.592541	0.305953
O101	O	1.482780	0.405404	0.722319
H102	H	1.567603	0.330457	0.787369
H103	H	1.311239	0.592524	-0.106816
O104	O	0.882874	0.405379	0.477546
H105	H	0.792378	0.486080	0.430871
O106	O	1.727575	0.405379	0.477572
H107	H	1.718937	0.454945	0.387048
O108	O	1.282934	0.605250	0.522453
H109	H	1.291563	0.555663	0.612975
H110	H	1.485671	0.418111	-0.106818
O111	O	1.727573	0.405426	0.122391
H112	H	1.792622	0.330482	0.112513
H113	H	1.112086	0.592527	-0.106823
H114	H	1.156341	1.005300	-0.587197
H115	H	1.112094	0.418083	-0.106800
O116	O	0.882909	0.605201	0.122436
H117	H	0.942370	0.586721	0.187516
O118	O	0.882888	0.405381	0.122416
H119	H	0.892764	0.330456	0.112518
H120	H	1.524869	0.592561	0.106824
H121	H	1.156336	1.005324	-0.412781
H122	H	1.112102	0.592500	0.519629
O123	O	0.845318	0.525009	0.240110
H124	H	0.891960	0.519358	0.305187
O125	O	0.645448	0.525027	0.240109
H126	H	0.604467	0.519382	0.305191
H127	H	0.448569	0.769796	0.117766
H128	H	0.193494	1.454467	-0.224521
O129	O	0.187659	1.240851	-0.117742
H130	H	0.213129	1.139188	-0.066932
O131	O	0.587393	1.240806	-0.117718
H132	H	0.663571	1.139134	-0.066885
O133	O	1.127651	0.405371	0.722315
H134	H	1.068212	0.423837	0.768937
O135	O	0.832193	1.005288	-0.599893
H136	H	0.846169	1.005304	-0.674837
