data_functionalizedCrystal
_audit_creation_method	'MofGen! by Chris Wilmer'
_symmetry_space_group_name_H-M	'P1'
_symmetry_Int_Tables_number	1
_symmetry_cell_setting	triclinic
loop_
_symmetry_equiv_pos_as_xyz
  x,y,z
_cell_length_a	33.510554
_cell_length_b	33.509711
_cell_length_c	33.506470
_cell_angle_alpha	60.004186
_cell_angle_beta	60.008358
_cell_angle_gamma	59.994760
loop_
_atom_site_label
_atom_site_type_symbol
_atom_site_fract_x
_atom_site_fract_y
_atom_site_fract_z
O1	O	0.055430	-0.583081	0.487524
O2	O	0.020931	-0.453975	0.392819
O3	O	0.102693	-0.535652	0.392731
O4	O	-0.026332	-0.501404	0.487613
O5	O	0.129823	-0.508526	0.419767
O6	O	0.048062	-0.426850	0.419856
O7	O	0.082561	-0.555956	0.514561
Cu8	Cu	0.067789	-0.488926	0.469677
Cu9	Cu	0.035703	-0.521005	0.437703
O10	O	0.000799	-0.474279	0.514649
N11	N	0.090357	-0.466366	0.492168
N12	N	0.013139	-0.543569	0.415212
C13	C	0.143028	-0.279707	0.544737
C14	C	0.143165	-0.413746	0.678712
C15	C	0.143043	-0.413725	0.544739
C16	C	0.277090	-0.413694	0.544637
C17	C	0.157791	-0.323929	0.559462
C18	C	0.157869	-0.398994	0.634489
C19	C	0.232865	-0.398963	0.559407
C20	C	0.157801	-0.398982	0.559463
C21	C	0.124237	-0.223419	0.525994
C22	C	0.124262	-0.432490	0.525997
C23	C	0.176583	-0.380217	0.578205
C24	C	0.358938	-0.399566	0.501510
C25	C	0.410104	-0.416609	0.484423
C26	C	0.410135	-0.499402	0.515995
C27	C	0.358969	-0.482358	0.533084
C28	C	0.136554	-0.197822	0.475693
C29	C	0.119469	-0.146653	0.458657
C30	C	0.077755	-0.146680	0.542223
C31	C	0.094840	-0.197850	0.559260
C32	C	0.073954	-0.420144	0.538396
C33	C	0.056884	-0.437203	0.521352
C34	C	0.140427	-0.478952	0.479524
C35	C	0.157498	-0.461894	0.496561
C36	C	0.074158	-0.420182	0.760618
C37	C	0.057149	-0.437256	0.811786
C38	C	0.140732	-0.479014	0.811717
C39	C	0.157740	-0.461942	0.760547
C40	C	0.124452	-0.432525	0.734999
C41	C	0.333372	-0.432439	0.525839
C42	C	-0.020612	-0.577650	0.170305
C43	C	-0.020943	-0.788098	0.380897
C44	C	-0.020912	-0.577638	0.380991
C45	C	-0.231336	-0.577418	0.380585
C46	C	-0.129735	-0.611383	0.346870
C47	C	-0.054722	-0.611464	0.347017
C48	C	-0.073450	-0.630202	0.328195
C49	C	-0.087616	-0.712029	0.371239
C50	C	-0.070599	-0.763199	0.388315
C51	C	0.012191	-0.763282	0.356872
C52	C	-0.004828	-0.712113	0.339795
C53	C	-0.155381	-0.623711	0.397158
C54	C	-0.206547	-0.606601	0.414133
C55	C	-0.206417	-0.564839	0.330529
C56	C	-0.155251	-0.581949	0.313554
C57	C	-0.067051	-0.561160	0.334643
C58	C	-0.050026	-0.544131	0.351759
C59	C	-0.008343	-0.627704	0.393612
C60	C	-0.025368	-0.644736	0.376502
C61	C	-0.066922	-0.561168	0.246303
C62	C	-0.049794	-0.544141	0.195134
C63	C	-0.008048	-0.627719	0.195183
C64	C	-0.025175	-0.644745	0.246352
C65	C	-0.054614	-0.611468	0.271911
C66	C	-0.054732	-0.686488	0.346980
C67	C	-0.002117	-0.558258	0.114025
C68	C	-0.002879	-0.844379	0.399940
C69	C	-0.002504	-0.558243	0.399473
C70	C	-0.287615	-0.558285	0.398601
N71	N	0.434975	-0.466279	0.491900
O72	O	0.591199	-0.470749	0.375150
O73	O	0.591395	-0.565767	0.504116
O74	O	0.591311	-0.565550	0.422329
O75	O	0.591283	-0.470966	0.456937
O76	O	0.510024	-0.538522	0.449509
O77	O	0.510108	-0.538739	0.531297
O78	O	0.509913	-0.443721	0.402330
Cu79	Cu	0.502588	-0.488762	0.469295
Cu80	Cu	0.598719	-0.520726	0.437151
O81	O	0.509997	-0.443938	0.484117
N82	N	0.666332	-0.543209	0.414541
N83	N	0.090323	-0.121809	0.492157
O84	O	-0.026342	0.034503	0.487582
O85	O	0.102626	0.034543	0.392540
O86	O	0.020797	0.034507	0.392812
O87	O	0.055487	0.034539	0.487310
O88	O	0.047933	-0.046785	0.419900
O89	O	0.129763	-0.046749	0.419628
O90	O	0.000794	-0.046789	0.514670
Cu91	Cu	0.067756	-0.054192	0.469623
Cu92	Cu	0.035664	0.041946	0.437588
O93	O	0.082623	-0.046753	0.514399
N94	N	0.013091	0.109564	0.415054
N95	N	0.090671	-0.466416	0.836606
O96	O	0.086120	-0.583065	0.992910
O97	O	-0.008880	-0.454051	0.992954
O98	O	-0.008658	-0.535864	0.992931
O99	O	0.085897	-0.501252	0.992933
O100	O	0.018407	-0.508749	0.911642
O101	O	0.018185	-0.426936	0.911665
O102	O	0.113185	-0.555949	0.911621
Cu103	Cu	0.068156	-0.488967	0.904221
Cu104	Cu	0.036148	-0.521034	1.000355
O105	O	0.112963	-0.474136	0.911644
N106	N	0.013633	-0.543590	1.067970
C107	C	0.031262	-0.424144	0.393290
C108	C	0.132513	-0.525291	0.393180
C109	C	0.072229	-0.585787	0.514090
C110	C	-0.029022	-0.484640	0.514200
C111	C	0.550775	-0.565338	0.533954
C112	C	0.550672	-0.565070	0.432670
C113	C	0.550530	-0.444149	0.372492
C114	C	0.550635	-0.444418	0.473776
C115	C	0.132408	-0.005998	0.392963
C116	C	0.031106	-0.006142	0.393333
C117	C	-0.029021	-0.006147	0.514213
C118	C	0.072314	-0.006104	0.513878
C119	C	-0.008430	-0.424240	0.952316
C120	C	-0.008150	-0.525550	0.952271
C121	C	0.112735	-0.585760	0.952260
C122	C	0.112461	-0.484444	0.952286
H123	H	0.016194	-0.427197	0.832639
H124	H	0.550467	-0.414317	0.335455
O125	O	-0.073171	-0.006243	0.549851
C126	C	-0.066699	-0.048335	0.591037
H127	H	-0.030909	-0.077757	0.579251
H128	H	-0.065556	-0.038807	0.618613
C129	C	-0.153476	-0.031303	0.629172
C130	C	-0.109521	-0.067441	0.614695
H131	H	-0.179892	-0.043088	0.643767
H132	H	-0.157837	-0.002944	0.601425
H133	H	-0.152517	-0.023366	0.652149
H134	H	-0.110478	-0.075373	0.591714
H135	H	-0.105161	-0.095802	0.642439
O136	O	0.550821	-0.600974	0.578120
C137	C	0.550863	-0.643061	0.578100
H138	H	0.535435	-0.632233	0.549180
H139	H	0.589874	-0.669602	0.569524
C140	C	0.537999	-0.681105	0.664247
C141	C	0.519046	-0.667806	0.628730
H142	H	0.518375	-0.696371	0.695478
H143	H	0.537973	-0.652752	0.664261
H144	H	0.570508	-0.703220	0.657094
H145	H	0.486540	-0.645686	0.635880
H146	H	0.519066	-0.696156	0.628719
O147	O	0.550689	-0.409030	0.482643
C148	C	0.592824	-0.425834	0.494086
H149	H	0.606902	-0.467499	0.508101
H150	H	0.622263	-0.411875	0.459916
C151	C	0.562776	-0.355590	0.516601
C152	C	0.580064	-0.406764	0.533818
H153	H	0.554906	-0.343825	0.541107
H154	H	0.534389	-0.344267	0.508889
H155	H	0.587311	-0.343964	0.488126
H156	H	0.555527	-0.418389	0.562289
H157	H	0.608446	-0.418088	0.541535
H158	H	0.550685	-0.594783	0.425263
H159	H	-0.038255	-0.387188	0.952329
O160	O	0.080945	-0.629997	0.549638
C161	C	0.038954	-0.630126	0.591790
H162	H	0.015642	-0.590953	0.591316
H163	H	0.016873	-0.647641	0.592399
C164	C	0.083034	-0.707636	0.638232
C165	C	0.054405	-0.659523	0.637653
H166	H	0.092564	-0.725771	0.666523
H167	H	0.111324	-0.707550	0.609834
H168	H	0.064629	-0.722225	0.638738
H169	H	0.072812	-0.644933	0.637141
H170	H	0.026118	-0.659607	0.666052
O171	O	0.020483	-0.660092	0.170413
C172	C	-0.005374	-0.689626	0.182858
H173	H	-0.035199	-0.690089	0.219979
H174	H	-0.022687	-0.674225	0.154010
C175	C	0.066691	-0.741500	0.139686
C176	C	0.030061	-0.742071	0.185280
H177	H	0.088548	-0.773850	0.141179
H178	H	0.084111	-0.721601	0.131300
H179	H	0.052257	-0.728663	0.115651
H180	H	0.044495	-0.754902	0.209314
H181	H	0.012645	-0.761973	0.193671
H182	H	0.142166	-0.477036	0.952281
H183	H	0.023675	-0.006147	0.363643
H184	H	0.079744	-0.006095	0.543566
O185	O	0.022507	-0.379942	0.357741
C186	C	0.027924	-0.386320	0.316563
H187	H	0.052411	-0.425284	0.317007
H188	H	-0.009456	-0.379379	0.317535
C189	C	0.021183	-0.302171	0.269124
C190	C	0.051262	-0.350027	0.269668
H191	H	0.035577	-0.279783	0.240197
H192	H	0.017532	-0.297874	0.296867
H193	H	-0.009965	-0.296395	0.269936
H194	H	0.082408	-0.355805	0.268862
H195	H	0.054920	-0.354325	0.241923
O196	O	0.176525	-0.005807	0.357294
C197	C	0.198319	-0.047813	0.343977
H198	H	0.182363	-0.077402	0.375317
H199	H	0.190762	-0.038253	0.310075
C200	C	0.273487	-0.030301	0.294397
C201	C	0.253892	-0.066644	0.332891
H202	H	0.307767	-0.041916	0.287556
H203	H	0.258804	-0.001999	0.303367
H204	H	0.267184	-0.022338	0.266150
H205	H	0.260189	-0.074602	0.361139
H206	H	0.268578	-0.094947	0.323925
O207	O	0.041754	-0.391626	0.735878
C208	C	-0.006284	-0.384383	0.769464
H209	H	-0.006156	-0.415240	0.805927
H210	H	-0.020944	-0.347935	0.774917
C211	C	-0.039289	-0.346122	0.704744
C212	C	-0.039131	-0.384024	0.749527
H213	H	-0.059551	-0.345898	0.692446
H214	H	-0.006925	-0.351000	0.682116
H215	H	-0.051504	-0.315753	0.709294
H216	H	-0.026910	-0.414392	0.744976
H217	H	-0.071494	-0.379150	0.772154
H218	H	-0.066081	-0.477343	0.543993
O219	O	-0.043514	-0.534441	0.952208
C220	C	-0.025708	-0.582487	0.952192
H221	H	0.015924	-0.595354	0.936819
H222	H	-0.038077	-0.607782	0.991179
C223	C	-0.096921	-0.567617	0.939154
C224	C	-0.045788	-0.583419	0.920269
H225	H	-0.109308	-0.568193	0.919465
H226	H	-0.108918	-0.535248	0.939166
H227	H	-0.107221	-0.588698	0.971643
H228	H	-0.035488	-0.562334	0.887783
H229	H	-0.033789	-0.615785	0.920251
H230	H	0.142562	-0.622811	0.952240
O231	O	0.176718	-0.534073	0.357649
C232	C	0.185451	-0.573621	0.346356
H233	H	0.162617	-0.597110	0.378683
H234	H	0.174939	-0.559099	0.312839
C235	C	0.268079	-0.575860	0.295924
C236	C	0.240037	-0.604711	0.335630
H237	H	0.301750	-0.595037	0.289305
H238	H	0.262195	-0.549214	0.303530
H239	H	0.259314	-0.563760	0.267998
H240	H	0.248798	-0.616805	0.363556
H241	H	0.245923	-0.631360	0.328028
O242	O	0.173134	-0.507600	0.836459
C243	C	0.221173	-0.514823	0.802875
H244	H	0.221047	-0.509093	0.766410
H245	H	0.235830	-0.487587	0.797428
C246	C	0.254174	-0.574282	0.867597
C247	C	0.254020	-0.567248	0.822810
H248	H	0.274437	-0.606619	0.879894
H249	H	0.221810	-0.569414	0.890223
H250	H	0.266387	-0.551581	0.863051
H251	H	0.241801	-0.589944	0.827358
H252	H	0.286383	-0.572121	0.800185
H253	H	-0.090949	-0.534065	0.310634
H254	H	0.046887	-0.396202	0.562361
O255	O	0.206583	-0.473905	0.735587
C256	C	0.214460	-0.452521	0.684946
H257	H	0.180869	-0.444813	0.677987
H258	H	0.221264	-0.416821	0.670424
C259	C	0.300505	-0.497266	0.667196
C260	C	0.259250	-0.487803	0.658648
H261	H	0.328135	-0.519028	0.650973
H262	H	0.295199	-0.511671	0.701314
H263	H	0.306169	-0.467513	0.655094
H264	H	0.253584	-0.517554	0.670755
H265	H	0.264557	-0.473403	0.624532
O266	O	0.008011	-0.425275	0.533479
C267	C	-0.013193	-0.442788	0.584732
H268	H	0.015969	-0.474342	0.601195
H269	H	-0.029345	-0.412099	0.599901
C270	C	-0.089748	-0.421995	0.577770
C271	C	-0.053931	-0.460753	0.597990
H272	H	-0.114879	-0.433075	0.585948
H273	H	-0.075463	-0.410194	0.543239
H274	H	-0.103202	-0.396425	0.590412
H275	H	-0.040473	-0.486320	0.585342
H276	H	-0.068215	-0.472558	0.632518
O277	O	0.172783	-0.507496	0.450919
C278	C	0.220846	-0.514746	0.443645
H279	H	0.220757	-0.483897	0.449361
H280	H	0.235536	-0.551200	0.470862
C281	C	0.253733	-0.552981	0.384194
C282	C	0.253624	-0.515090	0.391210
H283	H	0.273953	-0.553196	0.351850
H284	H	0.221352	-0.548099	0.389096
H285	H	0.265973	-0.583356	0.406878
H286	H	0.241378	-0.484716	0.368530
H287	H	0.286004	-0.519967	0.386303
H288	H	0.198463	-0.471942	0.486461
H289	H	0.338156	-0.509129	0.552896
H290	H	0.430920	-0.389838	0.464614
O291	O	0.434924	-0.547911	0.523089
C292	C	0.401387	-0.573271	0.548216
H293	H	0.364921	-0.550958	0.569201
H294	H	0.395920	-0.579193	0.520853
C295	C	0.466187	-0.650521	0.558504
C296	C	0.421399	-0.623118	0.584281
H297	H	0.478531	-0.681270	0.580749
H298	H	0.488781	-0.633436	0.541574
H299	H	0.461625	-0.655451	0.535703
H300	H	0.425963	-0.618183	0.607077
H301	H	0.398806	-0.640204	0.601216
H302	H	0.338097	-0.358917	0.495611
H303	H	0.129496	-0.125810	0.417697
O304	O	0.165085	-0.222583	0.443312
C305	C	0.172298	-0.189017	0.395261
H306	H	0.141437	-0.152550	0.395376
H307	H	0.208743	-0.183560	0.380573
C308	C	0.210535	-0.253773	0.362316
C309	C	0.172630	-0.208985	0.362456
H310	H	0.210742	-0.266091	0.342080
H311	H	0.205678	-0.276388	0.394689
H312	H	0.240902	-0.249220	0.350078
H313	H	0.142263	-0.213540	0.374700
H314	H	0.177482	-0.186371	0.330085
H315	H	0.053825	-0.125861	0.569312
H316	H	0.084809	-0.218687	0.600218
H317	H	-0.090896	-0.534066	0.267110
O318	O	-0.061823	-0.495259	0.170339
C319	C	-0.091469	-0.469544	0.203873
H320	H	-0.110114	-0.493923	0.240329
H321	H	-0.067884	-0.458534	0.209369
C322	C	-0.107627	-0.393452	0.139057
C323	C	-0.130530	-0.423393	0.183832
H324	H	-0.131720	-0.364983	0.126694
H325	H	-0.087653	-0.410777	0.116464
H326	H	-0.087974	-0.384283	0.143643
H327	H	-0.150178	-0.432567	0.179245
H328	H	-0.150509	-0.406069	0.206424
H329	H	-0.015148	-0.685706	0.267200
H330	H	-0.060067	-0.503170	0.341685
H331	H	0.015562	-0.654800	0.417614
O332	O	-0.013414	-0.693609	0.388587
C333	C	-0.030989	-0.714854	0.439830
H334	H	-0.036021	-0.690615	0.457774
H335	H	-0.067556	-0.718614	0.451333
C336	C	0.012188	-0.795495	0.433990
C337	C	0.006012	-0.765727	0.456029
H338	H	0.035010	-0.826877	0.443983
H339	H	0.024027	-0.781182	0.399466
H340	H	-0.018287	-0.798623	0.443578
H341	H	0.036486	-0.762595	0.446437
H342	H	-0.005821	-0.780041	0.490552
O343	O	0.027181	-0.687377	0.316259
C344	C	0.074878	-0.720969	0.313572
H345	H	0.072887	-0.757429	0.343796
H346	H	0.094450	-0.726431	0.276496
C347	C	0.105674	-0.656251	0.282773
C348	C	0.103230	-0.701030	0.319897
H349	H	0.123164	-0.643951	0.286672
H350	H	0.073541	-0.633619	0.284581
H351	H	0.121984	-0.660809	0.251880
H352	H	0.086915	-0.696470	0.350789
H353	H	0.135362	-0.723661	0.318094
H354	H	0.052828	-0.784146	0.351024
O355	O	-0.231231	-0.536318	0.298189
C356	C	-0.260847	-0.559528	0.305508
H357	H	-0.245470	-0.600551	0.324103
H358	H	-0.299638	-0.544399	0.329611
C359	C	-0.280453	-0.499516	0.232985
C360	C	-0.261565	-0.549902	0.255821
H361	H	-0.280898	-0.493576	0.202336
H362	H	-0.260502	-0.483877	0.228055
H363	H	-0.312777	-0.486915	0.253076
H364	H	-0.229239	-0.562500	0.235733
H365	H	-0.281510	-0.565542	0.260746
O366	O	-0.102619	-0.787935	0.411946
C367	C	-0.150319	-0.754345	0.414647
H368	H	-0.152275	-0.717863	0.411239
H369	H	-0.159878	-0.748936	0.383661
C370	C	-0.184465	-0.819048	0.468245
C371	C	-0.186869	-0.774242	0.464063
H372	H	-0.207012	-0.831321	0.498726
H373	H	-0.152329	-0.841679	0.466424
H374	H	-0.192431	-0.814534	0.442420
H375	H	-0.178898	-0.778757	0.489884
H376	H	-0.219005	-0.751612	0.465889
H377	H	-0.134607	-0.647683	0.424287
O378	O	-0.231444	-0.618660	0.462990
C379	C	-0.218977	-0.669908	0.484254
H380	H	-0.204872	-0.686410	0.455114
H381	H	-0.189320	-0.685090	0.500475
C382	C	-0.281797	-0.662822	0.560727
C383	C	-0.264477	-0.683089	0.524936
H384	H	-0.309862	-0.670954	0.585823
H385	H	-0.290195	-0.628296	0.546401
H386	H	-0.257078	-0.675476	0.574238
H387	H	-0.289192	-0.670431	0.511422
H388	H	-0.256084	-0.717614	0.539260
O389	O	-0.130355	-0.570035	0.264697
C390	C	-0.142834	-0.587505	0.243396
H391	H	-0.156945	-0.619036	0.272511
H392	H	-0.172488	-0.556785	0.227185
C393	C	-0.080011	-0.566768	0.166938
C394	C	-0.097339	-0.605497	0.202696
H395	H	-0.051948	-0.577864	0.141831
H396	H	-0.071605	-0.554996	0.181288
H397	H	-0.104727	-0.541171	0.153434
H398	H	-0.072625	-0.631090	0.216203
H399	H	-0.105740	-0.617273	0.188348
H400	H	-0.128252	-0.691169	0.377093
