data_functionalizedCrystal
_audit_creation_method	'MofGen! by Chris Wilmer'
_symmetry_space_group_name_H-M	'P1'
_symmetry_Int_Tables_number	1
_symmetry_cell_setting	triclinic
loop_
_symmetry_equiv_pos_as_xyz
  x,y,z
_cell_length_a	18.101398
_cell_length_b	18.101397
_cell_length_c	21.395356
_cell_angle_alpha	89.970896
_cell_angle_beta	89.981071
_cell_angle_gamma	90.018618
loop_
_atom_site_label
_atom_site_type_symbol
_atom_site_fract_x
_atom_site_fract_y
_atom_site_fract_z
Zn1	Zn	1.132209	-0.294885	-0.354177
Zn2	Zn	1.632209	0.205115	0.145823
Zn3	Zn	1.132118	-0.418728	-0.249397
Zn4	Zn	1.632118	0.081272	0.250603
Zn5	Zn	1.008358	-0.294901	-0.249423
Zn6	Zn	1.508358	0.205099	0.250577
Zn7	Zn	1.008342	-0.418685	-0.354146
Zn8	Zn	1.508342	0.081315	0.145854
O9	O	1.070257	-0.356800	-0.301786
O10	O	1.570257	0.143200	0.198214
O11	O	1.235830	-0.311324	-0.340281
O12	O	1.735830	0.188676	0.159719
O13	O	1.115670	-0.402327	-0.161723
O14	O	1.615670	0.097673	0.338277
O15	O	1.024832	-0.191266	-0.263342
O16	O	1.524832	0.308734	0.236658
O17	O	1.235763	-0.402311	-0.263299
O18	O	1.735763	0.097689	0.236701
O19	O	1.115825	-0.191254	-0.340305
O20	O	1.615825	0.308746	0.159695
O21	O	1.024744	-0.311351	-0.161741
O22	O	1.524744	0.188649	0.338259
O23	O	0.904723	-0.311310	-0.263312
O24	O	1.404723	0.188690	0.236688
O25	O	1.024804	-0.402238	-0.441828
O26	O	1.524804	0.097762	0.058172
O27	O	0.904711	-0.402254	-0.340252
O28	O	1.404711	0.097746	0.159748
O29	O	1.115809	-0.311283	-0.441851
O30	O	1.615809	0.188717	0.058149
O31	O	1.115654	-0.522355	-0.263269
O32	O	1.615654	-0.022355	0.236731
O33	O	1.024716	-0.522324	-0.340227
O34	O	1.524716	-0.022324	0.159773
C35	C	0.877846	-0.356779	-0.301781
C36	C	1.377846	0.143221	0.198219
C37	C	0.795532	-0.356788	-0.301794
C38	C	1.295532	0.143212	0.198206
C39	C	0.644824	-0.356802	-0.301793
C40	C	1.144824	0.143198	0.198207
C41	C	0.613487	-0.414110	-0.350127
C42	C	1.113487	0.085890	0.149873
C43	C	0.527869	-0.414342	-0.349984
C44	C	1.027869	0.085658	0.150016
C45	C	0.496441	-0.356816	-0.301793
C46	C	0.996441	0.143184	0.198207
C47	C	0.527492	-0.377640	-0.235681
C48	C	1.027492	0.122360	0.264319
C49	C	0.613137	-0.378048	-0.235961
C50	C	1.113137	0.121952	0.264039
C51	C	0.613290	-0.278529	-0.318995
C52	C	1.113290	0.221471	0.181005
C53	C	0.527640	-0.278958	-0.320451
C54	C	1.027640	0.221042	0.179549
C55	C	0.412582	-0.356822	-0.301789
C56	C	0.912582	0.143178	0.198211
C57	C	0.728683	-0.356798	-0.301793
C58	C	1.228683	0.143202	0.198207
C59	C	1.070193	-0.549210	-0.301755
C60	C	1.570193	-0.049210	0.198245
C61	C	1.070234	-0.631524	-0.301763
C62	C	1.570234	-0.131524	0.198237
C63	C	1.070329	-0.930615	-0.301821
C64	C	1.570329	-0.430615	0.198179
C65	C	1.127385	-0.899279	-0.253271
C66	C	1.627385	-0.399279	0.246729
C67	C	1.127582	-0.813661	-0.253396
C68	C	1.627582	-0.313661	0.246604
C69	C	1.070282	-0.782233	-0.301792
C70	C	1.570282	-0.282233	0.198208
C71	C	1.091444	-0.813243	-0.367833
C72	C	1.591444	-0.313243	0.132167
C73	C	1.091886	-0.898888	-0.367568
C74	C	1.591886	-0.398888	0.132432
C75	C	0.991958	-0.899121	-0.284901
C76	C	1.491958	-0.399121	0.215099
C77	C	0.992345	-0.813472	-0.283426
C78	C	1.492345	-0.313472	0.216574
C79	C	1.070254	-0.698373	-0.301779
C80	C	1.570254	-0.198373	0.198221
C81	C	1.070358	-1.014475	-0.301837
C82	C	1.570358	-0.514475	0.198163
C83	C	1.263419	-0.356821	-0.301790
C84	C	1.763419	0.143179	0.198210
C85	C	1.345733	-0.356830	-0.301792
C86	C	1.845733	0.143170	0.198208
C87	C	1.070315	-0.356754	-0.465209
C88	C	1.570315	0.143246	0.034791
C89	C	1.070340	-0.356734	-0.534850
C90	C	1.570340	0.143266	-0.034850
C91	C	1.070341	-0.163638	-0.301830
C92	C	1.570341	0.336362	0.198170
C93	C	1.070376	-0.081324	-0.301849
C94	C	1.570376	0.418676	0.198151
C95	C	1.023007	-0.309358	-0.567563
C96	C	1.523007	0.190642	-0.067563
C97	C	1.023005	-0.309344	-0.632999
C98	C	1.523005	0.190656	-0.132999
C99	C	1.070348	-0.356699	-0.665719
C100	C	1.570348	0.143301	-0.165719
C101	C	1.117684	-0.404084	-0.632998
C102	C	1.617684	0.095916	-0.132998
C103	C	1.117680	-0.404102	-0.567564
C104	C	1.617680	0.095898	-0.067564
C105	C	1.137074	-0.362524	-0.769400
C106	C	1.637074	0.137476	-0.269400
C107	C	1.137079	-0.362501	-0.834833
C108	C	1.637079	0.137499	-0.334833
C109	C	1.070360	-0.356649	-0.867540
C110	C	1.570360	0.143351	-0.367540
C111	C	1.003634	-0.350805	-0.834805
C112	C	1.503634	0.149195	-0.334805
C113	C	1.003630	-0.350822	-0.769371
C114	C	1.503630	0.149178	-0.269371
C115	C	1.070357	-0.356686	-0.736671
C116	C	1.570357	0.143314	-0.236671
C117	C	1.023021	-0.309255	-0.971205
C118	C	1.523021	0.190745	-0.471205
C119	C	1.023017	-0.309247	-1.036642
C120	C	1.523017	0.190753	-0.536642
C121	C	1.117703	-0.403983	-1.036640
C122	C	1.617703	0.096017	-0.536640
C123	C	1.117700	-0.403995	-0.971204
C124	C	1.617700	0.096005	-0.471204
C125	C	1.070360	-0.356628	-0.938491
C126	C	1.570360	0.143372	-0.438491
C127	C	1.070241	-0.356792	-0.138998
C128	C	1.570241	0.143208	0.361002
C129	C	1.070360	-0.356603	-0.069357
C130	C	1.570360	0.143397	0.430643
H131	H	0.633865	-0.338091	-0.198713
H132	H	1.133865	0.161909	0.301287
F133	F	0.932621	-0.344573	-0.869608
F134	F	1.432621	0.155427	-0.369608
H135	H	0.633088	-0.435255	-0.221423
H136	H	1.133088	0.064745	0.278577
H137	H	0.972707	-0.920780	-0.237579
H138	H	1.472707	-0.420780	0.262421
F139	F	0.933788	-0.785520	-0.326261
F140	F	1.433788	-0.285520	0.173739
H141	H	1.156252	-0.442539	-1.063280
H142	H	1.656252	0.057461	-0.563280
F143	F	0.972638	-0.258906	-0.667821
F144	F	1.472638	0.241094	-0.167821
F145	F	0.499673	-0.220199	-0.277834
F146	F	0.999673	0.279801	0.222166
H147	H	0.976388	-0.793211	-0.234825
H148	H	1.476388	-0.293211	0.265175
F149	F	1.166762	-0.924928	-0.386301
F150	F	1.666762	-0.424928	0.113699
H151	H	1.185635	-0.793119	-0.264591
H152	H	1.685635	-0.293119	0.235409
F153	F	0.972635	-0.258847	-0.936387
F154	F	1.472635	0.241153	-0.436387
H155	H	0.506876	-0.401352	-0.398997
H156	H	1.006876	0.098648	0.101003
H157	H	0.507134	-0.337179	-0.198680
H158	H	1.007134	0.162821	0.301320
F159	F	0.641556	-0.253660	-0.380946
F160	F	1.141556	0.246340	0.119054
F161	F	0.501119	-0.258422	-0.384047
F162	F	1.001119	0.241578	0.115953
F163	F	0.932617	-0.344606	-0.734534
F164	F	1.432617	0.155394	-0.234534
H165	H	0.634110	-0.401271	-0.399292
H166	H	1.134110	0.098729	0.100708
F167	F	0.936392	-0.925611	-0.331118
F168	F	1.436392	-0.425611	0.168882
F169	F	0.499426	-0.451596	-0.216352
F170	F	0.999426	0.048404	0.283648
F171	F	0.972621	-0.258947	-0.532751
F172	F	1.472621	0.241053	-0.032751
H173	H	0.633556	-0.235835	-0.283795
H174	H	1.133556	0.264165	0.216205
H175	H	1.114342	-0.792697	-0.204428
H176	H	1.614342	-0.292697	0.295572
H177	H	0.984468	-0.270670	-1.063276
H178	H	1.484468	0.229330	-0.563276
H179	H	1.052149	-0.919614	-0.404988
H180	H	1.552149	-0.419614	0.095012
F181	F	1.110293	-0.926262	-0.189072
F182	F	1.610293	-0.426262	0.310928
H183	H	1.156245	-0.442573	-0.944569
H184	H	1.656245	0.057427	-0.444569
F185	F	1.208090	-0.368757	-0.734598
F186	F	1.708090	0.131243	-0.234598
H187	H	1.185120	-0.920749	-0.264336
H188	H	1.685120	-0.420749	0.235664
F189	F	1.168067	-0.454485	-0.667822
F190	F	1.668067	0.045515	-0.167822
H191	H	1.191412	-0.367256	-0.861481
H192	H	1.691412	0.132744	-0.361481
F193	F	1.038784	-0.786640	-0.416386
F194	F	1.538784	-0.286640	0.083614
F195	F	1.168060	-0.454528	-0.532747
F196	F	1.668060	0.045472	-0.032747
H197	H	0.634985	-0.471781	-0.338852
H198	H	1.134985	0.028219	0.161148
F199	F	1.165482	-0.785136	-0.386885
F200	F	1.665482	-0.285136	0.113115
H201	H	0.507357	-0.472346	-0.338571
H202	H	1.007357	0.027654	0.161429
