data_functionalizedCrystal
_audit_creation_method	'MofGen! by Chris Wilmer'
_symmetry_space_group_name_H-M	'P1'
_symmetry_Int_Tables_number	1
_symmetry_cell_setting	triclinic
loop_
_symmetry_equiv_pos_as_xyz
  x,y,z
_cell_length_a	14.044220
_cell_length_b	14.044190
_cell_length_c	9.730223
_cell_angle_alpha	89.993542
_cell_angle_beta	90.004504
_cell_angle_gamma	93.190328
loop_
_atom_site_label
_atom_site_type_symbol
_atom_site_fract_x
_atom_site_fract_y
_atom_site_fract_z
O1	O	1.277168	0.230164	-0.114172
O2	O	1.000496	0.221858	-0.114205
O3	O	1.134676	0.087675	-0.114162
O4	O	1.142988	0.364347	-0.114215
O5	O	1.134674	0.087678	0.114418
O6	O	1.000495	0.221862	0.114375
O7	O	1.277167	0.230167	0.114408
Zn8	Zn	1.138831	0.226015	0.150683
Zn9	Zn	1.138832	0.226010	-0.150480
O10	O	1.142987	0.364351	0.114365
C11	C	0.964874	0.218224	0.000081
C12	C	0.858731	0.207380	0.000069
C13	C	1.131039	0.052054	0.000132
C14	C	1.120191	-0.054089	0.000142
C15	C	1.177292	-0.299547	0.000095
C16	C	1.100375	-0.248422	0.000096
C17	C	1.111404	-0.140285	0.000122
C18	C	1.166265	-0.407694	0.000069
C19	C	0.664392	0.187553	0.000100
C20	C	0.613264	0.264468	0.000091
C21	C	0.505128	0.253436	0.000108
C22	C	0.772539	0.198583	0.000083
C23	C	1.312789	0.233801	0.000119
C24	C	1.418932	0.244646	0.000122
C25	C	1.146624	0.399971	0.000068
C26	C	1.157472	0.506114	0.000049
N27	N	1.138836	0.226018	0.356220
N28	N	1.138834	0.226000	-0.356017
C29	C	1.198269	0.166625	0.428165
C30	C	1.198266	0.166613	0.572048
C31	C	1.079394	0.285396	0.572028
C32	C	1.079393	0.285402	0.428147
C33	C	1.257712	0.107241	0.356237
C34	C	1.317151	0.047844	0.428183
C35	C	1.317148	0.047832	0.572066
C36	C	1.257705	0.107218	0.644003
H37	H	1.251418	-0.262106	0.000119
O38	O	0.614802	0.089360	0.000116
H39	H	0.635810	0.050034	0.093289
O40	O	0.662847	0.362671	0.000045
H41	H	0.741233	0.356041	0.000020
H42	H	1.257723	0.107247	0.239081
H43	H	1.365541	-0.000512	0.369604
O44	O	1.381258	-0.016220	0.649672
H45	H	1.422598	-0.057501	0.575479
H46	H	1.257701	0.107196	0.761163
O47	O	1.015295	0.349456	0.649608
H48	H	1.025289	0.339482	0.761744
H49	H	1.030996	0.333765	0.369569
H50	H	1.026243	-0.285865	0.000079
