data_functionalizedCrystal
_audit_creation_method	'MofGen! by Chris Wilmer'
_symmetry_space_group_name_H-M	'P1'
_symmetry_Int_Tables_number	1
_symmetry_cell_setting	triclinic
loop_
_symmetry_equiv_pos_as_xyz
  x,y,z
_cell_length_a	15.538191
_cell_length_b	17.038272
_cell_length_c	14.185569
_cell_angle_alpha	75.875097
_cell_angle_beta	97.875798
_cell_angle_gamma	69.191825
loop_
_atom_site_label
_atom_site_type_symbol
_atom_site_fract_x
_atom_site_fract_y
_atom_site_fract_z
O1	O	1.210508	-0.225025	-0.083426
O2	O	0.943323	-0.136755	-0.083427
O3	O	1.075329	-0.294257	-0.083419
O4	O	1.078502	-0.067523	-0.083435
O5	O	1.114326	-0.340781	0.083418
O6	O	0.982319	-0.183279	0.083410
O7	O	1.249504	-0.271549	0.083411
Cu8	Cu	1.119472	-0.231662	0.098644
Cu9	Cu	1.073355	-0.176642	-0.098660
O10	O	1.117498	-0.114046	0.083402
C11	C	0.928466	-0.150781	-0.000008
C12	C	0.826096	-0.123272	-0.000009
C13	C	0.516405	-0.396569	-0.000005
C14	C	0.420212	-0.370700	-0.000008
C15	C	0.409427	-0.225194	-0.000017
C16	C	0.505622	-0.251052	-0.000010
C17	C	0.559104	-0.336740	-0.000005
C18	C	0.548321	-0.191224	-0.000010
C19	C	0.644507	-0.217079	-0.000008
C20	C	0.697994	-0.302762	-0.000006
C21	C	0.655290	-0.362595	-0.000003
C22	C	0.494836	-0.105534	-0.000022
C23	C	0.537535	-0.045706	-0.000022
C24	C	0.633725	-0.071563	-0.000013
C25	C	0.687212	-0.157246	-0.000011
C26	C	0.676429	-0.011729	-0.000016
C27	C	0.772615	-0.037584	-0.000014
C28	C	0.783398	-0.183101	-0.000009
C29	C	1.091939	-0.345828	-0.000000
C30	C	1.083321	-0.430177	-0.000001
C31	C	1.162445	-0.502729	0.000001
C32	C	1.154339	-0.581979	-0.000009
C33	C	1.067111	-0.588678	-0.000012
C34	C	0.987981	-0.516117	-0.000017
C35	C	0.996085	-0.436867	-0.000014
C36	C	1.038478	-0.826313	-0.000026
C37	C	1.030380	-0.905572	-0.000026
C38	C	1.196740	-0.971428	-0.000020
C39	C	1.204838	-0.892175	-0.000011
C40	C	1.125706	-0.819620	-0.000021
C41	C	1.058825	-0.669684	-0.000019
C42	C	1.133991	-0.738614	-0.000021
C43	C	1.264361	-0.257521	-0.000010
C44	C	1.366729	-0.285029	-0.000016
C45	C	1.100888	-0.062475	-0.000018
C46	C	1.109504	0.021876	-0.000024
N47	N	1.151915	-0.270362	0.237417
N48	N	1.040918	-0.137950	-0.237433
C49	C	0.945597	-0.024281	0.605054
C50	C	0.970180	-0.053593	0.710077
C51	C	1.087100	-0.193030	0.710045
C52	C	1.062524	-0.163731	0.605020
C53	C	0.991773	-0.079356	0.552533
C54	C	1.108700	-0.218806	0.552499
C55	C	1.084130	-0.189508	0.447483
C56	C	1.013383	-0.105135	0.394988
C57	C	0.967203	-0.050058	0.447517
C58	C	1.179455	-0.303179	0.604988
C59	C	1.225631	-0.358254	0.552467
C60	C	1.201056	-0.328958	0.447449
C61	C	1.130310	-0.244585	0.394954
C62	C	1.247237	-0.384035	0.394921
C63	C	1.222666	-0.354737	0.289904
C64	C	1.105740	-0.215287	0.289938
H65	H	0.776312	-0.323808	-0.000017
H66	H	1.218771	-0.641051	-0.000006
H67	H	1.199461	-0.327028	0.690499
H68	H	1.275868	-0.886730	-0.000008
O69	O	1.029408	-0.124287	0.233334
H70	H	0.970878	-0.130461	0.185518
O71	O	0.712983	-0.455023	0.000020
H72	H	0.787042	-0.462948	0.000031
H73	H	1.304849	-0.452731	0.437670
O74	O	1.163405	-0.284034	0.766657
H75	H	1.172730	-0.295158	0.848506
O76	O	0.964747	-0.676917	-0.000017
H77	H	0.911081	-0.613154	-0.000021
H78	H	1.260269	-0.399585	0.247141
H79	H	0.916956	-0.521575	-0.000026
O80	O	0.920374	0.005815	0.766728
H81	H	0.884235	-0.027037	0.814593
O82	O	1.301936	-0.449258	0.609079
H83	H	1.311262	-0.460382	0.690928
H84	H	0.559954	-0.466346	0.000005
O85	O	0.841100	-0.275524	0.000007
H86	H	0.809343	-0.286494	-0.067992
O87	O	0.391094	-0.077650	-0.000015
H88	H	0.347507	-0.020468	-0.068022
O89	O	0.374155	-0.435235	0.000002
H90	H	0.427509	-0.499162	0.000014
O91	O	1.282085	-1.049679	-0.000016
H92	H	1.261798	-1.105912	-0.000025
H93	H	0.807383	0.011131	-0.000004
O94	O	1.256525	-0.495502	-0.000005
H95	H	1.310179	-0.559265	-0.000019
H96	H	0.365868	-0.155426	-0.000026
H97	H	0.493977	0.024062	-0.000030
O98	O	0.936292	-0.912798	-0.000041
H99	H	0.882624	-0.849029	-0.000059
H100	H	0.632868	0.058040	-0.000030
O101	O	0.986877	-0.073537	0.281720
H102	H	0.999707	-0.012877	0.254022
H103	H	0.974043	-0.767247	-0.000034
H104	H	0.931654	-0.377793	-0.000016
O105	O	1.228073	-0.731396	-0.000022
H106	H	1.251636	-0.715834	0.067983
H107	H	0.909583	0.018645	0.404779
O108	O	0.869285	0.066724	0.548428
H109	H	0.841302	0.100105	0.602590
