data_functionalizedCrystal
_audit_creation_method	'MofGen! by Chris Wilmer'
_symmetry_space_group_name_H-M	'P1'
_symmetry_Int_Tables_number	1
_symmetry_cell_setting	triclinic
loop_
_symmetry_equiv_pos_as_xyz
  x,y,z
_cell_length_a	16.109301
_cell_length_b	16.109301
_cell_length_c	14.586319
_cell_angle_alpha	89.994786
_cell_angle_beta	89.999213
_cell_angle_gamma	83.461481
loop_
_atom_site_label
_atom_site_type_symbol
_atom_site_fract_x
_atom_site_fract_y
_atom_site_fract_z
O1	O	1.103131	0.106866	-0.076185
O2	O	1.603131	0.606866	0.423815
O3	O	0.861069	0.120165	-0.076200
O4	O	1.361069	0.620165	0.423800
O5	O	0.988749	-0.007515	-0.076183
O6	O	1.488749	0.492485	0.423817
O7	O	0.975450	0.234547	-0.076203
O8	O	1.475450	0.734547	0.423797
O9	O	0.988741	-0.007517	0.076298
O10	O	1.488741	0.492483	0.576298
O11	O	0.861060	0.120164	0.076281
O12	O	1.361060	0.620164	0.576281
O13	O	1.103122	0.106864	0.076295
O14	O	1.603122	0.606864	0.576295
Cu15	Cu	0.982090	0.113514	0.090211
Cu16	Cu	1.482090	0.613514	0.590211
Cu17	Cu	0.982101	0.113516	-0.090115
Cu18	Cu	1.482101	0.613516	0.409885
O19	O	0.975441	0.234545	0.076278
O20	O	1.475441	0.734545	0.576278
C21	C	0.830090	0.119626	0.000038
C22	C	1.330090	0.619626	0.500038
C23	C	0.737794	0.118011	0.000033
C24	C	1.237794	0.618011	0.500033
C25	C	0.515522	0.190018	0.000038
C26	C	1.015522	0.690018	0.500038
C27	C	0.428801	0.188494	0.000044
C28	C	0.928801	0.688494	0.500044
C29	C	0.448676	0.037006	0.000052
C30	C	0.948676	0.537006	0.500052
C31	C	0.535394	0.038530	0.000053
C32	C	1.035394	0.538530	0.500053
C33	C	0.568815	0.115039	0.000041
C34	C	1.068815	0.615039	0.500041
C35	C	0.395376	0.111990	0.000046
C36	C	0.895376	0.611990	0.500046
C37	C	0.301350	0.110337	0.000053
C38	C	0.801350	0.610337	0.500053
C39	C	0.662847	0.116693	0.000036
C40	C	1.162847	0.616693	0.500036
C41	C	0.988206	-0.038491	0.000058
C42	C	1.488206	0.461509	0.500058
C43	C	0.986591	-0.130786	0.000059
C44	C	1.486591	0.369214	0.500059
C45	C	1.058599	-0.353059	0.000049
C46	C	1.558599	0.146941	0.500049
C47	C	1.057075	-0.439779	0.000041
C48	C	1.557075	0.060221	0.500041
C49	C	0.905586	-0.419905	0.000036
C50	C	1.405586	0.080095	0.500036
C51	C	0.907111	-0.333186	0.000037
C52	C	1.407111	0.166814	0.500037
C53	C	0.983620	-0.299766	0.000048
C54	C	1.483620	0.200234	0.500048
C55	C	0.980571	-0.473205	0.000039
C56	C	1.480571	0.026795	0.500039
C57	C	0.978918	-0.567231	0.000031
C58	C	1.478918	-0.067231	0.500031
C59	C	0.985273	-0.205734	0.000055
C60	C	1.485273	0.294266	0.500055
C61	C	1.134101	0.107404	0.000055
C62	C	1.634101	0.607404	0.500055
C63	C	1.226397	0.109019	0.000054
C64	C	1.726397	0.609019	0.500054
C65	C	0.975984	0.265521	0.000035
C66	C	1.475984	0.765521	0.500035
C67	C	0.977600	0.357816	0.000028
C68	C	1.477600	0.857816	0.500028
N69	N	0.982089	0.113512	0.217042
N70	N	1.482089	0.613512	0.717042
N71	N	0.982109	0.113511	-0.216947
N72	N	1.482109	0.613511	0.283053
C73	C	1.038644	0.056994	0.452057
C74	C	1.538644	0.556994	0.952057
C75	C	1.038647	0.056992	0.548038
C76	C	1.538647	0.556992	1.048038
C77	C	0.925547	0.170032	0.548032
C78	C	1.425547	0.670032	1.048032
C79	C	0.925541	0.170030	0.452052
C80	C	1.425541	0.670030	0.952052
C81	C	0.982095	0.113511	0.404067
C82	C	1.482095	0.613511	0.904067
C83	C	0.982103	0.113512	0.596028
C84	C	1.482103	0.613512	1.096028
C85	C	0.982105	0.113510	0.700095
C86	C	1.482105	0.613510	1.200095
C87	C	0.982092	0.113512	0.299993
C88	C	1.482092	0.613512	0.799993
H89	H	0.542730	0.252317	0.000035
H90	H	1.042730	0.752317	0.500035
H91	H	1.084694	0.010969	0.587108
H92	H	1.584694	0.510969	1.087108
H93	H	0.846050	-0.289792	0.000033
H94	H	1.346050	0.210208	0.500033
H95	H	0.879487	0.216053	0.412977
H96	H	1.379487	0.716053	0.912977
C97	C	0.370182	0.270977	0.000045
C98	C	0.870182	0.770977	0.500045
N99	N	0.326030	0.333108	0.000048
N100	N	0.826030	0.833108	0.500048
C101	C	0.411905	-0.047150	0.000057
C102	C	0.911905	0.452850	0.500057
N103	N	0.384210	-0.110538	0.000056
N104	N	0.884210	0.389462	0.500056
C105	C	1.100848	-0.005185	0.399276
C106	C	1.600848	0.494815	0.899276
N107	N	1.147700	-0.052022	0.359525
N108	N	1.647700	0.447978	0.859525
H109	H	0.578788	-0.022530	0.000058
H110	H	1.078788	0.477470	0.500058
H111	H	1.118130	-0.483168	0.000040
H112	H	1.618130	0.016832	0.500040
C113	C	1.142761	-0.316300	0.000051
C114	C	1.642761	0.183700	0.500051
N115	N	1.206154	-0.288615	0.000049
N116	N	1.706154	0.211385	0.500049
H117	H	0.879503	0.216049	0.587111
H118	H	1.379503	0.716049	1.087111
C119	C	0.821431	-0.456676	0.000041
C120	C	1.321431	0.043324	0.500041
N121	N	0.758043	-0.484371	0.000052
N122	N	1.258043	0.015629	0.500052
