data_functionalizedCrystal
_audit_creation_method	'MofGen! by Chris Wilmer'
_symmetry_space_group_name_H-M	'P1'
_symmetry_Int_Tables_number	1
_symmetry_cell_setting	triclinic
loop_
_symmetry_equiv_pos_as_xyz
  x,y,z
_cell_length_a	11.169417
_cell_length_b	11.169416
_cell_length_c	11.169409
_cell_angle_alpha	90.030874
_cell_angle_beta	89.980176
_cell_angle_gamma	89.988781
loop_
_atom_site_label
_atom_site_type_symbol
_atom_site_fract_x
_atom_site_fract_y
_atom_site_fract_z
Zn1	Zn	1.834962	0.477682	-0.678555
Zn2	Zn	2.084962	0.727682	-0.428555
Zn3	Zn	2.334962	0.977682	-0.178555
Zn4	Zn	2.584962	1.227682	0.071445
Zn5	Zn	1.834852	0.678422	-0.477877
Zn6	Zn	2.084852	0.928422	-0.227877
Zn7	Zn	2.334852	1.178422	0.022123
Zn8	Zn	2.584852	1.428422	0.272123
Zn9	Zn	1.634248	0.477755	-0.477889
Zn10	Zn	1.884248	0.727755	-0.227889
Zn11	Zn	2.134248	0.977755	0.022111
Zn12	Zn	2.384248	1.227755	0.272111
Zn13	Zn	1.634256	0.678325	-0.678522
Zn14	Zn	1.884256	0.928325	-0.428522
Zn15	Zn	2.134256	1.178325	-0.178522
Zn16	Zn	2.384256	1.428325	0.071478
O17	O	1.734579	0.578046	-0.578211
O18	O	1.984579	0.828046	-0.328211
O19	O	2.234579	1.078046	-0.078211
O20	O	2.484579	1.328046	0.171789
O21	O	2.002897	0.504321	-0.651943
O22	O	2.252897	0.754321	-0.401943
O23	O	2.502897	1.004321	-0.151943
O24	O	2.752897	1.254321	0.098057
O25	O	1.808192	0.651875	-0.309929
O26	O	2.058192	0.901875	-0.059929
O27	O	2.308192	1.151875	0.190071
O28	O	2.558192	1.401875	0.440071
O29	O	1.660917	0.309796	-0.504527
O30	O	1.910917	0.559796	-0.254527
O31	O	2.160917	0.809796	-0.004527
O32	O	2.410917	1.059796	0.245473
O33	O	2.002816	0.651804	-0.504506
O34	O	2.252816	0.901804	-0.254506
O35	O	2.502816	1.151804	-0.004506
O36	O	2.752816	1.401804	0.245494
O37	O	1.808380	0.309742	-0.651955
O38	O	2.058380	0.559742	-0.401955
O39	O	2.308380	0.809742	-0.151955
O40	O	2.558380	1.059742	0.098045
O41	O	1.660809	0.504445	-0.309938
O42	O	1.910809	0.754445	-0.059938
O43	O	2.160809	1.004445	0.190062
O44	O	2.410809	1.254445	0.440062
O45	O	1.466300	0.504351	-0.504495
O46	O	1.716300	0.754351	-0.254495
O47	O	1.966300	1.004351	-0.004495
O48	O	2.216300	1.254351	0.245505
O49	O	1.660929	0.651637	-0.846476
O50	O	1.910929	0.901637	-0.596476
O51	O	2.160929	1.151637	-0.346476
O52	O	2.410929	1.401637	-0.096476
O53	O	1.466305	0.651708	-0.651899
O54	O	1.716305	0.901708	-0.401899
O55	O	1.966305	1.151708	-0.151899
O56	O	2.216305	1.401708	0.098101
O57	O	1.808388	0.504226	-0.846500
O58	O	2.058388	0.754226	-0.596500
O59	O	2.308388	1.004226	-0.346500
O60	O	2.558388	1.254226	-0.096500
O61	O	1.808199	0.846359	-0.504474
O62	O	2.058199	1.096359	-0.254474
O63	O	2.308199	1.346359	-0.004474
O64	O	2.558199	1.596359	0.245526
O65	O	1.660822	0.846287	-0.651887
O66	O	1.910822	1.096287	-0.401887
O67	O	2.160822	1.346287	-0.151887
O68	O	2.410822	1.596287	0.098113
C69	C	1.422755	0.578028	-0.578195
C70	C	1.672755	0.828028	-0.328195
C71	C	1.922755	1.078028	-0.078195
C72	C	2.172755	1.328028	0.171805
C73	C	1.289355	0.578049	-0.578217
C74	C	1.539355	0.828049	-0.328217
C75	C	1.789355	1.078049	-0.078217
C76	C	2.039355	1.328049	0.171783
C77	C	1.734532	0.889871	-0.578202
C78	C	1.984532	1.139871	-0.328202
C79	C	2.234532	1.389871	-0.078202
C80	C	2.484532	1.639871	0.171798
C81	C	1.734621	1.023271	-0.578238
C82	C	1.984621	1.273271	-0.328238
C83	C	2.234621	1.523271	-0.078238
C84	C	2.484621	1.773271	0.171762
C85	C	1.734660	0.265004	-0.578246
C86	C	1.984660	0.515004	-0.328246
C87	C	2.234660	0.765004	-0.078246
C88	C	2.484660	1.015004	0.171754
C89	C	1.734694	0.131604	-0.578261
C90	C	1.984694	0.381604	-0.328261
C91	C	2.234694	0.631604	-0.078261
C92	C	2.484694	0.881604	0.171739
C93	C	2.047622	0.578065	-0.578227
C94	C	2.297622	0.828065	-0.328227
C95	C	2.547622	1.078065	-0.078227
C96	C	2.797622	1.328065	0.171773
C97	C	2.181022	0.578073	-0.578234
C98	C	2.431022	0.828073	-0.328234
C99	C	2.681022	1.078073	-0.078234
C100	C	2.931022	1.328073	0.171766
C101	C	1.734672	0.577913	-0.891253
C102	C	1.984672	0.827913	-0.641253
C103	C	2.234672	1.077913	-0.391253
C104	C	2.484672	1.327913	-0.141253
C105	C	1.734711	0.577856	-1.024653
C106	C	1.984711	0.827856	-0.774653
C107	C	2.234711	1.077856	-0.524653
C108	C	2.484711	1.327856	-0.274653
C109	C	1.734557	0.578092	-0.266386
C110	C	1.984557	0.828092	-0.016386
C111	C	2.234557	1.078092	0.233614
C112	C	2.484557	1.328092	0.483614
C113	C	1.734750	0.577811	-0.132987
C114	C	1.984750	0.827811	0.117013
C115	C	2.234750	1.077811	0.367013
C116	C	2.484750	1.327811	0.617013
