data_functionalizedCrystal
_audit_creation_method	'MofGen! by Chris Wilmer'
_symmetry_space_group_name_H-M	'P1'
_symmetry_Int_Tables_number	1
_symmetry_cell_setting	triclinic
loop_
_symmetry_equiv_pos_as_xyz
  x,y,z
_cell_length_a	16.625548
_cell_length_b	16.625546
_cell_length_c	19.805398
_cell_angle_alpha	89.973797
_cell_angle_beta	89.985099
_cell_angle_gamma	90.023536
loop_
_atom_site_label
_atom_site_type_symbol
_atom_site_fract_x
_atom_site_fract_y
_atom_site_fract_z
Zn1	Zn	1.232635	-0.321011	-0.382701
Zn2	Zn	1.565969	0.012323	-0.049368
Zn3	Zn	1.899302	0.345656	0.283966
Zn4	Zn	1.232552	-0.455844	-0.269512
Zn5	Zn	1.565885	-0.122511	0.063821
Zn6	Zn	1.899219	0.210823	0.397155
Zn7	Zn	1.097811	-0.321031	-0.269527
Zn8	Zn	1.431144	0.012302	0.063806
Zn9	Zn	1.764477	0.345635	0.397139
Zn10	Zn	1.097768	-0.455807	-0.382661
Zn11	Zn	1.431101	-0.122474	-0.049327
Zn12	Zn	1.764434	0.210859	0.284006
O13	O	1.165191	-0.388423	-0.326100
O14	O	1.498525	-0.055090	0.007233
O15	O	1.831858	0.278243	0.340566
O16	O	1.345457	-0.338903	-0.367697
O17	O	1.678790	-0.005570	-0.034363
O18	O	2.012123	0.327764	0.298970
O19	O	1.214661	-0.437985	-0.174798
O20	O	1.547995	-0.104651	0.158536
O21	O	1.881328	0.228682	0.491869
O22	O	1.115748	-0.208196	-0.284563
O23	O	1.449082	0.125137	0.048770
O24	O	1.782415	0.458470	0.382103
O25	O	1.345395	-0.437964	-0.284537
O26	O	1.678729	-0.104631	0.048796
O27	O	2.012062	0.228702	0.382129
O28	O	1.214803	-0.208181	-0.367711
O29	O	1.548137	0.125152	-0.034378
O30	O	1.881470	0.458486	0.298955
O31	O	1.115667	-0.338939	-0.174809
O32	O	1.449001	-0.005605	0.158525
O33	O	1.782334	0.327728	0.491858
O34	O	0.984972	-0.338903	-0.284524
O35	O	1.318306	-0.005570	0.048809
O36	O	1.651639	0.327763	0.382142
O37	O	1.115675	-0.437902	-0.477383
O38	O	1.449008	-0.104569	-0.144049
O39	O	1.782342	0.228764	0.189284
O40	O	0.984941	-0.437923	-0.367643
O41	O	1.318274	-0.104589	-0.034310
O42	O	1.651608	0.228744	0.299024
O43	O	1.214762	-0.338868	-0.477412
O44	O	1.548095	-0.005534	-0.144079
O45	O	1.881428	0.327799	0.189254
O46	O	1.214620	-0.568671	-0.284498
O47	O	1.547953	-0.235338	0.048835
O48	O	1.881286	0.097995	0.382168
O49	O	1.115594	-0.568645	-0.367628
O50	O	1.448927	-0.235311	-0.034295
O51	O	1.782261	0.098022	0.299039
C52	C	1.165115	-0.597914	-0.326072
C53	C	1.498448	-0.264581	0.007261
C54	C	1.831782	0.068752	0.340595
C55	C	1.165156	-0.687535	-0.326082
C56	C	1.498489	-0.354202	0.007251
C57	C	1.831823	-0.020869	0.340584
C58	C	0.955700	-0.388412	-0.326081
C59	C	1.289034	-0.055078	0.007252
C60	C	1.622367	0.278255	0.340585
C61	C	0.866079	-0.388426	-0.326089
C62	C	1.199413	-0.055093	0.007244
C63	C	1.532746	0.278240	0.340577
C64	C	1.165297	-1.015711	-0.326153
C65	C	1.498630	-0.682378	0.007180
C66	C	1.831963	-0.349044	0.340514
C67	C	1.165255	-0.924402	-0.326135
C68	C	1.498588	-0.591069	0.007198
C69	C	1.831922	-0.257736	0.340531
C70	C	1.165226	-0.851626	-0.326117
C71	C	1.498559	-0.518293	0.007216
C72	C	1.831893	-0.184959	0.340549
C73	C	1.165185	-0.760312	-0.326100
C74	C	1.498519	-0.426978	0.007233
C75	C	1.831852	-0.093645	0.340566
C76	C	0.537904	-0.388432	-0.326118
C77	C	0.871237	-0.055098	0.007215
C78	C	1.204570	0.278235	0.340548
C79	C	0.629212	-0.388428	-0.326108
C80	C	0.962546	-0.055095	0.007225
C81	C	1.295879	0.278239	0.340559
C82	C	0.701989	-0.388429	-0.326103
C83	C	1.035322	-0.055096	0.007230
C84	C	1.368655	0.278237	0.340563
C85	C	0.793303	-0.388425	-0.326094
C86	C	1.126636	-0.055091	0.007239
C87	C	1.459970	0.278242	0.340573
C88	C	1.375500	-0.388435	-0.326120
C89	C	1.708834	-0.055102	0.007214
C90	C	2.042167	0.278231	0.340547
C91	C	1.465121	-0.388441	-0.326128
C92	C	1.798455	-0.055107	0.007205
C93	C	2.131788	0.278226	0.340539
C94	C	1.165223	-0.388379	-0.502643
C95	C	1.498556	-0.055045	-0.169310
C96	C	1.831890	0.278288	0.164024
C97	C	1.165236	-0.388360	-0.577875
C98	C	1.498570	-0.055026	-0.244542
C99	C	1.831903	0.278307	0.088792
C100	C	1.165290	-0.178114	-0.326144
C101	C	1.498623	0.155219	0.007190
C102	C	1.831957	0.488552	0.340523
C103	C	1.165332	-0.088493	-0.326162
C104	C	1.498665	0.244840	0.007171
C105	C	1.831999	0.578173	0.340505
C106	C	1.216928	-0.336650	-1.039683
C107	C	1.550261	-0.003316	-0.706349
C108	C	1.883595	0.330017	-0.373016
C109	C	1.216915	-0.336674	-0.968994
C110	C	1.550249	-0.003341	-0.635661
C111	C	1.883582	0.329992	-0.302328
C112	C	1.165319	-0.388247	-0.933637
C113	C	1.498652	-0.054914	-0.600304
C114	C	1.831986	0.278419	-0.266970
C115	C	1.113738	-0.439805	-0.968972
C116	C	1.447071	-0.106472	-0.635639
C117	C	1.780404	0.226862	-0.302305
C118	C	1.113755	-0.439784	-1.039659
C119	C	1.447088	-0.106451	-0.706326
C120	C	1.780422	0.226883	-0.372992
C121	C	1.113668	-0.439893	-0.683898
C122	C	1.447001	-0.106559	-0.350565
C123	C	1.780334	0.226774	-0.017232
C124	C	1.113653	-0.439908	-0.613206
C125	C	1.446986	-0.106575	-0.279873
C126	C	1.780319	0.226759	0.053460
C127	C	1.216828	-0.336783	-0.613234
C128	C	1.550161	-0.003450	-0.279900
C129	C	1.883495	0.329884	0.053433
C130	C	1.216845	-0.336762	-0.683921
C131	C	1.550179	-0.003428	-0.350588
C132	C	1.883512	0.329905	-0.017254
C133	C	1.165267	-0.388322	-0.719250
C134	C	1.498601	-0.054989	-0.385916
C135	C	1.831934	0.278345	-0.052583
C136	C	1.165283	-0.388296	-0.795898
C137	C	1.498616	-0.054962	-0.462565
C138	C	1.831949	0.278371	-0.129231
C139	C	1.165299	-0.388270	-0.856990
C140	C	1.498632	-0.054937	-0.523657
C141	C	1.831966	0.278396	-0.190323
C142	C	1.165206	-0.388410	-0.150244
C143	C	1.498540	-0.055076	0.183089
C144	C	1.831873	0.278257	0.516422
C145	C	1.165349	-0.388202	-0.075013
C146	C	1.498682	-0.054868	0.258321
C147	C	1.832016	0.278465	0.591654
H148	H	1.258918	-0.294698	-0.940232
H149	H	1.592252	0.038636	-0.606899
H150	H	1.925585	0.371969	-0.273565
C151	C	1.325406	-0.325425	-1.119188
C152	C	1.658739	0.007908	-0.785854
C153	C	1.992073	0.341242	-0.452521
C154	C	1.273643	-0.279957	-1.078547
C155	C	1.606976	0.053376	-0.745213
C156	C	1.940309	0.386709	-0.411880
H157	H	1.360417	-0.290424	-1.143182
H158	H	1.693750	0.042910	-0.809849
H159	H	2.027083	0.376243	-0.476515
H160	H	1.356224	-0.360557	-1.091608
H161	H	1.689557	-0.027224	-0.758274
H162	H	2.022891	0.306109	-0.424941
H163	H	1.294680	-0.356120	-1.150344
H164	H	1.628013	-0.022787	-0.817011
H165	H	1.961346	0.310546	-0.483678
H166	H	1.304369	-0.249266	-1.047387
H167	H	1.637702	0.084067	-0.714053
H168	H	1.971035	0.417400	-0.380720
H169	H	1.242822	-0.244811	-1.106129
H170	H	1.576155	0.088522	-0.772796
H171	H	1.909488	0.421856	-0.439463
H172	H	1.258857	-0.294763	-0.712705
H173	H	1.592191	0.038571	-0.379372
H174	H	1.925524	0.371904	-0.046039
H175	H	1.258828	-0.294802	-0.584461
H176	H	1.592161	0.038531	-0.251127
H177	H	1.925494	0.371864	0.082206
H178	H	1.071631	-0.481905	-0.584420
H179	H	1.404965	-0.148572	-0.251087
H180	H	1.738298	0.184762	0.082246
H181	H	1.071669	-0.481875	-0.712655
H182	H	1.405002	-0.148542	-0.379321
H183	H	1.738335	0.184791	-0.045988
C184	C	1.067891	-0.485624	-0.860603
C185	C	1.401224	-0.152290	-0.527269
C186	C	1.734558	0.181043	-0.193936
C187	C	1.057020	-0.496494	-0.930109
C188	C	1.390353	-0.163161	-0.596775
C189	C	1.723686	0.170172	-0.263442
H190	H	1.032869	-0.520618	-0.836613
H191	H	1.366202	-0.187285	-0.503279
H192	H	1.699536	0.146049	-0.169946
H193	H	1.122051	-0.497433	-0.849021
H194	H	1.455384	-0.164100	-0.515687
H195	H	1.788717	0.169233	-0.182354
H196	H	1.056112	-0.431448	-0.849036
H197	H	1.389445	-0.098115	-0.515703
H198	H	1.722779	0.235219	-0.182369
H199	H	1.068804	-0.550669	-0.941676
H200	H	1.402138	-0.217336	-0.608343
H201	H	1.735471	0.115998	-0.275010
H202	H	1.002848	-0.484691	-0.941695
H203	H	1.336181	-0.151357	-0.608362
H204	H	1.669514	0.181976	-0.275029
H205	H	1.071755	-0.481764	-1.068424
H206	H	1.405088	-0.148430	-0.735090
H207	H	1.738421	0.184903	-0.401757
