data_functionalizedCrystal
_audit_creation_method	'MofGen! by Chris Wilmer'
_symmetry_space_group_name_H-M	'P1'
_symmetry_Int_Tables_number	1
_symmetry_cell_setting	triclinic
loop_
_symmetry_equiv_pos_as_xyz
  x,y,z
_cell_length_a	14.519709
_cell_length_b	10.540539
_cell_length_c	12.996460
_cell_angle_alpha	89.996006
_cell_angle_beta	90.000034
_cell_angle_gamma	84.102818
loop_
_atom_site_label
_atom_site_type_symbol
_atom_site_fract_x
_atom_site_fract_y
_atom_site_fract_z
O1	O	1.224765	0.166400	-0.085428
O2	O	0.956394	0.185995	-0.085459
O3	O	1.096702	-0.008571	-0.085441
O4	O	1.084457	0.360967	-0.085445
O5	O	1.096688	-0.008582	0.085693
O6	O	0.956379	0.185985	0.085675
O7	O	1.224751	0.166389	0.085706
Cu8	Cu	1.090563	0.176186	0.101316
Cu9	Cu	1.090581	0.176199	-0.101069
O10	O	1.084442	0.360956	0.085689
C11	C	0.922022	0.185077	0.000104
C12	C	0.819626	0.182340	0.000092
C13	C	0.444676	0.172265	0.000139
C14	C	0.548999	0.175063	0.000126
C15	C	0.632148	0.177303	0.000115
C16	C	0.736477	0.180101	0.000103
C17	C	1.095777	-0.055870	0.000124
C18	C	1.093029	-0.196790	0.000118
C19	C	0.987750	-0.379142	-0.000278
C20	C	0.990535	-0.232553	0.000107
C21	C	1.142346	-0.258958	0.097849
C22	C	1.138848	-0.405467	0.097931
C23	C	1.140949	-0.405994	-0.096680
C24	C	1.141893	-0.259021	-0.097972
C25	C	1.259123	0.167308	0.000141
C26	C	1.361519	0.170044	0.000146
C27	C	1.085368	0.408255	0.000121
C28	C	1.088115	0.549175	0.000120
N29	N	1.090558	0.176176	0.243664
N30	N	1.090594	0.176198	-0.243416
C31	C	1.090580	0.176200	0.663478
C32	C	1.090571	0.176198	0.546673
C33	C	1.090569	0.176189	0.453574
C34	C	1.090560	0.176185	0.336762
H35	H	0.951730	-0.189549	-0.069951
O36	O	1.231032	-0.231054	-0.105222
C37	C	1.373157	-0.256946	-0.202221
C38	C	1.272224	-0.288732	-0.194136
H39	H	1.406496	-0.303585	-0.274091
H40	H	1.374438	-0.149159	-0.207220
H41	H	1.413282	-0.294635	-0.131281
H42	H	1.232039	-0.251124	-0.265056
H43	H	1.271012	-0.396525	-0.189087
H44	H	1.102388	-0.433299	0.170979
O45	O	1.101516	-0.443384	-0.185078
C46	C	1.122346	-0.565178	-0.341757
C47	C	1.167125	-0.522956	-0.241682
H48	H	1.175376	-0.629498	-0.387559
H49	H	1.060752	-0.619674	-0.322235
H50	H	1.097770	-0.477530	-0.389600
H51	H	1.191758	-0.610534	-0.193791
H52	H	1.228678	-0.468416	-0.261276
O53	O	1.226724	-0.463805	0.103206
C54	C	1.324038	-0.663114	0.109448
C55	C	1.224477	-0.597219	0.103434
H56	H	1.322254	-0.770989	0.109656
H57	H	1.365253	-0.634349	0.040095
H58	H	1.358316	-0.632770	0.183125
H59	H	1.190119	-0.627528	0.029800
H60	H	1.183330	-0.625983	0.172838
H61	H	0.947421	-0.408943	0.069405
H62	H	1.108076	-0.216013	0.170570
O63	O	0.943917	-0.182473	0.083895
C64	C	0.856615	-0.224293	0.235667
C65	C	0.909398	-0.281177	0.140822
H66	H	0.828675	-0.304065	0.281707
H67	H	0.905485	-0.173191	0.285973
H68	H	0.796549	-0.153485	0.209490
H69	H	0.969464	-0.352037	0.166907
H70	H	0.860466	-0.332200	0.090538
O71	O	1.098846	-0.209942	-0.184260
C72	C	1.015980	-0.253139	-0.338894
C73	C	1.064682	-0.308896	-0.241202
H74	H	0.988363	-0.333120	-0.384970
H75	H	0.956058	-0.180017	-0.316277
H76	H	1.067531	-0.205002	-0.387797
H77	H	1.013202	-0.357099	-0.192255
H78	H	1.124619	-0.381954	-0.263891
H79	H	0.947268	-0.407325	-0.070364
H80	H	1.217614	-0.237372	0.101491
H81	H	1.214980	-0.453975	-0.097328
