data_functionalizedCrystal
_audit_creation_method	'MofGen! by Chris Wilmer'
_symmetry_space_group_name_H-M	'P1'
_symmetry_Int_Tables_number	1
_symmetry_cell_setting	triclinic
loop_
_symmetry_equiv_pos_as_xyz
  x,y,z
_cell_length_a	15.944493
_cell_length_b	16.109301
_cell_length_c	14.586319
_cell_angle_alpha	89.994786
_cell_angle_beta	89.997059
_cell_angle_gamma	83.468262
loop_
_atom_site_label
_atom_site_type_symbol
_atom_site_fract_x
_atom_site_fract_y
_atom_site_fract_z
O1	O	1.114518	0.106998	-0.076231
O2	O	1.614518	0.606998	0.423769
O3	O	0.869957	0.120268	-0.076236
O4	O	1.369957	0.620268	0.423764
O5	O	0.998956	-0.007397	-0.076224
O6	O	1.498956	0.492603	0.423776
O7	O	0.985519	0.234663	-0.076243
O8	O	1.485519	0.734663	0.423757
O9	O	0.998947	-0.007399	0.076257
O10	O	1.498947	0.492601	0.576257
O11	O	0.869948	0.120266	0.076245
O12	O	1.369948	0.620266	0.576245
O13	O	1.114509	0.106996	0.076250
O14	O	1.614509	0.606996	0.576250
Cu15	Cu	0.992228	0.113631	0.090170
Cu16	Cu	1.492228	0.613631	0.590170
Cu17	Cu	0.992239	0.113633	-0.090156
Cu18	Cu	1.492239	0.613633	0.409844
O19	O	0.985510	0.234661	0.076238
O20	O	1.485510	0.734661	0.576238
C21	C	0.998407	-0.038373	0.000017
C22	C	1.498407	0.461627	0.500017
C23	C	0.996775	-0.130669	0.000018
C24	C	1.496775	0.369331	0.500018
C25	C	0.838658	0.119725	0.000004
C26	C	1.338658	0.619725	0.500004
C27	C	0.745410	0.118099	0.000002
C28	C	1.245410	0.618099	0.500002
C29	C	1.069526	-0.352933	0.000005
C30	C	1.569526	0.147067	0.500005
C31	C	1.067987	-0.439653	-0.000003
C32	C	1.567987	0.060347	0.499997
C33	C	0.914934	-0.419797	-0.000002
C34	C	1.414934	0.080203	0.499998
C35	C	0.916475	-0.333078	-0.000001
C36	C	1.416475	0.166922	0.499999
C37	C	0.993773	-0.299648	0.000007
C38	C	1.493773	0.200352	0.500007
C39	C	0.990693	-0.473088	-0.000001
C40	C	1.490693	0.026912	0.499999
C41	C	0.989023	-0.567114	-0.000010
C42	C	1.489023	-0.067114	0.499990
C43	C	0.995444	-0.205616	0.000014
C44	C	1.495444	0.294384	0.500014
C45	C	0.509625	0.193245	-0.000004
C46	C	1.009625	0.693245	0.499996
C47	C	0.459076	0.152721	0.075184
C48	C	0.959076	0.652721	0.575184
C49	C	0.574690	0.115086	0.000004
C50	C	1.074690	0.615086	0.500004
C51	C	0.459089	0.152704	-0.075150
C52	C	0.959089	0.652704	0.424850
C53	C	0.409781	0.112181	0.000002
C54	C	0.909781	0.612181	0.500002
C55	C	0.525369	0.074582	0.075255
C56	C	1.025369	0.574582	0.575255
C57	C	0.525386	0.074577	-0.075147
C58	C	1.025386	0.574577	0.424853
C59	C	0.474869	0.033995	0.000059
C60	C	0.974869	0.533995	0.500059
C61	C	0.669689	0.116761	0.000006
C62	C	1.169689	0.616761	0.500006
C63	C	0.314785	0.110499	0.000007
C64	C	0.814785	0.610499	0.500007
C65	C	1.145808	0.107539	0.000008
C66	C	1.645808	0.607539	0.500008
C67	C	1.239056	0.109165	0.000003
C68	C	1.739056	0.609165	0.500003
C69	C	0.986059	0.265637	-0.000005
C70	C	1.486059	0.765637	0.499995
C71	C	0.987691	0.357932	-0.000012
C72	C	1.487691	0.857932	0.499988
N73	N	0.992227	0.113629	0.217002
N74	N	1.492227	0.613629	0.717002
N75	N	0.992246	0.113628	-0.216988
N76	N	1.492246	0.613628	0.283012
C77	C	1.049366	0.057117	0.452013
C78	C	1.549366	0.557117	0.952013
C79	C	1.049368	0.057115	0.547995
C80	C	1.549368	0.557115	1.047995
C81	C	0.935101	0.170142	0.547994
C82	C	1.435101	0.670142	1.047994
C83	C	0.935095	0.170140	0.452014
C84	C	1.435095	0.670140	0.952014
C85	C	0.992232	0.113628	0.404026
C86	C	1.492232	0.613628	0.904026
C87	C	0.992241	0.113629	0.595987
C88	C	1.492241	0.613629	1.095987
C89	C	0.992243	0.113627	0.700054
C90	C	1.492243	0.613627	1.200054
C91	C	0.992229	0.113629	0.299953
C92	C	1.492229	0.613629	0.799953
H93	H	1.132468	-0.325717	0.000010
H94	H	1.632468	0.174283	0.500010
H95	H	1.129673	-0.483034	-0.000006
H96	H	1.629673	0.016966	0.499994
H97	H	0.430144	0.185729	-0.138707
H98	H	0.930144	0.685729	0.361293
H99	H	0.852000	-0.447026	-0.000007
H100	H	1.352000	0.052974	0.499993
H101	H	0.525227	0.260572	0.000061
H102	H	1.025227	0.760572	0.500061
H103	H	0.854784	-0.289691	-0.000002
H104	H	1.354784	0.210309	0.499998
H105	H	1.095890	0.011101	0.412944
H106	H	1.595890	0.511101	0.912944
H107	H	0.430124	0.185728	0.138744
H108	H	0.930124	0.685728	0.638744
H109	H	1.095891	0.011098	0.587063
H110	H	1.595891	0.511098	1.087063
H111	H	0.554204	0.041593	0.138883
H112	H	1.054204	0.541593	0.638883
H113	H	0.888582	0.216154	0.587075
H114	H	1.388582	0.716154	1.087075
H115	H	0.459426	-0.033382	0.000108
H116	H	0.959426	0.466618	0.500108
H117	H	0.554346	0.041594	-0.138710
H118	H	1.054346	0.541594	0.361290
H119	H	0.888566	0.216158	0.412940
H120	H	1.388566	0.716158	0.912940
