data_functionalizedCrystal
_audit_creation_method	'MofGen! by Chris Wilmer'
_symmetry_space_group_name_H-M	'P1'
_symmetry_Int_Tables_number	1
_symmetry_cell_setting	triclinic
loop_
_symmetry_equiv_pos_as_xyz
  x,y,z
_cell_length_a	11.792241
_cell_length_b	12.996460
_cell_length_c	11.792254
_cell_angle_alpha	90.006311
_cell_angle_beta	84.196007
_cell_angle_gamma	90.001369
loop_
_atom_site_label
_atom_site_type_symbol
_atom_site_fract_x
_atom_site_fract_y
_atom_site_fract_z
O1	O	1.506917	0.085467	0.155569
O2	O	1.176577	0.085491	0.171602
O3	O	1.349756	0.085472	-0.001584
O4	O	1.333738	0.085487	0.328755
O5	O	1.349738	-0.085662	-0.001594
O6	O	1.176559	-0.085642	0.171592
O7	O	1.506899	-0.085666	0.155559
Cu8	Cu	1.341727	-0.101280	0.163575
Cu9	Cu	1.341749	0.101105	0.163586
O10	O	1.333720	-0.085647	0.328745
C11	C	1.134277	-0.000072	0.170590
C12	C	1.008263	-0.000063	0.167576
N13	N	1.341720	-0.243627	0.163566
C14	C	0.777551	-0.000093	0.162033
C15	C	0.905936	-0.000077	0.165112
C16	C	1.341747	-0.663442	0.163588
C17	C	1.341736	-0.546637	0.163585
C18	C	1.341734	-0.453538	0.163578
C19	C	1.341723	-0.336726	0.163574
C20	C	1.549199	-0.000100	0.156571
C21	C	1.675213	-0.000102	0.159586
C22	C	1.348738	-0.000095	-0.043880
C23	C	1.345718	-0.000094	-0.169893
N24	N	1.341765	0.243452	0.163586
C25	C	1.343264	-0.000090	-0.272229
C26	C	1.340196	-0.000080	-0.400616
C27	C	1.334738	-0.000078	0.371041
C28	C	1.337758	-0.000072	0.497054
