data_functionalizedCrystal
_audit_creation_method	'MofGen! by Chris Wilmer'
_symmetry_space_group_name_H-M	'P1'
_symmetry_Int_Tables_number	1
_symmetry_cell_setting	triclinic
loop_
_symmetry_equiv_pos_as_xyz
  x,y,z
_cell_length_a	19.188929
_cell_length_b	10.489716
_cell_length_c	9.565339
_cell_angle_alpha	89.996780
_cell_angle_beta	90.021549
_cell_angle_gamma	96.163041
loop_
_atom_site_label
_atom_site_type_symbol
_atom_site_fract_x
_atom_site_fract_y
_atom_site_fract_z
O1	O	-0.098416	1.691870	-0.116324
O2	O	-0.107680	1.320464	-0.116336
O3	O	-0.001464	1.516885	-0.116243
O4	O	-0.204632	1.495449	-0.116417
O5	O	-0.001470	1.516869	0.116277
O6	O	-0.107686	1.320448	0.116184
O7	O	-0.098423	1.691855	0.116196
Zn8	Zn	-0.103056	1.506149	0.153108
Zn9	Zn	-0.103047	1.506169	-0.153248
O10	O	-0.204639	1.495433	0.116103
C11	C	-0.106987	1.272939	-0.000076
C12	C	-0.104905	1.131355	-0.000076
C13	C	-0.170040	1.032224	-0.000135
C14	C	-0.135624	0.955640	0.114545
C15	C	-0.135602	0.955663	-0.114702
C16	C	-0.070516	1.056636	0.114698
C17	C	-0.070504	1.056663	-0.114651
C18	C	-0.036041	0.980129	0.000057
C19	C	-0.230651	1.496135	-0.000179
C20	C	-0.308170	1.498219	-0.000245
C21	C	-0.352327	1.382966	-0.000221
C22	C	-0.425164	1.384923	-0.000189
C23	C	-0.453840	1.502141	-0.000154
C24	C	-0.409673	1.617410	-0.000186
C25	C	-0.336838	1.615449	-0.000232
N26	N	-0.562407	1.591734	0.079069
N27	N	-0.631598	1.593589	0.079115
C28	C	-0.673288	1.508057	-0.000019
N29	N	-0.643175	1.420580	-0.079185
N30	N	-0.573978	1.418721	-0.079225
C31	C	-0.532817	1.504281	-0.000105
C32	C	-0.796424	1.394918	0.000037
C33	C	-0.869262	1.396880	0.000060
C34	C	-0.853769	1.629370	0.000077
C35	C	-0.780933	1.627404	0.000040
C36	C	-0.752265	1.510175	0.000027
C37	C	0.024549	1.516183	0.000036
C38	C	0.102067	1.514099	0.000093
C39	C	-0.099115	1.739379	-0.000067
C40	C	-0.101198	1.880964	-0.000076
N41	N	-0.103061	1.506144	0.362187
N42	N	-0.103036	1.506184	-0.362327
C43	C	-0.152166	1.415279	0.453347
C44	C	-0.166287	1.530461	0.546516
C45	C	-0.088945	1.391012	0.546574
C46	C	-0.117214	1.621385	0.453304
C47	C	-0.039844	1.481860	0.453354
C48	C	-0.053939	1.597125	0.546480
H49	H	-0.043039	1.100560	0.211746
C50	C	-0.885301	1.758311	0.000109
H51	H	-0.848567	1.826674	0.000083
H52	H	-0.913367	1.763908	0.081208
H53	H	-0.913416	1.763910	-0.080972
C54	C	0.040560	0.948874	0.000169
H55	H	0.049032	0.901100	-0.081306
H56	H	0.048797	0.899877	0.080873
H57	H	0.071111	1.026387	0.000979
C58	C	-0.288263	1.742233	-0.000245
H59	H	-0.315770	1.812328	-0.000213
H60	H	-0.259551	1.746308	-0.081342
H61	H	-0.259505	1.746291	0.080838
C62	C	-0.033392	1.116289	-0.245561
H63	H	-0.056613	1.081541	-0.326962
H64	H	0.013951	1.097549	-0.246346
H65	H	-0.034637	1.206572	-0.244154
C66	C	-0.172754	0.896116	-0.245668
H67	H	-0.220324	0.913558	-0.245560
H68	H	-0.170779	0.806018	-0.245185
H69	H	-0.150088	0.932064	-0.327059
H70	H	0.013589	1.461256	0.412400
C71	C	-0.732358	1.754185	0.000037
H72	H	-0.759866	1.824278	0.000075
H73	H	-0.703648	1.758263	-0.081062
H74	H	-0.703599	1.758240	0.081118
H75	H	-0.077017	1.293630	0.587547
C76	C	-0.473746	1.258140	-0.000154
H77	H	-0.446240	1.188043	-0.000161
H78	H	-0.502511	1.254072	-0.081217
H79	H	-0.502449	1.254081	0.080963
H80	H	-0.226697	1.055627	-0.000077
H81	H	-0.193731	1.338506	0.412456
C82	C	-0.172767	0.896046	0.245448
H83	H	-0.140470	0.854127	0.299455
H84	H	-0.210713	0.835619	0.217861
H85	H	-0.190027	0.961640	0.299798
H86	H	-0.773081	1.299462	0.000034
C87	C	-0.320795	1.254018	-0.000253
H88	H	-0.357530	1.185657	-0.000245
H89	H	-0.292675	1.248412	0.080811
H90	H	-0.292735	1.248426	-0.081369
C91	C	0.002174	1.701061	0.601391
H92	H	-0.007961	1.782773	0.569281
H93	H	0.046954	1.684491	0.568082
H94	H	0.002134	1.700055	0.700702
C95	C	-0.238489	1.558240	0.601820
H96	H	-0.273337	1.493587	0.569943
H97	H	-0.248850	1.639417	0.568519
H98	H	-0.237826	1.558820	0.701127
C99	C	-0.441214	1.746346	-0.000140
H100	H	-0.490917	1.731008	-0.000093
H101	H	-0.426125	1.793796	-0.081228
H102	H	-0.426065	1.793775	0.080952
H103	H	-0.905214	1.303023	0.000071
H104	H	-0.129206	1.718788	0.412507
