data_functionalizedCrystal
_audit_creation_method	'MofGen! by Chris Wilmer'
_symmetry_space_group_name_H-M	'P1'
_symmetry_Int_Tables_number	1
_symmetry_cell_setting	triclinic
loop_
_symmetry_equiv_pos_as_xyz
  x,y,z
_cell_length_a	17.699103
_cell_length_b	27.732066
_cell_length_c	16.776229
_cell_angle_alpha	90.002892
_cell_angle_beta	90.008376
_cell_angle_gamma	97.029418
loop_
_atom_site_label
_atom_site_type_symbol
_atom_site_fract_x
_atom_site_fract_y
_atom_site_fract_z
O1	O	0.090121	-0.641250	0.066136
O2	O	0.590121	-0.141250	0.566136
O3	O	0.103800	-0.500508	0.066174
O4	O	0.603800	-0.000508	0.566174
O5	O	-0.013262	-0.574851	0.066139
O6	O	0.486738	-0.074851	0.566139
O7	O	0.207183	-0.566908	0.066171
O8	O	0.707183	-0.066908	0.566171
O9	O	-0.013263	-0.574842	-0.066438
O10	O	0.486737	-0.074842	0.433562
O11	O	0.103799	-0.500500	-0.066403
O12	O	0.603799	-0.000500	0.433597
O13	O	0.090121	-0.641242	-0.066441
O14	O	0.590121	-0.141242	0.433559
Zn15	Zn	0.096960	-0.570870	-0.087471
Zn16	Zn	0.596960	-0.070870	0.412529
Zn17	Zn	0.096960	-0.570881	0.087204
Zn18	Zn	0.596960	-0.070881	0.587204
O19	O	0.207183	-0.566900	-0.066405
O20	O	0.707183	-0.066900	0.433595
C21	C	-0.041457	-0.574560	-0.000152
C22	C	0.458543	-0.074560	0.499848
C23	C	-0.125467	-0.573702	-0.000158
C24	C	0.374533	-0.073702	0.499842
C25	C	0.103510	-0.482496	-0.000110
C26	C	0.603510	0.017504	0.499890
C27	C	0.102639	-0.428839	-0.000096
C28	C	0.602639	0.071161	0.499904
C29	C	-0.641132	-0.568454	0.072163
C30	C	-0.141132	-0.068454	0.572163
C31	C	-0.562196	-0.569260	0.072156
C32	C	-0.062196	-0.069260	0.572156
C33	C	-0.522741	-0.569658	-0.000117
C34	C	-0.022741	-0.069658	0.499883
C35	C	-0.562228	-0.569254	-0.072387
C36	C	-0.062228	-0.069254	0.427613
C37	C	-0.641163	-0.568451	-0.072379
C38	C	-0.141163	-0.068451	0.427621
C39	C	-0.243890	-0.572492	-0.072421
C40	C	0.256110	-0.072492	0.427579
C41	C	-0.164948	-0.573293	-0.072423
C42	C	0.335052	-0.073293	0.427577
C43	C	-0.164922	-0.573301	0.072113
C44	C	0.335078	-0.073301	0.572113
C45	C	-0.243858	-0.572498	0.072121
C46	C	0.256142	-0.072498	0.572121
C47	C	-0.283338	-0.572097	-0.000148
C48	C	0.216662	-0.072097	0.499852
C49	C	-0.368930	-0.571223	-0.000139
C50	C	0.131070	-0.071223	0.499861
C51	C	-0.437150	-0.570527	-0.000126
C52	C	0.062850	-0.070527	0.499874
C53	C	0.027531	-0.051493	-0.000141
C54	C	0.527531	0.448507	0.499859
C55	C	0.030737	-0.253164	-0.000126
C56	C	0.530737	0.246836	0.499874
O57	O	-0.027541	-0.284205	-0.000165
O58	O	0.472459	0.215795	0.499835
N59	N	0.100154	-0.272545	-0.000113
N60	N	0.600154	0.227455	0.499887
C61	C	0.168773	-0.241503	-0.000109
C62	C	0.668773	0.258497	0.499891
O63	O	0.227890	-0.262615	-0.000105
O64	O	0.727890	0.237385	0.499895
C65	C	0.165567	-0.039833	-0.000130
C66	C	0.665567	0.460167	0.499870
C67	C	0.096146	-0.020455	-0.000135
C68	C	0.596146	0.479545	0.499865
C69	C	-0.041884	-0.032115	-0.000147
C70	C	0.458116	0.467885	0.499853
C71	C	-0.042684	0.018300	-0.000147
C72	C	0.457316	0.518300	0.499853
C73	C	0.025930	0.049337	-0.000140
C74	C	0.525930	0.549337	0.499860
C75	C	0.095345	0.029960	-0.000134
C76	C	0.595345	0.529960	0.499866
C77	C	0.234186	-0.008792	-0.000131
C78	C	0.734186	0.491208	0.499869
C79	C	0.233378	0.041628	-0.000139
C80	C	0.733378	0.541628	0.499861
C81	C	0.163957	0.061005	-0.000144
C82	C	0.663957	0.561005	0.499856
C83	C	0.163159	0.111412	-0.000127
C84	C	0.663159	0.611412	0.499873
N85	N	0.093743	0.130792	-0.000140
N86	N	0.593743	0.630792	0.499860
C87	C	0.025128	0.099755	-0.000147
C88	C	0.525128	0.599755	0.499853
C89	C	0.170452	-0.347384	-0.000096
C90	C	0.670452	0.152616	0.499904
C91	C	0.171254	-0.397801	-0.000089
C92	C	0.671254	0.102199	0.499911
C93	C	0.033217	-0.409459	-0.000108
C94	C	0.533217	0.090541	0.499892
C95	C	0.032416	-0.359040	-0.000109
C96	C	0.532416	0.140960	0.499891
C97	C	0.101036	-0.328004	-0.000109
C98	C	0.601036	0.171996	0.499891
C99	C	0.023452	0.205630	-0.000145
C100	C	0.523452	0.705630	0.499855
C101	C	0.022657	0.256050	-0.000141
C102	C	0.522657	0.756050	0.499859
C103	C	0.160693	0.267703	-0.000127
C104	C	0.660693	0.767703	0.499873
C105	C	0.161488	0.217288	-0.000126
C106	C	0.661488	0.717288	0.499874
C107	C	0.092861	0.186252	-0.000138
C108	C	0.592861	0.686252	0.499862
O109	O	0.221406	0.142481	-0.000097
O110	O	0.721406	0.642481	0.499903
O111	O	-0.033979	0.120876	-0.000168
O112	O	0.466021	0.620876	0.499832
C113	C	0.028332	-0.101908	-0.000142
C114	C	0.528332	0.398092	0.499858
C115	C	0.097747	-0.121285	-0.000136
C116	C	0.597747	0.378715	0.499864
C117	C	0.166362	-0.090248	-0.000129
C118	C	0.666362	0.409752	0.499871
C119	C	0.098549	-0.171703	-0.000129
C120	C	0.598549	0.328297	0.499871
C121	C	0.029935	-0.202740	-0.000136
C122	C	0.529935	0.297260	0.499864
C123	C	-0.039482	-0.183360	-0.000149
C124	C	0.460518	0.316640	0.499851
C125	C	-0.040282	-0.132945	-0.000148
C126	C	0.459718	0.367055	0.499852
C127	C	0.235778	-0.109628	-0.000116
C128	C	0.735778	0.390372	0.499884
C129	C	0.236573	-0.160044	-0.000116
C130	C	0.736573	0.339956	0.499884
C131	C	0.167959	-0.191081	-0.000122
C132	C	0.667959	0.308919	0.499878
C133	C	0.235377	-0.567190	-0.000113
C134	C	0.735377	-0.067190	0.499887
C135	C	0.319387	-0.568049	-0.000101
C136	C	0.819387	-0.068049	0.499899
N137	N	0.096959	-0.570866	-0.206682
N138	N	0.596959	-0.070866	0.293318
C139	C	0.090408	0.340746	-0.000148
C140	C	0.590408	0.840746	0.499852
C141	C	0.091272	0.287088	-0.000135
C142	C	0.591272	0.787088	0.499865
C143	C	0.142553	-0.600127	-0.248397
C144	C	0.642553	-0.100127	0.251603
C145	C	0.142550	-0.600132	-0.331849
C146	C	0.642550	-0.100132	0.168151
C147	C	0.096957	-0.570873	-0.373585
C148	C	0.596957	-0.070873	0.126415
C149	C	0.051359	-0.541611	-0.331864
C150	C	0.551359	-0.041611	0.168136
C151	C	0.051358	-0.541608	-0.248414
C152	C	0.551358	-0.041608	0.251586
C153	C	0.051359	-0.541620	-0.668412
C154	C	0.551359	-0.041620	-0.168412
C155	C	0.051365	-0.541624	-0.751868
C156	C	0.551365	-0.041624	-0.251868
C157	C	0.142551	-0.600145	-0.751847
C158	C	0.642551	-0.100145	-0.251847
C159	C	0.142551	-0.600142	-0.668396
C160	C	0.642551	-0.100142	-0.168396
C161	C	0.096949	-0.570882	-0.626683
C162	C	0.596949	-0.070882	-0.126683
C163	C	0.096952	-0.570877	-0.536195
C164	C	0.596952	-0.070877	-0.036195
C165	C	0.096958	-0.570875	-0.464072
C166	C	0.596958	-0.070875	0.035928
N167	N	0.096955	-0.570889	0.206416
N168	N	0.596955	-0.070889	0.706416
H169	H	-0.673250	-0.568126	0.131015
H170	H	-0.173250	-0.068126	0.631015
Cl171	Cl	-0.064621	0.280407	-0.000143
Cl172	Cl	0.435379	0.780407	0.499857
Cl173	Cl	0.256726	-0.308373	-0.000089
Cl174	Cl	0.756726	0.191627	0.499911
H175	H	-0.673308	-0.568121	-0.131224
H176	H	-0.173308	-0.068121	0.368776
H177	H	-0.132826	-0.573614	-0.131280
H178	H	0.367174	-0.073614	0.368720
H179	H	-0.530098	-0.569581	-0.131232
H180	H	-0.030098	-0.069581	0.368768
Cl181	Cl	0.199879	-0.636920	-0.615933
Cl182	Cl	0.699879	-0.136920	-0.115933
Cl183	Cl	-0.293511	-0.571982	-0.163274
Cl184	Cl	0.206489	-0.071982	0.336726
H185	H	-0.132768	-0.573629	0.130959
H186	H	0.367232	-0.073629	0.630959
Cl187	Cl	-0.005938	-0.504817	-0.615983
Cl188	Cl	0.494062	-0.004817	-0.115983
Cl189	Cl	-0.512566	-0.569770	0.163006
Cl190	Cl	-0.012566	-0.069770	0.663006
Cl191	Cl	-0.005960	-0.504828	-0.384333
Cl192	Cl	0.494040	-0.004828	0.115667
Cl193	Cl	0.199877	-0.636931	-0.804292
Cl194	Cl	0.699877	-0.136931	-0.304292
H195	H	-0.032431	0.180366	-0.000155
H196	H	0.467569	0.680366	0.499845
H197	H	-0.275977	-0.572172	0.130973
H198	H	0.224023	-0.072172	0.630973
Cl199	Cl	-0.129961	0.042652	-0.000146
Cl200	Cl	0.370039	0.542652	0.499854
Cl201	Cl	0.319648	0.080643	-0.000142
Cl202	Cl	0.819648	0.580643	0.499858
H203	H	-0.097761	-0.057381	-0.000155
H204	H	0.402239	0.442619	0.499845
Cl205	Cl	-0.054858	-0.334686	-0.000120
Cl206	Cl	0.445142	0.165314	0.499880
H207	H	0.014231	-0.517780	-0.214451
H208	H	0.514231	-0.017780	0.285549
H209	H	0.014236	-0.517797	-0.785847
H210	H	0.514236	-0.017797	-0.285847
H211	H	-0.022651	-0.434738	-0.000110
H212	H	0.477349	0.065262	0.499890
Cl213	Cl	0.258529	-0.422155	-0.000066
Cl214	Cl	0.758529	0.077845	0.499934
Cl215	Cl	0.321463	-0.033139	-0.000125
Cl216	Cl	0.821463	0.466861	0.499875
Cl217	Cl	0.248761	0.192927	-0.000110
Cl218	Cl	0.748761	0.692927	0.499890
H219	H	0.216557	0.292983	-0.000117
H220	H	0.716557	0.792983	0.499883
Cl221	Cl	-0.127559	-0.108593	-0.000152
Cl222	Cl	0.372441	0.391407	0.499848
Cl223	Cl	-0.125739	-0.222388	-0.000155
Cl224	Cl	0.374261	0.277612	0.499845
H225	H	0.291654	-0.084362	-0.000112
H226	H	0.791654	0.415638	0.499888
Cl227	Cl	0.323854	-0.184397	-0.000104
Cl228	Cl	0.823854	0.315603	0.499896
H229	H	0.179684	-0.623950	-0.214422
H230	H	0.679684	-0.123950	0.285578
H231	H	0.179675	-0.623961	-0.365810
H232	H	0.679675	-0.123961	0.134190
