data_functionalizedCrystal
_audit_creation_method	'MofGen! by Chris Wilmer'
_symmetry_space_group_name_H-M	'P1'
_symmetry_Int_Tables_number	1
_symmetry_cell_setting	triclinic
loop_
_symmetry_equiv_pos_as_xyz
  x,y,z
_cell_length_a	18.101395
_cell_length_b	18.101398
_cell_length_c	18.101389
_cell_angle_alpha	90.008593
_cell_angle_beta	89.983159
_cell_angle_gamma	89.974090
loop_
_atom_site_label
_atom_site_type_symbol
_atom_site_fract_x
_atom_site_fract_y
_atom_site_fract_z
Zn1	Zn	-0.295010	-1.132121	-0.418536
Zn2	Zn	-0.418836	-1.132017	-0.294698
Zn3	Zn	-0.295001	-1.008280	-0.294731
Zn4	Zn	-0.418803	-1.008231	-0.418520
O5	O	-0.356912	-1.070162	-0.356621
O6	O	-0.311453	-1.235740	-0.402101
O7	O	-0.402419	-1.115580	-0.191069
O8	O	-0.191370	-1.024772	-0.311175
O9	O	-0.402427	-1.235663	-0.311118
O10	O	-0.191376	-1.115757	-0.402133
O11	O	-0.311438	-1.024671	-0.191094
O12	O	-0.311407	-0.904640	-0.311159
O13	O	-0.402371	-1.024688	-0.522155
O14	O	-0.402363	-0.904604	-0.402107
O15	O	-0.311421	-1.115710	-0.522167
O16	O	-0.522464	-1.115532	-0.311103
O17	O	-0.522440	-1.024587	-0.402075
C18	C	-0.356881	-0.877751	-0.356636
C19	C	-0.356885	-0.795437	-0.356659
C20	C	-0.356925	-0.496346	-0.356634
C21	C	-0.414429	-0.527674	-0.413573
C22	C	-0.414250	-0.613292	-0.413805
C23	C	-0.356906	-0.644729	-0.356647
C24	C	-0.278907	-0.613675	-0.377973
C25	C	-0.279251	-0.528029	-0.378379
C26	C	-0.376732	-0.527894	-0.278231
C27	C	-0.378445	-0.613544	-0.278649
C28	C	-0.356890	-0.728588	-0.356652
C29	C	-0.356935	-0.412487	-0.356630
C30	C	-0.549323	-1.070063	-0.356600
C31	C	-0.631637	-1.070088	-0.356615
C32	C	-0.930728	-1.070251	-0.356655
C33	C	-0.899419	-1.013163	-0.414034
C34	C	-0.813801	-1.012892	-0.413855
C35	C	-0.782346	-1.070170	-0.356636
C36	C	-0.813481	-1.049041	-0.278590
C37	C	-0.899126	-1.048673	-0.278933
C38	C	-0.899083	-1.148592	-0.376634
C39	C	-0.813432	-1.148132	-0.378346
C40	C	-0.698486	-1.070126	-0.356620
C41	C	-1.014587	-1.070293	-0.356665
C42	C	-0.163751	-1.070282	-0.356659
C43	C	-0.081436	-1.070333	-0.356676
C44	C	-0.356894	-1.070205	-0.549783
C45	C	-0.356886	-1.070223	-0.632097
C46	C	-0.356941	-0.263324	-0.356613
C47	C	-0.356945	-0.345638	-0.356622
C48	C	-0.356747	-1.070266	-0.931189
C49	C	-0.413788	-1.012801	-0.899856
C50	C	-0.414053	-1.012956	-0.814238
C51	C	-0.356816	-1.070244	-0.782806
C52	C	-0.378007	-1.148269	-0.813891
C53	C	-0.378381	-1.147949	-0.899536
C54	C	-0.278388	-1.050385	-0.899616
C55	C	-0.278840	-1.048649	-0.813966
C56	C	-0.356854	-1.070236	-0.698946
C57	C	-0.356711	-1.070279	-1.015048
C58	C	-0.356878	-1.070162	-0.164211
C59	C	-0.356677	-1.070287	-0.081897
H60	H	-0.432635	-0.506280	-0.258851
H61	H	-0.793106	-1.089313	-0.234673
Br62	Br	-0.313701	-0.649205	-0.204137
H63	H	-0.334846	-0.507635	-0.235807
H64	H	-0.435840	-0.633848	-0.262564
H65	H	-0.262449	-0.508068	-0.435695
Br66	Br	-0.510851	-1.034877	-0.780089
H67	H	-0.400662	-0.954768	-0.920458
Br68	Br	-0.779515	-1.174692	-0.474080
Br69	Br	-0.205557	-0.647615	-0.311010
H70	H	-0.471516	-1.025796	-0.921380
Br71	Br	-0.246210	-0.957201	-0.935616
Br72	Br	-0.777830	-0.954601	-0.249869
H73	H	-0.920997	-0.955448	-0.400967
Br74	Br	-0.510664	-0.648289	-0.391561
H75	H	-0.262860	-0.991229	-0.793649
H76	H	-0.401146	-0.633794	-0.471896
Br77	Br	-0.312095	-1.221685	-0.934087
Br78	Br	-0.310938	-1.221553	-0.779964
Br79	Br	-0.204242	-1.113327	-0.778317
H80	H	-0.435663	-1.164804	-0.919516
Br81	Br	-0.250394	-0.649447	-0.472463
H82	H	-0.920642	-1.167856	-0.432575
H83	H	-0.792748	-1.026111	-0.471725
H84	H	-0.793370	-0.954823	-0.400621
H85	H	-0.919978	-1.026251	-0.472092
H86	H	-0.792016	-1.192915	-0.339599
H87	H	-0.919161	-0.991406	-0.262007
Br88	Br	-0.472465	-1.176852	-0.778149
H89	H	-0.472458	-0.507058	-0.400357
H90	H	-0.401491	-0.506163	-0.471328
Br91	Br	-0.205423	-0.493487	-0.312274
Br92	Br	-0.207553	-1.120146	-0.933386
Br93	Br	-0.933654	-1.114960	-0.205245
H94	H	-0.919329	-1.191125	-0.334843
H95	H	-0.400791	-0.955097	-0.793221
