data_functionalizedCrystal
_audit_creation_method	'MofGen! by Chris Wilmer'
_symmetry_space_group_name_H-M	'P1'
_symmetry_Int_Tables_number	1
_symmetry_cell_setting	triclinic
loop_
_symmetry_equiv_pos_as_xyz
  x,y,z
_cell_length_a	25.639242
_cell_length_b	25.639239
_cell_length_c	10.686551
_cell_angle_alpha	85.590528
_cell_angle_beta	85.593839
_cell_angle_gamma	90.034213
loop_
_atom_site_label
_atom_site_type_symbol
_atom_site_fract_x
_atom_site_fract_y
_atom_site_fract_z
Zn1	Zn	0.821980	-0.185487	-0.713777
Zn2	Zn	0.815176	-0.279643	-0.502750
Zn3	Zn	0.727829	-0.192217	-0.502750
Zn4	Zn	0.734498	-0.272889	-0.713667
O5	O	0.774871	-0.232559	-0.608236
O6	O	0.894245	-0.197986	-0.685831
O7	O	0.797951	-0.273689	-0.326165
O8	O	0.740375	-0.118157	-0.530789
O9	O	0.889246	-0.267163	-0.530790
O10	O	0.809548	-0.113213	-0.685830
O11	O	0.733777	-0.209457	-0.326165
O12	O	0.655547	-0.202908	-0.530682
O13	O	0.751742	-0.255652	-0.890267
O14	O	0.660447	-0.262178	-0.685642
O15	O	0.816014	-0.191438	-0.890348
O16	O	0.804418	-0.351914	-0.530683
O17	O	0.745144	-0.346952	-0.685643
C18	C	0.639026	-0.232541	-0.608151
C19	C	0.580912	-0.232545	-0.608144
C20	C	0.223109	-0.263479	-0.688847
C21	C	0.168506	-0.263482	-0.688867
O22	O	0.142444	-0.289760	-0.757412
N23	N	0.138635	-0.232571	-0.608318
C24	C	0.163370	-0.201651	-0.527754
O25	O	0.132949	-0.175359	-0.459243
C26	C	0.217973	-0.201646	-0.527741
C27	C	0.247841	-0.232563	-0.608286
C28	C	0.252977	-0.294393	-0.769387
C29	C	0.307577	-0.294391	-0.769365
C30	C	0.332309	-0.263475	-0.688804
C31	C	0.302441	-0.232561	-0.608264
C32	C	0.242708	-0.170724	-0.447183
C33	C	0.297315	-0.170722	-0.447178
C34	C	0.327183	-0.201639	-0.527723
C35	C	0.381773	-0.201643	-0.527681
N36	N	0.411644	-0.232554	-0.608230
C37	C	0.386912	-0.263470	-0.688791
C38	C	0.048701	-0.201664	-0.527788
C39	C	-0.005901	-0.201671	-0.527793
C40	C	-0.000762	-0.263501	-0.688909
C41	C	0.053841	-0.263496	-0.688896
C42	C	0.078572	-0.232574	-0.608337
C43	C	0.501575	-0.263464	-0.688738
C44	C	0.556180	-0.263461	-0.688705
C45	C	0.551036	-0.201629	-0.527595
C46	C	0.496436	-0.201634	-0.527622
C47	C	0.471708	-0.232553	-0.608204
O48	O	0.407871	-0.175377	-0.459175
O49	O	0.417340	-0.289753	-0.757301
C50	C	0.774781	-0.368403	-0.608178
C51	C	0.774792	-0.426517	-0.608196
C52	C	0.805827	-0.789445	-0.527686
C53	C	0.805847	-0.844049	-0.527703
O54	O	0.832141	-0.874469	-0.459188
N55	N	0.774966	-0.868795	-0.608320
C56	C	0.744065	-0.838935	-0.688934
O57	O	0.717800	-0.864997	-0.757507
C58	C	0.744048	-0.784332	-0.688922
C59	C	0.774927	-0.759589	-0.608291
C60	C	0.836704	-0.764702	-0.447063
C61	C	0.836683	-0.710102	-0.447045
C62	C	0.805783	-0.680245	-0.527650
C63	C	0.774906	-0.704989	-0.608273
C64	C	0.713150	-0.754472	-0.769542
C65	C	0.713136	-0.699865	-0.769524
C66	C	0.744015	-0.675122	-0.688893
C67	C	0.743985	-0.620532	-0.688860
N68	N	0.774866	-0.595786	-0.608244
C69	C	0.805766	-0.625643	-0.527638
C70	C	0.744105	-0.953605	-0.688953
C71	C	0.744120	-1.008207	-0.688959
C72	C	0.805903	-1.013317	-0.527730
C73	C	0.805885	-0.958715	-0.527719
C74	C	0.774987	-0.928858	-0.608337
C75	C	0.805717	-0.510979	-0.527605
C76	C	0.805691	-0.456374	-0.527591
C77	C	0.743911	-0.451268	-0.688824
C78	C	0.743934	-0.505868	-0.688835
C79	C	0.774842	-0.535722	-0.608221
O80	O	0.717706	-0.590078	-0.757344
O81	O	0.832031	-0.599573	-0.459089
C82	C	0.911247	-0.232577	-0.608323
C83	C	0.969362	-0.232585	-0.608360
C84	C	0.785381	-0.222041	-0.937374
C85	C	0.789860	-0.217559	-1.077633
C86	C	0.774976	-0.096183	-0.608322
C87	C	0.775021	-0.038068	-0.608358
C88	C	0.764432	-0.242999	-0.280379
C89	C	0.760055	-0.247334	-0.140120
H90	H	0.232847	-0.319569	-0.834996
F91	F	0.838788	-1.045103	-0.441940
H92	H	0.818807	-0.188638	-1.131444
F93	F	0.075016	-0.168754	-0.442031
F94	F	0.838751	-0.932386	-0.441902
F95	F	0.722225	-0.285138	-1.069797
H96	H	0.580496	-0.288639	-0.754296
H97	H	0.481448	-0.288640	-0.754358
H98	H	0.331891	-0.319566	-0.834956
H99	H	0.218399	-0.145550	-0.381592
F100	F	0.680288	-0.780793	-0.855373
F101	F	0.711213	-0.921834	-0.774756
F102	F	0.711247	-1.034534	-0.774764
F103	F	-0.037684	-0.168772	-0.442051
H104	H	0.861829	-0.689960	-0.381392
H105	H	0.078156	-0.288670	-0.754485
F106	F	0.869595	-0.796470	-0.361266
F107	F	0.323632	-0.137809	-0.361435
F108	F	-0.027093	-0.296400	-0.774660
H109	H	0.472116	-0.176460	-0.462034
F110	F	0.680250	-0.668093	-0.855334
H111	H	0.571183	-0.176460	-0.462000
H112	H	0.718751	-0.426950	-0.754448
F113	F	0.838559	-0.430044	-0.441768
H114	H	0.830887	-0.535280	-0.461965
F115	F	0.711059	-0.532203	-0.774627
