data_functionalizedCrystal
_audit_creation_method	'MofGen! by Chris Wilmer'
_symmetry_space_group_name_H-M	'P1'
_symmetry_Int_Tables_number	1
_symmetry_cell_setting	triclinic
loop_
_symmetry_equiv_pos_as_xyz
  x,y,z
_cell_length_a	18.266242
_cell_length_b	19.188930
_cell_length_c	19.188924
_cell_angle_alpha	96.856628
_cell_angle_beta	89.991576
_cell_angle_gamma	90.022918
loop_
_atom_site_label
_atom_site_type_symbol
_atom_site_fract_x
_atom_site_fract_y
_atom_site_fract_z
O1	O	-0.061120	-0.926147	0.087169
O2	O	-0.061070	-0.722836	0.098903
O3	O	-0.061088	-0.830361	-0.008620
O4	O	-0.061102	-0.818622	0.194692
O5	O	0.060674	-0.830343	-0.008625
O6	O	0.060692	-0.722817	0.098898
O7	O	0.060642	-0.926129	0.087164
Zn8	Zn	0.080000	-0.824470	0.093030
Zn9	Zn	-0.080427	-0.824494	0.093037
O10	O	0.060660	-0.818604	0.194687
C11	C	-0.000182	-0.696815	0.098521
C12	C	-0.000163	-0.619311	0.097380
N13	N	0.189487	-0.824459	0.093024
N14	N	-0.189914	-0.824511	0.093037
C15	C	0.227788	-0.872087	0.045436
C16	C	0.304432	-0.872091	0.045433
C17	C	0.342773	-0.824475	0.093030
C18	C	0.304463	-0.776838	0.140622
C19	C	0.227820	-0.776830	0.140619
N20	N	0.463103	-0.815397	0.154838
N21	N	0.535911	-0.815409	0.154838
C22	C	0.573696	-0.824494	0.093040
N23	N	0.535922	-0.833581	0.031240
N24	N	0.463107	-0.833573	0.031240
C25	C	0.425880	-0.824477	0.093038
C26	C	0.695104	-0.872129	0.045445
C27	C	0.771750	-0.872129	0.045440
C28	C	0.771780	-0.776879	0.140635
C29	C	0.695135	-0.776876	0.140633
C30	C	0.656802	-0.824505	0.093039
C31	C	-0.000206	-0.829973	-0.034634
C32	C	-0.000204	-0.828834	-0.112138
C33	C	-0.000247	-0.952149	0.087546
C34	C	-0.000271	-1.029654	0.088687
C35	C	-0.000179	-0.574386	0.160471
C36	C	-0.000187	-0.501562	0.159399
C37	C	-0.000194	-0.473667	0.095233
C38	C	-0.000174	-0.518602	0.032134
C39	C	-0.000158	-0.591424	0.033207
N40	N	-0.041661	-0.365694	0.046188
N41	N	-0.041677	-0.296515	0.045172
C42	C	-0.000238	-0.254258	0.091995
N43	N	0.041208	-0.283792	0.139882
N44	N	0.041221	-0.352976	0.140899
C45	C	-0.000210	-0.394704	0.094062
C46	C	-0.000262	-0.130368	0.153928
C47	C	-0.000265	-0.057543	0.152854
C48	C	-0.000259	-0.074585	0.025586
C49	C	-0.000248	-0.147409	0.026663
C50	C	-0.000253	-0.175295	0.090835
C51	C	-0.066576	-0.828312	-0.148534
C52	C	-0.066581	-0.827232	-0.221357
C53	C	-0.000210	-0.826688	-0.257783
C54	C	0.066171	-0.827206	-0.221378
C55	C	0.066174	-0.828279	-0.148555
N56	N	0.049179	-0.864728	-0.377448
N57	N	0.049171	-0.863711	-0.446627
C58	C	-0.000217	-0.823454	-0.477192
N59	N	-0.049607	-0.784262	-0.435967
N60	N	-0.049602	-0.785283	-0.366783
C61	C	-0.000207	-0.825524	-0.336746
C62	C	-0.066599	-0.821760	-0.592551
C63	C	-0.066602	-0.820676	-0.665374
C64	C	0.066152	-0.820657	-0.665394
C65	C	0.066153	-0.821734	-0.592571
C66	C	-0.000225	-0.822289	-0.556154
C67	C	-0.000223	-0.818992	0.220700
C68	C	-0.000230	-0.820131	0.298205
H69	H	0.335623	-0.910877	0.006680
H70	H	0.120193	-0.820208	-0.695051
H71	H	0.335684	-0.738066	0.179374
N72	N	-0.000248	-0.158849	0.219481
N73	N	0.051079	-0.144983	0.261960
H74	H	0.051091	-0.165096	0.308258
H75	H	-0.000239	-0.183988	-0.024713
N76	N	-0.134391	-0.822325	-0.555333
N77	N	-0.149209	-0.872133	-0.521284
H78	H	-0.197087	-0.872532	-0.494999
H79	H	0.120201	-0.822164	-0.562938
H80	H	0.120224	-0.828700	-0.118922
N81	N	-0.000247	-0.046103	-0.039960
N82	N	0.051078	-0.007345	-0.054758
H83	H	0.051092	0.012772	-0.101053
N84	N	-0.000162	-0.637318	-0.031242
N85	N	-0.051483	-0.679879	-0.044838
H86	H	-0.051488	-0.712294	-0.090356
H87	H	0.802996	-0.738106	0.179386
H88	H	-0.000274	-0.020965	0.204232
H89	H	-0.120626	-0.828762	-0.118888
N90	N	-0.134389	-0.826697	-0.258534
N91	N	-0.193647	-0.827190	-0.226010
H92	H	-0.241537	-0.826812	-0.252264
H93	H	0.120211	-0.826761	-0.251040
N94	N	-0.134410	-0.820134	-0.702542
N95	N	-0.193666	-0.820628	-0.670014
H96	H	-0.241558	-0.820245	-0.696264
H97	H	0.196579	-0.910867	0.006681
H98	H	0.196634	-0.738045	0.179371
H99	H	0.663892	-0.910910	0.006688
H100	H	0.802936	-0.910911	0.006685
H101	H	0.663948	-0.738096	0.179386
N102	N	-0.000169	-0.602856	0.226027
N103	N	0.051152	-0.588981	0.268510
H104	H	0.051161	-0.609088	0.314811
N105	N	-0.000193	-0.455659	0.223847
N106	N	0.051128	-0.458050	0.266576
H107	H	0.051124	-0.425632	0.312091
N108	N	-0.000173	-0.490100	-0.033405
N109	N	-0.000187	-0.425080	-0.034355
H110	H	-0.000183	-0.404950	-0.080644
