data_functionalizedCrystal
_audit_creation_method	'MofGen! by Chris Wilmer'
_symmetry_space_group_name_H-M	'P1'
_symmetry_Int_Tables_number	1
_symmetry_cell_setting	triclinic
loop_
_symmetry_equiv_pos_as_xyz
  x,y,z
_cell_length_a	16.109301
_cell_length_b	11.892095
_cell_length_c	16.109301
_cell_angle_alpha	93.886619
_cell_angle_beta	96.538519
_cell_angle_gamma	93.895190
loop_
_atom_site_label
_atom_site_type_symbol
_atom_site_fract_x
_atom_site_fract_y
_atom_site_fract_z
O1	O	1.108445	0.093935	-0.101554
O2	O	1.608445	0.593935	0.398446
O3	O	0.866384	0.093953	-0.114853
O4	O	1.366384	0.593953	0.385147
O5	O	0.994064	0.093932	0.012827
O6	O	1.494064	0.593932	0.512827
O7	O	0.980766	0.093956	-0.229234
O8	O	1.480766	0.593956	0.270766
O9	O	0.983418	-0.094074	0.002198
O10	O	1.483418	0.405926	0.502198
O11	O	0.855739	-0.094052	-0.125482
O12	O	1.355739	0.405948	0.374518
O13	O	1.097800	-0.094071	-0.112184
O14	O	1.597800	0.405929	0.387816
Zn15	Zn	0.975079	-0.123912	-0.120520
Zn16	Zn	1.475079	0.376088	0.379480
Zn17	Zn	0.989105	0.123794	-0.106516
Zn18	Zn	1.489105	0.623794	0.393484
O19	O	0.970120	-0.094050	-0.239863
O20	O	1.470120	0.405950	0.260137
C21	C	0.830087	-0.000047	-0.119628
C22	C	1.330087	0.499953	0.380372
C23	C	0.737792	-0.000041	-0.118013
C24	C	1.237792	0.499959	0.381987
N25	N	0.965513	-0.292964	-0.130078
N26	N	1.465513	0.207036	0.369922
C27	C	0.515519	-0.000047	-0.190021
C28	C	1.015519	0.499953	0.309979
C29	C	0.428798	-0.000054	-0.188497
C30	C	0.928798	0.499946	0.311503
C31	C	0.448672	-0.000064	-0.037009
C32	C	0.948672	0.499936	0.462991
C33	C	0.535391	-0.000065	-0.038534
C34	C	1.035391	0.499935	0.461466
C35	C	0.568812	-0.000050	-0.115042
C36	C	1.068812	0.499950	0.384958
C37	C	0.395373	-0.000057	-0.111994
C38	C	0.895373	0.499943	0.388006
C39	C	0.301346	-0.000065	-0.110341
C40	C	0.801346	0.499935	0.389659
C41	C	0.662844	-0.000045	-0.116695
C42	C	1.162844	0.499955	0.383305
C43	C	1.065245	-0.529628	-0.030401
C44	C	1.565245	-0.029628	0.469599
C45	C	1.058565	-0.647969	-0.037087
C46	C	1.558565	-0.147969	0.462913
C47	C	0.945467	-0.647989	-0.150132
C48	C	1.445467	-0.147989	0.349868
C49	C	0.952148	-0.529648	-0.143446
C50	C	1.452148	-0.029648	0.356554
C51	C	1.012040	-0.470472	-0.083579
C52	C	1.512040	0.029528	0.416421
C53	C	1.018724	-0.352129	-0.076897
C54	C	1.518724	0.147871	0.423103
C55	C	0.905623	-0.352150	-0.189938
C56	C	1.405623	0.147850	0.310062
C57	C	0.898942	-0.470491	-0.196624
C58	C	1.398942	0.029509	0.303376
C59	C	1.134097	-0.000068	-0.107408
C60	C	1.634097	0.499932	0.392592
C61	C	1.226393	-0.000067	-0.109023
C62	C	1.726393	0.499933	0.390977
C63	C	0.988202	-0.000071	0.038487
C64	C	1.488202	0.499929	0.538487
C65	C	0.986587	-0.000073	0.130782
C66	C	1.486587	0.499927	0.630782
N67	N	0.998678	0.292847	-0.096952
N68	N	1.498678	0.792847	0.403048
C69	C	0.975982	-0.000044	-0.265523
C70	C	1.475982	0.499956	0.234477
C71	C	0.977598	-0.000035	-0.357818
C72	C	1.477598	0.499965	0.142182
C73	C	1.058595	-0.000060	0.353055
C74	C	1.558595	0.499940	0.853055
C75	C	1.057072	-0.000051	0.439776
C76	C	1.557072	0.499949	0.939776
C77	C	0.905584	-0.000044	0.419902
C78	C	1.405584	0.499956	0.919902
C79	C	0.907108	-0.000045	0.333184
C80	C	1.407108	0.499955	0.833184
C81	C	0.983617	-0.000059	0.299762
C82	C	1.483617	0.499941	0.799762
C83	C	0.980568	-0.000048	0.473202
C84	C	1.480568	0.499952	0.973202
C85	C	0.978916	-0.000038	0.567229
C86	C	1.478916	0.499962	1.067229
C87	C	0.985270	-0.000067	0.205730
C88	C	1.485270	0.499933	0.705730
H89	H	0.542727	-0.000043	-0.252319
H90	H	1.042727	0.499957	0.247681
H91	H	0.846048	-0.000041	0.289790
H92	H	1.346048	0.499959	0.789790
F93	F	1.140022	-0.000074	0.317489
F94	F	1.640022	0.499926	0.817489
H95	H	1.114017	-0.481447	0.018340
H96	H	1.614017	0.018553	0.518340
F97	F	0.592113	-0.000077	0.041273
F98	F	1.092113	0.499923	0.541273
F99	F	0.881722	-0.710980	-0.213836
F100	F	1.381722	-0.210980	0.286164
H101	H	0.421449	-0.000083	0.025281
H102	H	0.921449	0.499917	0.525281
F103	F	0.372083	-0.000052	-0.268300
F104	F	0.872083	0.499948	0.231700
F105	F	1.082468	-0.289152	-0.013184
F106	F	1.582468	0.210848	0.486816
H107	H	1.101889	-0.696131	0.006217
H108	H	1.601889	-0.196131	0.506217
H109	H	0.850177	-0.518686	-0.245365
H110	H	1.350177	-0.018686	0.254635
F111	F	0.848999	-0.289180	-0.246540
F112	F	1.348999	0.210820	0.253460
F113	F	1.136875	-0.000050	0.496492
F114	F	1.636875	0.499950	0.996492
H115	H	0.843293	-0.000035	0.447125
H116	H	1.343293	0.499965	0.947125
