data_functionalizedCrystal
_audit_creation_method	'MofGen! by Chris Wilmer'
_symmetry_space_group_name_H-M	'P1'
_symmetry_Int_Tables_number	1
_symmetry_cell_setting	triclinic
loop_
_symmetry_equiv_pos_as_xyz
  x,y,z
_cell_length_a	17.077402
_cell_length_b	18.215407
_cell_length_c	18.215398
_cell_angle_alpha	89.979773
_cell_angle_beta	90.026219
_cell_angle_gamma	89.977196
loop_
_atom_site_label
_atom_site_type_symbol
_atom_site_fract_x
_atom_site_fract_y
_atom_site_fract_z
Zn1	Zn	-0.312537	-1.125080	0.416127
Zn2	Zn	0.187463	-0.625080	0.916127
Zn3	Zn	-0.443804	-1.124993	0.293059
Zn4	Zn	0.056196	-0.624993	0.793059
Zn5	Zn	-0.312556	-1.002013	0.293072
Zn6	Zn	0.187444	-0.502013	0.793072
Zn7	Zn	-0.443765	-1.001982	0.416082
Zn8	Zn	0.056235	-0.501982	0.916082
O9	O	-0.378166	-1.063517	0.354585
O10	O	0.121834	-0.563517	0.854585
O11	O	-0.329959	-1.228052	0.399815
O12	O	0.170041	-0.728052	0.899815
O13	O	-0.426418	-1.108656	0.190076
O14	O	0.073582	-0.608656	0.690076
O15	O	-0.202707	-1.018387	0.309420
O16	O	0.297293	-0.518387	0.809420
O17	O	-0.426400	-1.227989	0.309397
O18	O	0.073600	-0.727989	0.809397
O19	O	-0.202693	-1.108803	0.399828
O20	O	0.297307	-0.608803	0.899828
O21	O	-0.329991	-1.018303	0.190086
O22	O	0.170009	-0.518303	0.690086
O23	O	-0.329953	-0.899025	0.309377
O24	O	0.170047	-0.399025	0.809377
O25	O	-0.426333	-1.018335	0.519072
O26	O	0.073667	-0.518335	1.019072
O27	O	-0.426351	-0.899002	0.399752
O28	O	0.073649	-0.399002	0.899752
O29	O	-0.329921	-1.108774	0.519105
O30	O	0.170079	-0.608774	1.019105
O31	O	-0.553646	-1.108626	0.309354
O32	O	-0.053646	-0.608626	0.809354
O33	O	-0.553617	-1.018251	0.399738
O34	O	-0.053617	-0.518251	0.899738
C35	C	-0.378150	-0.872311	0.354561
C36	C	0.121850	-0.372311	0.854561
C37	C	-0.378163	-0.790512	0.354569
C38	C	0.121837	-0.290512	0.854569
C39	C	-0.582114	-1.063446	0.354556
C40	C	-0.082114	-0.563446	0.854556
C41	C	-0.669363	-1.063483	0.354568
C42	C	-0.169363	-0.563483	0.854568
C43	C	-0.710342	-1.110589	0.307555
C44	C	-0.210342	-0.610589	0.807555
C45	C	-0.792323	-1.110625	0.307574
C46	C	-0.292323	-0.610625	0.807574
C47	C	-0.833323	-1.063551	0.354602
C48	C	-0.333323	-0.563551	0.854602
C49	C	-0.792338	-1.016442	0.401620
C50	C	-0.292338	-0.516442	0.901620
C51	C	-0.710359	-1.016410	0.401604
C52	C	-0.210359	-0.516410	0.901604
C53	C	-0.963208	-1.016510	0.401648
C54	C	-0.463208	-0.516510	0.901648
C55	C	-1.045192	-1.016541	0.401663
C56	C	-0.545192	-0.516541	0.901663
C57	C	-1.045172	-1.110725	0.307617
C58	C	-0.545172	-0.610725	0.807617
C59	C	-0.963193	-1.110694	0.307602
C60	C	-0.463193	-0.610694	0.807602
C61	C	-0.922214	-1.063584	0.354619
C62	C	-0.422214	-0.563584	0.854619
C63	C	-0.428435	-0.602325	0.401565
C64	C	0.071565	-0.102325	0.901565
C65	C	-0.428436	-0.525467	0.401573
C66	C	0.071564	-0.025467	0.901573
C67	C	-0.327901	-0.525460	0.307608
C68	C	0.172099	-0.025460	0.807608
C69	C	-0.327896	-0.602318	0.307604
C70	C	0.172104	-0.102318	0.807604
C71	C	-0.378167	-0.640748	0.354581
C72	C	0.121833	-0.140748	0.854581
C73	C	-0.378174	-0.487032	0.354593
C74	C	0.121826	0.012968	0.854593
C75	C	-0.378175	-0.403699	0.354602
C76	C	0.121825	0.096301	0.854602
C77	C	-0.378165	-0.724087	0.354574
C78	C	0.121835	-0.224087	0.854574
C79	C	-0.173421	-1.063608	0.354631
C80	C	0.326579	-0.563608	0.854631
C81	C	-0.086172	-1.063647	0.354650
C82	C	0.413828	-0.563647	0.854650
C83	C	-0.378121	-1.063561	0.546538
C84	C	0.121879	-0.563561	1.046538
C85	C	-0.378101	-1.063579	0.628337
C86	C	0.121899	-0.563579	1.128337
C87	C	-0.378179	-0.255470	0.354606
C88	C	0.121821	0.244530	0.854606
C89	C	-0.378179	-0.337269	0.354606
C90	C	0.121821	0.162731	0.854606
C91	C	-0.378154	-1.063516	0.163379
C92	C	0.121846	-0.563516	0.663379
C93	C	-0.377952	-1.063640	0.081580
C94	C	0.122048	-0.563640	0.581580
C95	C	-0.428214	-1.110659	0.893394
C96	C	0.071786	-0.610659	1.393394
C97	C	-0.428241	-1.110648	0.816535
C98	C	0.071759	-0.610648	1.316535
C99	C	-0.327837	-1.016554	0.816529
C100	C	0.172163	-0.516554	1.316529
C101	C	-0.327814	-1.016562	0.893386
C102	C	0.172186	-0.516562	1.393386
C103	C	-0.378002	-1.063619	0.931817
C104	C	0.121998	-0.563619	1.431817
C105	C	-0.378052	-1.063600	0.778101
C106	C	0.121948	-0.563600	1.278101
C107	C	-0.378081	-1.063587	0.694767
C108	C	0.121919	-0.563587	1.194767
C109	C	-0.377974	-1.063631	1.015156
C110	C	0.122026	-0.563631	1.515156
H111	H	-0.676966	-1.148920	0.269256
H112	H	-0.176966	-0.648920	0.769256
H113	H	-0.469368	-0.494186	0.439833
H114	H	0.030632	0.005814	0.939833
H115	H	-0.825727	-0.978116	0.439915
H116	H	-0.325727	-0.478116	0.939915
H117	H	-0.929845	-0.978151	0.439937
H118	H	-0.429845	-0.478151	0.939937
N119	N	-1.089416	-0.965774	0.452391
N120	N	-0.589416	-0.465774	0.952391
H121	H	-1.123477	-0.931697	0.422459
H122	H	-0.623477	-0.431697	0.922459
H123	H	-1.050968	-0.935979	0.482167
H124	H	-0.550968	-0.435979	0.982167
H125	H	-0.286975	-0.978243	0.785229
H126	H	0.213025	-0.478243	1.285229
N127	N	-0.273703	-0.484010	0.256922
N128	N	0.226297	0.015990	0.756922
H129	H	-0.281341	-0.429491	0.264045
H130	H	0.218659	0.070509	0.764045
H131	H	-0.285867	-0.497431	0.204348
H132	H	0.214133	0.002569	0.704348
N133	N	-0.666152	-0.965598	0.452303
N134	N	-0.166152	-0.465598	0.952303
H135	H	-0.632090	-0.995473	0.486429
H136	H	-0.132090	-0.495473	0.986429
H137	H	-0.704610	-0.935787	0.482048
H138	H	-0.204610	-0.435787	0.982048
N139	N	-0.482652	-0.643777	0.452232
N140	N	0.017348	-0.143777	0.952232
H141	H	-0.514495	-0.607771	0.481997
H142	H	-0.014495	-0.107771	0.981997
H143	H	-0.450745	-0.675691	0.486340
H144	H	0.049255	-0.175691	0.986340
H145	H	-1.078541	-1.149086	0.269337
H146	H	-0.578541	-0.649086	0.769337
H147	H	-0.469129	-1.148953	0.785255
H148	H	0.030871	-0.648953	1.285255
H149	H	-0.469081	-1.148975	0.924682
H150	H	0.030919	-0.648975	1.424682
N151	N	-0.273667	-0.643766	0.256936
N152	N	0.226333	-0.143766	0.756936
H153	H	-0.241823	-0.607760	0.227174
H154	H	0.258177	-0.107760	0.727174
H155	H	-0.305563	-0.675636	0.222823
H156	H	0.194437	-0.175636	0.722823
H157	H	-0.286924	-0.978253	0.924671
H158	H	0.213076	-0.478253	1.424671
H159	H	-0.825684	-1.148984	0.269291
H160	H	-0.325684	-0.648984	0.769291
H161	H	-0.929811	-1.149022	0.269304
H162	H	-0.429811	-0.649022	0.769304
