data_functionalizedCrystal
_audit_creation_method	'MofGen! by Chris Wilmer'
_symmetry_space_group_name_H-M	'P1'
_symmetry_Int_Tables_number	1
_symmetry_cell_setting	triclinic
loop_
_symmetry_equiv_pos_as_xyz
  x,y,z
_cell_length_a	14.044209
_cell_length_b	10.540539
_cell_length_c	13.101039
_cell_angle_alpha	93.398267
_cell_angle_beta	93.659214
_cell_angle_gamma	91.143278
loop_
_atom_site_label
_atom_site_type_symbol
_atom_site_fract_x
_atom_site_fract_y
_atom_site_fract_z
O1	O	-1.264944	0.299837	-0.085081
O2	O	-0.988902	0.288787	-0.085111
O3	O	-1.133220	0.110242	-0.085094
O4	O	-1.120625	0.478382	-0.085098
O5	O	-1.122866	0.123076	0.085334
O6	O	-0.978547	0.301620	0.085318
O7	O	-1.254589	0.312671	0.085347
Zn8	Zn	-1.114924	0.309183	0.112392
Zn9	Zn	-1.128567	0.292274	-0.112155
O10	O	-1.110271	0.491215	0.085331
C11	C	-0.948377	0.290366	0.000100
C12	C	-0.843054	0.275936	0.000088
C13	C	-1.127099	0.069260	0.000118
C14	C	-1.124273	-0.071974	0.000112
C15	C	-0.650213	0.249559	0.000106
C16	C	-0.593273	0.351902	0.000109
C17	C	-0.485969	0.337225	0.000119
C18	C	-0.757527	0.264234	0.000096
C19	C	-1.016007	-0.266377	-0.000282
C20	C	-1.018849	-0.119440	0.000102
C21	C	-1.169095	-0.121174	0.097441
C22	C	-1.165492	-0.268076	0.097522
C23	C	-1.179411	-0.282972	-0.096287
C24	C	-1.180460	-0.135988	-0.097573
C25	C	-0.295114	0.311094	0.000131
C26	C	-0.400437	0.325530	0.000127
C27	C	-1.116392	0.532197	0.000116
C28	C	-1.119219	0.673431	0.000115
N29	N	-1.105620	0.320723	0.265639
N30	N	-1.137878	0.280725	-0.265403
C31	C	-1.092962	0.336435	0.474680
C32	C	-1.150533	0.265017	0.525563
C33	C	-1.143490	0.273760	0.641880
C34	C	-1.100004	0.327694	0.358352
H35	H	-0.618376	0.150925	0.000113
H36	H	-0.625112	0.450543	0.000103
H37	H	-1.205111	0.197310	0.481767
O38	O	-0.976366	-0.079864	-0.083239
C39	C	-1.025498	-0.133763	-0.173159
H40	H	-1.065729	-0.223735	-0.154790
H41	H	-0.972192	-0.158475	-0.232916
H42	H	-1.078299	-0.062666	-0.204483
O43	O	-0.971253	-0.311613	-0.083514
C44	C	-0.879003	-0.255882	-0.081575
H45	H	-0.876727	-0.162197	-0.033213
H46	H	-0.860780	-0.237350	-0.163015
H47	H	-0.824906	-0.323029	-0.046930
O48	O	-0.961638	-0.301240	0.082588
C49	C	-1.016455	-0.379868	0.140902
H50	H	-1.095474	-0.361358	0.124358
H51	H	-0.996335	-0.358031	0.225897
H52	H	-1.001882	-0.483794	0.119608
O53	O	-0.965708	-0.068127	0.083358
C54	C	-0.891279	0.008453	0.050961
H55	H	-0.875911	-0.023197	-0.030954
H56	H	-0.824350	-0.001545	0.103574
H57	H	-0.913389	0.112022	0.054066
H58	H	-1.038389	0.404139	0.518471
H59	H	-1.123577	-0.294588	0.170269
H60	H	-1.241043	-0.308047	0.101946
H61	H	-1.246295	-0.090720	0.101068
O62	O	-1.121672	-0.068040	0.183741
C63	C	-1.048006	0.013675	0.156473
H64	H	-1.027503	-0.015536	0.075763
H65	H	-0.983224	0.006986	0.212760
H66	H	-1.073722	0.115649	0.158846
O67	O	-1.141527	-0.097879	-0.183448
C68	C	-1.146425	0.035386	-0.185931
H69	H	-1.205928	0.070945	-0.137149
H70	H	-1.161825	0.062006	-0.268338
H71	H	-1.075482	0.080969	-0.154317
O72	O	-1.272567	-0.098273	-0.104401
C73	C	-1.288283	-0.012716	-0.020633
H74	H	-1.233380	-0.028202	0.045091
H75	H	-1.363105	-0.029763	0.005520
H76	H	-1.281075	0.089000	-0.044773
O77	O	-1.143908	-0.331404	-0.184198
C78	C	-1.064091	-0.405567	-0.159898
H79	H	-1.032137	-0.374196	-0.079997
H80	H	-1.008369	-0.392453	-0.218208
H81	H	-1.087223	-0.510019	-0.161839
O82	O	-1.270250	-0.330336	-0.096937
C83	C	-1.279445	-0.402476	-0.010698
H84	H	-1.206235	-0.436116	0.017338
H85	H	-1.328697	-0.488381	-0.032615
H86	H	-1.310840	-0.341270	0.052915
