data_functionalizedCrystal
_audit_creation_method	'MofGen! by Chris Wilmer'
_symmetry_space_group_name_H-M	'P1'
_symmetry_Int_Tables_number	1
_symmetry_cell_setting	triclinic
loop_
_symmetry_equiv_pos_as_xyz
  x,y,z
_cell_length_a	19.077105
_cell_length_b	17.640280
_cell_length_c	19.076929
_cell_angle_alpha	98.511233
_cell_angle_beta	89.921700
_cell_angle_gamma	76.093206
loop_
_atom_site_label
_atom_site_type_symbol
_atom_site_fract_x
_atom_site_fract_y
_atom_site_fract_z
Zn1	Zn	1.129857	-0.382612	0.374498
Zn2	Zn	1.629857	0.117388	0.874498
Zn3	Zn	1.158302	-0.509790	0.235080
Zn4	Zn	1.658302	-0.009790	0.735080
Zn5	Zn	1.015098	-0.372024	0.254116
Zn6	Zn	1.515098	0.127976	0.754116
Zn7	Zn	1.036029	-0.509306	0.347916
Zn8	Zn	1.536029	-0.009306	0.847916
O9	O	1.084822	-0.443433	0.302902
O10	O	1.584822	0.056567	0.802902
O11	O	1.232829	-0.404116	0.359162
O12	O	1.732829	0.095884	0.859162
O13	O	1.142451	-0.487286	0.140003
O14	O	1.642451	0.012714	0.640003
O15	O	1.009657	-0.262751	0.289176
O16	O	1.509657	0.237249	0.789176
O17	O	1.253728	-0.497553	0.256733
O18	O	1.753728	0.002447	0.756733
O19	O	1.093970	-0.270530	0.377620
O20	O	1.593970	0.229470	0.877620
O21	O	1.037239	-0.386070	0.153988
O22	O	1.537239	0.113930	0.653988
O23	O	0.918676	-0.385601	0.263400
O24	O	1.418676	0.114399	0.763400
O25	O	1.045331	-0.496729	0.449045
O26	O	1.545331	0.003271	0.949045
O27	O	0.934054	-0.486462	0.332315
O28	O	1.434054	0.013538	0.832315
O29	O	1.114266	-0.403647	0.468574
O30	O	1.614266	0.096353	0.968574
O31	O	1.162747	-0.620403	0.230957
O32	O	1.662747	-0.120403	0.730957
O33	O	1.072913	-0.620048	0.313857
O34	O	1.572913	-0.120048	0.813857
C35	C	0.900644	-0.434831	0.297039
C36	C	1.400644	0.065169	0.797039
C37	C	0.821855	-0.431170	0.294544
C38	C	1.321855	0.068830	0.794544
C39	C	0.792881	-0.482037	0.329169
C40	C	1.292881	0.017963	0.829169
C41	C	0.718848	-0.478587	0.326829
C42	C	1.218848	0.021413	0.826829
C43	C	0.673792	-0.424274	0.289861
C44	C	1.173792	0.075726	0.789861
C45	C	0.702770	-0.373403	0.255235
C46	C	1.202770	0.126597	0.755235
C47	C	0.776800	-0.376849	0.257579
C48	C	1.276800	0.123151	0.757579
C49	C	0.451520	-0.408324	0.279016
C50	C	0.951520	0.091676	0.779016
C51	C	0.377485	-0.404884	0.276673
C52	C	0.877485	0.095116	0.776673
C53	C	0.393569	-0.510067	0.348268
C54	C	0.893569	-0.010067	0.848268
C55	C	0.467601	-0.513512	0.350606
C56	C	0.967601	-0.013512	0.850606
C57	C	0.496572	-0.462638	0.315983
C58	C	0.996572	0.037362	0.815983
N59	N	0.598118	-0.420749	0.287467
N60	N	1.098118	0.079251	0.787467
N61	N	0.572243	-0.466160	0.318382
N62	N	1.072243	0.033840	0.818382
C63	C	1.123207	-0.648924	0.267473
C64	C	1.623207	-0.148924	0.767473
C65	C	1.139692	-0.736838	0.252341
C66	C	1.639692	-0.236838	0.752341
C67	C	0.959868	-1.025169	0.418118
C68	C	1.459868	-0.525169	0.918118
C69	C	0.975360	-1.107777	0.403877
C70	C	1.475360	-0.607777	0.903877
C71	C	1.068957	-1.108088	0.317646
C72	C	1.568957	-0.608088	0.817646
C73	C	1.053475	-1.025479	0.331881
C74	C	1.553475	-0.525479	0.831881
C75	C	0.998929	-0.984026	0.382118
C76	C	1.498929	-0.484026	0.882118
C77	C	1.092536	-0.984335	0.295881
C78	C	1.592536	-0.484335	0.795881
C79	C	1.077052	-0.901733	0.310113
C80	C	1.577052	-0.401733	0.810113
C81	C	1.022507	-0.860274	0.360346
C82	C	1.522507	-0.360274	0.860346
C83	C	0.983445	-0.901424	0.396350
C84	C	1.483445	-0.401424	0.896350
C85	C	1.147078	-1.025790	0.245642
C86	C	1.647078	-0.525790	0.745642
C87	C	1.186140	-0.984646	0.209641
C88	C	1.686140	-0.484646	0.709641
C89	C	1.170660	-0.902043	0.223877
C90	C	1.670660	-0.402043	0.723877
C91	C	1.116115	-0.860584	0.274109
C92	C	1.616115	-0.360584	0.774109
C93	C	1.209722	-0.860893	0.187873
C94	C	1.709722	-0.360893	0.687873
C95	C	1.194238	-0.778291	0.202105
C96	C	1.694238	-0.278291	0.702105
C97	C	1.100631	-0.777982	0.288342
C98	C	1.600631	-0.277982	0.788342
C99	C	1.269719	-0.452070	0.308789
C100	C	1.769719	0.047930	0.808789
C101	C	1.348511	-0.455750	0.311298
C102	C	1.848511	0.044250	0.811298
C103	C	1.078960	-0.451315	0.484824
C104	C	1.578960	0.048685	0.984824
C105	C	1.076463	-0.454674	0.562348
C106	C	1.576463	0.045326	1.062348
C107	C	1.046306	-0.237141	0.338486
C108	C	1.546306	0.262859	0.838486
C109	C	1.029893	-0.149231	0.353650
C110	C	1.529893	0.350769	0.853650
C111	C	1.090690	-0.435526	0.121700
C112	C	1.590690	0.064474	0.621700
C113	C	1.093284	-0.431951	0.044219
C114	C	1.593284	0.068049	0.544219
C115	C	1.058564	-0.478829	0.997628
C116	C	1.558564	0.021171	1.497628
C117	C	1.060907	-0.475661	0.924788
C118	C	1.560907	0.024339	1.424788
C119	C	1.097973	-0.425619	0.898539
C120	C	1.597973	0.074381	1.398539
C121	C	1.132693	-0.378736	0.945135
C122	C	1.632693	0.121264	1.445135
C123	C	1.130346	-0.381900	1.017974
C124	C	1.630346	0.118100	1.517974
C125	C	1.108836	-0.410955	0.681784
C126	C	1.608836	0.089045	1.181784
C127	C	1.111182	-0.407796	0.608938
C128	C	1.611182	0.092204	1.108938
C129	C	1.039394	-0.504721	0.588597
C130	C	1.539394	-0.004721	1.088597
C131	C	1.037055	-0.507884	0.661438
C132	C	1.537055	-0.007884	1.161438
C133	C	1.071771	-0.460998	0.708028
C134	C	1.571771	0.039002	1.208028
N135	N	1.100369	-0.422381	0.824084
N136	N	1.600369	0.077619	1.324084
N137	N	1.069370	-0.464232	0.782482
N138	N	1.569370	0.035768	1.282482
H139	H	0.504282	-0.557741	0.380707
H140	H	1.004282	-0.057741	0.880707
H141	H	1.028385	-0.519581	1.018994
H142	H	1.528385	-0.019581	1.518994
H143	H	1.011129	-0.542891	0.550656
H144	H	1.511129	-0.042891	1.050656
C145	C	1.173464	-0.323687	0.916259
C146	C	1.673464	0.176313	1.416259
N147	N	1.204175	-0.282225	0.894510
N148	N	1.704175	0.217775	1.394510
C149	C	1.168542	-0.330333	1.069224
C150	C	1.668542	0.169667	1.569224
N151	N	1.197311	-0.291489	1.107824
N152	N	1.697311	0.208511	1.607824
C153	C	1.151958	-0.352743	0.580067
C154	C	1.651958	0.147257	1.080067
N155	N	1.182670	-0.311280	0.558321
N156	N	1.682670	0.188720	1.058321
C157	C	1.246136	-1.030253	0.154380
C158	C	1.746136	-0.530253	0.654380
N159	N	1.291327	-1.064604	0.112757
N160	N	1.791327	-0.564604	0.612757
C161	C	0.361693	-0.566020	0.386357
C162	C	0.861693	-0.066020	0.886357
N163	N	0.337683	-0.608163	0.415049
N164	N	0.837683	-0.108163	0.915049
H165	H	1.159685	-1.093050	0.234057
H166	H	1.659685	-0.593050	0.734057
H167	H	0.666078	-0.329177	0.225138
H168	H	1.166078	0.170823	0.725138
H169	H	0.800388	-0.335424	0.229388
H170	H	1.300388	0.164576	0.729388
H171	H	0.829562	-0.526266	0.359270
H172	H	1.329562	-0.026266	0.859270
C173	C	1.005475	-0.769409	0.376002
C174	C	1.505475	-0.269409	0.876002
N175	N	0.992648	-0.700969	0.387795
N176	N	1.492648	-0.200969	0.887795
C177	C	0.686984	-0.534559	0.364903
C178	C	1.186984	-0.034559	0.864903
N179	N	0.662986	-0.576724	0.393577
N180	N	1.162986	-0.076724	0.893577
C181	C	0.996274	-0.562929	0.690307
C182	C	1.496274	-0.062929	1.190307
N183	N	0.965557	-0.604390	0.712050
N184	N	1.465557	-0.104390	1.212050
C185	C	1.128954	-1.153695	0.262384
C186	C	1.628954	-0.653695	0.762384
N187	N	1.174144	-1.188046	0.220761
N188	N	1.674144	-0.688046	0.720761
C189	C	1.147031	-0.359384	0.733023
C190	C	1.647031	0.140616	1.233023
N191	N	1.175803	-0.320539	0.771620
N192	N	1.675803	0.179461	1.271620
H193	H	1.226045	-0.744792	0.172789
H194	H	1.726045	-0.244792	0.672789
H195	H	1.254128	-0.894656	0.146966
H196	H	1.754128	-0.394656	0.646966
H197	H	0.475100	-0.366905	0.250818
H198	H	0.975100	0.133095	0.750818
C199	C	0.923432	-0.855820	0.451603
C200	C	1.423432	-0.355820	0.951603
N201	N	0.878227	-0.821470	0.493212
N202	N	1.378227	-0.321470	0.993212
C203	C	0.327923	-0.345132	0.236004
C204	C	0.827923	0.154868	0.736004
N205	N	0.290593	-0.300130	0.205373
N206	N	0.790593	0.199870	0.705373
H207	H	1.032644	-0.513842	0.886855
H208	H	1.532644	-0.013842	1.386855
H209	H	1.056219	-0.744230	0.329254
H210	H	1.556219	-0.244230	0.829254
H211	H	0.915456	-0.991417	0.459031
H212	H	1.415456	-0.491417	0.959031
C213	C	0.932389	-1.153032	0.443488
C214	C	1.432389	-0.653032	0.943488
N215	N	0.900023	-1.187118	0.473323
N216	N	1.400023	-0.687118	0.973323
