data_functionalizedCrystal
_audit_creation_method	'MofGen! by Chris Wilmer'
_symmetry_space_group_name_H-M	'P1'
_symmetry_Int_Tables_number	1
_symmetry_cell_setting	triclinic
loop_
_symmetry_equiv_pos_as_xyz
  x,y,z
_cell_length_a	14.853566
_cell_length_b	17.038272
_cell_length_c	13.930277
_cell_angle_alpha	89.995405
_cell_angle_beta	89.995631
_cell_angle_gamma	87.372985
loop_
_atom_site_label
_atom_site_type_symbol
_atom_site_fract_x
_atom_site_fract_y
_atom_site_fract_z
O1	O	1.204051	0.102081	-0.079768
O2	O	0.942507	0.114243	-0.079784
O3	O	1.071724	-0.005655	-0.079769
O4	O	1.074833	0.221980	-0.079784
O5	O	1.071705	-0.005658	0.079893
O6	O	0.942487	0.114241	0.079878
O7	O	1.204032	0.102079	0.079894
Zn8	Zn	1.073256	0.108159	0.105236
Zn9	Zn	1.073282	0.108163	-0.105126
O10	O	1.074814	0.221977	0.079878
C11	C	0.908867	0.113691	0.000045
C12	C	0.808659	0.112040	0.000039
C13	C	0.384959	0.105059	-0.086975
C14	C	0.384959	0.105057	0.087094
C15	C	0.479110	0.106607	0.087091
C16	C	0.526189	0.107385	0.000054
C17	C	0.479118	0.106612	-0.086981
C18	C	0.526188	0.107388	0.174124
C19	C	0.620344	0.108939	0.174125
C20	C	0.667426	0.109711	0.087086
C21	C	0.620349	0.108937	0.000048
C22	C	0.667428	0.109715	-0.086990
C23	C	0.620353	0.108935	-0.174029
C24	C	0.526200	0.107384	-0.174020
C25	C	0.761579	0.111263	0.087077
C26	C	0.761588	0.111267	-0.086996
C27	C	1.068887	-0.034788	0.000062
C28	C	1.060451	-0.121592	0.000061
C29	C	1.137904	-0.171605	0.000067
C30	C	1.129972	-0.253166	0.000057
C31	C	1.044586	-0.284713	0.000049
C32	C	0.967127	-0.234694	0.000040
C33	C	0.975060	-0.153134	0.000043
C34	C	1.016561	-0.530507	0.000034
C35	C	1.008634	-0.612073	0.000034
C36	C	1.171480	-0.630540	0.000050
C37	C	1.179405	-0.548978	0.000058
C38	C	1.101946	-0.498966	0.000044
C39	C	1.036476	-0.368081	0.000042
C40	C	1.110057	-0.415600	0.000044
C41	C	1.237671	0.102631	0.000063
C42	C	1.337879	0.104282	0.000062
C43	C	1.077651	0.251110	0.000045
C44	C	1.086087	0.337914	0.000040
N45	N	1.073245	0.108156	0.248802
N46	N	1.073299	0.108159	-0.248692
C47	C	1.016060	0.161233	0.701064
C48	C	1.130528	0.055086	0.701047
C49	C	1.130517	0.055084	0.600551
C50	C	1.073278	0.108157	0.550307
C51	C	1.016050	0.161233	0.600559
C52	C	1.187751	0.002014	0.550292
C53	C	1.187743	0.002010	0.449790
C54	C	1.130498	0.055081	0.399544
C55	C	1.073267	0.108158	0.449802
C56	C	1.016028	0.161232	0.399558
C57	C	0.958791	0.214306	0.449814
C58	C	0.958805	0.214304	0.550313
C59	C	1.130485	0.055083	0.299046
C60	C	1.016017	0.161232	0.299053
H61	H	0.346627	0.104421	-0.157840
H62	H	1.234358	-0.041193	0.591204
Cl63	Cl	0.859784	-0.274352	0.000018
Cl64	Cl	0.820754	0.112248	0.196488
H65	H	0.912191	0.257522	0.408894
Cl66	Cl	1.227347	-0.316036	0.000067
Cl67	Cl	0.929137	-0.407747	0.000027
H68	H	1.177135	0.011879	0.741959
Cl69	Cl	0.820766	0.112239	-0.196421
Cl70	Cl	0.325772	0.104088	0.196507
H71	H	1.207435	-0.145927	0.000080
H72	H	0.487848	0.106760	0.244985
Cl73	Cl	0.944105	0.227949	0.764238
H74	H	1.179578	-0.389911	0.000030
H75	H	0.939099	-0.637754	0.000043
H76	H	1.177090	0.011874	0.258132
H77	H	1.234347	-0.041206	0.408878
H78	H	0.658697	0.109574	-0.244895
H79	H	1.248935	-0.523300	0.000065
H80	H	0.969402	0.204449	0.258151
Cl81	Cl	0.877686	-0.090260	0.000032
Cl82	Cl	0.886860	0.281023	0.613494
H83	H	0.487863	0.106748	-0.244882
Cl84	Cl	1.268850	-0.693416	0.000064
H85	H	0.953488	-0.489797	0.000023
Cl86	Cl	0.679515	0.109916	0.283543
