data_functionalizedCrystal
_audit_creation_method	'MofGen! by Chris Wilmer'
_symmetry_space_group_name_H-M	'P1'
_symmetry_Int_Tables_number	1
_symmetry_cell_setting	triclinic
loop_
_symmetry_equiv_pos_as_xyz
  x,y,z
_cell_length_a	21.606444
_cell_length_b	14.560438
_cell_length_c	21.606444
_cell_angle_alpha	119.999593
_cell_angle_beta	89.999234
_cell_angle_gamma	60.000721
loop_
_atom_site_label
_atom_site_type_symbol
_atom_site_fract_x
_atom_site_fract_y
_atom_site_fract_z
Zr1	Zr	0.596218	1.005318	0.081232
O2	O	0.497391	1.196919	0.180052
O3	O	0.626514	0.813717	0.050939
O4	O	0.626508	1.005326	0.180060
O5	O	0.497402	1.005303	-0.050922
O6	O	0.728358	1.005333	0.180063
O7	O	0.497397	1.005310	0.050932
O8	O	0.728369	0.662579	-0.050909
O9	O	0.497391	1.348057	0.180051
O10	O	0.715444	0.892530	0.038021
O11	O	0.639439	0.892521	-0.037994
O12	O	0.639432	1.118115	0.114028
O13	O	0.563426	1.118106	0.038013
Zr14	Zr	0.758665	1.005318	-0.081208
Zr15	Zr	0.758657	1.005328	0.081238
Zr16	Zr	0.596226	1.005308	-0.081214
Zr17	Zr	0.596219	1.246366	0.081229
Zr18	Zr	0.758665	0.764270	-0.081205
O19	O	0.728369	1.196919	-0.050916
O20	O	0.728358	1.196933	0.180061
O21	O	0.497403	1.196904	-0.050924
O22	O	0.857492	0.813717	-0.180029
O23	O	0.857481	0.813732	0.050948
O24	O	0.626526	0.813703	-0.180037
O25	O	0.857481	1.005333	0.050945
O26	O	0.728376	1.005310	-0.180036
O27	O	0.626526	1.005303	-0.180040
O28	O	0.857486	1.005326	-0.050909
O29	O	0.626508	1.348065	0.180055
O30	O	0.728375	0.662571	-0.180032
O31	O	0.857492	0.662579	-0.180027
O32	O	0.857486	0.662588	-0.050904
O33	O	0.497398	1.348048	0.050928
O34	O	0.626515	1.348057	0.050933
O35	O	0.715452	0.892521	-0.114004
O36	O	0.791457	0.892530	-0.037989
O37	O	0.715445	1.118115	0.038018
O38	O	0.639439	1.118106	-0.037997
C39	C	0.677441	0.703804	0.000016
C40	C	0.677441	0.601473	0.000017
C41	C	0.474256	1.005305	0.000004
C42	C	0.405296	1.005301	0.000002
C43	C	0.717114	0.553402	0.039696
C44	C	0.717117	0.457243	0.039689
C45	C	0.637769	0.457238	-0.039678
C46	C	0.637770	0.553389	-0.039674
C47	C	0.412575	0.887548	-0.039670
C48	C	0.347778	0.887552	-0.039671
C49	C	0.275703	1.005309	0.000005
C50	C	0.268425	1.123071	0.039679
C51	C	0.333222	1.123066	0.039675
C52	C	0.007107	1.123093	0.039696
C53	C	-0.057691	1.123089	0.039699
C54	C	0.021663	0.887580	-0.039650
C55	C	0.086460	0.887575	-0.039654
C56	C	0.079177	1.005335	0.000016
C57	C	0.149438	1.005330	0.000015
C58	C	0.205442	1.005316	0.000011
C59	C	0.880628	1.005331	0.000019
C60	C	0.949587	1.005335	0.000022
C61	C	0.677432	1.005331	0.203206
C62	C	0.677428	1.005335	0.272169
C63	C	0.677442	1.306832	0.000008
C64	C	0.677442	1.409163	0.000007
C65	C	0.637750	1.123088	0.344242
C66	C	0.637757	1.123084	0.409037
C67	C	0.677437	1.005327	0.401757
C68	C	0.717121	0.887565	0.329676
C69	C	0.717118	0.887570	0.264883
C70	C	0.717133	0.887543	0.590979
C71	C	0.717131	0.887547	0.655780
C72	C	0.637772	1.123056	0.735133
C73	C	0.637769	1.123061	0.670340
C74	C	0.677455	1.005301	0.598265
C75	C	0.677449	1.005306	0.528008
C76	C	0.677440	1.005320	0.472013
C77	C	0.677452	1.005305	0.796817
C78	C	0.677456	1.005301	0.727855
C79	C	0.880627	0.703817	0.000023
C80	C	0.949587	0.601491	0.000027
C81	C	0.677451	0.703791	-0.203179
C82	C	0.677455	0.601456	-0.272140
C83	C	0.880637	0.703804	-0.203172
C84	C	0.949600	0.601473	-0.272130
C85	C	0.474246	1.306832	0.203195
C86	C	0.405283	1.409163	0.272154
C87	C	0.474256	1.306819	0.000001
C88	C	0.405297	1.409145	-0.000003
C89	C	0.677432	1.306845	0.203203
C90	C	0.677429	1.409180	0.272164
C91	C	0.942292	0.553437	0.039712
C92	C	1.007081	0.457303	0.039730
C93	C	1.079163	0.409219	0.000059
C94	C	1.086455	0.457282	-0.039627
C95	C	1.021667	0.553420	-0.039641
C96	C	0.717134	0.553398	-0.344208
C97	C	0.717134	0.457257	-0.409011
C98	C	0.677459	0.409168	-0.401743
C99	C	0.637775	0.457235	-0.329668
C100	C	0.637770	0.553382	-0.264867
C101	C	1.021667	0.553423	-0.264835
C102	C	1.086471	0.457285	-0.329622
C103	C	1.079206	0.409193	-0.401705
C104	C	1.007132	0.457254	-0.408999
C105	C	0.942330	0.553396	-0.344212
C106	C	0.333217	1.457225	0.264858
C107	C	0.268413	1.553393	0.329646
C108	C	0.275677	1.601489	0.401729
C109	C	0.347751	1.553423	0.409023
C110	C	0.412554	1.457264	0.344236
C111	C	0.412591	1.457209	-0.039681
C112	C	0.347803	1.553369	-0.039682
C113	C	0.275721	1.601457	-0.000009
C114	C	0.268428	1.553389	0.039674
C115	C	0.333216	1.457238	0.039679
C116	C	0.717112	1.457238	0.264872
C117	C	0.717124	1.553381	0.329662
C118	C	0.677447	1.601469	0.401743
C119	C	0.637763	1.553402	0.409033
C120	C	0.637756	1.457255	0.344244
H121	H	0.749417	0.592548	0.072014
H122	H	0.001168	1.218981	0.072011
H123	H	0.749453	0.418131	-0.467691
H124	H	0.605469	0.418077	-0.071992
H125	H	0.353657	1.592596	0.467720
O126	O	0.864554	0.605295	0.082514
H127	H	0.820719	0.680219	0.075841
H128	H	0.605460	1.592571	0.467730
H129	H	0.605472	0.418067	-0.323762
O130	O	0.190681	1.605202	0.321771
H131	H	0.196524	1.555574	0.260762
O132	O	0.164197	0.760563	-0.082443
H133	H	0.195620	0.754928	-0.126296
O134	O	1.149107	0.305485	-0.471578
H135	H	1.149067	0.217870	-0.505791
O136	O	0.999301	0.405361	-0.486747
H137	H	1.056474	0.330421	-0.530565
O138	O	1.149039	0.305516	0.000070
H139	H	1.131850	0.280177	0.034326
O140	O	0.864600	0.605193	-0.352084
H141	H	0.870444	0.555577	-0.413094
O142	O	0.205780	1.705218	0.471605
H143	H	0.154450	1.730549	0.454414
O144	O	0.325345	1.405388	0.082469
H145	H	0.264336	1.454977	0.110046
H146	H	1.145153	0.418118	-0.071925
H147	H	1.027596	0.592565	-0.206147
H148	H	0.749434	0.791686	0.323753
H149	H	0.605454	1.218951	0.676275
H150	H	0.605461	0.592498	-0.206188
O151	O	0.355681	1.605178	-0.082500
H152	H	0.328078	1.711238	-0.042454
H153	H	0.677459	1.679759	0.454493
O154	O	0.325373	1.405367	0.187116
H155	H	0.264369	1.454968	0.192940
O156	O	0.490283	1.405410	0.352108
H157	H	0.484439	1.455005	0.413117
H158	H	0.471278	1.418063	-0.071993
O159	O	1.029538	0.605228	-0.082459
H160	H	1.090547	0.555621	-0.110047
O161	O	0.594975	0.605253	-0.082470
H162	H	0.567379	0.555681	-0.110060
H163	H	0.222973	1.679750	-0.000019
H164	H	0.027587	0.791693	-0.071953
H165	H	0.749423	0.418104	0.071998
H166	H	1.001128	0.418182	0.072047
H167	H	-0.116379	1.218987	0.072009
O168	O	0.190681	1.605260	0.082464
H169	H	0.146863	1.680185	0.075783
H170	H	0.749421	1.418099	0.206186
H171	H	1.145151	0.418164	-0.323670
H172	H	0.605438	1.418137	0.350191
O173	O	0.759925	1.605219	0.321792
H174	H	0.787500	1.555636	0.260784
O175	O	0.677480	0.305444	-0.471639
H176	H	0.711750	0.280098	-0.522970
H177	H	0.353711	0.791666	-0.071977
O178	O	0.490313	0.760538	-0.082464
H179	H	0.484485	0.678659	-0.110057
H180	H	0.327291	1.218952	0.071970
O181	O	0.190685	1.250077	0.082475
H182	H	0.184089	1.306539	0.059539
O183	O	0.594947	1.250097	0.352095
H184	H	0.617879	1.306563	0.383551
O185	O	0.594961	1.250088	0.486775
H186	H	0.533977	1.306542	0.493369
O187	O	0.594982	1.250072	0.812876
H188	H	0.551136	1.255701	0.844303
O189	O	0.759956	0.760533	0.647930
H190	H	0.787566	0.678646	0.586926
H191	H	0.749428	0.791684	0.206197
O192	O	0.759925	0.760537	0.513246
H193	H	0.787508	0.678657	0.519072
H194	H	0.749443	0.592541	-0.350140
