data_functionalizedCrystal
_audit_creation_method	'MofGen! by Chris Wilmer'
_symmetry_space_group_name_H-M	'P1'
_symmetry_Int_Tables_number	1
_symmetry_cell_setting	triclinic
loop_
_symmetry_equiv_pos_as_xyz
  x,y,z
_cell_length_a	15.299816
_cell_length_b	15.297621
_cell_length_c	15.296720
_cell_angle_alpha	88.384271
_cell_angle_beta	110.757046
_cell_angle_gamma	107.350006
loop_
_atom_site_label
_atom_site_type_symbol
_atom_site_fract_x
_atom_site_fract_y
_atom_site_fract_z
Zn1	Zn	-0.745339	-1.356907	-0.873641
Zn2	Zn	-0.883232	-1.401320	-0.754355
Zn3	Zn	-0.691537	-1.228313	-0.691267
Zn4	Zn	-0.873813	-1.228239	-0.873621
O5	O	-0.798480	-1.303695	-0.798221
O6	O	-0.790089	-1.489050	-0.884229
O7	O	-0.839229	-1.396988	-0.619749
O8	O	-0.564683	-1.226816	-0.689066
O9	O	-0.891398	-1.521680	-0.796590
O10	O	-0.604210	-1.321293	-0.823055
O11	O	-0.698392	-1.269881	-0.573398
O12	O	-0.689259	-1.102052	-0.689046
O13	O	-0.875345	-1.226689	-0.999861
O14	O	-0.823176	-1.101997	-0.823020
O15	O	-0.780956	-1.321221	-0.999876
O16	O	-1.015974	-1.396916	-0.796570
O17	O	-1.009054	-1.269754	-0.884194
C18	C	-0.749358	-1.069289	-0.749185
C19	C	-0.728369	-0.969009	-0.728234
C20	C	-0.948451	-0.686429	-0.947922
C21	C	-0.968178	-0.780648	-0.967606
C22	C	-0.908227	-0.827743	-0.907765
C23	C	-0.828547	-0.780609	-0.828236
C24	C	-0.808823	-0.686382	-0.808546
C25	C	-0.768599	-0.827696	-0.768389
C26	C	-0.688918	-0.780562	-0.688859
C27	C	-0.669198	-0.686344	-0.669173
C28	C	-0.729148	-0.639250	-0.729015
C29	C	-0.788323	-0.921923	-0.788079
C30	C	-0.648694	-0.921876	-0.648702
C31	C	-0.628968	-0.827657	-0.629018
C32	C	-1.047265	-1.338168	-0.847250
C33	C	-1.153718	-1.352994	-0.868272
C34	C	-1.371798	-1.198278	-0.648402
C35	C	-1.271779	-1.184343	-0.628652
C36	C	-1.242259	-1.226505	-0.688555
C37	C	-1.312767	-1.282603	-0.768212
C38	C	-1.412795	-1.296533	-0.787968
C39	C	-1.283256	-1.324761	-0.828121
C40	C	-1.353764	-1.380859	-0.907779
C41	C	-1.453781	-1.394787	-0.927531
C42	C	-1.483302	-1.352625	-0.867628
C43	C	-1.183228	-1.310830	-0.808365
C44	C	-1.224225	-1.409086	-0.947932
C45	C	-1.324243	-1.423021	-0.967682
C46	C	-0.548732	-1.269108	-0.749025
C47	C	-0.442305	-1.254370	-0.728061
C48	C	-0.833101	-1.268992	-1.033516
C49	C	-0.847854	-1.254204	-1.133784
C50	C	-0.847787	-0.539016	-0.847440
C51	C	-0.868777	-0.639296	-0.868391
C52	C	-0.692876	-1.409398	-1.416459
C53	C	-0.679017	-1.423298	-1.322254
C54	C	-0.721225	-1.381026	-1.275132
C55	C	-0.777294	-1.324851	-1.322225
C56	C	-0.791161	-1.310955	-1.416442
C57	C	-0.819510	-1.282583	-1.275114
C58	C	-0.875579	-1.226408	-1.322207
C59	C	-0.889442	-1.212515	-1.416415
C60	C	-0.847235	-1.254787	-1.463537
C61	C	-0.805643	-1.296479	-1.180897
C62	C	-0.903928	-1.198036	-1.180879
C63	C	-0.917787	-1.184136	-1.275085
C64	C	-0.763936	-1.338304	-0.563839
C65	C	-0.748950	-1.353230	-0.463554
H66	H	-0.564091	-0.789267	-0.564265
O67	O	-1.392772	-1.477367	-1.045140
C68	C	-1.448460	-1.425427	-1.104019
H69	H	-1.404296	-1.349365	-1.088729
H70	H	-1.519522	-1.437007	-1.090443
C71	C	-1.527198	-1.549214	-1.226109
C72	C	-1.472952	-1.455795	-1.207335
H73	H	-1.542310	-1.567949	-1.289839
H74	H	-1.489683	-1.584209	-1.186440
H75	H	-1.586410	-1.558853	-1.214789
H76	H	-1.413736	-1.446160	-1.218644
H77	H	-1.510458	-1.420799	-1.247009
H78	H	-0.997259	-0.648078	-0.996632
O79	O	-0.709858	-0.547691	-0.709948
C80	C	-0.614958	-0.500047	-0.708576
H81	H	-0.592585	-0.543060	-0.751512
H82	H	-0.560481	-0.486944	-0.633079
C83	C	-0.642585	-0.354770	-0.698324
C84	C	-0.615110	-0.407596	-0.751066
H85	H	-0.642676	-0.297740	-0.724530
H86	H	-0.706520	-0.386868	-0.699245
H87	H	-0.597184	-0.343861	-0.635414
H88	H	-0.660517	-0.418514	-0.813972
H89	H	-0.551182	-0.375498	-0.750157
O90	O	-0.591853	-0.640701	-0.591811
C91	C	-0.604247	-0.679862	-0.510787
H92	H	-0.655104	-0.753654	-0.530434
H93	H	-0.637839	-0.638141	-0.478928
C94	C	-0.441245	-0.588685	-0.414646
C95	C	-0.503702	-0.679320	-0.438776
H96	H	-0.379225	-0.588347	-0.370223
H97	H	-0.432896	-0.562298	-0.469232
H98	H	-0.469250	-0.553927	-0.388102
H99	H	-0.475703	-0.714073	-0.465329
H100	H	-0.512044	-0.705713	-0.384192
H101	H	-0.963439	-1.138397	-1.313441
O102	O	-0.865805	-0.967775	-0.865231
C103	C	-0.931393	-1.038435	-0.837341
H104	H	-0.920790	-1.021315	-0.761489
H105	H	-0.916281	-1.106190	-0.843370
C106	C	-1.050800	-1.068248	-0.994361
C107	C	-1.037782	-1.047218	-0.901199
H108	H	-1.116425	-1.073670	-1.033753
H109	H	-1.006611	-1.020645	-1.013152
H110	H	-1.038200	-1.124708	-0.999371
H111	H	-1.050370	-0.990753	-0.896188
H112	H	-1.081976	-1.094811	-0.882409
O113	O	-1.522300	-1.449139	-1.004990
C114	C	-1.577993	-1.397212	-1.063884
H115	H	-1.533840	-1.321147	-1.048597
H116	H	-1.649064	-1.408801	-1.050321
C117	C	-1.656696	-1.521008	-1.185964
C118	C	-1.602463	-1.427585	-1.167194
H119	H	-1.671795	-1.539745	-1.249690
H120	H	-1.619178	-1.555995	-1.146285
H121	H	-1.715915	-1.530654	-1.174655
H122	H	-1.543240	-1.417942	-1.178491
H123	H	-1.639972	-1.392597	-1.206877
H124	H	-0.938299	-1.163616	-1.142513
H125	H	-0.599879	-0.960221	-0.599973
O126	O	-0.860874	-1.241315	-1.555087
C127	C	-0.962126	-1.272573	-1.609495
H128	H	-1.006065	-1.272804	-1.562847
H129	H	-0.982301	-1.345248	-1.642269
C130	C	-0.932156	-1.207949	-1.744961
C131	C	-0.986122	-1.208226	-1.687669
H132	H	-0.946958	-1.168260	-1.793185
H133	H	-0.863939	-1.186893	-1.708307
H134	H	-0.948973	-1.268516	-1.772264
H135	H	-0.969295	-1.147663	-1.660358
H136	H	-1.054336	-1.229270	-1.724320
O137	O	-1.195394	-1.450010	-1.006007
C138	C	-1.091993	-1.425670	-0.971501
H139	H	-1.061966	-1.404556	-0.893003
H140	H	-1.061421	-1.365745	-1.009308
C141	C	-1.097780	-1.534485	-1.085187
C142	C	-1.060901	-1.508560	-0.988773
H143	H	-1.078600	-1.585613	-1.095845
H144	H	-1.167444	-1.550881	-1.108438
H145	H	-1.072300	-1.484541	-1.116682
H146	H	-1.086391	-1.558500	-0.957282
H147	H	-0.991241	-1.492174	-0.965518
H148	H	-0.924293	-0.904461	-0.923797
O149	O	-1.203381	-1.129743	-0.551313
C150	C	-1.211930	-1.040320	-0.556993
H151	H	-1.289243	-1.043419	-0.605616
H152	H	-1.156088	-0.995217	-0.585862
C153	C	-1.097309	-0.995572	-0.398799
C154	C	-1.192268	-0.999380	-0.458513
H155	H	-1.085176	-0.970315	-0.338052
H156	H	-1.091546	-1.055817	-0.394972
H157	H	-1.050784	-0.957988	-0.422868
H158	H	-1.238791	-1.036972	-0.434449
H159	H	-1.198038	-0.939140	-0.462333
O160	O	-1.045585	-0.826283	-1.044917
C161	C	-1.094284	-0.764520	-1.093501
H162	H	-1.041477	-0.691449	-1.074925
H163	H	-1.159975	-0.769456	-1.072576
C164	C	-1.194935	-0.878841	-1.222744
C165	C	-1.130073	-0.789094	-1.199935
H166	H	-1.217016	-0.894001	-1.288397
H167	H	-1.162129	-0.920453	-1.190011
H168	H	-1.249669	-0.882943	-1.205300
H169	H	-1.075335	-0.784997	-1.217369
H170	H	-1.162872	-0.747482	-1.232673
O171	O	-0.651728	-1.450409	-1.462101
C172	C	-0.548773	-1.420859	-1.416183
H173	H	-0.529442	-1.395993	-1.340130
H174	H	-0.514608	-1.362188	-1.453153
C175	C	-0.532315	-1.531968	-1.512229
C176	C	-0.508573	-1.501433	-1.418817
H177	H	-0.507517	-1.581667	-1.513857
H178	H	-0.601678	-1.551874	-1.543168
H179	H	-0.503843	-1.483068	-1.543027
H180	H	-0.537055	-1.550330	-1.388024
H181	H	-0.439214	-1.481537	-1.387873
O182	O	-1.400591	-1.157279	-0.590358
C183	C	-1.453792	-1.099446	-0.640908
H184	H	-1.485426	-1.123204	-0.718889
H185	H	-1.402744	-1.025764	-0.629175
C186	C	-1.499275	-1.074533	-0.510858
C187	C	-1.538136	-1.103718	-0.606635
H188	H	-1.551299	-1.077163	-0.489714
H189	H	-1.463430	-1.113493	-0.476799
H190	H	-1.456736	-1.013133	-0.501092
H191	H	-1.580663	-1.165119	-0.616398
H192	H	-1.573990	-1.064768	-0.640694
H193	H	-1.125828	-1.265154	-0.743508
H194	H	-1.160818	-1.215157	-0.672469
H195	H	-1.564744	-1.363972	-0.883702
H196	H	-0.759990	-1.342216	-1.142562
H197	H	-0.709938	-1.392347	-1.198425
H198	H	-0.633369	-1.469038	-1.283918
H199	H	-0.935107	-1.166782	-1.454758
