data_functionalizedCrystal
_audit_creation_method	'MofGen! by Chris Wilmer'
_symmetry_space_group_name_H-M	'P1'
_symmetry_Int_Tables_number	1
_symmetry_cell_setting	triclinic
loop_
_symmetry_equiv_pos_as_xyz
  x,y,z
_cell_length_a	25.639242
_cell_length_b	25.639239
_cell_length_c	25.639233
_cell_angle_alpha	89.981253
_cell_angle_beta	90.022166
_cell_angle_gamma	89.965787
loop_
_atom_site_label
_atom_site_type_symbol
_atom_site_fract_x
_atom_site_fract_y
_atom_site_fract_z
Zn1	Zn	0.799225	0.208277	0.295742
Zn2	Zn	1.299225	0.708277	0.795742
Zn3	Zn	0.799149	0.295696	0.208307
Zn4	Zn	1.299149	0.795696	0.708307
Zn5	Zn	0.711801	0.208269	0.208306
Zn6	Zn	1.211801	0.708269	0.708306
Zn7	Zn	0.711746	0.295676	0.295696
Zn8	Zn	1.211746	0.795676	0.795696
O9	O	0.755480	0.251979	0.252013
O10	O	1.255480	0.751979	0.752013
O11	O	0.872380	0.219884	0.284163
O12	O	1.372380	0.719884	0.784163
O13	O	0.787553	0.284103	0.135141
O14	O	1.287553	0.784103	0.635141
O15	O	0.723453	0.135105	0.219924
O16	O	1.223453	0.635105	0.719924
O17	O	0.872324	0.284111	0.219924
O18	O	1.372324	0.784111	0.719924
O19	O	0.787683	0.135111	0.284163
O20	O	1.287683	0.635111	0.784163
O21	O	0.723379	0.219871	0.135141
O22	O	1.223379	0.719871	0.635141
O23	O	0.638629	0.219853	0.219880
O24	O	1.138629	0.719853	0.719880
O25	O	0.723360	0.284078	0.368868
O26	O	1.223360	0.784078	0.868868
O27	O	0.638589	0.284070	0.284085
O28	O	1.138589	0.784070	0.784085
O29	O	0.787630	0.219866	0.368901
O30	O	1.287630	0.719866	0.868901
O31	O	0.787499	0.368858	0.219880
O32	O	1.287499	0.868858	0.719880
O33	O	0.723286	0.368844	0.284085
O34	O	1.223286	0.868844	0.784085
C35	C	0.619638	0.251959	0.251977
C36	C	1.119638	0.751959	0.751977
C37	C	0.561524	0.251963	0.251975
C38	C	1.061524	0.751963	0.751975
C39	C	0.755392	0.387822	0.251989
C40	C	1.255392	0.887822	0.751989
C41	C	0.755403	0.445936	0.251996
C42	C	1.255403	0.945936	0.751996
C43	C	0.201149	0.285473	0.285413
C44	C	0.701149	0.785473	0.785413
C45	C	0.146544	0.285477	0.285421
C46	C	0.646544	0.785477	0.785421
O47	O	0.118297	0.313943	0.313821
O48	O	0.618297	0.813943	0.813821
N49	N	0.119241	0.251994	0.252047
N50	N	0.619241	0.751994	0.752047
C51	C	0.146545	0.218502	0.218666
C52	C	0.646545	0.718502	0.718666
O53	O	0.118308	0.190022	0.190280
O54	O	0.618308	0.690022	0.690280
C55	C	0.201149	0.218496	0.218661
C56	C	0.701149	0.718496	0.718661
C57	C	0.228449	0.251985	0.252034
C58	C	0.728449	0.751985	0.752034
C59	C	0.228449	0.318959	0.318783
C60	C	0.728449	0.818959	0.818783
C61	C	0.283049	0.318956	0.318774
C62	C	0.783049	0.818956	0.818774
C63	C	0.310350	0.285468	0.285395
C64	C	0.810350	0.785468	0.785395
C65	C	0.283049	0.251983	0.252024
C66	C	0.783049	0.751983	0.752024
C67	C	0.228452	0.185002	0.185283
C68	C	0.728452	0.685002	0.685283
C69	C	0.283059	0.185000	0.185281
C70	C	0.783059	0.685000	0.685281
C71	C	0.310359	0.218488	0.218654
C72	C	0.810359	0.718488	0.718654
C73	C	0.364950	0.218492	0.218636
C74	C	0.864950	0.718492	0.718636
N75	N	0.392253	0.251974	0.252010
N76	N	0.892253	0.751974	0.752010
C77	C	0.364953	0.285463	0.285389
C78	C	0.864953	0.785463	0.785389
C79	C	0.031875	0.218515	0.218680
C80	C	0.531875	0.718515	0.718680
C81	C	-0.022728	0.218523	0.218683
C82	C	0.477272	0.718523	0.718683
C83	C	-0.022725	0.285497	0.285438
C84	C	0.477275	0.785497	0.785438
C85	C	0.031878	0.285492	0.285433
C86	C	0.531878	0.785492	0.785433
C87	C	0.059178	0.251998	0.252054
C88	C	0.559178	0.751998	0.752054
C89	C	0.479618	0.285455	0.285368
C90	C	0.979618	0.785455	0.785368
C91	C	0.534223	0.285451	0.285354
C92	C	1.034223	0.785451	0.785354
C93	C	0.534216	0.218475	0.218601
C94	C	1.034216	0.718475	0.718601
C95	C	0.479615	0.218481	0.218612
C96	C	0.979615	0.718481	0.718612
C97	C	0.452318	0.251972	0.252000
C98	C	0.952318	0.751972	0.752000
O99	O	0.393232	0.190038	0.190252
O100	O	0.893232	0.690038	0.690252
O101	O	0.393197	0.313933	0.313776
O102	O	0.893197	0.813933	0.813776
C103	C	0.755497	0.251970	0.388386
C104	C	1.255497	0.751970	0.888386
C105	C	0.755504	0.251966	0.446500
C106	C	1.255504	0.751966	0.946500
C107	C	0.891853	0.252000	0.252049
C108	C	1.391853	0.752000	0.752049
C109	C	0.949967	0.252009	0.252064
C110	C	1.449967	0.752009	0.752064
C111	C	0.755583	0.115606	0.252048
C112	C	1.255583	0.615606	0.752048
C113	C	0.755627	0.057492	0.252064
C114	C	1.255627	0.557492	0.752064
C115	C	0.789004	0.806294	0.218638
C116	C	1.289004	1.306294	0.718638
C117	C	0.789024	0.860898	0.218645
C118	C	1.289024	1.360898	0.718645
O119	O	0.817502	0.889131	0.190257
O120	O	1.317502	1.389131	0.690257
N121	N	0.755572	0.888218	0.252048
N122	N	1.255572	1.388218	0.752048
C123	C	0.722102	0.860932	0.285449
C124	C	1.222102	1.360932	0.785449
O125	O	0.693651	0.889184	0.313861
O126	O	1.193651	1.389184	0.813861
C127	C	0.722085	0.806328	0.285444
C128	C	1.222085	1.306328	0.785444
C129	C	0.755535	0.779011	0.252036
C130	C	1.255535	1.279011	0.752036
C131	C	0.822452	0.778976	0.185233
C132	C	1.322452	1.278976	0.685233
C133	C	0.822431	0.724376	0.185226
C134	C	1.322431	1.224376	0.685226
C135	C	0.788962	0.697093	0.218623
C136	C	1.288962	1.197093	0.718623
C137	C	0.755514	0.724410	0.252028
C138	C	1.255514	1.224410	0.752028
C139	C	0.688617	0.779042	0.318847
C140	C	1.188617	1.279042	0.818847
C141	C	0.688603	0.724435	0.318840
C142	C	1.188603	1.224435	0.818840
C143	C	0.722053	0.697118	0.285432
C144	C	1.222053	1.197118	0.785432
C145	C	0.722024	0.642527	0.285418
C146	C	1.222024	1.142527	0.785418
N147	N	0.755475	0.615206	0.252016
N148	N	1.255475	1.115206	0.752016
C149	C	0.788944	0.642490	0.218618
C150	C	1.288944	1.142490	0.718618
C151	C	0.722141	0.975602	0.285457
C152	C	1.222141	1.475602	0.785457
C153	C	0.722155	1.030204	0.285459
C154	C	1.222155	1.530204	0.785459
C155	C	0.789078	1.030167	0.218656
C156	C	1.289078	1.530167	0.718656
C157	C	0.789061	0.975564	0.218652
C158	C	1.289061	1.475564	0.718652
C159	C	0.755593	0.948282	0.252055
C160	C	1.255593	1.448282	0.752055
C161	C	0.788897	0.527824	0.218605
C162	C	1.288897	1.027824	0.718605
C163	C	0.788872	0.473219	0.218599
C164	C	1.288872	0.973219	0.718599
C165	C	0.721951	0.473261	0.285403
C166	C	1.221951	0.973261	0.785403
C167	C	0.721974	0.527862	0.285408
C168	C	1.221974	1.027862	0.785408
C169	C	0.755452	0.555142	0.252007
C170	C	1.255452	1.055142	0.752007
O171	O	0.693562	0.614260	0.313793
O172	O	1.193562	1.114260	0.813793
O173	O	0.817396	0.614231	0.190216
O174	O	1.317396	1.114231	0.690216
C175	C	0.755494	0.251951	0.116170
C176	C	1.255494	0.751951	0.616170
C177	C	0.755588	0.251807	0.058057
C178	C	1.255588	0.751807	0.558057
C179	C	0.789012	0.218432	0.806886
C180	C	1.289012	0.718432	1.306886
C181	C	0.789019	0.218417	0.861491
C182	C	1.289019	0.718417	1.361491
O183	O	0.817466	0.189967	0.889747
O184	O	1.317466	0.689967	1.389747
N185	N	0.755562	0.251844	0.888783
N186	N	1.255562	0.751844	1.388783
C187	C	0.722093	0.285283	0.861468
C188	C	1.222093	0.785283	1.361468
O189	O	0.693636	0.313713	0.889695
O190	O	1.193636	0.813713	1.389695
C191	C	0.722084	0.285294	0.806864
C192	C	1.222084	0.785294	1.306864
C193	C	0.755547	0.251870	0.779575
C194	C	1.255547	0.751870	1.279575
C195	C	0.822472	0.185009	0.779597
C196	C	1.322472	0.685009	1.279597
C197	C	0.822466	0.185025	0.724997
C198	C	1.322466	0.685025	1.224997
C199	C	0.789000	0.218462	0.697685
C200	C	1.289000	0.718462	1.197685
C201	C	0.755541	0.251885	0.724974
C202	C	1.255541	0.751885	1.224974
C203	C	0.688613	0.318731	0.779550
C204	C	1.188613	0.818731	1.279550
C205	C	0.688607	0.318739	0.724943
C206	C	1.188607	0.818739	1.224943
C207	C	0.722069	0.285314	0.697654
C208	C	1.222069	0.785314	1.197654
C209	C	0.722070	0.285338	0.643063
C210	C	1.222070	0.785338	1.143063
N211	N	0.755526	0.251912	0.615771
N212	N	1.255526	0.751912	1.115771
C213	C	0.788992	0.218474	0.643082
C214	C	1.288992	0.718474	1.143082
C215	C	0.722113	0.285256	0.976138
C216	C	1.222113	0.785256	1.476138
C217	C	0.722124	0.285247	1.030741
C218	C	1.222124	0.785247	1.530741
C219	C	0.789049	0.218381	1.030760
C220	C	1.289049	0.718381	1.530760
C221	C	0.789041	0.218392	0.976157
C222	C	1.289041	0.718392	1.476157
C223	C	0.755570	0.251829	0.948846
C224	C	1.255570	0.751829	1.448846
C225	C	0.788977	0.218509	0.528417
C226	C	1.288977	0.718509	1.028417
C227	C	0.788970	0.218529	0.473811
C228	C	1.288970	0.718529	0.973811
C229	C	0.722043	0.285393	0.473797
C230	C	1.222043	0.785393	0.973797
C231	C	0.722052	0.285375	0.528397
C232	C	1.222052	0.785375	1.028397
C233	C	0.755521	0.251929	0.555706
C234	C	1.255521	0.751929	1.055706
O235	O	0.693635	0.313773	0.614771
O236	O	1.193635	0.813773	1.114771
O237	O	0.817439	0.190044	0.614847
O238	O	1.317439	0.690044	1.114847
H239	H	0.457399	0.312726	0.312556
H240	H	0.957399	0.812726	0.812556
O241	O	0.202022	0.152419	0.152851
O242	O	0.702022	0.652419	0.652851
C243	C	0.207806	0.086001	0.086628
C244	C	0.707806	0.586001	0.586628
C245	C	0.237801	0.122870	0.123341
C246	C	0.737801	0.622870	0.623341
H247	H	0.236721	0.062109	0.062751
H248	H	0.736721	0.562109	0.562751
H249	H	0.182286	0.058664	0.110661
H250	H	0.682286	0.558664	0.610661
H251	H	0.182200	0.109966	0.059265
H252	H	0.682200	0.609966	0.559265
H253	H	0.263436	0.098948	0.150711
H254	H	0.763436	0.598948	0.650711
H255	H	0.263289	0.150209	0.099274
H256	H	0.763289	0.650209	0.599274
O257	O	0.689603	1.056761	0.317834
O258	O	1.189603	1.556761	0.817834
C259	C	0.619049	1.118494	0.324809
C260	C	1.119049	1.618494	0.824809
C261	C	0.655871	1.088445	0.288081
C262	C	1.155871	1.588445	0.788081
H263	H	0.591774	1.144125	0.300769
H264	H	1.091774	1.644125	0.800769
H265	H	0.595087	1.089633	0.348667
H266	H	1.095087	1.589633	0.848667
H267	H	0.643054	1.143998	0.352189
H268	H	1.143054	1.643998	0.852189
H269	H	0.631906	1.062940	0.260669
H270	H	1.131906	1.562940	0.760669
H271	H	0.679834	1.117334	0.264260
H272	H	1.179834	1.617334	0.764260
O273	O	0.689490	0.446672	0.317828
O274	O	1.189490	0.946672	0.817828
C275	C	0.659793	0.362562	0.347400
C276	C	1.159793	0.862562	0.847400
C277	C	0.696585	0.392610	0.310657
C278	C	1.196585	0.892610	0.810657
H279	H	0.665508	0.318848	0.341607
H280	H	1.165508	0.818848	0.841607
H281	H	0.668953	0.373229	0.389581
H282	H	1.168953	0.873229	0.889581
H283	H	0.617647	0.373369	0.338186
H284	H	1.117647	0.873369	0.838186
H285	H	0.738743	0.381819	0.319825
H286	H	1.238743	0.881819	0.819825
H287	H	0.687380	0.381940	0.268487
H288	H	1.187380	0.881940	0.768487
O289	O	0.821493	0.186007	0.447384
O290	O	1.321493	0.686007	0.947384
C291	C	0.887896	0.119706	0.453176
C292	C	1.387896	0.619706	0.953176
C293	C	0.851084	0.156500	0.483167
C294	C	1.351084	0.656500	0.983167
H295	H	0.911838	0.095847	0.482094
H296	H	1.411838	0.595847	0.982094
H297	H	0.863935	0.092335	0.427622
H298	H	1.363935	0.592335	0.927622
H299	H	0.915193	0.143729	0.427605
H300	H	1.415193	0.643729	0.927605
H301	H	0.823780	0.132519	0.508767
H302	H	1.323780	0.632519	1.008767
H303	H	0.875077	0.183873	0.508689
H304	H	1.375077	0.683873	1.008689
H305	H	0.054099	0.191241	0.191496
H306	H	0.554099	0.691241	0.691496
O307	O	0.854879	0.697763	0.152793
O308	O	1.354879	1.197763	0.652793
C309	C	0.884546	0.613636	0.123193
C310	C	1.384546	1.113636	0.623193
C311	C	0.847760	0.643705	0.159941
C312	C	1.347760	1.143705	0.659941
H313	H	0.878811	0.569925	0.128966
H314	H	1.378811	1.069925	0.628966
H315	H	0.875398	0.624363	0.081014
H316	H	1.375398	1.124363	0.581014
H317	H	0.926695	0.624365	0.132419
H318	H	1.426695	1.124365	0.632419
H319	H	0.805599	0.632992	0.150762
H320	H	1.305599	1.132992	0.650762
H321	H	0.856953	0.632976	0.202109
H322	H	1.356953	1.132976	0.702109
O323	O	0.821415	0.185965	0.554962
O324	O	1.321415	0.685965	1.054962
C325	C	0.828525	0.115374	0.616632
C326	C	1.328525	0.615374	1.116632
C327	C	0.791727	0.152185	0.586593
C328	C	1.291727	0.652185	1.086593
H329	H	0.804537	0.088061	0.642220
H330	H	1.304537	0.588061	1.142220
H331	H	0.852426	0.091454	0.587764
H332	H	1.352426	0.591454	1.087764
H333	H	0.855861	0.139386	0.642177
H334	H	1.355861	0.639386	1.142177
H335	H	0.764359	0.128213	0.561047
H336	H	1.264359	0.628213	1.061047
H337	H	0.767862	0.176106	0.615489
H338	H	1.267862	0.676106	1.115489
O339	O	0.855007	0.152598	0.806181
O340	O	1.355007	0.652598	1.306181
C341	C	0.925642	0.145558	0.867813
C342	C	1.425642	0.645558	1.367813
C343	C	0.888815	0.182322	0.837752
C344	C	1.388815	0.682322	1.337752
H345	H	0.952992	0.169576	0.893337
H346	H	1.452992	0.669576	1.393337
H347	H	0.901695	0.118214	0.893409
H348	H	1.401695	0.618214	1.393409
H349	H	0.949527	0.121662	0.838912
H350	H	1.449527	0.621662	1.338912
H351	H	0.864923	0.206252	0.866615
H352	H	1.364923	0.706252	1.366615
H353	H	0.912792	0.209631	0.812148
H354	H	1.412792	0.709631	1.312148
O355	O	0.689522	0.317772	0.554965
O356	O	1.189522	0.817772	1.054965
C357	C	0.618900	0.324768	0.616557
C358	C	1.118900	0.824768	1.116557
C359	C	0.655723	0.288025	0.586518
C360	C	1.155723	0.788025	1.086518
H361	H	0.591558	0.300732	0.642066
H362	H	1.091558	0.800732	1.142066
H363	H	0.642851	0.352097	0.642166
H364	H	1.142851	0.852097	1.142166
H365	H	0.595007	0.348680	0.587642
H366	H	1.095007	0.848680	1.087642
H367	H	0.679624	0.264079	0.615395
H368	H	1.179624	0.764079	1.115395
H369	H	0.631742	0.260731	0.560901
H370	H	1.131742	0.760731	1.060901
H371	H	0.849709	0.801185	0.158037
H372	H	1.349709	1.301185	0.658037
H373	H	0.816333	1.052391	0.191464
H374	H	1.316333	1.552391	0.691464
O375	O	0.821605	0.949111	0.186185
O376	O	1.321605	1.449111	0.686185
C377	C	0.887959	0.954852	0.119901
C378	C	1.387959	1.454852	0.619901
C379	C	0.851136	0.984871	0.156653
C380	C	1.351136	1.484871	0.656653
H381	H	0.911837	0.983751	0.096007
H382	H	1.411837	1.483751	0.596007
H383	H	0.915312	0.929269	0.143904
H384	H	1.415312	1.429269	0.643904
H385	H	0.863959	0.929307	0.092556
H386	H	1.363959	1.429307	0.592556
H387	H	0.875095	1.010445	0.184005
H388	H	1.375095	1.510445	0.684005
H389	H	0.823782	1.010422	0.132617
H390	H	1.323782	1.510422	0.632617
H391	H	0.849714	0.157806	0.702783
H392	H	1.349714	0.657806	1.202783
O393	O	0.453064	0.186024	0.186145
O394	O	0.953064	0.686024	0.686145
C395	C	0.391339	0.178863	0.115617
C396	C	0.891339	0.678863	0.615617
C397	C	0.421382	0.215688	0.152335
C398	C	0.921382	0.715688	0.652335
H399	H	0.365708	0.202831	0.088280
H400	H	0.865708	0.702831	0.588280
H401	H	0.420203	0.154932	0.091719
H402	H	0.920203	0.654932	0.591719
H403	H	0.365835	0.151555	0.139701
H404	H	0.865835	0.651555	0.639701
H405	H	0.446887	0.243027	0.128292
H406	H	0.946887	0.743027	0.628292
H407	H	0.392489	0.239582	0.176235
H408	H	0.892489	0.739582	0.676235
H409	H	0.305283	0.157721	0.158103
H410	H	0.805283	0.657721	0.658103
O411	O	0.821560	0.185872	0.949731
O412	O	1.321560	0.685872	1.449731
C413	C	0.887964	0.119572	0.955528
C414	C	1.387964	0.619572	1.455528
C415	C	0.851154	0.156369	0.985516
C416	C	1.351154	0.656369	1.485516
H417	H	0.911908	0.095718	0.984448
H418	H	1.411908	0.595718	1.484448
H419	H	0.864003	0.092197	0.929979
H420	H	1.364003	0.592197	1.429979
H421	H	0.915259	0.143592	0.929952
H422	H	1.415259	0.643592	1.429952
H423	H	0.823851	0.132392	1.011121
H424	H	1.323851	0.632392	1.511121
H425	H	0.875148	0.183746	1.011033
H426	H	1.375148	0.683746	1.511033
H427	H	0.661376	0.801275	0.346049
H428	H	1.161376	1.301275	0.846049
H429	H	0.816298	0.191153	1.053007
H430	H	1.316298	0.691153	1.553007
O431	O	0.689527	0.317930	0.447342
O432	O	1.189527	0.817930	0.947342
C433	C	0.623137	0.384242	0.453070
C434	C	1.123137	0.884242	0.953070
C435	C	0.659940	0.347426	0.483096
C436	C	1.159940	0.847426	0.983096
H437	H	0.599199	0.408091	0.481964
H438	H	1.099199	0.908091	0.981964
H439	H	0.647104	0.411621	0.427530
H440	H	1.147104	0.911621	0.927530
H441	H	0.595836	0.360237	0.427480
H442	H	1.095836	0.860237	0.927480
H443	H	0.687249	0.371389	0.508714
H444	H	1.187249	0.871389	1.008714
H445	H	0.635942	0.320046	0.508603
H446	H	1.135942	0.820046	1.008603
O447	O	0.309484	0.351500	0.351245
O448	O	0.809484	0.851500	0.851245
C449	C	0.303703	0.417948	0.417439
C450	C	0.803703	0.917948	0.917439
C451	C	0.273706	0.381109	0.380697
C452	C	0.773706	0.881109	0.880697
H453	H	0.274790	0.441904	0.441252
H454	H	0.774790	0.941904	0.941252
H455	H	0.329277	0.394008	0.444855
H456	H	0.829277	0.894008	0.944855
H457	H	0.329256	0.445230	0.393379
H458	H	0.829256	0.945230	0.893379
H459	H	0.248125	0.353819	0.404714
H460	H	0.748125	0.853819	0.904714
H461	H	0.248165	0.405082	0.353279
H462	H	0.748165	0.905082	0.853279
H463	H	-0.044951	0.191258	0.191502
H464	H	0.455049	0.691258	0.691502
H465	H	0.556454	0.191211	0.191422
H466	H	1.056454	0.691211	0.691422
O467	O	0.656117	0.697991	0.351361
O468	O	1.156117	1.197991	0.851361
C469	C	0.630700	0.681247	0.440273
C470	C	1.130700	1.181247	0.940273
C471	C	0.667513	0.711237	0.403503
C472	C	1.167513	1.211237	0.903503
H473	H	0.639907	0.691937	0.482438
H474	H	1.139907	1.191937	0.982438
H475	H	0.588542	0.692038	0.431095
H476	H	1.088542	1.192038	0.931095
H477	H	0.636421	0.637531	0.434505
H478	H	1.136421	1.137531	0.934505
H479	H	0.661838	0.754960	0.409250
H480	H	1.161838	1.254960	0.909250
H481	H	0.709658	0.700402	0.412691
H482	H	1.209658	1.200402	0.912691
O483	O	0.689574	0.949183	0.317919
O484	O	1.189574	1.449183	0.817919
C485	C	0.623219	0.954994	0.384199
C486	C	1.123219	1.454994	0.884199
C487	C	0.660064	0.984974	0.347453
C488	C	1.160064	1.484974	0.847453
H489	H	0.599358	0.983918	0.408095
H490	H	1.099358	1.483918	0.908095
H491	H	0.595851	0.929481	0.360189
H492	H	1.095851	1.429481	0.860189
H493	H	0.647201	0.929383	0.411542
H494	H	1.147201	1.429383	0.911542
H495	H	0.636124	1.010614	0.320103
H496	H	1.136124	1.510614	0.820103
H497	H	0.687433	1.010455	0.371495
H498	H	1.187433	1.510455	0.871495
H499	H	0.816111	0.450979	0.191392
H500	H	1.316111	0.950979	0.691392
O501	O	0.689463	0.554320	0.317907
O502	O	1.189463	1.054320	0.817907
C503	C	0.623066	0.548587	0.384148
C504	C	1.123066	1.048587	0.884148
C505	C	0.659861	0.518564	0.347372
C506	C	1.159861	1.018564	0.847372
H507	H	0.599115	0.519691	0.407972
H508	H	1.099115	1.019691	0.907972
H509	H	0.647039	0.574096	0.411552
H510	H	1.147039	1.074096	0.911552
H511	H	0.595776	0.574208	0.360114
H512	H	1.095776	1.074208	0.860114
H513	H	0.687158	0.492915	0.371364
H514	H	1.187158	0.992915	0.871364
H515	H	0.635855	0.493088	0.319966
H516	H	1.135855	0.993088	0.819966
H517	H	0.206227	0.346229	0.345967
H518	H	0.706227	0.846229	0.845967
O519	O	0.689573	0.317737	1.057165
O520	O	1.189573	0.817737	1.557165
C521	C	0.623215	0.384083	1.051368
C522	C	1.123215	0.884083	1.551368
C523	C	0.660047	0.347308	1.021380
C524	C	1.160047	0.847308	1.521380
H525	H	0.599341	0.408008	1.022448
H526	H	1.099341	0.908008	1.522448
H527	H	0.595859	0.360095	1.076911
H528	H	1.095859	0.860095	1.576911
H529	H	0.647208	0.411398	1.076951
H530	H	1.147208	0.911398	1.576951
H531	H	0.636096	0.319985	0.995769
H532	H	1.136096	0.819985	1.495769
H533	H	0.687404	0.371328	0.995870
H534	H	1.187404	0.871328	1.495870
O535	O	0.689676	0.317771	0.949552
O536	O	1.189676	0.817771	1.449552
C537	C	0.682584	0.388402	0.887927
C538	C	1.182584	0.888402	1.387927
C539	C	0.719376	0.351605	0.917990
C540	C	1.219376	0.851605	1.417990
H541	H	0.706582	0.415773	0.862410
H542	H	1.206582	0.915773	1.362410
H543	H	0.655264	0.364433	0.862323
H544	H	1.155264	0.864433	1.362323
H545	H	0.658665	0.412265	0.916826
H546	H	1.158665	0.912265	1.416826
H547	H	0.743330	0.327734	0.889129
H548	H	1.243330	0.827734	1.389129
H549	H	0.746662	0.375604	0.943602
H550	H	1.246662	0.875604	1.443602
O551	O	0.656054	0.351214	0.805969
O552	O	1.156054	0.851214	1.305969
C553	C	0.589685	0.417547	0.800163
C554	C	1.089685	0.917547	1.300163
C555	C	0.626526	0.380777	0.770180
C556	C	1.126526	0.880777	1.270180
H557	H	0.565809	0.441466	0.771241
H558	H	1.065809	0.941466	1.271241
H559	H	0.562331	0.393556	0.825705
H560	H	1.062331	0.893556	1.325705
H561	H	0.613671	0.444868	0.825747
H562	H	1.113671	0.944868	1.325747
H563	H	0.602581	0.353449	0.744568
H564	H	1.102581	0.853449	1.244568
H565	H	0.653880	0.404801	0.744671
H566	H	1.153880	0.904801	1.244671
O567	O	0.656168	0.351248	0.698354
O568	O	1.156168	0.851248	1.198354
C569	C	0.649079	0.421875	0.636724
C570	C	1.149079	0.921875	1.136724
C571	C	0.685870	0.385083	0.666794
C572	C	1.185870	0.885083	1.166794
H573	H	0.673078	0.449247	0.611208
H574	H	1.173078	0.949247	1.111208
H575	H	0.621764	0.397902	0.611117
H576	H	1.121764	0.897902	1.111117
H577	H	0.625154	0.445738	0.665618
H578	H	1.125154	0.945738	1.165618
H579	H	0.709829	0.361212	0.637937
H580	H	1.209829	0.861212	1.137937
H581	H	0.713150	0.409086	0.692408
H582	H	1.213150	0.909086	1.192408
H583	H	0.054103	0.312760	0.312609
H584	H	0.554103	0.812760	0.812609
O585	O	-0.049273	0.317951	0.317923
O586	O	0.450727	0.817951	0.817923
C587	C	-0.110918	0.325083	0.388484
C588	C	0.389082	0.825083	0.888484
C589	C	-0.080875	0.288273	0.351739
C590	C	0.419125	0.788273	0.851739
H591	H	-0.136484	0.301104	0.415825
H592	H	0.363516	0.801104	0.915825
H593	H	-0.082053	0.349008	0.412377
H594	H	0.417947	0.849008	0.912377
H595	H	-0.136487	0.352397	0.364422
H596	H	0.363513	0.852397	0.864422
H597	H	-0.055306	0.260927	0.375760
H598	H	0.444694	0.760927	0.875760
H599	H	-0.109768	0.264385	0.327844
H600	H	0.390232	0.764385	0.827844
H601	H	0.556449	0.312723	0.312530
H602	H	1.056449	0.812723	0.812530
H603	H	0.816159	0.550030	0.191408
H604	H	1.316159	1.050030	0.691408
