data_functionalizedCrystal
_audit_creation_method	'MofGen! by Chris Wilmer'
_symmetry_space_group_name_H-M	'P1'
_symmetry_Int_Tables_number	1
_symmetry_cell_setting	triclinic
loop_
_symmetry_equiv_pos_as_xyz
  x,y,z
_cell_length_a	15.944551
_cell_length_b	13.596369
_cell_length_c	14.519731
_cell_angle_alpha	89.994584
_cell_angle_beta	83.593795
_cell_angle_gamma	89.993059
loop_
_atom_site_label
_atom_site_type_symbol
_atom_site_fract_x
_atom_site_fract_y
_atom_site_fract_z
O1	O	0.110194	-0.081796	1.223664
O2	O	0.123142	-0.081797	0.955167
O3	O	-0.005596	-0.081788	1.096747
O4	O	0.238932	-0.081805	1.082083
O5	O	-0.005602	0.081795	1.096733
O6	O	0.123135	0.081785	0.955153
O7	O	0.110187	0.081787	1.223650
Zn8	Zn	0.116660	0.107759	1.089399
Zn9	Zn	0.116669	-0.107769	1.089417
O10	O	0.238925	0.081777	1.082069
C11	C	-0.036894	0.000004	1.096131
C12	C	-0.130143	0.000005	1.094306
C13	C	0.122532	-0.000006	0.920801
C14	C	0.120714	-0.000007	0.818424
N15	N	0.116654	0.254851	1.089393
C16	C	-0.345139	-0.000010	1.002186
C17	C	-0.406095	0.080647	1.044957
C18	C	-0.300874	-0.000003	1.091005
C19	C	-0.406072	-0.080633	1.044991
C20	C	-0.465791	-0.000015	1.087809
C21	C	-0.360601	0.080720	1.133800
C22	C	-0.360571	-0.080632	1.133822
C23	C	-0.421509	0.000044	1.176658
C24	C	-0.205868	0.000004	1.092843
C25	C	-0.560795	-0.000015	1.085977
C26	C	0.270223	-0.000016	1.082685
C27	C	0.363472	-0.000023	1.084510
N28	N	0.116669	-0.254861	1.089431
C29	C	0.116670	0.656141	1.089416
C30	C	0.116668	0.544490	1.089407
C31	C	0.116662	0.455500	1.089405
C32	C	0.116659	0.343841	1.089395
C33	C	0.119237	-0.000010	0.735283
C34	C	0.117391	-0.000011	0.630977
C35	C	0.115926	-0.000010	0.547841
C36	C	0.114080	-0.000012	0.443528
C37	C	0.110797	-0.000006	1.258015
C38	C	0.112615	-0.000012	1.360392
H39	H	-0.426263	0.148835	1.007384
H40	H	-0.454556	0.000090	1.250446
H41	H	-0.426203	-0.148827	1.007419
N42	N	-0.303503	0.000093	0.909698
N43	N	-0.315445	0.069241	0.855939
H44	H	-0.286039	0.069318	0.790621
N45	N	-0.335450	0.166351	1.180882
N46	N	-0.259287	0.180192	1.189850
H47	H	-0.241520	0.240668	1.223099
N48	N	-0.335248	-0.166184	1.180912
N49	N	-0.349567	-0.249871	1.150647
H50	H	-0.331682	-0.310300	1.183899
