data_functionalizedCrystal
_audit_creation_method	'MofGen! by Chris Wilmer'
_symmetry_space_group_name_H-M	'P1'
_symmetry_Int_Tables_number	1
_symmetry_cell_setting	triclinic
loop_
_symmetry_equiv_pos_as_xyz
  x,y,z
_cell_length_a	12.594516
_cell_length_b	16.120566
_cell_length_c	16.120297
_cell_angle_alpha	89.874982
_cell_angle_beta	92.873262
_cell_angle_gamma	92.890314
loop_
_atom_site_label
_atom_site_type_symbol
_atom_site_fract_x
_atom_site_fract_y
_atom_site_fract_z
Zn1	Zn	-0.539236	-1.247510	-0.534637
Zn2	Zn	-0.039236	-0.747510	-0.034637
Zn3	Zn	-0.708679	-1.254484	-0.395581
Zn4	Zn	-0.208679	-0.754484	0.104419
Zn5	Zn	-0.521251	-1.115498	-0.388548
Zn6	Zn	-0.021251	-0.615498	0.111452
Zn7	Zn	-0.707700	-1.108441	-0.527543
Zn8	Zn	-0.207700	-0.608441	-0.027543
O9	O	-0.619216	-1.181483	-0.461577
O10	O	-0.119216	-0.681483	0.038423
O11	O	-0.569649	-1.364802	-0.522104
O12	O	-0.069649	-0.864802	-0.022104
O13	O	-0.676699	-1.241920	-0.278283
O14	O	-0.176699	-0.741920	0.221717
O15	O	-0.374695	-1.133045	-0.407952
O16	O	0.125305	-0.633045	0.092048
O17	O	-0.694138	-1.369926	-0.419940
O18	O	-0.194138	-0.869926	0.080060
O19	O	-0.387908	-1.230034	-0.515283
O20	O	0.112092	-0.730034	-0.015283
O21	O	-0.538997	-1.139807	-0.273116
O22	O	-0.038997	-0.639807	0.226884
O23	O	-0.538048	-0.998195	-0.401073
O24	O	-0.038048	-0.498195	0.098927
O25	O	-0.692470	-1.121016	-0.644849
O26	O	-0.192470	-0.621016	-0.144849
O27	O	-0.675031	-0.993010	-0.503192
O28	O	-0.175031	-0.493010	-0.003192
O29	O	-0.568700	-1.223190	-0.650061
O30	O	-0.068700	-0.723190	-0.150061
O31	O	-0.857491	-1.235076	-0.413061
O32	O	-0.357491	-0.735076	0.086939
O33	O	-0.856772	-1.127778	-0.510012
O34	O	-0.356772	-0.627778	-0.010012
C35	C	-0.604482	-0.965430	-0.450600
C36	C	-0.104482	-0.465430	0.049400
C37	C	-0.598206	-0.873000	-0.445924
C38	C	-0.098206	-0.373000	0.054076
C39	C	-0.895753	-1.181440	-0.461549
C40	C	-0.395753	-0.681440	0.038451
C41	C	-1.014063	-1.181496	-0.461569
C42	C	-0.514063	-0.681496	0.038431
C43	C	-0.586722	-0.703770	-0.437393
C44	C	-0.086722	-0.203770	0.062607
C45	C	-0.651803	-0.660037	-0.485768
C46	C	-0.151803	-0.160037	0.014232
C47	C	-0.645413	-0.565872	-0.481022
C48	C	-0.145413	-0.065872	0.018978
C49	C	-0.593110	-0.797944	-0.442138
C50	C	-0.093110	-0.297944	0.057862
C51	C	-1.154445	-1.239952	-0.408939
C52	C	-0.654445	-0.739952	0.091061
C53	C	-1.077335	-1.165103	-0.384656
C54	C	-0.577335	-0.665103	0.115344
C55	C	-1.089599	-1.256337	-0.485814
C56	C	-0.589599	-0.756337	0.014186
C57	C	-1.147744	-1.106691	-0.437321
C58	C	-0.647744	-0.606691	0.062679
C59	C	-1.160019	-1.197974	-0.538517
C60	C	-0.660019	-0.697974	-0.038517
C61	C	-1.082939	-1.123072	-0.514260
C62	C	-0.582939	-0.623072	-0.014260
C63	C	-0.341603	-1.181549	-0.461625
C64	C	0.158397	-0.681549	0.038375
C65	C	-0.223301	-1.181577	-0.461645
C66	C	0.276699	-0.681577	0.038355
C67	C	-0.632482	-1.170538	-0.678471
C68	C	-0.132482	-0.670538	-0.178471
C69	C	-0.638135	-1.165874	-0.770898
C70	C	-0.138135	-0.665874	-0.270898
C71	C	-0.634012	-0.398381	-0.472584
C72	C	-0.134012	0.101619	0.027416
C73	C	-0.640323	-0.490812	-0.477240
C74	C	-0.140323	0.009188	0.022760
C75	C	-0.648430	-1.157327	-0.940122
C76	C	-0.148430	-0.657327	-0.440122
C77	C	-0.589695	-1.205803	-0.983892
C78	C	-0.089695	-0.705803	-0.483892
C79	C	-0.595423	-1.201048	-1.078054
C80	C	-0.095423	-0.701048	-0.578054
C81	C	-0.642703	-1.162082	-0.845952
C82	C	-0.142703	-0.662082	-0.345952
C83	C	-0.605929	-1.192434	-0.245530
C84	C	-0.105929	-0.692434	0.254470
C85	C	-0.599987	-1.197259	-0.153111
C86	C	-0.099987	-0.697259	0.346889
H87	H	-0.712318	-0.693318	-0.530749
H88	H	-0.212318	-0.193318	-0.030749
N89	N	-1.181664	-1.022883	-0.410086
N90	N	-0.681664	-0.522883	0.089914
H91	H	-1.116579	-0.984894	-0.397750
H92	H	-0.616579	-0.484894	0.102250
H93	H	-1.227707	-0.998065	-0.455859
H94	H	-0.727707	-0.498065	0.044141
H95	H	-1.196166	-1.211907	-0.603543
H96	H	-0.696166	-0.711907	-0.103543
N97	N	-0.517389	-1.265515	-0.939869
N98	N	-0.017389	-0.765515	-0.439869
H99	H	-0.463608	-1.233523	-0.902110
H100	H	0.036392	-0.733523	-0.402110
H101	H	-0.561205	-1.305810	-0.905842
H102	H	-0.061205	-0.805810	-0.405842
N103	N	-0.506588	-0.659696	-0.377795
N104	N	-0.006588	-0.159696	0.122205
H105	H	-0.513342	-0.597701	-0.382803
H106	H	-0.013342	-0.097701	0.117197
H107	H	-0.520440	-0.677814	-0.319138
H108	H	-0.020440	-0.177814	0.180862
N109	N	-1.196013	-1.305317	-0.349899
N110	N	-0.696013	-0.805317	0.150101
H111	H	-1.165762	-1.292787	-0.291811
H112	H	-0.665762	-0.792787	0.208189
H113	H	-1.276246	-1.305213	-0.350808
H114	H	-0.776246	-0.805213	0.149192
N115	N	-1.029478	-1.146671	-0.298504
N116	N	-0.529478	-0.646671	0.201496
H117	H	-1.055495	-1.190826	-0.258758
H118	H	-0.555495	-0.690826	0.241242
H119	H	-0.949319	-1.146224	-0.299300
H120	H	-0.449319	-0.646224	0.200700
H121	H	-1.051749	-1.073617	-0.558797
H122	H	-0.551749	-0.573617	-0.058797
N123	N	-0.720719	-1.097614	-0.984150
N124	N	-0.220719	-0.597614	-0.484150
H125	H	-0.714605	-1.102638	-1.046150
H126	H	-0.214605	-0.602638	-0.546150
H127	H	-0.796720	-1.111278	-0.969684
H128	H	-0.296720	-0.611278	-0.469684
H129	H	-1.063845	-1.319595	-0.506287
H130	H	-0.563845	-0.819595	-0.006287
