data_functionalizedCrystal
_audit_creation_method	'MofGen! by Chris Wilmer'
_symmetry_space_group_name_H-M	'P1'
_symmetry_Int_Tables_number	1
_symmetry_cell_setting	triclinic
loop_
_symmetry_equiv_pos_as_xyz
  x,y,z
_cell_length_a	23.532407
_cell_length_b	26.210047
_cell_length_c	23.532407
_cell_angle_alpha	90.000177
_cell_angle_beta	82.848678
_cell_angle_gamma	90.003642
loop_
_atom_site_label
_atom_site_type_symbol
_atom_site_fract_x
_atom_site_fract_y
_atom_site_fract_z
O1	O	0.755264	0.042370	0.069127
O2	O	1.255264	0.542370	0.569127
O3	O	0.589401	0.042386	0.079130
O4	O	1.089401	0.542386	0.579130
O5	O	0.677334	0.042368	-0.008803
O6	O	1.177334	0.542368	0.491197
O7	O	0.667331	0.042388	0.157060
O8	O	1.167331	0.542388	0.657060
O9	O	0.677317	-0.042490	-0.008790
O10	O	1.177317	0.457510	0.491210
O11	O	0.589384	-0.042472	0.079144
O12	O	1.089384	0.457528	0.579144
O13	O	0.755247	-0.042488	0.069140
O14	O	1.255247	0.457512	0.569140
Cu15	Cu	0.672314	-0.050228	0.074143
Cu16	Cu	1.172314	0.449772	0.574143
Cu17	Cu	0.672334	0.050127	0.074127
Cu18	Cu	1.172334	0.550127	0.574127
O19	O	0.667314	-0.042470	0.157074
O20	O	1.167314	0.457530	0.657074
C21	C	0.568176	-0.000041	0.078882
C22	C	1.068176	0.499959	0.578882
C23	C	0.504959	-0.000035	0.078116
C24	C	1.004959	0.499965	0.578116
N25	N	0.672304	-0.120812	0.074154
N26	N	1.172304	0.379188	0.574154
C27	C	0.105856	-0.000053	0.125350
C28	C	0.605856	0.499947	0.625350
C29	C	0.046456	-0.000056	0.124638
C30	C	0.546456	0.499944	0.624638
O31	O	0.009711	-0.000069	0.168424
O32	O	0.509711	0.499931	0.668424
N33	N	0.023830	-0.000061	0.072362
N34	N	0.523830	0.499939	0.572362
C35	C	0.060607	-0.000069	0.020794
C36	C	0.560607	0.499931	0.520794
O37	O	0.035908	-0.000074	-0.023737
O38	O	0.535908	0.499926	0.476263
C39	C	0.120006	-0.000069	0.021506
C40	C	0.620006	0.499931	0.521506
C41	C	0.142629	-0.000059	0.073785
C42	C	0.642629	0.499941	0.573785
C43	C	0.128479	-0.000043	0.177625
C44	C	0.628479	0.499957	0.677625
C45	C	0.187876	-0.000039	0.178336
C46	C	0.687876	0.499961	0.678336
C47	C	0.224649	-0.000045	0.126772
C48	C	0.724649	0.499955	0.626772
C49	C	0.202025	-0.000055	0.074497
C50	C	0.702025	0.499945	0.574497
C51	C	0.156783	-0.000080	-0.030062
C52	C	0.656783	0.499920	0.469938
C53	C	0.216185	-0.000081	-0.029345
C54	C	0.716185	0.499919	0.470655
C55	C	0.238808	-0.000071	0.022934
C56	C	0.738808	0.499929	0.522934
C57	C	0.298194	-0.000056	0.023643
C58	C	0.798194	0.499944	0.523643
N59	N	0.320820	-0.000051	0.075920
N60	N	0.820820	0.499949	0.575920
C61	C	0.284048	-0.000045	0.127484
C62	C	0.784048	0.499955	0.627484
C63	C	-0.064135	-0.000069	0.019302
C64	C	0.435865	0.499931	0.519302
C65	C	-0.123533	-0.000065	0.018589
C66	C	0.376467	0.499935	0.518589
C67	C	-0.137680	-0.000053	0.122434
C68	C	0.362320	0.499947	0.622434
C69	C	-0.078281	-0.000053	0.123146
C70	C	0.421719	0.499947	0.623146
C71	C	-0.041509	-0.000063	0.071578
C72	C	0.458491	0.499937	0.571578
C73	C	0.408784	-0.000036	0.128974
C74	C	0.908784	0.499964	0.628974
C75	C	0.468186	-0.000030	0.129680
C76	C	0.968186	0.499970	0.629680
C77	C	0.482329	-0.000044	0.025836
C78	C	0.982329	0.499956	0.525836
C79	C	0.422932	-0.000048	0.025129
C80	C	0.922932	0.499952	0.525129
C81	C	0.386160	-0.000045	0.076702
C82	C	0.886160	0.499955	0.576702
O83	O	0.334974	-0.000045	-0.020119
O84	O	0.834974	0.499955	0.479881
O85	O	0.308755	-0.000046	0.172007
O86	O	0.808755	0.499954	0.672007
C87	C	0.711267	-0.473334	0.035199
C88	C	1.211267	0.026666	0.535199
C89	C	0.711280	-0.686992	0.035191
C90	C	1.211280	-0.186992	0.535191
O91	O	0.744385	-0.714621	0.002072
O92	O	1.244385	-0.214621	0.502072
N93	N	0.672337	-0.713706	0.074114
N94	N	1.172337	-0.213706	0.574114
C95	C	0.633386	-0.687001	0.113040
C96	C	1.133386	-0.187001	0.613040
O97	O	0.600260	-0.714625	0.146143
O98	O	1.100260	-0.214625	0.646143
C99	C	0.633372	-0.473344	0.113045
C100	C	1.133372	0.026656	0.613045
C101	C	0.672320	-0.446633	0.074123
C102	C	1.172320	0.053367	0.574123
C103	C	0.750212	-0.446623	-0.003721
C104	C	1.250212	0.053377	0.496279
C105	C	0.750211	-0.393212	-0.003716
C106	C	1.250211	0.106788	0.496284
C107	C	0.711264	-0.366511	0.035208
C108	C	1.211264	0.133489	0.535208
C109	C	0.672319	-0.393222	0.074127
C110	C	1.172319	0.106778	0.574127
C111	C	0.594419	-0.446640	0.151968
C112	C	1.094419	0.053360	0.651968
C113	C	0.594417	-0.393222	0.151965
C114	C	1.094417	0.106778	0.651965
C115	C	0.633366	-0.366512	0.113042
C116	C	1.133366	0.133488	0.613042
C117	C	0.633371	-0.313109	0.113056
C118	C	1.133371	0.186891	0.613056
N119	N	0.672313	-0.286396	0.074132
N120	N	1.172313	0.213604	0.574132
C121	C	0.711260	-0.313097	0.035208
C122	C	1.211260	0.186903	0.535208
C123	C	0.633398	-0.799175	0.113036
C124	C	1.133398	-0.299175	0.613036
C125	C	0.633402	-0.852589	0.113035
C126	C	1.133402	-0.352589	0.613035
C127	C	0.711295	-0.852576	0.035185
C128	C	1.211295	-0.352576	0.535185
C129	C	0.711293	-0.799161	0.035189
C130	C	1.211293	-0.299161	0.535189
C131	C	0.672340	-0.772461	0.074112
C132	C	1.172340	-0.272461	0.574112
C133	C	0.711254	-0.200929	0.035221
C134	C	1.211254	0.299071	0.535221
C135	C	0.711251	-0.147513	0.035230
C136	C	1.211251	0.352487	0.535230
C137	C	0.633356	-0.147530	0.113078
C138	C	1.133356	0.352470	0.613078
C139	C	0.633361	-0.200941	0.113071
C140	C	1.133361	0.299059	0.613071
C141	C	0.672312	-0.227640	0.074138
C142	C	1.172312	0.272360	0.574138
O143	O	0.600278	-0.285448	0.146153
O144	O	1.100278	0.214552	0.646153
O145	O	0.744373	-0.285464	0.002102
O146	O	1.244373	0.214536	0.502102
C147	C	0.711268	-0.526745	0.035194
C148	C	1.211268	-0.026745	0.535194
C149	C	0.672323	-0.553456	0.074114
C150	C	1.172323	-0.053456	0.574114
C151	C	0.633377	-0.526755	0.113038
C152	C	1.133377	-0.026755	0.613038
C153	C	0.672328	-0.606870	0.074114
C154	C	1.172328	-0.106870	0.574114
C155	C	0.711274	-0.633571	0.035190
C156	C	1.211274	-0.133571	0.535190
C157	C	0.750217	-0.606857	-0.003734
C158	C	1.250217	-0.106857	0.496266
C159	C	0.750215	-0.553446	-0.003730
C160	C	1.250215	-0.053446	0.496270
C161	C	0.594434	-0.553469	0.151961
C162	C	1.094434	-0.053469	0.651961
C163	C	0.594439	-0.606880	0.151954
C164	C	1.094439	-0.106880	0.651954
C165	C	0.633386	-0.633581	0.113030
C166	C	1.133386	-0.133581	0.613030
C167	C	0.776472	-0.000059	0.069388
C168	C	1.276472	0.499941	0.569388
C169	C	0.839689	-0.000062	0.070154
C170	C	1.339689	0.499938	0.570154
C171	C	0.677071	-0.000062	-0.030013
C172	C	1.177071	0.499938	0.469987
C173	C	0.676305	-0.000066	-0.093230
C174	C	1.176305	0.499934	0.406770
N175	N	0.672349	0.120710	0.074111
N176	N	1.172349	0.620710	0.574111
C177	C	0.723539	-0.000042	-0.492333
C178	C	1.223539	0.499958	0.007667
C179	C	0.722827	-0.000038	-0.551733
C180	C	1.222827	0.499962	-0.051733
O181	O	0.766613	-0.000024	-0.588478
O182	O	1.266613	0.499976	-0.088478
N183	N	0.670551	-0.000034	-0.574359
N184	N	1.170551	0.499966	-0.074359
C185	C	0.618983	-0.000028	-0.537582
C186	C	1.118983	0.499972	-0.037582
O187	O	0.574452	-0.000023	-0.562281
O188	O	1.074452	0.499977	-0.062281
C189	C	0.619695	-0.000028	-0.478182
C190	C	1.119695	0.499972	0.021818
C191	C	0.671974	-0.000038	-0.455560
C192	C	1.171974	0.499962	0.044440
C193	C	0.775814	-0.000051	-0.469710
C194	C	1.275814	0.499949	0.030290
C195	C	0.776525	-0.000056	-0.410313
C196	C	1.276525	0.499944	0.089687
C197	C	0.724961	-0.000052	-0.373540
C198	C	1.224961	0.499948	0.126460
C199	C	0.672685	-0.000043	-0.396164
C200	C	1.172685	0.499957	0.103836
C201	C	0.568127	-0.000019	-0.441406
C202	C	1.068127	0.499981	0.058594
C203	C	0.568844	-0.000019	-0.382004
C204	C	1.068844	0.499981	0.117996
C205	C	0.621123	-0.000028	-0.359381
C206	C	1.121123	0.499972	0.140619
C207	C	0.621832	-0.000043	-0.299995
C208	C	1.121832	0.499957	0.200005
N209	N	0.674109	-0.000048	-0.277368
N210	N	1.174109	0.499952	0.222632
C211	C	0.725673	-0.000052	-0.314141
C212	C	1.225673	0.499948	0.185859
C213	C	0.617491	-0.000026	-0.662324
C214	C	1.117491	0.499974	-0.162324
C215	C	0.616778	-0.000030	-0.721722
C216	C	1.116778	0.499970	-0.221722
C217	C	0.720623	-0.000039	-0.735869
C218	C	1.220623	0.499961	-0.235869
C219	C	0.721335	-0.000039	-0.676470
C220	C	1.221335	0.499961	-0.176470
C221	C	0.669767	-0.000031	-0.639698
C222	C	1.169767	0.499969	-0.139698
C223	C	0.727163	-0.000063	-0.189405
C224	C	1.227163	0.499937	0.310595
C225	C	0.727869	-0.000070	-0.130003
C226	C	1.227869	0.499930	0.369997
C227	C	0.624025	-0.000058	-0.115860
C228	C	1.124025	0.499942	0.384140
C229	C	0.623318	-0.000054	-0.175257
C230	C	1.123318	0.499946	0.324743
C231	C	0.674891	-0.000054	-0.212029
C232	C	1.174891	0.499946	0.287971
O233	O	0.578070	-0.000056	-0.263215
O234	O	1.078070	0.499944	0.236785
O235	O	0.770196	-0.000050	-0.289433
O236	O	1.270196	0.499950	0.210567
C237	C	0.667577	-0.000038	0.178283
C238	C	1.167577	0.499962	0.678283
C239	C	0.668343	-0.000031	0.241500
C240	C	1.168343	0.499969	0.741500
H241	H	0.486602	-0.000021	0.172255
H242	H	0.986602	0.499979	0.672255
H243	H	0.743007	-0.874325	0.003492
H244	H	1.243007	-0.374325	0.503492
F245	F	-0.176828	-0.000049	0.177314
F246	F	0.323172	0.499951	0.677314
F247	F	0.552956	-0.364810	0.193393
F248	F	1.052956	0.135190	0.693393
F249	F	0.369658	-0.000034	0.183864
F250	F	0.869658	0.499966	0.683864
F251	F	-0.147603	-0.000064	-0.037054
F252	F	0.352397	0.499936	0.462946
F253	F	0.591913	-0.229368	0.154503
F254	F	1.091913	0.270632	0.654503
F255	F	0.752708	-0.119088	-0.006197
F256	F	1.252708	0.380912	0.493803
H257	H	0.742971	-0.222660	0.003517
H258	H	1.242971	0.277340	0.503517
F259	F	0.830701	-0.000056	-0.508838
F260	F	1.330701	0.499944	-0.008838
F261	F	0.591955	-0.881011	0.154468
F262	F	1.091955	-0.381011	0.654468
F263	F	0.591938	-0.770764	0.154467
F264	F	1.091938	-0.270764	0.654467
F265	F	0.591909	-0.119105	0.154503
F266	F	1.091909	0.380895	0.654503
H267	H	0.404512	-0.000049	-0.017441
H268	H	0.904512	0.499951	0.482559
H269	H	0.819097	-0.000062	-0.391900
H270	H	1.319097	0.499938	0.108100
F271	F	0.782053	-0.000064	-0.228531
F272	F	1.282053	0.499936	0.271469
F273	F	0.569149	-0.000053	-0.076714
F274	F	1.069149	0.499947	0.423286
F275	F	0.132720	-0.000084	-0.085706
F276	F	0.632720	0.499916	0.414294
H277	H	0.781927	-0.468358	-0.035420
H278	H	1.281927	0.031642	0.464580
H279	H	0.781931	-0.531702	-0.035424
H280	H	1.281931	-0.031702	0.464576
H281	H	0.206289	-0.000030	0.220908
H282	H	0.706289	0.499970	0.720908
F283	F	0.089351	-0.000037	0.232512
F284	F	0.589351	0.499963	0.732512
F285	F	0.567676	-0.000052	-0.199335
F286	F	1.067676	0.499948	0.300665
H287	H	-0.034198	-0.000072	-0.022693
H288	H	0.465802	0.499928	0.477307
H289	H	0.781924	-0.371467	-0.035412
H290	H	1.281924	0.128533	0.464588
F291	F	0.552963	-0.475058	0.193393
F292	F	1.052963	0.024942	0.693393
F293	F	0.255318	-0.000093	-0.084233
F294	F	0.755318	0.499907	0.415767
F295	F	-0.054210	-0.000043	0.178789
F296	F	0.445790	0.499957	0.678789
F297	F	0.776978	-0.000050	-0.652399
F298	F	1.276978	0.499950	-0.152399
F299	F	0.791668	-0.635283	-0.045158
F300	F	1.291668	-0.135283	0.454842
F301	F	0.561135	-0.000028	-0.745792
F302	F	1.061135	0.499972	-0.245792
H303	H	0.512280	-0.000047	-0.016146
H304	H	1.012280	0.499953	0.483854
H305	H	0.743008	-0.777416	0.003495
H306	H	1.243008	-0.277416	0.503495
H307	H	0.562724	-0.628624	0.183654
H308	H	1.062724	-0.128624	0.683654
F309	F	0.552980	-0.525058	0.193391
F310	F	1.052980	-0.025058	0.693391
F311	F	0.783515	-0.000080	-0.105930
F312	F	1.283515	0.499920	0.394070
H313	H	0.762610	-0.000041	-0.765821
H314	H	1.262610	0.499959	-0.265821
H315	H	0.575496	-0.000024	-0.632386
H316	H	1.075496	0.499976	-0.132386
F317	F	0.512483	-0.000006	-0.465469
F318	F	1.012483	0.499994	0.034531
H319	H	0.526850	-0.000011	-0.352066
H320	H	1.026850	0.499989	0.147934
