data_functionalizedCrystal
_audit_creation_method	'MofGen! by Chris Wilmer'
_symmetry_space_group_name_H-M	'P1'
_symmetry_Int_Tables_number	1
_symmetry_cell_setting	triclinic
loop_
_symmetry_equiv_pos_as_xyz
  x,y,z
_cell_length_a	16.625546
_cell_length_b	19.077142
_cell_length_c	19.076919
_cell_angle_alpha	90.074357
_cell_angle_beta	87.730083
_cell_angle_gamma	92.282081
loop_
_atom_site_label
_atom_site_type_symbol
_atom_site_fract_x
_atom_site_fract_y
_atom_site_fract_z
Zn1	Zn	-0.390096	-1.058281	0.440442
Zn2	Zn	0.109904	-0.558281	0.940442
Zn3	Zn	-0.519739	-1.062925	0.322932
Zn4	Zn	-0.019739	-0.562925	0.822932
Zn5	Zn	-0.379293	-0.945499	0.318232
Zn6	Zn	0.120707	-0.445499	0.818232
Zn7	Zn	-0.519251	-0.940747	0.435680
Zn8	Zn	-0.019251	-0.440747	0.935680
O9	O	-0.452095	-1.001863	0.379321
O10	O	0.047905	-0.501863	0.879321
O11	O	-0.412019	-1.157229	0.428814
O12	O	0.087981	-0.657229	0.928814
O13	O	-0.496792	-1.051280	0.223977
O14	O	0.003208	-0.551280	0.723977
O15	O	-0.267897	-0.960505	0.334469
O16	O	0.232103	-0.460505	0.834469
O17	O	-0.507268	-1.160641	0.342479
O18	O	-0.007268	-0.660641	0.842479
O19	O	-0.275834	-1.043365	0.424256
O20	O	0.224166	-0.543365	0.924256
O21	O	-0.393606	-0.965008	0.220524
O22	O	0.106394	-0.465008	0.720524
O23	O	-0.393133	-0.846537	0.329852
O24	O	0.106867	-0.346537	0.829852
O25	O	-0.506435	-0.952406	0.534643
O26	O	-0.006435	-0.452406	1.034643
O27	O	-0.495959	-0.843046	0.416141
O28	O	0.004041	-0.343046	0.916141
O29	O	-0.411546	-1.038758	0.538141
O30	O	0.088454	-0.538758	1.038141
O31	O	-0.632504	-1.046673	0.337862
O32	O	-0.132504	-0.546673	0.837862
O33	O	-0.632145	-0.956909	0.420698
O34	O	-0.132145	-0.456909	0.920698
C35	C	-0.443321	-0.819295	0.371970
C36	C	0.056679	-0.319295	0.871970
C37	C	-0.439588	-0.741191	0.368842
C38	C	0.060412	-0.241191	0.868842
C39	C	-0.491445	-0.702701	0.412227
C40	C	0.008555	-0.202701	0.912227
C41	C	-0.487927	-0.629313	0.409291
C42	C	0.012073	-0.129313	0.909291
C43	C	-0.432555	-0.594417	0.362966
C44	C	0.067445	-0.094417	0.862966
C45	C	-0.380693	-0.632913	0.319578
C46	C	0.119307	-0.132913	0.819578
C47	C	-0.384207	-0.706298	0.322518
C48	C	0.115793	-0.206298	0.822518
C49	C	-0.416291	-0.375130	0.349366
C50	C	0.083709	0.124870	0.849366
C51	C	-0.412781	-0.301739	0.346428
C52	C	0.087219	0.198261	0.846428
C53	C	-0.520015	-0.298145	0.436142
C54	C	-0.020015	0.201855	0.936142
C55	C	-0.523528	-0.371532	0.439075
C56	C	-0.023528	0.128468	0.939075
C57	C	-0.471663	-0.410021	0.395691
C58	C	0.028337	0.089979	0.895691
N59	N	-0.428960	-0.519404	0.359962
N60	N	0.071040	-0.019404	0.859962
N61	N	-0.475255	-0.485033	0.398698
N62	N	0.024745	0.014967	0.898698
C63	C	-0.661581	-1.001798	0.379289
C64	C	-0.161581	-0.501798	0.879289
C65	C	-0.751205	-1.001833	0.379302
C66	C	-0.251205	-0.501833	0.879302
C67	C	-1.079389	-1.001953	0.379380
C68	C	-0.579389	-0.501953	0.879380
C69	C	-0.988078	-1.001917	0.379360
C70	C	-0.488078	-0.501917	0.879360
C71	C	-0.915300	-1.001892	0.379340
C72	C	-0.415300	-0.501892	0.879340
C73	C	-0.823983	-1.001858	0.379321
C74	C	-0.323983	-0.501858	0.879321
C75	C	-0.241792	-1.001947	0.379370
C76	C	0.258208	-0.501947	0.879370
C77	C	-0.152173	-1.001983	0.379390
C78	C	0.347827	-0.501983	0.879390
C79	C	-0.460141	-0.994534	0.562601
C80	C	0.039859	-0.494534	1.062601
C81	C	-0.463570	-0.991411	0.640704
C82	C	0.036430	-0.491411	1.140704
C83	C	-0.460899	-0.185145	0.386693
C84	C	0.039101	0.314855	0.886693
C85	C	-0.464638	-0.263249	0.389814
C86	C	0.035362	0.236751	0.889814
C87	C	-0.444024	-1.009204	0.196756
C88	C	0.055976	-0.509204	0.696756
C89	C	-0.440374	-1.012464	0.118659
C90	C	0.059626	-0.512464	0.618659
C91	C	-0.415779	-1.034900	0.679219
C92	C	0.084221	-0.534900	1.179219
C93	C	-0.418997	-1.031957	0.752605
C94	C	0.081003	-0.531957	1.252605
C95	C	-0.470011	-0.985527	0.787474
C96	C	0.029989	-0.485527	1.287474
C97	C	-0.517804	-0.942033	0.748953
C98	C	-0.017804	-0.442033	1.248953
C99	C	-0.514581	-0.944973	0.675569
C100	C	-0.014581	-0.444973	1.175569
C101	C	-0.484944	-0.971910	1.006754
C102	C	0.015056	-0.471910	1.506754
C103	C	-0.488165	-0.968974	1.080144
C104	C	0.011835	-0.468974	1.580144
C105	C	-0.389357	-1.058897	1.083791
C106	C	0.110643	-0.558897	1.583791
C107	C	-0.386142	-1.061836	1.010405
C108	C	0.113858	-0.561836	1.510405
C109	C	-0.433932	-1.018340	0.971890
C110	C	0.066068	-0.518340	1.471890
N111	N	-0.473304	-0.982519	0.862486
N112	N	0.026696	-0.482519	1.362486
N113	N	-0.430634	-1.021344	0.896880
N114	N	0.069366	-0.521344	1.396880
H115	H	-0.568620	-0.399939	0.476797
H116	H	-0.068620	0.100061	0.976797
H117	H	-0.530156	-0.597978	0.444620
H118	H	-0.030156	-0.097978	0.944620
H119	H	-0.374064	-0.406459	0.314034
H120	H	0.125936	0.093541	0.814034
H121	H	-0.341976	-0.737636	0.287193
H122	H	0.158024	-0.237636	0.787193
H123	H	-0.523870	-0.936502	0.975405
H124	H	-0.023870	-0.436502	1.475405
H125	H	-0.562240	-0.266799	0.471465
H126	H	-0.062240	0.233201	0.971465
H127	H	-0.374241	-1.072710	0.650835
H128	H	0.125759	-0.572710	1.150835
H129	H	-0.335604	-0.604494	0.281862
H130	H	0.164396	-0.104494	0.781862
H131	H	-0.380083	-1.067372	0.783961
H132	H	0.119917	-0.567372	1.283961
H133	H	-0.367682	-0.273329	0.308708
H134	H	0.132318	0.226671	0.808708
H135	H	-0.344604	-1.099646	0.982020
H136	H	0.155396	-0.599646	1.482020
H137	H	-0.553489	-0.909553	0.644210
H138	H	-0.053489	-0.409553	1.144210
H139	H	-0.350449	-1.094308	1.115157
H140	H	0.149551	-0.594308	1.615157
H141	H	-0.529708	-0.931164	1.108532
H142	H	-0.029708	-0.431164	1.608532
H143	H	-0.536538	-0.731108	0.449948
H144	H	-0.036538	-0.231108	0.949948
H145	H	-0.559337	-0.904227	0.777349
H146	H	-0.059337	-0.404227	1.277349
