data_functionalizedCrystal
_audit_creation_method	'MofGen! by Chris Wilmer'
_symmetry_space_group_name_H-M	'P1'
_symmetry_Int_Tables_number	1
_symmetry_cell_setting	triclinic
loop_
_symmetry_equiv_pos_as_xyz
  x,y,z
_cell_length_a	19.805407
_cell_length_b	19.077068
_cell_length_c	19.805399
_cell_angle_alpha	92.269429
_cell_angle_beta	89.982197
_cell_angle_gamma	92.324333
loop_
_atom_site_label
_atom_site_type_symbol
_atom_site_fract_x
_atom_site_fract_y
_atom_site_fract_z
Zn1	Zn	1.023902	-0.280268	-0.393504
Zn2	Zn	1.019267	-0.397967	-0.284858
Zn3	Zn	0.910716	-0.280282	-0.280333
Zn4	Zn	0.906132	-0.397924	-0.398007
O5	O	0.965004	-0.339110	-0.339176
O6	O	1.118003	-0.295893	-0.379102
O7	O	1.004846	-0.382379	-0.189542
O8	O	0.929589	-0.181789	-0.291567
O9	O	1.114598	-0.382366	-0.299280
O10	O	1.012746	-0.181779	-0.374713
O11	O	0.925094	-0.295917	-0.186217
O12	O	0.815392	-0.295875	-0.295933
O13	O	0.921776	-0.382293	-0.492125
O14	O	0.812024	-0.382306	-0.382388
O15	O	1.008301	-0.295851	-0.488817
O16	O	1.000402	-0.496452	-0.303646
O17	O	0.917282	-0.496421	-0.386776
C18	C	0.789149	-0.339088	-0.339158
C19	C	0.713917	-0.339096	-0.339168
C20	C	0.680343	-0.294149	-0.380800
C21	C	0.609655	-0.294153	-0.380802
C22	C	0.572541	-0.339107	-0.339176
C23	C	0.606119	-0.384056	-0.297539
C24	C	0.676807	-0.384048	-0.297534
C25	C	0.321045	-0.384087	-0.297561
C26	C	0.250353	-0.384093	-0.297572
C27	C	0.253893	-0.294192	-0.380830
C28	C	0.324580	-0.294184	-0.380824
C29	C	0.358153	-0.339130	-0.339185
C30	C	0.434801	-0.339124	-0.339182
C31	C	0.495893	-0.339117	-0.339183
C32	C	0.957860	-0.521974	-0.346205
C33	C	0.954865	-0.600204	-0.349235
C34	C	0.996768	-0.636950	-0.307414
C35	C	0.993955	-0.710455	-0.310268
C36	C	0.949236	-0.747213	-0.354940
C37	C	0.907332	-0.710462	-0.396767
C38	C	0.910148	-0.636958	-0.393916
C39	C	0.936172	-0.967047	-0.368107
C40	C	0.933357	-1.040557	-0.370954
C41	C	1.019982	-1.040544	-0.284455
C42	C	1.022792	-0.967039	-0.281605
C43	C	0.980890	-0.930294	-0.323434
N44	N	0.946359	-0.822347	-0.357857
N45	N	0.983771	-0.855161	-0.320520
C46	C	1.141546	-0.339133	-0.339193
C47	C	1.216778	-0.339142	-0.339201
C48	C	0.965044	-0.339066	-0.515717
C49	C	0.965061	-0.339047	-0.590948
C50	C	0.972195	-0.155532	-0.332133
C51	C	0.975260	-0.077302	-0.329132
C52	C	1.010116	-0.294035	-0.624571
C53	C	1.010123	-0.294014	-0.695258
C54	C	0.965079	-0.339010	-0.732322
C55	C	0.920020	-0.384024	-0.698695
C56	C	0.920009	-0.384041	-0.628008
C57	C	0.920061	-0.383959	-0.983766
C58	C	0.920076	-0.383940	-1.054457
C59	C	1.010175	-0.293932	-1.051016
C60	C	1.010164	-0.293949	-0.980329
C61	C	0.965103	-0.338960	-0.946708
C62	C	0.965094	-0.338981	-0.870060
C63	C	0.965091	-0.338994	-0.808969
C64	C	0.965006	-0.339103	-0.163319
C65	C	0.965128	-0.338924	-0.088081
H66	H	0.226550	-0.257592	-0.414732
H67	H	1.046813	-0.257362	-0.722631
H68	H	0.582323	-0.257554	-0.414705
C69	C	1.071237	-0.927099	-0.233018
C70	C	1.034552	-0.884976	-0.187953
C71	C	1.079154	-0.848182	-0.143176
H72	H	1.101830	-0.898325	-0.257739
H73	H	1.095778	-0.959492	-0.208480
H74	H	1.010022	-0.852586	-0.212489
H75	H	1.003961	-0.913733	-0.163216
H76	H	1.103695	-0.880576	-0.118638
H77	H	1.109745	-0.819412	-0.167904
H78	H	1.054270	-0.819603	-0.112591
C79	C	0.720516	-0.245265	-0.426020
C80	C	0.675981	-0.205890	-0.462467
C81	C	0.712962	-0.160842	-0.504124
H82	H	0.747057	-0.272147	-0.456561
H83	H	0.749265	-0.214521	-0.399009
H84	H	0.647244	-0.236630	-0.489476
H85	H	0.649439	-0.178993	-0.431943
H86	H	0.741710	-0.130099	-0.477113
H87	H	0.739501	-0.187731	-0.534660
H88	H	0.682750	-0.134117	-0.528853
H89	H	1.046846	-0.257311	-0.950155
H90	H	0.883393	-0.420583	-1.084633
C91	C	0.209935	-0.432874	-0.252445
C92	C	0.140844	-0.423274	-0.261380
C93	C	0.103590	-0.468203	-0.219831
H94	H	0.221818	-0.422552	-0.206558
H95	H	0.219641	-0.480193	-0.264096
H96	H	0.131142	-0.375967	-0.249724
H97	H	0.128941	-0.433602	-0.307258
H98	H	0.113296	-0.515522	-0.231482
H99	H	0.115479	-0.457877	-0.173946
H100	H	0.056708	-0.461700	-0.225892
C101	C	0.357446	-0.433007	-0.252445
C102	C	0.337554	-0.502666	-0.269767
C103	C	0.371080	-0.547753	-0.228224
H104	H	0.346267	-0.422738	-0.206568
H105	H	0.404865	-0.426615	-0.258404
H106	H	0.290145	-0.509054	-0.263803
H107	H	0.348733	-0.512956	-0.315638
H108	H	0.418500	-0.541361	-0.234183
H109	H	0.359899	-0.537478	-0.182349
H110	H	0.357593	-0.595021	-0.239975
H111	H	1.028077	-0.740370	-0.276211
H112	H	0.354795	-0.257580	-0.414723
H113	H	0.870923	-0.740397	-0.433143
H114	H	0.883378	-0.420620	-0.956400
H115	H	1.046864	-0.257279	-1.078399
C116	C	1.065396	-1.080405	-0.238937
C117	C	1.051373	-1.062601	-0.171262
C118	C	1.093193	-1.099314	-0.129312
H119	H	1.111353	-1.068345	-0.248329
H120	H	1.057309	-1.129452	-0.246988
H121	H	1.059466	-1.013565	-0.163214
H122	H	1.005424	-1.074663	-0.161848
H123	H	1.085106	-1.148361	-0.137364
H124	H	1.139148	-1.087251	-0.138711
H125	H	1.083680	-1.087244	-0.083390
H126	H	0.902052	-0.937136	-0.402165
C127	C	0.713300	-0.432733	-0.252246
C128	C	0.755405	-0.392817	-0.207376
C129	C	0.789025	-0.437640	-0.165638
H130	H	0.739745	-0.463446	-0.279188
H131	H	0.681095	-0.459496	-0.227417
H132	H	0.787606	-0.366066	-0.232203
H133	H	0.728977	-0.362106	-0.180420
H134	H	0.756819	-0.464403	-0.140809
H135	H	0.815466	-0.468351	-0.192585
H136	H	0.817592	-0.410563	-0.135185
H137	H	0.575896	-0.420655	-0.263643
H138	H	0.896949	-1.070483	-0.407343
H139	H	0.883342	-0.420658	-0.728878
H140	H	1.033180	-0.607026	-0.271033
C141	C	0.864577	-0.597187	-0.439356
C142	C	0.824799	-0.645109	-0.479078
C143	C	0.782807	-0.608499	-0.520944
H144	H	0.891481	-0.568472	-0.467815
H145	H	0.836160	-0.568567	-0.412347
H146	H	0.853213	-0.673717	-0.506085
H147	H	0.797881	-0.673826	-0.450637
H148	H	0.754390	-0.579879	-0.493935
H149	H	0.809717	-0.579785	-0.549399
H150	H	0.755809	-0.641008	-0.547896
H151	H	1.046798	-0.257396	-0.594398
C152	C	0.871181	-0.433036	-0.591536
C153	C	0.883212	-0.502670	-0.611390
C154	C	0.838251	-0.547825	-0.577798
H155	H	0.826078	-0.422827	-0.602687
H156	H	0.877634	-0.426646	-0.544126
H157	H	0.876754	-0.509056	-0.658789
H158	H	0.928306	-0.512901	-0.600238
H159	H	0.844704	-0.541435	-0.530388
H160	H	0.793151	-0.537609	-0.588952
H161	H	0.846412	-0.595077	-0.591259
