data_functionalizedCrystal
_audit_creation_method	'MofGen! by Chris Wilmer'
_symmetry_space_group_name_H-M	'P1'
_symmetry_Int_Tables_number	1
_symmetry_cell_setting	triclinic
loop_
_symmetry_equiv_pos_as_xyz
  x,y,z
_cell_length_a	17.699077
_cell_length_b	10.654554
_cell_length_c	16.776229
_cell_angle_alpha	89.996441
_cell_angle_beta	89.993415
_cell_angle_gamma	83.883710
loop_
_atom_site_label
_atom_site_type_symbol
_atom_site_fract_x
_atom_site_fract_y
_atom_site_fract_z
O1	O	1.005092	0.158773	-0.066272
O2	O	0.784845	0.179442	-0.066276
O3	O	0.900031	-0.013720	-0.066275
O4	O	0.889907	0.351935	-0.066273
O5	O	0.900015	-0.013732	0.066302
O6	O	0.784829	0.179430	0.066301
O7	O	1.005077	0.158761	0.066304
Zn8	Zn	0.894951	0.169093	0.087352
Zn9	Zn	0.894971	0.169109	-0.087323
O10	O	0.889891	0.351923	0.066303
C11	C	0.756635	0.178696	0.000012
C12	C	0.672603	0.176478	0.000011
C13	C	0.633121	0.175427	0.072279
C14	C	0.554165	0.173323	0.072280
C15	C	0.514692	0.172279	0.000012
C16	C	0.554180	0.173327	-0.072262
C17	C	0.633135	0.175422	-0.072262
C18	C	0.235763	0.164876	-0.072264
C19	C	0.156802	0.162785	-0.072258
C20	C	0.156792	0.162777	0.072278
C21	C	0.235747	0.164872	0.072278
C22	C	0.275229	0.165913	0.000005
C23	C	0.360842	0.168192	0.000005
C24	C	0.429080	0.170009	0.000011
C25	C	0.899279	-0.060511	0.000012
C26	C	0.897053	-0.199915	0.000006
C27	C	0.825047	-0.381214	0.000015
C28	C	0.827138	-0.250229	0.000007
C29	C	0.964880	-0.280594	0.000005
C30	C	0.962788	-0.411576	0.000007
C31	C	0.755128	-0.431520	0.000024
C32	C	0.687300	-0.350851	0.000024
C33	C	0.689391	-0.219866	0.000016
C34	C	0.759310	-0.169550	0.000008
C35	C	1.033286	0.159506	0.000015
C36	C	1.117319	0.161724	0.000011
C37	C	0.890643	0.398714	0.000015
C38	C	0.892869	0.538118	0.000016
N39	N	0.894942	0.169082	0.206563
N40	N	0.894985	0.169110	-0.206534
C41	C	0.945962	0.083585	0.248281
C42	C	0.945967	0.083584	0.331733
C43	C	0.894954	0.169087	0.373466
C44	C	0.843928	0.254588	0.331743
C45	C	0.843921	0.254582	0.248292
C46	C	0.843956	0.254613	0.668290
C47	C	0.843968	0.254615	0.751747
C48	C	0.946001	0.083614	0.751731
C49	C	0.945994	0.083608	0.668280
C50	C	0.894966	0.169105	0.626564
C51	C	0.894961	0.169103	0.536076
C52	C	0.894962	0.169095	0.463953
H53	H	0.665253	0.176287	0.131128
H54	H	0.987549	0.013994	0.785705
H55	H	0.987536	0.013988	0.634303
H56	H	0.987510	0.013965	0.365699
H57	H	1.021806	-0.239616	-0.000013
H58	H	0.124666	0.161934	-0.131111
C59	C	0.788496	0.347553	0.203140
C60	C	0.743836	0.422459	0.257547
C61	C	0.692774	0.508128	0.215983
H62	H	0.756682	0.302588	0.170594
H63	H	0.815972	0.399840	0.170592
H64	H	0.716362	0.370180	0.290081
H65	H	0.775629	0.467452	0.290095
H66	H	0.720250	0.560414	0.183435
H67	H	0.660965	0.463152	0.183438
H68	H	0.662471	0.558969	0.252892
H69	H	0.761008	-0.062892	-0.000002
H70	H	0.802425	0.324244	0.785724
C71	C	1.036506	-0.498960	0.000048
C72	C	1.098186	-0.426873	0.000067
C73	C	1.166108	-0.507327	0.000111
H74	H	1.038662	-0.550711	-0.046172
H75	H	1.038590	-0.550674	0.046299
H76	H	1.096104	-0.375181	-0.046179
H77	H	1.096055	-0.375124	0.046283
H78	H	1.168192	-0.559041	0.046361
H79	H	1.168256	-0.559075	-0.046110
H80	H	1.207966	-0.458428	0.000131
H81	H	0.987506	0.013964	0.214307
H82	H	0.802408	0.324229	0.634331
H83	H	0.802389	0.324202	0.365727
C84	C	0.511265	0.172455	-0.150701
C85	C	0.458002	0.279271	-0.154930
C86	C	0.418463	0.278524	-0.227182
H87	H	0.485785	0.098522	-0.153783
H88	H	0.546060	0.173448	-0.193767
H89	H	0.423213	0.278267	-0.111876
H90	H	0.483463	0.353222	-0.151862
H91	H	0.453257	0.279517	-0.270247
H92	H	0.392987	0.204586	-0.230257
H93	H	0.382324	0.351003	-0.230064
C94	C	0.611369	-0.405403	-0.000137
C95	C	0.570345	-0.364412	-0.068358
C96	C	0.500397	-0.414650	-0.068540
H97	H	0.583316	-0.377730	0.046039
H98	H	0.619804	-0.494970	-0.000175
H99	H	0.561907	-0.274864	-0.068313
H100	H	0.598374	-0.392083	-0.114545
H101	H	0.508832	-0.504217	-0.068578
H102	H	0.472352	-0.386974	-0.022361
H103	H	0.472557	-0.386855	-0.114831
C104	C	0.511415	0.171989	0.150807
C105	C	0.538591	0.064519	0.194416
C106	C	0.499239	0.063254	0.266768
H107	H	0.458731	0.170520	0.140579
H108	H	0.518982	0.245500	0.180540
H109	H	0.531018	-0.008972	0.164689
H110	H	0.591269	0.065965	0.204665
H111	H	0.506806	0.136765	0.296502
H112	H	0.446557	0.061789	0.256533
H113	H	0.517677	-0.009656	0.296369
C114	C	0.278471	0.165935	0.150825
C115	C	0.226997	0.164528	0.214117
C116	C	0.266326	0.165484	0.286487
H117	H	0.303887	0.239934	0.153944
H118	H	0.314646	0.093517	0.153870
H119	H	0.190835	0.236939	0.211074
H120	H	0.201579	0.090535	0.211025
H121	H	0.302502	0.093067	0.289531
H122	H	0.291741	0.239485	0.289598
H123	H	0.231408	0.164518	0.329439
H124	H	0.124637	0.161923	0.131127
H125	H	0.267900	0.165720	-0.131113
H126	H	0.665281	0.176281	-0.131111
H127	H	0.634162	-0.154187	0.000008
H128	H	0.753417	-0.538173	0.000031
