data_functionalizedCrystal
_audit_creation_method	'MofGen! by Chris Wilmer'
_symmetry_space_group_name_H-M	'P1'
_symmetry_Int_Tables_number	1
_symmetry_cell_setting	triclinic
loop_
_symmetry_equiv_pos_as_xyz
  x,y,z
_cell_length_a	8.597187
_cell_length_b	8.634740
_cell_length_c	8.140239
_cell_angle_alpha	89.998579
_cell_angle_beta	82.295481
_cell_angle_gamma	92.880146
loop_
_atom_site_label
_atom_site_type_symbol
_atom_site_fract_x
_atom_site_fract_y
_atom_site_fract_z
O1	O	2.117351	0.230694	-0.436298
O2	O	2.617351	0.730694	0.063702
O3	O	1.663086	0.248388	-0.372004
O4	O	2.163086	0.748388	0.127996
O5	O	1.868715	0.014741	-0.401104
O6	O	2.368715	0.514741	0.098896
O7	O	1.911722	0.464342	-0.407198
O8	O	2.411722	0.964342	0.092802
O9	O	1.868701	0.014738	-0.127875
O10	O	2.368701	0.514738	0.372125
O11	O	1.663072	0.248385	-0.098775
O12	O	2.163072	0.748385	0.401225
O13	O	2.117337	0.230692	-0.163069
O14	O	2.617337	0.730692	0.336931
Zn15	Zn	1.890203	0.239538	-0.087541
Zn16	Zn	2.390203	0.739538	0.412459
Zn17	Zn	1.890221	0.239542	-0.447532
Zn18	Zn	2.390221	0.739542	0.052468
O19	O	1.911708	0.464339	-0.133969
O20	O	2.411708	0.964339	0.366031
C21	C	1.604319	0.246486	-0.227073
C22	C	2.104319	0.746486	0.272927
C23	C	1.429230	0.240803	-0.202292
C24	C	1.929230	0.740803	0.297708
C25	C	1.858966	-0.042857	-0.263113
C26	C	2.358966	0.457143	0.236887
C27	C	1.829917	-0.214479	-0.259009
C28	C	2.329917	0.285521	0.240991
C29	C	2.176104	0.232594	-0.308004
C30	C	2.676104	0.732594	0.191996
C31	C	2.351193	0.238277	-0.332796
C32	C	2.851193	0.738277	0.167204
C33	C	1.921458	0.521937	-0.271964
C34	C	2.421458	1.021937	0.228036
C35	C	1.950506	0.693559	-0.276079
C36	C	2.450506	1.193559	0.223921
N37	N	1.890202	0.239535	0.158142
N38	N	2.390202	0.739535	0.658142
N39	N	1.890232	0.239533	-0.693216
N40	N	2.390232	0.739533	-0.193216
H41	H	1.418338	0.240462	-0.463483
H42	H	1.918338	0.740462	0.036517
Br43	Br	1.620783	-0.302084	-0.229433
Br44	Br	2.120783	0.197916	0.270567
Br45	Br	2.159631	-0.218841	-0.305693
Br46	Br	2.659631	0.281159	0.194307
Br47	Br	1.317338	0.237195	0.015524
Br48	Br	1.817338	0.737195	0.515524
