data_functionalizedCrystal
_audit_creation_method	'MofGen! by Chris Wilmer'
_symmetry_space_group_name_H-M	'P1'
_symmetry_Int_Tables_number	1
_symmetry_cell_setting	triclinic
loop_
_symmetry_equiv_pos_as_xyz
  x,y,z
_cell_length_a	19.805407
_cell_length_b	16.120444
_cell_length_c	19.805398
_cell_angle_alpha	92.870435
_cell_angle_beta	89.986879
_cell_angle_gamma	92.926644
loop_
_atom_site_label
_atom_site_type_symbol
_atom_site_fract_x
_atom_site_fract_y
_atom_site_fract_z
Zn1	Zn	1.021026	-0.331920	-0.396380
Zn2	Zn	1.015213	-0.471341	-0.288930
Zn3	Zn	0.907852	-0.331946	-0.283206
Zn4	Zn	0.902066	-0.471295	-0.402075
O5	O	0.961539	-0.401625	-0.342648
O6	O	1.114971	-0.350424	-0.382139
O7	O	1.000961	-0.452881	-0.193455
O8	O	0.927720	-0.215276	-0.293440
O9	O	1.110700	-0.452856	-0.303196
O10	O	1.010868	-0.215257	-0.376589
O11	O	0.922083	-0.350467	-0.189250
O12	O	0.812369	-0.350422	-0.298962
O13	O	0.917857	-0.452776	-0.496035
O14	O	0.808117	-0.452801	-0.386294
O15	O	1.005257	-0.350378	-0.491851
O16	O	0.995349	-0.588002	-0.308718
O17	O	0.912220	-0.587967	-0.391845
C18	C	0.785684	-0.401610	-0.342625
C19	C	0.710451	-0.401623	-0.342632
C20	C	0.952544	-0.618235	-0.351535
C21	C	0.948758	-0.710901	-0.355360
C22	C	0.672908	-0.455012	-0.388040
C23	C	0.602219	-0.455013	-0.388049
C24	C	0.569076	-0.401629	-0.342648
C25	C	0.606624	-0.348234	-0.297238
C26	C	0.677312	-0.348229	-0.297233
C27	C	0.321550	-0.348253	-0.297262
C28	C	0.250858	-0.348264	-0.297270
C29	C	0.246458	-0.455037	-0.388078
C30	C	0.317145	-0.455032	-0.388072
C31	C	0.354688	-0.401634	-0.342666
C32	C	0.431337	-0.401632	-0.342657
C33	C	0.492428	-0.401635	-0.342653
C34	C	0.981346	-0.921841	-0.322953
C35	C	0.941858	-0.880558	-0.362350
C36	C	0.945699	-0.786152	-0.358459
C37	C	0.977506	-1.016256	-0.326842
C38	C	1.138081	-0.401642	-0.342671
C39	C	1.213313	-0.401649	-0.342681
C40	C	0.961560	-0.401569	-0.519188
C41	C	0.961568	-0.401545	-0.594419
C42	C	0.970588	-0.184170	-0.333740
C43	C	0.974444	-0.091504	-0.329945
C44	C	1.002752	-0.454739	-1.058392
C45	C	1.002732	-0.454762	-0.987705
C46	C	0.961656	-0.401451	-0.950177
C47	C	0.920592	-0.348120	-0.983341
C48	C	0.920609	-0.348102	-1.054027
C49	C	0.920524	-0.348191	-0.698271
C50	C	0.920512	-0.348212	-0.627579
C51	C	1.002648	-0.454851	-0.631948
C52	C	1.002664	-0.454833	-0.702634
C53	C	0.961598	-0.401506	-0.735792
C54	C	0.961618	-0.401483	-0.812440
C55	C	0.961639	-0.401469	-0.873531
C56	C	0.961560	-0.401621	-0.166792
C57	C	0.961693	-0.401411	-0.091551
H58	H	0.699888	-0.498486	-0.425009
O59	O	1.025205	-0.879468	-0.279298
C60	C	1.141426	-0.852542	-0.245414
C61	C	1.091836	-0.900578	-0.294910
H62	H	1.195306	-0.869605	-0.258010
H63	H	1.136819	-0.782847	-0.250029
H64	H	1.128853	-0.869655	-0.191524
H65	H	1.104377	-0.883535	-0.348822
H66	H	1.096452	-0.970260	-0.290236
H67	H	1.036084	-0.498276	-0.604943
H68	H	1.036204	-0.498147	-1.088942
O69	O	0.880541	-0.296401	-0.591227
C70	C	0.799092	-0.190599	-0.594348
C71	C	0.844310	-0.249241	-0.635599
H72	H	0.769798	-0.152443	-0.630205
H73	H	0.762063	-0.228848	-0.562836
H74	H	0.831981	-0.147050	-0.559455
H75	H	0.811476	-0.292802	-0.670530
H76	H	0.881344	-0.210941	-0.667067
O77	O	1.042647	-0.506497	-0.739110
C78	C	1.133561	-0.517696	-0.819401
C79	C	1.088335	-0.459090	-0.778122
H80	H	1.170501	-0.479391	-0.850964
H81	H	1.162954	-0.555799	-0.783585
H82	H	1.100669	-0.561297	-0.854251
H83	H	1.121177	-0.415438	-0.743270
H84	H	1.058938	-0.421045	-0.813977
H85	H	0.344127	-0.498505	-0.425041
O86	O	0.713751	-0.296461	-0.253028
C87	C	0.737005	-0.255777	-0.136279
C88	C	0.695706	-0.314472	-0.186265
H89	H	0.722421	-0.270306	-0.082291
H90	H	0.793228	-0.264947	-0.144016
H91	H	0.725909	-0.188576	-0.145532
H92	H	0.706744	-0.381696	-0.177043
H93	H	0.639496	-0.305230	-0.178516
O94	O	1.042687	-0.506585	-0.955600
C95	C	1.124143	-0.612376	-0.967394
C96	C	1.078936	-0.553716	-1.003837
H97	H	1.153452	-0.650509	-1.006377
H98	H	1.161159	-0.574143	-0.932755
H99	H	1.091245	-0.655946	-0.936063
H100	H	1.111781	-0.510134	-1.035204
H101	H	1.041916	-0.592000	-1.038434
O102	O	0.210015	-0.507020	-0.432129
C103	C	0.182547	-0.648885	-0.470652
C104	C	0.223840	-0.590112	-0.420718
H105	H	0.193720	-0.716076	-0.461454
H106	H	0.126319	-0.639793	-0.462866
H107	H	0.197067	-0.634285	-0.524642
H108	H	0.209378	-0.604675	-0.366708
H109	H	0.280057	-0.599215	-0.428563
H110	H	0.887084	-0.304770	-0.725259
H111	H	0.887144	-0.304717	-0.952781
H112	H	0.887174	-0.304676	-1.081024
H113	H	0.571654	-0.498489	-0.425024
H114	H	0.223874	-0.304787	-0.260298
O115	O	0.897992	-0.922882	-0.406034
C116	C	0.781753	-0.949873	-0.439830
C117	C	0.831357	-0.901871	-0.390329
H118	H	0.727867	-0.932916	-0.427142
H119	H	0.794221	-0.932740	-0.493740
H120	H	0.786450	-1.019553	-0.435227
H121	H	0.826688	-0.832179	-0.394872
H122	H	0.818875	-0.919073	-0.336440
H123	H	0.579633	-0.304764	-0.260275
O124	O	0.357910	-0.296357	-0.253091
C125	C	0.354809	-0.190406	-0.163052
C126	C	0.313546	-0.249154	-0.213029
H127	H	0.318959	-0.152215	-0.130659
H128	H	0.386294	-0.228574	-0.129125
H129	H	0.389732	-0.146895	-0.192413
H130	H	0.278586	-0.292677	-0.183724
H131	H	0.282106	-0.210935	-0.246956
