data_functionalizedCrystal
_audit_creation_method	'MofGen! by Chris Wilmer'
_symmetry_space_group_name_H-M	'P1'
_symmetry_Int_Tables_number	1
_symmetry_cell_setting	triclinic
loop_
_symmetry_equiv_pos_as_xyz
  x,y,z
_cell_length_a	19.805407
_cell_length_b	18.050589
_cell_length_c	18.050582
_cell_angle_alpha	89.981795
_cell_angle_beta	89.984143
_cell_angle_gamma	90.028221
loop_
_atom_site_label
_atom_site_type_symbol
_atom_site_fract_x
_atom_site_fract_y
_atom_site_fract_z
Zn1	Zn	1.034702	-0.295707	-0.419954
Zn2	Zn	1.034621	-0.419890	-0.295773
Zn3	Zn	0.921524	-0.295718	-0.295776
Zn4	Zn	0.921477	-0.419859	-0.419920
O5	O	0.978081	-0.357794	-0.357855
O6	O	1.129408	-0.312188	-0.403494
O7	O	1.019604	-0.403436	-0.191849
O8	O	0.936592	-0.191792	-0.312264
O9	O	1.129348	-0.403425	-0.312259
O10	O	1.019743	-0.191784	-0.403497
O11	O	0.936513	-0.312208	-0.191851
O12	O	0.826801	-0.312178	-0.312230
O13	O	0.936511	-0.403373	-0.523849
O14	O	0.826767	-0.403384	-0.403438
O15	O	1.019697	-0.312158	-0.523874
O16	O	1.019558	-0.523810	-0.312226
O17	O	0.936432	-0.523788	-0.403436
C18	C	0.802225	-0.357779	-0.357831
C19	C	0.726993	-0.357791	-0.357839
C20	C	0.977999	-0.550746	-0.357843
C21	C	0.978026	-0.633291	-0.357863
C22	C	0.691649	-0.405354	-0.405254
C23	C	0.620960	-0.405355	-0.405264
C24	C	0.585618	-0.357797	-0.357855
C25	C	0.620967	-0.310229	-0.310438
C26	C	0.691654	-0.310225	-0.310432
C27	C	0.335894	-0.310246	-0.310463
C28	C	0.265202	-0.310255	-0.310471
C29	C	0.265200	-0.405376	-0.405295
C30	C	0.335887	-0.405371	-0.405289
C31	C	0.371230	-0.357801	-0.357875
C32	C	0.447879	-0.357799	-0.357865
C33	C	0.508970	-0.357802	-0.357861
C34	C	0.932867	-0.832757	-0.407445
C35	C	0.916372	-0.882191	-0.339678
C36	C	0.978093	-0.784422	-0.357872
C37	C	0.994620	-0.882070	-0.425648
C38	C	0.978156	-0.930407	-0.357888
C39	C	0.961566	-0.832769	-0.290069
C40	C	1.039843	-0.832643	-0.376085
C41	C	1.023372	-0.882055	-0.308270
C42	C	0.978055	-0.700324	-0.357865
C43	C	0.978194	-1.014503	-0.357888
C44	C	1.154624	-0.357808	-0.357880
C45	C	1.229856	-0.357815	-0.357890
C46	C	0.978108	-0.357761	-0.551561
C47	C	0.978119	-0.357747	-0.634107
C48	C	0.978182	-0.164088	-0.357884
C49	C	0.978224	-0.081542	-0.357896
C50	C	0.932917	-0.407281	-0.833544
C51	C	0.994669	-0.425435	-0.882938
C52	C	0.978152	-0.357690	-0.785237
C53	C	0.916434	-0.339516	-0.882925
C54	C	0.978179	-0.357637	-0.931223
C55	C	1.039937	-0.375879	-0.833544
C56	C	0.961661	-0.289928	-0.833527
C57	C	1.023455	-0.308056	-0.882899
C58	C	0.978136	-0.357723	-0.701139
C59	C	0.978202	-0.357604	-1.015319
C60	C	0.978094	-0.357773	-0.164903
C61	C	0.978214	-0.357578	-0.082358
H62	H	0.720419	-0.444083	-0.443857
Br63	Br	1.017948	-0.520906	-0.919112
H64	H	0.864229	-0.324166	-0.904617
Br65	Br	1.087167	-0.917906	-0.238332
Br66	Br	1.126974	-0.401578	-0.797548
Br67	Br	0.829381	-0.918462	-0.314002
Br68	Br	0.383848	-0.469921	-0.469627
H69	H	1.092022	-0.810865	-0.391507
H70	H	0.720431	-0.271491	-0.271826
Br71	Br	0.572995	-0.469905	-0.469618
H72	H	0.236415	-0.444107	-0.443905
Br73	Br	0.573003	-0.245678	-0.246104
Br74	Br	0.938211	-0.796829	-0.194518
H75	H	1.008574	-0.903725	-0.482959
Br76	Br	0.869216	-0.477267	-0.797422
Br77	Br	1.087303	-0.238118	-0.918795
H78	H	0.236428	-0.271523	-0.271865
Br79	Br	0.869031	-0.796675	-0.477222
Br80	Br	0.383851	-0.245682	-0.246119
Br81	Br	0.938355	-0.194481	-0.797323
