data_functionalizedCrystal
_audit_creation_method	'MofGen! by Chris Wilmer'
_symmetry_space_group_name_H-M	'P1'
_symmetry_Int_Tables_number	1
_symmetry_cell_setting	triclinic
loop_
_symmetry_equiv_pos_as_xyz
  x,y,z
_cell_length_a	13.033293
_cell_length_b	16.625539
_cell_length_c	13.032721
_cell_angle_alpha	97.155047
_cell_angle_beta	105.184121
_cell_angle_gamma	82.793394
loop_
_atom_site_label
_atom_site_type_symbol
_atom_site_fract_x
_atom_site_fract_y
_atom_site_fract_z
Zn1	Zn	1.570163	-0.631277	-0.216855
Zn2	Zn	1.547489	-0.511621	-0.394493
Zn3	Zn	1.392537	-0.481233	-0.239421
Zn4	Zn	1.369942	-0.631185	-0.416961
O5	O	1.470033	-0.563829	-0.316933
O6	O	1.715796	-0.628161	-0.221572
O7	O	1.526902	-0.394759	-0.373964
O8	O	1.435045	-0.488458	-0.087785
O9	O	1.699138	-0.540250	-0.352082
O10	O	1.565546	-0.598695	-0.071205
O11	O	1.413059	-0.372433	-0.260033
O12	O	1.240899	-0.488368	-0.281819
O13	O	1.396534	-0.744029	-0.390375
O14	O	1.224298	-0.598537	-0.412257
O15	O	1.543636	-0.744097	-0.243358
O16	O	1.504992	-0.540160	-0.546117
O17	O	1.374548	-0.628003	-0.562624
C18	C	1.194057	-0.540146	-0.351925
C19	C	1.075991	-0.530035	-0.366921
C20	C	1.031582	-0.569108	-0.309133
C21	C	0.909554	-0.558659	-0.324630
C22	C	1.470094	-0.774137	-0.316856
C23	C	1.470120	-0.863757	-0.316823
C24	C	1.470140	-0.936539	-0.316797
C25	C	1.470170	-1.027846	-0.316755
C26	C	1.470200	-1.100622	-0.316714
C27	C	1.470231	-1.191935	-0.316672
C28	C	1.747086	-0.587606	-0.281804
C29	C	1.865149	-0.597738	-0.266834
C30	C	1.434887	-0.587389	-0.592908
C31	C	1.419948	-0.597504	-0.710959
C32	C	1.470043	-0.354339	-0.316925
C33	C	1.470261	-0.264711	-0.316632
C34	C	1.477886	-0.558592	-0.755381
C35	C	1.462447	-0.569044	-0.877393
C36	C	1.505345	-0.540197	-0.039876
C37	C	1.520393	-0.530127	0.078189
H38	H	0.917466	-0.638924	-0.205877
O39	O	1.601250	-0.475745	-0.852557
H40	H	1.600688	-0.476064	-0.767592
O41	O	1.006701	-0.475473	-0.447657
H42	H	0.921728	-0.475832	-0.447164
H43	H	0.857237	-0.517467	-0.385580
O44	O	1.339099	-0.651880	-0.780231
H45	H	1.359940	-0.714923	-0.756641
O46	O	1.558742	-0.504223	-0.686105
H47	H	1.537918	-0.441179	-0.709695
O48	O	1.100872	-0.623668	-0.228395
H49	H	1.185844	-0.623316	-0.228896
H50	H	1.401415	-0.610103	-0.929686
