data_functionalizedCrystal
_audit_creation_method	'MofGen! by Chris Wilmer'
_symmetry_space_group_name_H-M	'P1'
_symmetry_Int_Tables_number	1
_symmetry_cell_setting	triclinic
loop_
_symmetry_equiv_pos_as_xyz
  x,y,z
_cell_length_a	10.654551
_cell_length_b	16.109301
_cell_length_c	14.586319
_cell_angle_alpha	90.005214
_cell_angle_beta	89.997068
_cell_angle_gamma	96.026624
loop_
_atom_site_label
_atom_site_type_symbol
_atom_site_fract_x
_atom_site_fract_y
_atom_site_fract_z
O1	O	1.666255	-0.116776	-0.076232
O2	O	2.166255	0.383224	0.423768
O3	O	1.300625	-0.127901	-0.076237
O4	O	1.800625	0.372099	0.423763
O5	O	1.493484	-0.001367	-0.076225
O6	O	1.993484	0.498633	0.423775
O7	O	1.473396	-0.243310	-0.076244
O8	O	1.973396	0.256690	0.423756
O9	O	1.493471	-0.001366	0.076256
O10	O	1.993471	0.498634	0.576256
O11	O	1.300612	-0.127899	0.076244
O12	O	1.800612	0.372101	0.576244
O13	O	1.666241	-0.116774	0.076249
O14	O	2.166241	0.383226	0.576249
Cu15	Cu	1.483425	-0.122337	0.090169
Cu16	Cu	1.983425	0.377663	0.590169
Cu17	Cu	1.483441	-0.122339	-0.090157
Cu18	Cu	1.983441	0.377661	0.409843
O19	O	1.473383	-0.243308	0.076237
O20	O	1.973383	0.256692	0.576237
C21	C	1.253832	-0.127083	0.000003
C22	C	1.753832	0.372917	0.500003
C23	C	1.114422	-0.124639	0.000002
C24	C	1.614422	0.375361	0.500002
N25	N	1.483423	-0.122334	0.217001
N26	N	1.983423	0.377666	0.717001
C27	C	1.492664	0.029613	0.000016
C28	C	1.992664	0.529613	0.500016
C29	C	1.490224	0.121923	0.000017
C30	C	1.990224	0.621923	0.500017
C31	C	0.917930	-0.121184	0.083120
C32	C	1.417930	0.378816	0.583120
C33	C	1.048919	-0.123488	0.083121
C34	C	1.548919	0.376512	0.583121
C35	C	1.048927	-0.123494	-0.083122
C36	C	1.548927	0.376506	0.416878
C37	C	0.917940	-0.121196	-0.083122
C38	C	1.417940	0.378804	0.416878
C39	C	0.852435	-0.120024	0.166244
C40	C	1.352435	0.379976	0.666244
C41	C	0.917920	-0.121170	0.249369
C42	C	1.417920	0.378830	0.749369
C43	C	1.048909	-0.123474	0.249369
C44	C	1.548909	0.376526	0.749369
C45	C	1.114413	-0.124632	0.166245
C46	C	1.614413	0.375368	0.666245
C47	C	1.713035	-0.117592	0.000007
C48	C	2.213035	0.382408	0.500007
C49	C	1.852445	-0.120037	0.000002
C50	C	2.352445	0.379963	0.500002
C51	C	1.474203	-0.274289	-0.000006
C52	C	1.974203	0.225711	0.499994
C53	C	1.476643	-0.366599	-0.000013
C54	C	1.976643	0.133401	0.499987
C55	C	1.598990	0.343549	0.000004
C56	C	2.098990	0.843549	0.500004
C57	C	1.596688	0.430283	-0.000003
C58	C	2.096688	0.930283	0.499997
C59	C	1.367868	0.411769	-0.000003
C60	C	1.867868	0.911769	0.499997
C61	C	1.370171	0.325037	-0.000002
C62	C	1.870171	0.825037	0.499998
C63	C	1.485736	0.290929	0.000006
C64	C	1.985736	0.790929	0.500006
C65	C	1.481131	0.464396	-0.000002
C66	C	1.981131	0.964396	0.499998
C67	C	1.478634	0.558436	-0.000010
C68	C	1.978634	1.058436	0.499990
C69	C	1.488234	0.196882	0.000013
C70	C	1.988234	0.696882	0.500013
N71	N	1.483453	-0.122334	-0.216989
N72	N	1.983453	0.377666	0.283011
C73	C	1.568850	-0.066325	0.452013
C74	C	2.068850	0.433675	0.952013
C75	C	1.568853	-0.066323	0.547994
C76	C	2.068853	0.433677	1.047994
C77	C	1.398018	-0.178347	0.547993
C78	C	1.898018	0.321653	1.047993
C79	C	1.398009	-0.178344	0.452013
C80	C	1.898009	0.321656	0.952013
C81	C	1.483432	-0.122334	0.404026
C82	C	1.983432	0.377666	0.904026
C83	C	1.483444	-0.122335	0.595987
C84	C	1.983444	0.377665	1.095987
C85	C	1.483448	-0.122333	0.700054
C86	C	1.983448	0.377667	1.200054
C87	C	1.483428	-0.122335	0.299952
C88	C	1.983428	0.377665	0.799952
H89	H	0.745777	-0.118147	0.166254
H90	H	1.245777	0.381853	0.666254
H91	H	1.693091	0.315781	0.000009
H92	H	2.193091	0.815781	0.500009
H93	H	1.638404	-0.020716	0.412943
H94	H	2.138404	0.479284	0.912943
H95	H	1.102271	-0.124437	-0.150798
H96	H	1.602271	0.375563	0.349202
Br97	Br	0.829058	-0.119647	-0.195926
Br98	Br	1.329058	0.380353	0.304074
H99	H	1.328446	-0.223954	0.412940
H100	H	1.828446	0.276046	0.912940
H101	H	1.328470	-0.223951	0.587074
H102	H	1.828470	0.276049	1.087074
H103	H	0.864577	-0.120234	0.317046
H104	H	1.364577	0.379766	0.817046
H105	H	1.102222	-0.124416	0.317053
H106	H	1.602222	0.375584	0.817053
H107	H	1.638406	-0.020713	0.587062
H108	H	2.138406	0.479287	1.087062
H109	H	1.688911	0.473123	-0.000007
H110	H	2.188911	0.973123	0.499993
Br111	Br	1.292183	-0.127770	0.166247
Br112	Br	1.792183	0.372230	0.666247
H113	H	1.273779	0.439551	-0.000007
H114	H	1.773779	0.939551	0.499993
H115	H	1.277940	0.282191	-0.000003
H116	H	1.777940	0.782191	0.499997
