data_functionalizedCrystal
_audit_creation_method	'MofGen! by Chris Wilmer'
_symmetry_space_group_name_H-M	'P1'
_symmetry_Int_Tables_number	1
_symmetry_cell_setting	triclinic
loop_
_symmetry_equiv_pos_as_xyz
  x,y,z
_cell_length_a	6.394989
_cell_length_b	10.654550
_cell_length_c	9.730223
_cell_angle_alpha	89.999957
_cell_angle_beta	89.998669
_cell_angle_gamma	85.491321
loop_
_atom_site_label
_atom_site_type_symbol
_atom_site_fract_x
_atom_site_fract_y
_atom_site_fract_z
O1	O	0.293441	1.670947	-0.114177
O2	O	0.321399	1.305765	-0.114201
O3	O	0.003431	1.493539	-0.114190
O4	O	0.611409	1.483172	-0.114188
O5	O	0.003422	1.493527	0.114390
O6	O	0.321390	1.305752	0.114379
O7	O	0.293433	1.670934	0.114403
Zn8	Zn	0.307410	1.488341	0.150683
Zn9	Zn	0.307421	1.488358	-0.150481
O10	O	0.611400	1.483160	0.114392
C11	C	0.319341	1.258939	0.000085
C12	C	0.313200	1.119430	0.000076
C13	C	0.500414	1.041927	0.000080
C14	C	0.494631	0.910845	0.000104
C15	C	0.114403	0.934782	0.000113
C16	C	0.120188	1.065861	0.000099
N17	N	0.307401	1.488339	0.356219
C18	C	0.689256	1.485216	0.000096
C19	C	0.925582	1.491480	0.000092
C20	C	0.295490	1.717760	0.000113
C21	C	0.301631	1.857269	0.000114
N22	N	0.307414	1.488369	-0.356018
C23	C	0.166665	1.571516	0.428150
C24	C	0.166665	1.571528	0.572033
C25	C	0.448157	1.405184	0.572041
C26	C	0.448144	1.405166	0.428161
H27	H	0.647080	0.847747	0.000111
C28	C	0.732048	1.382378	0.266332
C29	C	0.602860	1.313736	0.349082
H30	H	0.827545	1.325931	0.217508
H31	H	0.808014	1.435841	0.322450
H32	H	0.648193	1.431898	0.202902
H33	H	0.686714	1.264223	0.412520
H34	H	0.526888	1.260251	0.292960
H35	H	0.657577	1.085539	0.000072
C36	C	0.567453	1.189679	0.616382
C37	C	0.602858	1.313769	0.651131
H38	H	0.662955	1.133245	0.665216
H39	H	0.587600	1.177769	0.520411
H40	H	0.427796	1.173862	0.639978
H41	H	0.742511	1.329589	0.627526
H42	H	0.582729	1.325684	0.747124
C43	C	-0.063297	0.744473	0.000125
C44	C	-0.097749	0.875893	0.000121
H45	H	-0.194276	0.708123	0.000118
H46	H	0.013849	0.718086	0.079832
H47	H	0.013874	0.718082	-0.079590
H48	H	-0.174907	0.902284	0.079841
H49	H	-0.174928	0.902290	-0.079595
H50	H	0.052063	1.639256	0.630595
H51	H	-0.032274	1.128967	0.000099
C52	C	-0.111593	1.735928	0.442599
C53	C	0.011942	1.662925	0.349070
H54	H	-0.207126	1.792354	0.393778
H55	H	-0.023924	1.782490	0.498700
H56	H	-0.187539	1.682448	0.498734
H57	H	0.087900	1.716406	0.292942
H58	H	-0.075739	1.616361	0.292945
