data_functionalizedCrystal
_audit_creation_method	'MofGen! by Chris Wilmer'
_symmetry_space_group_name_H-M	'P1'
_symmetry_Int_Tables_number	1
_symmetry_cell_setting	triclinic
loop_
_symmetry_equiv_pos_as_xyz
  x,y,z
_cell_length_a	19.288864
_cell_length_b	16.109301
_cell_length_c	18.366186
_cell_angle_alpha	89.992337
_cell_angle_beta	89.977106
_cell_angle_gamma	83.298863
loop_
_atom_site_label
_atom_site_type_symbol
_atom_site_fract_x
_atom_site_fract_y
_atom_site_fract_z
O1	O	0.921600	0.103716	-0.060785
O2	O	1.254934	0.437049	0.272548
O3	O	1.588267	0.770383	0.605881
O4	O	0.719373	0.117707	-0.060736
O5	O	1.052706	0.451040	0.272597
O6	O	1.386040	0.784374	0.605931
O7	O	0.826042	-0.010339	-0.060755
O8	O	1.159375	0.322995	0.272579
O9	O	1.492709	0.656328	0.605912
O10	O	0.814931	0.231761	-0.060767
O11	O	1.148265	0.565095	0.272567
O12	O	1.481598	0.898428	0.605900
O13	O	0.826024	-0.010345	0.060345
O14	O	1.159357	0.322988	0.393678
O15	O	1.492691	0.656322	0.727011
O16	O	0.719355	0.117701	0.060363
O17	O	1.052688	0.451034	0.393697
O18	O	1.386022	0.784367	0.727030
O19	O	0.921582	0.103710	0.060314
O20	O	1.254916	0.437043	0.393647
O21	O	1.588249	0.770376	0.726981
Zn22	Zn	0.820466	0.110704	0.079566
Zn23	Zn	1.153799	0.444037	0.412899
Zn24	Zn	1.487132	0.777371	0.746232
Zn25	Zn	0.820490	0.110712	-0.079988
Zn26	Zn	1.153823	0.444046	0.253345
Zn27	Zn	1.487156	0.777379	0.586679
O28	O	0.814913	0.231755	0.060333
O29	O	1.148247	0.565088	0.393666
O30	O	1.481580	0.898422	0.726999
C31	C	0.693487	0.117254	-0.000180
C32	C	1.026820	0.450587	0.333153
C33	C	1.360153	0.783920	0.666487
C34	C	0.616380	0.115902	-0.000161
C35	C	0.949713	0.449236	0.333173
C36	C	1.283046	0.782569	0.666506
C37	C	0.825583	-0.041315	-0.000205
C38	C	1.158916	0.292018	0.333129
C39	C	1.492250	0.625352	0.666462
C40	C	0.824234	-0.133606	-0.000203
C41	C	1.157567	0.199728	0.333130
C42	C	1.490900	0.533061	0.666464
C43	C	0.571863	0.191034	-0.000176
C44	C	0.905196	0.524367	0.333157
C45	C	1.238530	0.857700	0.666491
C46	C	0.499413	0.189764	-0.000184
C47	C	0.832746	0.523097	0.333149
C48	C	1.166079	0.856431	0.666483
C49	C	0.471483	0.113359	-0.000191
C50	C	0.804816	0.446692	0.333142
C51	C	1.138149	0.780025	0.666475
C52	C	0.516009	0.038218	-0.000172
C53	C	0.849343	0.371551	0.333161
C54	C	1.182676	0.704884	0.666495
C55	C	0.588458	0.039489	-0.000157
C56	C	0.921791	0.372823	0.333177
C57	C	1.255125	0.706156	0.666510
C58	C	0.363084	0.053298	-0.042639
C59	C	0.696417	0.386631	0.290694
C60	C	1.029750	0.719965	0.624027
C61	C	0.290636	0.052029	-0.042659
C62	C	0.623970	0.385363	0.290674
C63	C	0.957303	0.718696	0.624008
C64	C	0.248028	0.109433	-0.000235
C65	C	0.581361	0.442766	0.333098
C66	C	0.914694	0.776100	0.666431
C67	C	0.277874	0.168120	0.042199
C68	C	0.611208	0.501453	0.375532
C69	C	0.944541	0.834786	0.708866
C70	C	0.350323	0.169391	0.042214
C71	C	0.683656	0.502725	0.375548
C72	C	1.016989	0.836058	0.708881
C73	C	0.392925	0.111971	-0.000207
C74	C	0.726259	0.445305	0.333126
C75	C	1.059592	0.778638	0.666459
C76	C	0.124952	0.183193	-0.000258
C77	C	0.458285	0.516526	0.333075
C78	C	0.791618	0.849860	0.666409
C79	C	0.052501	0.181920	-0.000262
C80	C	0.385834	0.515254	0.333072
C81	C	0.719167	0.848587	0.666405
C82	C	0.069099	0.030372	-0.000257
C83	C	0.402432	0.363705	0.333076
C84	C	0.735766	0.697038	0.666410
C85	C	0.141548	0.031647	-0.000246
C86	C	0.474882	0.364980	0.333087
C87	C	0.808215	0.698313	0.666421
C88	C	0.169470	0.108060	-0.000250
C89	C	0.502804	0.441393	0.333083
C90	C	0.836137	0.774726	0.666417
C91	C	0.884391	-0.356084	-0.000229
C92	C	1.217725	-0.022751	0.333104
C93	C	1.551058	0.310583	0.666437
C94	C	0.883118	-0.442800	-0.000235
C95	C	1.216452	-0.109467	0.333098
C96	C	1.549785	0.223867	0.666432
C97	C	0.756559	-0.422493	-0.000201
C98	C	1.089892	-0.089159	0.333132
C99	C	1.423226	0.244174	0.666465
C100	C	0.757833	-0.335778	-0.000201
C101	C	1.091166	-0.002445	0.333133
C102	C	1.424500	0.330888	0.666466
C103	C	0.821751	-0.302577	-0.000211
C104	C	1.155085	0.030757	0.333122
C105	C	1.488418	0.364090	0.666456
C106	C	0.819204	-0.476007	-0.000217
C107	C	1.152537	-0.142674	0.333116
C108	C	1.485871	0.190660	0.666449
C109	C	0.817823	-0.570028	-0.000223
C110	C	1.151156	-0.236695	0.333110
C111	C	1.484490	0.096638	0.666443
C112	C	0.823133	-0.208549	-0.000206
C113	C	1.156466	0.124784	0.333127
C114	C	1.489799	0.458117	0.666460
C115	C	0.947469	0.104163	-0.000244
C116	C	1.280802	0.437496	0.333090
C117	C	1.614136	0.770830	0.666423
C118	C	1.024576	0.105514	-0.000268
C119	C	1.357909	0.438848	0.333066
C120	C	1.691242	0.772181	0.666399
C121	C	0.815372	0.262732	-0.000219
C122	C	1.148706	0.596065	0.333114
C123	C	1.482039	0.929398	0.666448
C124	C	0.816722	0.355022	-0.000225
C125	C	1.150055	0.688356	0.333108
C126	C	1.483388	1.021689	0.666441
N127	N	0.820455	0.110698	0.188457
N128	N	1.153788	0.444031	0.521790
N129	N	1.487121	0.777365	0.855124
N130	N	0.820506	0.110712	-0.188879
N131	N	1.153840	0.444045	0.144454
N132	N	1.487173	0.777379	0.477788
C133	C	0.867703	0.054027	0.226549
C134	C	1.201036	0.387361	0.559882
C135	C	1.534370	0.720694	0.893216
C136	C	0.867707	0.054023	0.302777
C137	C	1.201041	0.387357	0.636110
C138	C	1.534374	0.720690	0.969444
C139	C	0.820470	0.110705	0.340910
C140	C	1.153803	0.444038	0.674243
C141	C	1.487137	0.777372	1.007576
C142	C	0.773213	0.167380	0.302808
C143	C	1.106546	0.500713	0.636142
C144	C	1.439879	0.834047	0.969475
C145	C	0.773205	0.167377	0.226582
C146	C	1.106538	0.500710	0.559915
C147	C	1.439871	0.834043	0.893249
C148	C	0.811353	0.186459	0.461668
C149	C	1.144686	0.519792	0.795001
C150	C	1.478019	0.853125	1.128334
C151	C	0.811365	0.186463	0.537893
C152	C	1.144698	0.519796	0.871226
C153	C	1.478032	0.853130	1.204559
C154	C	0.820490	0.110715	0.576017
C155	C	1.153823	0.444049	0.909351
C156	C	1.487156	0.777382	1.242684
C157	C	0.829616	0.034960	0.537908
C158	C	1.162950	0.368293	0.871241
C159	C	1.496283	0.701626	1.204574
C160	C	0.829609	0.034956	0.461681
C161	C	1.162942	0.368290	0.795014
C162	C	1.496275	0.701623	1.128348
C163	C	0.820473	0.110715	0.423564
C164	C	1.153806	0.444048	0.756898
C165	C	1.487139	0.777381	1.090231
C166	C	0.867746	0.054036	0.696764
C167	C	1.201079	0.387369	1.030098
C168	C	1.534412	0.720702	1.363431
C169	C	0.867745	0.054031	0.772993
C170	C	1.201078	0.387364	1.106327
C171	C	1.534412	0.720698	1.439660
C172	C	0.773254	0.167395	0.773023
C173	C	1.106587	0.500728	1.106357
C174	C	1.439920	0.834061	1.439690
C175	C	0.773251	0.167392	0.696796
C176	C	1.106584	0.500726	1.030129
C177	C	1.439917	0.834059	1.363462
C178	C	0.820500	0.110714	0.658671
C179	C	1.153834	0.444047	0.992004
C180	C	1.487167	0.777380	1.325337
H181	H	0.594592	0.253255	-0.000181
H182	H	0.927925	0.586588	0.333153
H183	H	1.261258	0.919922	0.666486
F184	F	0.382085	0.231845	0.087377
F185	F	0.715419	0.565179	0.420710
F186	F	1.048752	0.898512	0.754043
F187	F	0.917999	-0.006296	0.343324
F188	F	1.251332	0.327037	0.676657
F189	F	1.584665	0.660370	1.009991
F190	F	0.691159	-0.278828	-0.000187
F191	F	1.024492	0.054505	0.333147
F192	F	1.357826	0.387839	0.666480
F193	F	0.949789	-0.499743	-0.000256
F194	F	1.283122	-0.166410	0.333077
F195	F	1.616455	0.166923	0.666411
H196	H	0.704519	-0.449537	-0.000191
H197	H	1.037852	-0.116203	0.333142
H198	H	1.371186	0.217130	0.666475
H199	H	0.906175	0.007874	0.195510
H200	H	1.239508	0.341208	0.528843
H201	H	1.572841	0.674541	0.862177
F202	F	0.635838	-0.040479	-0.000140
F203	F	0.969172	0.292854	0.333193
F204	F	1.302505	0.626187	0.666526
F205	F	0.722937	0.227702	0.343392
F206	F	1.056270	0.561035	0.676726
F207	F	1.389603	0.894368	1.010059
F208	F	0.452026	0.269732	-0.000198
F209	F	0.785359	0.603065	0.333135
F210	F	1.118692	0.936399	0.666468
F211	F	0.839316	-0.045666	0.421125
F212	F	1.172649	0.287668	0.754458
F213	F	1.505983	0.621001	1.087791
H214	H	0.837046	-0.026722	0.568947
H215	H	1.170379	0.306612	0.902280
H216	H	1.503713	0.639945	1.235614
H217	H	0.266341	0.004247	-0.077214
H218	H	0.599674	0.337580	0.256119
H219	H	0.933007	0.670913	0.589452
H220	H	0.734729	0.213526	0.195567
H221	H	1.068062	0.546859	0.528900
H222	H	1.401395	0.880192	0.862233
F223	F	0.918030	-0.006290	0.656188
F224	F	1.251363	0.327044	0.989521
F225	F	1.584697	0.660377	1.322855
H226	H	0.177795	-0.029534	-0.000238
H227	H	0.511129	0.303800	0.333096
H228	H	0.844462	0.637133	0.666429
H229	H	0.397770	0.006551	-0.077190
H230	H	0.731104	0.339885	0.256143
H231	H	1.064437	0.673218	0.589476
F232	F	0.005121	0.261890	-0.000274
F233	F	0.338455	0.595223	0.333059
F234	F	0.671788	0.928556	0.666393
H235	H	0.906218	0.007878	0.804009
H236	H	1.239552	0.341212	1.137342
H237	H	1.572885	0.674545	1.470675
H238	H	0.243184	0.214863	0.076745
H239	H	0.576517	0.548196	0.410079
H240	H	0.909850	0.881530	0.743412
H241	H	0.734789	0.213542	0.804071
H242	H	1.068123	0.546876	1.137404
H243	H	1.401456	0.880209	1.470737
F244	F	0.722965	0.227713	0.656252
F245	F	1.056299	0.561046	0.989585
F246	F	1.389632	0.894379	1.322919
F247	F	0.801691	0.267087	0.421100
F248	F	1.135024	0.600420	0.754433
F249	F	1.468358	0.933754	1.087766
F250	F	0.154671	0.264517	-0.000257
F251	F	0.488004	0.597850	0.333077
F252	F	0.821337	0.931184	0.666410
F253	F	0.039379	-0.050945	-0.000258
F254	F	0.372712	0.282388	0.333076
F255	F	0.706045	0.615721	0.666409
F256	F	0.801657	0.267088	0.578445
F257	F	1.134990	0.600421	0.911778
F258	F	1.468323	0.933755	1.245111
F259	F	0.486284	-0.043098	-0.000176
F260	F	0.819617	0.290235	0.333157
F261	F	1.152950	0.623568	0.666490
H262	H	0.936438	-0.329054	-0.000239
H263	H	1.269771	0.004279	0.333094
H264	H	1.603104	0.337612	0.666427
