data_functionalizedCrystal
_audit_creation_method	'MofGen! by Chris Wilmer'
_symmetry_space_group_name_H-M	'P1'
_symmetry_Int_Tables_number	1
_symmetry_cell_setting	triclinic
loop_
_symmetry_equiv_pos_as_xyz
  x,y,z
_cell_length_a	15.995292
_cell_length_b	15.995292
_cell_length_c	12.503572
_cell_angle_alpha	93.525692
_cell_angle_beta	86.481317
_cell_angle_gamma	83.468616
loop_
_atom_site_label
_atom_site_type_symbol
_atom_site_fract_x
_atom_site_fract_y
_atom_site_fract_z
O1	O	1.115824	0.102851	-0.089342
O2	O	1.615824	0.602851	0.410658
O3	O	0.872039	0.116231	-0.089337
O4	O	1.372039	0.616231	0.410663
O5	O	1.000621	-0.012351	-0.089342
O6	O	1.500621	0.487649	0.410658
O7	O	0.987242	0.231433	-0.089338
O8	O	1.487242	0.731433	0.410662
O9	O	0.990951	-0.002665	0.089301
O10	O	1.490951	0.497335	0.589301
O11	O	0.862369	0.125917	0.089305
O12	O	1.362369	0.625917	0.589305
O13	O	1.106154	0.112538	0.089300
O14	O	1.606154	0.612538	0.589300
Cu15	Cu	0.983378	0.120112	0.105614
Cu16	Cu	1.483378	0.620112	0.605614
Cu17	Cu	0.994815	0.108657	-0.105651
Cu18	Cu	1.494815	0.608657	0.394349
O19	O	0.977572	0.241120	0.089304
O20	O	1.477572	0.741120	0.589304
C21	C	0.836009	0.120529	-0.000016
C22	C	1.336009	0.620529	0.499984
C23	C	0.743056	0.118897	-0.000014
C24	C	1.243056	0.618897	0.499986
C25	C	0.405319	0.112895	-0.000026
C26	C	0.905319	0.612895	0.499974
C27	C	0.428634	0.205680	-0.000424
C28	C	0.928634	0.705680	0.499576
C29	C	0.525287	0.207466	-0.000016
C30	C	1.025287	0.707466	0.499984
C31	C	0.572874	0.115873	-0.000021
C32	C	1.072874	0.615873	0.499979
C33	C	0.538260	0.075005	0.101989
C34	C	1.038260	0.575005	0.601989
C35	C	0.441466	0.073892	0.102069
C36	C	0.941466	0.573892	0.602069
C37	C	0.452607	0.060982	-0.101080
C38	C	0.952607	0.560982	0.398920
C39	C	0.549172	0.064348	-0.102424
C40	C	1.049172	0.564348	0.397576
C41	C	0.667570	0.117551	-0.000014
C42	C	1.167570	0.617551	0.499986
C43	C	0.310624	0.111214	-0.000026
C44	C	0.810624	0.611214	0.499974
C45	C	0.995242	-0.038704	-0.000023
C46	C	1.495242	0.461296	0.499977
C47	C	0.993610	-0.131657	-0.000031
C48	C	1.493610	0.368343	0.499969
C49	C	0.987608	-0.469394	-0.000021
C50	C	1.487608	0.030606	0.499979
C51	C	1.080393	-0.446079	0.000376
C52	C	1.580393	0.053921	0.500376
C53	C	1.082179	-0.349426	-0.000031
C54	C	1.582179	0.150574	0.499969
C55	C	0.990586	-0.301839	-0.000026
C56	C	1.490586	0.198161	0.499974
C57	C	0.949709	-0.336461	-0.102035
C58	C	1.449709	0.163539	0.397965
C59	C	0.948596	-0.433256	-0.102116
C60	C	1.448596	0.066744	0.397884
C61	C	0.935704	-0.422097	0.101033
C62	C	1.435704	0.077903	0.601033
C63	C	0.939070	-0.325533	0.102378
C64	C	1.439070	0.174467	0.602378
C65	C	0.992264	-0.207143	-0.000032
C66	C	1.492264	0.292857	0.499968
C67	C	0.985927	-0.564089	-0.000022
C68	C	1.485927	-0.064089	0.499978
C69	C	1.142185	0.108239	-0.000024
C70	C	1.642185	0.608239	0.499976
C71	C	1.235138	0.109871	-0.000033
C72	C	1.735138	0.609871	0.499967
C73	C	0.982952	0.267472	-0.000017
C74	C	1.482952	0.767472	0.499983
C75	C	0.984584	0.360425	-0.000016
C76	C	1.484584	0.860425	0.499984
N77	N	0.975341	0.128168	0.254206
N78	N	1.475341	0.628168	0.754206
N79	N	1.002859	0.100594	-0.254244
N80	N	1.502859	0.600594	0.245756
C81	C	0.963518	0.140026	0.473322
C82	C	1.463518	0.640026	0.973322
C83	C	1.014679	0.088738	0.526647
C84	C	1.514679	0.588738	1.026647
C85	C	1.008101	0.095336	0.648571
C86	C	1.508101	0.595336	1.148571
C87	C	0.970095	0.133429	0.351388
C88	C	1.470095	0.633429	0.851388
H89	H	0.554203	0.111343	0.177907
H90	H	1.054203	0.611343	0.677907
C91	C	1.080537	0.022734	0.464622
C92	C	1.580537	0.522734	0.964622
N93	N	1.130143	-0.026974	0.417899
N94	N	1.630143	0.473026	0.917899
H95	H	0.395670	0.245198	0.072322
H96	H	0.895670	0.745198	0.572322
H97	H	0.914780	0.188888	0.519231
H98	H	1.414780	0.688888	1.019231
H99	H	0.548264	0.239834	-0.073143
H100	H	1.048264	0.739834	0.426857
H101	H	0.426679	0.006097	0.106700
H102	H	0.926679	0.506097	0.606700
C103	C	0.843370	-0.440941	0.101978
C104	C	1.343370	0.059059	0.601978
N105	N	0.773828	-0.455143	0.102685
N106	N	1.273828	0.044857	0.602685
H107	H	0.569937	0.007810	0.105779
H108	H	1.069937	0.507810	0.605779
C109	C	0.579775	0.104454	-0.204378
C110	C	1.079775	0.604454	0.295622
N111	N	0.602833	0.134661	-0.281168
N112	N	1.102833	0.634661	0.218832
C113	C	0.396148	0.248653	-0.099251
C114	C	0.896148	0.748653	0.400749
N115	N	0.371673	0.281020	-0.173692
N116	N	0.871673	0.781020	0.326308
C117	C	0.433771	-0.031354	-0.102019
C118	C	0.933771	0.468646	0.397981
N119	N	0.419577	-0.100899	-0.102719
N120	N	0.919577	0.399101	0.397281
H121	H	1.112205	-0.470117	0.073531
H122	H	1.612205	0.029883	0.573531
C123	C	0.544787	0.262206	0.098952
C124	C	1.044787	0.762206	0.598952
N125	N	0.559473	0.303436	0.173503
N126	N	1.059473	0.803436	0.673503
H127	H	0.410514	0.110161	0.178326
H128	H	0.910514	0.610161	0.678326
H129	H	1.119904	-0.479049	-0.072370
H130	H	1.619904	0.020951	0.427630
C131	C	0.998794	-0.314940	-0.204599
C132	C	1.498794	0.185060	0.295401
N133	N	1.035770	-0.298734	-0.281848
N134	N	1.535770	0.201266	0.218152
H135	H	0.428459	0.085798	-0.178398
H136	H	0.928459	0.585798	0.321602
C137	C	0.997596	-0.475082	-0.205128
C138	C	1.497596	0.024918	0.294872
N139	N	1.034509	-0.506581	-0.282715
N140	N	1.534509	-0.006581	0.217285
H141	H	1.114559	-0.326444	0.073092
H142	H	1.614559	0.173556	0.573092
C143	C	1.136914	-0.329934	-0.098997
C144	C	1.636914	0.170066	0.401003
N145	N	1.178140	-0.315255	-0.173545
N146	N	1.678140	0.184745	0.326455
C147	C	0.594173	-0.026425	-0.110746
C148	C	1.094173	0.473575	0.389254
N149	N	0.628065	-0.094799	-0.117004
N150	N	1.128065	0.405201	0.382996
H151	H	0.880799	-0.448042	-0.106734
H152	H	1.380799	0.051958	0.393266
H153	H	0.882513	-0.304785	-0.105824
H154	H	1.382513	0.195215	0.394176
C155	C	0.969330	-0.454612	0.205489
C156	C	1.469330	0.045388	0.705489
N157	N	0.994667	-0.479102	0.284160
N158	N	1.494667	0.020898	0.784160
H159	H	0.871883	-0.292215	0.108542
H160	H	1.371883	0.207785	0.608542
C161	C	0.979174	-0.294904	0.204332
C162	C	1.479174	0.205096	0.704332
N163	N	1.009375	-0.271821	0.281122
N164	N	1.509375	0.228179	0.781122
