data_functionalizedCrystal
_audit_creation_method	'MofGen! by Chris Wilmer'
_symmetry_space_group_name_H-M	'P1'
_symmetry_Int_Tables_number	1
_symmetry_cell_setting	triclinic
loop_
_symmetry_equiv_pos_as_xyz
  x,y,z
_cell_length_a	12.645331
_cell_length_b	11.169416
_cell_length_c	11.169409
_cell_angle_alpha	90.030874
_cell_angle_beta	89.976637
_cell_angle_gamma	89.990681
loop_
_atom_site_label
_atom_site_type_symbol
_atom_site_fract_x
_atom_site_fract_y
_atom_site_fract_z
Zn1	Zn	1.620793	0.477743	-0.678668
Zn2	Zn	2.120793	0.977743	-0.178668
Zn3	Zn	1.620695	0.678483	-0.477990
Zn4	Zn	2.120695	1.178483	0.022010
Zn5	Zn	1.443505	0.477809	-0.477990
Zn6	Zn	1.943505	0.977809	0.022010
Zn7	Zn	1.443512	0.678379	-0.678623
Zn8	Zn	1.943512	1.178379	-0.178623
O9	O	1.532126	0.578103	-0.578318
O10	O	2.032126	1.078103	-0.078318
O11	O	1.769127	0.504387	-0.652067
O12	O	2.269127	1.004387	-0.152067
O13	O	1.597147	0.651935	-0.310040
O14	O	2.097147	1.151935	0.189960
O15	O	1.467061	0.309851	-0.504630
O16	O	1.967061	0.809851	-0.004630
O17	O	1.769055	0.651870	-0.504630
O18	O	2.269055	1.151870	-0.004630
O19	O	1.597313	0.309802	-0.652067
O20	O	2.097313	0.809802	-0.152067
O21	O	1.466966	0.504500	-0.310040
O22	O	1.966966	1.004500	0.189960
O23	O	1.295159	0.504399	-0.504586
O24	O	1.795159	1.004399	-0.004586
O25	O	1.467072	0.651692	-0.846579
O26	O	1.967072	1.151692	-0.346579
O27	O	1.295164	0.651757	-0.651989
O28	O	1.795164	1.151757	-0.151989
O29	O	1.597320	0.504286	-0.846612
O30	O	2.097320	1.004286	-0.346612
O31	O	1.597153	0.846419	-0.504586
O32	O	2.097153	1.346419	-0.004586
O33	O	1.466977	0.846342	-0.651989
O34	O	1.966977	1.346342	-0.151989
C35	C	1.532084	0.889928	-0.578309
C36	C	2.032084	1.389928	-0.078309
C37	C	1.532163	1.023328	-0.578345
C38	C	2.032163	1.523328	-0.078345
C39	C	1.256696	0.578075	-0.578283
C40	C	1.756696	1.078075	-0.078283
C41	C	1.138866	0.578092	-0.578297
C42	C	1.638866	1.078092	-0.078297
C43	C	1.532207	0.577970	-0.891360
C44	C	2.032207	1.077970	-0.391360
C45	C	1.532242	0.577913	-1.024761
C46	C	2.032242	1.077913	-0.524761
C47	C	0.971264	0.484962	-0.486077
C48	C	1.471264	0.984962	0.013923
C49	C	1.093824	0.485203	-0.485670
C50	C	1.593824	0.985203	0.014330
C51	C	1.094360	0.704527	-0.543753
C52	C	1.594360	1.204527	-0.043753
C53	C	0.971761	0.704018	-0.543124
C54	C	1.471761	1.204018	-0.043124
C55	C	0.971715	0.545989	-0.705417
C56	C	1.471715	1.045989	-0.205417
C57	C	1.094320	0.543165	-0.704711
C58	C	1.594320	1.043165	-0.204711
C59	C	1.808631	0.578133	-0.578353
C60	C	2.308631	1.078133	-0.078353
C61	C	1.926461	0.578145	-0.578369
C62	C	2.426461	1.078145	-0.078369
C63	C	1.532197	0.265061	-0.578353
C64	C	2.032197	0.765061	-0.078353
C65	C	1.532227	0.131661	-0.578368
C66	C	2.032227	0.631661	-0.078368
C67	C	1.532106	0.578150	-0.266493
C68	C	2.032106	1.078150	0.233507
C69	C	1.532277	0.577868	-0.133094
C70	C	2.032277	1.077868	0.366906
H71	H	0.941789	0.390924	-0.507496
H72	H	1.441789	0.890924	-0.007496
H73	H	0.943118	0.731286	-0.450245
H74	H	1.443118	1.231286	0.049755
O75	O	0.932490	0.799101	-0.628269
O76	O	1.432490	1.299101	-0.128269
H77	H	0.883771	0.756712	-0.699229
H78	H	1.383771	1.256712	-0.199229
H79	H	1.123538	0.775811	-0.608864
H80	H	1.623538	1.275811	-0.108864
O81	O	0.930794	0.425989	-0.747036
O82	O	1.430794	0.925989	-0.247036
H83	H	0.843179	0.428888	-0.752250
H84	H	1.343179	0.928888	-0.252250
O85	O	0.933328	0.635875	-0.796513
O86	O	1.433328	1.135875	-0.296513
H87	H	1.002273	0.681441	-0.837814
H88	H	1.502273	1.181441	-0.337814
H89	H	1.123103	0.506458	-0.391522
H90	H	1.623103	1.006458	0.108478
O91	O	1.134936	0.626507	-0.800672
O92	O	1.634936	1.126507	-0.300672
H93	H	1.101997	0.599337	-0.888683
H94	H	1.601997	1.099337	-0.388683
O95	O	1.134950	0.741274	-0.422039
O96	O	1.634950	1.241274	0.077961
H97	H	1.186808	0.669699	-0.385955
H98	H	1.686808	1.169699	0.114045
O99	O	0.930440	0.512814	-0.362087
O100	O	1.430440	1.012814	0.137913
H101	H	0.878377	0.592735	-0.365910
H102	H	1.378377	1.092735	0.134090
O103	O	1.132856	0.419924	-0.739233
O104	O	1.632856	0.919924	-0.239233
H105	H	1.183530	0.383689	-0.666671
H106	H	1.683530	0.883689	-0.166671
H107	H	1.123914	0.391447	-0.507322
H108	H	1.623914	0.891447	-0.007322
