data_functionalizedCrystal
_audit_creation_method	'MofGen! by Chris Wilmer'
_symmetry_space_group_name_H-M	'P1'
_symmetry_Int_Tables_number	1
_symmetry_cell_setting	triclinic
loop_
_symmetry_equiv_pos_as_xyz
  x,y,z
_cell_length_a	11.792254
_cell_length_b	10.489716
_cell_length_c	10.268362
_cell_angle_alpha	89.998762
_cell_angle_beta	89.995475
_cell_angle_gamma	84.363867
loop_
_atom_site_label
_atom_site_type_symbol
_atom_site_fract_x
_atom_site_fract_y
_atom_site_fract_z
O1	O	1.507358	0.174912	-0.108287
O2	O	1.177066	0.192913	-0.108288
O3	O	1.349743	-0.001713	-0.108292
O4	O	1.334682	0.369537	-0.108283
O5	O	1.349727	-0.001721	0.108309
O6	O	1.177051	0.192905	0.108312
O7	O	1.507343	0.174903	0.108314
Cu8	Cu	1.342196	0.183903	0.128091
Cu9	Cu	1.342214	0.183913	-0.128065
O10	O	1.334667	0.369529	0.108318
C11	C	1.134765	0.191775	0.000012
C12	C	1.008743	0.188381	0.000011
C13	C	0.906399	0.185623	0.000005
C14	C	0.778004	0.182175	0.000004
C15	C	1.348603	-0.049245	0.000004
C16	C	1.345218	-0.190865	-0.000008
C17	C	1.451108	-0.288894	0.000005
C18	C	1.395161	-0.366063	-0.106788
C19	C	1.395122	-0.366035	0.106764
C20	C	1.289315	-0.266168	-0.106888
C21	C	1.289291	-0.266135	0.106759
C22	C	1.233266	-0.343255	-0.000059
C23	C	1.549644	0.176041	0.000011
C24	C	1.675666	0.179436	0.000004
C25	C	1.335806	0.417062	0.000019
C26	C	1.339192	0.558681	0.000022
N27	N	1.342191	0.183896	0.308256
N28	N	1.342227	0.183911	-0.308231
C29	C	1.342208	0.183911	0.573927
C30	C	1.342195	0.183906	0.426089
H31	H	1.439868	-0.409705	-0.197074
C32	C	1.573846	-0.256146	-0.000333
C33	C	1.592960	-0.183551	-0.111200
C34	C	1.705997	-0.153318	-0.111552
H35	H	1.623849	-0.332871	-0.001230
H36	H	1.587549	-0.208132	0.075530
H37	H	1.579270	-0.231564	-0.187043
H38	H	1.542985	-0.106811	-0.110326
H39	H	1.719699	-0.105304	-0.035690
H40	H	1.755990	-0.230049	-0.112446
H41	H	1.718978	-0.104049	-0.186768
H42	H	1.244645	-0.222711	-0.197273
C43	C	1.110342	-0.375356	-0.000398
C44	C	1.055442	-0.324364	-0.112415
C45	C	0.942211	-0.353927	-0.112785
H46	H	1.072332	-0.339632	0.074659
H47	H	1.108787	-0.465736	0.000257
H48	H	1.056990	-0.234002	-0.113057
H49	H	1.093418	-0.360080	-0.187489
H50	H	0.940656	-0.444307	-0.112131
H51	H	0.904212	-0.318201	-0.037724
H52	H	0.904950	-0.319344	-0.188792
H53	H	1.244623	-0.222470	0.197049
H54	H	1.439838	-0.409661	0.197046
