data_functionalizedCrystal
_audit_creation_method	'MofGen! by Chris Wilmer'
_symmetry_space_group_name_H-M	'P1'
_symmetry_Int_Tables_number	1
_symmetry_cell_setting	triclinic
loop_
_symmetry_equiv_pos_as_xyz
  x,y,z
_cell_length_a	29.839134
_cell_length_b	16.625545
_cell_length_c	16.625539
_cell_angle_alpha	89.971766
_cell_angle_beta	89.967978
_cell_angle_gamma	90.019384
loop_
_atom_site_label
_atom_site_type_symbol
_atom_site_fract_x
_atom_site_fract_y
_atom_site_fract_z
Zn1	Zn	-0.686811	0.321100	0.456156
Zn2	Zn	-0.186811	0.821100	0.956156
Zn3	Zn	-0.686755	0.455943	0.321323
Zn4	Zn	-0.186755	0.955943	0.821323
Zn5	Zn	-0.611683	0.321117	0.321310
Zn6	Zn	-0.111683	0.821117	0.821310
Zn7	Zn	-0.611664	0.455884	0.456086
Zn8	Zn	-0.111664	0.955884	0.956086
O9	O	-0.649228	0.388511	0.388719
O10	O	-0.149228	0.888511	0.888719
O11	O	-0.749671	0.339005	0.438305
O12	O	-0.249671	0.839005	0.938305
O13	O	-0.676781	0.438091	0.208489
O14	O	-0.176781	0.938091	0.708489
O15	O	-0.621680	0.208283	0.339221
O16	O	-0.121680	0.708283	0.839221
O17	O	-0.749629	0.438074	0.339244
O18	O	-0.249629	0.938074	0.839244
O19	O	-0.676876	0.208270	0.438292
O20	O	-0.176876	0.708270	0.938292
O21	O	-0.621626	0.339035	0.208479
O22	O	-0.121626	0.839035	0.708479
O23	O	-0.548813	0.338977	0.339153
O24	O	-0.048813	0.838977	0.839153
O25	O	-0.621648	0.437972	0.568928
O26	O	-0.121648	0.937972	1.068928
O27	O	-0.548800	0.437989	0.438173
O28	O	-0.048800	0.937989	0.938173
O29	O	-0.676858	0.338947	0.568979
O30	O	-0.176858	0.838947	1.068979
O31	O	-0.676763	0.568768	0.339177
O32	O	-0.176763	1.068768	0.839177
O33	O	-0.621594	0.568724	0.438186
O34	O	-0.121594	1.068724	0.938186
C35	C	-0.532506	0.388479	0.388655
C36	C	-0.032506	0.888479	0.888655
C37	C	-0.482571	0.388484	0.388646
C38	C	0.017429	0.888484	0.888646
C39	C	-0.172930	0.440150	0.440190
C40	C	0.327070	0.940150	0.940190
C41	C	0.014743	0.440176	0.440216
C42	C	0.514743	0.940176	0.940216
O43	O	0.039006	0.484062	0.484019
O44	O	0.539006	0.984062	0.984019
N45	N	0.038214	0.388551	0.388743
N46	N	0.538214	0.888551	0.888743
C47	C	0.014764	0.336913	0.337264
C48	C	0.514764	0.836913	0.837264
O49	O	0.039034	0.292997	0.293489
O50	O	0.539034	0.792997	0.793489
C51	C	-0.172908	0.336884	0.337242
C52	C	0.327092	0.836884	0.837242
C53	C	-0.196377	0.388517	0.388713
C54	C	0.303623	0.888517	0.888713
C55	C	-0.196399	0.491779	0.491657
C56	C	0.303601	0.991779	0.991657
C57	C	-0.243314	0.491775	0.491647
C58	C	0.256686	0.991775	0.991647
C59	C	-0.266761	0.440143	0.440170
C60	C	0.233239	0.940143	0.940170
C61	C	-0.243292	0.388514	0.388703
C62	C	0.256708	0.888514	0.888703
C63	C	-0.196358	0.285242	0.285768
C64	C	0.303642	0.785242	0.785768
C65	C	-0.243279	0.285238	0.285769
C66	C	0.256721	0.785238	0.785769
C67	C	-0.266747	0.336871	0.337239
C68	C	0.233253	0.836871	0.837239
C69	C	-0.313655	0.336877	0.337216
C70	C	0.186345	0.836877	0.837216
N71	N	-0.337126	0.388502	0.388689
N72	N	0.162874	0.888502	0.888689
C73	C	-0.313679	0.440134	0.440166
C74	C	0.186321	0.940134	0.940166
C75	C	0.113294	0.336933	0.337277
C76	C	0.613294	0.836933	0.837277
C77	C	0.160212	0.336941	0.337281
C78	C	0.660212	0.836941	0.837281
C79	C	0.160188	0.440203	0.440235
C80	C	0.660188	0.940203	0.940235
C81	C	0.113269	0.440198	0.440226
C82	C	0.613269	0.940198	0.940226
C83	C	0.089823	0.388557	0.388750
C84	C	0.589823	0.888557	0.888750
C85	C	-0.412205	0.440123	0.440140
C86	C	0.087795	0.940123	0.940140
C87	C	-0.459124	0.440117	0.440123
C88	C	0.040876	0.940117	0.940123
C89	C	-0.459096	0.336852	0.337173
C90	C	0.040904	0.836852	0.837173
C91	C	-0.412181	0.336861	0.337187
C92	C	0.087819	0.836861	0.837187
C93	C	-0.388736	0.388499	0.388677
C94	C	0.111264	0.888499	0.888677
O95	O	-0.337946	0.293007	0.293442
O96	O	0.162054	0.793007	0.793442
O97	O	-0.337957	0.484030	0.483946
O98	O	0.162043	0.984030	0.983946
C99	C	-0.126015	0.440154	0.440200
C100	C	0.373985	0.940154	0.940200
C101	C	-0.102546	0.388525	0.388733
C102	C	0.397454	0.888525	0.888733
C103	C	-0.125993	0.336892	0.337256
C104	C	0.374007	0.836892	0.837256
C105	C	-0.055628	0.388533	0.388737
C106	C	0.444372	0.888533	0.888737
C107	C	-0.032181	0.440166	0.440214
C108	C	0.467819	0.940166	0.940214
C109	C	-0.055652	0.491791	0.491687
C110	C	0.444348	0.991791	0.991687
C111	C	-0.102568	0.491787	0.491677
C112	C	0.397432	0.991787	0.991677
C113	C	-0.102522	0.285268	0.285783
C114	C	0.397478	0.785268	0.785783
C115	C	-0.055606	0.285276	0.285797
C116	C	0.444394	0.785276	0.785797
C117	C	-0.032160	0.336909	0.337274
C118	C	0.467840	0.836909	0.837274
C119	C	-0.649182	0.598002	0.388693
C120	C	-0.149182	1.098002	0.888693
C121	C	-0.649204	0.687623	0.388709
C122	C	-0.149204	1.187623	0.888709
C123	C	0.233593	0.388548	0.388771
C124	C	0.733593	0.888548	0.888771
C125	C	0.183659	0.388574	0.388758
C126	C	0.683659	0.888574	0.888758
C127	C	-0.649277	1.015799	0.388805
C128	C	-0.149277	1.515799	0.888805
C129	C	-0.649256	0.924490	0.388781
C130	C	-0.149256	1.424490	0.888781
C131	C	-0.649240	0.851714	0.388757
C132	C	-0.149240	1.351714	0.888757
C133	C	-0.649219	0.760399	0.388733
C134	C	-0.149219	1.260399	0.888733
C135	C	-0.649257	0.388451	0.599028
C136	C	-0.149257	0.888451	1.099028
C137	C	-0.649270	0.388425	0.688649
C138	C	-0.149270	0.888425	1.188649
C139	C	-0.649282	1.178202	0.388772
C140	C	-0.149282	1.678202	0.888772
C141	C	-0.649296	1.088581	0.388819
C142	C	-0.149296	1.588581	0.888819
C143	C	-0.649225	0.388513	0.179228
C144	C	-0.149225	0.888513	0.679228
C145	C	-0.649300	0.388311	0.089607
C146	C	-0.149300	0.888311	0.589607
C147	C	-0.649291	0.388335	1.016825
C148	C	-0.149291	0.888335	1.516825
C149	C	-0.649284	0.388363	0.925516
C150	C	-0.149284	0.888363	1.425516
C151	C	-0.649280	0.388381	0.852740
C152	C	-0.149280	0.888381	1.352740
C153	C	-0.649273	0.388407	0.761426
C154	C	-0.149273	0.888407	1.261426
H155	H	-0.262418	0.533819	0.533561
H156	H	0.237582	1.033819	1.033561
H157	H	-0.036554	0.533834	0.533599
H158	H	0.463446	1.033834	1.033599
C159	C	0.087458	0.496994	0.496851
C160	C	0.587458	0.996994	0.996851
N161	N	0.068020	0.539774	0.539506
N162	N	0.568020	1.039774	1.039506
H163	H	-0.393122	0.482170	0.482070
H164	H	0.106878	0.982170	0.982070
C165	C	-0.170615	0.548593	0.548282
C166	C	0.329385	1.048593	1.048282
N167	N	-0.151197	0.591396	0.590929
N168	N	0.348803	1.091396	1.090929
H169	H	0.179286	0.482245	0.482149
H170	H	0.679286	0.982245	0.982149
H171	H	-0.478230	0.482166	0.482037
H172	H	0.021770	0.982166	0.982037
C173	C	0.186022	0.280145	0.280655
C174	C	0.686022	0.780145	0.780655
N175	N	0.205461	0.237359	0.238006
N176	N	0.705461	0.737359	0.738006
C177	C	0.087510	0.280125	0.280641
C178	C	0.587510	0.780125	0.780641
N179	N	0.068091	0.237340	0.237978
N180	N	0.568091	0.737340	0.737978
H181	H	-0.177258	0.243198	0.243853
H182	H	0.322742	0.743198	0.743853
H183	H	-0.036502	0.243231	0.243876
H184	H	0.463498	0.743231	0.743876
H185	H	-0.262366	0.243179	0.243855
H186	H	0.237634	0.743179	0.743855
C187	C	-0.386364	0.280068	0.280561
C188	C	0.113636	0.780068	0.780561
N189	N	-0.366923	0.237284	0.237914
N190	N	0.133077	0.737284	0.737914
C191	C	-0.484897	0.280049	0.280561
C192	C	0.015103	0.780049	0.780561
N193	N	-0.504331	0.237258	0.237927
N194	N	-0.004331	0.737258	0.737927
H195	H	-0.121672	0.533832	0.533590
H196	H	0.378328	1.033832	1.033590
C197	C	-0.128307	0.228468	0.229148
C198	C	0.371693	0.728468	0.729148
N199	N	-0.147726	0.185686	0.186482
N200	N	0.352274	0.685686	0.686482
