data_functionalizedCrystal
_audit_creation_method	'MofGen! by Chris Wilmer'
_symmetry_space_group_name_H-M	'P1'
_symmetry_Int_Tables_number	1
_symmetry_cell_setting	triclinic
loop_
_symmetry_equiv_pos_as_xyz
  x,y,z
_cell_length_a	18.215407
_cell_length_b	19.805405
_cell_length_c	18.215399
_cell_angle_alpha	90.033020
_cell_angle_beta	90.016824
_cell_angle_gamma	90.026858
loop_
_atom_site_label
_atom_site_type_symbol
_atom_site_fract_x
_atom_site_fract_y
_atom_site_fract_z
Zn1	Zn	1.125042	-0.269446	0.416102
Zn2	Zn	1.124954	-0.382642	0.293030
Zn3	Zn	1.001981	-0.269473	0.293050
Zn4	Zn	1.001937	-0.382599	0.416055
O5	O	1.063479	-0.326040	0.354559
O6	O	1.228015	-0.284468	0.399788
O7	O	1.108623	-0.367659	0.190049
O8	O	1.018361	-0.174753	0.309401
O9	O	1.227950	-0.367633	0.309368
O10	O	1.108773	-0.174733	0.399807
O11	O	1.018275	-0.284514	0.190063
O12	O	0.898991	-0.284473	0.309355
O13	O	1.018286	-0.367560	0.519046
O14	O	0.898959	-0.367586	0.399727
O15	O	1.108731	-0.284427	0.519080
O16	O	1.108580	-0.477353	0.309322
O17	O	1.018201	-0.477321	0.399708
C18	C	0.872272	-0.326028	0.354538
C19	C	0.790474	-0.326040	0.354547
C20	C	0.602282	-0.369385	0.401544
C21	C	0.525423	-0.369387	0.401553
C22	C	0.525427	-0.282707	0.307591
C23	C	0.602285	-0.282702	0.307586
C24	C	0.640710	-0.326045	0.354561
C25	C	0.486994	-0.326052	0.354575
C26	C	0.403660	-0.326054	0.354585
C27	C	0.724049	-0.326042	0.354553
C28	C	1.063396	-0.501896	0.354524
C29	C	1.063428	-0.577128	0.354533
C30	C	1.110534	-0.612466	0.307518
C31	C	1.110565	-0.683154	0.307535
C32	C	1.063486	-0.718504	0.354562
C33	C	1.016378	-0.683161	0.401582
C34	C	1.016351	-0.612474	0.401569
C35	C	1.016486	-0.968234	0.401637
C36	C	1.016515	-1.038926	0.401645
C37	C	1.110701	-1.038915	0.307602
C38	C	1.110674	-0.968228	0.307589
C39	C	1.063569	-0.932891	0.354611
C40	C	1.063536	-0.856242	0.354594
C41	C	1.063514	-0.795151	0.354577
C42	C	1.255432	-0.326052	0.354581
C43	C	1.337231	-0.326057	0.354590
C44	C	1.063514	-0.325986	0.546512
C45	C	1.063528	-0.325963	0.628311
C46	C	1.063582	-0.149497	0.354611
C47	C	1.063626	-0.074265	0.354633
C48	C	1.063486	-0.326045	0.163353
C49	C	1.063614	-0.325877	0.081555
C50	C	1.016524	-0.282640	0.816514
C51	C	1.016537	-0.282627	0.893372
C52	C	1.110620	-0.369205	0.893347
C53	C	1.110603	-0.369221	0.816489
C54	C	1.063556	-0.325935	0.778075
C55	C	1.063586	-0.325905	0.931791
C56	C	1.063600	-0.325891	1.015125
C57	C	1.063541	-0.325950	0.694736
H58	H	0.633574	-0.247405	0.269327
H59	H	0.494132	-0.247420	0.269344
H60	H	0.633566	-0.404676	0.439797
H61	H	0.494139	-0.404678	0.439812
F62	F	1.160639	-0.574851	0.257460
H63	H	0.978238	-0.247372	0.924666
H64	H	0.978215	-0.247394	0.785239
F65	F	0.966216	-0.574865	0.451611
F66	F	1.160690	-0.415269	0.934237
F67	F	1.160662	-0.415307	0.775578
H68	H	1.148924	-0.711923	0.269250
F69	F	1.160839	-1.076528	0.257560
F70	F	1.160782	-0.930610	0.257535
H71	H	0.978178	-1.067705	0.439946
H72	H	0.978048	-0.711948	0.439876
F73	F	0.966352	-0.930635	0.451681
