data_functionalizedCrystal
_audit_creation_method	'MofGen! by Chris Wilmer'
_symmetry_space_group_name_H-M	'P1'
_symmetry_Int_Tables_number	1
_symmetry_cell_setting	triclinic
loop_
_symmetry_equiv_pos_as_xyz
  x,y,z
_cell_length_a	14.971486
_cell_length_b	17.699083
_cell_length_c	13.448316
_cell_angle_alpha	89.992503
_cell_angle_beta	89.998199
_cell_angle_gamma	83.448572
loop_
_atom_site_label
_atom_site_type_symbol
_atom_site_fract_x
_atom_site_fract_y
_atom_site_fract_z
O1	O	1.186608	0.098633	-0.082580
O2	O	1.519942	0.431967	0.250754
O3	O	1.853275	0.765300	0.584087
O4	O	0.926168	0.110445	-0.082607
O5	O	1.259501	0.443778	0.250726
O6	O	1.592834	0.777111	0.584060
O7	O	1.063746	-0.005632	-0.082584
O8	O	1.397079	0.327701	0.250750
O9	O	1.730413	0.661035	0.584083
O10	O	1.049030	0.214710	-0.082603
O11	O	1.382363	0.548044	0.250731
O12	O	1.715697	0.881377	0.584064
O13	O	1.063729	-0.005639	0.082800
O14	O	1.397062	0.327694	0.416133
O15	O	1.730395	0.661028	0.749467
O16	O	0.926150	0.110438	0.082777
O17	O	1.259484	0.443771	0.416110
O18	O	1.592817	0.777104	0.749444
O19	O	1.186591	0.098626	0.082804
O20	O	1.519924	0.431960	0.416138
O21	O	1.853258	0.765293	0.749471
Cu22	Cu	1.056369	0.104531	0.097891
Cu23	Cu	1.389703	0.437865	0.431225
Cu24	Cu	1.723036	0.771198	0.764558
Cu25	Cu	1.056390	0.104540	-0.097694
Cu26	Cu	1.389723	0.437873	0.235639
Cu27	Cu	1.723056	0.771206	0.568973
O28	O	1.049013	0.214703	0.082781
O29	O	1.382346	0.548036	0.416114
O30	O	1.715679	0.881370	0.749448
C31	C	0.892836	0.109913	0.000082
C32	C	1.226169	0.443246	0.333415
C33	C	1.559503	0.776580	0.666748
C34	C	0.793544	0.108330	0.000071
C35	C	1.126878	0.441663	0.333405
C36	C	1.460211	0.774997	0.666738
C37	C	1.063210	-0.033834	0.000108
C38	C	1.396543	0.299499	0.333442
C39	C	1.729877	0.632833	0.666775
C40	C	1.061628	-0.117856	0.000109
C41	C	1.394962	0.215477	0.333442
C42	C	1.728295	0.548811	0.666775
C43	C	0.736085	0.176522	0.000067
C44	C	1.069418	0.509855	0.333400
C45	C	1.402751	0.843189	0.666734
C46	C	0.642790	0.175030	0.000082
C47	C	0.976124	0.508364	0.333415
C48	C	1.309457	0.841697	0.666749
C49	C	0.606958	0.105346	0.000094
C50	C	0.940291	0.438679	0.333428
C51	C	1.273624	0.772012	0.666761
C52	C	0.664425	0.037148	0.000102
C53	C	0.997758	0.370482	0.333435
C54	C	1.331091	0.703815	0.666768
C55	C	0.757717	0.038641	0.000094
C56	C	1.091051	0.371974	0.333427
C57	C	1.424384	0.705308	0.666761
C58	C	0.469973	0.034042	0.000116
C59	C	0.803306	0.367375	0.333449
C60	C	1.136640	0.700709	0.666782
C61	C	0.376674	0.032549	0.000122
C62	C	0.710007	0.365882	0.333455
C63	C	1.043341	0.699216	0.666788
C64	C	0.355046	0.170431	0.000104
C65	C	0.688379	0.503765	0.333437
C66	C	1.021713	0.837098	0.666770
C67	C	0.448339	0.171924	0.000096
C68	C	0.781672	0.505257	0.333429
C69	C	1.115005	0.838591	0.666763
C70	C	0.505799	0.103726	0.000102
C71	C	0.839133	0.437060	0.333435
C72	C	1.172466	0.770393	0.666768
C73	C	1.142384	-0.166278	0.000118
C74	C	1.475717	0.167055	0.333452
C75	C	1.809051	0.500389	0.666785
C76	C	1.140892	-0.245225	0.000110
C77	C	1.474225	0.088108	0.333443
C78	C	1.807559	0.421442	0.666776
C79	C	1.058644	-0.275748	0.000098
C80	C	1.391977	0.057585	0.333431
C81	C	1.725310	0.390918	0.666764
C82	C	0.977882	-0.227320	0.000085
C83	C	1.311215	0.106013	0.333418
C84	C	1.644549	0.439347	0.666752
C85	C	0.979375	-0.148374	0.000087
C86	C	1.312708	0.184959	0.333420
C87	C	1.646041	0.518292	0.666753
C88	C	0.971860	-0.545698	0.000076
C89	C	1.305194	-0.212364	0.333410
C90	C	1.638527	0.120969	0.666743
C91	C	0.970374	-0.624649	0.000077
C92	C	1.303707	-0.291316	0.333411
C93	C	1.637041	0.042017	0.666744
C94	C	1.133378	-0.642548	0.000099
C95	C	1.466711	-0.309215	0.333432
C96	C	1.800045	0.024118	0.666766
C97	C	1.134871	-0.563603	0.000101
C98	C	1.468204	-0.230270	0.333434
C99	C	1.801537	0.103064	0.666767
C100	C	1.054109	-0.515181	0.000083
C101	C	1.387443	-0.181848	0.333416
C102	C	1.720776	0.151485	0.666749
C103	C	1.055728	-0.429578	0.000090
C104	C	1.389061	-0.096245	0.333424
C105	C	1.722394	0.237088	0.666757
C106	C	1.057024	-0.361350	0.000097
C107	C	1.390358	-0.028017	0.333430
C108	C	1.723691	0.305317	0.666764
C109	C	1.219923	0.099158	0.000114
C110	C	1.553256	0.432491	0.333447
C111	C	1.886589	0.765825	0.666780
C112	C	1.319214	0.100741	0.000117
C113	C	1.652548	0.434074	0.333451
C114	C	1.985881	0.767408	0.666784
C115	C	1.049549	0.242905	0.000087
C116	C	1.382882	0.576238	0.333420
C117	C	1.716215	0.909572	0.666754
C118	C	1.051131	0.326927	0.000080
C119	C	1.384464	0.660260	0.333413
C120	C	1.717797	0.993594	0.666747
N121	N	1.056361	0.104525	0.235456
N122	N	1.389695	0.437858	0.568789
N123	N	1.723028	0.771192	0.902122
N124	N	1.056404	0.104540	-0.235258
N125	N	1.389738	0.437873	0.098075
N126	N	1.723071	0.771207	0.431408
C127	C	1.117300	0.053147	0.287506
C128	C	1.450633	0.386481	0.620840
C129	C	1.783967	0.719814	0.954173
C130	C	1.117306	0.053147	0.391610
C131	C	1.450639	0.386480	0.724943
C132	C	1.783972	0.719813	1.058276
C133	C	1.056376	0.104528	0.443660
C134	C	1.389709	0.437861	0.776994
C135	C	1.723043	0.771194	1.110327
C136	C	0.995431	0.155908	0.391602
C137	C	1.328764	0.489241	0.724936
C138	C	1.662098	0.822575	1.058269
C139	C	0.995422	0.155904	0.287501
C140	C	1.328755	0.489238	0.620834
C141	C	1.662089	0.822571	0.954168
C142	C	0.995456	0.155913	0.608582
C143	C	1.328789	0.489246	0.941916
C144	C	1.662123	0.822580	1.275249
C145	C	0.995466	0.155918	0.712691
C146	C	1.328799	0.489251	1.046024
C147	C	1.662133	0.822585	1.379358
C148	C	1.117339	0.053155	0.712691
C149	C	1.450673	0.386489	1.046024
C150	C	1.784006	0.719822	1.379358
C151	C	1.117330	0.053152	0.608590
C152	C	1.450664	0.386485	0.941923
C153	C	1.783997	0.719818	1.275256
C154	C	1.056386	0.104533	0.556539
C155	C	1.389719	0.437866	0.889872
C156	C	1.723053	0.771200	1.223206
H157	H	0.765252	0.233267	0.000056
H158	H	1.098585	0.566601	0.333390
H159	H	1.431919	0.899934	0.666723
C160	C	0.928382	0.212405	0.448851
C161	C	1.261715	0.545738	0.782184
C162	C	1.595048	0.879072	1.115517
H163	H	0.892074	0.242992	0.402939
H164	H	1.225407	0.576326	0.736272
H165	H	1.558741	0.909659	1.069605
H166	H	0.960461	0.243968	0.489464
H167	H	1.293794	0.577302	0.822797
H168	H	1.627127	0.910635	1.156130
H169	H	0.891223	0.185100	0.489456
H170	H	1.224557	0.518433	0.822790
H171	H	1.557890	0.851767	1.156123
H172	H	1.166919	0.011310	0.245134
H173	H	1.500253	0.344643	0.578467
H174	H	1.833586	0.677976	0.911800
C175	C	1.232858	-0.132709	0.000131
C176	C	1.566192	0.200624	0.333465
C177	C	1.899525	0.533957	0.666798
H178	H	1.280739	-0.172858	0.000127
H179	H	1.614072	0.160476	0.333460
H180	H	1.947406	0.493809	0.666793
H181	H	1.236826	-0.102290	0.057804
H182	H	1.570159	0.231043	0.391138
H183	H	1.903492	0.564376	0.724471
H184	H	1.236834	-0.102281	-0.057549
H185	H	1.570167	0.231053	0.275785
H186	H	1.903500	0.564386	0.609118
C187	C	1.222218	-0.695811	0.000108
C188	C	1.555551	-0.362477	0.333441
C189	C	1.888884	-0.029144	0.666774
H190	H	1.271414	-0.666324	0.000126
H191	H	1.604747	-0.332991	0.333460
H192	H	1.938080	0.000343	0.666793
H193	H	1.225036	-0.726974	-0.057566
H194	H	1.558369	-0.393640	0.275767
H195	H	1.891703	-0.060307	0.609101
H196	H	1.225016	-0.726985	0.057787
H197	H	1.558349	-0.393651	0.391121
H198	H	1.891682	-0.060318	0.724454
C199	C	0.879899	-0.658227	0.000056
C200	C	1.213232	-0.324894	0.333390
C201	C	1.546566	0.008440	0.666723
H202	H	0.890580	-0.712179	0.000069
H203	H	1.223914	-0.378846	0.333402
H204	H	1.557247	-0.045513	0.666735
H205	H	0.846664	-0.641610	-0.057624
H206	H	1.179998	-0.308276	0.275710
H207	H	1.513331	0.025057	0.609043
H208	H	0.846644	-0.641617	0.057729
H209	H	1.179978	-0.308284	0.391063
H210	H	1.513311	0.025050	0.724396
H211	H	0.635242	-0.019590	0.000126
H212	H	0.968576	0.313743	0.333459
H213	H	1.301909	0.647076	0.666793
C214	C	0.820923	-0.036370	0.000089
C215	C	1.154256	0.296963	0.333422
C216	C	1.487590	0.630297	0.666756
H217	H	0.786222	-0.078086	0.000087
H218	H	1.119556	0.255247	0.333420
H219	H	1.452889	0.588581	0.666753
H220	H	0.857771	-0.038659	0.057757
H221	H	1.191104	0.294675	0.391091
H222	H	1.524438	0.628008	0.724424
H223	H	0.857760	-0.038648	-0.057596
H224	H	1.191093	0.294685	0.275737
H225	H	1.524427	0.628019	0.609071
H226	H	0.906099	-0.506282	0.000062
H227	H	1.239433	-0.172949	0.333395
H228	H	1.572766	0.160385	0.666728
H229	H	0.910914	-0.252178	0.000069
H230	H	1.244247	0.081155	0.333402
H231	H	1.577580	0.414489	0.666736
H232	H	0.516756	-0.021492	0.000122
H233	H	0.850089	0.311841	0.333455
H234	H	1.183422	0.645175	0.666788
H235	H	0.596010	0.230559	0.000077
H236	H	0.929343	0.563892	0.333410
H237	H	1.262676	0.897226	0.666744
H238	H	1.206652	-0.284648	0.000120
H239	H	1.539985	0.048686	0.333453
H240	H	1.873318	0.382019	0.666786
C241	C	0.337259	-0.044102	0.000141
C242	C	0.670592	0.289231	0.333474
C243	C	1.003925	0.622565	0.666808
H244	H	0.384840	-0.084504	0.000157
H245	H	0.718173	0.248829	0.333490
H246	H	1.051507	0.582162	0.666824
H247	H	0.301314	-0.047550	-0.057529
H248	H	0.634647	0.285783	0.275804
H249	H	0.967980	0.619116	0.609138
H250	H	0.301316	-0.047545	0.057824
H251	H	0.634649	0.285789	0.391157
H252	H	0.967982	0.619122	0.724491
H253	H	0.945799	0.197740	0.245122
H254	H	1.279132	0.531074	0.578456
H255	H	1.612465	0.864407	0.911789
H256	H	1.166962	0.011319	0.755077
H257	H	1.500295	0.344652	1.088410
H258	H	1.833629	0.677986	1.421744
C259	C	1.184346	-0.003362	0.448861
C260	C	1.517680	0.329972	0.782195
C261	C	1.851013	0.663305	1.115528
H262	H	1.220641	-0.033955	0.402952
H263	H	1.553975	0.299379	0.736285
H264	H	1.887308	0.632712	1.069619
H265	H	1.152256	-0.034918	0.489486
H266	H	1.485590	0.298416	0.822819
H267	H	1.818923	0.631749	1.156153
H268	H	1.221519	0.023930	0.489456
H269	H	1.554852	0.357263	0.822789
H270	H	1.888185	0.690596	1.156122
C271	C	0.487754	0.248575	0.000085
C272	C	0.821087	0.581908	0.333418
C273	C	1.154420	0.915241	0.666751
H274	H	0.440172	0.288977	0.000093
H275	H	0.773506	0.622310	0.333426
H276	H	1.106839	0.955644	0.666759
H277	H	0.523698	0.252025	-0.057590
H278	H	0.857031	0.585358	0.275744
H279	H	1.190365	0.918692	0.609077
H280	H	0.523698	0.252016	0.057764
H281	H	0.857031	0.585349	0.391097
H282	H	1.190364	0.918682	0.724430
H283	H	1.201846	-0.538756	0.000115
H284	H	1.535179	-0.205422	0.333449
H285	H	1.868512	0.127911	0.666782
C286	C	0.928389	0.212387	0.769945
C287	C	1.261722	0.545721	1.103279
C288	C	1.595056	0.879054	1.436612
H289	H	0.892067	0.242967	0.724038
H290	H	1.225400	0.576300	1.057372
H291	H	1.558734	0.909634	1.390705
H292	H	0.960439	0.243961	0.810575
H293	H	1.293773	0.577294	1.143908
H294	H	1.627106	0.910628	1.477241
H295	H	0.891248	0.185054	0.810536
H296	H	1.224581	0.518387	1.143869
H297	H	1.557915	0.851721	1.477202
H298	H	0.913615	-0.108949	0.000079
H299	H	1.246948	0.224384	0.333412
H300	H	1.580282	0.557718	0.666745
H301	H	1.166948	0.011317	0.566210
H302	H	1.500281	0.344650	0.899544
H303	H	1.833614	0.677984	1.232877
H304	H	0.308257	0.225960	0.000104
H305	H	0.641590	0.559293	0.333437
H306	H	0.974923	0.892627	0.666770
H307	H	0.945826	0.197751	0.566206
H308	H	1.279159	0.531084	0.899540
H309	H	1.612492	0.864417	1.232873
